data_PCOD8302883
_publ_section_title
;
Structure prediction by ZEFSAII (Michael W. Deem and Ramdas Pophale) SiO2 
 PCOD8302883
Probable space group: P 4/M
;
_chemical_formula_sum "Si O2"
_cell_formula_units_Z 48
_cell_length_a 12.265069
_cell_length_b 12.265069
_cell_length_c 19.671563
_cell_angle_alpha 90.000000
_cell_angle_beta 90.000000
_cell_angle_gamma 90.000000
_cell_volume 2959.230944
_symmetry_space_group_name_H-M "P 4/M"
_symmetry_group_IT_number 83
_symmetry_cell_setting 'tetragonal'
loop_
_space_group_symop_operation_xyz
x,y,z
-y,x,z
-x,-y,z
y,-x,z
-x,-y,-z
y,-x,-z
x,y,-z
-y,x,-z
loop_
_atom_site_type_symbol
_atom_site_label
_atom_site_fract_x
_atom_site_fract_y
_atom_site_fract_z
Si Si1 0.408208 0.781488 0.783502
Si Si2 0.558067 0.328143 0.353359
Si Si3 0.383419 0.994142 0.142550
Si Si4 0.669916 0.557368 0.500000
Si Si5 0.834397 0.034674 0.079532
Si Si6 0.242129 0.628112 0.853909
Si Si7 0.661381 0.414780 0.000000
O O1 0.411317 0.760606 0.703066
O O2 0.402958 0.912889 0.793325
O O3 0.304433 0.725627 0.817634
O O4 0.513064 0.726767 0.819609
O O5 0.635517 0.432926 0.345169
O O6 0.577869 0.269503 0.427588
O O7 0.289690 0.937984 0.097955
O O8 0.500000 0.000000 0.102478
O O9 0.346660 0.115373 0.161590
O O10 0.566697 0.634702 0.500000
O O11 0.916062 0.127627 0.108313
O O12 0.844383 0.033733 0.000000
O O13 0.269436 0.622617 0.934235
O O14 0.645582 0.544966 0.000000
#
# Coordination Sequence:
#
# PCOD8302883 Si02
#       7
#     8   8   8   4   8   8   4
#     4  11  20  34  51  70  96 131 162 195 246 293
#     4   9  15  25  48  75 104 130 156 193 234 283
#     4  10  23  36  44  65  96 124 155 197 240 295
#     4   7  12  22  38  74 109 127 149 188 235 276
#     4   9  18  35  55  68  78 106 155 208 254 292
#     4  11  22  36  49  71  95 123 168 206 249 296
#     4  11  22  36  53  71  93 122 163 222 253 293
#
# _framework density 16.220428999999999
#
# number of rings (size 3 to 8) (size 9 to 14) (size 15 to 20)
#    0.000    2.167    3.333    2.500    1.167    0.667 
#    6.000    0.000    0.000    0.000    0.000    6.417 
#    0.000    0.000    0.000    0.000    0.000    8.833 
#
# Total GULP energy -594638.604085 kJ/mol
# GULP energy per Si atom -12388.304252 kJ/mol
# Density = 1.618351 g / cm^3
# Si number density = 16.220429 Si / 1000 Ang^3
#
#
#
# Elastic Constant Matrix: (Units=GPa)
#
#
# Indices 1 2 3 4 5 6 
#
# 1 85.3622 18.6362 37.1106 0.0000 0.0000 4.3642
# 2 18.6362 85.3622 37.1106 0.0000 0.0000 -4.3642
# 3 37.1106 37.1106 130.3093 0.0000 0.0000 0.0000
# 4 0.0000 0.0000 0.0000 13.8189 0.0000 0.0000
# 5 0.0000 0.0000 0.0000 0.0000 13.8189 0.0000
# 6 4.3642 -4.3642 0.0000 0.0000 0.0000 11.6920
#
#
#
# Elastic Compliance Matrix: (Units=1/GPa)
#
#
# Indices 1 2 3 4 5 6 
#
# 1 0.013912 -0.001844 -0.003437 0.000000 0.000000 -0.005881
# 2 -0.001844 0.013912 -0.003437 0.000000 0.000000 0.005881
# 3 -0.003437 -0.003437 0.009632 0.000000 0.000000 0.000000
# 4 0.000000 0.000000 0.000000 0.072365 0.000000 0.000000
# 5 0.000000 0.000000 0.000000 0.000000 0.072365 0.000000
# 6 -0.005881 0.005881 0.000000 0.000000 0.000000 0.089919
#
#
# Mechanical properties :
#
#
# Convention : Reuss Voigt Hill
#
# Bulk Modulus (GPa) = 49.94836 54.08317 52.01576
# Shear Modulus (GPa) = 16.87974 21.74439 19.31207
#
# Velocity S-wave (km/s) = 3.22941 3.66533 3.45425
# Velocity P-wave (km/s) = 6.69072 7.16435 6.93158
#
# Compressibility (1/GPa) = 0.02002068
#
# Stress axis : x y z
#
# Youngs Moduli (GPa) = 71.87946 71.87946 103.82437
#
# Poissons Ratio (x) = 0.13253 0.35684
# Poissons Ratio (y) = 0.13253 0.35684
# Poissons Ratio (z) = 0.24705 0.24705
#
# Static dielectric constant tensor:
#      x y z
#    x 3.125530 0.000000 0.000000 
#    y 0.000000 3.125530 0.000000 
#    z 0.000000 0.000000 3.103010 
# 
# 
# High freq. dielectric constant tensor:
#      x y z
#    x 1.616840 0.000000 0.000000 
#    y 0.000000 1.616840 0.000000 
#    z 0.000000 0.000000 1.596060 
# 
# From -- ./inp_files/2963.got.cif
#   From: 2010.03.12/outbox.cif.g09.slc.cpg/sg83_2_cif.got.tgz:2963.got - 2010.04.08 20:05:18.
