data_PCOD8302272
_publ_section_title
;
Structure prediction by ZEFSAII (Michael W. Deem and Ramdas Pophale) SiO2 
 PCOD8302272
Probable space group: P -4
;
_chemical_formula_sum "Si O2"
_cell_formula_units_Z 25
_cell_length_a 12.018201
_cell_length_b 12.018201
_cell_length_c 8.608341
_cell_angle_alpha 90.000000
_cell_angle_beta 90.000000
_cell_angle_gamma 90.000000
_cell_volume 1243.364286
_symmetry_space_group_name_H-M "P -4"
_symmetry_group_IT_number 81
_symmetry_cell_setting 'tetragonal'
loop_
_space_group_symop_operation_xyz
x,y,z
y,-x,-z
-x,-y,z
-y,x,-z
loop_
_atom_site_type_symbol
_atom_site_label
_atom_site_fract_x
_atom_site_fract_y
_atom_site_fract_z
Si Si1 0.653699 0.752533 0.521100
Si Si2 0.910866 0.593588 0.048591
Si Si3 0.300448 0.991440 0.499359
Si Si4 0.194800 0.017635 0.807589
Si Si5 0.837734 0.734975 0.770183
Si Si6 0.210630 0.420579 0.356794
Si Si7 0.000000 0.000000 0.000000
O O1 0.729552 0.714055 0.665319
O O2 0.526400 0.727791 0.565944
O O3 0.701020 0.681834 0.374346
O O4 0.657039 0.883158 0.482659
O O5 0.817681 0.556038 0.175157
O O6 0.000000 0.500000 0.002109
O O7 0.986094 0.688513 0.121142
O O8 0.846868 0.635865 0.895180
O O9 0.258149 0.949737 0.333366
O O10 0.396747 0.907046 0.557546
O O11 0.198291 0.991716 0.623331
O O12 0.172879 0.146048 0.851283
O O13 0.096006 0.949325 0.888956
#
# Coordination Sequence:
#
# PCOD8302272 Si02
#       7
#     4   4   4   4   4   4   1
#     4  10  21  39  63  88 121 160 212 268 311 385
#     4  11  22  39  62  88 124 167 209 261 316 381
#     4   9  20  38  61  87 119 160 210 261 305 380
#     4  10  21  36  55  84 126 159 199 253 310 385
#     4  10  21  36  56  88 118 158 210 254 320 377
#     4  10  21  39  64  90 120 162 205 257 326 369
#     4  12  20  32  58  88 128 164 198 252 332 396
#
# _framework density 20.106736999999999
#
# number of rings (size 3 to 8) (size 9 to 14) (size 15 to 20)
#    0.000    1.920    1.600    3.360    0.000    9.280 
#    0.000    3.200    0.000    0.000    0.000    0.000 
#    0.000    0.000    0.000    0.000    0.000    0.000 
#
# Total GULP energy -309864.914133 kJ/mol
# GULP energy per Si atom -12394.596565 kJ/mol
# Density = 2.006097 g / cm^3
# Si number density = 20.106737 Si / 1000 Ang^3
#
#
#
# Elastic Constant Matrix: (Units=GPa)
#
#
# Indices 1 2 3 4 5 6 
#
# 1 91.3498 37.7162 30.3973 0.0000 0.0000 4.0182
# 2 37.7162 91.3498 30.3973 0.0000 0.0000 -4.0182
# 3 30.3973 30.3973 65.9300 0.0000 0.0000 0.0000
# 4 0.0000 0.0000 0.0000 25.5613 0.0000 0.0000
# 5 0.0000 0.0000 0.0000 0.0000 25.5613 0.0000
# 6 4.0182 -4.0182 0.0000 0.0000 0.0000 34.7791
#
#
#
# Elastic Compliance Matrix: (Units=1/GPa)
#
#
# Indices 1 2 3 4 5 6 
#
# 1 0.014435 -0.004538 -0.004563 0.000000 0.000000 -0.002192
# 2 -0.004538 0.014435 -0.004563 0.000000 0.000000 0.002192
# 3 -0.004563 -0.004563 0.019375 0.000000 0.000000 0.000000
# 4 0.000000 0.000000 0.000000 0.039122 0.000000 0.000000
# 5 0.000000 0.000000 0.000000 0.000000 0.039122 0.000000
# 6 -0.002192 0.002192 0.000000 0.000000 0.000000 0.029259
#
#
# Mechanical properties :
#
#
# Convention : Reuss Voigt Hill
#
# Bulk Modulus (GPa) = 47.80741 49.51681 48.66211
# Shear Modulus (GPa) = 26.30879 27.18825 26.74852
#
# Velocity S-wave (km/s) = 3.62118 3.68121 3.65132
# Velocity P-wave (km/s) = 6.42747 6.53826 6.48310
#
# Compressibility (1/GPa) = 0.02091726
#
# Stress axis : x y z
#
# Youngs Moduli (GPa) = 69.27380 69.27380 51.61178
#
# Poissons Ratio (x) = 0.31437 0.23552
# Poissons Ratio (y) = 0.31437 0.23552
# Poissons Ratio (z) = 0.31611 0.31611
#
# Static dielectric constant tensor:
#      x y z
#    x 3.607120 0.000000 0.000000 
#    y 0.000000 3.607120 0.000000 
#    z 0.000000 0.000000 3.883550 
# 
# 
# High freq. dielectric constant tensor:
#      x y z
#    x 1.773700 0.000000 0.000000 
#    y 0.000000 1.773700 0.000000 
#    z 0.000000 0.000000 1.780540 
# 
# From -- ./inp_files/864.got.cif
#   From: 2010.03.12/outbox.cif.g09.slc.cpg/sg81_cif.got.tgz:864.got - 2010.04.08 20:01:38.
