data_PCOD8302692
_publ_section_title
;
Structure prediction by ZEFSAII (Michael W. Deem and Ramdas Pophale) SiO2 
 PCOD8302692
Probable space group: P 4/M
;
_chemical_formula_sum "Si O2"
_cell_formula_units_Z 40
_cell_length_a 14.709488
_cell_length_b 14.709488
_cell_length_c 9.344613
_cell_angle_alpha 90.000000
_cell_angle_beta 90.000000
_cell_angle_gamma 90.000000
_cell_volume 2021.884918
_symmetry_space_group_name_H-M "P 4/M"
_symmetry_group_IT_number 83
_symmetry_cell_setting 'tetragonal'
loop_
_space_group_symop_operation_xyz
x,y,z
-y,x,z
-x,-y,z
y,-x,z
-x,-y,-z
y,-x,-z
x,y,-z
-y,x,-z
loop_
_atom_site_type_symbol
_atom_site_label
_atom_site_fract_x
_atom_site_fract_y
_atom_site_fract_z
Si Si1 0.219207 0.655383 0.841187
Si Si2 0.506732 0.893615 0.330198
Si Si3 0.810076 0.080934 0.657765
Si Si4 0.806735 0.926282 0.842783
Si Si5 0.338533 0.770232 0.342604
O O1 0.158382 0.587417 0.748783
O O2 0.161036 0.745076 0.862887
O O3 0.313813 0.684913 0.761522
O O4 0.242476 0.615514 0.000000
O O5 0.523327 0.889999 0.500000
O O6 0.417523 0.836562 0.283976
O O7 0.500000 0.000000 0.281484
O O8 0.835361 0.043566 0.500000
O O9 0.899815 0.103868 0.750798
O O10 0.750753 0.170115 0.640072
O O11 0.756177 0.003952 0.748617
O O12 0.833165 0.964042 0.000000
O O13 0.365465 0.731494 0.500000
#
# Coordination Sequence:
#
# PCOD8302692 Si02
#       5
#     8   8   8   8   8
#     4  10  21  35  53  78 109 144 177 216 270 329
#     4  10  20  35  58  87 115 144 184 232 277 325
#     4  10  19  32  50  70  93 127 173 217 257 306
#     4  10  20  33  47  67  98 133 168 209 261 315
#     4   9  19  35  55  78 106 141 177 219 271 324
#
# _framework density 19.783519999999999
#
# number of rings (size 3 to 8) (size 9 to 14) (size 15 to 20)
#    0.000    2.200    0.000    3.000    0.000    6.400 
#    0.000    2.000    0.000    0.600    0.000    4.200 
#    0.000    0.000    0.000    0.000    0.000    0.000 
#
# Total GULP energy -495539.370975 kJ/mol
# GULP energy per Si atom -12388.484274 kJ/mol
# Density = 1.973849 g / cm^3
# Si number density = 19.783520 Si / 1000 Ang^3
#
#
#
# Elastic Constant Matrix: (Units=GPa)
#
#
# Indices 1 2 3 4 5 6 
#
# 1 76.2120 31.1639 46.9490 0.0000 0.0000 -0.7744
# 2 31.1639 76.2120 46.9490 0.0000 0.0000 0.7744
# 3 46.9490 46.9490 145.5794 0.0000 0.0000 0.0000
# 4 0.0000 0.0000 0.0000 21.6508 0.0000 0.0000
# 5 0.0000 0.0000 0.0000 0.0000 21.6508 0.0000
# 6 -0.7744 0.7744 0.0000 0.0000 0.0000 30.4805
#
#
#
# Elastic Compliance Matrix: (Units=1/GPa)
#
#
# Indices 1 2 3 4 5 6 
#
# 1 0.017595 -0.004623 -0.004183 0.000000 0.000000 0.000564
# 2 -0.004623 0.017595 -0.004183 0.000000 0.000000 -0.000564
# 3 -0.004183 -0.004183 0.009567 0.000000 0.000000 0.000000
# 4 0.000000 0.000000 0.000000 0.046188 0.000000 0.000000
# 5 0.000000 0.000000 0.000000 0.000000 0.046188 0.000000
# 6 0.000564 -0.000564 0.000000 0.000000 0.000000 0.032837
#
#
# Mechanical properties :
#
#
# Convention : Reuss Voigt Hill
#
# Bulk Modulus (GPa) = 53.25698 60.90304 57.08001
# Shear Modulus (GPa) = 24.72719 26.28585 25.50652
#
# Velocity S-wave (km/s) = 3.53921 3.64905 3.59455
# Velocity P-wave (km/s) = 6.60906 6.97178 6.79284
#
# Compressibility (1/GPa) = 0.01877688
#
# Stress axis : x y z
#
# Youngs Moduli (GPa) = 56.83584 56.83584 104.52354
#
# Poissons Ratio (x) = 0.26277 0.43724
# Poissons Ratio (y) = 0.26277 0.43724
# Poissons Ratio (z) = 0.23775 0.23775
#
# Static dielectric constant tensor:
#      x y z
#    x 3.404240 0.000000 0.000000 
#    y 0.000000 3.404240 0.000000 
#    z 0.000000 0.000000 4.320110 
# 
# 
# High freq. dielectric constant tensor:
#      x y z
#    x 1.744120 0.000000 0.000000 
#    y 0.000000 1.744120 0.000000 
#    z 0.000000 0.000000 1.789010 
# 
# From -- ./inp_files/682.got.cif
#   From: 2010.03.12/outbox.cif.g09.slc.cpg/sg83_1_cif.got.tgz:682.got - 2010.04.08 20:05:18.
