data_PCOD8302591
_publ_section_title
;
Structure prediction by ZEFSAII (Michael W. Deem and Ramdas Pophale) SiO2 
 PCOD8302591
Probable space group: I -4 
;
_chemical_formula_sum "Si O2"
_cell_formula_units_Z 38
_cell_length_a 9.159307
_cell_length_b 9.159307
_cell_length_c 21.368956
_cell_angle_alpha 90.000000
_cell_angle_beta 90.000000
_cell_angle_gamma 90.000000
_cell_volume 1792.703790
_symmetry_space_group_name_H-M "I -4 "
_symmetry_group_IT_number 82
_symmetry_cell_setting 'tetragonal'
loop_
_space_group_symop_operation_xyz
x,y,z
y,-x,-z
-x,-y,z
-y,x,-z
1/2+x,1/2+y,1/2+z
1/2+y,1/2-x,1/2-z
1/2-x,1/2-y,1/2+z
1/2-y,1/2+x,1/2-z
loop_
_atom_site_type_symbol
_atom_site_label
_atom_site_fract_x
_atom_site_fract_y
_atom_site_fract_z
Si Si1 0.500000 0.500000 0.250061
Si Si2 0.996833 0.337491 0.551007
Si Si3 0.500000 0.000000 0.750000
Si Si4 0.240513 0.484227 0.336089
Si Si5 0.271875 0.162429 0.572820
Si Si6 0.116520 0.170967 0.360477
O O1 0.384914 0.432822 0.299417
O O2 0.584140 0.382394 0.206086
O O3 0.926997 0.347901 0.482460
O O4 0.904742 0.229996 0.593955
O O5 0.000000 0.500000 0.580292
O O6 0.162150 0.281552 0.544672
O O7 0.430183 0.131228 0.710311
O O8 0.256110 0.601270 0.392122
O O9 0.159843 0.338877 0.357167
O O10 0.172983 0.050495 0.614240
#
# Coordination Sequence:
#
# PCOD8302591 Si02
#       6
#     4   8   2   8   8   8
#     4  12  26  42  73 105 142 188 240 296 366 436
#     4  12  27  44  70 107 140 183 239 304 365 431
#     4  12  20  40  72  92 128 184 248 284 342 440
#     4  12  25  44  70 102 140 186 242 301 359 437
#     4  12  24  47  75 101 138 189 244 298 366 447
#     4  12  24  45  70 101 137 189 238 293 362 441
#
# _framework density 21.197030999999999
#
# number of rings (size 3 to 8) (size 9 to 14) (size 15 to 20)
#    0.000    0.000    8.421    1.263    2.947    0.000 
#    0.000    0.000    0.000    0.000    0.000    0.000 
#    0.000    0.000    0.000    0.000    0.000    0.000 
#
# Total GULP energy -235507.336329 kJ/mol
# GULP energy per Si atom -12395.122965 kJ/mol
# Density = 2.114879 g / cm^3
# Si number density = 21.197031 Si / 1000 Ang^3
#
#
#
# Elastic Constant Matrix: (Units=GPa)
#
#
# Indices 1 2 3 4 5 6 
#
# 1 108.5677 44.4824 41.4899 0.0000 0.0000 4.8147
# 2 44.4824 108.5677 41.4899 0.0000 0.0000 -4.8147
# 3 41.4899 41.4899 102.4346 0.0000 0.0000 0.0000
# 4 0.0000 0.0000 0.0000 32.7301 0.0000 0.0000
# 5 0.0000 0.0000 0.0000 0.0000 32.7301 0.0000
# 6 4.8147 -4.8147 0.0000 0.0000 0.0000 18.6631
#
#
#
# Elastic Compliance Matrix: (Units=1/GPa)
#
#
# Indices 1 2 3 4 5 6 
#
# 1 0.012303 -0.003931 -0.003391 0.000000 0.000000 -0.004188
# 2 -0.003931 0.012303 -0.003391 0.000000 0.000000 0.004188
# 3 -0.003391 -0.003391 0.012509 0.000000 0.000000 0.000000
# 4 0.000000 0.000000 0.000000 0.030553 0.000000 0.000000
# 5 0.000000 0.000000 0.000000 0.000000 0.030553 0.000000
# 6 -0.004188 0.004188 0.000000 0.000000 0.000000 0.055743
#
#
# Mechanical properties :
#
#
# Convention : Reuss Voigt Hill
#
# Bulk Modulus (GPa) = 63.73632 63.83272 63.78452
# Shear Modulus (GPa) = 27.68257 29.63187 28.65722
#
# Velocity S-wave (km/s) = 3.61773 3.74294 3.68087
# Velocity P-wave (km/s) = 6.89815 6.98991 6.94418
#
# Compressibility (1/GPa) = 0.01568964
#
# Stress axis : x y z
#
# Youngs Moduli (GPa) = 81.28145 81.28145 79.93984
#
# Poissons Ratio (x) = 0.31948 0.27109
# Poissons Ratio (y) = 0.31948 0.27109
# Poissons Ratio (z) = 0.27564 0.27564
#
# Static dielectric constant tensor:
#      x y z
#    x 3.840560 0.000000 0.000000 
#    y 0.000000 3.840560 0.000000 
#    z 0.000000 0.000000 4.017230 
# 
# 
# High freq. dielectric constant tensor:
#      x y z
#    x 1.828490 0.000000 0.000000 
#    y 0.000000 1.828490 0.000000 
#    z 0.000000 0.000000 1.837640 
# 
# From -- ./inp_files/3403.got.cif
#   From: 2010.03.12/outbox.cif.g09.slc.cpg/sg82_2_cif.got.tgz:3403.got - 2010.04.08 20:02:50.
