data_PCOD8302139
_publ_section_title
;
Structure prediction by ZEFSAII (Michael W. Deem and Ramdas Pophale) SiO2 
 PCOD8302139
Probable space group: I 4
;
_chemical_formula_sum "Si O2"
_cell_formula_units_Z 52
_cell_length_a 18.068038
_cell_length_b 18.068038
_cell_length_c 9.488597
_cell_angle_alpha 90.000000
_cell_angle_beta 90.000000
_cell_angle_gamma 90.000000
_cell_volume 3097.590418
_symmetry_space_group_name_H-M "I 4"
_symmetry_group_IT_number 79
_symmetry_cell_setting 'tetragonal'
loop_
_space_group_symop_operation_xyz
x,y,z
-y,x,z
-x,-y,z
y,-x,z
1/2+x,1/2+y,1/2+z
1/2-y,1/2+x,1/2+z
1/2-x,1/2-y,1/2+z
1/2+y,1/2-x,1/2+z
loop_
_atom_site_type_symbol
_atom_site_label
_atom_site_fract_x
_atom_site_fract_y
_atom_site_fract_z
Si Si1 0.015066 0.282930 0.186600
Si Si2 0.484934 0.217070 0.352405
Si Si3 0.383465 0.506937 0.686951
Si Si4 0.890853 0.612530 0.363395
Si Si5 0.000000 0.500000 0.269507
Si Si6 0.006937 0.116535 0.852054
Si Si7 0.390852 0.112530 0.175614
O O1 0.012107 0.199539 0.246339
O O2 0.936229 0.320466 0.228068
O O3 0.087186 0.321769 0.256445
O O4 0.027095 0.287292 0.019502
O O5 0.563772 0.179534 0.310939
O O6 0.487893 0.300462 0.292665
O O7 0.412813 0.178232 0.282562
O O8 0.422606 0.431254 0.740041
O O9 0.380958 0.506160 0.519502
O O10 0.960209 0.557208 0.373448
O O11 0.875924 0.645328 0.519504
O O12 0.942792 0.460209 0.165566
O O13 0.077394 0.068746 0.798963
#
# Coordination Sequence:
#
# PCOD8302139 Si02
#       7
#     8   8   8   8   4   8   8
#     4   9  17  28  43  65  89 112 142 177 210 248
#     4   9  17  28  43  65  89 112 142 177 210 248
#     4   8  14  27  48  68  82 103 142 187 219 243
#     4   9  16  25  39  60  88 118 142 168 207 252
#     4   8  14  24  40  58  78 112 156 186 194 224
#     4   8  14  27  48  68  82 103 142 187 219 243
#     4   9  16  25  39  60  88 118 142 168 207 252
#
# _framework density 16.787241999999999
#
# number of rings (size 3 to 8) (size 9 to 14) (size 15 to 20)
#    0.000    3.385    0.000    1.385    0.000    7.385 
#    0.000    1.538    0.000    1.846    0.000    2.154 
#    0.000    0.000    0.000    0.000    0.000    0.000 
#
# Total GULP energy -322105.099675 kJ/mol
# GULP energy per Si atom -12388.657680 kJ/mol
# Density = 1.674903 g / cm^3
# Si number density = 16.787242 Si / 1000 Ang^3
#
#
#
# Elastic Constant Matrix: (Units=GPa)
#
#
# Indices 1 2 3 4 5 6 
#
# 1 91.4660 23.0973 19.2736 0.0000 0.0000 -0.2921
# 2 23.0973 91.4660 19.2736 0.0000 0.0000 0.2921
# 3 19.2736 19.2736 33.7468 0.0000 0.0000 0.0000
# 4 0.0000 0.0000 0.0000 14.8438 0.0000 0.0000
# 5 0.0000 0.0000 0.0000 0.0000 14.8438 0.0000
# 6 -0.2921 0.2921 0.0000 0.0000 0.0000 16.8614
#
#
#
# Elastic Compliance Matrix: (Units=1/GPa)
#
#
# Indices 1 2 3 4 5 6 
#
# 1 0.012717 -0.001912 -0.006171 0.000000 0.000000 0.000253
# 2 -0.001912 0.012717 -0.006171 0.000000 0.000000 -0.000253
# 3 -0.006171 -0.006171 0.036681 0.000000 0.000000 0.000000
# 4 0.000000 0.000000 0.000000 0.067368 0.000000 0.000000
# 5 0.000000 0.000000 0.000000 0.000000 0.067368 0.000000
# 6 0.000253 -0.000253 0.000000 0.000000 0.000000 0.059316
#
#
# Mechanical properties :
#
#
# Convention : Reuss Voigt Hill
#
# Bulk Modulus (GPa) = 29.75539 37.77420 33.76480
# Shear Modulus (GPa) = 16.89887 19.64543 18.27215
#
# Velocity S-wave (km/s) = 3.17622 3.42462 3.30275
# Velocity P-wave (km/s) = 5.58700 6.17964 5.89078
#
# Compressibility (1/GPa) = 0.03360735
#
# Stress axis : x y z
#
# Youngs Moduli (GPa) = 78.63506 78.63506 27.26174
#
# Poissons Ratio (x) = 0.15033 0.16824
# Poissons Ratio (y) = 0.15033 0.16824
# Poissons Ratio (z) = 0.48527 0.48527
#
# Static dielectric constant tensor:
#      x y z
#    x 3.282420 0.000000 0.000000 
#    y 0.000000 3.282420 0.000000 
#    z 0.000000 0.000000 2.761100 
# 
# 
# High freq. dielectric constant tensor:
#      x y z
#    x 1.635830 0.000000 0.000000 
#    y 0.000000 1.635830 0.000000 
#    z 0.000000 0.000000 1.608610 
# 
# From -- ./inp_files/684.got.cif
#   From: 2010.03.12/outbox.cif.g09.slc.cpg/sg79_cif.got.tgz:684.got - 2010.04.16 16:38:49.
