data_PCOD8302950
_publ_section_title
;
Structure prediction by ZEFSAII (Michael W. Deem and Ramdas Pophale) SiO2 
 PCOD8302950
Probable space group: P 4/M
;
_chemical_formula_sum "Si O2"
_cell_formula_units_Z 48
_cell_length_a 8.744629
_cell_length_b 8.744629
_cell_length_c 31.331704
_cell_angle_alpha 90.000000
_cell_angle_beta 90.000000
_cell_angle_gamma 90.000000
_cell_volume 2395.889546
_symmetry_space_group_name_H-M "P 4/M"
_symmetry_group_IT_number 83
_symmetry_cell_setting 'tetragonal'
loop_
_space_group_symop_operation_xyz
x,y,z
-y,x,z
-x,-y,z
y,-x,z
-x,-y,-z
y,-x,-z
x,y,-z
-y,x,-z
loop_
_atom_site_type_symbol
_atom_site_label
_atom_site_fract_x
_atom_site_fract_y
_atom_site_fract_z
Si Si1 0.265935 0.401825 0.000000
Si Si2 0.435726 0.741886 0.328373
Si Si3 0.770486 0.099870 0.070923
Si Si4 0.766154 0.086954 0.168461
Si Si5 0.261688 0.424804 0.768512
Si Si6 0.500000 0.000000 0.610386
Si Si7 0.941447 0.243200 0.548470
O O1 0.419698 0.302049 0.000000
O O2 0.164876 0.364673 0.958326
O O3 0.315965 0.607447 0.336928
O O4 0.412447 0.798913 0.279915
O O5 0.405420 0.882211 0.360122
O O6 0.715976 0.114760 0.119723
O O7 0.922780 0.197006 0.061018
O O8 0.625072 0.128339 0.199242
O O9 0.912187 0.192818 0.177923
O O10 0.402859 0.311721 0.777235
O O11 0.381767 0.092063 0.580556
O O12 0.926747 0.302774 0.500000
O O13 0.818457 0.111728 0.556912
#
# Coordination Sequence:
#
# PCOD8302950 Si02
#       7
#     4   8   8   8   8   4   8
#     4  11  24  37  50  76 112 141 170 213 258 304
#     4   9  20  36  50  71 105 138 169 212 264 311
#     4   9  19  37  58  78 102 135 172 211 259 312
#     4   9  19  35  55  80 106 130 166 217 263 303
#     4   9  19  35  52  71 100 138 174 207 252 310
#     4  12  19  30  56  82  98 132 184 221 252 308
#     4   9  19  35  52  74 107 140 171 215 268 316
#
# _framework density 20.034310999999999
#
# number of rings (size 3 to 8) (size 9 to 14) (size 15 to 20)
#    0.000    2.583    0.000    4.250    0.000    6.667 
#    0.000    5.000    0.000    2.000    0.000    7.000 
#    0.000    0.000    0.000    0.000    0.000    0.000 
#
# Total GULP energy -595215.175994 kJ/mol
# GULP energy per Si atom -12400.316167 kJ/mol
# Density = 1.998871 g / cm^3
# Si number density = 20.034311 Si / 1000 Ang^3
#
#
#
# Elastic Constant Matrix: (Units=GPa)
#
#
# Indices 1 2 3 4 5 6 
#
# 1 40.1413 3.2335 34.6421 0.0000 0.0000 -3.0010
# 2 3.2335 40.1413 34.6421 0.0000 0.0000 3.0010
# 3 34.6421 34.6421 114.3802 0.0000 0.0000 0.0000
# 4 0.0000 0.0000 0.0000 32.1488 0.0000 0.0000
# 5 0.0000 0.0000 0.0000 0.0000 32.1488 0.0000
# 6 -3.0010 3.0010 0.0000 0.0000 0.0000 29.1032
#
#
#
# Elastic Compliance Matrix: (Units=1/GPa)
#
#
# Indices 1 2 3 4 5 6 
#
# 1 0.036109 0.008552 -0.013526 0.000000 0.000000 0.002842
# 2 0.008552 0.036109 -0.013526 0.000000 0.000000 -0.002842
# 3 -0.013526 -0.013526 0.016936 0.000000 0.000000 0.000000
# 4 0.000000 0.000000 0.000000 0.031105 0.000000 0.000000
# 5 0.000000 0.000000 0.000000 0.000000 0.031105 0.000000
# 6 0.002842 -0.002842 0.000000 0.000000 0.000000 0.034946
#
#
# Mechanical properties :
#
#
# Convention : Reuss Voigt Hill
#
# Bulk Modulus (GPa) = 19.17443 37.74423 28.45933
# Shear Modulus (GPa) = 20.77302 26.82315 23.79809
#
# Velocity S-wave (km/s) = 3.22354 3.66301 3.45028
# Velocity P-wave (km/s) = 4.84216 6.06390 5.48714
#
# Compressibility (1/GPa) = 0.05215280
#
# Stress axis : x y z
#
# Youngs Moduli (GPa) = 27.69399 27.69399 59.04507
#
# Poissons Ratio (x) = -0.23685 0.79867
# Poissons Ratio (y) = -0.23685 0.79867
# Poissons Ratio (z) = 0.37460 0.37460
#
# Static dielectric constant tensor:
#      x y z
#    x 3.401460 0.000000 0.000000 
#    y 0.000000 3.401460 0.000000 
#    z 0.000000 0.000000 3.612150 
# 
# 
# High freq. dielectric constant tensor:
#      x y z
#    x 1.769900 0.000000 0.000000 
#    y 0.000000 1.769900 0.000000 
#    z 0.000000 0.000000 1.788510 
# 
# From -- ./inp_files/3433.got.cif
#   From: 2010.03.12/outbox.cif.g09.slc.cpg/sg83_2_cif.got.tgz:3433.got - 2010.04.08 20:05:18.
