data_PCOD8302162
_publ_section_title
;
Structure prediction by ZEFSAII (Michael W. Deem and Ramdas Pophale) SiO2 
 PCOD8302162
Probable space group: I 41
;
_chemical_formula_sum "Si O2"
_cell_formula_units_Z 32
_cell_length_a 14.441735
_cell_length_b 14.441735
_cell_length_c 8.017497
_cell_angle_alpha 90.000000
_cell_angle_beta 90.000000
_cell_angle_gamma 90.000000
_cell_volume 1672.158918
_symmetry_space_group_name_H-M "I 41"
_symmetry_group_IT_number 80
_symmetry_cell_setting 'tetragonal'
loop_
_space_group_symop_operation_xyz
x,y,z
-y,1/2+x,1/4+z
-x,-y,z
y,1/2-x,1/4+z
1/2+x,1/2+y,1/2+z
1/2-y,x,3/4+z
1/2-x,1/2-y,1/2+z
1/2+y,-x,3/4+z
loop_
_atom_site_type_symbol
_atom_site_label
_atom_site_fract_x
_atom_site_fract_y
_atom_site_fract_z
Si Si1 0.959399 0.600070 0.721450
Si Si2 0.727013 0.365811 0.540463
Si Si3 0.001695 0.788890 0.563205
Si Si4 0.564460 0.083022 0.543538
O O1 0.850088 0.587181 0.759316
O O2 0.000000 0.500000 0.660458
O O3 0.972050 0.682268 0.589322
O O4 0.012731 0.631924 0.888389
O O5 0.679204 0.286882 0.646681
O O6 0.791916 0.426575 0.659772
O O7 0.650225 0.427897 0.449968
O O8 0.047897 0.834771 0.727997
O O9 0.500000 0.000000 0.607997
#
# Coordination Sequence:
#
# PCOD8302162 Si02
#       4
#     8   8   8   8
#     4   9  19  38  59  78 107 147 182 225 278 323
#     4  12  22  32  53  83 112 142 181 229 276 326
#     4  10  20  37  56  78 109 144 183 224 272 326
#     4   9  20  37  57  77 106 145 182 226 274 323
#
# _framework density 19.136938000000001
#
# number of rings (size 3 to 8) (size 9 to 14) (size 15 to 20)
#    0.000    2.500    0.000    6.000    0.000    3.000 
#    0.000    5.000    0.000    0.000    0.000    0.000 
#    0.000    0.000    0.000    0.000    0.000    0.000 
#
# Total GULP energy -198329.940966 kJ/mol
# GULP energy per Si atom -12395.621310 kJ/mol
# Density = 1.909338 g / cm^3
# Si number density = 19.136938 Si / 1000 Ang^3
#
#
#
# Elastic Constant Matrix: (Units=GPa)
#
#
# Indices 1 2 3 4 5 6 
#
# 1 110.5427 43.6957 47.4218 0.0000 0.0000 0.4784
# 2 43.6957 110.5427 47.4218 0.0000 0.0000 -0.4784
# 3 47.4218 47.4218 68.1234 0.0000 0.0000 0.0000
# 4 0.0000 0.0000 0.0000 31.2121 0.0000 0.0000
# 5 0.0000 0.0000 0.0000 0.0000 31.2121 0.0000
# 6 0.4784 -0.4784 0.0000 0.0000 0.0000 21.5584
#
#
#
# Elastic Compliance Matrix: (Units=1/GPa)
#
#
# Indices 1 2 3 4 5 6 
#
# 1 0.013150 -0.001814 -0.007891 0.000000 0.000000 -0.000332
# 2 -0.001814 0.013150 -0.007891 0.000000 0.000000 0.000332
# 3 -0.007891 -0.007891 0.025665 0.000000 0.000000 0.000000
# 4 0.000000 0.000000 0.000000 0.032039 0.000000 0.000000
# 5 0.000000 0.000000 0.000000 0.000000 0.032039 0.000000
# 6 -0.000332 0.000332 0.000000 0.000000 0.000000 0.046400
#
#
# Mechanical properties :
#
#
# Convention : Reuss Voigt Hill
#
# Bulk Modulus (GPa) = 59.62015 62.92083 61.27049
# Shear Modulus (GPa) = 24.60303 26.84117 25.72210
#
# Velocity S-wave (km/s) = 3.58946 3.74917 3.67018
# Velocity P-wave (km/s) = 6.95709 7.18974 7.07437
#
# Compressibility (1/GPa) = 0.01677285
#
# Stress axis : x y z
#
# Youngs Moduli (GPa) = 76.04546 76.04546 38.96299
#
# Poissons Ratio (x) = 0.13796 0.30746
# Poissons Ratio (y) = 0.13796 0.30746
# Poissons Ratio (z) = 0.60008 0.60008
#
# Static dielectric constant tensor:
#      x y z
#    x 3.476640 0.000000 0.000000 
#    y 0.000000 3.476640 0.000000 
#    z 0.000000 0.000000 3.355160 
# 
# 
# High freq. dielectric constant tensor:
#      x y z
#    x 1.741260 0.000000 0.000000 
#    y 0.000000 1.741260 0.000000 
#    z 0.000000 0.000000 1.735610 
# 
# From -- ./inp_files/529.got.cif
#   From: 2010.03.12/outbox.cif.g09.slc.cpg/sg80_cif.got.tgz:529.got - 2010.04.08 20:00:04.
