data_PCOD8302446
_publ_section_title
;
Structure prediction by ZEFSAII (Michael W. Deem and Ramdas Pophale) SiO2 
 PCOD8302446
Probable space group: I -4 
;
_chemical_formula_sum "Si O2"
_cell_formula_units_Z 38
_cell_length_a 9.400768
_cell_length_b 9.400768
_cell_length_c 21.157066
_cell_angle_alpha 90.000000
_cell_angle_beta 90.000000
_cell_angle_gamma 90.000000
_cell_volume 1869.743838
_symmetry_space_group_name_H-M "I -4 "
_symmetry_group_IT_number 82
_symmetry_cell_setting 'tetragonal'
loop_
_space_group_symop_operation_xyz
x,y,z
y,-x,-z
-x,-y,z
-y,x,-z
1/2+x,1/2+y,1/2+z
1/2+y,1/2-x,1/2-z
1/2-x,1/2-y,1/2+z
1/2-y,1/2+x,1/2-z
loop_
_atom_site_type_symbol
_atom_site_label
_atom_site_fract_x
_atom_site_fract_y
_atom_site_fract_z
Si Si1 0.500000 0.000000 0.578683
Si Si2 0.647083 0.571909 0.234448
Si Si3 0.986234 0.259971 0.647642
Si Si4 0.500000 0.000000 0.250000
Si Si5 0.309250 0.844048 0.671059
Si Si6 0.986458 0.234419 0.508608
O O1 0.561114 0.126284 0.622947
O O2 0.365413 0.052485 0.537601
O O3 0.500000 0.500000 0.256037
O O4 0.617806 0.663643 0.171249
O O5 0.694751 0.664746 0.294109
O O6 0.782957 0.470577 0.221564
O O7 0.958332 0.374741 0.702267
O O8 0.843981 0.166710 0.637421
O O9 0.020128 0.310119 0.576547
O O10 0.127760 0.148075 0.488409
#
# Coordination Sequence:
#
# PCOD8302446 Si02
#       6
#     4   8   8   2   8   8
#     4  12  23  41  68  93 127 176 220 272 322 396
#     4  10  22  37  62  94 126 164 206 266 329 390
#     4  11  22  40  63  96 125 164 214 262 326 392
#     4  12  22  40  68  96 134 160 200 278 336 396
#     4  11  21  39  60  93 126 159 212 260 326 387
#     4  11  24  43  67  94 130 177 226 268 316 395
#
# _framework density 20.323639
#
# number of rings (size 3 to 8) (size 9 to 14) (size 15 to 20)
#    0.000    1.053    4.211    3.158    5.895    0.000 
#    0.000    0.000    0.000    0.000    0.000    0.000 
#    0.000    0.000    0.000    0.000    0.000    0.000 
#
# Total GULP energy -235398.558327 kJ/mol
# GULP energy per Si atom -12389.397807 kJ/mol
# Density = 2.027738 g / cm^3
# Si number density = 20.323639 Si / 1000 Ang^3
#
#
#
# Elastic Constant Matrix: (Units=GPa)
#
#
# Indices 1 2 3 4 5 6 
#
# 1 98.8895 37.9597 52.2859 0.0000 0.0000 5.7575
# 2 37.9597 98.8895 52.2859 0.0000 0.0000 -5.7575
# 3 52.2859 52.2859 145.5584 0.0000 0.0000 0.0000
# 4 0.0000 0.0000 0.0000 27.3094 0.0000 0.0000
# 5 0.0000 0.0000 0.0000 0.0000 27.3094 0.0000
# 6 5.7575 -5.7575 0.0000 0.0000 0.0000 27.0953
#
#
#
# Elastic Compliance Matrix: (Units=1/GPa)
#
#
# Indices 1 2 3 4 5 6 
#
# 1 0.013585 -0.003514 -0.003618 0.000000 0.000000 -0.003633
# 2 -0.003514 0.013585 -0.003618 0.000000 0.000000 0.003633
# 3 -0.003618 -0.003618 0.009469 0.000000 0.000000 0.000000
# 4 0.000000 0.000000 0.000000 0.036617 0.000000 0.000000
# 5 0.000000 0.000000 0.000000 0.000000 0.036617 0.000000
# 6 -0.003633 0.003633 0.000000 0.000000 0.000000 0.038451
#
#
# Mechanical properties :
#
#
# Convention : Reuss Voigt Hill
#
# Bulk Modulus (GPa) = 66.04404 69.82226 67.93315
# Shear Modulus (GPa) = 28.59236 29.72987 29.16111
#
# Velocity S-wave (km/s) = 3.75487 3.82883 3.79203
# Velocity P-wave (km/s) = 7.16697 7.34686 7.25747
#
# Compressibility (1/GPa) = 0.01514141
#
# Stress axis : x y z
#
# Youngs Moduli (GPa) = 73.60813 73.60812 105.60466
#
# Poissons Ratio (x) = 0.25863 0.38207
# Poissons Ratio (y) = 0.25863 0.38207
# Poissons Ratio (z) = 0.26631 0.26631
#
# Static dielectric constant tensor:
#      x y z
#    x 3.609550 0.000000 0.000000 
#    y 0.000000 3.609550 0.000000 
#    z 0.000000 0.000000 3.757960 
# 
# 
# High freq. dielectric constant tensor:
#      x y z
#    x 1.785830 0.000000 0.000000 
#    y 0.000000 1.785830 0.000000 
#    z 0.000000 0.000000 1.801490 
# 
# From -- ./inp_files/3380.got.cif
#   From: 2010.03.12/outbox.cif.g09.slc.cpg/sg82_2_cif.got.tgz:3380.got - 2010.04.08 20:02:50.
