data_PCOD8302315
_publ_section_title
;
Structure prediction by ZEFSAII (Michael W. Deem and Ramdas Pophale) SiO2 
 PCOD8302315
Probable space group: P -4
;
_chemical_formula_sum "Si O2"
_cell_formula_units_Z 13
_cell_length_a 8.664195
_cell_length_b 8.664195
_cell_length_c 7.628976
_cell_angle_alpha 90.000000
_cell_angle_beta 90.000000
_cell_angle_gamma 90.000000
_cell_volume 572.694068
_symmetry_space_group_name_H-M "P -4"
_symmetry_group_IT_number 81
_symmetry_cell_setting 'tetragonal'
loop_
_space_group_symop_operation_xyz
x,y,z
y,-x,-z
-x,-y,z
-y,x,-z
loop_
_atom_site_type_symbol
_atom_site_label
_atom_site_fract_x
_atom_site_fract_y
_atom_site_fract_z
Si Si1 0.755995 0.778431 0.642796
Si Si2 0.000000 0.000000 0.500000
Si Si3 0.759447 0.912671 0.988331
Si Si4 0.840797 0.445138 0.680549
O O1 0.750895 0.603936 0.714936
O O2 0.665249 0.763730 0.461485
O O3 0.680332 0.881579 0.797691
O O4 0.927637 0.857389 0.612476
O O5 0.638975 0.863846 0.135217
O O6 0.908866 0.802541 0.997186
O O7 0.000000 0.500000 0.594147
#
# Coordination Sequence:
#
# PCOD8302315 Si02
#       4
#     4   1   4   4
#     4  12  25  45  72 102 143 183 236 292 352 414
#     4  12  20  44  78 104 128 182 252 304 334 404
#     4  11  23  42  72 106 138 178 238 300 344 408
#     4  12  26  44  70 107 139 186 234 285 357 415
#
# _framework density 22.699729999999999
#
# number of rings (size 3 to 8) (size 9 to 14) (size 15 to 20)
#    0.000    0.308    6.154    3.692    0.000    4.308 
#    0.000    0.000    0.000    0.000    0.000    0.000 
#    0.000    0.000    0.000    0.000    0.000    0.000 
#
# Total GULP energy -161117.502843 kJ/mol
# GULP energy per Si atom -12393.654065 kJ/mol
# Density = 2.264806 g / cm^3
# Si number density = 22.699730 Si / 1000 Ang^3
#
#
#
# Elastic Constant Matrix: (Units=GPa)
#
#
# Indices 1 2 3 4 5 6 
#
# 1 99.5574 31.0035 45.3891 0.0000 0.0000 5.5355
# 2 31.0035 99.5574 45.3891 0.0000 0.0000 -5.5355
# 3 45.3891 45.3891 129.6587 0.0000 0.0000 0.0000
# 4 0.0000 0.0000 0.0000 26.4510 0.0000 0.0000
# 5 0.0000 0.0000 0.0000 0.0000 26.4510 0.0000
# 6 5.5355 -5.5355 0.0000 0.0000 0.0000 17.7685
#
#
#
# Elastic Compliance Matrix: (Units=1/GPa)
#
#
# Indices 1 2 3 4 5 6 
#
# 1 0.012742 -0.002618 -0.003544 0.000000 0.000000 -0.004785
# 2 -0.002618 0.012742 -0.003544 0.000000 0.000000 0.004785
# 3 -0.003544 -0.003544 0.010194 0.000000 0.000000 0.000000
# 4 0.000000 0.000000 0.000000 0.037806 0.000000 0.000000
# 5 0.000000 0.000000 0.000000 0.000000 0.037806 0.000000
# 6 -0.004785 0.004785 0.000000 0.000000 0.000000 0.059261
#
#
# Mechanical properties :
#
#
# Convention : Reuss Voigt Hill
#
# Bulk Modulus (GPa) = 61.48186 63.59300 62.53743
# Shear Modulus (GPa) = 25.59083 27.93355 26.76219
#
# Velocity S-wave (km/s) = 3.36127 3.51175 3.43733
# Velocity P-wave (km/s) = 6.49675 6.67225 6.58508
#
# Compressibility (1/GPa) = 0.01626496
#
# Stress axis : x y z
#
# Youngs Moduli (GPa) = 78.48357 78.48357 98.09995
#
# Poissons Ratio (x) = 0.20549 0.34765
# Poissons Ratio (y) = 0.20549 0.34765
# Poissons Ratio (z) = 0.27813 0.27813
#
# Static dielectric constant tensor:
#      x y z
#    x 4.260530 0.000000 0.000000 
#    y 0.000000 4.260530 0.000000 
#    z 0.000000 0.000000 4.207170 
# 
# 
# High freq. dielectric constant tensor:
#      x y z
#    x 1.881740 0.000000 0.000000 
#    y 0.000000 1.881740 0.000000 
#    z 0.000000 0.000000 1.914700 
# 
# From -- ./inp_files/482.got.cif
#   From: 2010.03.12/outbox.cif.g09.slc.cpg/sg81_cif.got.tgz:482.got - 2010.04.08 20:01:38.
