data_PCOD8302770
_publ_section_title
;
Structure prediction by ZEFSAII (Michael W. Deem and Ramdas Pophale) SiO2 
 PCOD8302770
Probable space group: P 4/M
;
_chemical_formula_sum "Si O2"
_cell_formula_units_Z 64
_cell_length_a 19.145697
_cell_length_b 19.145697
_cell_length_c 9.311877
_cell_angle_alpha 90.000000
_cell_angle_beta 90.000000
_cell_angle_gamma 90.000000
_cell_volume 3413.340343
_symmetry_space_group_name_H-M "P 4/M"
_symmetry_group_IT_number 83
_symmetry_cell_setting 'tetragonal'
loop_
_space_group_symop_operation_xyz
x,y,z
-y,x,z
-x,-y,z
y,-x,z
-x,-y,-z
y,-x,-z
x,y,-z
-y,x,-z
loop_
_atom_site_type_symbol
_atom_site_label
_atom_site_fract_x
_atom_site_fract_y
_atom_site_fract_z
Si Si1 0.803340 0.089574 0.838691
Si Si2 0.794544 0.422311 0.166733
Si Si3 0.292210 0.291740 0.166420
Si Si4 0.063795 0.356192 0.835531
Si Si5 0.649217 0.920012 0.332427
Si Si6 0.205413 0.421745 0.830938
Si Si7 0.003152 0.113696 0.340492
Si Si8 0.830095 0.220154 0.333822
O O1 0.720721 0.096385 0.828407
O O2 0.824341 0.013427 0.774566
O O3 0.843856 0.147482 0.744916
O O4 0.830484 0.096288 0.000000
O O5 0.724871 0.374686 0.189340
O O6 0.860628 0.397878 0.259104
O O7 0.773986 0.500274 0.218077
O O8 0.817470 0.420938 0.000000
O O9 0.267860 0.369016 0.218123
O O10 0.252166 0.238281 0.265163
O O11 0.271439 0.279124 0.000000
O O12 0.127376 0.403332 0.772638
O O13 0.994931 0.365499 0.739305
O O14 0.043752 0.375249 0.000000
O O15 0.629237 0.924577 0.500000
O O16 0.730130 0.897548 0.312872
O O17 0.199508 0.416190 0.000000
O O18 0.002516 0.146397 0.500000
O O19 0.934439 0.070454 0.315656
O O20 0.815395 0.205850 0.500000
#
# Coordination Sequence:
#
# PCOD8302770 Si02
#       8
#     8   8   8   8   8   8   8   8
#     4  11  22  34  51  75  98 128 170 220 267 310
#     4   9  18  33  58  82 103 144 184 213 260 314
#     4   9  16  32  55  79 106 135 176 221 254 302
#     4  10  21  36  52  73 105 140 176 219 264 316
#     4  10  22  37  52  75 108 139 174 219 262 311
#     4   9  17  33  55  80 109 139 177 220 262 312
#     4   9  20  38  54  68  93 130 168 210 267 330
#     4  10  20  34  52  73  99 134 171 214 266 314
#
# _framework density 18.749962
#
# number of rings (size 3 to 8) (size 9 to 14) (size 15 to 20)
#    0.000    2.375    1.250    1.500    1.750    3.500 
#    0.000    4.375    0.000    0.375    0.000    2.625 
#    0.000    0.000    0.000    6.250    0.000    6.500 
#
# Total GULP energy -793086.163061 kJ/mol
# GULP energy per Si atom -12391.971298 kJ/mol
# Density = 1.870729 g / cm^3
# Si number density = 18.749962 Si / 1000 Ang^3
#
#
#
# Elastic Constant Matrix: (Units=GPa)
#
#
# Indices 1 2 3 4 5 6 
#
# 1 87.7818 69.6850 41.2669 0.0000 0.0000 -11.5166
# 2 69.6850 87.7818 41.2669 0.0000 0.0000 11.5166
# 3 41.2669 41.2669 85.8963 0.0000 0.0000 0.0000
# 4 0.0000 0.0000 0.0000 11.4067 0.0000 0.0000
# 5 0.0000 0.0000 0.0000 0.0000 11.4067 0.0000
# 6 -11.5166 11.5166 0.0000 0.0000 0.0000 18.3976
#
#
#
# Elastic Compliance Matrix: (Units=1/GPa)
#
#
# Indices 1 2 3 4 5 6 
#
# 1 0.140174 -0.131687 -0.004078 0.000000 0.000000 0.170181
# 2 -0.131687 0.140174 -0.004078 0.000000 0.000000 -0.170181
# 3 -0.004078 -0.004078 0.015560 0.000000 0.000000 0.000000
# 4 0.000000 0.000000 0.000000 0.087667 0.000000 0.000000
# 5 0.000000 0.000000 0.000000 0.000000 0.087667 0.000000
# 6 0.170181 -0.170181 0.000000 0.000000 0.000000 0.267417
#
#
# Mechanical properties :
#
#
# Convention : Reuss Voigt Hill
#
# Bulk Modulus (GPa) = 61.63464 62.87750 62.25607
# Shear Modulus (GPa) = 4.88399 15.52496 10.20447
#
# Velocity S-wave (km/s) = 1.61569 2.88062 2.33543
# Velocity P-wave (km/s) = 6.03522 6.68367 6.36771
#
# Compressibility (1/GPa) = 0.01622464
#
# Stress axis : x y z
#
# Youngs Moduli (GPa) = 7.13397 7.13397 64.26693
#
# Poissons Ratio (x) = 0.93945 0.26207
# Poissons Ratio (y) = 0.93945 0.26207
# Poissons Ratio (z) = 0.02909 0.02909
#
# Static dielectric constant tensor:
#      x y z
#    x 3.572700 0.000000 0.000000 
#    y 0.000000 3.572700 0.000000 
#    z 0.000000 0.000000 3.393790 
# 
# 
# High freq. dielectric constant tensor:
#      x y z
#    x 1.720380 0.000000 0.000000 
#    y 0.000000 1.720380 0.000000 
#    z 0.000000 0.000000 1.716020 
# 
# From -- ./inp_files/1279.got.cif
#   From: 2010.03.12/outbox.cif.g09.slc.cpg/sg83_1_cif.got.tgz:1279.got - 2010.04.08 20:05:18.
