data_PCOD8302597
_publ_section_title
;
Structure prediction by ZEFSAII (Michael W. Deem and Ramdas Pophale) SiO2 
 PCOD8302597
Probable space group: I -4 
;
_chemical_formula_sum "Si O2"
_cell_formula_units_Z 48
_cell_length_a 13.485616
_cell_length_b 13.485616
_cell_length_c 12.724666
_cell_angle_alpha 90.000000
_cell_angle_beta 90.000000
_cell_angle_gamma 90.000000
_cell_volume 2314.131158
_symmetry_space_group_name_H-M "I -4 "
_symmetry_group_IT_number 82
_symmetry_cell_setting 'tetragonal'
loop_
_space_group_symop_operation_xyz
x,y,z
y,-x,-z
-x,-y,z
-y,x,-z
1/2+x,1/2+y,1/2+z
1/2+y,1/2-x,1/2-z
1/2-x,1/2-y,1/2+z
1/2-y,1/2+x,1/2-z
loop_
_atom_site_type_symbol
_atom_site_label
_atom_site_fract_x
_atom_site_fract_y
_atom_site_fract_z
Si Si1 0.500000 0.500000 0.749999
Si Si2 0.750000 0.249999 0.625001
Si Si3 0.500000 0.000000 0.000000
Si Si4 0.095913 0.900883 0.058950
Si Si5 0.404083 0.099113 0.808950
Si Si6 0.404082 0.099112 0.308950
Si Si7 0.099116 0.095913 0.441050
O O1 0.568260 0.428222 0.678860
O O2 0.571778 0.568259 0.821139
O O3 0.678262 0.315773 0.552201
O O4 0.684226 0.178262 0.697801
O O5 0.815776 0.321735 0.697800
O O6 0.821737 0.184225 0.552201
O O7 0.431723 0.071761 0.928861
O O8 0.571764 0.068274 0.071140
O O9 0.998245 0.861661 0.999094
O O10 0.501759 0.138339 0.749111
O O11 0.501753 0.138339 0.249104
O O12 0.001753 0.138338 0.499092
#
# Coordination Sequence:
#
# PCOD8302597 Si02
#       7
#     4   8   4   8   8   8   8
#     4   8  18  44  68  78 140 160 190 276 300 346
#     4  12  24  36  74  92 116 174 208 240 326 364
#     4   8  18  44  68  78 140 160 190 276 300 346
#     4   9  22  44  61  93 129 159 207 259 302 366
#     4   9  22  44  61  93 129 159 207 259 302 366
#     4   9  22  44  61  93 129 159 207 259 302 366
#     4   9  22  44  61  93 129 159 207 259 302 366
#
# _framework density 20.742125000000001
#
# number of rings (size 3 to 8) (size 9 to 14) (size 15 to 20)
#    0.000    3.333    0.000    0.000    9.333    0.000 
#    0.000   13.333    0.000    0.000    0.000    0.000 
#    0.000    0.000    0.000    0.000    0.000    0.000 
#
# Total GULP energy -297546.128591 kJ/mol
# GULP energy per Si atom -12397.755358 kJ/mol
# Density = 2.069492 g / cm^3
# Si number density = 20.742125 Si / 1000 Ang^3
#
#
#
# Elastic Constant Matrix: (Units=GPa)
#
#
# Indices 1 2 3 4 5 6 
#
# 1 62.6956 15.1988 13.9606 0.0000 0.0000 -0.1074
# 2 15.1988 62.6956 13.9606 0.0000 0.0000 0.1074
# 3 13.9606 13.9606 119.0716 0.0000 0.0000 0.0000
# 4 0.0000 0.0000 0.0000 22.9932 0.0000 0.0000
# 5 0.0000 0.0000 0.0000 0.0000 22.9932 0.0000
# 6 -0.1074 0.1074 0.0000 0.0000 0.0000 74.8826
#
#
#
# Elastic Compliance Matrix: (Units=1/GPa)
#
#
# Indices 1 2 3 4 5 6 
#
# 1 0.017228 -0.003827 -0.001571 0.000000 0.000000 0.000030
# 2 -0.003827 0.017228 -0.001571 0.000000 0.000000 -0.000030
# 3 -0.001571 -0.001571 0.008767 0.000000 0.000000 0.000000
# 4 0.000000 0.000000 0.000000 0.043491 0.000000 0.000000
# 5 0.000000 0.000000 0.000000 0.000000 0.043491 0.000000
# 6 0.000030 -0.000030 0.000000 0.000000 0.000000 0.013354
#
#
# Mechanical properties :
#
#
# Convention : Reuss Voigt Hill
#
# Bulk Modulus (GPa) = 34.14826 36.74475 35.44650
# Shear Modulus (GPa) = 29.89394 37.59664 33.74529
#
# Velocity S-wave (km/s) = 3.80046 4.26205 4.03786
# Velocity P-wave (km/s) = 5.97971 6.47870 6.23420
#
# Compressibility (1/GPa) = 0.02928407
#
# Stress axis : x y z
#
# Youngs Moduli (GPa) = 58.04622 58.04622 114.06746
#
# Poissons Ratio (x) = 0.22212 0.17922
# Poissons Ratio (y) = 0.22212 0.17922
# Poissons Ratio (z) = 0.09120 0.09120
#
# Static dielectric constant tensor:
#      x y z
#    x 3.670120 0.000000 0.000000 
#    y 0.000000 3.670120 0.000000 
#    z 0.000000 0.000000 3.643450 
# 
# 
# High freq. dielectric constant tensor:
#      x y z
#    x 1.808010 0.000000 0.000000 
#    y 0.000000 1.808010 0.000000 
#    z 0.000000 0.000000 1.803400 
# 
# From -- ./inp_files/1797.got.cif
#   From: 2010.03.12/outbox.cif.g09.slc.cpg/sg82_1_cif.got.tgz:1797.got - 2010.04.08 20:02:50.
