data_PCOD8302667
_publ_section_title
;
Structure prediction by ZEFSAII (Michael W. Deem and Ramdas Pophale) SiO2 
 PCOD8302667
Probable space group: P 4/M
;
_chemical_formula_sum "Si O2"
_cell_formula_units_Z 40
_cell_length_a 15.992349
_cell_length_b 15.992349
_cell_length_c 8.733534
_cell_angle_alpha 90.000000
_cell_angle_beta 90.000000
_cell_angle_gamma 90.000000
_cell_volume 2233.646967
_symmetry_space_group_name_H-M "P 4/M"
_symmetry_group_IT_number 83
_symmetry_cell_setting 'tetragonal'
loop_
_space_group_symop_operation_xyz
x,y,z
-y,x,z
-x,-y,z
y,-x,z
-x,-y,-z
y,-x,-z
x,y,-z
-y,x,-z
loop_
_atom_site_type_symbol
_atom_site_label
_atom_site_fract_x
_atom_site_fract_y
_atom_site_fract_z
Si Si1 0.082744 0.547284 0.180430
Si Si2 0.740537 0.517605 0.820069
Si Si3 0.713901 0.856585 0.681534
Si Si4 0.313574 0.661366 0.182633
Si Si5 0.118568 0.057693 0.318057
O O1 0.161990 0.489613 0.225368
O O2 0.088017 0.635486 0.265551
O O3 0.000000 0.500000 0.236645
O O4 0.081454 0.565152 0.000000
O O5 0.691582 0.435146 0.762007
O O6 0.700493 0.601234 0.747918
O O7 0.730065 0.524569 0.000000
O O8 0.714158 0.850288 0.500000
O O9 0.712766 0.763843 0.750534
O O10 0.796955 0.901320 0.746950
O O11 0.308645 0.666989 0.000000
O O12 0.120683 0.058471 0.500000
O O13 0.038179 0.110592 0.260046
#
# Coordination Sequence:
#
# PCOD8302667 Si02
#       5
#     8   8   8   8   8
#     4   9  18  33  50  68  94 127 158 187 226 276
#     4   8  15  28  47  68  88 116 154 191 224 266
#     4  10  19  30  47  72  96 118 151 193 233 272
#     4   9  17  31  48  66  91 121 154 190 230 276
#     4   8  15  29  47  66  91 123 156 189 226 272
#
# _framework density 17.907933
#
# number of rings (size 3 to 8) (size 9 to 14) (size 15 to 20)
#    0.000    3.200    0.000    2.400    0.000    2.400 
#    0.000    6.000    0.000    3.600    0.000   11.200 
#    0.000    0.000    0.000    0.000    0.000    0.000 
#
# Total GULP energy -495822.094178 kJ/mol
# GULP energy per Si atom -12395.552354 kJ/mol
# Density = 1.786717 g / cm^3
# Si number density = 17.907933 Si / 1000 Ang^3
#
#
#
# Elastic Constant Matrix: (Units=GPa)
#
#
# Indices 1 2 3 4 5 6 
#
# 1 163.4647 112.9480 22.6085 0.0000 0.0000 16.8380
# 2 112.9480 163.4647 22.6085 0.0000 0.0000 -16.8380
# 3 22.6085 22.6085 24.6931 0.0000 0.0000 0.0000
# 4 0.0000 0.0000 0.0000 20.8174 0.0000 0.0000
# 5 0.0000 0.0000 0.0000 0.0000 20.8174 0.0000
# 6 16.8380 -16.8380 0.0000 0.0000 0.0000 35.2317
#
#
#
# Elastic Compliance Matrix: (Units=1/GPa)
#
#
# Indices 1 2 3 4 5 6 
#
# 1 0.016653 -0.012398 -0.003896 0.000000 0.000000 -0.013884
# 2 -0.012398 0.016653 -0.003896 0.000000 0.000000 0.013884
# 3 -0.003896 -0.003896 0.047631 0.000000 0.000000 0.000000
# 4 0.000000 0.000000 0.000000 0.048037 0.000000 0.000000
# 5 0.000000 0.000000 0.000000 0.000000 0.048037 0.000000
# 6 -0.013884 0.013884 0.000000 0.000000 0.000000 0.041655
#
#
# Mechanical properties :
#
#
# Convention : Reuss Voigt Hill
#
# Bulk Modulus (GPa) = 24.65621 74.21695 49.43658
# Shear Modulus (GPa) = 18.34433 28.27045 23.30739
#
# Velocity S-wave (km/s) = 3.20405 3.97754 3.61156
# Velocity P-wave (km/s) = 5.24272 7.91379 6.71246
#
# Compressibility (1/GPa) = 0.04055773
#
# Stress axis : x y z
#
# Youngs Moduli (GPa) = 60.04919 60.04919 20.99473
#
# Poissons Ratio (x) = 0.74449 0.08179
# Poissons Ratio (y) = 0.74449 0.08179
# Poissons Ratio (z) = 0.23394 0.23394
#
# Static dielectric constant tensor:
#      x y z
#    x 3.587060 0.000000 0.000000 
#    y 0.000000 3.587060 0.000000 
#    z 0.000000 0.000000 2.889790 
# 
# 
# High freq. dielectric constant tensor:
#      x y z
#    x 1.698840 0.000000 0.000000 
#    y 0.000000 1.698840 0.000000 
#    z 0.000000 0.000000 1.652080 
# 
# From -- ./inp_files/630.got.cif
#   From: 2010.03.12/outbox.cif.g09.slc.cpg/sg83_1_cif.got.tgz:630.got - 2010.04.08 20:05:18.
