data_PCOD8302885
_publ_section_title
;
Structure prediction by ZEFSAII (Michael W. Deem and Ramdas Pophale) SiO2 
 PCOD8302885
Probable space group: P 4/M
;
_chemical_formula_sum "Si O2"
_cell_formula_units_Z 60
_cell_length_a 11.205231
_cell_length_b 11.205231
_cell_length_c 22.083661
_cell_angle_alpha 90.000000
_cell_angle_beta 90.000000
_cell_angle_gamma 90.000000
_cell_volume 2772.762680
_symmetry_space_group_name_H-M "P 4/M"
_symmetry_group_IT_number 83
_symmetry_cell_setting 'tetragonal'
loop_
_space_group_symop_operation_xyz
x,y,z
-y,x,z
-x,-y,z
y,-x,z
-x,-y,-z
y,-x,-z
x,y,-z
-y,x,-z
loop_
_atom_site_type_symbol
_atom_site_label
_atom_site_fract_x
_atom_site_fract_y
_atom_site_fract_z
Si Si1 0.352536 0.017492 0.367488
Si Si2 0.644027 0.630506 0.270935
Si Si3 0.342519 0.387260 0.500000
Si Si4 0.799509 0.416926 0.930308
Si Si5 0.239352 0.261663 0.612969
Si Si6 0.629548 0.994327 0.842821
Si Si7 0.037999 0.804793 0.745077
Si Si8 0.257635 0.355717 0.138592
O O1 0.275738 0.904320 0.391120
O O2 0.307617 0.045319 0.299892
O O3 0.500000 0.000000 0.371555
O O4 0.298753 0.132640 0.403840
O O5 0.508372 0.667033 0.283044
O O6 0.724496 0.700881 0.318860
O O7 0.672959 0.663019 0.201622
O O8 0.472520 0.334584 0.500000
O O9 0.280724 0.351609 0.561972
O O10 0.732727 0.510459 0.886518
O O11 0.726325 0.298175 0.917179
O O12 0.934275 0.395349 0.907943
O O13 0.798281 0.454758 0.000000
O O14 0.736614 0.929071 0.807304
O O15 0.683333 0.123366 0.851674
O O16 0.500000 0.000000 0.808174
O O17 0.137368 0.906537 0.737470
#
# Coordination Sequence:
#
# PCOD8302885 Si02
#       8
#     8   8   4   8   8   8   8   8
#     4  12  25  44  72 104 146 197 245 303 368 429
#     4  11  22  40  65  97 137 173 227 294 365 426
#     4  11  24  48  76 109 154 200 256 315 374 431
#     4  11  24  40  61  87 121 167 217 279 351 429
#     4  12  27  45  72 109 148 196 250 301 361 442
#     4  10  23  38  59  86 122 167 222 278 343 421
#     4  11  22  40  64  96 138 180 228 294 358 428
#     4  11  22  40  61  89 122 163 215 279 345 431
#
# _framework density 21.639068000000002
#
# number of rings (size 3 to 8) (size 9 to 14) (size 15 to 20)
#    0.000    0.867    2.667    4.800    1.867    6.133 
#    0.000    2.000    0.000    0.800    0.000    2.800 
#    0.000    0.000    0.000    0.000    0.000    0.000 
#
# Total GULP energy -743292.768435 kJ/mol
# GULP energy per Si atom -12388.212807 kJ/mol
# Density = 2.158982 g / cm^3
# Si number density = 21.639068 Si / 1000 Ang^3
#
#
#
# Elastic Constant Matrix: (Units=GPa)
#
#
# Indices 1 2 3 4 5 6 
#
# 1 99.9659 24.0482 16.8617 0.0000 0.0000 -3.5550
# 2 24.0482 99.9659 16.8617 0.0000 0.0000 3.5550
# 3 16.8617 16.8617 98.2824 0.0000 0.0000 0.0000
# 4 0.0000 0.0000 0.0000 25.5888 0.0000 0.0000
# 5 0.0000 0.0000 0.0000 0.0000 25.5888 0.0000
# 6 -3.5550 3.5550 0.0000 0.0000 0.0000 34.3318
#
#
#
# Elastic Compliance Matrix: (Units=1/GPa)
#
#
# Indices 1 2 3 4 5 6 
#
# 1 0.010880 -0.002421 -0.001451 0.000000 0.000000 0.001377
# 2 -0.002421 0.010880 -0.001451 0.000000 0.000000 -0.001377
# 3 -0.001451 -0.001451 0.010673 0.000000 0.000000 0.000000
# 4 0.000000 0.000000 0.000000 0.039080 0.000000 0.000000
# 5 0.000000 0.000000 0.000000 0.000000 0.039080 0.000000
# 6 0.001377 -0.001377 0.000000 0.000000 0.000000 0.029413
#
#
# Mechanical properties :
#
#
# Convention : Reuss Voigt Hill
#
# Bulk Modulus (GPa) = 45.90397 45.97304 45.93850
# Shear Modulus (GPa) = 31.66301 33.13139 32.39720
#
# Velocity S-wave (km/s) = 3.82937 3.91716 3.87352
# Velocity P-wave (km/s) = 6.38840 6.46145 6.42503
#
# Compressibility (1/GPa) = 0.02178461
#
# Stress axis : x y z
#
# Youngs Moduli (GPa) = 91.91447 91.91447 93.69721
#
# Poissons Ratio (x) = 0.22257 0.13597
# Poissons Ratio (y) = 0.22257 0.13597
# Poissons Ratio (z) = 0.13338 0.13338
#
# Static dielectric constant tensor:
#      x y z
#    x 4.218160 0.000000 0.000000 
#    y 0.000000 4.218160 0.000000 
#    z 0.000000 0.000000 3.733220 
# 
# 
# High freq. dielectric constant tensor:
#      x y z
#    x 1.864120 0.000000 0.000000 
#    y 0.000000 1.864120 0.000000 
#    z 0.000000 0.000000 1.828920 
# 
# From -- ./inp_files/3047.got.cif
#   From: 2010.03.12/outbox.cif.g09.slc.cpg/sg83_2_cif.got.tgz:3047.got - 2010.04.08 20:05:18.
