data_PCOD8302068
_publ_section_title
;
Structure prediction by ZEFSAII (Michael W. Deem and Ramdas Pophale) SiO2 
 PCOD8302068
Probable space group: P 43
;
_chemical_formula_sum "Si O2"
_cell_formula_units_Z 20
_cell_length_a 5.253746
_cell_length_b 5.253746
_cell_length_c 27.236060
_cell_angle_alpha 90.000000
_cell_angle_beta 90.000000
_cell_angle_gamma 90.000000
_cell_volume 751.765562
_symmetry_space_group_name_H-M "P 43"
_symmetry_group_IT_number 78
_symmetry_cell_setting 'tetragonal'
loop_
_space_group_symop_operation_xyz
x,y,z
-y,x,3/4+z
-x,-y,1/2+z
y,-x,1/4+z
loop_
_atom_site_type_symbol
_atom_site_label
_atom_site_fract_x
_atom_site_fract_y
_atom_site_fract_z
Si Si1 0.810145 0.684402 0.915990
Si Si2 0.972863 0.987689 0.336970
Si Si3 0.675709 0.759406 0.512574
Si Si4 0.376792 0.246459 0.523574
Si Si5 0.694209 0.622423 0.405796
O O1 0.830634 0.922791 0.879350
O O2 0.590877 0.489552 0.896902
O O3 0.099411 0.589732 0.918398
O O4 0.756072 0.766023 0.971077
O O5 0.747930 0.177769 0.318591
O O6 0.167743 0.934131 0.291429
O O7 0.797245 0.758268 0.357027
O O8 0.577824 0.476806 0.525962
O O9 0.696184 0.803704 0.453937
O O10 0.490947 0.970535 0.534163
#
# Coordination Sequence:
#
# PCOD8302068 Si02
#       5
#     4   4   4   4   4
#     4  11  29  53  78 117 165 213 272 340 418 492
#     4  12  28  50  88 122 156 222 276 354 394 512
#     4  11  29  53  78 117 165 213 272 340 418 492
#     4  11  29  53  78 117 165 213 272 340 418 492
#     4  11  29  53  78 117 165 213 272 340 418 492
#
# _framework density 26.604042
#
# number of rings (size 3 to 8) (size 9 to 14) (size 15 to 20)
#    0.000    0.800    0.000    2.400   22.400    9.600 
#    0.000    0.000    0.000    0.000    0.000    0.000 
#    0.000    0.000    0.000    0.000    0.000    0.000 
#
# Total GULP energy -247859.103319 kJ/mol
# GULP energy per Si atom -12392.955166 kJ/mol
# Density = 2.654349 g / cm^3
# Si number density = 26.604042 Si / 1000 Ang^3
#
#
#
# Elastic Constant Matrix: (Units=GPa)
#
#
# Indices 1 2 3 4 5 6 
#
# 1 93.6265 26.2249 15.2956 0.0000 0.0000 2.8495
# 2 26.2249 93.6265 15.2956 0.0000 0.0000 -2.8495
# 3 15.2956 15.2956 112.0735 0.0000 0.0000 0.0000
# 4 0.0000 0.0000 0.0000 41.0566 0.0000 0.0000
# 5 0.0000 0.0000 0.0000 0.0000 41.0566 0.0000
# 6 2.8495 -2.8495 0.0000 0.0000 0.0000 23.9588
#
#
#
# Elastic Compliance Matrix: (Units=1/GPa)
#
#
# Indices 1 2 3 4 5 6 
#
# 1 0.011816 -0.003171 -0.001180 0.000000 0.000000 -0.001782
# 2 -0.003171 0.011816 -0.001180 0.000000 0.000000 0.001782
# 3 -0.001180 -0.001180 0.009245 0.000000 0.000000 0.000000
# 4 0.000000 0.000000 0.000000 0.024357 0.000000 0.000000
# 5 0.000000 0.000000 0.000000 0.000000 0.024357 0.000000
# 6 -0.001782 0.001782 0.000000 0.000000 0.000000 0.042162
#
#
# Mechanical properties :
#
#
# Convention : Reuss Voigt Hill
#
# Bulk Modulus (GPa) = 45.83988 45.88428 45.86208
# Shear Modulus (GPa) = 35.19005 37.38175 36.28590
#
# Velocity S-wave (km/s) = 3.64089 3.75255 3.69714
# Velocity P-wave (km/s) = 5.91122 6.00501 5.95830
#
# Compressibility (1/GPa) = 0.02181507
#
# Stress axis : x y z
#
# Youngs Moduli (GPa) = 84.63112 84.63112 108.16936
#
# Poissons Ratio (x) = 0.26838 0.12762
# Poissons Ratio (y) = 0.26838 0.12762
# Poissons Ratio (z) = 0.09985 0.09985
#
# Static dielectric constant tensor:
#      x y z
#    x 4.883330 0.000000 0.000000 
#    y 0.000000 4.883330 0.000000 
#    z 0.000000 0.000000 5.753930 
# 
# 
# High freq. dielectric constant tensor:
#      x y z
#    x 2.066570 0.000000 0.000000 
#    y 0.000000 2.066570 0.000000 
#    z 0.000000 0.000000 2.097760 
# 
# From -- ./inp_files/1660.got.cif
#   From: 2010.03.12/outbox.cif.g09.slc.cpg/sg78_cif.got.tgz:1660.got - 2010.04.16 16:37:20.
