data_PCOD8302001
_publ_section_title
;
Structure prediction by ZEFSAII (Michael W. Deem and Ramdas Pophale) SiO2 
 PCOD8302001
Probable space group: P 42
;
_chemical_formula_sum "Si O2"
_cell_formula_units_Z 20
_cell_length_a 7.823740
_cell_length_b 7.823740
_cell_length_c 12.008025
_cell_angle_alpha 90.000000
_cell_angle_beta 90.000000
_cell_angle_gamma 90.000000
_cell_volume 735.022109
_symmetry_space_group_name_H-M "P 42"
_symmetry_group_IT_number 77
_symmetry_cell_setting 'tetragonal'
loop_
_space_group_symop_operation_xyz
x,y,z
-y,x,1/2+z
-x,-y,z
y,-x,1/2+z
loop_
_atom_site_type_symbol
_atom_site_label
_atom_site_fract_x
_atom_site_fract_y
_atom_site_fract_z
Si Si1 0.521112 0.688524 0.997810
Si Si2 0.161887 0.793701 0.025207
Si Si3 0.312627 0.992642 0.735754
Si Si4 0.295389 0.082197 0.159083
Si Si5 0.858581 0.749005 0.862843
O O1 0.500000 0.500000 0.049747
O O2 0.673407 0.676502 0.905172
O O3 0.331059 0.740973 0.953355
O O4 0.544789 0.831658 0.095214
O O5 0.133796 0.680008 0.136690
O O6 0.175516 0.991054 0.065694
O O7 0.993483 0.745694 0.959427
O O8 0.247207 0.806804 0.702700
O O9 0.500000 0.000000 0.790449
O O10 0.176137 0.054411 0.828409
O O11 0.349438 0.945629 0.256103
#
# Coordination Sequence:
#
# PCOD8302001 Si02
#       5
#     4   4   4   4   4
#     4  12  28  52  79 118 167 221 276 348 423 499
#     4  11  25  50  81 113 161 218 273 343 419 494
#     4  11  25  46  79 120 159 209 271 348 412 495
#     4  11  26  50  80 117 163 209 281 350 405 496
#     4  11  27  48  82 121 158 216 288 333 416 507
#
# _framework density 27.210065
#
# number of rings (size 3 to 8) (size 9 to 14) (size 15 to 20)
#    0.000    0.800    2.000    4.200    8.400    0.000 
#   14.400    0.000    0.000    0.000    0.000    0.000 
#    0.000    0.000    0.000    0.000    0.000    0.000 
#
# Total GULP energy -247783.124330 kJ/mol
# GULP energy per Si atom -12389.156217 kJ/mol
# Density = 2.714813 g / cm^3
# Si number density = 27.210065 Si / 1000 Ang^3
#
#
#
# Elastic Constant Matrix: (Units=GPa)
#
#
# Indices 1 2 3 4 5 6 
#
# 1 138.5115 12.5975 28.3338 0.0000 0.0000 -9.7018
# 2 12.5975 138.5115 28.3338 0.0000 0.0000 9.7018
# 3 28.3338 28.3338 102.5206 0.0000 0.0000 0.0000
# 4 0.0000 0.0000 0.0000 20.3855 0.0000 0.0000
# 5 0.0000 0.0000 0.0000 0.0000 20.3855 0.0000
# 6 -9.7018 9.7018 0.0000 0.0000 0.0000 38.0478
#
#
#
# Elastic Compliance Matrix: (Units=1/GPa)
#
#
# Indices 1 2 3 4 5 6 
#
# 1 0.007825 -0.000442 -0.002040 0.000000 0.000000 0.002108
# 2 -0.000442 0.007825 -0.002040 0.000000 0.000000 -0.002108
# 3 -0.002040 -0.002040 0.010882 0.000000 0.000000 0.000000
# 4 0.000000 0.000000 0.000000 0.049054 0.000000 0.000000
# 5 0.000000 0.000000 0.000000 0.000000 0.049054 0.000000
# 6 0.002108 -0.002108 0.000000 0.000000 0.000000 0.027358
#
#
# Mechanical properties :
#
#
# Convention : Reuss Voigt Hill
#
# Bulk Modulus (GPa) = 57.18827 57.56373 57.37600
# Shear Modulus (GPa) = 29.96301 36.44901 33.20601
#
# Velocity S-wave (km/s) = 3.32199 3.66395 3.49715
# Velocity P-wave (km/s) = 5.98140 6.25304 6.11873
#
# Compressibility (1/GPa) = 0.01748610
#
# Stress axis : x y z
#
# Youngs Moduli (GPa) = 127.79812 127.79812 91.89509
#
# Poissons Ratio (x) = 0.05648 0.18751
# Poissons Ratio (y) = 0.05648 0.18751
# Poissons Ratio (z) = 0.26076 0.26076
#
# Static dielectric constant tensor:
#      x y z
#    x 4.952730 0.000000 0.000000 
#    y 0.000000 4.952730 0.000000 
#    z 0.000000 0.000000 5.057760 
# 
# 
# High freq. dielectric constant tensor:
#      x y z
#    x 2.101140 0.000000 0.000000 
#    y 0.000000 2.101140 0.000000 
#    z 0.000000 0.000000 2.090920 
# 
# From -- ./inp_files/780.got.cif
#   From: 2010.03.12/outbox.cif.g09.slc.cpg/sg77_cif.got.tgz:780.got - 2010.04.16 16:36:19.
