data_PCOD8302376
_publ_section_title
;
Structure prediction by ZEFSAII (Michael W. Deem and Ramdas Pophale) SiO2 
 PCOD8302376
Probable space group: I -4 
;
_chemical_formula_sum "Si O2"
_cell_formula_units_Z 34
_cell_length_a 11.297493
_cell_length_b 11.297493
_cell_length_c 16.059329
_cell_angle_alpha 90.000000
_cell_angle_beta 90.000000
_cell_angle_gamma 90.000000
_cell_volume 2049.705928
_symmetry_space_group_name_H-M "I -4 "
_symmetry_group_IT_number 82
_symmetry_cell_setting 'tetragonal'
loop_
_space_group_symop_operation_xyz
x,y,z
y,-x,-z
-x,-y,z
-y,x,-z
1/2+x,1/2+y,1/2+z
1/2+y,1/2-x,1/2-z
1/2-x,1/2-y,1/2+z
1/2-y,1/2+x,1/2-z
loop_
_atom_site_type_symbol
_atom_site_label
_atom_site_fract_x
_atom_site_fract_y
_atom_site_fract_z
Si Si1 0.489745 0.280941 0.109479
Si Si2 0.222859 0.882362 0.679904
Si Si3 0.854860 0.236620 0.318548
Si Si4 0.500000 0.500000 0.000000
Si Si5 0.639122 0.991255 0.549527
O O1 0.605972 0.304922 0.163884
O O2 0.374269 0.264871 0.167972
O O3 0.451159 0.394704 0.055583
O O4 0.511140 0.169980 0.048664
O O5 0.301502 0.819395 0.748396
O O6 0.189815 0.015208 0.711442
O O7 0.298547 0.894963 0.594032
O O8 0.872398 0.314208 0.403410
O O9 0.500000 0.000000 0.559850
#
# Coordination Sequence:
#
# PCOD8302376 Si02
#       5
#     8   8   8   2   8
#     4  12  18  36  60  78 102 150 192 222 261 355
#     4  10  20  32  56  80 110 136 181 229 279 321
#     4  10  20  32  56  80 110 136 181 229 279 321
#     4  12  12  36  60  84  84 132 198 216 228 340
#     4  10  20  32  56  80 110 136 181 229 279 321
#
# _framework density 16.587744000000001
#
# number of rings (size 3 to 8) (size 9 to 14) (size 15 to 20)
#    1.412    0.000    7.059    1.412    0.000    0.000 
#    4.235    0.000    0.000    0.000    0.000    0.000 
#    0.000    0.000    0.000    0.000    0.000    0.000 
#
# Total GULP energy -210651.474012 kJ/mol
# GULP energy per Si atom -12391.263177 kJ/mol
# Density = 1.654999 g / cm^3
# Si number density = 16.587744 Si / 1000 Ang^3
#
#
#
# Elastic Constant Matrix: (Units=GPa)
#
#
# Indices 1 2 3 4 5 6 
#
# 1 89.7725 12.5243 32.8904 0.0000 0.0000 -0.0392
# 2 12.5243 89.7725 32.8904 0.0000 0.0000 0.0392
# 3 32.8904 32.8904 68.3502 0.0000 0.0000 0.0000
# 4 0.0000 0.0000 0.0000 31.7847 0.0000 0.0000
# 5 0.0000 0.0000 0.0000 0.0000 31.7847 0.0000
# 6 -0.0392 0.0392 0.0000 0.0000 0.0000 18.3810
#
#
#
# Elastic Compliance Matrix: (Units=1/GPa)
#
#
# Indices 1 2 3 4 5 6 
#
# 1 0.013551 0.000605 -0.006812 0.000000 0.000000 0.000028
# 2 0.000605 0.013551 -0.006812 0.000000 0.000000 -0.000028
# 3 -0.006812 -0.006812 0.021186 0.000000 0.000000 0.000000
# 4 0.000000 0.000000 0.000000 0.031462 0.000000 0.000000
# 5 0.000000 0.000000 0.000000 0.000000 0.031462 0.000000
# 6 0.000028 -0.000028 0.000000 0.000000 0.000000 0.054404
#
#
# Mechanical properties :
#
#
# Convention : Reuss Voigt Hill
#
# Bulk Modulus (GPa) = 44.94273 44.94504 44.94388
# Shear Modulus (GPa) = 25.11699 27.69608 26.40654
#
# Velocity S-wave (km/s) = 3.89548 4.09059 3.99423
# Velocity P-wave (km/s) = 6.88373 7.03312 6.95883
#
# Compressibility (1/GPa) = 0.02225054
#
# Stress axis : x y z
#
# Youngs Moduli (GPa) = 73.79784 73.79785 47.20032
#
# Poissons Ratio (x) = -0.04466 0.32152
# Poissons Ratio (y) = -0.04466 0.32152
# Poissons Ratio (z) = 0.50270 0.50270
#
# Static dielectric constant tensor:
#      x y z
#    x 2.936830 0.000000 0.000000 
#    y 0.000000 2.936830 0.000000 
#    z 0.000000 0.000000 2.976380 
# 
# 
# High freq. dielectric constant tensor:
#      x y z
#    x 1.623220 0.000000 0.000000 
#    y 0.000000 1.623220 0.000000 
#    z 0.000000 0.000000 1.624850 
# 
# From -- ./inp_files/2132.got.cif
#   From: 2010.03.12/outbox.cif.g09.slc.cpg/sg82_2_cif.got.tgz:2132.got - 2010.04.08 20:02:50.
