data_PCOD8302189
_publ_section_title
;
Structure prediction by ZEFSAII (Michael W. Deem and Ramdas Pophale) SiO2 
 PCOD8302189
Probable space group: I 41
;
_chemical_formula_sum "Si O2"
_cell_formula_units_Z 48
_cell_length_a 8.569428
_cell_length_b 8.569428
_cell_length_c 29.190453
_cell_angle_alpha 90.000000
_cell_angle_beta 90.000000
_cell_angle_gamma 90.000000
_cell_volume 2143.603726
_symmetry_space_group_name_H-M "I 41"
_symmetry_group_IT_number 80
_symmetry_cell_setting 'tetragonal'
loop_
_space_group_symop_operation_xyz
x,y,z
-y,1/2+x,1/4+z
-x,-y,z
y,1/2-x,1/4+z
1/2+x,1/2+y,1/2+z
1/2-y,x,3/4+z
1/2-x,1/2-y,1/2+z
1/2+y,-x,3/4+z
loop_
_atom_site_type_symbol
_atom_site_label
_atom_site_fract_x
_atom_site_fract_y
_atom_site_fract_z
Si Si1 0.813098 0.709886 0.905970
Si Si2 0.841112 0.090969 0.373751
Si Si3 0.686356 0.995828 0.738713
Si Si4 0.686964 0.996558 0.202564
Si Si5 0.393368 0.347875 0.310756
Si Si6 0.307952 0.804041 0.283429
O O1 0.793126 0.529557 0.890924
O O2 0.962342 0.741431 0.938221
O O3 0.666651 0.763541 0.937727
O O4 0.822409 0.812922 0.860362
O O5 0.875243 0.223416 0.412636
O O6 0.780049 0.189223 0.331135
O O7 0.000000 0.000000 0.359360
O O8 0.750531 0.868572 0.775335
O O9 0.500000 0.000000 0.737663
O O10 0.750775 0.161727 0.753106
O O11 0.737934 0.043230 0.253627
O O12 0.500000 0.000000 0.199704
O O13 0.500000 0.500000 0.314455
O O14 0.504932 0.207971 0.292215
#
# Coordination Sequence:
#
# PCOD8302189 Si02
#       6
#     8   8   8   8   8   8
#     4  10  22  42  68  94 136 172 220 271 341 397
#     4   9  22  40  66  99 135 173 226 276 333 407
#     4  11  26  44  69  97 140 174 227 287 337 405
#     4   9  21  41  62  97 132 165 223 271 327 395
#     4  10  23  43  64  95 133 179 224 268 337 409
#     4  11  24  41  71  99 133 177 228 274 342 402
#
# _framework density 22.392199000000002
#
# number of rings (size 3 to 8) (size 9 to 14) (size 15 to 20)
#    0.000    2.333    0.000    2.500   11.667    0.000 
#    3.000    0.000    0.000    0.000    0.000    0.000 
#    0.000    0.000    0.000    0.000    0.000    0.000 
#
# Total GULP energy -297439.228698 kJ/mol
# GULP energy per Si atom -12393.301196 kJ/mol
# Density = 2.234123 g / cm^3
# Si number density = 22.392199 Si / 1000 Ang^3
#
#
#
# Elastic Constant Matrix: (Units=GPa)
#
#
# Indices 1 2 3 4 5 6 
#
# 1 73.7846 15.5429 33.6276 0.0000 0.0000 -0.2437
# 2 15.5429 73.7846 33.6276 0.0000 0.0000 0.2437
# 3 33.6276 33.6276 143.9639 0.0000 0.0000 0.0000
# 4 0.0000 0.0000 0.0000 32.5380 0.0000 0.0000
# 5 0.0000 0.0000 0.0000 0.0000 32.5380 0.0000
# 6 -0.2437 0.2437 0.0000 0.0000 0.0000 22.9601
#
#
#
# Elastic Compliance Matrix: (Units=1/GPa)
#
#
# Indices 1 2 3 4 5 6 
#
# 1 0.015378 -0.001794 -0.003173 0.000000 0.000000 0.000182
# 2 -0.001794 0.015378 -0.003173 0.000000 0.000000 -0.000182
# 3 -0.003173 -0.003173 0.008428 0.000000 0.000000 0.000000
# 4 0.000000 0.000000 0.000000 0.030733 0.000000 0.000000
# 5 0.000000 0.000000 0.000000 0.000000 0.030733 0.000000
# 6 0.000182 -0.000182 0.000000 0.000000 0.000000 0.043558
#
#
# Mechanical properties :
#
#
# Convention : Reuss Voigt Hill
#
# Bulk Modulus (GPa) = 43.66026 50.79214 47.22620
# Shear Modulus (GPa) = 29.74033 31.52288 30.63160
#
# Velocity S-wave (km/s) = 3.64834 3.75609 3.70260
# Velocity P-wave (km/s) = 6.10635 6.44539 6.27816
#
# Compressibility (1/GPa) = 0.02290412
#
# Stress axis : x y z
#
# Youngs Moduli (GPa) = 65.03000 65.02997 118.64550
#
# Poissons Ratio (x) = 0.11665 0.37645
# Poissons Ratio (y) = 0.11665 0.37645
# Poissons Ratio (z) = 0.20633 0.20633
#
# Static dielectric constant tensor:
#      x y z
#    x 3.940860 0.000000 0.000000 
#    y 0.000000 3.940860 0.000000 
#    z 0.000000 0.000000 4.492470 
# 
# 
# High freq. dielectric constant tensor:
#      x y z
#    x 1.863420 0.000000 0.000000 
#    y 0.000000 1.863420 0.000000 
#    z 0.000000 0.000000 1.907800 
# 
# From -- ./inp_files/2612.got.cif
#   From: 2010.03.12/outbox.cif.g09.slc.cpg/sg80_cif.got.tgz:2612.got - 2010.04.08 20:00:04.
