data_PCOD8302790
_publ_section_title
;
Structure prediction by ZEFSAII (Michael W. Deem and Ramdas Pophale) SiO2 
 PCOD8302790
Probable space group: P 4/M
;
_chemical_formula_sum "Si O2"
_cell_formula_units_Z 52
_cell_length_a 16.489172
_cell_length_b 16.489172
_cell_length_c 10.475982
_cell_angle_alpha 90.000000
_cell_angle_beta 90.000000
_cell_angle_gamma 90.000000
_cell_volume 2848.344008
_symmetry_space_group_name_H-M "P 4/M"
_symmetry_group_IT_number 83
_symmetry_cell_setting 'tetragonal'
loop_
_space_group_symop_operation_xyz
x,y,z
-y,x,z
-x,-y,z
y,-x,z
-x,-y,-z
y,-x,-z
x,y,-z
-y,x,-z
loop_
_atom_site_type_symbol
_atom_site_label
_atom_site_fract_x
_atom_site_fract_y
_atom_site_fract_z
Si Si1 0.809786 0.342943 0.650381
Si Si2 0.504689 0.738287 0.255017
Si Si3 0.665189 0.222305 0.647279
Si Si4 0.928320 0.115113 0.000000
Si Si5 0.489989 0.365190 0.000000
Si Si6 0.483784 0.369036 0.500000
Si Si7 0.210846 0.913373 0.642720
Si Si8 0.798604 0.913416 0.743483
O O1 0.829705 0.354339 0.500000
O O2 0.809306 0.428344 0.727408
O O3 0.722763 0.299682 0.668096
O O4 0.880027 0.291518 0.719475
O O5 0.413663 0.772923 0.263094
O O6 0.515881 0.691321 0.123330
O O7 0.525299 0.680679 0.372356
O O8 0.636930 0.218166 0.500000
O O9 0.713482 0.141453 0.687929
O O10 0.893260 0.166283 0.117786
O O11 0.025636 0.109902 0.000000
O O12 0.573900 0.414193 0.000000
O O13 0.570248 0.409826 0.500000
O O14 0.225453 0.944740 0.500000
O O15 0.129076 0.859410 0.643112
O O16 0.201747 0.990072 0.732844
#
# Coordination Sequence:
#
# PCOD8302790 Si02
#       8
#     8   8   8   4   4   4   8   8
#     4  10  20  35  58  87 115 150 206 258 294 353
#     4  12  21  36  57  79 117 161 198 249 303 350
#     4   9  18  34  55  81 113 150 194 248 299 352
#     4  11  22  39  59  87 122 157 193 233 283 365
#     4  11  24  37  51  81 122 154 192 251 309 366
#     4  11  20  30  54  84 105 142 202 254 309 360
#     4  10  20  35  57  86 117 149 191 246 305 356
#     4  11  21  37  57  84 119 154 189 240 299 351
#
# _framework density 18.256222000000001
#
# number of rings (size 3 to 8) (size 9 to 14) (size 15 to 20)
#    0.000    1.462    3.077    5.077    0.000    2.154 
#    0.000    5.385    0.000    2.769    0.000    2.154 
#    0.000    0.000    0.000    0.000    0.000    0.000 
#
# Total GULP energy -644790.015309 kJ/mol
# GULP energy per Si atom -12399.807987 kJ/mol
# Density = 1.821467 g / cm^3
# Si number density = 18.256222 Si / 1000 Ang^3
#
#
#
# Elastic Constant Matrix: (Units=GPa)
#
#
# Indices 1 2 3 4 5 6 
#
# 1 77.2382 19.8256 24.2436 0.0000 0.0000 4.9769
# 2 19.8256 77.2382 24.2436 0.0000 0.0000 -4.9769
# 3 24.2436 24.2436 99.5463 0.0000 0.0000 0.0000
# 4 0.0000 0.0000 0.0000 21.4504 0.0000 0.0000
# 5 0.0000 0.0000 0.0000 0.0000 21.4504 0.0000
# 6 4.9769 -4.9769 0.0000 0.0000 0.0000 27.4393
#
#
#
# Elastic Compliance Matrix: (Units=1/GPa)
#
#
# Indices 1 2 3 4 5 6 
#
# 1 0.014856 -0.003127 -0.002857 0.000000 0.000000 -0.003262
# 2 -0.003127 0.014856 -0.002857 0.000000 0.000000 0.003262
# 3 -0.002857 -0.002857 0.011437 0.000000 0.000000 0.000000
# 4 0.000000 0.000000 0.000000 0.046619 0.000000 0.000000
# 5 0.000000 0.000000 0.000000 0.000000 0.046619 0.000000
# 6 -0.003262 0.003262 0.000000 0.000000 0.000000 0.037627
#
#
# Mechanical properties :
#
#
# Convention : Reuss Voigt Hill
#
# Bulk Modulus (GPa) = 42.60847 43.40538 43.00692
# Shear Modulus (GPa) = 25.31407 26.44869 25.88138
#
# Velocity S-wave (km/s) = 3.72775 3.81037 3.76929
# Velocity P-wave (km/s) = 6.47441 6.57160 6.52318
#
# Compressibility (1/GPa) = 0.02346951
#
# Stress axis : x y z
#
# Youngs Moduli (GPa) = 67.31108 67.31108 87.43567
#
# Poissons Ratio (x) = 0.21048 0.24977
# Poissons Ratio (y) = 0.21048 0.24977
# Poissons Ratio (z) = 0.19228 0.19228
#
# Static dielectric constant tensor:
#      x y z
#    x 3.371190 0.000000 0.000000 
#    y 0.000000 3.371190 0.000000 
#    z 0.000000 0.000000 3.223170 
# 
# 
# High freq. dielectric constant tensor:
#      x y z
#    x 1.702510 0.000000 0.000000 
#    y 0.000000 1.702510 0.000000 
#    z 0.000000 0.000000 1.698640 
# 
# From -- ./inp_files/1088.got.cif
#   From: 2010.03.12/outbox.cif.g09.slc.cpg/sg83_1_cif.got.tgz:1088.got - 2010.04.08 20:05:18.
