data_PCOD8302873
_publ_section_title
;
Structure prediction by ZEFSAII (Michael W. Deem and Ramdas Pophale) SiO2 
 PCOD8302873
Probable space group: P 4/M
;
_chemical_formula_sum "Si O2"
_cell_formula_units_Z 48
_cell_length_a 8.219788
_cell_length_b 8.219788
_cell_length_c 31.921434
_cell_angle_alpha 90.000000
_cell_angle_beta 90.000000
_cell_angle_gamma 90.000000
_cell_volume 2156.768967
_symmetry_space_group_name_H-M "P 4/M"
_symmetry_group_IT_number 83
_symmetry_cell_setting 'tetragonal'
loop_
_space_group_symop_operation_xyz
x,y,z
-y,x,z
-x,-y,z
y,-x,z
-x,-y,-z
y,-x,-z
x,y,-z
-y,x,-z
loop_
_atom_site_type_symbol
_atom_site_label
_atom_site_fract_x
_atom_site_fract_y
_atom_site_fract_z
Si Si1 0.740515 0.074438 0.360389
Si Si2 0.756219 0.583989 0.284908
Si Si3 0.241667 0.432852 0.953563
Si Si4 0.090494 0.251981 0.790167
Si Si5 0.760623 0.435049 0.500000
Si Si6 0.500000 0.000000 0.429898
Si Si7 0.254985 0.924180 0.884346
O O1 0.626565 0.113744 0.320835
O O2 0.632213 0.096159 0.401950
O O3 0.889343 0.199286 0.359443
O O4 0.601782 0.702705 0.288833
O O5 0.848611 0.606890 0.240709
O O6 0.386592 0.305350 0.947697
O O7 0.108564 0.396424 0.918024
O O8 0.164635 0.410766 0.000000
O O9 0.105833 0.321149 0.837352
O O10 0.904657 0.203218 0.781914
O O11 0.695992 0.619011 0.500000
O O12 0.868716 0.407061 0.458667
O O13 0.106703 0.801705 0.891510
#
# Coordination Sequence:
#
# PCOD8302873 Si02
#       7
#     8   8   8   8   4   4   8
#     4  11  23  39  61  88 119 158 202 247 296 349
#     4  11  24  39  56  83 118 153 192 241 294 347
#     4   9  19  35  52  72 102 139 178 223 277 338
#     4   9  19  37  58  79 107 145 187 231 283 344
#     4  10  22  40  64  94 128 166 204 247 302 354
#     4  11  22  40  64  92 126 162 206 252 295 350
#     4   9  19  35  54  78 107 138 177 227 281 338
#
# _framework density 22.255514000000002
#
# number of rings (size 3 to 8) (size 9 to 14) (size 15 to 20)
#    0.000    2.083    0.000    4.500    0.000    6.000 
#    0.000    9.167    0.000    4.000    0.000    0.000 
#    0.000    0.000    0.000    0.000    0.000    0.000 
#
# Total GULP energy -595271.704088 kJ/mol
# GULP energy per Si atom -12401.493835 kJ/mol
# Density = 2.220486 g / cm^3
# Si number density = 22.255514 Si / 1000 Ang^3
#
#
#
# Elastic Constant Matrix: (Units=GPa)
#
#
# Indices 1 2 3 4 5 6 
#
# 1 230.9304 -155.2510 38.1472 0.0000 0.0000 39.7569
# 2 -155.2510 230.9304 38.1472 0.0000 0.0000 -39.7569
# 3 38.1472 38.1472 159.5380 0.0000 0.0000 0.0000
# 4 0.0000 0.0000 0.0000 -40.8566 0.0000 0.0000
# 5 0.0000 0.0000 0.0000 0.0000 -40.8566 0.0000
# 6 39.7569 -39.7569 0.0000 0.0000 0.0000 47.2791
#
#
#
# Elastic Compliance Matrix: (Units=1/GPa)
#
#
# Indices 1 2 3 4 5 6 
#
# 1 0.010271 0.007139 -0.004163 0.000000 0.000000 -0.002633
# 2 0.007139 0.010271 -0.004163 0.000000 0.000000 0.002633
# 3 -0.004163 -0.004163 0.008259 0.000000 0.000000 0.000000
# 4 0.000000 0.000000 0.000000 -0.024476 0.000000 0.000000
# 5 0.000000 0.000000 0.000000 0.000000 -0.024476 0.000000
# 6 -0.002633 0.002633 0.000000 0.000000 0.000000 0.025580
#
#
# Mechanical properties :
#
#
# Convention : Reuss Voigt Hill
#
# Bulk Modulus (GPa) = 37.83891 51.49838 44.66865
# Shear Modulus (GPa) = 300.99097 39.80355 170.39726
#
# Velocity S-wave (km/s) = 11.64203 4.23363 8.75958
# Velocity P-wave (km/s) = 14.06253 6.86207 11.06442
#
# Compressibility (1/GPa) = 0.02642782
#
# Stress axis : x y z
#
# Youngs Moduli (GPa) = 97.36075 97.36075 121.08091
#
# Poissons Ratio (x) = -0.69510 0.50406
# Poissons Ratio (y) = -0.69510 0.50406
# Poissons Ratio (z) = 0.40532 0.40532
#
# Static dielectric constant tensor:
#      x y z
#    x 3.856410 0.000000 0.000000 
#    y 0.000000 3.856410 0.000000 
#    z 0.000000 0.000000 4.061330 
# 
# 
# High freq. dielectric constant tensor:
#      x y z
#    x 1.876250 0.000000 0.000000 
#    y 0.000000 1.876250 0.000000 
#    z 0.000000 0.000000 1.883380 
# 
# From -- ./inp_files/3436.got.cif
#   From: 2010.03.12/outbox.cif.g09.slc.cpg/sg83_2_cif.got.tgz:3436.got - 2010.04.08 20:05:18.
