data_PCOD8302712
_publ_section_title
;
Structure prediction by ZEFSAII (Michael W. Deem and Ramdas Pophale) SiO2 
 PCOD8302712
Probable space group: P 4/M
;
_chemical_formula_sum "Si O2"
_cell_formula_units_Z 44
_cell_length_a 15.274585
_cell_length_b 15.274585
_cell_length_c 10.793527
_cell_angle_alpha 90.000000
_cell_angle_beta 90.000000
_cell_angle_gamma 90.000000
_cell_volume 2518.269592
_symmetry_space_group_name_H-M "P 4/M"
_symmetry_group_IT_number 83
_symmetry_cell_setting 'tetragonal'
loop_
_space_group_symop_operation_xyz
x,y,z
-y,x,z
-x,-y,z
y,-x,z
-x,-y,-z
y,-x,-z
x,y,-z
-y,x,-z
loop_
_atom_site_type_symbol
_atom_site_label
_atom_site_fract_x
_atom_site_fract_y
_atom_site_fract_z
Si Si1 0.509312 0.354084 0.500000
Si Si2 0.668273 0.311190 0.141965
Si Si3 0.510989 0.736730 0.754452
Si Si4 0.915831 0.440898 0.142844
Si Si5 0.795815 0.158969 0.852494
Si Si6 0.749994 0.968956 0.146802
O O1 0.591646 0.419351 0.500000
O O2 0.516264 0.289517 0.616430
O O3 0.565703 0.291654 0.152293
O O4 0.687616 0.399698 0.214427
O O5 0.726282 0.230968 0.197063
O O6 0.694381 0.325879 0.000000
O O7 0.522209 0.840742 0.768044
O O8 0.940354 0.345349 0.192208
O O9 0.000000 0.500000 0.156563
O O10 0.882779 0.438663 0.000000
O O11 0.894261 0.182384 0.808970
O O12 0.774405 0.063439 0.795386
O O13 0.789482 0.156341 0.000000
O O14 0.750512 0.977361 0.000000
#
# Coordination Sequence:
#
# PCOD8302712 Si02
#       6
#     4   8   8   8   8   8
#     4  11  24  44  57  72 104 152 196 235 283 334
#     4  11  21  33  52  81 111 136 176 231 281 335
#     4  12  22  37  57  78 106 146 189 226 277 333
#     4  10  19  33  54  83 115 145 178 223 291 352
#     4   9  17  29  45  71 108 144 177 210 259 325
#     4   9  16  27  44  68 105 146 176 210 257 323
#
# _framework density 17.472315999999999
#
# number of rings (size 3 to 8) (size 9 to 14) (size 15 to 20)
#    0.000    1.727    3.636    2.727    0.000    3.636 
#    0.000    3.182    0.000    0.000    0.000    0.000 
#    0.000    0.000    0.000    1.636    0.000    0.727 
#
# Total GULP energy -545585.000418 kJ/mol
# GULP energy per Si atom -12399.659100 kJ/mol
# Density = 1.743255 g / cm^3
# Si number density = 17.472316 Si / 1000 Ang^3
#
#
#
# Elastic Constant Matrix: (Units=GPa)
#
#
# Indices 1 2 3 4 5 6 
#
# 1 119.3311 39.4644 13.9732 0.0000 0.0000 -3.7000
# 2 39.4644 119.3311 13.9732 0.0000 0.0000 3.7000
# 3 13.9732 13.9732 38.6326 0.0000 0.0000 0.0000
# 4 0.0000 0.0000 0.0000 14.1670 0.0000 0.0000
# 5 0.0000 0.0000 0.0000 0.0000 14.1670 0.0000
# 6 -3.7000 3.7000 0.0000 0.0000 0.0000 30.2292
#
#
#
# Elastic Compliance Matrix: (Units=1/GPa)
#
#
# Indices 1 2 3 4 5 6 
#
# 1 0.009695 -0.002969 -0.002433 0.000000 0.000000 0.001550
# 2 -0.002969 0.009695 -0.002433 0.000000 0.000000 -0.001550
# 3 -0.002433 -0.002433 0.027645 0.000000 0.000000 0.000000
# 4 0.000000 0.000000 0.000000 0.070586 0.000000 0.000000
# 5 0.000000 0.000000 0.000000 0.000000 0.070586 0.000000
# 6 0.001550 -0.001550 0.000000 0.000000 0.000000 0.033460
#
#
# Mechanical properties :
#
#
# Convention : Reuss Voigt Hill
#
# Bulk Modulus (GPa) = 31.88241 45.79074 38.83658
# Shear Modulus (GPa) = 20.17822 25.70491 22.94156
#
# Velocity S-wave (km/s) = 3.40202 3.83976 3.62750
# Velocity P-wave (km/s) = 5.80678 6.77664 6.31037
#
# Compressibility (1/GPa) = 0.03136525
#
# Stress axis : x y z
#
# Youngs Moduli (GPa) = 103.14594 103.14594 36.17347
#
# Poissons Ratio (x) = 0.30629 0.08800
# Poissons Ratio (y) = 0.30629 0.08800
# Poissons Ratio (z) = 0.25091 0.25091
#
# Static dielectric constant tensor:
#      x y z
#    x 3.456550 0.000000 0.000000 
#    y 0.000000 3.456550 0.000000 
#    z 0.000000 0.000000 2.718630 
# 
# 
# High freq. dielectric constant tensor:
#      x y z
#    x 1.692080 0.000000 0.000000 
#    y 0.000000 1.692080 0.000000 
#    z 0.000000 0.000000 1.604470 
# 
# From -- ./inp_files/1723.got.cif
#   From: 2010.03.12/outbox.cif.g09.slc.cpg/sg83_1_cif.got.tgz:1723.got - 2010.04.08 20:05:18.
