data_PCOD8302293
_publ_section_title
;
Structure prediction by ZEFSAII (Michael W. Deem and Ramdas Pophale) SiO2 
 PCOD8302293
Probable space group: P -4
;
_chemical_formula_sum "Si O2"
_cell_formula_units_Z 22
_cell_length_a 9.071830
_cell_length_b 9.071830
_cell_length_c 13.428295
_cell_angle_alpha 90.000000
_cell_angle_beta 90.000000
_cell_angle_gamma 90.000000
_cell_volume 1105.123159
_symmetry_space_group_name_H-M "P -4"
_symmetry_group_IT_number 81
_symmetry_cell_setting 'tetragonal'
loop_
_space_group_symop_operation_xyz
x,y,z
y,-x,-z
-x,-y,z
-y,x,-z
loop_
_atom_site_type_symbol
_atom_site_label
_atom_site_fract_x
_atom_site_fract_y
_atom_site_fract_z
Si Si1 0.074151 0.218001 0.975437
Si Si2 0.339199 0.433944 0.630754
Si Si3 0.173610 0.997849 0.612828
Si Si4 0.789548 0.303426 0.544218
Si Si5 0.725583 0.806360 0.788923
Si Si6 0.000000 0.500000 0.097675
O O1 0.151667 0.235750 0.869440
O O2 0.905085 0.163731 0.960642
O O3 0.079288 0.374874 0.031210
O O4 0.500000 0.500000 0.644664
O O5 0.332648 0.343640 0.529721
O O6 0.208607 0.556101 0.618263
O O7 0.308258 0.341081 0.729194
O O8 0.268048 0.066533 0.521311
O O9 0.202509 0.072880 0.717500
O O10 0.236926 0.833173 0.618578
O O11 0.000000 0.000000 0.589034
O O12 0.576107 0.873109 0.835597
#
# Coordination Sequence:
#
# PCOD8302293 Si02
#       6
#     4   4   4   4   4   2
#     4   9  20  45  72  93 126 161 203 266 325 381
#     4  11  23  42  59  90 135 168 214 252 307 378
#     4  11  23  40  63  95 126 161 227 261 296 367
#     4  11  20  42  62  84 132 176 203 257 314 352
#     4  10  25  42  65  99 120 166 218 259 308 377
#     4  10  22  44  72  92 124 168 202 256 340 378
#
# _framework density 19.907284000000001
#
# number of rings (size 3 to 8) (size 9 to 14) (size 15 to 20)
#    0.000    1.636    3.636    0.000    7.636    0.727 
#    9.818    0.000    0.000    0.000    0.000    0.000 
#    0.000    0.000    0.000    0.000    0.000    0.000 
#
# Total GULP energy -272671.900873 kJ/mol
# GULP energy per Si atom -12394.177312 kJ/mol
# Density = 1.986197 g / cm^3
# Si number density = 19.907284 Si / 1000 Ang^3
#
#
#
# Elastic Constant Matrix: (Units=GPa)
#
#
# Indices 1 2 3 4 5 6 
#
# 1 131.2326 53.6845 76.4065 0.0000 0.0000 5.8704
# 2 53.6845 131.2326 76.4065 0.0000 0.0000 -5.8704
# 3 76.4065 76.4065 132.2634 0.0000 0.0000 0.0000
# 4 0.0000 0.0000 0.0000 26.5712 0.0000 0.0000
# 5 0.0000 0.0000 0.0000 0.0000 26.5712 0.0000
# 6 5.8704 -5.8704 0.0000 0.0000 0.0000 31.4004
#
#
#
# Elastic Compliance Matrix: (Units=1/GPa)
#
#
# Indices 1 2 3 4 5 6 
#
# 1 0.011809 -0.001462 -0.005978 0.000000 0.000000 -0.002481
# 2 -0.001462 0.011809 -0.005978 0.000000 0.000000 0.002481
# 3 -0.005978 -0.005978 0.014467 0.000000 0.000000 0.000000
# 4 0.000000 0.000000 0.000000 0.037635 0.000000 0.000000
# 5 0.000000 0.000000 0.000000 0.000000 0.037635 0.000000
# 6 -0.002481 0.002481 0.000000 0.000000 0.000000 0.032774
#
#
# Mechanical properties :
#
#
# Convention : Reuss Voigt Hill
#
# Bulk Modulus (GPa) = 88.87529 89.74707 89.31118
# Shear Modulus (GPa) = 28.29426 29.45728 28.87577
#
# Velocity S-wave (km/s) = 3.77411 3.85089 3.81269
# Velocity P-wave (km/s) = 7.98332 8.05934 8.02142
#
# Compressibility (1/GPa) = 0.01125172
#
# Stress axis : x y z
#
# Youngs Moduli (GPa) = 84.67904 84.67904 69.12208
#
# Poissons Ratio (x) = 0.12376 0.41319
# Poissons Ratio (y) = 0.12376 0.41319
# Poissons Ratio (z) = 0.50619 0.50619
#
# Static dielectric constant tensor:
#      x y z
#    x 3.890270 0.000000 0.000000 
#    y 0.000000 3.890270 0.000000 
#    z 0.000000 0.000000 3.580670 
# 
# 
# High freq. dielectric constant tensor:
#      x y z
#    x 1.781380 0.000000 0.000000 
#    y 0.000000 1.781380 0.000000 
#    z 0.000000 0.000000 1.770450 
# 
# From -- ./inp_files/1594.got.cif
#   From: 2010.03.12/outbox.cif.g09.slc.cpg/sg81_cif.got.tgz:1594.got - 2010.04.08 20:01:38.
