data_PCOD8302427
_publ_section_title
;
Structure prediction by ZEFSAII (Michael W. Deem and Ramdas Pophale) SiO2 
 PCOD8302427
Probable space group: I -4 
;
_chemical_formula_sum "Si O2"
_cell_formula_units_Z 50
_cell_length_a 9.172621
_cell_length_b 9.172621
_cell_length_c 28.169061
_cell_angle_alpha 90.000000
_cell_angle_beta 90.000000
_cell_angle_gamma 90.000000
_cell_volume 2370.059610
_symmetry_space_group_name_H-M "I -4 "
_symmetry_group_IT_number 82
_symmetry_cell_setting 'tetragonal'
loop_
_space_group_symop_operation_xyz
x,y,z
y,-x,-z
-x,-y,z
-y,x,-z
1/2+x,1/2+y,1/2+z
1/2+y,1/2-x,1/2-z
1/2-x,1/2-y,1/2+z
1/2-y,1/2+x,1/2-z
loop_
_atom_site_type_symbol
_atom_site_label
_atom_site_fract_x
_atom_site_fract_y
_atom_site_fract_z
Si Si1 0.850428 0.081863 0.714554
Si Si2 0.379336 0.258771 0.060628
Si Si3 0.797522 0.304310 0.307250
Si Si4 0.152805 0.573065 0.402141
Si Si5 0.780607 0.935111 0.990384
Si Si6 0.500000 0.500000 0.000000
Si Si7 0.170209 0.516546 0.837939
O O1 0.749491 0.117573 0.759374
O O2 0.886118 0.225762 0.682702
O O3 0.746968 0.966886 0.687017
O O4 0.000000 0.000000 0.729755
O O5 0.234498 0.350740 0.074379
O O6 0.344522 0.126660 0.024703
O O7 0.493290 0.359891 0.033485
O O8 0.464085 0.200440 0.106381
O O9 0.765420 0.412780 0.351434
O O10 0.699365 0.162065 0.309027
O O11 0.234493 0.460589 0.436307
O O12 0.000000 0.500000 0.392611
O O13 0.913903 0.824769 0.985255
O O14 0.000000 0.500000 0.828568
#
# Coordination Sequence:
#
# PCOD8302427 Si02
#       7
#     8   8   8   8   8   2   8
#     4  10  24  44  68  96 138 174 224 289 338 407
#     4  10  23  40  60  99 125 172 225 267 334 406
#     4  10  24  42  65  99 131 174 225 271 348 405
#     4  10  21  39  62  90 129 166 216 268 331 406
#     4   9  19  40  63  88 127 170 214 279 324 390
#     4  12  24  36  68  84 136 176 208 268 340 392
#     4  10  24  43  70  95 133 172 226 282 333 405
#
# _framework density 21.096515
#
# number of rings (size 3 to 8) (size 9 to 14) (size 15 to 20)
#    0.000    2.080    0.000    0.960   12.320    3.200 
#   11.520    0.000    0.000    0.000    0.000    0.000 
#    0.000    0.000    0.000    0.000    0.000    0.000 
#
# Total GULP energy -309868.176589 kJ/mol
# GULP energy per Si atom -12394.727064 kJ/mol
# Density = 2.104850 g / cm^3
# Si number density = 21.096515 Si / 1000 Ang^3
#
#
#
# Elastic Constant Matrix: (Units=GPa)
#
#
# Indices 1 2 3 4 5 6 
#
# 1 85.2369 36.4458 51.4082 0.0000 0.0000 0.9559
# 2 36.4458 85.2369 51.4082 0.0000 0.0000 -0.9559
# 3 51.4082 51.4082 136.4292 0.0000 0.0000 0.0000
# 4 0.0000 0.0000 0.0000 33.5147 0.0000 0.0000
# 5 0.0000 0.0000 0.0000 0.0000 33.5147 0.0000
# 6 0.9559 -0.9559 0.0000 0.0000 0.0000 29.8154
#
#
#
# Elastic Compliance Matrix: (Units=1/GPa)
#
#
# Indices 1 2 3 4 5 6 
#
# 1 0.016289 -0.004232 -0.004543 0.000000 0.000000 -0.000658
# 2 -0.004232 0.016289 -0.004543 0.000000 0.000000 0.000658
# 3 -0.004543 -0.004543 0.010754 0.000000 0.000000 0.000000
# 4 0.000000 0.000000 0.000000 0.029838 0.000000 0.000000
# 5 0.000000 0.000000 0.000000 0.000000 0.029838 0.000000
# 6 -0.000658 0.000658 0.000000 0.000000 0.000000 0.033582
#
#
# Mechanical properties :
#
#
# Convention : Reuss Voigt Hill
#
# Bulk Modulus (GPa) = 59.89924 65.04746 62.47335
# Shear Modulus (GPa) = 29.62240 30.54500 30.08370
#
# Velocity S-wave (km/s) = 3.75125 3.80922 3.78034
# Velocity P-wave (km/s) = 6.87147 7.08852 6.98084
#
# Compressibility (1/GPa) = 0.01669470
#
# Stress axis : x y z
#
# Youngs Moduli (GPa) = 61.39073 61.39073 92.99157
#
# Poissons Ratio (x) = 0.25982 0.42248
# Poissons Ratio (y) = 0.25982 0.42248
# Poissons Ratio (z) = 0.27891 0.27891
#
# Static dielectric constant tensor:
#      x y z
#    x 3.887930 0.000000 0.000000 
#    y 0.000000 3.887930 0.000000 
#    z 0.000000 0.000000 3.873610 
# 
# 
# High freq. dielectric constant tensor:
#      x y z
#    x 1.824170 0.000000 0.000000 
#    y 0.000000 1.824170 0.000000 
#    z 0.000000 0.000000 1.834910 
# 
# From -- ./inp_files/4079.got.cif
#   From: 2010.03.12/outbox.cif.g09.slc.cpg/sg82_3_cif.got.tgz:4079.got - 2010.04.08 20:02:50.
