data_PCOD8302458
_publ_section_title
;
Structure prediction by ZEFSAII (Michael W. Deem and Ramdas Pophale) SiO2 
 PCOD8302458
Probable space group: I -4 
;
_chemical_formula_sum "Si O2"
_cell_formula_units_Z 48
_cell_length_a 13.919942
_cell_length_b 13.919942
_cell_length_c 11.026703
_cell_angle_alpha 90.000000
_cell_angle_beta 90.000000
_cell_angle_gamma 90.000000
_cell_volume 2136.586739
_symmetry_space_group_name_H-M "I -4 "
_symmetry_group_IT_number 82
_symmetry_cell_setting 'tetragonal'
loop_
_space_group_symop_operation_xyz
x,y,z
y,-x,-z
-x,-y,z
-y,x,-z
1/2+x,1/2+y,1/2+z
1/2+y,1/2-x,1/2-z
1/2-x,1/2-y,1/2+z
1/2-y,1/2+x,1/2-z
loop_
_atom_site_type_symbol
_atom_site_label
_atom_site_fract_x
_atom_site_fract_y
_atom_site_fract_z
Si Si1 0.232322 0.520661 0.496683
Si Si2 0.855007 0.791378 0.793030
Si Si3 0.300481 0.488340 0.232017
Si Si4 0.194102 0.820311 0.602401
Si Si5 0.618955 0.844702 0.087871
Si Si6 0.068822 0.667754 0.472874
O O1 0.300860 0.581785 0.585123
O O2 0.288333 0.491145 0.376578
O O3 0.198455 0.426719 0.570523
O O4 0.147401 0.587875 0.449122
O O5 0.742161 0.771280 0.820978
O O6 0.888887 0.693881 0.725126
O O7 0.865336 0.891234 0.716713
O O8 0.345651 0.588622 0.182162
O O9 0.202274 0.470166 0.157870
O O10 0.248134 0.857913 0.484909
O O11 0.105023 0.756499 0.556356
O O12 0.516394 0.884918 0.045627
#
# Coordination Sequence:
#
# PCOD8302458 Si02
#       6
#     8   8   8   8   8   8
#     4  11  25  40  69 104 137 176 226 285 355 403
#     4  11  24  43  68  97 141 181 224 278 348 412
#     4  11  22  42  72  98 132 182 232 281 336 412
#     4  10  22  41  71  94 134 178 226 280 340 397
#     4  11  23  43  66  97 137 176 224 279 343 408
#     4  10  23  43  67 102 133 179 229 287 341 406
#
# _framework density 22.465738000000002
#
# number of rings (size 3 to 8) (size 9 to 14) (size 15 to 20)
#    0.000    1.333    3.333    1.500    9.333    0.000 
#    0.000    0.833    0.000    0.000    0.000    0.000 
#    0.000    0.000    0.000    0.000    0.000    0.000 
#
# Total GULP energy -297494.636550 kJ/mol
# GULP energy per Si atom -12395.609856 kJ/mol
# Density = 2.241460 g / cm^3
# Si number density = 22.465738 Si / 1000 Ang^3
#
#
#
# Elastic Constant Matrix: (Units=GPa)
#
#
# Indices 1 2 3 4 5 6 
#
# 1 88.1878 3.3014 22.2362 0.0000 0.0000 -1.5271
# 2 3.3014 88.1878 22.2362 0.0000 0.0000 1.5271
# 3 22.2362 22.2362 87.6976 0.0000 0.0000 0.0000
# 4 0.0000 0.0000 0.0000 34.7050 0.0000 0.0000
# 5 0.0000 0.0000 0.0000 0.0000 34.7050 0.0000
# 6 -1.5271 1.5271 0.0000 0.0000 0.0000 18.2984
#
#
#
# Elastic Compliance Matrix: (Units=1/GPa)
#
#
# Indices 1 2 3 4 5 6 
#
# 1 0.012141 0.000325 -0.003161 0.000000 0.000000 0.000986
# 2 0.000325 0.012141 -0.003161 0.000000 0.000000 -0.000986
# 3 -0.003161 -0.003161 0.013006 0.000000 0.000000 0.000000
# 4 0.000000 0.000000 0.000000 0.028814 0.000000 0.000000
# 5 0.000000 0.000000 0.000000 0.000000 0.028814 0.000000
# 6 0.000986 -0.000986 0.000000 0.000000 0.000000 0.054814
#
#
# Mechanical properties :
#
#
# Convention : Reuss Voigt Hill
#
# Bulk Modulus (GPa) = 39.53298 39.95785 39.74542
# Shear Modulus (GPa) = 29.38473 31.96163 30.67318
#
# Velocity S-wave (km/s) = 3.62052 3.77594 3.69905
# Velocity P-wave (km/s) = 5.92561 6.06919 5.99783
#
# Compressibility (1/GPa) = 0.02529534
#
# Stress axis : x y z
#
# Youngs Moduli (GPa) = 82.36299 82.36299 76.88875
#
# Poissons Ratio (x) = -0.02680 0.24305
# Poissons Ratio (y) = -0.02680 0.24305
# Poissons Ratio (z) = 0.26035 0.26035
#
# Static dielectric constant tensor:
#      x y z
#    x 3.966350 0.000000 0.000000 
#    y 0.000000 3.966350 0.000000 
#    z 0.000000 0.000000 4.048300 
# 
# 
# High freq. dielectric constant tensor:
#      x y z
#    x 1.873070 0.000000 0.000000 
#    y 0.000000 1.873070 0.000000 
#    z 0.000000 0.000000 1.893040 
# 
# From -- ./inp_files/1772.got.cif
#   From: 2010.03.12/outbox.cif.g09.slc.cpg/sg82_1_cif.got.tgz:1772.got - 2010.04.08 20:02:50.
