data_PCOD8302387
_publ_section_title
;
Structure prediction by ZEFSAII (Michael W. Deem and Ramdas Pophale) SiO2 
 PCOD8302387
Probable space group: I -4 
;
_chemical_formula_sum "Si O2"
_cell_formula_units_Z 46
_cell_length_a 9.062414
_cell_length_b 9.062414
_cell_length_c 29.875283
_cell_angle_alpha 90.000000
_cell_angle_beta 90.000000
_cell_angle_gamma 90.000000
_cell_volume 2453.577749
_symmetry_space_group_name_H-M "I -4 "
_symmetry_group_IT_number 82
_symmetry_cell_setting 'tetragonal'
loop_
_space_group_symop_operation_xyz
x,y,z
y,-x,-z
-x,-y,z
-y,x,-z
1/2+x,1/2+y,1/2+z
1/2+y,1/2-x,1/2-z
1/2-x,1/2-y,1/2+z
1/2-y,1/2+x,1/2-z
loop_
_atom_site_type_symbol
_atom_site_label
_atom_site_fract_x
_atom_site_fract_y
_atom_site_fract_z
Si Si1 0.500000 0.500000 0.704238
Si Si2 0.660656 0.356188 0.485629
Si Si3 0.924157 0.283473 0.259405
Si Si4 0.859967 0.396835 0.915727
Si Si5 0.079429 0.811154 0.520060
Si Si6 0.500000 0.000000 0.250000
Si Si7 0.782271 0.660554 0.681955
O O1 0.429619 0.628754 0.734147
O O2 0.632563 0.565947 0.674346
O O3 0.532173 0.331112 0.523375
O O4 0.627681 0.260368 0.441245
O O5 0.815296 0.323462 0.508899
O O6 0.840463 0.409711 0.229432
O O7 0.828136 0.260595 0.304398
O O8 0.719960 0.487849 0.934786
O O9 0.833264 0.372206 0.863688
O O10 0.000000 0.500000 0.923934
O O11 0.827804 0.036597 0.521901
O O12 0.587037 0.117825 0.279903
#
# Coordination Sequence:
#
# PCOD8302387 Si02
#       7
#     4   8   8   8   8   2   8
#     4  10  20  36  62  86 115 166 207 256 310 382
#     4  10  20  35  61  87 116 157 200 241 311 381
#     4   9  19  37  61  83 117 165 209 252 320 381
#     4  11  21  37  58  91 120 157 204 268 301 375
#     4   9  19  37  62  79 114 156 199 242 313 372
#     4  12  20  36  60  88 120 172 216 256 320 376
#     4  11  22  37  61  88 126 160 215 263 313 377
#
# _framework density 18.748131000000001
#
# number of rings (size 3 to 8) (size 9 to 14) (size 15 to 20)
#    0.000    1.913    4.348    0.000    0.000    1.391 
#    0.000    3.478    0.000   25.043    0.000    0.000 
#    0.000    0.000    0.000    0.000    0.000    0.000 
#
# Total GULP energy -284962.249990 kJ/mol
# GULP energy per Si atom -12389.663043 kJ/mol
# Density = 1.870546 g / cm^3
# Si number density = 18.748131 Si / 1000 Ang^3
#
#
#
# Elastic Constant Matrix: (Units=GPa)
#
#
# Indices 1 2 3 4 5 6 
#
# 1 109.6066 39.3635 48.3831 0.0000 0.0000 -1.2411
# 2 39.3635 109.6066 48.3831 0.0000 0.0000 1.2411
# 3 48.3831 48.3831 103.3113 0.0000 0.0000 0.0000
# 4 0.0000 0.0000 0.0000 24.4341 0.0000 0.0000
# 5 0.0000 0.0000 0.0000 0.0000 24.4341 0.0000
# 6 -1.2411 1.2411 0.0000 0.0000 0.0000 35.6927
#
#
#
# Elastic Compliance Matrix: (Units=1/GPa)
#
#
# Indices 1 2 3 4 5 6 
#
# 1 0.011951 -0.002303 -0.004518 0.000000 0.000000 0.000496
# 2 -0.002303 0.011951 -0.004518 0.000000 0.000000 -0.000496
# 3 -0.004518 -0.004518 0.013911 0.000000 0.000000 0.000000
# 4 0.000000 0.000000 0.000000 0.040926 0.000000 0.000000
# 5 0.000000 0.000000 0.000000 0.000000 0.040926 0.000000
# 6 0.000496 -0.000496 0.000000 0.000000 0.000000 0.028051
#
#
# Mechanical properties :
#
#
# Convention : Reuss Voigt Hill
#
# Bulk Modulus (GPa) = 66.07695 66.08712 66.08203
# Shear Modulus (GPa) = 28.49964 29.33850 28.91907
#
# Velocity S-wave (km/s) = 3.90312 3.96014 3.93173
# Velocity P-wave (km/s) = 7.45879 7.49912 7.47898
#
# Compressibility (1/GPa) = 0.01513387
#
# Stress axis : x y z
#
# Youngs Moduli (GPa) = 83.67699 83.67698 71.88310
#
# Poissons Ratio (x) = 0.19271 0.32478
# Poissons Ratio (y) = 0.19271 0.32478
# Poissons Ratio (z) = 0.37807 0.37807
#
# Static dielectric constant tensor:
#      x y z
#    x 3.778210 0.000000 0.000000 
#    y 0.000000 3.778210 0.000000 
#    z 0.000000 0.000000 2.991050 
# 
# 
# High freq. dielectric constant tensor:
#      x y z
#    x 1.750720 0.000000 0.000000 
#    y 0.000000 1.750720 0.000000 
#    z 0.000000 0.000000 1.673000 
# 
# From -- ./inp_files/3978.got.cif
#   From: 2010.03.12/outbox.cif.g09.slc.cpg/sg82_2_cif.got.tgz:3978.got - 2010.04.08 20:02:50.
