data_PCOD8302348
_publ_section_title
;
Structure prediction by ZEFSAII (Michael W. Deem and Ramdas Pophale) SiO2 
 PCOD8302348
Probable space group: I -4 
;
_chemical_formula_sum "Si O2"
_cell_formula_units_Z 58
_cell_length_a 11.804863
_cell_length_b 11.804863
_cell_length_c 24.683859
_cell_angle_alpha 90.000000
_cell_angle_beta 90.000000
_cell_angle_gamma 90.000000
_cell_volume 3439.813998
_symmetry_space_group_name_H-M "I -4 "
_symmetry_group_IT_number 82
_symmetry_cell_setting 'tetragonal'
loop_
_space_group_symop_operation_xyz
x,y,z
y,-x,-z
-x,-y,z
-y,x,-z
1/2+x,1/2+y,1/2+z
1/2+y,1/2-x,1/2-z
1/2-x,1/2-y,1/2+z
1/2-y,1/2+x,1/2-z
loop_
_atom_site_type_symbol
_atom_site_label
_atom_site_fract_x
_atom_site_fract_y
_atom_site_fract_z
Si Si1 0.857643 0.373925 0.154077
Si Si2 0.377609 0.507999 0.885197
Si Si3 0.785637 0.125213 0.550353
Si Si4 0.497535 0.240322 0.218600
Si Si5 0.138555 0.619951 0.352636
Si Si6 0.500000 0.000000 0.250000
Si Si7 0.131006 0.765617 0.449869
Si Si8 0.241938 0.755795 0.756127
O O1 0.796026 0.333944 0.098792
O O2 0.848133 0.508901 0.161232
O O3 0.798399 0.314746 0.204593
O O4 0.987482 0.336042 0.152031
O O5 0.500000 0.500000 0.856016
O O6 0.375300 0.416580 0.932753
O O7 0.284866 0.480303 0.841030
O O8 0.357351 0.631037 0.908677
O O9 0.782771 0.214072 0.500098
O O10 0.751196 0.999292 0.530405
O O11 0.377283 0.279243 0.244407
O O12 0.605574 0.273357 0.255696
O O13 0.494989 0.105969 0.209872
O O14 0.167073 0.655870 0.414680
O O15 0.217348 0.686398 0.311073
#
# Coordination Sequence:
#
# PCOD8302348 Si02
#       8
#     8   8   8   8   8   2   8   8
#     4  10  21  35  52  75 107 138 169 206 255 306
#     4  10  18  28  50  82 102 124 162 214 259 291
#     4  10  18  30  52  77 103 129 164 213 261 298
#     4  10  20  34  52  76 104 134 170 207 249 303
#     4  10  21  35  52  75 107 138 169 206 255 306
#     4   8  20  36  52  64 108 144 164 196 252 302
#     4  10  18  30  52  77 103 129 164 213 261 298
#     4  11  20  34  54  77 104 136 168 209 254 304
#
# _framework density 16.861376
#
# number of rings (size 3 to 8) (size 9 to 14) (size 15 to 20)
#    0.000    1.931    4.138    0.828    0.000    2.207 
#    0.000    0.000    6.069    0.000    0.000    0.000 
#    0.000    0.000    0.000    0.000    0.000    0.000 
#
# Total GULP energy -359466.783340 kJ/mol
# GULP energy per Si atom -12395.406322 kJ/mol
# Density = 1.682300 g / cm^3
# Si number density = 16.861376 Si / 1000 Ang^3
#
#
#
# Elastic Constant Matrix: (Units=GPa)
#
#
# Indices 1 2 3 4 5 6 
#
# 1 73.3931 30.1629 34.9917 0.0000 0.0000 -0.5112
# 2 30.1629 73.3931 34.9917 0.0000 0.0000 0.5112
# 3 34.9917 34.9917 92.6688 0.0000 0.0000 0.0000
# 4 0.0000 0.0000 0.0000 23.4978 0.0000 0.0000
# 5 0.0000 0.0000 0.0000 0.0000 23.4978 0.0000
# 6 -0.5112 0.5112 0.0000 0.0000 0.0000 18.9449
#
#
#
# Elastic Compliance Matrix: (Units=1/GPa)
#
#
# Indices 1 2 3 4 5 6 
#
# 1 0.018056 -0.005091 -0.004896 0.000000 0.000000 0.000625
# 2 -0.005091 0.018056 -0.004896 0.000000 0.000000 -0.000625
# 3 -0.004896 -0.004896 0.014488 0.000000 0.000000 0.000000
# 4 0.000000 0.000000 0.000000 0.042557 0.000000 0.000000
# 5 0.000000 0.000000 0.000000 0.000000 0.042557 0.000000
# 6 0.000625 -0.000625 0.000000 0.000000 0.000000 0.052818
#
#
# Mechanical properties :
#
#
# Convention : Reuss Voigt Hill
#
# Bulk Modulus (GPa) = 47.99387 48.86085 48.42736
# Shear Modulus (GPa) = 22.19834 22.47537 22.33686
#
# Velocity S-wave (km/s) = 3.63232 3.65492 3.64364
# Velocity P-wave (km/s) = 6.79097 6.84486 6.81797
#
# Compressibility (1/GPa) = 0.02083600
#
# Stress axis : x y z
#
# Youngs Moduli (GPa) = 55.38357 55.38357 69.02142
#
# Poissons Ratio (x) = 0.28195 0.33790
# Poissons Ratio (y) = 0.28195 0.33790
# Poissons Ratio (z) = 0.27114 0.27114
#
# Static dielectric constant tensor:
#      x y z
#    x 3.238250 0.000000 0.000000 
#    y 0.000000 3.238250 0.000000 
#    z 0.000000 0.000000 3.072190 
# 
# 
# High freq. dielectric constant tensor:
#      x y z
#    x 1.642200 0.000000 0.000000 
#    y 0.000000 1.642200 0.000000 
#    z 0.000000 0.000000 1.642600 
# 
# From -- ./inp_files/3544.got.cif
#   From: 2010.03.12/outbox.cif.g09.slc.cpg/sg82_2_cif.got.tgz:3544.got - 2010.04.08 20:02:50.
