data_PCOD8302147
_publ_section_title
;
Structure prediction by ZEFSAII (Michael W. Deem and Ramdas Pophale) SiO2 
 PCOD8302147
Probable space group: I 41
;
_chemical_formula_sum "Si O2"
_cell_formula_units_Z 60
_cell_length_a 11.399144
_cell_length_b 11.399144
_cell_length_c 20.876945
_cell_angle_alpha 90.000000
_cell_angle_beta 90.000000
_cell_angle_gamma 90.000000
_cell_volume 2712.760336
_symmetry_space_group_name_H-M "I 41"
_symmetry_group_IT_number 80
_symmetry_cell_setting 'tetragonal'
loop_
_space_group_symop_operation_xyz
x,y,z
-y,1/2+x,1/4+z
-x,-y,z
y,1/2-x,1/4+z
1/2+x,1/2+y,1/2+z
1/2-y,x,3/4+z
1/2-x,1/2-y,1/2+z
1/2+y,-x,3/4+z
loop_
_atom_site_type_symbol
_atom_site_label
_atom_site_fract_x
_atom_site_fract_y
_atom_site_fract_z
Si Si1 0.285300 0.226328 0.460770
Si Si2 0.961416 0.692307 0.481563
Si Si3 0.500000 0.500000 0.632420
Si Si4 0.658576 0.158438 0.794388
Si Si5 0.845590 0.921609 0.372492
Si Si6 0.595380 0.333534 0.895739
Si Si7 0.486959 0.133287 0.687715
Si Si8 0.364565 0.498719 0.289212
O O1 0.153521 0.224542 0.488660
O O2 0.272983 0.145863 0.395935
O O3 0.325479 0.355269 0.444525
O O4 0.373037 0.177917 0.514165
O O5 0.981876 0.649608 0.553013
O O6 0.933450 0.591014 0.429403
O O7 0.082909 0.757586 0.461072
O O8 0.442616 0.597791 0.587342
O O9 0.675146 0.270068 0.841641
O O10 0.576499 0.201542 0.735031
O O11 0.780677 0.105621 0.764109
O O12 0.957649 0.835669 0.373757
O O13 0.858286 0.038648 0.416081
O O14 0.520643 0.148433 0.614431
O O15 0.500000 0.000000 0.709871
O O16 0.500000 0.500000 0.266932
#
# Coordination Sequence:
#
# PCOD8302147 Si02
#       8
#     8   8   4   8   8   8   8   8
#     4  11  21  40  64  90 126 166 212 259 332 402
#     4  10  20  34  62  95 125 164 204 260 330 388
#     4  10  18  32  62 106 132 154 212 280 346 396
#     4  11  20  39  62  97 132 167 215 281 344 389
#     4  10  20  39  60  89 130 169 209 261 324 394
#     4   9  21  36  59  93 128 165 212 267 314 388
#     4  11  21  38  66  92 123 163 215 278 339 394
#     4  11  25  42  60  92 128 172 219 271 326 398
#
# _framework density 22.117692999999999
#
# number of rings (size 3 to 8) (size 9 to 14) (size 15 to 20)
#    0.000    1.600    2.000    3.200    0.000    4.267 
#    4.800    0.000    5.867    0.000    0.000    0.000 
#    0.000    0.000    0.000    0.000    0.000    0.000 
#
# Total GULP energy -371682.416850 kJ/mol
# GULP energy per Si atom -12389.413895 kJ/mol
# Density = 2.206735 g / cm^3
# Si number density = 22.117693 Si / 1000 Ang^3
#
#
#
# Elastic Constant Matrix: (Units=GPa)
#
#
# Indices 1 2 3 4 5 6 
#
# 1 103.0382 35.1487 16.4642 0.0000 0.0000 -10.1106
# 2 35.1487 103.0382 16.4642 0.0000 0.0000 10.1106
# 3 16.4642 16.4642 77.0018 0.0000 0.0000 0.0000
# 4 0.0000 0.0000 0.0000 -1.2642 0.0000 0.0000
# 5 0.0000 0.0000 0.0000 0.0000 -1.2642 0.0000
# 6 -10.1106 10.1106 0.0000 0.0000 0.0000 35.5844
#
#
#
# Elastic Compliance Matrix: (Units=1/GPa)
#
#
# Indices 1 2 3 4 5 6 
#
# 1 0.011858 -0.004233 -0.001630 0.000000 0.000000 0.004572
# 2 -0.004233 0.011858 -0.001630 0.000000 0.000000 -0.004572
# 3 -0.001630 -0.001630 0.013684 0.000000 0.000000 0.000000
# 4 0.000000 0.000000 0.000000 -0.791009 0.000000 0.000000
# 5 0.000000 0.000000 0.000000 0.000000 -0.791009 0.000000
# 6 0.004572 -0.004572 0.000000 0.000000 0.000000 0.030700
#
#
# Mechanical properties :
#
#
# Convention : Reuss Voigt Hill
#
# Bulk Modulus (GPa) = 44.61775 46.58138 45.59956
# Shear Modulus (GPa) = -3.35242 20.94461 8.79609
#
# Velocity S-wave (km/s) = -1.23248 3.08061 1.99639
# Velocity P-wave (km/s) = 4.26513 5.81033 5.09663
#
# Compressibility (1/GPa) = 0.02241261
#
# Stress axis : x y z
#
# Youngs Moduli (GPa) = 84.32872 84.32872 73.07853
#
# Poissons Ratio (x) = 0.35699 0.11914
# Poissons Ratio (y) = 0.35699 0.11914
# Poissons Ratio (z) = 0.13749 0.13749
#
# Static dielectric constant tensor:
#      x y z
#    x 4.528860 0.000000 0.000000 
#    y 0.000000 4.528860 0.000000 
#    z 0.000000 0.000000 4.023460 
# 
# 
# High freq. dielectric constant tensor:
#      x y z
#    x 1.863250 0.000000 0.000000 
#    y 0.000000 1.863250 0.000000 
#    z 0.000000 0.000000 1.863100 
# 
# From -- ./inp_files/1860.got.cif
#   From: 2010.03.12/outbox.cif.g09.slc.cpg/sg80_cif.got.tgz:1860.got - 2010.04.08 20:00:04.
