data_PCOD8302206
_publ_section_title
;
Structure prediction by ZEFSAII (Michael W. Deem and Ramdas Pophale) SiO2 
 PCOD8302206
Probable space group: I 41
;
_chemical_formula_sum "Si O2"
_cell_formula_units_Z 60
_cell_length_a 18.490251
_cell_length_b 18.490251
_cell_length_c 7.858710
_cell_angle_alpha 90.000000
_cell_angle_beta 90.000000
_cell_angle_gamma 90.000000
_cell_volume 2686.809506
_symmetry_space_group_name_H-M "I 41"
_symmetry_group_IT_number 80
_symmetry_cell_setting 'tetragonal'
loop_
_space_group_symop_operation_xyz
x,y,z
-y,1/2+x,1/4+z
-x,-y,z
y,1/2-x,1/4+z
1/2+x,1/2+y,1/2+z
1/2-y,x,3/4+z
1/2-x,1/2-y,1/2+z
1/2+y,-x,3/4+z
loop_
_atom_site_type_symbol
_atom_site_label
_atom_site_fract_x
_atom_site_fract_y
_atom_site_fract_z
Si Si1 0.500000 0.000000 0.804471
Si Si2 0.923722 0.120760 0.211923
Si Si3 0.902683 0.032605 0.754316
Si Si4 0.692600 0.491279 0.718405
Si Si5 0.343412 0.967573 0.309221
Si Si6 0.389499 0.416777 0.982683
Si Si7 0.251798 0.494728 0.357252
Si Si8 0.844768 0.735889 0.942506
O O1 0.497144 0.070098 0.681020
O O2 0.567795 0.007417 0.930797
O O3 0.910558 0.141429 0.408545
O O4 0.943992 0.189942 0.097892
O O5 0.849529 0.081299 0.157182
O O6 0.941777 0.110574 0.723809
O O7 0.922446 0.980162 0.599911
O O8 0.816451 0.035643 0.760377
O O9 0.757500 0.470904 0.851783
O O10 0.728593 0.525809 0.551628
O O11 0.636838 0.547635 0.804857
O O12 0.362368 0.043893 0.218945
O O13 0.325240 0.369558 0.061435
O O14 0.229537 0.418529 0.269797
O O15 0.796930 0.700814 0.093680
#
# Coordination Sequence:
#
# PCOD8302206 Si02
#       8
#     4   8   8   8   8   8   8   8
#     4  12  22  36  72  94 130 168 232 282 342 384
#     4  11  24  41  66  96 135 176 227 286 333 408
#     4  11  22  39  65  99 130 171 230 285 343 411
#     4  11  23  42  68  98 138 177 231 283 350 407
#     4  11  23  40  67  97 133 177 224 286 347 410
#     4  11  22  41  66 100 133 173 228 284 343 407
#     4  10  26  44  67 100 139 180 231 288 350 407
#     4  11  27  45  67  99 144 184 228 274 348 432
#
# _framework density 22.331318
#
# number of rings (size 3 to 8) (size 9 to 14) (size 15 to 20)
#    0.000    1.067    4.000    1.600    3.733    6.400 
#    0.000    0.000   11.733    0.000    0.000    0.000 
#    0.000    0.000    0.000    0.000    0.000    0.000 
#
# Total GULP energy -371785.405255 kJ/mol
# GULP energy per Si atom -12392.846842 kJ/mol
# Density = 2.228049 g / cm^3
# Si number density = 22.331318 Si / 1000 Ang^3
#
#
#
# Elastic Constant Matrix: (Units=GPa)
#
#
# Indices 1 2 3 4 5 6 
#
# 1 119.2076 55.2114 16.5432 0.0000 0.0000 -2.4083
# 2 55.2114 119.2076 16.5432 0.0000 0.0000 2.4083
# 3 16.5432 16.5432 47.5280 0.0000 0.0000 0.0000
# 4 0.0000 0.0000 0.0000 29.5236 0.0000 0.0000
# 5 0.0000 0.0000 0.0000 0.0000 29.5236 0.0000
# 6 -2.4083 2.4083 0.0000 0.0000 0.0000 37.6186
#
#
#
# Elastic Compliance Matrix: (Units=1/GPa)
#
#
# Indices 1 2 3 4 5 6 
#
# 1 0.010920 -0.004781 -0.002137 0.000000 0.000000 0.001005
# 2 -0.004781 0.010920 -0.002137 0.000000 0.000000 -0.001005
# 3 -0.002137 -0.002137 0.022528 0.000000 0.000000 0.000000
# 4 0.000000 0.000000 0.000000 0.033871 0.000000 0.000000
# 5 0.000000 0.000000 0.000000 0.000000 0.033871 0.000000
# 6 0.001005 -0.001005 0.000000 0.000000 0.000000 0.026711
#
#
# Mechanical properties :
#
#
# Convention : Reuss Voigt Hill
#
# Bulk Modulus (GPa) = 38.08337 51.39321 44.73829
# Shear Modulus (GPa) = 30.17789 32.50950 31.34369
#
# Velocity S-wave (km/s) = 3.68009 3.81961 3.75050
# Velocity P-wave (km/s) = 5.92859 6.52047 6.23156
#
# Compressibility (1/GPa) = 0.02625818
#
# Stress axis : x y z
#
# Youngs Moduli (GPa) = 91.57409 91.57409 44.38980
#
# Poissons Ratio (x) = 0.43786 0.09485
# Poissons Ratio (y) = 0.43786 0.09485
# Poissons Ratio (z) = 0.19567 0.19567
#
# Static dielectric constant tensor:
#      x y z
#    x 4.040150 0.000000 0.000000 
#    y 0.000000 4.040150 0.000000 
#    z 0.000000 0.000000 4.007310 
# 
# 
# High freq. dielectric constant tensor:
#      x y z
#    x 1.871990 0.000000 0.000000 
#    y 0.000000 1.871990 0.000000 
#    z 0.000000 0.000000 1.885810 
# 
# From -- ./inp_files/749.got.cif
#   From: 2010.03.12/outbox.cif.g09.slc.cpg/sg80_cif.got.tgz:749.got - 2010.04.08 20:00:04.
