data_PCOD8302288
_publ_section_title
;
Structure prediction by ZEFSAII (Michael W. Deem and Ramdas Pophale) SiO2 
 PCOD8302288
Probable space group: P -4
;
_chemical_formula_sum "Si O2"
_cell_formula_units_Z 25
_cell_length_a 11.784145
_cell_length_b 11.784145
_cell_length_c 8.710803
_cell_angle_alpha 90.000000
_cell_angle_beta 90.000000
_cell_angle_gamma 90.000000
_cell_volume 1209.635009
_symmetry_space_group_name_H-M "P -4"
_symmetry_group_IT_number 81
_symmetry_cell_setting 'tetragonal'
loop_
_space_group_symop_operation_xyz
x,y,z
y,-x,-z
-x,-y,z
-y,x,-z
loop_
_atom_site_type_symbol
_atom_site_label
_atom_site_fract_x
_atom_site_fract_y
_atom_site_fract_z
Si Si1 0.204452 0.731218 0.279206
Si Si2 0.000000 0.000000 0.000000
Si Si3 0.881847 0.395820 0.739342
Si Si4 0.204544 0.260380 0.388393
Si Si5 0.776072 0.031814 0.848775
Si Si6 0.128530 0.506863 0.403029
Si Si7 0.371899 0.886592 0.122223
O O1 0.197721 0.786151 0.448861
O O2 0.200964 0.595892 0.302259
O O3 0.316762 0.772825 0.192433
O O4 0.102842 0.768186 0.168026
O O5 0.063294 0.098325 0.094028
O O6 0.783228 0.300868 0.732728
O O7 0.885787 0.458535 0.578267
O O8 0.864099 0.491505 0.873586
O O9 0.004349 0.338382 0.772149
O O10 0.081448 0.231867 0.321811
O O11 0.207778 0.396091 0.401320
O O12 0.675492 0.087146 0.951926
O O13 0.000000 0.500000 0.332900
#
# Coordination Sequence:
#
# PCOD8302288 Si02
#       7
#     4   1   4   4   4   4   4
#     4  11  24  39  67  92 129 171 223 283 329 405
#     4  12  24  40  54  92 152 160 202 280 348 416
#     4  10  22  40  69  90 131 180 218 275 343 398
#     4  11  24  41  66  99 126 172 234 281 333 408
#     4  12  25  39  64  97 133 175 220 272 350 419
#     4  11  19  40  64  95 127 167 229 278 332 409
#     4  11  22  43  63  92 134 178 218 270 344 415
#
# _framework density 20.667390999999999
#
# number of rings (size 3 to 8) (size 9 to 14) (size 15 to 20)
#    0.000    0.960    6.400    0.960    2.240    2.560 
#    0.000    0.800    0.000    0.000    0.000    0.000 
#    0.000    0.000    0.000    0.000    0.000    0.000 
#
# Total GULP energy -309875.204347 kJ/mol
# GULP energy per Si atom -12395.008174 kJ/mol
# Density = 2.062035 g / cm^3
# Si number density = 20.667391 Si / 1000 Ang^3
#
#
#
# Elastic Constant Matrix: (Units=GPa)
#
#
# Indices 1 2 3 4 5 6 
#
# 1 84.0607 26.8507 16.2573 0.0000 0.0000 -1.4246
# 2 26.8507 84.0607 16.2573 0.0000 0.0000 1.4246
# 3 16.2573 16.2573 59.2669 0.0000 0.0000 0.0000
# 4 0.0000 0.0000 0.0000 25.4065 0.0000 0.0000
# 5 0.0000 0.0000 0.0000 0.0000 25.4065 0.0000
# 6 -1.4246 1.4246 0.0000 0.0000 0.0000 36.3786
#
#
#
# Elastic Compliance Matrix: (Units=1/GPa)
#
#
# Indices 1 2 3 4 5 6 
#
# 1 0.013659 -0.003854 -0.002689 0.000000 0.000000 0.000686
# 2 -0.003854 0.013659 -0.002689 0.000000 0.000000 -0.000686
# 3 -0.002689 -0.002689 0.018348 0.000000 0.000000 0.000000
# 4 0.000000 0.000000 0.000000 0.039360 0.000000 0.000000
# 5 0.000000 0.000000 0.000000 0.000000 0.039360 0.000000
# 6 0.000686 -0.000686 0.000000 0.000000 0.000000 0.027542
#
#
# Mechanical properties :
#
#
# Convention : Reuss Voigt Hill
#
# Bulk Modulus (GPa) = 36.76514 38.45766 37.61140
# Shear Modulus (GPa) = 27.86100 28.63987 28.25044
#
# Velocity S-wave (km/s) = 3.67558 3.72661 3.70118
# Velocity P-wave (km/s) = 5.98672 6.09632 6.04177
#
# Compressibility (1/GPa) = 0.02719968
#
# Stress axis : x y z
#
# Youngs Moduli (GPa) = 73.21115 73.21115 54.50098
#
# Poissons Ratio (x) = 0.28219 0.14658
# Poissons Ratio (y) = 0.28219 0.14658
# Poissons Ratio (z) = 0.19690 0.19690
#
# Static dielectric constant tensor:
#      x y z
#    x 3.823020 0.000000 0.000000 
#    y 0.000000 3.823020 0.000000 
#    z 0.000000 0.000000 3.697290 
# 
# 
# High freq. dielectric constant tensor:
#      x y z
#    x 1.801160 0.000000 0.000000 
#    y 0.000000 1.801160 0.000000 
#    z 0.000000 0.000000 1.806470 
# 
# From -- ./inp_files/883.got.cif
#   From: 2010.03.12/outbox.cif.g09.slc.cpg/sg81_cif.got.tgz:883.got - 2010.04.08 20:01:38.
