data_PCOD8302430
_publ_section_title
;
Structure prediction by ZEFSAII (Michael W. Deem and Ramdas Pophale) SiO2 
 PCOD8302430
Probable space group: I -4 
;
_chemical_formula_sum "Si O2"
_cell_formula_units_Z 50
_cell_length_a 9.157102
_cell_length_b 9.157102
_cell_length_c 27.958825
_cell_angle_alpha 90.000000
_cell_angle_beta 90.000000
_cell_angle_gamma 90.000000
_cell_volume 2344.417850
_symmetry_space_group_name_H-M "I -4 "
_symmetry_group_IT_number 82
_symmetry_cell_setting 'tetragonal'
loop_
_space_group_symop_operation_xyz
x,y,z
y,-x,-z
-x,-y,z
-y,x,-z
1/2+x,1/2+y,1/2+z
1/2+y,1/2-x,1/2-z
1/2-x,1/2-y,1/2+z
1/2-y,1/2+x,1/2-z
loop_
_atom_site_type_symbol
_atom_site_label
_atom_site_fract_x
_atom_site_fract_y
_atom_site_fract_z
Si Si1 0.205831 0.644673 0.397517
Si Si2 0.500000 0.000000 0.250000
Si Si3 0.161169 0.645111 0.238263
Si Si4 0.365373 0.691127 0.492692
Si Si5 0.137334 0.326159 0.416049
Si Si6 0.664511 0.805168 0.190041
Si Si7 0.139985 0.102367 0.342466
O O1 0.288358 0.715669 0.442306
O O2 0.221044 0.468936 0.394826
O O3 0.287476 0.718977 0.352512
O O4 0.034852 0.677126 0.404196
O O5 0.641126 0.963041 0.215567
O O6 0.167760 0.508560 0.276280
O O7 0.201820 0.789478 0.266614
O O8 0.264185 0.607243 0.193632
O O9 0.539271 0.688441 0.483813
O O10 0.321096 0.825817 0.527514
O O11 0.195773 0.178663 0.391276
O O12 0.499852 0.769419 0.174579
O O13 0.000000 0.000000 0.350666
#
# Coordination Sequence:
#
# PCOD8302430 Si02
#       7
#     8   2   8   8   8   8   8
#     4  10  21  40  65  93 124 167 216 265 319 386
#     4  12  28  44  60  92 136 176 212 276 336 380
#     4  11  22  38  64  92 121 167 219 264 317 381
#     4   9  20  40  64  92 130 165 205 257 318 388
#     4  10  21  39  65  95 127 163 216 267 317 380
#     4  12  24  41  61  88 130 169 213 269 323 385
#     4  12  22  38  60  89 126 168 209 265 316 379
#
# _framework density 21.327255999999998
#
# number of rings (size 3 to 8) (size 9 to 14) (size 15 to 20)
#    0.000    1.280    4.800    0.960    0.000    5.120 
#    0.000    1.600    3.520    0.000    0.000    0.000 
#    0.000    0.000    0.000    0.000    0.000    0.000 
#
# Total GULP energy -309705.243681 kJ/mol
# GULP energy per Si atom -12388.209747 kJ/mol
# Density = 2.127871 g / cm^3
# Si number density = 21.327256 Si / 1000 Ang^3
#
#
#
# Elastic Constant Matrix: (Units=GPa)
#
#
# Indices 1 2 3 4 5 6 
#
# 1 77.0906 23.3894 46.1427 0.0000 0.0000 3.8801
# 2 23.3894 77.0906 46.1427 0.0000 0.0000 -3.8801
# 3 46.1427 46.1427 103.1689 0.0000 0.0000 0.0000
# 4 0.0000 0.0000 0.0000 35.5287 0.0000 0.0000
# 5 0.0000 0.0000 0.0000 0.0000 35.5287 0.0000
# 6 3.8801 -3.8801 0.0000 0.0000 0.0000 28.8779
#
#
#
# Elastic Compliance Matrix: (Units=1/GPa)
#
#
# Indices 1 2 3 4 5 6 
#
# 1 0.017940 -0.001050 -0.007554 0.000000 0.000000 -0.002552
# 2 -0.001050 0.017940 -0.007554 0.000000 0.000000 0.002552
# 3 -0.007554 -0.007554 0.016450 0.000000 0.000000 0.000000
# 4 0.000000 0.000000 0.000000 0.028146 0.000000 0.000000
# 5 0.000000 0.000000 0.000000 0.000000 0.028146 0.000000
# 6 -0.002552 0.002552 0.000000 0.000000 0.000000 0.035314
#
#
# Mechanical properties :
#
#
# Convention : Reuss Voigt Hill
#
# Bulk Modulus (GPa) = 49.96537 54.29999 52.13268
# Shear Modulus (GPa) = 27.33343 29.43207 28.38275
#
# Velocity S-wave (km/s) = 3.58386 3.71889 3.65200
# Velocity P-wave (km/s) = 6.37214 6.62992 6.50231
#
# Compressibility (1/GPa) = 0.02001386
#
# Stress axis : x y z
#
# Youngs Moduli (GPa) = 55.74022 55.74020 60.78932
#
# Poissons Ratio (x) = 0.05852 0.45922
# Poissons Ratio (y) = 0.05852 0.45922
# Poissons Ratio (z) = 0.42108 0.42108
#
# Static dielectric constant tensor:
#      x y z
#    x 3.936120 0.000000 0.000000 
#    y 0.000000 3.936120 0.000000 
#    z 0.000000 0.000000 3.851730 
# 
# 
# High freq. dielectric constant tensor:
#      x y z
#    x 1.835070 0.000000 0.000000 
#    y 0.000000 1.835070 0.000000 
#    z 0.000000 0.000000 1.829150 
# 
# From -- ./inp_files/4071.got.cif
#   From: 2010.03.12/outbox.cif.g09.slc.cpg/sg82_3_cif.got.tgz:4071.got - 2010.04.08 20:02:50.
