data_PCOD8302815
_publ_section_title
;
Structure prediction by ZEFSAII (Michael W. Deem and Ramdas Pophale) SiO2 
 PCOD8302815
Probable space group: P 4/M
;
_chemical_formula_sum "Si O2"
_cell_formula_units_Z 48
_cell_length_a 15.350627
_cell_length_b 15.350627
_cell_length_c 10.391565
_cell_angle_alpha 90.000000
_cell_angle_beta 90.000000
_cell_angle_gamma 90.000000
_cell_volume 2448.686554
_symmetry_space_group_name_H-M "P 4/M"
_symmetry_group_IT_number 83
_symmetry_cell_setting 'tetragonal'
loop_
_space_group_symop_operation_xyz
x,y,z
-y,x,z
-x,-y,z
y,-x,z
-x,-y,-z
y,-x,-z
x,y,-z
-y,x,-z
loop_
_atom_site_type_symbol
_atom_site_label
_atom_site_fract_x
_atom_site_fract_y
_atom_site_fract_z
Si Si1 0.489638 0.239790 0.854870
Si Si2 0.126466 0.930057 0.276964
Si Si3 0.389903 0.591244 0.500000
Si Si4 0.660495 0.330709 0.235002
Si Si5 0.470373 0.903427 0.351424
Si Si6 0.713825 0.165383 0.359361
Si Si7 0.874770 0.068502 0.000000
O O1 0.397092 0.289679 0.858043
O O2 0.565513 0.308882 0.821826
O O3 0.484817 0.163378 0.748339
O O4 0.504618 0.202837 0.000000
O O5 0.197264 0.889837 0.371226
O O6 0.033321 0.884062 0.298577
O O7 0.169270 0.907554 0.135834
O O8 0.378000 0.488576 0.500000
O O9 0.343822 0.625708 0.373675
O O10 0.715651 0.241215 0.251959
O O11 0.496524 0.880551 0.500000
O O12 0.366404 0.899642 0.331356
O O13 0.500000 0.000000 0.314706
O O14 0.699299 0.208277 0.500000
O O15 0.966328 0.114923 0.000000
#
# Coordination Sequence:
#
# PCOD8302815 Si02
#       7
#     8   8   4   8   8   8   4
#     4  11  24  40  60  88 124 157 190 241 301 353
#     4   9  18  34  55  79 109 146 186 234 289 342
#     4  11  20  34  62  92 106 149 206 248 286 349
#     4  11  22  38  59  84 120 155 195 240 289 348
#     4   9  21  42  65  85 111 156 204 244 288 349
#     4  10  21  35  56  84 114 147 191 238 286 338
#     4   7  12  28  52  72  95 132 178 221 271 334
#
# _framework density 19.602345
#
# number of rings (size 3 to 8) (size 9 to 14) (size 15 to 20)
#    0.000    2.167    2.500    1.500    2.333    2.667 
#    7.500    3.333    3.667    0.000    0.000    0.000 
#    0.000    0.000    0.000    0.000    0.000    0.000 
#
# Total GULP energy -594789.262043 kJ/mol
# GULP energy per Si atom -12391.442959 kJ/mol
# Density = 1.955773 g / cm^3
# Si number density = 19.602345 Si / 1000 Ang^3
#
#
#
# Elastic Constant Matrix: (Units=GPa)
#
#
# Indices 1 2 3 4 5 6 
#
# 1 100.1342 50.4401 26.2607 0.0000 0.0000 -9.9302
# 2 50.4401 100.1342 26.2607 0.0000 0.0000 9.9302
# 3 26.2607 26.2607 91.8783 0.0000 0.0000 0.0000
# 4 0.0000 0.0000 0.0000 15.1991 0.0000 0.0000
# 5 0.0000 0.0000 0.0000 0.0000 15.1991 0.0000
# 6 -9.9302 9.9302 0.0000 0.0000 0.0000 29.7860
#
#
#
# Elastic Compliance Matrix: (Units=1/GPa)
#
#
# Indices 1 2 3 4 5 6 
#
# 1 0.015297 -0.007920 -0.002108 0.000000 0.000000 0.007740
# 2 -0.007920 0.015297 -0.002108 0.000000 0.000000 -0.007740
# 3 -0.002108 -0.002108 0.012089 0.000000 0.000000 0.000000
# 4 0.000000 0.000000 0.000000 0.065793 0.000000 0.000000
# 5 0.000000 0.000000 0.000000 0.000000 0.065793 0.000000
# 6 0.007740 -0.007740 0.000000 0.000000 0.000000 0.038734
#
#
# Mechanical properties :
#
#
# Convention : Reuss Voigt Hill
#
# Bulk Modulus (GPa) = 54.32144 55.34107 54.83125
# Shear Modulus (GPa) = 20.54131 24.64921 22.59526
#
# Velocity S-wave (km/s) = 3.24064 3.54992 3.39880
# Velocity P-wave (km/s) = 6.46330 6.71533 6.59052
#
# Compressibility (1/GPa) = 0.01840894
#
# Stress axis : x y z
#
# Youngs Moduli (GPa) = 65.37424 65.37424 82.71841
#
# Poissons Ratio (x) = 0.51776 0.17440
# Poissons Ratio (y) = 0.51776 0.17440
# Poissons Ratio (z) = 0.13784 0.13784
#
# Static dielectric constant tensor:
#      x y z
#    x 3.360160 0.000000 0.000000 
#    y 0.000000 3.360160 0.000000 
#    z 0.000000 0.000000 3.790440 
# 
# 
# High freq. dielectric constant tensor:
#      x y z
#    x 1.749330 0.000000 0.000000 
#    y 0.000000 1.749330 0.000000 
#    z 0.000000 0.000000 1.772770 
# 
# From -- ./inp_files/1882.got.cif
#   From: 2010.03.12/outbox.cif.g09.slc.cpg/sg83_1_cif.got.tgz:1882.got - 2010.04.08 20:05:18.
