data_PCOD8302407
_publ_section_title
;
Structure prediction by ZEFSAII (Michael W. Deem and Ramdas Pophale) SiO2 
 PCOD8302407
Probable space group: I -4 
;
_chemical_formula_sum "Si O2"
_cell_formula_units_Z 42
_cell_length_a 8.393556
_cell_length_b 8.393556
_cell_length_c 28.431365
_cell_angle_alpha 90.000000
_cell_angle_beta 90.000000
_cell_angle_gamma 90.000000
_cell_volume 2003.040338
_symmetry_space_group_name_H-M "I -4 "
_symmetry_group_IT_number 82
_symmetry_cell_setting 'tetragonal'
loop_
_space_group_symop_operation_xyz
x,y,z
y,-x,-z
-x,-y,z
-y,x,-z
1/2+x,1/2+y,1/2+z
1/2+y,1/2-x,1/2-z
1/2-x,1/2-y,1/2+z
1/2-y,1/2+x,1/2-z
loop_
_atom_site_type_symbol
_atom_site_label
_atom_site_fract_x
_atom_site_fract_y
_atom_site_fract_z
Si Si1 0.735653 0.293832 0.146597
Si Si2 0.500000 0.000000 0.894705
Si Si3 0.202313 0.281940 0.038252
Si Si4 0.500000 0.500000 0.794035
Si Si5 0.000000 0.000000 0.000000
Si Si6 0.085549 0.270948 0.766292
Si Si7 0.189524 0.040109 0.444390
O O1 0.623491 0.414821 0.172958
O O2 0.750578 0.136907 0.179310
O O3 0.651980 0.251601 0.097674
O O4 0.908370 0.372445 0.137874
O O5 0.588170 0.127129 0.927385
O O6 0.369601 0.220313 0.060252
O O7 0.082775 0.133618 0.032424
O O8 0.249540 0.367403 0.989942
O O9 0.607660 0.388359 0.761126
O O10 0.185892 0.399454 0.736528
O O11 0.000000 0.000000 0.445887
#
# Coordination Sequence:
#
# PCOD8302407 Si02
#       7
#     8   4   8   4   2   8   8
#     4  11  22  40  67 103 129 170 235 290 339 422
#     4  12  24  40  65 100 148 174 231 290 344 430
#     4  12  23  43  64  96 140 188 231 287 353 410
#     4  10  20  42  67  93 130 177 230 270 351 448
#     4  12  28  40  58  96 144 180 232 292 362 388
#     4   9  21  42  67  94 131 171 221 286 355 418
#     4  12  20  42  76  97 123 187 249 277 332 431
#
# _framework density 20.968122999999999
#
# number of rings (size 3 to 8) (size 9 to 14) (size 15 to 20)
#    0.000    0.952    4.762    2.286    0.000    3.048 
#    0.000   28.571    0.000    0.000    0.000    0.000 
#    0.000    0.000    0.000    0.000    0.000    0.000 
#
# Total GULP energy -260352.199414 kJ/mol
# GULP energy per Si atom -12397.723782 kJ/mol
# Density = 2.092040 g / cm^3
# Si number density = 20.968123 Si / 1000 Ang^3
#
#
#
# Elastic Constant Matrix: (Units=GPa)
#
#
# Indices 1 2 3 4 5 6 
#
# 1 89.6284 16.2527 42.1446 0.0000 0.0000 3.1205
# 2 16.2527 89.6284 42.1446 0.0000 0.0000 -3.1205
# 3 42.1446 42.1446 124.0444 0.0000 0.0000 0.0000
# 4 0.0000 0.0000 0.0000 32.6466 0.0000 0.0000
# 5 0.0000 0.0000 0.0000 0.0000 32.6466 0.0000
# 6 3.1205 -3.1205 0.0000 0.0000 0.0000 30.5118
#
#
#
# Elastic Compliance Matrix: (Units=1/GPa)
#
#
# Indices 1 2 3 4 5 6 
#
# 1 0.013347 -0.000401 -0.004398 0.000000 0.000000 -0.001406
# 2 -0.000401 0.013347 -0.004398 0.000000 0.000000 0.001406
# 3 -0.004398 -0.004398 0.011050 0.000000 0.000000 0.000000
# 4 0.000000 0.000000 0.000000 0.030631 0.000000 0.000000
# 5 0.000000 0.000000 0.000000 0.000000 0.030631 0.000000
# 6 -0.001406 0.001406 0.000000 0.000000 0.000000 0.033062
#
#
# Mechanical properties :
#
#
# Convention : Reuss Voigt Hill
#
# Bulk Modulus (GPa) = 51.68319 56.04277 53.86298
# Shear Modulus (GPa) = 31.86458 32.67827 32.27143
#
# Velocity S-wave (km/s) = 3.90252 3.95203 3.92736
# Velocity P-wave (km/s) = 6.70881 6.90003 6.80509
#
# Compressibility (1/GPa) = 0.01934865
#
# Stress axis : x y z
#
# Youngs Moduli (GPa) = 74.92280 74.92278 90.49424
#
# Poissons Ratio (x) = 0.03005 0.39804
# Poissons Ratio (y) = 0.03005 0.39804
# Poissons Ratio (z) = 0.32955 0.32955
#
# Static dielectric constant tensor:
#      x y z
#    x 4.418980 0.000000 0.000000 
#    y 0.000000 4.418980 0.000000 
#    z 0.000000 0.000000 4.078990 
# 
# 
# High freq. dielectric constant tensor:
#      x y z
#    x 1.823740 0.000000 0.000000 
#    y 0.000000 1.823740 0.000000 
#    z 0.000000 0.000000 1.820790 
# 
# From -- ./inp_files/3742.got.cif
#   From: 2010.03.12/outbox.cif.g09.slc.cpg/sg82_2_cif.got.tgz:3742.got - 2010.04.08 20:02:50.
