data_PCOD8302531
_publ_section_title
;
Structure prediction by ZEFSAII (Michael W. Deem and Ramdas Pophale) SiO2 
 PCOD8302531
Probable space group: I -4 
;
_chemical_formula_sum "Si O2"
_cell_formula_units_Z 52
_cell_length_a 17.726719
_cell_length_b 17.726719
_cell_length_c 9.007735
_cell_angle_alpha 90.000000
_cell_angle_beta 90.000000
_cell_angle_gamma 90.000000
_cell_volume 2830.559718
_symmetry_space_group_name_H-M "I -4 "
_symmetry_group_IT_number 82
_symmetry_cell_setting 'tetragonal'
loop_
_space_group_symop_operation_xyz
x,y,z
y,-x,-z
-x,-y,z
-y,x,-z
1/2+x,1/2+y,1/2+z
1/2+y,1/2-x,1/2-z
1/2-x,1/2-y,1/2+z
1/2-y,1/2+x,1/2-z
loop_
_atom_site_type_symbol
_atom_site_label
_atom_site_fract_x
_atom_site_fract_y
_atom_site_fract_z
Si Si1 0.000000 0.500000 0.250000
Si Si2 0.500000 0.500000 0.000000
Si Si3 0.521324 0.620750 0.487813
Si Si4 0.865348 0.576638 0.431558
Si Si5 0.053832 0.278451 0.518327
Si Si6 0.223511 0.036267 0.761319
Si Si7 0.122869 0.490601 0.734414
Si Si8 0.870579 0.082406 0.324011
O O1 0.938902 0.541067 0.353455
O O2 0.431308 0.525953 0.896382
O O3 0.582426 0.559507 0.540219
O O4 0.516729 0.684226 0.614913
O O5 0.548259 0.656335 0.332986
O O6 0.881562 0.661387 0.483280
O O7 0.793086 0.582659 0.327595
O O8 0.842103 0.525932 0.573164
O O9 0.092822 0.202622 0.575889
O O10 0.013306 0.258810 0.366757
O O11 0.996080 0.311939 0.641174
O O12 0.164887 0.094717 0.692775
O O13 0.077581 0.568428 0.719718
#
# Coordination Sequence:
#
# PCOD8302531 Si02
#       8
#     2   2   8   8   8   8   8   8
#     4  12  20  36  70  88 108 144 214 256 288 356
#     4  12  20  36  70  88 108 144 214 256 288 356
#     4   9  19  36  61  89 119 151 199 248 294 349
#     4  11  22  38  60  89 117 156 198 247 300 357
#     4  11  22  38  58  88 121 155 198 246 301 353
#     4  11  22  38  58  88 121 155 198 246 301 353
#     4   9  19  36  61  89 119 151 199 248 294 349
#     4  11  22  38  60  89 117 156 198 247 300 357
#
# _framework density 18.370925
#
# number of rings (size 3 to 8) (size 9 to 14) (size 15 to 20)
#    0.000    1.538    3.077    4.615    0.000    0.000 
#    0.000    6.154    0.000    0.000    0.000    0.000 
#    0.000    0.000    0.000    0.000    0.000    0.000 
#
# Total GULP energy -322433.409034 kJ/mol
# GULP energy per Si atom -12401.284963 kJ/mol
# Density = 1.832911 g / cm^3
# Si number density = 18.370925 Si / 1000 Ang^3
#
#
#
# Elastic Constant Matrix: (Units=GPa)
#
#
# Indices 1 2 3 4 5 6 
#
# 1 63.2037 4.6815 18.7096 0.0000 0.0000 -2.4750
# 2 4.6815 63.2037 18.7096 0.0000 0.0000 2.4750
# 3 18.7096 18.7096 84.3477 0.0000 0.0000 0.0000
# 4 0.0000 0.0000 0.0000 39.4103 0.0000 0.0000
# 5 0.0000 0.0000 0.0000 0.0000 39.4103 0.0000
# 6 -2.4750 2.4750 0.0000 0.0000 0.0000 18.0970
#
#
#
# Elastic Compliance Matrix: (Units=1/GPa)
#
#
# Indices 1 2 3 4 5 6 
#
# 1 0.017035 -0.000252 -0.003723 0.000000 0.000000 0.002364
# 2 -0.000252 0.017035 -0.003723 0.000000 0.000000 -0.002364
# 3 -0.003723 -0.003723 0.013507 0.000000 0.000000 0.000000
# 4 0.000000 0.000000 0.000000 0.025374 0.000000 0.000000
# 5 0.000000 0.000000 0.000000 0.000000 0.025374 0.000000
# 6 0.002364 -0.002364 0.000000 0.000000 0.000000 0.055904
#
#
# Mechanical properties :
#
#
# Convention : Reuss Voigt Hill
#
# Bulk Modulus (GPa) = 31.07328 32.77294 31.92311
# Shear Modulus (GPa) = 27.72343 30.62713 29.17528
#
# Velocity S-wave (km/s) = 3.88892 4.08751 3.98945
# Velocity P-wave (km/s) = 6.09229 6.33682 6.21576
#
# Compressibility (1/GPa) = 0.03218199
#
# Stress axis : x y z
#
# Youngs Moduli (GPa) = 58.70220 58.70220 74.03462
#
# Poissons Ratio (x) = 0.01481 0.27561
# Poissons Ratio (y) = 0.01481 0.27561
# Poissons Ratio (z) = 0.21853 0.21853
#
# Static dielectric constant tensor:
#      x y z
#    x 3.437060 0.000000 0.000000 
#    y 0.000000 3.437060 0.000000 
#    z 0.000000 0.000000 3.714260 
# 
# 
# High freq. dielectric constant tensor:
#      x y z
#    x 1.702400 0.000000 0.000000 
#    y 0.000000 1.702400 0.000000 
#    z 0.000000 0.000000 1.735410 
# 
# From -- ./inp_files/1126.got.cif
#   From: 2010.03.12/outbox.cif.g09.slc.cpg/sg82_1_cif.got.tgz:1126.got - 2010.04.08 20:02:50.
