data_PCOD8302573
_publ_section_title
;
Structure prediction by ZEFSAII (Michael W. Deem and Ramdas Pophale) SiO2 
 PCOD8302573
Probable space group: I -4 
;
_chemical_formula_sum "Si O2"
_cell_formula_units_Z 40
_cell_length_a 13.869229
_cell_length_b 13.869229
_cell_length_c 9.329565
_cell_angle_alpha 90.000000
_cell_angle_beta 90.000000
_cell_angle_gamma 90.000000
_cell_volume 1794.593262
_symmetry_space_group_name_H-M "I -4 "
_symmetry_group_IT_number 82
_symmetry_cell_setting 'tetragonal'
loop_
_space_group_symop_operation_xyz
x,y,z
y,-x,-z
-x,-y,z
-y,x,-z
1/2+x,1/2+y,1/2+z
1/2+y,1/2-x,1/2-z
1/2-x,1/2-y,1/2+z
1/2-y,1/2+x,1/2-z
loop_
_atom_site_type_symbol
_atom_site_label
_atom_site_fract_x
_atom_site_fract_y
_atom_site_fract_z
Si Si1 0.239441 0.454434 0.275603
Si Si2 0.635335 0.449767 0.056964
Si Si3 0.292229 0.199805 0.005565
Si Si4 0.134336 0.336250 0.063334
Si Si5 0.115073 0.400503 0.753160
O O1 0.340390 0.496723 0.209973
O O2 0.247906 0.353001 0.361850
O O3 0.169685 0.434883 0.139249
O O4 0.188911 0.529028 0.381135
O O5 0.537029 0.384428 0.059680
O O6 0.726369 0.381190 0.022049
O O7 0.208881 0.251406 0.096044
O O8 0.319249 0.116883 0.116490
O O9 0.140689 0.339416 0.892254
O O10 0.125332 0.509530 0.802284
#
# Coordination Sequence:
#
# PCOD8302573 Si02
#       5
#     8   8   8   8   8
#     4  12  25  47  74 112 145 194 261 322 381 473
#     4  11  25  47  76 109 150 206 259 310 392 475
#     4  12  25  48  73 105 153 200 252 319 389 469
#     4  12  26  44  73 106 144 195 249 317 392 459
#     4  11  25  43  66 101 141 185 235 306 386 450
#
# _framework density 22.289173999999999
#
# number of rings (size 3 to 8) (size 9 to 14) (size 15 to 20)
#    0.000    0.400    6.000    2.400    0.000    0.400 
#    0.000    0.000    0.000    0.000    0.000    0.000 
#    0.000    0.000    0.000    0.000    0.000    0.000 
#
# Total GULP energy -247816.805487 kJ/mol
# GULP energy per Si atom -12390.840274 kJ/mol
# Density = 2.223844 g / cm^3
# Si number density = 22.289174 Si / 1000 Ang^3
#
#
#
# Elastic Constant Matrix: (Units=GPa)
#
#
# Indices 1 2 3 4 5 6 
#
# 1 66.6060 60.5914 40.3159 0.0000 0.0000 -5.1496
# 2 60.5914 66.6060 40.3159 0.0000 0.0000 5.1496
# 3 40.3159 40.3159 111.7459 0.0000 0.0000 0.0000
# 4 0.0000 0.0000 0.0000 42.6536 0.0000 0.0000
# 5 0.0000 0.0000 0.0000 0.0000 42.6536 0.0000
# 6 -5.1496 5.1496 0.0000 0.0000 0.0000 42.1700
#
#
#
# Elastic Compliance Matrix: (Units=1/GPa)
#
#
# Indices 1 2 3 4 5 6 
#
# 1 0.110208 -0.100015 -0.003677 0.000000 0.000000 0.025671
# 2 -0.100015 0.110208 -0.003677 0.000000 0.000000 -0.025671
# 3 -0.003677 -0.003677 0.011602 0.000000 0.000000 0.000000
# 4 0.000000 0.000000 0.000000 0.023445 0.000000 0.000000
# 5 0.000000 0.000000 0.000000 0.000000 0.023445 0.000000
# 6 0.025671 -0.025671 0.000000 0.000000 0.000000 0.029983
#
#
# Mechanical properties :
#
#
# Convention : Reuss Voigt Hill
#
# Bulk Modulus (GPa) = 57.87519 58.60046 58.23782
# Shear Modulus (GPa) = 9.44483 32.41107 20.92795
#
# Velocity S-wave (km/s) = 2.06073 3.81743 3.06752
# Velocity P-wave (km/s) = 5.62886 6.76597 6.22344
#
# Compressibility (1/GPa) = 0.01727856
#
# Stress axis : x y z
#
# Youngs Moduli (GPa) = 9.07375 9.07375 86.18921
#
# Poissons Ratio (x) = 0.90751 0.31696
# Poissons Ratio (y) = 0.90751 0.31696
# Poissons Ratio (z) = 0.03337 0.03337
#
# Static dielectric constant tensor:
#      x y z
#    x 4.091790 0.000000 0.000000 
#    y 0.000000 4.091790 0.000000 
#    z 0.000000 0.000000 4.386080 
# 
# 
# High freq. dielectric constant tensor:
#      x y z
#    x 1.879980 0.000000 0.000000 
#    y 0.000000 1.879980 0.000000 
#    z 0.000000 0.000000 1.877560 
# 
# From -- ./inp_files/934.got.cif
#   From: 2010.03.12/outbox.cif.g09.slc.cpg/sg82_1_cif.got.tgz:934.got - 2010.04.08 20:02:50.
