data_PCOD8302331
_publ_section_title
;
Structure prediction by ZEFSAII (Michael W. Deem and Ramdas Pophale) SiO2 
 PCOD8302331
Probable space group: P -4
;
_chemical_formula_sum "Si O2"
_cell_formula_units_Z 16
_cell_length_a 8.370044
_cell_length_b 8.370044
_cell_length_c 8.226808
_cell_angle_alpha 90.000000
_cell_angle_beta 90.000000
_cell_angle_gamma 90.000000
_cell_volume 576.350725
_symmetry_space_group_name_H-M "P -4"
_symmetry_group_IT_number 81
_symmetry_cell_setting 'tetragonal'
loop_
_space_group_symop_operation_xyz
x,y,z
y,-x,-z
-x,-y,z
-y,x,-z
loop_
_atom_site_type_symbol
_atom_site_label
_atom_site_fract_x
_atom_site_fract_y
_atom_site_fract_z
Si Si1 0.243035 0.563239 0.014284
Si Si2 0.000000 0.000000 0.000000
Si Si3 0.719363 0.982067 0.743365
Si Si4 0.798567 0.699239 0.536826
Si Si5 0.500000 0.500000 0.500000
Si Si6 0.500000 0.000000 0.241861
O O1 0.128307 0.578978 0.174357
O O2 0.382571 0.692782 0.999649
O O3 0.132814 0.591825 0.860396
O O4 0.154745 0.988970 0.886411
O O5 0.778242 0.883613 0.585192
O O6 0.673606 0.150972 0.654151
O O7 0.641509 0.595099 0.592798
O O8 0.940405 0.642446 0.649061
#
# Coordination Sequence:
#
# PCOD8302331 Si02
#       6
#     4   1   4   4   1   2
#     4  11  27  54  86 124 171 226 288 355 436 527
#     4  12  28  54  88 124 172 230 284 352 452 526
#     4  12  27  54  86 126 173 224 289 358 434 523
#     4  12  28  54  84 126 173 225 289 361 435 512
#     4  12  32  52  84 118 168 220 280 358 436 504
#     4  12  26  52  80 130 168 228 286 350 442 516
#
# _framework density 27.760876
#
# number of rings (size 3 to 8) (size 9 to 14) (size 15 to 20)
#    0.000    0.250    2.500    4.500    3.500    5.000 
#    4.500    0.000    0.000    0.000    0.000    0.000 
#    0.000    0.000    0.000    0.000    0.000    0.000 
#
# Total GULP energy -198213.020140 kJ/mol
# GULP energy per Si atom -12388.313759 kJ/mol
# Density = 2.769769 g / cm^3
# Si number density = 27.760876 Si / 1000 Ang^3
#
#
#
# Elastic Constant Matrix: (Units=GPa)
#
#
# Indices 1 2 3 4 5 6 
#
# 1 117.0565 47.0160 61.0267 0.0000 0.0000 0.4083
# 2 47.0160 117.0565 61.0267 0.0000 0.0000 -0.4083
# 3 61.0267 61.0267 163.0888 0.0000 0.0000 0.0000
# 4 0.0000 0.0000 0.0000 62.4155 0.0000 0.0000
# 5 0.0000 0.0000 0.0000 0.0000 62.4155 0.0000
# 6 0.4083 -0.4083 0.0000 0.0000 0.0000 36.4752
#
#
#
# Elastic Compliance Matrix: (Units=1/GPa)
#
#
# Indices 1 2 3 4 5 6 
#
# 1 0.011363 -0.002917 -0.003160 0.000000 0.000000 -0.000160
# 2 -0.002917 0.011363 -0.003160 0.000000 0.000000 0.000160
# 3 -0.003160 -0.003160 0.008497 0.000000 0.000000 0.000000
# 4 0.000000 0.000000 0.000000 0.016022 0.000000 0.000000
# 5 0.000000 0.000000 0.000000 0.000000 0.016022 0.000000
# 6 -0.000160 0.000160 0.000000 0.000000 0.000000 0.027419
#
#
# Mechanical properties :
#
#
# Convention : Reuss Voigt Hill
#
# Bulk Modulus (GPa) = 78.44973 81.70453 80.07713
# Shear Modulus (GPa) = 44.08828 47.47005 45.77917
#
# Velocity S-wave (km/s) = 3.98948 4.13966 4.06526
# Velocity P-wave (km/s) = 7.03858 7.23494 7.13744
#
# Compressibility (1/GPa) = 0.01274702
#
# Stress axis : x y z
#
# Youngs Moduli (GPa) = 88.00802 88.00802 117.69104
#
# Poissons Ratio (x) = 0.25669 0.37195
# Poissons Ratio (y) = 0.25669 0.37195
# Poissons Ratio (z) = 0.27814 0.27814
#
# Static dielectric constant tensor:
#      x y z
#    x 5.204310 0.000000 0.000000 
#    y 0.000000 5.204310 0.000000 
#    z 0.000000 0.000000 5.115000 
# 
# 
# High freq. dielectric constant tensor:
#      x y z
#    x 2.135910 0.000000 0.000000 
#    y 0.000000 2.135910 0.000000 
#    z 0.000000 0.000000 2.125610 
# 
# From -- ./inp_files/662.got.cif
#   From: 2010.03.12/outbox.cif.g09.slc.cpg/sg81_cif.got.tgz:662.got - 2010.04.08 20:01:38.
