data_PCOD8302985
_publ_section_title
;
Structure prediction by ZEFSAII (Michael W. Deem and Ramdas Pophale) SiO2 
 PCOD8302985
Probable space group: P 4/M
;
_chemical_formula_sum "Si O2"
_cell_formula_units_Z 48
_cell_length_a 8.343853
_cell_length_b 8.343853
_cell_length_c 32.212907
_cell_angle_alpha 90.000000
_cell_angle_beta 90.000000
_cell_angle_gamma 90.000000
_cell_volume 2242.658813
_symmetry_space_group_name_H-M "P 4/M"
_symmetry_group_IT_number 83
_symmetry_cell_setting 'tetragonal'
loop_
_space_group_symop_operation_xyz
x,y,z
-y,x,z
-x,-y,z
y,-x,z
-x,-y,-z
y,-x,-z
x,y,-z
-y,x,-z
loop_
_atom_site_type_symbol
_atom_site_label
_atom_site_fract_x
_atom_site_fract_y
_atom_site_fract_z
Si Si1 0.570362 0.246444 0.613017
Si Si2 0.500000 0.000000 0.230122
Si Si3 0.598521 0.748758 0.910163
Si Si4 0.743875 0.402022 0.000000
Si Si5 0.077886 0.745656 0.164337
Si Si6 0.247456 0.427944 0.705893
Si Si7 0.069649 0.253472 0.453466
O O1 0.693415 0.391421 0.606124
O O2 0.592138 0.176184 0.659493
O O3 0.607763 0.108067 0.579683
O O4 0.377611 0.104652 0.202237
O O5 0.607372 0.113753 0.259623
O O6 0.412029 0.703950 0.904317
O O7 0.632070 0.830836 0.955839
O O8 0.649070 0.885135 0.877759
O O9 0.703345 0.586873 0.000000
O O10 0.894189 0.801352 0.166493
O O11 0.390749 0.305144 0.712418
O O12 0.090411 0.322944 0.500000
O O13 0.890896 0.193247 0.446387
#
# Coordination Sequence:
#
# PCOD8302985 Si02
#       7
#     8   4   8   4   8   8   8
#     4   9  19  35  54  79 110 138 169 215 267 315
#     4  12  22  38  62  81 101 142 188 222 268 334
#     4   9  17  33  59  87 113 146 186 223 264 320
#     4   7  12  26  52  85 114 139 178 228 264 303
#     4  11  24  39  54  79 116 148 179 227 279 323
#     4   9  20  38  58  82 109 136 173 224 274 320
#     4   9  19  35  53  76 108 144 181 218 255 304
#
# _framework density 21.403168999999998
#
# number of rings (size 3 to 8) (size 9 to 14) (size 15 to 20)
#    0.000    2.583    0.000    4.500    0.000    4.000 
#    0.000    5.000    0.000    6.500    0.000    0.000 
#    0.000    0.000    0.000    0.000    0.000    0.000 
#
# Total GULP energy -594923.341860 kJ/mol
# GULP energy per Si atom -12394.236289 kJ/mol
# Density = 2.135445 g / cm^3
# Si number density = 21.403169 Si / 1000 Ang^3
#
#
#
# Elastic Constant Matrix: (Units=GPa)
#
#
# Indices 1 2 3 4 5 6 
#
# 1 59.0009 22.1437 52.7498 0.0000 0.0000 -5.5734
# 2 22.1437 59.0009 52.7498 0.0000 0.0000 5.5734
# 3 52.7498 52.7498 188.3126 0.0000 0.0000 0.0000
# 4 0.0000 0.0000 0.0000 31.1829 0.0000 0.0000
# 5 0.0000 0.0000 0.0000 0.0000 31.1829 0.0000
# 6 -5.5734 5.5734 0.0000 0.0000 0.0000 33.0551
#
#
#
# Elastic Compliance Matrix: (Units=1/GPa)
#
#
# Indices 1 2 3 4 5 6 
#
# 1 0.023986 -0.004603 -0.005429 0.000000 0.000000 0.004820
# 2 -0.004603 0.023986 -0.005429 0.000000 0.000000 -0.004820
# 3 -0.005429 -0.005429 0.008352 0.000000 0.000000 0.000000
# 4 0.000000 0.000000 0.000000 0.032069 0.000000 0.000000
# 5 0.000000 0.000000 0.000000 0.000000 0.032069 0.000000
# 6 0.004820 -0.004820 0.000000 0.000000 0.000000 0.031878
#
#
# Mechanical properties :
#
#
# Convention : Reuss Voigt Hill
#
# Bulk Modulus (GPa) = 39.37046 62.40013 50.88529
# Shear Modulus (GPa) = 26.07812 30.99556 28.53684
#
# Velocity S-wave (km/s) = 3.49438 3.80962 3.65540
# Velocity P-wave (km/s) = 5.89199 6.96914 6.45308
#
# Compressibility (1/GPa) = 0.02539976
#
# Stress axis : x y z
#
# Youngs Moduli (GPa) = 41.69066 41.69066 119.73018
#
# Poissons Ratio (x) = 0.19192 0.65007
# Poissons Ratio (y) = 0.19192 0.65007
# Poissons Ratio (z) = 0.22636 0.22636
#
# Static dielectric constant tensor:
#      x y z
#    x 3.590410 0.000000 0.000000 
#    y 0.000000 3.590410 0.000000 
#    z 0.000000 0.000000 4.143020 
# 
# 
# High freq. dielectric constant tensor:
#      x y z
#    x 1.822360 0.000000 0.000000 
#    y 0.000000 1.822360 0.000000 
#    z 0.000000 0.000000 1.856510 
# 
# From -- ./inp_files/3456.got.cif
#   From: 2010.03.12/outbox.cif.g09.slc.cpg/sg83_2_cif.got.tgz:3456.got - 2010.04.08 20:05:18.
