data_PCOD8302799
_publ_section_title
;
Structure prediction by ZEFSAII (Michael W. Deem and Ramdas Pophale) SiO2 
 PCOD8302799
Probable space group: P 4/M
;
_chemical_formula_sum "Si O2"
_cell_formula_units_Z 36
_cell_length_a 14.576555
_cell_length_b 14.576555
_cell_length_c 7.928893
_cell_angle_alpha 90.000000
_cell_angle_beta 90.000000
_cell_angle_gamma 90.000000
_cell_volume 1684.699118
_symmetry_space_group_name_H-M "P 4/M"
_symmetry_group_IT_number 83
_symmetry_cell_setting 'tetragonal'
loop_
_space_group_symop_operation_xyz
x,y,z
-y,x,z
-x,-y,z
y,-x,z
-x,-y,-z
y,-x,-z
x,y,-z
-y,x,-z
loop_
_atom_site_type_symbol
_atom_site_label
_atom_site_fract_x
_atom_site_fract_y
_atom_site_fract_z
Si Si1 0.879259 0.245484 0.812137
Si Si2 0.799281 0.677698 0.700135
Si Si3 0.394375 0.997640 0.698933
Si Si4 0.047419 0.858953 0.500000
Si Si5 0.367809 0.441872 0.299755
O O1 0.771825 0.234956 0.781591
O O2 0.939135 0.194064 0.672985
O O3 0.915353 0.349927 0.795146
O O4 0.901496 0.208565 0.000000
O O5 0.795664 0.689399 0.500000
O O6 0.901273 0.650453 0.759621
O O7 0.728306 0.599815 0.764868
O O8 0.380372 0.010373 0.500000
O O9 0.500000 0.000000 0.749484
O O10 0.942151 0.883519 0.500000
O O11 0.453642 0.380034 0.234162
O O12 0.368602 0.441438 0.500000
#
# Coordination Sequence:
#
# PCOD8302799 Si02
#       5
#     8   8   8   4   8
#     4  12  25  42  66  94 130 173 217 267 327 399
#     4  10  20  36  63  92 128 172 214 266 327 390
#     4  10  22  40  65  98 133 173 221 275 335 394
#     4  11  24  44  69  94 126 163 211 274 330 386
#     4   8  15  28  52  89 126 161 209 261 313 383
#
# _framework density 21.368801999999999
#
# number of rings (size 3 to 8) (size 9 to 14) (size 15 to 20)
#    0.000    1.889    2.222    2.000    3.111    4.000 
#    0.000    1.111    0.000    0.000    0.000    1.556 
#    0.000    0.000    0.000    0.000    0.000    0.000 
#
# Total GULP energy -446267.945926 kJ/mol
# GULP energy per Si atom -12396.331831 kJ/mol
# Density = 2.132017 g / cm^3
# Si number density = 21.368802 Si / 1000 Ang^3
#
#
#
# Elastic Constant Matrix: (Units=GPa)
#
#
# Indices 1 2 3 4 5 6 
#
# 1 130.6560 61.7489 29.8848 0.0000 0.0000 4.4736
# 2 61.7489 130.6560 29.8848 0.0000 0.0000 -4.4736
# 3 29.8848 29.8848 87.9860 0.0000 0.0000 0.0000
# 4 0.0000 0.0000 0.0000 -1.4537 0.0000 0.0000
# 5 0.0000 0.0000 0.0000 0.0000 -1.4537 0.0000
# 6 4.4736 -4.4736 0.0000 0.0000 0.0000 48.9834
#
#
#
# Elastic Compliance Matrix: (Units=1/GPa)
#
#
# Indices 1 2 3 4 5 6 
#
# 1 0.010248 -0.004438 -0.001974 0.000000 0.000000 -0.001341
# 2 -0.004438 0.010248 -0.001974 0.000000 0.000000 0.001341
# 3 -0.001974 -0.001974 0.012706 0.000000 0.000000 0.000000
# 4 0.000000 0.000000 0.000000 -0.687918 0.000000 0.000000
# 5 0.000000 0.000000 0.000000 0.000000 -0.687918 0.000000
# 6 -0.001341 0.001341 0.000000 0.000000 0.000000 0.020660
#
#
# Mechanical properties :
#
#
# Convention : Reuss Voigt Hill
#
# Bulk Modulus (GPa) = 60.85385 65.81499 63.33442
# Shear Modulus (GPa) = -3.84697 24.40051 10.27677
#
# Velocity S-wave (km/s) = -1.34320 3.38283 2.19538
# Velocity P-wave (km/s) = 5.11216 6.79150 6.01077
#
# Compressibility (1/GPa) = 0.01643281
#
# Stress axis : x y z
#
# Youngs Moduli (GPa) = 97.57577 97.57577 78.70245
#
# Poissons Ratio (x) = 0.43304 0.15532
# Poissons Ratio (y) = 0.43304 0.15532
# Poissons Ratio (z) = 0.19257 0.19257
#
# Static dielectric constant tensor:
#      x y z
#    x 4.094340 0.000000 0.000000 
#    y 0.000000 4.094340 0.000000 
#    z 0.000000 0.000000 3.553460 
# 
# 
# High freq. dielectric constant tensor:
#      x y z
#    x 1.845250 0.000000 0.000000 
#    y 0.000000 1.845250 0.000000 
#    z 0.000000 0.000000 1.809200 
# 
# From -- ./inp_files/531.got.cif
#   From: 2010.03.12/outbox.cif.g09.slc.cpg/sg83_1_cif.got.tgz:531.got - 2010.04.08 20:05:18.
