data_PCOD8302332
_publ_section_title
;
Structure prediction by ZEFSAII (Michael W. Deem and Ramdas Pophale) SiO2 
 PCOD8302332
Probable space group: P -4
;
_chemical_formula_sum "Si O2"
_cell_formula_units_Z 12
_cell_length_a 8.478697
_cell_length_b 8.478697
_cell_length_c 6.704691
_cell_angle_alpha 90.000000
_cell_angle_beta 90.000000
_cell_angle_gamma 90.000000
_cell_volume 481.988857
_symmetry_space_group_name_H-M "P -4"
_symmetry_group_IT_number 81
_symmetry_cell_setting 'tetragonal'
loop_
_space_group_symop_operation_xyz
x,y,z
y,-x,-z
-x,-y,z
-y,x,-z
loop_
_atom_site_type_symbol
_atom_site_label
_atom_site_fract_x
_atom_site_fract_y
_atom_site_fract_z
Si Si1 0.411024 0.146788 0.077466
Si Si2 0.639569 0.623679 0.714702
Si Si3 0.204653 0.136751 0.434494
O O1 0.530350 0.199638 0.251621
O O2 0.247693 0.112015 0.199004
O O3 0.500000 0.000000 0.974384
O O4 0.395381 0.281373 0.915694
O O5 0.500000 0.500000 0.667157
O O6 0.668114 0.743243 0.531863
O O7 0.028575 0.209052 0.445745
#
# Coordination Sequence:
#
# PCOD8302332 Si02
#       3
#     4   4   4
#     4  12  26  47  72 108 145 191 244 299 370 432
#     4  12  27  47  72 109 147 191 246 301 362 436
#     4  11  28  49  75 108 146 195 245 304 372 436
#
# _framework density 24.896837999999999
#
# number of rings (size 3 to 8) (size 9 to 14) (size 15 to 20)
#    0.000    0.333    6.667    0.000    9.333    2.667 
#    0.000    3.333    0.000    0.000    0.000    0.000 
#    0.000    0.000    0.000    0.000    0.000    0.000 
#
# Total GULP energy -148726.683057 kJ/mol
# GULP energy per Si atom -12393.890255 kJ/mol
# Density = 2.484017 g / cm^3
# Si number density = 24.896838 Si / 1000 Ang^3
#
#
#
# Elastic Constant Matrix: (Units=GPa)
#
#
# Indices 1 2 3 4 5 6 
#
# 1 123.7103 48.1472 30.0844 0.0000 0.0000 -9.1002
# 2 48.1472 123.7103 30.0844 0.0000 0.0000 9.1002
# 3 30.0844 30.0844 95.8738 0.0000 0.0000 0.0000
# 4 0.0000 0.0000 0.0000 32.2718 0.0000 0.0000
# 5 0.0000 0.0000 0.0000 0.0000 32.2718 0.0000
# 6 -9.1002 9.1002 0.0000 0.0000 0.0000 45.5838
#
#
#
# Elastic Compliance Matrix: (Units=1/GPa)
#
#
# Indices 1 2 3 4 5 6 
#
# 1 0.010220 -0.003683 -0.002051 0.000000 0.000000 0.002775
# 2 -0.003683 0.010220 -0.002051 0.000000 0.000000 -0.002775
# 3 -0.002051 -0.002051 0.011718 0.000000 0.000000 0.000000
# 4 0.000000 0.000000 0.000000 0.030987 0.000000 0.000000
# 5 0.000000 0.000000 0.000000 0.000000 0.030987 0.000000
# 6 0.002775 -0.002775 0.000000 0.000000 0.000000 0.023046
#
#
# Mechanical properties :
#
#
# Convention : Reuss Voigt Hill
#
# Bulk Modulus (GPa) = 60.28956 62.21404 61.25180
# Shear Modulus (GPa) = 36.15962 37.69071 36.92517
#
# Velocity S-wave (km/s) = 3.81514 3.89508 3.85532
# Velocity P-wave (km/s) = 6.60874 6.72843 6.66885
#
# Compressibility (1/GPa) = 0.01658662
#
# Stress axis : x y z
#
# Youngs Moduli (GPa) = 97.85028 97.85028 85.34099
#
# Poissons Ratio (x) = 0.36036 0.17505
# Poissons Ratio (y) = 0.36036 0.17505
# Poissons Ratio (z) = 0.20071 0.20071
#
# Static dielectric constant tensor:
#      x y z
#    x 4.800950 0.000000 0.000000 
#    y 0.000000 4.800950 0.000000 
#    z 0.000000 0.000000 4.339990 
# 
# 
# High freq. dielectric constant tensor:
#      x y z
#    x 2.000950 0.000000 0.000000 
#    y 0.000000 2.000950 0.000000 
#    z 0.000000 0.000000 1.992760 
# 
# From -- ./inp_files/444.got.cif
#   From: 2010.03.12/outbox.cif.g09.slc.cpg/sg81_cif.got.tgz:444.got - 2010.04.08 20:01:38.
