data_PCOD8302834
_publ_section_title
;
Structure prediction by ZEFSAII (Michael W. Deem and Ramdas Pophale) SiO2 
 PCOD8302834
Probable space group: P 4/M
;
_chemical_formula_sum "Si O2"
_cell_formula_units_Z 40
_cell_length_a 15.733610
_cell_length_b 15.733610
_cell_length_c 8.779246
_cell_angle_alpha 90.000000
_cell_angle_beta 90.000000
_cell_angle_gamma 90.000000
_cell_volume 2173.271476
_symmetry_space_group_name_H-M "P 4/M"
_symmetry_group_IT_number 83
_symmetry_cell_setting 'tetragonal'
loop_
_space_group_symop_operation_xyz
x,y,z
-y,x,z
-x,-y,z
y,-x,z
-x,-y,-z
y,-x,-z
x,y,-z
-y,x,-z
loop_
_atom_site_type_symbol
_atom_site_label
_atom_site_fract_x
_atom_site_fract_y
_atom_site_fract_z
Si Si1 0.857426 0.278755 0.673162
Si Si2 0.487542 0.739105 0.821175
Si Si3 0.535634 0.908855 0.678844
Si Si4 0.327459 0.655588 0.676182
Si Si5 0.062863 0.882731 0.820413
O O1 0.879054 0.256799 0.500000
O O2 0.905202 0.365090 0.722501
O O3 0.757066 0.288766 0.698173
O O4 0.890584 0.202572 0.773912
O O5 0.484236 0.837591 0.771338
O O6 0.398221 0.696813 0.782054
O O7 0.559668 0.688847 0.729346
O O8 0.505401 0.732187 0.000000
O O9 0.522911 0.890445 0.500000
O O10 0.500000 0.000000 0.727663
O O11 0.356013 0.654430 0.500000
O O12 0.965630 0.886182 0.758497
O O13 0.061202 0.885876 0.000000
#
# Coordination Sequence:
#
# PCOD8302834 Si02
#       5
#     8   8   8   8   8
#     4   9  19  34  54  79 103 133 176 220 258 303
#     4  11  22  36  56  84 112 137 176 228 272 311
#     4   9  19  37  57  77 107 146 182 217 264 324
#     4  10  21  39  58  77 107 146 180 212 263 327
#     4   9  19  35  52  72 103 141 175 211 262 318
#
# _framework density 18.405432999999999
#
# number of rings (size 3 to 8) (size 9 to 14) (size 15 to 20)
#    0.000    2.400    0.000    4.200    0.000    7.200 
#    0.000    9.000    0.000    0.000    0.000    0.000 
#    0.000    0.000    0.000    0.000    0.000    0.000 
#
# Total GULP energy -496040.308678 kJ/mol
# GULP energy per Si atom -12401.007717 kJ/mol
# Density = 1.836354 g / cm^3
# Si number density = 18.405433 Si / 1000 Ang^3
#
#
#
# Elastic Constant Matrix: (Units=GPa)
#
#
# Indices 1 2 3 4 5 6 
#
# 1 97.9705 56.2048 25.3765 0.0000 0.0000 11.6394
# 2 56.2048 97.9705 25.3765 0.0000 0.0000 -11.6394
# 3 25.3765 25.3765 53.7924 0.0000 0.0000 0.0000
# 4 0.0000 0.0000 0.0000 31.1732 0.0000 0.0000
# 5 0.0000 0.0000 0.0000 0.0000 31.1732 0.0000
# 6 11.6394 -11.6394 0.0000 0.0000 0.0000 28.1644
#
#
#
# Elastic Compliance Matrix: (Units=1/GPa)
#
#
# Indices 1 2 3 4 5 6 
#
# 1 0.019394 -0.011715 -0.003622 0.000000 0.000000 -0.012856
# 2 -0.011715 0.019394 -0.003622 0.000000 0.000000 0.012856
# 3 -0.003622 -0.003622 0.022008 0.000000 0.000000 0.000000
# 4 0.000000 0.000000 0.000000 0.032079 0.000000 0.000000
# 5 0.000000 0.000000 0.000000 0.000000 0.032079 0.000000
# 6 -0.012856 0.012856 0.000000 0.000000 0.000000 0.046132
#
#
# Mechanical properties :
#
#
# Convention : Reuss Voigt Hill
#
# Bulk Modulus (GPa) = 43.71511 51.51654 47.61582
# Shear Modulus (GPa) = 23.08093 27.62052 25.35073
#
# Velocity S-wave (km/s) = 3.54507 3.87805 3.71529
# Velocity P-wave (km/s) = 6.36863 6.93563 6.65817
#
# Compressibility (1/GPa) = 0.02287539
#
# Stress axis : x y z
#
# Youngs Moduli (GPa) = 51.56333 51.56333 45.43874
#
# Poissons Ratio (x) = 0.60407 0.16460
# Poissons Ratio (y) = 0.60407 0.16460
# Poissons Ratio (z) = 0.18678 0.18678
#
# Static dielectric constant tensor:
#      x y z
#    x 3.430840 0.000000 0.000000 
#    y 0.000000 3.430840 0.000000 
#    z 0.000000 0.000000 3.295370 
# 
# 
# High freq. dielectric constant tensor:
#      x y z
#    x 1.716310 0.000000 0.000000 
#    y 0.000000 1.716310 0.000000 
#    z 0.000000 0.000000 1.710680 
# 
# From -- ./inp_files/652.got.cif
#   From: 2010.03.12/outbox.cif.g09.slc.cpg/sg83_1_cif.got.tgz:652.got - 2010.04.08 20:05:18.
