data_PCOD8302380
_publ_section_title
;
Structure prediction by ZEFSAII (Michael W. Deem and Ramdas Pophale) SiO2 
 PCOD8302380
Probable space group: I -4 
;
_chemical_formula_sum "Si O2"
_cell_formula_units_Z 48
_cell_length_a 8.284673
_cell_length_b 8.284673
_cell_length_c 33.591699
_cell_angle_alpha 90.000000
_cell_angle_beta 90.000000
_cell_angle_gamma 90.000000
_cell_volume 2305.593360
_symmetry_space_group_name_H-M "I -4 "
_symmetry_group_IT_number 82
_symmetry_cell_setting 'tetragonal'
loop_
_space_group_symop_operation_xyz
x,y,z
y,-x,-z
-x,-y,z
-y,x,-z
1/2+x,1/2+y,1/2+z
1/2+y,1/2-x,1/2-z
1/2-x,1/2-y,1/2+z
1/2-y,1/2+x,1/2-z
loop_
_atom_site_type_symbol
_atom_site_label
_atom_site_fract_x
_atom_site_fract_y
_atom_site_fract_z
Si Si1 0.894487 0.766193 0.570314
Si Si2 0.500000 0.000000 0.128905
Si Si3 0.113028 0.760441 0.004632
Si Si4 0.101454 0.247272 0.421276
Si Si5 0.911212 0.260219 0.239687
Si Si6 0.000000 0.000000 0.704769
Si Si7 0.743456 0.727393 0.838404
O O1 0.894056 0.626039 0.603326
O O2 0.853392 0.690540 0.528160
O O3 0.073021 0.834999 0.565938
O O4 0.764927 0.906340 0.581674
O O5 0.370680 0.908612 0.156260
O O6 0.123633 0.663538 0.046294
O O7 0.928002 0.790262 0.993066
O O8 0.178754 0.304804 0.379445
O O9 0.803190 0.400314 0.258770
O O10 0.867098 0.225803 0.193852
O O11 0.881213 0.103511 0.266811
O O12 0.892092 0.104756 0.675843
#
# Coordination Sequence:
#
# PCOD8302380 Si02
#       7
#     8   4   8   8   8   4   8
#     4  10  20  37  59  83 117 156 195 234 284 346
#     4  10  20  34  59  90 118 150 190 246 289 324
#     4  11  23  38  56  82 118 156 197 243 288 337
#     4  10  21  38  60  86 113 154 197 238 287 338
#     4   9  20  39  61  83 114 154 190 234 291 351
#     4  10  20  38  60  84 115 152 191 234 290 354
#     4  10  20  37  59  86 118 149 193 241 285 344
#
# _framework density 20.818935
#
# number of rings (size 3 to 8) (size 9 to 14) (size 15 to 20)
#    0.000    2.000    0.000    5.000    0.000    6.000 
#    0.000   15.000    0.000    0.000    0.000    0.000 
#    0.000    0.000    0.000    0.000    0.000    0.000 
#
# Total GULP energy -297641.355837 kJ/mol
# GULP energy per Si atom -12401.723160 kJ/mol
# Density = 2.077155 g / cm^3
# Si number density = 20.818935 Si / 1000 Ang^3
#
#
#
# Elastic Constant Matrix: (Units=GPa)
#
#
# Indices 1 2 3 4 5 6 
#
# 1 78.6208 15.3167 49.5264 0.0000 0.0000 -1.1547
# 2 15.3167 78.6208 49.5264 0.0000 0.0000 1.1547
# 3 49.5264 49.5264 154.6950 0.0000 0.0000 0.0000
# 4 0.0000 0.0000 0.0000 37.5574 0.0000 0.0000
# 5 0.0000 0.0000 0.0000 0.0000 37.5574 0.0000
# 6 -1.1547 1.1547 0.0000 0.0000 0.0000 18.1865
#
#
#
# Elastic Compliance Matrix: (Units=1/GPa)
#
#
# Indices 1 2 3 4 5 6 
#
# 1 0.015952 0.000119 -0.005145 0.000000 0.000000 0.001005
# 2 0.000119 0.015952 -0.005145 0.000000 0.000000 -0.001005
# 3 -0.005145 -0.005145 0.009759 0.000000 0.000000 0.000000
# 4 0.000000 0.000000 0.000000 0.026626 0.000000 0.000000
# 5 0.000000 0.000000 0.000000 0.000000 0.026626 0.000000
# 6 0.001005 -0.001005 0.000000 0.000000 0.000000 0.055113
#
#
# Mechanical properties :
#
#
# Convention : Reuss Voigt Hill
#
# Bulk Modulus (GPa) = 46.90502 60.07506 53.49004
# Shear Modulus (GPa) = 28.17253 31.83142 30.00197
#
# Velocity S-wave (km/s) = 3.68260 3.91444 3.80029
# Velocity P-wave (km/s) = 6.37659 7.02489 6.70858
#
# Compressibility (1/GPa) = 0.02131968
#
# Stress axis : x y z
#
# Youngs Moduli (GPa) = 62.68793 62.68795 102.47176
#
# Poissons Ratio (x) = -0.00743 0.52723
# Poissons Ratio (y) = -0.00743 0.52723
# Poissons Ratio (z) = 0.32254 0.32254
#
# Static dielectric constant tensor:
#      x y z
#    x 3.860850 0.000000 0.000000 
#    y 0.000000 3.860850 0.000000 
#    z 0.000000 0.000000 3.902060 
# 
# 
# High freq. dielectric constant tensor:
#      x y z
#    x 1.811690 0.000000 0.000000 
#    y 0.000000 1.811690 0.000000 
#    z 0.000000 0.000000 1.820640 
# 
# From -- ./inp_files/4085.got.cif
#   From: 2010.03.12/outbox.cif.g09.slc.cpg/sg82_3_cif.got.tgz:4085.got - 2010.04.08 20:02:50.
