data_PCOD8302867
_publ_section_title
;
Structure prediction by ZEFSAII (Michael W. Deem and Ramdas Pophale) SiO2 
 PCOD8302867
Probable space group: P 4/M
;
_chemical_formula_sum "Si O2"
_cell_formula_units_Z 48
_cell_length_a 8.142044
_cell_length_b 8.142044
_cell_length_c 33.272394
_cell_angle_alpha 90.000000
_cell_angle_beta 90.000000
_cell_angle_gamma 90.000000
_cell_volume 2205.722839
_symmetry_space_group_name_H-M "P 4/M"
_symmetry_group_IT_number 83
_symmetry_cell_setting 'tetragonal'
loop_
_space_group_symop_operation_xyz
x,y,z
-y,x,z
-x,-y,z
y,-x,z
-x,-y,-z
y,-x,-z
x,y,-z
-y,x,-z
loop_
_atom_site_type_symbol
_atom_site_label
_atom_site_fract_x
_atom_site_fract_y
_atom_site_fract_z
Si Si1 0.757033 0.583823 0.205290
Si Si2 0.000000 0.500000 0.357819
Si Si3 0.244129 0.597967 0.500000
Si Si4 0.755801 0.582786 0.704741
Si Si5 0.500000 0.000000 0.067469
Si Si6 0.762021 0.430827 0.000000
Si Si7 0.087335 0.741027 0.422701
Si Si8 0.928968 0.738871 0.865579
O O1 0.602488 0.702673 0.198231
O O2 0.827804 0.607010 0.250371
O O3 0.900511 0.630837 0.174367
O O4 0.891322 0.618441 0.329141
O O5 0.886007 0.380486 0.384922
O O6 0.290573 0.406852 0.500000
O O7 0.129915 0.636464 0.461988
O O8 0.605151 0.703481 0.698533
O O9 0.372266 0.899861 0.095161
O O10 0.597958 0.870827 0.039709
O O11 0.699682 0.617628 0.000000
O O12 0.897170 0.793793 0.421755
O O13 0.114624 0.799904 0.866066
#
# Coordination Sequence:
#
# PCOD8302867 Si02
#       8
#     8   4   4   8   4   4   8   8
#     4   9  19  37  60  85 116 156 200 244 293 347
#     4  12  22  36  60  87 118 157 200 244 284 338
#     4  11  24  43  68  93 114 144 190 239 288 351
#     4   9  20  38  59  85 117 157 203 246 290 338
#     4  11  22  39  60  83 118 155 186 235 298 351
#     4  10  22  40  62  86 110 146 198 243 282 340
#     4  11  24  41  61  88 122 156 189 233 294 354
#     4  11  23  37  57  88 121 153 192 239 294 354
#
# _framework density 21.761574
#
# number of rings (size 3 to 8) (size 9 to 14) (size 15 to 20)
#    0.000    1.667    0.000    5.500    0.000    5.000 
#    0.000    3.333    0.000    6.000    0.000    0.000 
#    0.000    0.000    0.000    0.000    0.000    0.000 
#
# Total GULP energy -595281.231875 kJ/mol
# GULP energy per Si atom -12401.692331 kJ/mol
# Density = 2.171204 g / cm^3
# Si number density = 21.761574 Si / 1000 Ang^3
#
#
#
# Elastic Constant Matrix: (Units=GPa)
#
#
# Indices 1 2 3 4 5 6 
#
# 1 83.0005 25.4049 57.7537 0.0000 0.0000 -0.8487
# 2 25.4049 83.0005 57.7537 0.0000 0.0000 0.8487
# 3 57.7537 57.7537 190.2696 0.0000 0.0000 0.0000
# 4 0.0000 0.0000 0.0000 28.9502 0.0000 0.0000
# 5 0.0000 0.0000 0.0000 0.0000 28.9502 0.0000
# 6 -0.8487 0.8487 0.0000 0.0000 0.0000 32.6354
#
#
#
# Elastic Compliance Matrix: (Units=1/GPa)
#
#
# Indices 1 2 3 4 5 6 
#
# 1 0.015505 -0.001871 -0.004138 0.000000 0.000000 0.000452
# 2 -0.001871 0.015505 -0.004138 0.000000 0.000000 -0.000452
# 3 -0.004138 -0.004138 0.007768 0.000000 0.000000 0.000000
# 4 0.000000 0.000000 0.000000 0.034542 0.000000 0.000000
# 5 0.000000 0.000000 0.000000 0.000000 0.034542 0.000000
# 6 0.000452 -0.000452 0.000000 0.000000 0.000000 0.030665
#
#
# Mechanical properties :
#
#
# Convention : Reuss Voigt Hill
#
# Bulk Modulus (GPa) = 54.10493 70.89946 62.50220
# Shear Modulus (GPa) = 30.30606 32.46439 31.38523
#
# Velocity S-wave (km/s) = 3.73586 3.86660 3.80179
# Velocity P-wave (km/s) = 6.59738 7.25155 6.93219
#
# Compressibility (1/GPa) = 0.01848260
#
# Stress axis : x y z
#
# Youngs Moduli (GPa) = 64.49535 64.49535 128.73241
#
# Poissons Ratio (x) = 0.12066 0.53276
# Poissons Ratio (y) = 0.12066 0.53276
# Poissons Ratio (z) = 0.26691 0.26691
#
# Static dielectric constant tensor:
#      x y z
#    x 3.779770 0.000000 0.000000 
#    y 0.000000 3.779770 0.000000 
#    z 0.000000 0.000000 4.041610 
# 
# 
# High freq. dielectric constant tensor:
#      x y z
#    x 1.851150 0.000000 0.000000 
#    y 0.000000 1.851150 0.000000 
#    z 0.000000 0.000000 1.869430 
# 
# From -- ./inp_files/3516.got.cif
#   From: 2010.03.12/outbox.cif.g09.slc.cpg/sg83_2_cif.got.tgz:3516.got - 2010.04.08 20:05:18.
