data_PCOD8302989
_publ_section_title
;
Structure prediction by ZEFSAII (Michael W. Deem and Ramdas Pophale) SiO2 
 PCOD8302989
Probable space group: P 4/M
;
_chemical_formula_sum "Si O2"
_cell_formula_units_Z 36
_cell_length_a 8.577450
_cell_length_b 8.577450
_cell_length_c 22.931715
_cell_angle_alpha 90.000000
_cell_angle_beta 90.000000
_cell_angle_gamma 90.000000
_cell_volume 1687.147007
_symmetry_space_group_name_H-M "P 4/M"
_symmetry_group_IT_number 83
_symmetry_cell_setting 'tetragonal'
loop_
_space_group_symop_operation_xyz
x,y,z
-y,x,z
-x,-y,z
y,-x,z
-x,-y,-z
y,-x,-z
x,y,-z
-y,x,-z
loop_
_atom_site_type_symbol
_atom_site_label
_atom_site_fract_x
_atom_site_fract_y
_atom_site_fract_z
Si Si1 0.893438 0.767370 0.209809
Si Si2 0.110386 0.234490 0.000000
Si Si3 0.090039 0.238098 0.658157
Si Si4 0.257756 0.418547 0.434852
Si Si5 0.734460 0.608317 0.107260
O O1 0.877279 0.705654 0.275911
O O2 0.822758 0.635389 0.168332
O O3 0.074786 0.797910 0.197415
O O4 0.151554 0.336066 0.056337
O O5 0.926536 0.204776 0.000000
O O6 0.129394 0.375406 0.613134
O O7 0.911576 0.196976 0.646917
O O8 0.404440 0.306199 0.425561
O O9 0.189216 0.394346 0.500000
O O10 0.574635 0.704049 0.102312
#
# Coordination Sequence:
#
# PCOD8302989 Si02
#       5
#     8   4   8   8   8
#     4   9  19  37  58  79 106 141 180 219 262 316
#     4  11  24  41  62  86 110 141 182 223 264 312
#     4   9  19  35  54  78 107 137 173 220 268 314
#     4   9  19  35  52  72 102 139 177 218 265 318
#     4  11  24  39  56  83 116 145 177 219 264 311
#
# _framework density 21.337796999999998
#
# number of rings (size 3 to 8) (size 9 to 14) (size 15 to 20)
#    0.000    2.333    0.000    4.000    0.000   10.667 
#    0.000   10.000    0.000    0.000    0.000    0.000 
#    0.000    0.000    0.000    0.000    0.000    0.000 
#
# Total GULP energy -446461.739114 kJ/mol
# GULP energy per Si atom -12401.714975 kJ/mol
# Density = 2.128923 g / cm^3
# Si number density = 21.337797 Si / 1000 Ang^3
#
#
#
# Elastic Constant Matrix: (Units=GPa)
#
#
# Indices 1 2 3 4 5 6 
#
# 1 24.3187 -13.5267 11.9733 0.0000 0.0000 2.7911
# 2 -13.5267 24.3187 11.9733 0.0000 0.0000 -2.7911
# 3 11.9733 11.9733 109.0302 0.0000 0.0000 0.0000
# 4 0.0000 0.0000 0.0000 2.5515 0.0000 0.0000
# 5 0.0000 0.0000 0.0000 0.0000 2.5515 0.0000
# 6 2.7911 -2.7911 0.0000 0.0000 0.0000 42.7876
#
#
#
# Elastic Compliance Matrix: (Units=1/GPa)
#
#
# Indices 1 2 3 4 5 6 
#
# 1 0.074597 0.047917 -0.013454 0.000000 0.000000 -0.001740
# 2 0.047917 0.074597 -0.013454 0.000000 0.000000 0.001740
# 3 -0.013454 -0.013454 0.012127 0.000000 0.000000 0.000000
# 4 0.000000 0.000000 0.000000 0.391920 0.000000 0.000000
# 5 0.000000 0.000000 0.000000 0.000000 0.391920 0.000000
# 6 -0.001740 0.001740 0.000000 0.000000 0.000000 0.023598
#
#
# Mechanical properties :
#
#
# Convention : Reuss Voigt Hill
#
# Bulk Modulus (GPa) = 4.91790 19.83419 12.37605
# Shear Modulus (GPa) = 5.02755 19.39465 12.21110
#
# Velocity S-wave (km/s) = 1.53665 3.01812 2.39482
# Velocity P-wave (km/s) = 2.33627 4.63260 3.66873
#
# Compressibility (1/GPa) = 0.20333864
#
# Stress axis : x y z
#
# Youngs Moduli (GPa) = 13.40535 13.40535 82.46244
#
# Poissons Ratio (x) = -0.64235 1.10946
# Poissons Ratio (y) = -0.64235 1.10946
# Poissons Ratio (z) = 0.18036 0.18036
#
# Static dielectric constant tensor:
#      x y z
#    x 3.690180 0.000000 0.000000 
#    y 0.000000 3.690180 0.000000 
#    z 0.000000 0.000000 3.889270 
# 
# 
# High freq. dielectric constant tensor:
#      x y z
#    x 1.832540 0.000000 0.000000 
#    y 0.000000 1.832540 0.000000 
#    z 0.000000 0.000000 1.845040 
# 
# From -- ./inp_files/2846.got.cif
#   From: 2010.03.12/outbox.cif.g09.slc.cpg/sg83_2_cif.got.tgz:2846.got - 2010.04.08 20:05:18.
