data_PCOD8302793
_publ_section_title
;
Structure prediction by ZEFSAII (Michael W. Deem and Ramdas Pophale) SiO2 
 PCOD8302793
Probable space group: P 4/M
;
_chemical_formula_sum "Si O2"
_cell_formula_units_Z 40
_cell_length_a 15.888703
_cell_length_b 15.888703
_cell_length_c 8.380166
_cell_angle_alpha 90.000000
_cell_angle_beta 90.000000
_cell_angle_gamma 90.000000
_cell_volume 2115.580307
_symmetry_space_group_name_H-M "P 4/M"
_symmetry_group_IT_number 83
_symmetry_cell_setting 'tetragonal'
loop_
_space_group_symop_operation_xyz
x,y,z
-y,x,z
-x,-y,z
y,-x,z
-x,-y,-z
y,-x,-z
x,y,-z
-y,x,-z
loop_
_atom_site_type_symbol
_atom_site_label
_atom_site_fract_x
_atom_site_fract_y
_atom_site_fract_z
Si Si1 0.461468 0.085225 0.188866
Si Si2 0.351291 0.315739 0.316190
Si Si3 0.881867 0.939581 0.189748
Si Si4 0.849872 0.284024 0.190044
Si Si5 0.736148 0.524423 0.814867
O O1 0.365519 0.097321 0.247551
O O2 0.516373 0.166315 0.240003
O O3 0.500000 0.000000 0.265791
O O4 0.461822 0.077679 0.000000
O O5 0.375812 0.305157 0.500000
O O6 0.286247 0.243328 0.263345
O O7 0.307226 0.404978 0.291174
O O8 0.435863 0.310740 0.211642
O O9 0.798067 0.896753 0.259538
O O10 0.963815 0.888026 0.249495
O O11 0.878662 0.938591 0.000000
O O12 0.841536 0.281582 0.000000
O O13 0.729314 0.548984 0.000000
#
# Coordination Sequence:
#
# PCOD8302793 Si02
#       5
#     8   8   8   8   8
#     4   8  15  28  48  75 102 127 162 209 254 296
#     4  11  22  36  53  75 105 136 167 205 252 302
#     4   8  14  25  44  73 104 131 169 224 271 301
#     4   9  17  30  49  72  99 134 173 211 255 306
#     4  10  20  36  57  79 103 132 170 211 252 300
#
# _framework density 18.907342
#
# number of rings (size 3 to 8) (size 9 to 14) (size 15 to 20)
#    0.000    2.800    0.000    4.200    0.000    2.000 
#    0.000    8.000    0.000   21.000    0.000    1.400 
#    0.000    0.000    0.000    0.000    0.000    0.000 
#
# Total GULP energy -495920.914038 kJ/mol
# GULP energy per Si atom -12398.022851 kJ/mol
# Density = 1.886431 g / cm^3
# Si number density = 18.907342 Si / 1000 Ang^3
#
#
#
# Elastic Constant Matrix: (Units=GPa)
#
#
# Indices 1 2 3 4 5 6 
#
# 1 126.5463 77.1532 7.2963 0.0000 0.0000 13.8787
# 2 77.1532 126.5463 7.2963 0.0000 0.0000 -13.8787
# 3 7.2963 7.2963 34.0071 0.0000 0.0000 0.0000
# 4 0.0000 0.0000 0.0000 7.3181 0.0000 0.0000
# 5 0.0000 0.0000 0.0000 0.0000 7.3181 0.0000
# 6 13.8787 -13.8787 0.0000 0.0000 0.0000 34.3576
#
#
#
# Elastic Compliance Matrix: (Units=1/GPa)
#
#
# Indices 1 2 3 4 5 6 
#
# 1 0.015589 -0.010603 -0.001070 0.000000 0.000000 -0.010580
# 2 -0.010603 0.015589 -0.001070 0.000000 0.000000 0.010580
# 3 -0.001070 -0.001070 0.029865 0.000000 0.000000 0.000000
# 4 0.000000 0.000000 0.000000 0.136648 0.000000 0.000000
# 5 0.000000 0.000000 0.000000 0.000000 0.136648 0.000000
# 6 -0.010580 0.010580 0.000000 0.000000 0.000000 0.037653
#
#
# Mechanical properties :
#
#
# Convention : Reuss Voigt Hill
#
# Bulk Modulus (GPa) = 28.12356 52.28793 40.20575
# Shear Modulus (GPa) = 12.21512 22.82233 17.51872
#
# Velocity S-wave (km/s) = 2.54451 3.47805 3.04724
# Velocity P-wave (km/s) = 4.85175 6.62148 5.80445
#
# Compressibility (1/GPa) = 0.03555737
#
# Stress axis : x y z
#
# Youngs Moduli (GPa) = 64.14933 64.14933 33.48445
#
# Poissons Ratio (x) = 0.68016 0.03582
# Poissons Ratio (y) = 0.68016 0.03582
# Poissons Ratio (z) = 0.06862 0.06862
#
# Static dielectric constant tensor:
#      x y z
#    x 3.658450 0.000000 0.000000 
#    y 0.000000 3.658450 0.000000 
#    z 0.000000 0.000000 3.021080 
# 
# 
# High freq. dielectric constant tensor:
#      x y z
#    x 1.736860 0.000000 0.000000 
#    y 0.000000 1.736860 0.000000 
#    z 0.000000 0.000000 1.696700 
# 
# From -- ./inp_files/648.got.cif
#   From: 2010.03.12/outbox.cif.g09.slc.cpg/sg83_1_cif.got.tgz:648.got - 2010.04.08 20:05:18.
