data_PCOD8302259
_publ_section_title
;
Structure prediction by ZEFSAII (Michael W. Deem and Ramdas Pophale) SiO2 
 PCOD8302259
Probable space group: P -4
;
_chemical_formula_sum "Si O2"
_cell_formula_units_Z 18
_cell_length_a 8.930069
_cell_length_b 8.930069
_cell_length_c 11.420801
_cell_angle_alpha 90.000000
_cell_angle_beta 90.000000
_cell_angle_gamma 90.000000
_cell_volume 910.764708
_symmetry_space_group_name_H-M "P -4"
_symmetry_group_IT_number 81
_symmetry_cell_setting 'tetragonal'
loop_
_space_group_symop_operation_xyz
x,y,z
y,-x,-z
-x,-y,z
-y,x,-z
loop_
_atom_site_type_symbol
_atom_site_label
_atom_site_fract_x
_atom_site_fract_y
_atom_site_fract_z
Si Si1 0.824611 0.724452 0.251713
Si Si2 0.609767 0.698405 0.462253
Si Si3 0.052008 0.793581 0.447121
Si Si4 0.926143 0.217422 0.963065
Si Si5 0.500000 0.000000 0.897648
O O1 0.684713 0.685041 0.334456
O O2 0.775320 0.858741 0.166826
O O3 0.871256 0.576967 0.180488
O O4 0.970339 0.779176 0.323422
O O5 0.678540 0.568504 0.546325
O O6 0.641914 0.859473 0.521187
O O7 0.930594 0.828143 0.550555
O O8 0.913686 0.379592 0.022386
O O9 0.099584 0.166176 0.956697
#
# Coordination Sequence:
#
# PCOD8302259 Si02
#       5
#     4   4   4   4   2
#     4  10  20  39  60  79 111 147 175 231 279 306
#     4  10  21  37  53  81 117 147 180 216 266 337
#     4   9  19  34  56  83 107 138 184 221 265 327
#     4   9  20  38  59  83 109 138 186 233 269 319
#     4  10  20  36  60  84 104 142 190 224 270 326
#
# _framework density 19.763611000000001
#
# number of rings (size 3 to 8) (size 9 to 14) (size 15 to 20)
#    0.000    2.444    0.000    1.333    0.000   16.889 
#    0.000   31.111    0.000    6.000    0.000    0.000 
#    0.000    0.000    0.000    0.000    0.000    0.000 
#
# Total GULP energy -223139.198942 kJ/mol
# GULP energy per Si atom -12396.622163 kJ/mol
# Density = 1.971863 g / cm^3
# Si number density = 19.763611 Si / 1000 Ang^3
#
#
#
# Elastic Constant Matrix: (Units=GPa)
#
#
# Indices 1 2 3 4 5 6 
#
# 1 96.8955 31.9419 57.4893 0.0000 0.0000 -3.5245
# 2 31.9419 96.8955 57.4893 0.0000 0.0000 3.5245
# 3 57.4893 57.4893 136.1584 0.0000 0.0000 0.0000
# 4 0.0000 0.0000 0.0000 33.1374 0.0000 0.0000
# 5 0.0000 0.0000 0.0000 0.0000 33.1374 0.0000
# 6 -3.5245 3.5245 0.0000 0.0000 0.0000 28.4243
#
#
#
# Elastic Compliance Matrix: (Units=1/GPa)
#
#
# Indices 1 2 3 4 5 6 
#
# 1 0.014030 -0.001575 -0.005259 0.000000 0.000000 0.001935
# 2 -0.001575 0.014030 -0.005259 0.000000 0.000000 -0.001935
# 3 -0.005259 -0.005259 0.011785 0.000000 0.000000 0.000000
# 4 0.000000 0.000000 0.000000 0.030177 0.000000 0.000000
# 5 0.000000 0.000000 0.000000 0.000000 0.030177 0.000000
# 6 0.001935 -0.001935 0.000000 0.000000 0.000000 0.035661
#
#
# Mechanical properties :
#
#
# Convention : Reuss Voigt Hill
#
# Bulk Modulus (GPa) = 63.85777 69.31004 66.58390
# Shear Modulus (GPa) = 30.25413 31.14176 30.69795
#
# Velocity S-wave (km/s) = 3.91679 3.97383 3.94541
# Velocity P-wave (km/s) = 7.26883 7.49672 7.38365
#
# Compressibility (1/GPa) = 0.01565980
#
# Stress axis : x y z
#
# Youngs Moduli (GPa) = 71.27500 71.27500 84.85326
#
# Poissons Ratio (x) = 0.11229 0.44622
# Poissons Ratio (y) = 0.11229 0.44622
# Poissons Ratio (z) = 0.37481 0.37481
#
# Static dielectric constant tensor:
#      x y z
#    x 3.730940 0.000000 0.000000 
#    y 0.000000 3.730940 0.000000 
#    z 0.000000 0.000000 3.510340 
# 
# 
# High freq. dielectric constant tensor:
#      x y z
#    x 1.771350 0.000000 0.000000 
#    y 0.000000 1.771350 0.000000 
#    z 0.000000 0.000000 1.753760 
# 
# From -- ./inp_files/1108.got.cif
#   From: 2010.03.12/outbox.cif.g09.slc.cpg/sg81_cif.got.tgz:1108.got - 2010.04.08 20:01:38.
