data_PCOD8302722
_publ_section_title
;
Structure prediction by ZEFSAII (Michael W. Deem and Ramdas Pophale) SiO2 
 PCOD8302722
Probable space group: P 4/M
;
_chemical_formula_sum "Si O2"
_cell_formula_units_Z 52
_cell_length_a 16.408317
_cell_length_b 16.408317
_cell_length_c 10.344981
_cell_angle_alpha 90.000000
_cell_angle_beta 90.000000
_cell_angle_gamma 90.000000
_cell_volume 2785.208891
_symmetry_space_group_name_H-M "P 4/M"
_symmetry_group_IT_number 83
_symmetry_cell_setting 'tetragonal'
loop_
_space_group_symop_operation_xyz
x,y,z
-y,x,z
-x,-y,z
y,-x,z
-x,-y,-z
y,-x,-z
x,y,-z
-y,x,-z
loop_
_atom_site_type_symbol
_atom_site_label
_atom_site_fract_x
_atom_site_fract_y
_atom_site_fract_z
Si Si1 0.797302 0.917205 0.737412
Si Si2 0.032434 0.870294 0.000000
Si Si3 0.794672 0.321023 0.851447
Si Si4 0.821466 0.674464 0.144110
Si Si5 0.504257 0.242886 0.854388
Si Si6 0.368823 0.475405 0.359097
Si Si7 0.090432 0.223045 0.354850
O O1 0.815928 0.955635 0.875362
O O2 0.717554 0.860901 0.754332
O O3 0.872660 0.864716 0.683128
O O4 0.780746 0.992264 0.641950
O O5 0.941230 0.901771 0.000000
O O6 0.710209 0.270414 0.834845
O O7 0.787394 0.415495 0.808584
O O8 0.824526 0.316351 0.000000
O O9 0.824971 0.575726 0.150376
O O10 0.881477 0.708521 0.253100
O O11 0.851109 0.701942 0.000000
O O12 0.539130 0.309186 0.757960
O O13 0.496910 0.278559 0.000000
O O14 0.435907 0.406492 0.346578
O O15 0.325512 0.467482 0.500000
O O16 0.119248 0.246305 0.500000
#
# Coordination Sequence:
#
# PCOD8302722 Si02
#       7
#     8   4   8   8   8   8   8
#     4  11  21  36  58  83 116 146 183 219 273 332
#     4  11  20  32  56  94 113 145 187 214 263 345
#     4   9  18  32  55  82 109 142 182 229 275 327
#     4   9  20  36  56  80 110 147 186 226 276 333
#     4  10  19  34  54  81 108 137 183 237 282 320
#     4   9  18  31  47  71 104 141 178 219 276 343
#     4  11  24  39  57  82 114 146 180 227 277 325
#
# _framework density 18.670054
#
# number of rings (size 3 to 8) (size 9 to 14) (size 15 to 20)
#    0.000    2.077    2.308    1.846    2.154    2.769 
#    0.000    7.692    0.000    3.692    0.000    0.000 
#    0.000    0.000    0.000    0.000    0.000    0.000 
#
# Total GULP energy -644556.658476 kJ/mol
# GULP energy per Si atom -12395.320355 kJ/mol
# Density = 1.862756 g / cm^3
# Si number density = 18.670054 Si / 1000 Ang^3
#
#
#
# Elastic Constant Matrix: (Units=GPa)
#
#
# Indices 1 2 3 4 5 6 
#
# 1 79.4546 15.7645 21.3301 0.0000 0.0000 -1.0905
# 2 15.7645 79.4546 21.3301 0.0000 0.0000 1.0905
# 3 21.3301 21.3301 98.3138 0.0000 0.0000 0.0000
# 4 0.0000 0.0000 0.0000 26.7246 0.0000 0.0000
# 5 0.0000 0.0000 0.0000 0.0000 26.7246 0.0000
# 6 -1.0905 1.0905 0.0000 0.0000 0.0000 12.3455
#
#
#
# Elastic Compliance Matrix: (Units=1/GPa)
#
#
# Indices 1 2 3 4 5 6 
#
# 1 0.013691 -0.002058 -0.002524 0.000000 0.000000 0.001391
# 2 -0.002058 0.013691 -0.002524 0.000000 0.000000 -0.001391
# 3 -0.002524 -0.002524 0.011267 0.000000 0.000000 0.000000
# 4 0.000000 0.000000 0.000000 0.037419 0.000000 0.000000
# 5 0.000000 0.000000 0.000000 0.000000 0.037419 0.000000
# 6 0.001391 -0.001391 0.000000 0.000000 0.000000 0.081247
#
#
# Mechanical properties :
#
#
# Convention : Reuss Voigt Hill
#
# Bulk Modulus (GPa) = 40.92168 41.56358 41.24263
# Shear Modulus (GPa) = 23.03200 26.41215 24.72208
#
# Velocity S-wave (km/s) = 3.51612 3.76530 3.64284
# Velocity P-wave (km/s) = 6.20081 6.41980 6.31126
#
# Compressibility (1/GPa) = 0.02443693
#
# Stress axis : x y z
#
# Youngs Moduli (GPa) = 73.04202 73.04202 88.75743
#
# Poissons Ratio (x) = 0.15031 0.22401
# Poissons Ratio (y) = 0.15031 0.22401
# Poissons Ratio (z) = 0.18435 0.18435
#
# Static dielectric constant tensor:
#      x y z
#    x 3.295100 0.000000 0.000000 
#    y 0.000000 3.295100 0.000000 
#    z 0.000000 0.000000 3.483190 
# 
# 
# High freq. dielectric constant tensor:
#      x y z
#    x 1.708540 0.000000 0.000000 
#    y 0.000000 1.708540 0.000000 
#    z 0.000000 0.000000 1.729650 
# 
# From -- ./inp_files/967.got.cif
#   From: 2010.03.12/outbox.cif.g09.slc.cpg/sg83_1_cif.got.tgz:967.got - 2010.04.08 20:05:18.
