data_PCOD8302752
_publ_section_title
;
Structure prediction by ZEFSAII (Michael W. Deem and Ramdas Pophale) SiO2 
 PCOD8302752
Probable space group: P 4/M
;
_chemical_formula_sum "Si O2"
_cell_formula_units_Z 48
_cell_length_a 17.782243
_cell_length_b 17.782243
_cell_length_c 9.020141
_cell_angle_alpha 90.000000
_cell_angle_beta 90.000000
_cell_angle_gamma 90.000000
_cell_volume 2852.242244
_symmetry_space_group_name_H-M "P 4/M"
_symmetry_group_IT_number 83
_symmetry_cell_setting 'tetragonal'
loop_
_space_group_symop_operation_xyz
x,y,z
-y,x,z
-x,-y,z
y,-x,z
-x,-y,-z
y,-x,-z
x,y,-z
-y,x,-z
loop_
_atom_site_type_symbol
_atom_site_label
_atom_site_fract_x
_atom_site_fract_y
_atom_site_fract_z
Si Si1 0.922369 0.408247 0.172161
Si Si2 0.187380 0.700827 0.661510
Si Si3 0.069536 0.183952 0.174945
Si Si4 0.179799 0.297400 0.675815
Si Si5 0.908769 0.581769 0.825409
Si Si6 0.164875 0.074299 0.335873
O O1 0.854801 0.357295 0.233959
O O2 0.902023 0.493713 0.208738
O O3 0.007622 0.390103 0.229041
O O4 0.922887 0.392912 0.000000
O O5 0.193965 0.662187 0.500000
O O6 0.270180 0.733497 0.712146
O O7 0.142268 0.777890 0.648463
O O8 0.122623 0.250740 0.223881
O O9 0.090787 0.105046 0.253299
O O10 0.986845 0.204605 0.232003
O O11 0.071664 0.174285 0.000000
O O12 0.164136 0.289395 0.500000
O O13 0.159823 0.381551 0.731133
O O14 0.898714 0.598132 0.000000
O O15 0.144810 0.042905 0.500000
#
# Coordination Sequence:
#
# PCOD8302752 Si02
#       6
#     8   8   8   8   8   8
#     4   9  18  31  48  70  97 124 153 192 239 281
#     4   9  19  32  46  65  90 118 152 188 224 270
#     4  11  21  32  46  64  83 109 147 189 231 276
#     4  10  20  33  47  66  92 123 155 190 229 272
#     4   9  18  32  48  70  97 124 155 195 236 280
#     4  10  20  34  47  61  83 112 146 188 232 273
#
# _framework density 16.828866000000001
#
# number of rings (size 3 to 8) (size 9 to 14) (size 15 to 20)
#    0.000    2.333    0.000    5.500    0.000    8.333 
#    0.000    3.333    0.000    0.000    0.000    0.000 
#    0.000    0.667    0.000    7.333    0.000    5.333 
#
# Total GULP energy -594638.471226 kJ/mol
# GULP energy per Si atom -12388.301484 kJ/mol
# Density = 1.679056 g / cm^3
# Si number density = 16.828866 Si / 1000 Ang^3
#
#
#
# Elastic Constant Matrix: (Units=GPa)
#
#
# Indices 1 2 3 4 5 6 
#
# 1 66.8297 31.4984 34.1167 0.0000 0.0000 -0.2983
# 2 31.4984 66.8297 34.1167 0.0000 0.0000 0.2983
# 3 34.1167 34.1167 90.5266 0.0000 0.0000 0.0000
# 4 0.0000 0.0000 0.0000 25.8270 0.0000 0.0000
# 5 0.0000 0.0000 0.0000 0.0000 25.8270 0.0000
# 6 -0.2983 0.2983 0.0000 0.0000 0.0000 27.1188
#
#
#
# Elastic Compliance Matrix: (Units=1/GPa)
#
#
# Indices 1 2 3 4 5 6 
#
# 1 0.021040 -0.007269 -0.005190 0.000000 0.000000 0.000311
# 2 -0.007269 0.021040 -0.005190 0.000000 0.000000 -0.000311
# 3 -0.005190 -0.005190 0.014958 0.000000 0.000000 0.000000
# 4 0.000000 0.000000 0.000000 0.038719 0.000000 0.000000
# 5 0.000000 0.000000 0.000000 0.000000 0.038719 0.000000
# 6 0.000311 -0.000311 0.000000 0.000000 0.000000 0.036882
#
#
# Mechanical properties :
#
#
# Convention : Reuss Voigt Hill
#
# Bulk Modulus (GPa) = 45.99539 47.07216 46.53377
# Shear Modulus (GPa) = 23.37505 24.05153 23.71329
#
# Velocity S-wave (km/s) = 3.73095 3.78456 3.75785
# Velocity P-wave (km/s) = 6.77869 6.86505 6.82201
#
# Compressibility (1/GPa) = 0.02174131
#
# Stress axis : x y z
#
# Youngs Moduli (GPa) = 47.52813 47.52813 66.85184
#
# Poissons Ratio (x) = 0.34546 0.34697
# Poissons Ratio (y) = 0.34546 0.34697
# Poissons Ratio (z) = 0.24668 0.24668
#
# Static dielectric constant tensor:
#      x y z
#    x 3.111240 0.000000 0.000000 
#    y 0.000000 3.111240 0.000000 
#    z 0.000000 0.000000 3.183380 
# 
# 
# High freq. dielectric constant tensor:
#      x y z
#    x 1.624830 0.000000 0.000000 
#    y 0.000000 1.624830 0.000000 
#    z 0.000000 0.000000 1.655940 
# 
# From -- ./inp_files/888.got.cif
#   From: 2010.03.12/outbox.cif.g09.slc.cpg/sg83_1_cif.got.tgz:888.got - 2010.04.08 20:05:18.
