data_PCOD8302789
_publ_section_title
;
Structure prediction by ZEFSAII (Michael W. Deem and Ramdas Pophale) SiO2 
 PCOD8302789
Probable space group: P 4/M
;
_chemical_formula_sum "Si O2"
_cell_formula_units_Z 52
_cell_length_a 17.415898
_cell_length_b 17.415898
_cell_length_c 8.265571
_cell_angle_alpha 90.000000
_cell_angle_beta 90.000000
_cell_angle_gamma 90.000000
_cell_volume 2507.059296
_symmetry_space_group_name_H-M "P 4/M"
_symmetry_group_IT_number 83
_symmetry_cell_setting 'tetragonal'
loop_
_space_group_symop_operation_xyz
x,y,z
-y,x,z
-x,-y,z
y,-x,z
-x,-y,-z
y,-x,-z
x,y,-z
-y,x,-z
loop_
_atom_site_type_symbol
_atom_site_label
_atom_site_fract_x
_atom_site_fract_y
_atom_site_fract_z
Si Si1 0.815808 0.341508 0.688599
Si Si2 0.482999 0.083964 0.312208
Si Si3 0.936442 0.894023 0.812703
Si Si4 0.438744 0.392904 0.500000
Si Si5 0.824092 0.777946 0.319013
Si Si6 0.344680 0.638804 0.817796
Si Si7 0.191869 0.386042 0.183327
O O1 0.793717 0.359614 0.500000
O O2 0.882447 0.400280 0.748696
O O3 0.833850 0.250393 0.709008
O O4 0.746027 0.349088 0.813524
O O5 0.473812 0.069855 0.500000
O O6 0.552504 0.143973 0.286795
O O7 0.500000 0.000000 0.230496
O O8 0.899556 0.827963 0.705676
O O9 0.025645 0.896699 0.768991
O O10 0.923350 0.875158 0.000000
O O11 0.528336 0.395170 0.500000
O O12 0.420317 0.355105 0.672036
O O13 0.821615 0.745266 0.500000
O O14 0.831618 0.702307 0.209637
O O15 0.391963 0.716952 0.779911
O O16 0.366374 0.608504 0.000000
O O17 0.174159 0.407997 0.000000
#
# Coordination Sequence:
#
# PCOD8302789 Si02
#       7
#     8   8   8   4   8   8   8
#     4   9  19  37  59  82 118 160 201 247 300 361
#     4  10  22  38  59  89 123 161 201 248 307 363
#     4   9  19  36  56  79 111 151 190 232 290 353
#     4  11  26  42  60  90 124 160 196 245 312 360
#     4  10  20  35  57  85 114 152 198 246 294 349
#     4  10  22  39  64  92 116 158 209 247 295 362
#     4  10  22  38  58  85 116 154 200 245 293 355
#
# _framework density 20.741433000000001
#
# number of rings (size 3 to 8) (size 9 to 14) (size 15 to 20)
#    0.000    2.231    0.769    1.385    4.308    4.000 
#    0.000    3.077    0.000    0.000    0.000    0.000 
#    0.000    0.000    0.000    0.000    0.000    0.000 
#
# Total GULP energy -644184.658639 kJ/mol
# GULP energy per Si atom -12388.166512 kJ/mol
# Density = 2.069422 g / cm^3
# Si number density = 20.741433 Si / 1000 Ang^3
#
#
#
# Elastic Constant Matrix: (Units=GPa)
#
#
# Indices 1 2 3 4 5 6 
#
# 1 43.0968 0.0419 -1.3101 0.0000 0.0000 2.5311
# 2 0.0419 43.0968 -1.3101 0.0000 0.0000 -2.5311
# 3 -1.3101 -1.3101 49.0751 0.0000 0.0000 0.0000
# 4 0.0000 0.0000 0.0000 -332.0898 0.0000 0.0000
# 5 0.0000 0.0000 0.0000 0.0000 -332.0898 0.0000
# 6 2.5311 -2.5311 0.0000 0.0000 0.0000 40.1881
#
#
#
# Elastic Compliance Matrix: (Units=1/GPa)
#
#
# Indices 1 2 3 4 5 6 
#
# 1 0.023309 -0.000090 0.000620 0.000000 0.000000 -0.001474
# 2 -0.000090 0.023309 0.000620 0.000000 0.000000 0.001474
# 3 0.000620 0.000620 0.020410 0.000000 0.000000 0.000000
# 4 0.000000 0.000000 0.000000 -0.003011 0.000000 0.000000
# 5 0.000000 0.000000 0.000000 0.000000 -0.003011 0.000000
# 6 -0.001474 0.001474 0.000000 0.000000 0.000000 0.025069
#
#
# Mechanical properties :
#
#
# Convention : Reuss Voigt Hill
#
# Bulk Modulus (GPa) = 14.42445 14.45691 14.44068
# Shear Modulus (GPa) = 46.77940 -115.60850 -34.41455
#
# Velocity S-wave (km/s) = 4.75422 -7.47388 -4.07777
# Velocity P-wave (km/s) = 6.09149 8.21544 3.89789
#
# Compressibility (1/GPa) = 0.06932675
#
# Stress axis : x y z
#
# Youngs Moduli (GPa) = 42.90177 42.90177 48.99551
#
# Poissons Ratio (x) = 0.00388 -0.03037
# Poissons Ratio (y) = 0.00388 -0.03037
# Poissons Ratio (z) = -0.02659 -0.02659
#
# Static dielectric constant tensor:
#      x y z
#    x 3.735240 0.000000 0.000000 
#    y 0.000000 3.735240 0.000000 
#    z 0.000000 0.000000 3.549730 
# 
# 
# High freq. dielectric constant tensor:
#      x y z
#    x 1.803850 0.000000 0.000000 
#    y 0.000000 1.803850 0.000000 
#    z 0.000000 0.000000 1.807410 
# 
# From -- ./inp_files/1043.got.cif
#   From: 2010.03.12/outbox.cif.g09.slc.cpg/sg83_1_cif.got.tgz:1043.got - 2010.04.08 20:05:18.
