data_PCOD8302642
_publ_section_title
;
Structure prediction by ZEFSAII (Michael W. Deem and Ramdas Pophale) SiO2 
 PCOD8302642
Probable space group: P 4/M
;
_chemical_formula_sum "Si O2"
_cell_formula_units_Z 64
_cell_length_a 19.295805
_cell_length_b 19.295805
_cell_length_c 8.671170
_cell_angle_alpha 90.000000
_cell_angle_beta 90.000000
_cell_angle_gamma 90.000000
_cell_volume 3228.520169
_symmetry_space_group_name_H-M "P 4/M"
_symmetry_group_IT_number 83
_symmetry_cell_setting 'tetragonal'
loop_
_space_group_symop_operation_xyz
x,y,z
-y,x,z
-x,-y,z
y,-x,z
-x,-y,-z
y,-x,-z
x,y,-z
-y,x,-z
loop_
_atom_site_type_symbol
_atom_site_label
_atom_site_fract_x
_atom_site_fract_y
_atom_site_fract_z
Si Si1 0.625599 0.336872 0.815760
Si Si2 0.197726 0.028087 0.181357
Si Si3 0.699038 0.474143 0.183488
Si Si4 0.147596 0.554805 0.177085
Si Si5 0.164731 0.875776 0.815560
Si Si6 0.199185 0.301989 0.182656
Si Si7 0.592116 0.081651 0.823142
Si Si8 0.047261 0.655461 0.322338
O O1 0.547536 0.327984 0.751127
O O2 0.652378 0.410858 0.753900
O O3 0.675970 0.275132 0.753691
O O4 0.625281 0.334785 0.000000
O O5 0.152277 0.091507 0.249512
O O6 0.277122 0.040729 0.218567
O O7 0.173705 0.953908 0.249658
O O8 0.187930 0.026631 0.000000
O O9 0.776849 0.462776 0.242238
O O10 0.697770 0.476451 0.000000
O O11 0.099569 0.487978 0.192934
O O12 0.118282 0.616956 0.279806
O O13 0.151130 0.579758 0.000000
O O14 0.227237 0.826409 0.753330
O O15 0.166569 0.875856 0.000000
O O16 0.145125 0.360776 0.235123
O O17 0.202464 0.299300 0.000000
O O18 0.604854 0.016324 0.714611
O O19 0.610693 0.062716 0.000000
O O20 0.047636 0.676705 0.500000
#
# Coordination Sequence:
#
# PCOD8302642 Si02
#       8
#     8   8   8   8   8   8   8   8
#     4   9  16  26  42  70 110 144 177 217 267 321
#     4  10  20  37  59  84 110 142 183 224 271 323
#     4   9  17  28  45  74 107 142 179 222 267 317
#     4  10  20  34  54  80 106 142 187 228 273 325
#     4   9  18  31  55  85 110 137 176 229 275 313
#     4   9  15  27  48  76 105 136 176 223 267 311
#     4  10  18  34  58  78 105 142 184 228 271 326
#     4  12  25  37  51  78 114 147 178 222 275 329
#
# _framework density 19.823325000000001
#
# number of rings (size 3 to 8) (size 9 to 14) (size 15 to 20)
#    0.000    2.250    2.500    1.500    1.750    2.500 
#    0.000    3.125    0.000    0.000    0.000    1.750 
#    0.000    0.000    0.000    1.125    0.000    1.250 
#
# Total GULP energy -793506.950452 kJ/mol
# GULP energy per Si atom -12398.546101 kJ/mol
# Density = 1.977821 g / cm^3
# Si number density = 19.823325 Si / 1000 Ang^3
#
#
#
# Elastic Constant Matrix: (Units=GPa)
#
#
# Indices 1 2 3 4 5 6 
#
# 1 126.8845 90.3027 6.1230 0.0000 0.0000 4.1497
# 2 90.3027 126.8845 6.1230 0.0000 0.0000 -4.1497
# 3 6.1230 6.1230 9.4987 0.0000 0.0000 0.0000
# 4 0.0000 0.0000 0.0000 1.7203 0.0000 0.0000
# 5 0.0000 0.0000 0.0000 0.0000 1.7203 0.0000
# 6 4.1497 -4.1497 0.0000 0.0000 0.0000 39.9768
#
#
#
# Elastic Compliance Matrix: (Units=1/GPa)
#
#
# Indices 1 2 3 4 5 6 
#
# 1 0.016387 -0.011609 -0.003080 0.000000 0.000000 -0.002906
# 2 -0.011609 0.016387 -0.003080 0.000000 0.000000 0.002906
# 3 -0.003080 -0.003080 0.109248 0.000000 0.000000 0.000000
# 4 0.000000 0.000000 0.000000 0.581302 0.000000 0.000000
# 5 0.000000 0.000000 0.000000 0.000000 0.581302 0.000000
# 6 -0.002906 0.002906 0.000000 0.000000 0.000000 0.025618
#
#
# Mechanical properties :
#
#
# Convention : Reuss Voigt Hill
#
# Bulk Modulus (GPa) = 9.39107 52.04057 30.71582
# Shear Modulus (GPa) = 3.56818 19.39808 11.48313
#
# Velocity S-wave (km/s) = 1.34309 3.13157 2.40942
# Velocity P-wave (km/s) = 2.67448 6.27573 4.82378
#
# Compressibility (1/GPa) = 0.10648414
#
# Stress axis : x y z
#
# Youngs Moduli (GPa) = 61.02545 61.02545 9.15349
#
# Poissons Ratio (x) = 0.70842 0.02819
# Poissons Ratio (y) = 0.70842 0.02819
# Poissons Ratio (z) = 0.18795 0.18795
#
# Static dielectric constant tensor:
#      x y z
#    x 3.848990 0.000000 0.000000 
#    y 0.000000 3.848990 0.000000 
#    z 0.000000 0.000000 2.888230 
# 
# 
# High freq. dielectric constant tensor:
#      x y z
#    x 1.784290 0.000000 0.000000 
#    y 0.000000 1.784290 0.000000 
#    z 0.000000 0.000000 1.696940 
# 
# From -- ./inp_files/1328.got.cif
#   From: 2010.03.12/outbox.cif.g09.slc.cpg/sg83_1_cif.got.tgz:1328.got - 2010.04.08 20:05:18.
