data_PCOD8302308
_publ_section_title
;
Structure prediction by ZEFSAII (Michael W. Deem and Ramdas Pophale) SiO2 
 PCOD8302308
Probable space group: P -4
;
_chemical_formula_sum "Si O2"
_cell_formula_units_Z 16
_cell_length_a 9.598957
_cell_length_b 9.598957
_cell_length_c 8.311666
_cell_angle_alpha 90.000000
_cell_angle_beta 90.000000
_cell_angle_gamma 90.000000
_cell_volume 765.836702
_symmetry_space_group_name_H-M "P -4"
_symmetry_group_IT_number 81
_symmetry_cell_setting 'tetragonal'
loop_
_space_group_symop_operation_xyz
x,y,z
y,-x,-z
-x,-y,z
-y,x,-z
loop_
_atom_site_type_symbol
_atom_site_label
_atom_site_fract_x
_atom_site_fract_y
_atom_site_fract_z
Si Si1 0.179637 0.887457 0.062833
Si Si2 0.689824 0.594744 0.437155
Si Si3 0.112543 0.179636 0.562833
Si Si4 0.310175 0.405256 0.062845
O O1 0.159680 0.856198 0.250000
O O2 0.323382 0.824347 0.999266
O O3 0.052766 0.816880 0.966270
O O4 0.684344 0.449220 0.531939
O O5 0.824346 0.676619 0.499266
O O6 0.704725 0.561551 0.250000
O O7 0.947234 0.183120 0.533730
O O8 0.315656 0.550780 0.968061
#
# Coordination Sequence:
#
# PCOD8302308 Si02
#       4
#     4   4   4   4
#     4  11  22  39  60  86 116 151 190 235 284 338
#     4  11  22  39  60  86 116 151 190 235 284 338
#     4  11  22  39  60  86 116 151 190 235 284 338
#     4  11  22  39  60  86 116 151 190 235 284 338
#
# _framework density 20.892181000000001
#
# number of rings (size 3 to 8) (size 9 to 14) (size 15 to 20)
#    0.000    1.000    0.000   12.000    0.000    2.000 
#    0.000   10.000    0.000    0.000    0.000    0.000 
#    0.000    0.000    0.000    0.000    0.000    0.000 
#
# Total GULP energy -198526.496206 kJ/mol
# GULP energy per Si atom -12407.906013 kJ/mol
# Density = 2.084463 g / cm^3
# Si number density = 20.892181 Si / 1000 Ang^3
#
#
#
# Elastic Constant Matrix: (Units=GPa)
#
#
# Indices 1 2 3 4 5 6 
#
# 1 23.6917 2.4033 2.8070 0.0000 0.0000 -3.5413
# 2 2.4033 23.6917 2.8070 0.0000 0.0000 3.5413
# 3 2.8070 2.8070 106.2182 0.0000 0.0000 0.0000
# 4 0.0000 0.0000 0.0000 32.7124 0.0000 0.0000
# 5 0.0000 0.0000 0.0000 0.0000 32.7124 0.0000
# 6 -3.5413 3.5413 0.0000 0.0000 0.0000 40.1255
#
#
#
# Elastic Compliance Matrix: (Units=1/GPa)
#
#
# Indices 1 2 3 4 5 6 
#
# 1 0.043468 -0.004927 -0.001018 0.000000 0.000000 0.004271
# 2 -0.004927 0.043468 -0.001018 0.000000 0.000000 -0.004271
# 3 -0.001018 -0.001018 0.009468 0.000000 0.000000 0.000000
# 4 0.000000 0.000000 0.000000 0.030569 0.000000 0.000000
# 5 0.000000 0.000000 0.000000 0.000000 0.030569 0.000000
# 6 0.004271 -0.004271 0.000000 0.000000 0.000000 0.025676
#
#
# Mechanical properties :
#
#
# Convention : Reuss Voigt Hill
#
# Bulk Modulus (GPa) = 12.12479 18.84845 15.48662
# Shear Modulus (GPa) = 22.25798 30.81568 26.53683
#
# Velocity S-wave (km/s) = 3.26755 3.84472 3.56783
# Velocity P-wave (km/s) = 4.47794 5.36195 4.93976
#
# Compressibility (1/GPa) = 0.08247562
#
# Stress axis : x y z
#
# Youngs Moduli (GPa) = 23.00559 23.00559 105.61433
#
# Poissons Ratio (x) = 0.11335 0.10757
# Poissons Ratio (y) = 0.11335 0.10757
# Poissons Ratio (z) = 0.02343 0.02343
#
# Static dielectric constant tensor:
#      x y z
#    x 3.806520 0.000000 0.000000 
#    y 0.000000 3.806520 0.000000 
#    z 0.000000 0.000000 3.932610 
# 
# 
# High freq. dielectric constant tensor:
#      x y z
#    x 1.813040 0.000000 0.000000 
#    y 0.000000 1.813040 0.000000 
#    z 0.000000 0.000000 1.838760 
# 
# From -- ./inp_files/595.got.cif
#   From: 2010.03.12/outbox.cif.g09.slc.cpg/sg81_cif.got.tgz:595.got - 2010.04.08 20:01:38.
