data_PCOD8302775
_publ_section_title
;
Structure prediction by ZEFSAII (Michael W. Deem and Ramdas Pophale) SiO2 
 PCOD8302775
Probable space group: P 4/M
;
_chemical_formula_sum "Si O2"
_cell_formula_units_Z 40
_cell_length_a 15.784290
_cell_length_b 15.784290
_cell_length_c 8.545910
_cell_angle_alpha 90.000000
_cell_angle_beta 90.000000
_cell_angle_gamma 90.000000
_cell_volume 2129.160584
_symmetry_space_group_name_H-M "P 4/M"
_symmetry_group_IT_number 83
_symmetry_cell_setting 'tetragonal'
loop_
_space_group_symop_operation_xyz
x,y,z
-y,x,z
-x,-y,z
y,-x,z
-x,-y,-z
y,-x,-z
x,y,-z
-y,x,-z
loop_
_atom_site_type_symbol
_atom_site_label
_atom_site_fract_x
_atom_site_fract_y
_atom_site_fract_z
Si Si1 0.582147 0.043719 0.183462
Si Si2 0.161969 0.177432 0.318589
Si Si3 0.764806 0.990501 0.818206
Si Si4 0.781077 0.651884 0.182738
Si Si5 0.621504 0.564734 0.319183
O O1 0.594414 0.140319 0.243469
O O2 0.500000 0.000000 0.264569
O O3 0.665177 0.988872 0.225573
O O4 0.566603 0.046817 0.000000
O O5 0.174062 0.157176 0.500000
O O6 0.195855 0.099491 0.218569
O O7 0.217411 0.259367 0.273893
O O8 0.063090 0.189156 0.281388
O O9 0.776951 0.012855 0.000000
O O10 0.694101 0.603266 0.211642
O O11 0.791545 0.672068 0.000000
O O12 0.534319 0.612593 0.279694
O O13 0.645345 0.577364 0.500000
#
# Coordination Sequence:
#
# PCOD8302775 Si02
#       5
#     8   8   8   8   8
#     4   8  16  32  53  77 105 135 169 215 268 316
#     4  11  22  37  56  79 109 144 181 220 268 325
#     4  10  20  36  57  81 109 140 178 225 274 320
#     4  10  20  34  54  80 108 141 181 225 271 319
#     4   9  19  36  55  76 107 145 181 223 278 332
#
# _framework density 18.786746000000001
#
# number of rings (size 3 to 8) (size 9 to 14) (size 15 to 20)
#    0.000    2.400    0.000    4.800    0.000    2.800 
#    0.000    5.000    0.000   20.400    0.000    0.000 
#    0.000    0.000    0.000    0.000    0.000    0.000 
#
# Total GULP energy -496013.367592 kJ/mol
# GULP energy per Si atom -12400.334190 kJ/mol
# Density = 1.874399 g / cm^3
# Si number density = 18.786746 Si / 1000 Ang^3
#
#
#
# Elastic Constant Matrix: (Units=GPa)
#
#
# Indices 1 2 3 4 5 6 
#
# 1 102.7681 54.5309 14.7425 0.0000 0.0000 16.7308
# 2 54.5309 102.7681 14.7425 0.0000 0.0000 -16.7308
# 3 14.7425 14.7425 47.0551 0.0000 0.0000 0.0000
# 4 0.0000 0.0000 0.0000 27.1234 0.0000 0.0000
# 5 0.0000 0.0000 0.0000 0.0000 27.1234 0.0000
# 6 16.7308 -16.7308 0.0000 0.0000 0.0000 32.1750
#
#
#
# Elastic Compliance Matrix: (Units=1/GPa)
#
#
# Indices 1 2 3 4 5 6 
#
# 1 0.019591 -0.012837 -0.002116 0.000000 0.000000 -0.016863
# 2 -0.012837 0.019591 -0.002116 0.000000 0.000000 0.016863
# 3 -0.002116 -0.002116 0.022578 0.000000 0.000000 0.000000
# 4 0.000000 0.000000 0.000000 0.036868 0.000000 0.000000
# 5 0.000000 0.000000 0.000000 0.000000 0.036868 0.000000
# 6 -0.016863 0.016863 0.000000 0.000000 0.000000 0.048617
#
#
# Mechanical properties :
#
#
# Convention : Reuss Voigt Hill
#
# Bulk Modulus (GPa) = 36.20384 46.73590 41.46987
# Shear Modulus (GPa) = 21.98195 28.52273 25.25234
#
# Velocity S-wave (km/s) = 3.42435 3.90068 3.67025
# Velocity P-wave (km/s) = 5.91166 6.72445 6.33111
#
# Compressibility (1/GPa) = 0.02762138
#
# Stress axis : x y z
#
# Youngs Moduli (GPa) = 51.04350 51.04350 44.29167
#
# Poissons Ratio (x) = 0.65525 0.09372
# Poissons Ratio (y) = 0.65525 0.09372
# Poissons Ratio (z) = 0.10801 0.10801
#
# Static dielectric constant tensor:
#      x y z
#    x 3.491210 0.000000 0.000000 
#    y 0.000000 3.491210 0.000000 
#    z 0.000000 0.000000 3.224810 
# 
# 
# High freq. dielectric constant tensor:
#      x y z
#    x 1.732370 0.000000 0.000000 
#    y 0.000000 1.732370 0.000000 
#    z 0.000000 0.000000 1.716940 
# 
# From -- ./inp_files/631.got.cif
#   From: 2010.03.12/outbox.cif.g09.slc.cpg/sg83_1_cif.got.tgz:631.got - 2010.04.08 20:05:18.
