data_PCOD8302330
_publ_section_title
;
Structure prediction by ZEFSAII (Michael W. Deem and Ramdas Pophale) SiO2 
 PCOD8302330
Probable space group: P -4
;
_chemical_formula_sum "Si O2"
_cell_formula_units_Z 12
_cell_length_a 5.175781
_cell_length_b 5.175781
_cell_length_c 17.365596
_cell_angle_alpha 90.000000
_cell_angle_beta 90.000000
_cell_angle_gamma 90.000000
_cell_volume 465.201897
_symmetry_space_group_name_H-M "P -4"
_symmetry_group_IT_number 81
_symmetry_cell_setting 'tetragonal'
loop_
_space_group_symop_operation_xyz
x,y,z
y,-x,-z
-x,-y,z
-y,x,-z
loop_
_atom_site_type_symbol
_atom_site_label
_atom_site_fract_x
_atom_site_fract_y
_atom_site_fract_z
Si Si1 0.500000 0.000000 0.099665
Si Si2 0.827860 0.751798 0.618436
Si Si3 0.163753 0.738842 0.210452
Si Si4 0.000000 0.000000 0.000000
Si Si5 0.500000 0.500000 0.500000
O O1 0.582872 0.236260 0.156302
O O2 0.748992 0.918889 0.049367
O O3 0.687737 0.758859 0.701228
O O4 0.606870 0.732109 0.553543
O O5 0.000000 0.500000 0.614446
O O6 0.000000 0.000000 0.601454
O O7 0.000000 0.500000 0.178540
O O8 0.000000 0.000000 0.203265
#
# Coordination Sequence:
#
# PCOD8302330 Si02
#       5
#     2   4   4   1   1
#     4  12  28  58  78 132 162 224 268 344 414 504
#     4  11  29  52  78 119 162 220 280 350 414 489
#     4  11  27  52  87 118 162 218 281 341 407 494
#     4  12  32  48  88 120 176 210 268 340 428 496
#     4  12  32  48  80 116 176 214 284 344 432 468
#
# _framework density 25.795249999999999
#
# number of rings (size 3 to 8) (size 9 to 14) (size 15 to 20)
#    0.000    0.667    3.333    0.000   16.333    4.667 
#    0.000    0.000    0.000    0.000    0.000    0.000 
#    0.000    0.000    0.000    0.000    0.000    0.000 
#
# Total GULP energy -148845.483997 kJ/mol
# GULP energy per Si atom -12403.790333 kJ/mol
# Density = 2.573654 g / cm^3
# Si number density = 25.795250 Si / 1000 Ang^3
#
#
#
# Elastic Constant Matrix: (Units=GPa)
#
#
# Indices 1 2 3 4 5 6 
#
# 1 171.7209 67.9258 77.0895 0.0000 0.0000 -6.0519
# 2 67.9258 171.7209 77.0895 0.0000 0.0000 6.0519
# 3 77.0895 77.0895 202.8817 0.0000 0.0000 0.0000
# 4 0.0000 0.0000 0.0000 -24.5212 0.0000 0.0000
# 5 0.0000 0.0000 0.0000 0.0000 -24.5212 0.0000
# 6 -6.0519 6.0519 0.0000 0.0000 0.0000 52.1053
#
#
#
# Elastic Compliance Matrix: (Units=1/GPa)
#
#
# Indices 1 2 3 4 5 6 
#
# 1 0.007645 -0.002122 -0.002099 0.000000 0.000000 0.001134
# 2 -0.002122 0.007645 -0.002099 0.000000 0.000000 -0.001134
# 3 -0.002099 -0.002099 0.006524 0.000000 0.000000 0.000000
# 4 0.000000 0.000000 0.000000 -0.040781 0.000000 0.000000
# 5 0.000000 0.000000 0.000000 0.000000 -0.040781 0.000000
# 6 0.001134 -0.001134 0.000000 0.000000 0.000000 0.019455
#
#
# Mechanical properties :
#
#
# Convention : Reuss Voigt Hill
#
# Bulk Modulus (GPa) = 108.98714 110.05922 109.52318
# Shear Modulus (GPa) = -203.27786 22.22716 -90.52535
#
# Velocity S-wave (km/s) = -8.88681 2.93862 -5.93043
# Velocity P-wave (km/s) = 7.93461 7.36702 2.08386
#
# Compressibility (1/GPa) = 0.00917539
#
# Stress axis : x y z
#
# Youngs Moduli (GPa) = 130.80800 130.80800 153.28543
#
# Poissons Ratio (x) = 0.27755 0.32168
# Poissons Ratio (y) = 0.27755 0.32168
# Poissons Ratio (z) = 0.27451 0.27451
#
# Static dielectric constant tensor:
#      x y z
#    x 4.672240 0.000000 0.000000 
#    y 0.000000 4.672240 0.000000 
#    z 0.000000 0.000000 5.384210 
# 
# 
# High freq. dielectric constant tensor:
#      x y z
#    x 2.032680 0.000000 0.000000 
#    y 0.000000 2.032680 0.000000 
#    z 0.000000 0.000000 2.052400 
# 
# From -- ./inp_files/1694.got.cif
#   From: 2010.03.12/outbox.cif.g09.slc.cpg/sg81_cif.got.tgz:1694.got - 2010.04.08 20:01:38.
