data_PCOD8302520
_publ_section_title
;
Structure prediction by ZEFSAII (Michael W. Deem and Ramdas Pophale) SiO2 
 PCOD8302520
Probable space group: I -4 
;
_chemical_formula_sum "Si O2"
_cell_formula_units_Z 48
_cell_length_a 10.075282
_cell_length_b 10.075282
_cell_length_c 24.830374
_cell_angle_alpha 90.000000
_cell_angle_beta 90.000000
_cell_angle_gamma 90.000000
_cell_volume 2520.563727
_symmetry_space_group_name_H-M "I -4 "
_symmetry_group_IT_number 82
_symmetry_cell_setting 'tetragonal'
loop_
_space_group_symop_operation_xyz
x,y,z
y,-x,-z
-x,-y,z
-y,x,-z
1/2+x,1/2+y,1/2+z
1/2+y,1/2-x,1/2-z
1/2-x,1/2-y,1/2+z
1/2-y,1/2+x,1/2-z
loop_
_atom_site_type_symbol
_atom_site_label
_atom_site_fract_x
_atom_site_fract_y
_atom_site_fract_z
Si Si1 0.000000 0.500000 0.016871
Si Si2 0.273005 0.181969 0.366379
Si Si3 0.827803 0.369378 0.748472
Si Si4 0.231865 0.989827 0.578370
Si Si5 0.000000 0.000000 0.000000
Si Si6 0.131884 0.248599 0.636185
Si Si7 0.000000 0.000000 0.500000
Si Si8 0.977457 0.261042 0.935556
O O1 0.873113 0.529964 0.054038
O O2 0.030903 0.627088 0.980968
O O3 0.297559 0.226628 0.304809
O O4 0.380819 0.242367 0.406666
O O5 0.133411 0.247259 0.381542
O O6 0.278381 0.023319 0.371967
O O7 0.823033 0.525016 0.736529
O O8 0.738929 0.333395 0.800370
O O9 0.168931 0.110020 0.610749
O O10 0.126502 0.947794 0.532933
O O11 0.949765 0.119984 0.962830
O O12 0.215137 0.365040 0.608761
#
# Coordination Sequence:
#
# PCOD8302520 Si02
#       8
#     4   8   8   8   2   8   2   8
#     4  12  24  40  60  88 118 166 202 236 292 356
#     4  11  20  39  63  91 115 152 201 247 292 347
#     4   9  18  34  64  91 110 144 198 247 290 344
#     4  12  24  38  60  89 125 153 197 246 294 347
#     4  12  28  40  56  86 136 152 196 244 304 358
#     4  11  20  39  63  91 115 152 201 247 292 347
#     4  12  20  40  56  90 112 168 200 244 280 346
#     4  12  22  42  60  87 115 165 197 242 288 353
#
# _framework density 19.043358000000001
#
# number of rings (size 3 to 8) (size 9 to 14) (size 15 to 20)
#    0.000    0.833    5.000    4.000    0.000    0.000 
#    0.000    3.333    0.000    0.000    0.000    0.000 
#    0.000    0.000    0.000    0.000    0.000    0.000 
#
# Total GULP energy -297727.165288 kJ/mol
# GULP energy per Si atom -12405.298554 kJ/mol
# Density = 1.900001 g / cm^3
# Si number density = 19.043358 Si / 1000 Ang^3
#
#
#
# Elastic Constant Matrix: (Units=GPa)
#
#
# Indices 1 2 3 4 5 6 
#
# 1 66.7064 -8.8438 21.8991 0.0000 0.0000 3.3497
# 2 -8.8438 66.7064 21.8991 0.0000 0.0000 -3.3497
# 3 21.8991 21.8991 104.1977 0.0000 0.0000 0.0000
# 4 0.0000 0.0000 0.0000 -5.3859 0.0000 0.0000
# 5 0.0000 0.0000 0.0000 0.0000 -5.3858 0.0000
# 6 3.3497 -3.3497 0.0000 0.0000 0.0000 13.3237
#
#
#
# Elastic Compliance Matrix: (Units=1/GPa)
#
#
# Indices 1 2 3 4 5 6 
#
# 1 0.017045 0.003507 -0.004319 0.000000 0.000000 -0.003404
# 2 0.003507 0.017045 -0.004319 0.000000 0.000000 0.003404
# 3 -0.004319 -0.004319 0.011413 0.000000 0.000000 0.000000
# 4 0.000000 0.000000 0.000000 -0.185671 0.000000 0.000000
# 5 0.000000 0.000000 0.000000 0.000000 -0.185672 0.000000
# 6 -0.003404 0.003404 0.000000 0.000000 0.000000 0.076766
#
#
# Mechanical properties :
#
#
# Convention : Reuss Voigt Hill
#
# Bulk Modulus (GPa) = 28.37771 34.16882 31.27326
# Shear Modulus (GPa) = -22.02014 14.02079 -3.99967
#
# Velocity S-wave (km/s) = -3.40415 2.71635 -1.45081
# Velocity P-wave (km/s) = 0.71905 5.27443 3.69477
#
# Compressibility (1/GPa) = 0.03523892
#
# Stress axis : x y z
#
# Youngs Moduli (GPa) = 58.66848 58.66847 87.62145
#
# Poissons Ratio (x) = -0.20574 0.37847
# Poissons Ratio (y) = -0.20574 0.37847
# Poissons Ratio (z) = 0.25341 0.25341
#
# Static dielectric constant tensor:
#      x y z
#    x 3.515070 0.000000 0.000000 
#    y 0.000000 3.515070 0.000000 
#    z 0.000000 0.000000 3.720360 
# 
# 
# High freq. dielectric constant tensor:
#      x y z
#    x 1.731280 0.000000 0.000000 
#    y 0.000000 1.731280 0.000000 
#    z 0.000000 0.000000 1.753080 
# 
# From -- ./inp_files/4113.got.cif
#   From: 2010.03.12/outbox.cif.g09.slc.cpg/sg82_3_cif.got.tgz:4113.got - 2010.04.08 20:02:50.
