data_PCOD8302125
_publ_section_title
;
Structure prediction by ZEFSAII (Michael W. Deem and Ramdas Pophale) SiO2 
 PCOD8302125
Probable space group: I 4
;
_chemical_formula_sum "Si O2"
_cell_formula_units_Z 44
_cell_length_a 8.122292
_cell_length_b 8.122292
_cell_length_c 30.100642
_cell_angle_alpha 90.000000
_cell_angle_beta 90.000000
_cell_angle_gamma 90.000000
_cell_volume 1985.788337
_symmetry_space_group_name_H-M "I 4"
_symmetry_group_IT_number 79
_symmetry_cell_setting 'tetragonal'
loop_
_space_group_symop_operation_xyz
x,y,z
-y,x,z
-x,-y,z
y,-x,z
1/2+x,1/2+y,1/2+z
1/2-y,1/2+x,1/2+z
1/2-x,1/2-y,1/2+z
1/2+y,1/2-x,1/2+z
loop_
_atom_site_type_symbol
_atom_site_label
_atom_site_fract_x
_atom_site_fract_y
_atom_site_fract_z
Si Si1 0.241442 0.587226 0.669850
Si Si2 0.590823 0.243966 0.894816
Si Si3 0.095261 0.253405 0.074413
Si Si4 0.000000 0.500000 0.240181
Si Si5 0.581465 0.760076 0.312314
Si Si6 0.601015 0.754547 0.478570
O O1 0.294767 0.397074 0.674471
O O2 0.152718 0.624185 0.621532
O O3 0.111903 0.618420 0.709141
O O4 0.707505 0.401828 0.889879
O O5 0.638813 0.112419 0.857289
O O6 0.613402 0.155982 0.942236
O O7 0.906192 0.206422 0.074577
O O8 0.131748 0.342831 0.027179
O O9 0.881560 0.387063 0.270766
O O10 0.392462 0.704655 0.310412
O O11 0.410037 0.709032 0.472873
#
# Coordination Sequence:
#
# PCOD8302125 Si02
#       6
#     8   8   8   4   8   8
#     4   9  18  34  56  82 114 149 184 226 274 324
#     4  11  24  40  57  81 114 148 185 232 283 334
#     4   7  12  27  51  79 111 145 182 222 264 317
#     4  12  22  36  58  86 112 140 186 236 284 330
#     4  11  24  41  60  82 111 147 186 230 281 340
#     4   9  17  32  57  86 114 147 186 227 272 325
#
# _framework density 22.157444999999999
#
# number of rings (size 3 to 8) (size 9 to 14) (size 15 to 20)
#    0.000    2.364    0.000    5.455    0.000    3.636 
#    0.000    7.273    0.000    0.000    0.000    2.545 
#    0.000    0.000    0.000    0.000    0.000    0.000 
#
# Total GULP energy -272585.325088 kJ/mol
# GULP energy per Si atom -12390.242049 kJ/mol
# Density = 2.210701 g / cm^3
# Si number density = 22.157445 Si / 1000 Ang^3
#
#
#
# Elastic Constant Matrix: (Units=GPa)
#
#
# Indices 1 2 3 4 5 6 
#
# 1 60.9459 15.9129 44.9477 0.0000 0.0000 4.4631
# 2 15.9129 60.9458 44.9477 0.0000 0.0000 -4.4631
# 3 44.9477 44.9477 218.8617 0.0000 0.0000 0.0000
# 4 0.0000 0.0000 0.0000 13.3701 0.0000 0.0000
# 5 0.0000 0.0000 0.0000 0.0000 13.3702 0.0000
# 6 4.4631 -4.4631 0.0000 0.0000 0.0000 25.7699
#
#
#
# Elastic Compliance Matrix: (Units=1/GPa)
#
#
# Indices 1 2 3 4 5 6 
#
# 1 0.020060 -0.002936 -0.003517 0.000000 0.000000 -0.003983
# 2 -0.002936 0.020060 -0.003517 0.000000 0.000000 0.003983
# 3 -0.003517 -0.003517 0.006014 0.000000 0.000000 0.000000
# 4 0.000000 0.000000 0.000000 0.074794 0.000000 0.000000
# 5 0.000000 0.000000 0.000000 0.000000 0.074793 0.000000
# 6 -0.003983 0.003983 0.000000 0.000000 0.000000 0.040184
#
#
# Mechanical properties :
#
#
# Convention : Reuss Voigt Hill
#
# Bulk Modulus (GPa) = 38.17555 61.37445 49.77500
# Shear Modulus (GPa) = 18.89828 26.16505 22.53166
#
# Velocity S-wave (km/s) = 2.92363 3.44011 3.19233
# Velocity P-wave (km/s) = 5.35382 6.59837 6.00841
#
# Compressibility (1/GPa) = 0.02619477
#
# Stress axis : x y z
#
# Youngs Moduli (GPa) = 49.85100 49.85100 166.29010
#
# Poissons Ratio (x) = 0.14634 0.58481
# Poissons Ratio (y) = 0.14634 0.58481
# Poissons Ratio (z) = 0.17532 0.17532
#
# Static dielectric constant tensor:
#      x y z
#    x 3.650420 0.000000 0.000000 
#    y 0.000000 3.650420 0.000000 
#    z 0.000000 0.000000 4.586910 
# 
# 
# High freq. dielectric constant tensor:
#      x y z
#    x 1.845180 0.000000 0.000000 
#    y 0.000000 1.845180 0.000000 
#    z 0.000000 0.000000 1.901060 
# 
# From -- ./inp_files/2090.got.cif
#   From: 2010.03.12/outbox.cif.g09.slc.cpg/sg79_cif.got.tgz:2090.got - 2010.04.16 16:38:49.
