data_PCOD8302209
_publ_section_title
;
Structure prediction by ZEFSAII (Michael W. Deem and Ramdas Pophale) SiO2 
 PCOD8302209
Probable space group: I 41
;
_chemical_formula_sum "Si O2"
_cell_formula_units_Z 48
_cell_length_a 17.160267
_cell_length_b 17.160267
_cell_length_c 7.811425
_cell_angle_alpha 90.000000
_cell_angle_beta 90.000000
_cell_angle_gamma 90.000000
_cell_volume 2300.267530
_symmetry_space_group_name_H-M "I 41"
_symmetry_group_IT_number 80
_symmetry_cell_setting 'tetragonal'
loop_
_space_group_symop_operation_xyz
x,y,z
-y,1/2+x,1/4+z
-x,-y,z
y,1/2-x,1/4+z
1/2+x,1/2+y,1/2+z
1/2-y,x,3/4+z
1/2-x,1/2-y,1/2+z
1/2+y,-x,3/4+z
loop_
_atom_site_type_symbol
_atom_site_label
_atom_site_fract_x
_atom_site_fract_y
_atom_site_fract_z
Si Si1 0.126579 0.023615 0.987130
Si Si2 0.186100 0.668332 0.810148
Si Si3 0.618438 0.537474 0.870951
Si Si4 0.878769 0.476799 0.240218
Si Si5 0.212008 0.977499 0.668603
Si Si6 0.875133 0.470747 0.620333
O O1 0.194645 0.025433 0.844528
O O2 0.154304 0.049302 0.178364
O O3 0.055948 0.079470 0.931515
O O4 0.096396 0.935238 0.979066
O O5 0.180876 0.734251 0.662546
O O6 0.108239 0.672703 0.925933
O O7 0.186923 0.580600 0.728657
O O8 0.572951 0.456892 0.862864
O O9 0.559285 0.606471 0.932667
O O10 0.684819 0.531871 0.012172
O O11 0.802804 0.464554 0.124569
O O12 0.842724 0.480779 0.430049
#
# Coordination Sequence:
#
# PCOD8302209 Si02
#       6
#     8   8   8   8   8   8
#     4   9  19  38  56  80 118 150 187 243 286 352
#     4  11  25  37  51  79 124 170 203 239 288 353
#     4   8  17  35  56  81 109 141 194 243 290 333
#     4   9  19  34  58  85 111 150 193 237 295 344
#     4  11  21  34  58  88 108 148 199 242 291 349
#     4   8  17  35  55  74 110 156 190 237 284 340
#
# _framework density 20.867138000000001
#
# number of rings (size 3 to 8) (size 9 to 14) (size 15 to 20)
#    0.000    2.667    0.000    3.000    2.333   10.667 
#    0.000    3.333    0.000    0.000    8.667    0.000 
#    0.000    0.000    0.000    0.000    0.000    0.000 
#
# Total GULP energy -297313.786448 kJ/mol
# GULP energy per Si atom -12388.074435 kJ/mol
# Density = 2.081964 g / cm^3
# Si number density = 20.867138 Si / 1000 Ang^3
#
#
#
# Elastic Constant Matrix: (Units=GPa)
#
#
# Indices 1 2 3 4 5 6 
#
# 1 65.3693 23.8026 38.6358 0.0000 0.0000 -2.5610
# 2 23.8026 65.3693 38.6358 0.0000 0.0000 2.5610
# 3 38.6358 38.6358 98.3916 0.0000 0.0000 0.0000
# 4 0.0000 0.0000 0.0000 26.3853 0.0000 0.0000
# 5 0.0000 0.0000 0.0000 0.0000 26.3853 0.0000
# 6 -2.5610 2.5610 0.0000 0.0000 0.0000 19.8667
#
#
#
# Elastic Compliance Matrix: (Units=1/GPa)
#
#
# Indices 1 2 3 4 5 6 
#
# 1 0.020722 -0.003724 -0.006675 0.000000 0.000000 0.003151
# 2 -0.003724 0.020722 -0.006675 0.000000 0.000000 -0.003151
# 3 -0.006675 -0.006675 0.015406 0.000000 0.000000 0.000000
# 4 0.000000 0.000000 0.000000 0.037900 0.000000 0.000000
# 5 0.000000 0.000000 0.000000 0.000000 0.037900 0.000000
# 6 0.003151 -0.003151 0.000000 0.000000 0.000000 0.051148
#
#
# Mechanical properties :
#
#
# Convention : Reuss Voigt Hill
#
# Bulk Modulus (GPa) = 44.04711 47.91985 45.98348
# Shear Modulus (GPa) = 22.17176 23.06454 22.61815
#
# Velocity S-wave (km/s) = 3.26317 3.32822 3.29585
# Velocity P-wave (km/s) = 5.94574 6.14683 6.04712
#
# Compressibility (1/GPa) = 0.02270297
#
# Stress axis : x y z
#
# Youngs Moduli (GPa) = 48.25747 48.25747 64.91185
#
# Poissons Ratio (x) = 0.17970 0.43327
# Poissons Ratio (y) = 0.17970 0.43327
# Poissons Ratio (z) = 0.32211 0.32211
#
# Static dielectric constant tensor:
#      x y z
#    x 3.664880 0.000000 0.000000 
#    y 0.000000 3.664880 0.000000 
#    z 0.000000 0.000000 3.986250 
# 
# 
# High freq. dielectric constant tensor:
#      x y z
#    x 1.789680 0.000000 0.000000 
#    y 0.000000 1.789680 0.000000 
#    z 0.000000 0.000000 1.823460 
# 
# From -- ./inp_files/659.got.cif
#   From: 2010.03.12/outbox.cif.g09.slc.cpg/sg80_cif.got.tgz:659.got - 2010.04.08 20:00:04.
