data_PCOD8302983
_publ_section_title
;
Structure prediction by ZEFSAII (Michael W. Deem and Ramdas Pophale) SiO2 
 PCOD8302983
Probable space group: P 4/M
;
_chemical_formula_sum "Si O2"
_cell_formula_units_Z 32
_cell_length_a 8.232066
_cell_length_b 8.232066
_cell_length_c 20.865425
_cell_angle_alpha 90.000000
_cell_angle_beta 90.000000
_cell_angle_gamma 90.000000
_cell_volume 1413.985391
_symmetry_space_group_name_H-M "P 4/M"
_symmetry_group_IT_number 83
_symmetry_cell_setting 'tetragonal'
loop_
_space_group_symop_operation_xyz
x,y,z
-y,x,z
-x,-y,z
y,-x,z
-x,-y,-z
y,-x,-z
x,y,-z
-y,x,-z
loop_
_atom_site_type_symbol
_atom_site_label
_atom_site_fract_x
_atom_site_fract_y
_atom_site_fract_z
Si Si1 0.257364 0.618926 0.638298
Si Si2 0.907129 0.251995 0.000000
Si Si3 0.105261 0.754689 0.239185
Si Si4 0.739488 0.381941 0.500000
Si Si5 0.596498 0.750091 0.119293
O O1 0.287211 0.427302 0.646399
O O2 0.129995 0.678714 0.690743
O O3 0.174505 0.659192 0.568175
O O4 0.872839 0.358610 0.937353
O O5 0.094453 0.205912 0.000000
O O6 0.161613 0.624328 0.186865
O O7 0.916531 0.789791 0.229930
O O8 0.712115 0.572156 0.500000
O O9 0.408791 0.707087 0.113651
#
# Coordination Sequence:
#
# PCOD8302983 Si02
#       5
#     8   4   8   4   8
#     4   9  17  32  56  83 108 138 180 228 277 330
#     4  11  24  41  62  90 122 153 184 219 264 320
#     4  11  24  39  54  77 111 149 187 227 275 330
#     4   7  12  26  50  79 108 136 172 223 276 325
#     4  11  24  41  62  88 114 143 185 232 274 321
#
# _framework density 22.631067000000002
#
# number of rings (size 3 to 8) (size 9 to 14) (size 15 to 20)
#    0.000    2.000    0.000    5.250    0.000   13.000 
#    0.000    1.250    0.000    6.000    0.000    0.000 
#    0.000    0.000    0.000    0.000    0.000    0.000 
#
# Total GULP energy -396741.537860 kJ/mol
# GULP energy per Si atom -12398.173058 kJ/mol
# Density = 2.257956 g / cm^3
# Si number density = 22.631067 Si / 1000 Ang^3
#
#
#
# Elastic Constant Matrix: (Units=GPa)
#
#
# Indices 1 2 3 4 5 6 
#
# 1 20.2417 -6.9238 6.4244 0.0000 0.0000 0.7003
# 2 -6.9238 20.2417 6.4244 0.0000 0.0000 -0.7003
# 3 6.4244 6.4244 158.5099 0.0000 0.0000 0.0000
# 4 0.0000 0.0000 0.0000 -5.8816 0.0000 0.0000
# 5 0.0000 0.0000 0.0000 0.0000 -5.8816 0.0000
# 6 0.7003 -0.7003 0.0000 0.0000 0.0000 30.6371
#
#
#
# Elastic Compliance Matrix: (Units=1/GPa)
#
#
# Indices 1 2 3 4 5 6 
#
# 1 0.057499 0.020644 -0.003167 0.000000 0.000000 -0.000842
# 2 0.020644 0.057499 -0.003167 0.000000 0.000000 0.000842
# 3 -0.003167 -0.003167 0.006565 0.000000 0.000000 0.000000
# 4 0.000000 0.000000 0.000000 -0.170022 0.000000 0.000000
# 5 0.000000 0.000000 0.000000 0.000000 -0.170022 0.000000
# 6 -0.000842 0.000842 0.000000 0.000000 0.000000 0.032679
#
#
# Mechanical properties :
#
#
# Convention : Reuss Voigt Hill
#
# Bulk Modulus (GPa) = 6.65857 23.42701 15.04279
# Shear Modulus (GPa) = -30.42100 16.64600 -6.88750
#
# Velocity S-wave (km/s) = -3.67033 2.71502 -1.74642
# Velocity P-wave (km/s) = 3.87468 4.49473 1.61082
#
# Compressibility (1/GPa) = 0.15018238
#
# Stress axis : x y z
#
# Youngs Moduli (GPa) = 17.39169 17.39169 152.31183
#
# Poissons Ratio (x) = -0.35903 0.48239
# Poissons Ratio (y) = -0.35903 0.48239
# Poissons Ratio (z) = 0.05508 0.05508
#
# Static dielectric constant tensor:
#      x y z
#    x 3.876410 0.000000 0.000000 
#    y 0.000000 3.876410 0.000000 
#    z 0.000000 0.000000 4.435650 
# 
# 
# High freq. dielectric constant tensor:
#      x y z
#    x 1.879550 0.000000 0.000000 
#    y 0.000000 1.879550 0.000000 
#    z 0.000000 0.000000 1.914240 
# 
# From -- ./inp_files/2810.got.cif
#   From: 2010.03.12/outbox.cif.g09.slc.cpg/sg83_2_cif.got.tgz:2810.got - 2010.04.08 20:05:18.
