data_PCOD8302862
_publ_section_title
;
Structure prediction by ZEFSAII (Michael W. Deem and Ramdas Pophale) SiO2 
 PCOD8302862
Probable space group: P 4/M
;
_chemical_formula_sum "Si O2"
_cell_formula_units_Z 48
_cell_length_a 8.131576
_cell_length_b 8.131576
_cell_length_c 33.318028
_cell_angle_alpha 90.000000
_cell_angle_beta 90.000000
_cell_angle_gamma 90.000000
_cell_volume 2203.072247
_symmetry_space_group_name_H-M "P 4/M"
_symmetry_group_IT_number 83
_symmetry_cell_setting 'tetragonal'
loop_
_space_group_symop_operation_xyz
x,y,z
-y,x,z
-x,-y,z
y,-x,z
-x,-y,-z
y,-x,-z
x,y,-z
-y,x,-z
loop_
_atom_site_type_symbol
_atom_site_label
_atom_site_fract_x
_atom_site_fract_y
_atom_site_fract_z
Si Si1 0.919784 0.742345 0.044415
Si Si2 0.236949 0.575445 0.824926
Si Si3 0.255442 0.385778 0.454805
Si Si4 0.414451 0.758114 0.305095
Si Si5 0.500000 0.000000 0.241860
Si Si6 0.500000 0.000000 0.891908
Si Si7 0.749266 0.098247 0.379468
O O1 0.107448 0.797490 0.049610
O O2 0.885478 0.612237 0.079473
O O3 0.895349 0.664022 0.000000
O O4 0.298104 0.386441 0.824282
O O5 0.122975 0.606925 0.786028
O O6 0.125758 0.604449 0.864386
O O7 0.422539 0.286317 0.447275
O O8 0.190395 0.356427 0.500000
O O9 0.117672 0.321759 0.424309
O O10 0.294801 0.603737 0.300482
O O11 0.378669 0.891272 0.270102
O O12 0.388790 0.843428 0.348118
O O13 0.908917 0.210193 0.372707
#
# Coordination Sequence:
#
# PCOD8302862 Si02
#       7
#     8   8   8   8   4   4   8
#     4   9  18  32  50  76 113 155 198 245 297 350
#     4  10  22  39  58  83 115 149 186 231 288 352
#     4   9  19  37  60  85 114 153 203 252 295 343
#     4  11  23  40  64  90 116 149 189 233 284 347
#     4  11  22  38  63  86 108 140 183 228 276 341
#     4  11  19  32  57  84 110 148 199 248 289 337
#     4  11  24  39  56  85 124 159 194 241 293 343
#
# _framework density 21.787756999999999
#
# number of rings (size 3 to 8) (size 9 to 14) (size 15 to 20)
#    0.000    1.833    0.000    5.250    0.000    5.333 
#    0.000    2.500    0.000   18.500    0.000    7.000 
#    0.000    0.000    0.000    0.000    0.000    0.000 
#
# Total GULP energy -595218.621273 kJ/mol
# GULP energy per Si atom -12400.387943 kJ/mol
# Density = 2.173817 g / cm^3
# Si number density = 21.787757 Si / 1000 Ang^3
#
#
#
# Elastic Constant Matrix: (Units=GPa)
#
#
# Indices 1 2 3 4 5 6 
#
# 1 65.0942 9.7581 40.3389 0.0000 0.0000 -0.7484
# 2 9.7581 65.0942 40.3389 0.0000 0.0000 0.7484
# 3 40.3389 40.3389 164.6540 0.0000 0.0000 0.0000
# 4 0.0000 0.0000 0.0000 32.2311 0.0000 0.0000
# 5 0.0000 0.0000 0.0000 0.0000 32.2311 0.0000
# 6 -0.7484 0.7484 0.0000 0.0000 0.0000 26.6200
#
#
#
# Elastic Compliance Matrix: (Units=1/GPa)
#
#
# Indices 1 2 3 4 5 6 
#
# 1 0.018119 0.000034 -0.004447 0.000000 0.000000 0.000508
# 2 0.000034 0.018119 -0.004447 0.000000 0.000000 -0.000508
# 3 -0.004447 -0.004447 0.008252 0.000000 0.000000 0.000000
# 4 0.000000 0.000000 0.000000 0.031026 0.000000 0.000000
# 5 0.000000 0.000000 0.000000 0.000000 0.031026 0.000000
# 6 0.000508 -0.000508 0.000000 0.000000 0.000000 0.037594
#
#
# Mechanical properties :
#
#
# Convention : Reuss Voigt Hill
#
# Bulk Modulus (GPa) = 37.35624 52.85713 45.10669
# Shear Modulus (GPa) = 29.27716 31.84354 30.56035
#
# Velocity S-wave (km/s) = 3.66969 3.82715 3.74924
# Velocity P-wave (km/s) = 5.92775 6.62134 6.28412
#
# Compressibility (1/GPa) = 0.02676929
#
# Stress axis : x y z
#
# Youngs Moduli (GPa) = 55.19022 55.19022 121.17568
#
# Poissons Ratio (x) = -0.00188 0.53891
# Poissons Ratio (y) = -0.00188 0.53891
# Poissons Ratio (z) = 0.24545 0.24545
#
# Static dielectric constant tensor:
#      x y z
#    x 3.770940 0.000000 0.000000 
#    y 0.000000 3.770940 0.000000 
#    z 0.000000 0.000000 4.108370 
# 
# 
# High freq. dielectric constant tensor:
#      x y z
#    x 1.842790 0.000000 0.000000 
#    y 0.000000 1.842790 0.000000 
#    z 0.000000 0.000000 1.875320 
# 
# From -- ./inp_files/3467.got.cif
#   From: 2010.03.12/outbox.cif.g09.slc.cpg/sg83_2_cif.got.tgz:3467.got - 2010.04.08 20:05:18.
