data_PCOD8302811
_publ_section_title
;
Structure prediction by ZEFSAII (Michael W. Deem and Ramdas Pophale) SiO2 
 PCOD8302811
Probable space group: P 4/M
;
_chemical_formula_sum "Si O2"
_cell_formula_units_Z 56
_cell_length_a 21.132827
_cell_length_b 21.132827
_cell_length_c 9.372616
_cell_angle_alpha 90.000000
_cell_angle_beta 90.000000
_cell_angle_gamma 90.000000
_cell_volume 4185.776349
_symmetry_space_group_name_H-M "P 4/M"
_symmetry_group_IT_number 83
_symmetry_cell_setting 'tetragonal'
loop_
_space_group_symop_operation_xyz
x,y,z
-y,x,z
-x,-y,z
y,-x,z
-x,-y,-z
y,-x,-z
x,y,-z
-y,x,-z
loop_
_atom_site_type_symbol
_atom_site_label
_atom_site_fract_x
_atom_site_fract_y
_atom_site_fract_z
Si Si1 0.372630 0.364485 0.751681
Si Si2 0.575573 0.997852 0.839052
Si Si3 0.440665 0.243808 0.833662
Si Si4 0.444215 0.587524 0.000000
Si Si5 0.879394 0.428659 0.339009
Si Si6 0.253156 0.432124 0.334738
Si Si7 0.113721 0.421664 0.342561
Si Si8 0.448923 0.409035 0.500000
O O1 0.385246 0.296869 0.824357
O O2 0.303112 0.374552 0.684683
O O3 0.428479 0.370452 0.637405
O O4 0.376048 0.422118 0.861376
O O5 0.600910 0.939241 0.744672
O O6 0.500000 0.000000 0.840367
O O7 0.603629 0.062414 0.770527
O O8 0.601696 0.991666 0.000000
O O9 0.412758 0.183388 0.750831
O O10 0.506762 0.266835 0.763913
O O11 0.452833 0.227713 0.000000
O O12 0.412745 0.518945 0.000000
O O13 0.874808 0.400318 0.500000
O O14 0.888852 0.503027 0.348524
O O15 0.253653 0.455008 0.500000
O O16 0.184718 0.402037 0.295719
O O17 0.097429 0.394615 0.500000
O O18 0.523790 0.414032 0.500000
#
# Coordination Sequence:
#
# PCOD8302811 Si02
#       8
#     8   8   8   4   8   8   8   4
#     4  12  23  33  46  59  74  96 123 160 204 248
#     4   9  15  24  39  62  84 100 116 137 169 212
#     4  11  22  33  45  59  76  97 122 156 197 240
#     4  11  22  36  46  56  72  90 118 160 212 256
#     4   9  17  28  44  60  78 100 120 144 174 218
#     4  10  21  34  47  59  74  97 125 157 193 237
#     4   8  15  27  41  58  77  97 119 143 176 219
#     4  11  22  34  48  60  68  86 122 166 206 248
#
# _framework density 13.378641999999999
#
# number of rings (size 3 to 8) (size 9 to 14) (size 15 to 20)
#    0.000    2.000    1.429    4.714    3.000    6.286 
#    0.000    0.000    0.000    0.000    0.000    0.000 
#    0.000    0.000    0.000    0.000    0.000    0.000 
#
# Total GULP energy -694181.333399 kJ/mol
# GULP energy per Si atom -12396.095239 kJ/mol
# Density = 1.334819 g / cm^3
# Si number density = 13.378642 Si / 1000 Ang^3
#
#
#
# Elastic Constant Matrix: (Units=GPa)
#
#
# Indices 1 2 3 4 5 6 
#
# 1 370.3654 -295.2205 27.5130 0.0000 0.0000 36.3352
# 2 -295.2205 370.3654 27.5130 0.0000 0.0000 -36.3352
# 3 27.5130 27.5130 103.5907 0.0000 0.0000 0.0000
# 4 0.0000 0.0000 0.0000 18.1972 0.0000 0.0000
# 5 0.0000 0.0000 0.0000 0.0000 18.1972 0.0000
# 6 36.3352 -36.3352 0.0000 0.0000 0.0000 8.4360
#
#
#
# Elastic Compliance Matrix: (Units=1/GPa)
#
#
# Indices 1 2 3 4 5 6 
#
# 1 0.009678 0.006842 -0.004388 0.000000 0.000000 -0.012216
# 2 0.006842 0.009678 -0.004388 0.000000 0.000000 0.012216
# 3 -0.004388 -0.004388 0.011984 0.000000 0.000000 0.000000
# 4 0.000000 0.000000 0.000000 0.054953 0.000000 0.000000
# 5 0.000000 0.000000 0.000000 0.000000 0.054953 0.000000
# 6 -0.012216 0.012216 0.000000 0.000000 0.000000 0.223774
#
#
# Mechanical properties :
#
#
# Convention : Reuss Voigt Hill
#
# Bulk Modulus (GPa) = 36.39766 40.43696 38.41731
# Shear Modulus (GPa) = 13.22588 81.26713 47.24650
#
# Velocity S-wave (km/s) = 3.14758 7.80229 5.94908
# Velocity P-wave (km/s) = 6.36196 10.55738 8.71587
#
# Compressibility (1/GPa) = 0.02747429
#
# Stress axis : x y z
#
# Youngs Moduli (GPa) = 103.32247 103.32247 83.44385
#
# Poissons Ratio (x) = -0.70695 0.36613
# Poissons Ratio (y) = -0.70695 0.36613
# Poissons Ratio (z) = 0.45336 0.45336
#
# Static dielectric constant tensor:
#      x y z
#    x 2.493040 0.000000 0.000000 
#    y 0.000000 2.493040 0.000000 
#    z 0.000000 0.000000 2.934520 
# 
# 
# High freq. dielectric constant tensor:
#      x y z
#    x 1.467990 0.000000 0.000000 
#    y 0.000000 1.467990 0.000000 
#    z 0.000000 0.000000 1.534090 
# 
# From -- ./inp_files/1248.got.cif
#   From: 2010.03.12/outbox.cif.g09.slc.cpg/sg83_1_cif.got.tgz:1248.got - 2010.04.08 20:05:18.
