data_PCOD8302805
_publ_section_title
;
Structure prediction by ZEFSAII (Michael W. Deem and Ramdas Pophale) SiO2 
 PCOD8302805
Probable space group: P 4/M
;
_chemical_formula_sum "Si O2"
_cell_formula_units_Z 40
_cell_length_a 15.079587
_cell_length_b 15.079587
_cell_length_c 8.837542
_cell_angle_alpha 90.000000
_cell_angle_beta 90.000000
_cell_angle_gamma 90.000000
_cell_volume 2009.603531
_symmetry_space_group_name_H-M "P 4/M"
_symmetry_group_IT_number 83
_symmetry_cell_setting 'tetragonal'
loop_
_space_group_symop_operation_xyz
x,y,z
-y,x,z
-x,-y,z
y,-x,z
-x,-y,-z
y,-x,-z
x,y,-z
-y,x,-z
loop_
_atom_site_type_symbol
_atom_site_label
_atom_site_fract_x
_atom_site_fract_y
_atom_site_fract_z
Si Si1 0.586021 0.945343 0.321519
Si Si2 0.089714 0.301628 0.176618
Si Si3 0.247972 0.577726 0.179633
Si Si4 0.380684 0.727128 0.178639
Si Si5 0.127350 0.932581 0.672597
O O1 0.587633 0.933354 0.500000
O O2 0.590632 0.848935 0.248265
O O3 0.500000 0.000000 0.266036
O O4 0.670120 0.002191 0.267913
O O5 0.175516 0.354151 0.238212
O O6 0.107187 0.198580 0.211521
O O7 0.074566 0.318141 0.000000
O O8 0.315793 0.651414 0.246084
O O9 0.289200 0.482446 0.226958
O O10 0.238065 0.584184 0.000000
O O11 0.369476 0.724590 0.000000
O O12 0.157746 0.916879 0.500000
O O13 0.036520 0.882441 0.705179
#
# Coordination Sequence:
#
# PCOD8302805 Si02
#       5
#     8   8   8   8   8
#     4  11  23  39  59  85 114 150 194 236 289 349
#     4  11  22  36  56  86 118 151 193 242 291 344
#     4  10  20  39  62  88 120 154 192 239 291 348
#     4   9  20  36  59  88 118 151 193 239 290 345
#     4   9  20  39  58  79 113 155 195 237 290 348
#
# _framework density 19.904423999999999
#
# number of rings (size 3 to 8) (size 9 to 14) (size 15 to 20)
#    0.000    2.000    2.000    1.800    2.800    2.000 
#    0.000    5.000    0.000    0.000    0.000    1.400 
#    0.000    0.000    0.000    0.000    0.000    0.000 
#
# Total GULP energy -496029.050801 kJ/mol
# GULP energy per Si atom -12400.726270 kJ/mol
# Density = 1.985912 g / cm^3
# Si number density = 19.904424 Si / 1000 Ang^3
#
#
#
# Elastic Constant Matrix: (Units=GPa)
#
#
# Indices 1 2 3 4 5 6 
#
# 1 124.1629 62.1584 28.1859 0.0000 0.0000 -9.2994
# 2 62.1584 124.1629 28.1859 0.0000 0.0000 9.2994
# 3 28.1859 28.1859 37.3875 0.0000 0.0000 0.0000
# 4 0.0000 0.0000 0.0000 23.3393 0.0000 0.0000
# 5 0.0000 0.0000 0.0000 0.0000 23.3393 0.0000
# 6 -9.2994 9.2994 0.0000 0.0000 0.0000 36.0486
#
#
#
# Elastic Compliance Matrix: (Units=1/GPa)
#
#
# Indices 1 2 3 4 5 6 
#
# 1 0.012217 -0.005264 -0.005242 0.000000 0.000000 0.004509
# 2 -0.005264 0.012217 -0.005242 0.000000 0.000000 -0.004509
# 3 -0.005242 -0.005242 0.034650 0.000000 0.000000 0.000000
# 4 0.000000 0.000000 0.000000 0.042846 0.000000 0.000000
# 5 0.000000 0.000000 0.000000 0.000000 0.042846 0.000000
# 6 0.004509 -0.004509 0.000000 0.000000 0.000000 0.030067
#
#
# Mechanical properties :
#
#
# Convention : Reuss Voigt Hill
#
# Bulk Modulus (GPa) = 36.24604 58.08595 47.16600
# Shear Modulus (GPa) = 23.19822 27.69100 25.44461
#
# Velocity S-wave (km/s) = 3.41762 3.73392 3.57927
# Velocity P-wave (km/s) = 5.81576 6.91631 6.38977
#
# Compressibility (1/GPa) = 0.02758922
#
# Stress axis : x y z
#
# Youngs Moduli (GPa) = 81.85497 81.85497 28.85984
#
# Poissons Ratio (x) = 0.43087 0.15128
# Poissons Ratio (y) = 0.43087 0.15128
# Poissons Ratio (z) = 0.42906 0.42906
#
# Static dielectric constant tensor:
#      x y z
#    x 3.747230 0.000000 0.000000 
#    y 0.000000 3.747230 0.000000 
#    z 0.000000 0.000000 3.299090 
# 
# 
# High freq. dielectric constant tensor:
#      x y z
#    x 1.783970 0.000000 0.000000 
#    y 0.000000 1.783970 0.000000 
#    z 0.000000 0.000000 1.749160 
# 
# From -- ./inp_files/635.got.cif
#   From: 2010.03.12/outbox.cif.g09.slc.cpg/sg83_1_cif.got.tgz:635.got - 2010.04.08 20:05:18.
