data_PCOD8302128
_publ_section_title
;
Structure prediction by ZEFSAII (Michael W. Deem and Ramdas Pophale) SiO2 
 PCOD8302128
Probable space group: I 4
;
_chemical_formula_sum "Si O2"
_cell_formula_units_Z 36
_cell_length_a 8.149869
_cell_length_b 8.149869
_cell_length_c 24.272187
_cell_angle_alpha 90.000000
_cell_angle_beta 90.000000
_cell_angle_gamma 90.000000
_cell_volume 1612.167513
_symmetry_space_group_name_H-M "I 4"
_symmetry_group_IT_number 79
_symmetry_cell_setting 'tetragonal'
loop_
_space_group_symop_operation_xyz
x,y,z
-y,x,z
-x,-y,z
y,-x,z
1/2+x,1/2+y,1/2+z
1/2-y,1/2+x,1/2+z
1/2-x,1/2-y,1/2+z
1/2+y,1/2-x,1/2+z
loop_
_atom_site_type_symbol
_atom_site_label
_atom_site_fract_x
_atom_site_fract_y
_atom_site_fract_z
Si Si1 0.240330 0.418975 0.903900
Si Si2 0.745957 0.912685 0.730119
Si Si3 0.000000 0.500000 0.814759
Si Si4 0.748066 0.902987 0.606535
Si Si5 0.088837 0.255707 0.005491
O O1 0.392603 0.296135 0.901443
O O2 0.117913 0.387189 0.852701
O O3 0.139109 0.388225 0.959648
O O4 0.677630 0.882973 0.668434
O O5 0.898586 0.794931 0.739071
O O6 0.607795 0.879388 0.775835
O O7 0.608649 0.842200 0.564835
O O8 0.908435 0.792911 0.596346
O O9 0.901004 0.206082 0.998915
#
# Coordination Sequence:
#
# PCOD8302128 Si02
#       5
#     8   8   4   8   8
#     4  11  24  41  61  87 119 156 198 243 296 355
#     4   9  20  38  60  88 120 155 195 237 287 348
#     4  12  22  38  62  88 116 156 200 248 290 334
#     4   9  19  37  61  89 120 154 193 237 289 352
#     4  11  24  40  60  89 121 153 194 245 299 353
#
# _framework density 22.330186999999999
#
# number of rings (size 3 to 8) (size 9 to 14) (size 15 to 20)
#    0.000    1.778    0.000    5.333    0.000    8.000 
#    0.000    2.222    0.000    2.667    0.000    0.000 
#    0.000    0.000    0.000    0.000    0.000    0.000 
#
# Total GULP energy -223228.873776 kJ/mol
# GULP energy per Si atom -12401.604099 kJ/mol
# Density = 2.227936 g / cm^3
# Si number density = 22.330187 Si / 1000 Ang^3
#
#
#
# Elastic Constant Matrix: (Units=GPa)
#
#
# Indices 1 2 3 4 5 6 
#
# 1 77.2230 26.3874 54.4618 0.0000 0.0000 -5.4481
# 2 26.3874 77.2230 54.4618 0.0000 0.0000 5.4481
# 3 54.4618 54.4618 178.1578 0.0000 0.0000 0.0000
# 4 0.0000 0.0000 0.0000 31.6766 0.0000 0.0000
# 5 0.0000 0.0000 0.0000 0.0000 31.6766 0.0000
# 6 -5.4481 5.4481 0.0000 0.0000 0.0000 31.6182
#
#
#
# Elastic Compliance Matrix: (Units=1/GPa)
#
#
# Indices 1 2 3 4 5 6 
#
# 1 0.017324 -0.003102 -0.004348 0.000000 0.000000 0.003519
# 2 -0.003102 0.017324 -0.004348 0.000000 0.000000 -0.003519
# 3 -0.004348 -0.004348 0.008271 0.000000 0.000000 0.000000
# 4 0.000000 0.000000 0.000000 0.031569 0.000000 0.000000
# 5 0.000000 0.000000 0.000000 0.000000 0.031569 0.000000
# 6 0.003519 -0.003519 0.000000 0.000000 0.000000 0.032840
#
#
# Mechanical properties :
#
#
# Convention : Reuss Voigt Hill
#
# Bulk Modulus (GPa) = 51.74688 67.02508 59.38598
# Shear Modulus (GPa) = 29.59758 32.14713 30.87235
#
# Velocity S-wave (km/s) = 3.64462 3.79836 3.72228
# Velocity P-wave (km/s) = 6.39804 7.02263 6.71760
#
# Compressibility (1/GPa) = 0.01932484
#
# Stress axis : x y z
#
# Youngs Moduli (GPa) = 57.72383 57.72382 120.90320
#
# Poissons Ratio (x) = 0.17905 0.52564
# Poissons Ratio (y) = 0.17905 0.52564
# Poissons Ratio (z) = 0.25096 0.25096
#
# Static dielectric constant tensor:
#      x y z
#    x 3.849440 0.000000 0.000000 
#    y 0.000000 3.849440 0.000000 
#    z 0.000000 0.000000 4.125840 
# 
# 
# High freq. dielectric constant tensor:
#      x y z
#    x 1.872220 0.000000 0.000000 
#    y 0.000000 1.872220 0.000000 
#    z 0.000000 0.000000 1.892790 
# 
# From -- ./inp_files/1717.got.cif
#   From: 2010.03.12/outbox.cif.g09.slc.cpg/sg79_cif.got.tgz:1717.got - 2010.04.16 16:38:49.
