data_PCOD8302796
_publ_section_title
;
Structure prediction by ZEFSAII (Michael W. Deem and Ramdas Pophale) SiO2 
 PCOD8302796
Probable space group: P 4/M
;
_chemical_formula_sum "Si O2"
_cell_formula_units_Z 52
_cell_length_a 16.642025
_cell_length_b 16.642025
_cell_length_c 9.399192
_cell_angle_alpha 90.000000
_cell_angle_beta 90.000000
_cell_angle_gamma 90.000000
_cell_volume 2603.171982
_symmetry_space_group_name_H-M "P 4/M"
_symmetry_group_IT_number 83
_symmetry_cell_setting 'tetragonal'
loop_
_space_group_symop_operation_xyz
x,y,z
-y,x,z
-x,-y,z
y,-x,z
-x,-y,-z
y,-x,-z
x,y,-z
-y,x,-z
loop_
_atom_site_type_symbol
_atom_site_label
_atom_site_fract_x
_atom_site_fract_y
_atom_site_fract_z
Si Si1 0.384469 0.921897 0.334827
Si Si2 0.487187 0.631628 0.665226
Si Si3 0.378096 0.107042 0.333190
Si Si4 0.104259 0.802344 0.651305
Si Si5 0.997223 0.866583 0.000000
Si Si6 0.494119 0.797830 0.828128
Si Si7 0.794125 0.059100 0.268477
O O1 0.402571 0.900932 0.500000
O O2 0.430939 0.862535 0.230612
O O3 0.292445 0.903932 0.297404
O O4 0.407181 0.015217 0.305482
O O5 0.413422 0.571215 0.697645
O O6 0.484713 0.658490 0.500000
O O7 0.477186 0.708845 0.766964
O O8 0.391302 0.127750 0.500000
O O9 0.286165 0.116946 0.286127
O O10 0.421213 0.170851 0.231637
O O11 0.149701 0.810692 0.500000
O O12 0.141775 0.870071 0.750468
O O13 0.009198 0.815256 0.615642
O O14 0.995434 0.803029 0.871937
O O15 0.076840 0.919145 0.000000
O O16 0.492637 0.795501 0.000000
#
# Coordination Sequence:
#
# PCOD8302796 Si02
#       7
#     8   8   8   8   4   8   8
#     4  10  22  40  63  87 113 155 207 255 299 346
#     4   9  20  42  71  96 118 152 196 239 287 344
#     4   9  20  40  61  83 115 157 204 252 300 346
#     4  10  20  36  58  84 112 149 201 258 301 339
#     4  11  22  38  54  80 119 169 209 238 303 379
#     4  12  25  39  60  95 127 157 191 232 294 363
#     4  11  21  37  56  83 115 155 202 251 299 354
#
# _framework density 19.975629000000001
#
# number of rings (size 3 to 8) (size 9 to 14) (size 15 to 20)
#    0.000    1.769    1.538    4.615    1.077    4.615 
#    5.538    3.077    0.000    0.000    0.000    0.000 
#    0.000    0.000    0.000    0.000    0.000    0.000 
#
# Total GULP energy -644222.802919 kJ/mol
# GULP energy per Si atom -12388.900056 kJ/mol
# Density = 1.993016 g / cm^3
# Si number density = 19.975629 Si / 1000 Ang^3
#
#
#
# Elastic Constant Matrix: (Units=GPa)
#
#
# Indices 1 2 3 4 5 6 
#
# 1 50.7243 4.6825 19.4345 0.0000 0.0000 -20.9273
# 2 4.6825 50.7243 19.4345 0.0000 0.0000 20.9273
# 3 19.4345 19.4345 109.2310 0.0000 0.0000 0.0000
# 4 0.0000 0.0000 0.0000 -1.2258 0.0000 0.0000
# 5 0.0000 0.0000 0.0000 0.0000 -1.2258 0.0000
# 6 -20.9273 20.9273 0.0000 0.0000 0.0000 -111.0910
#
#
#
# Elastic Compliance Matrix: (Units=1/GPa)
#
#
# Indices 1 2 3 4 5 6 
#
# 1 0.019583 0.001039 -0.003669 0.000000 0.000000 -0.003493
# 2 0.001039 0.019583 -0.003669 0.000000 0.000000 0.003493
# 3 -0.003669 -0.003669 0.010461 0.000000 0.000000 0.000000
# 4 0.000000 0.000000 0.000000 -0.815787 0.000000 0.000000
# 5 0.000000 0.000000 0.000000 0.000000 -0.815787 0.000000
# 6 -0.003493 0.003493 0.000000 0.000000 0.000000 -0.007686
#
#
# Mechanical properties :
#
#
# Convention : Reuss Voigt Hill
#
# Bulk Modulus (GPa) = 27.00616 33.08695 30.04656
# Shear Modulus (GPa) = -3.19552 -11.56664 -7.38108
#
# Velocity S-wave (km/s) = -1.26617 -2.40893 -1.92433
# Velocity P-wave (km/s) = 3.37807 2.97697 3.18384
#
# Compressibility (1/GPa) = 0.03702859
#
# Stress axis : x y z
#
# Youngs Moduli (GPa) = 51.06459 51.06459 95.59727
#
# Poissons Ratio (x) = -0.05307 0.35076
# Poissons Ratio (y) = -0.05307 0.35076
# Poissons Ratio (z) = 0.18736 0.18736
#
# Static dielectric constant tensor:
#      x y z
#    x 3.588040 0.000000 0.000000 
#    y 0.000000 3.588040 0.000000 
#    z 0.000000 0.000000 3.601270 
# 
# 
# High freq. dielectric constant tensor:
#      x y z
#    x 1.778830 0.000000 0.000000 
#    y 0.000000 1.778830 0.000000 
#    z 0.000000 0.000000 1.776210 
# 
# From -- ./inp_files/955.got.cif
#   From: 2010.03.12/outbox.cif.g09.slc.cpg/sg83_1_cif.got.tgz:955.got - 2010.04.08 20:05:18.
