data_PCOD8302027
_publ_section_title
;
Structure prediction by ZEFSAII (Michael W. Deem and Ramdas Pophale) SiO2 
 PCOD8302027
Probable space group: P 43
;
_chemical_formula_sum "Si O2"
_cell_formula_units_Z 24
_cell_length_a 11.425214
_cell_length_b 11.425214
_cell_length_c 9.519286
_cell_angle_alpha 90.000000
_cell_angle_beta 90.000000
_cell_angle_gamma 90.000000
_cell_volume 1242.604900
_symmetry_space_group_name_H-M "P 43"
_symmetry_group_IT_number 78
_symmetry_cell_setting 'tetragonal'
loop_
_space_group_symop_operation_xyz
x,y,z
-y,x,3/4+z
-x,-y,1/2+z
y,-x,1/4+z
loop_
_atom_site_type_symbol
_atom_site_label
_atom_site_fract_x
_atom_site_fract_y
_atom_site_fract_z
Si Si1 0.249816 0.633561 0.741980
Si Si2 0.252408 0.363130 0.236962
Si Si3 0.382590 0.999874 0.548685
Si Si4 0.377353 0.998562 0.884804
Si Si5 0.246037 0.362755 0.730680
Si Si6 0.640815 0.751240 0.477077
O O1 0.337748 0.702181 0.642241
O O2 0.116575 0.685332 0.747025
O O3 0.246659 0.499413 0.698083
O O4 0.301708 0.648399 0.897155
O O5 0.265306 0.501332 0.202422
O O6 0.327916 0.278905 0.137161
O O7 0.116800 0.321103 0.239016
O O8 0.508530 0.004001 0.479752
O O9 0.398810 0.997544 0.717618
O O10 0.308314 0.880151 0.931977
O O11 0.314216 0.119259 0.931674
O O12 0.278505 0.340380 0.892185
#
# Coordination Sequence:
#
# PCOD8302027 Si02
#       6
#     4   4   4   4   4   4
#     4  11  22  37  61  87 122 161 197 247 308 354
#     4  11  24  39  60  91 126 158 203 248 301 367
#     4  10  22  39  61  86 118 162 213 246 289 361
#     4  10  22  39  61  86 118 162 213 246 289 361
#     4  11  22  37  61  87 122 161 197 247 308 354
#     4  11  24  39  60  91 126 158 203 248 301 367
#
# _framework density 19.314264999999999
#
# number of rings (size 3 to 8) (size 9 to 14) (size 15 to 20)
#    0.000    1.333    3.333    2.000   14.000    4.000 
#    0.000    0.000    0.000    6.000    0.000    0.000 
#    0.000    0.000    0.000    0.000    0.000    0.000 
#
# Total GULP energy -297388.128502 kJ/mol
# GULP energy per Si atom -12391.172021 kJ/mol
# Density = 1.927030 g / cm^3
# Si number density = 19.314265 Si / 1000 Ang^3
#
#
#
# Elastic Constant Matrix: (Units=GPa)
#
#
# Indices 1 2 3 4 5 6 
#
# 1 88.8907 44.4752 24.5250 0.0000 0.0000 -2.5458
# 2 44.4752 88.8907 24.5250 0.0000 0.0000 2.5458
# 3 24.5250 24.5250 79.5752 0.0000 0.0000 0.0000
# 4 0.0000 0.0000 0.0000 32.5622 0.0000 0.0000
# 5 0.0000 0.0000 0.0000 0.0000 32.5622 0.0000
# 6 -2.5458 2.5458 0.0000 0.0000 0.0000 6.0991
#
#
#
# Elastic Compliance Matrix: (Units=1/GPa)
#
#
# Indices 1 2 3 4 5 6 
#
# 1 0.016051 -0.007595 -0.002606 0.000000 0.000000 0.009870
# 2 -0.007595 0.016051 -0.002606 0.000000 0.000000 -0.009870
# 3 -0.002606 -0.002606 0.014173 0.000000 0.000000 0.000000
# 4 0.000000 0.000000 0.000000 0.030710 0.000000 0.000000
# 5 0.000000 0.000000 0.000000 0.000000 0.030710 0.000000
# 6 0.009870 -0.009870 0.000000 0.000000 0.000000 0.172199
#
#
# Mechanical properties :
#
#
# Convention : Reuss Voigt Hill
#
# Bulk Modulus (GPa) = 48.39958 49.37856 48.88907
# Shear Modulus (GPa) = 16.00523 25.16677 20.58600
#
# Velocity S-wave (km/s) = 2.88179 3.61365 3.26827
# Velocity P-wave (km/s) = 6.01551 6.55992 6.29361
#
# Compressibility (1/GPa) = 0.02066134
#
# Stress axis : x y z
#
# Youngs Moduli (GPa) = 62.29972 62.29972 70.55524
#
# Poissons Ratio (x) = 0.47315 0.18389
# Poissons Ratio (y) = 0.47315 0.18389
# Poissons Ratio (z) = 0.16238 0.16238
#
# Static dielectric constant tensor:
#      x y z
#    x 3.917690 0.000000 0.000000 
#    y 0.000000 3.917690 0.000000 
#    z 0.000000 0.000000 3.516270 
# 
# 
# High freq. dielectric constant tensor:
#      x y z
#    x 1.739060 0.000000 0.000000 
#    y 0.000000 1.739060 0.000000 
#    z 0.000000 0.000000 1.769320 
# 
# From -- ./inp_files/524.got.cif
#   From: 2010.03.12/outbox.cif.g09.slc.cpg/sg78_cif.got.tgz:524.got - 2010.04.16 16:37:20.
