data_PCOD8302749
_publ_section_title
;
Structure prediction by ZEFSAII (Michael W. Deem and Ramdas Pophale) SiO2 
 PCOD8302749
Probable space group: P 4/M
;
_chemical_formula_sum "Si O2"
_cell_formula_units_Z 64
_cell_length_a 19.676295
_cell_length_b 19.676295
_cell_length_c 9.045736
_cell_angle_alpha 90.000000
_cell_angle_beta 90.000000
_cell_angle_gamma 90.000000
_cell_volume 3502.116258
_symmetry_space_group_name_H-M "P 4/M"
_symmetry_group_IT_number 83
_symmetry_cell_setting 'tetragonal'
loop_
_space_group_symop_operation_xyz
x,y,z
-y,x,z
-x,-y,z
y,-x,z
-x,-y,-z
y,-x,-z
x,y,-z
-y,x,-z
loop_
_atom_site_type_symbol
_atom_site_label
_atom_site_fract_x
_atom_site_fract_y
_atom_site_fract_z
Si Si1 0.998823 0.649456 0.173001
Si Si2 0.564313 0.132427 0.826808
Si Si3 0.593574 0.447035 0.824517
Si Si4 0.139345 0.589101 0.824608
Si Si5 0.240426 0.916141 0.326569
Si Si6 0.716390 0.354151 0.176183
Si Si7 0.676040 0.214731 0.674107
Si Si8 0.047257 0.095055 0.675772
O O1 0.943287 0.591229 0.207921
O O2 0.977211 0.718494 0.251978
O O3 0.072619 0.627873 0.236418
O O4 0.002891 0.663668 0.000000
O O5 0.487876 0.136543 0.767381
O O6 0.604071 0.190446 0.737610
O O7 0.570457 0.149400 0.000000
O O8 0.591977 0.525361 0.768125
O O9 0.661038 0.409197 0.765857
O O10 0.593921 0.446737 0.000000
O O11 0.208791 0.623841 0.768261
O O12 0.136763 0.588618 0.000000
O O13 0.244170 0.929145 0.500000
O O14 0.268894 0.842548 0.284174
O O15 0.163838 0.918940 0.263969
O O16 0.699595 0.282635 0.247466
O O17 0.713762 0.347526 0.000000
O O18 0.669962 0.226630 0.500000
O O19 0.047081 0.095129 0.500000
O O20 0.969496 0.089957 0.733827
#
# Coordination Sequence:
#
# PCOD8302749 Si02
#       8
#     8   8   8   8   8   8   8   8
#     4   9  17  31  50  74 103 131 162 201 246 294
#     4   9  17  32  56  76  94 129 170 206 246 295
#     4   8  15  28  48  74  98 120 156 208 253 286
#     4   9  18  31  50  78 104 127 164 211 251 291
#     4   9  18  32  50  71  96 130 166 198 241 294
#     4  10  20  32  51  75 100 131 167 206 248 301
#     4  10  21  35  48  69 103 133 162 204 249 299
#     4   8  14  26  46  71  93 115 155 207 245 276
#
# _framework density 18.274664999999999
#
# number of rings (size 3 to 8) (size 9 to 14) (size 15 to 20)
#    0.000    3.000    0.000    1.500    1.750    3.000 
#    0.000    3.125    0.000    3.750    0.000    1.750 
#    0.000    0.000    0.000    0.000    0.000    0.000 
#
# Total GULP energy -793381.179555 kJ/mol
# GULP energy per Si atom -12396.580931 kJ/mol
# Density = 1.823307 g / cm^3
# Si number density = 18.274665 Si / 1000 Ang^3
#
#
#
# Elastic Constant Matrix: (Units=GPa)
#
#
# Indices 1 2 3 4 5 6 
#
# 1 115.6954 48.8231 18.6055 0.0000 0.0000 -8.8471
# 2 48.8231 115.6954 18.6055 0.0000 0.0000 8.8471
# 3 18.6055 18.6055 19.1802 0.0000 0.0000 0.0000
# 4 0.0000 0.0000 0.0000 16.3006 0.0000 0.0000
# 5 0.0000 0.0000 0.0000 0.0000 16.3006 0.0000
# 6 -8.8471 8.8471 0.0000 0.0000 0.0000 23.6660
#
#
#
# Elastic Compliance Matrix: (Units=1/GPa)
#
#
# Indices 1 2 3 4 5 6 
#
# 1 0.012191 -0.004404 -0.007553 0.000000 0.000000 0.006204
# 2 -0.004404 0.012191 -0.007553 0.000000 0.000000 -0.006204
# 3 -0.007553 -0.007553 0.066791 0.000000 0.000000 0.000000
# 4 0.000000 0.000000 0.000000 0.061348 0.000000 0.000000
# 5 0.000000 0.000000 0.000000 0.000000 0.061348 0.000000
# 6 0.006204 -0.006204 0.000000 0.000000 0.000000 0.046893
#
#
# Mechanical properties :
#
#
# Convention : Reuss Voigt Hill
#
# Bulk Modulus (GPa) = 19.17509 46.95993 33.06751
# Shear Modulus (GPa) = 15.76452 22.22255 18.99354
#
# Velocity S-wave (km/s) = 2.94027 3.49095 3.22737
# Velocity P-wave (km/s) = 4.69493 6.48085 5.65879
#
# Compressibility (1/GPa) = 0.05215099
#
# Stress axis : x y z
#
# Youngs Moduli (GPa) = 82.02705 82.02705 14.97202
#
# Poissons Ratio (x) = 0.36127 0.11309
# Poissons Ratio (y) = 0.36127 0.11309
# Poissons Ratio (z) = 0.61959 0.61959
#
# Static dielectric constant tensor:
#      x y z
#    x 3.638790 0.000000 0.000000 
#    y 0.000000 3.638790 0.000000 
#    z 0.000000 0.000000 2.930750 
# 
# 
# High freq. dielectric constant tensor:
#      x y z
#    x 1.715790 0.000000 0.000000 
#    y 0.000000 1.715790 0.000000 
#    z 0.000000 0.000000 1.661320 
# 
# From -- ./inp_files/2068.got.cif
#   From: 2010.03.12/outbox.cif.g09.slc.cpg/sg83_2_cif.got.tgz:2068.got - 2010.04.08 20:05:18.
