data_PCOD8302522
_publ_section_title
;
Structure prediction by ZEFSAII (Michael W. Deem and Ramdas Pophale) SiO2 
 PCOD8302522
Probable space group: I -4 
;
_chemical_formula_sum "Si O2"
_cell_formula_units_Z 34
_cell_length_a 11.854643
_cell_length_b 11.854643
_cell_length_c 12.485651
_cell_angle_alpha 90.000000
_cell_angle_beta 90.000000
_cell_angle_gamma 90.000000
_cell_volume 1754.640507
_symmetry_space_group_name_H-M "I -4 "
_symmetry_group_IT_number 82
_symmetry_cell_setting 'tetragonal'
loop_
_space_group_symop_operation_xyz
x,y,z
y,-x,-z
-x,-y,z
-y,x,-z
1/2+x,1/2+y,1/2+z
1/2+y,1/2-x,1/2-z
1/2-x,1/2-y,1/2+z
1/2-y,1/2+x,1/2-z
loop_
_atom_site_type_symbol
_atom_site_label
_atom_site_fract_x
_atom_site_fract_y
_atom_site_fract_z
Si Si1 0.342119 0.628900 0.643423
Si Si2 0.956900 0.129805 0.365839
Si Si3 0.000000 0.000000 0.000000
Si Si4 0.834831 0.192110 0.581829
Si Si5 0.679043 0.982090 0.253272
O O1 0.387008 0.661325 0.760621
O O2 0.448793 0.599241 0.571376
O O3 0.275659 0.730169 0.586401
O O4 0.261382 0.519026 0.656445
O O5 0.875761 0.167618 0.461907
O O6 0.072990 0.201082 0.364911
O O7 0.000000 0.000000 0.375879
O O8 0.938150 0.249491 0.646211
O O9 0.593740 0.888387 0.207446
#
# Coordination Sequence:
#
# PCOD8302522 Si02
#       5
#     8   8   2   8   8
#     4  11  24  37  63  89 124 168 207 270 328 391
#     4  12  20  40  62  91 126 163 215 268 310 382
#     4  12  24  44  56  86 128 160 208 260 344 394
#     4  11  21  36  64  91 118 170 223 262 316 387
#     4   9  18  34  56  88 125 161 210 269 315 373
#
# _framework density 19.377191
#
# number of rings (size 3 to 8) (size 9 to 14) (size 15 to 20)
#    0.000    1.176    5.882    0.000    0.000    7.529 
#    0.000    0.000    0.000    3.529    0.000    0.000 
#    0.000    0.000    0.000    0.000    0.000    0.000 
#
# Total GULP energy -210751.496448 kJ/mol
# GULP energy per Si atom -12397.146850 kJ/mol
# Density = 1.933309 g / cm^3
# Si number density = 19.377191 Si / 1000 Ang^3
#
#
#
# Elastic Constant Matrix: (Units=GPa)
#
#
# Indices 1 2 3 4 5 6 
#
# 1 98.4308 44.9358 52.1576 0.0000 0.0000 -3.0876
# 2 44.9358 98.4309 52.1576 0.0000 0.0000 3.0876
# 3 52.1576 52.1576 111.0091 0.0000 0.0000 0.0000
# 4 0.0000 0.0000 0.0000 31.9800 0.0000 0.0000
# 5 0.0000 0.0000 0.0000 0.0000 31.9800 0.0000
# 6 -3.0876 3.0876 0.0000 0.0000 0.0000 28.7007
#
#
#
# Elastic Compliance Matrix: (Units=1/GPa)
#
#
# Indices 1 2 3 4 5 6 
#
# 1 0.014763 -0.004165 -0.004980 0.000000 0.000000 0.002036
# 2 -0.004165 0.014763 -0.004980 0.000000 0.000000 -0.002036
# 3 -0.004980 -0.004980 0.013688 0.000000 0.000000 0.000000
# 4 0.000000 0.000000 0.000000 0.031270 0.000000 0.000000
# 5 0.000000 0.000000 0.000000 0.000000 0.031270 0.000000
# 6 0.002036 -0.002036 0.000000 0.000000 0.000000 0.035281
#
#
# Mechanical properties :
#
#
# Convention : Reuss Voigt Hill
#
# Bulk Modulus (GPa) = 66.81898 67.37476 67.09687
# Shear Modulus (GPa) = 28.69091 29.10677 28.89884
#
# Velocity S-wave (km/s) = 3.85210 3.87992 3.86603
# Velocity P-wave (km/s) = 7.37178 7.41062 7.39122
#
# Compressibility (1/GPa) = 0.01496581
#
# Stress axis : x y z
#
# Youngs Moduli (GPa) = 67.73520 67.73520 73.05861
#
# Poissons Ratio (x) = 0.28212 0.36381
# Poissons Ratio (y) = 0.28212 0.36381
# Poissons Ratio (z) = 0.33730 0.33730
#
# Static dielectric constant tensor:
#      x y z
#    x 3.728870 0.000000 0.000000 
#    y 0.000000 3.728870 0.000000 
#    z 0.000000 0.000000 3.383550 
# 
# 
# High freq. dielectric constant tensor:
#      x y z
#    x 1.755200 0.000000 0.000000 
#    y 0.000000 1.755200 0.000000 
#    z 0.000000 0.000000 1.742990 
# 
# From -- ./inp_files/1532.got.cif
#   From: 2010.03.12/outbox.cif.g09.slc.cpg/sg82_1_cif.got.tgz:1532.got - 2010.04.08 20:02:50.
