data_PCOD8302327
_publ_section_title
;
Structure prediction by ZEFSAII (Michael W. Deem and Ramdas Pophale) SiO2 
 PCOD8302327
Probable space group: P -4
;
_chemical_formula_sum "Si O2"
_cell_formula_units_Z 12
_cell_length_a 5.196364
_cell_length_b 5.196364
_cell_length_c 17.105110
_cell_angle_alpha 90.000000
_cell_angle_beta 90.000000
_cell_angle_gamma 90.000000
_cell_volume 461.875581
_symmetry_space_group_name_H-M "P -4"
_symmetry_group_IT_number 81
_symmetry_cell_setting 'tetragonal'
loop_
_space_group_symop_operation_xyz
x,y,z
y,-x,-z
-x,-y,z
-y,x,-z
loop_
_atom_site_type_symbol
_atom_site_label
_atom_site_fract_x
_atom_site_fract_y
_atom_site_fract_z
Si Si1 0.345093 0.266108 0.109348
Si Si2 0.500000 0.000000 0.595048
Si Si3 0.156670 0.759608 0.726211
Si Si4 0.000000 0.000000 0.000000
Si Si5 0.500000 0.500000 0.500000
O O1 0.500000 0.500000 0.071210
O O2 0.290360 0.344537 0.200105
O O3 0.500000 0.000000 0.108926
O O4 0.092502 0.233186 0.055842
O O5 0.286995 0.862427 0.647842
O O6 0.604420 0.754705 0.545807
O O7 0.000000 0.500000 0.703963
O O8 0.000000 0.000000 0.759639
#
# Coordination Sequence:
#
# PCOD8302327 Si02
#       5
#     4   2   4   1   1
#     4  11  29  50  81 118 165 217 284 346 417 488
#     4  12  30  52  84 122 168 216 274 336 420 498
#     4  11  26  51  84 121 158 219 278 345 405 496
#     4  12  28  52  76 120 168 222 280 352 428 472
#     4  12  32  52  84 128 168 218 260 348 420 504
#
# _framework density 25.981024000000001
#
# number of rings (size 3 to 8) (size 9 to 14) (size 15 to 20)
#    0.000    0.667    1.667    2.000   23.333    0.000 
#    0.000    0.000    0.000    0.000    0.000    0.000 
#    0.000    0.000    0.000    0.000    0.000    0.000 
#
# Total GULP energy -148684.831061 kJ/mol
# GULP energy per Si atom -12390.402588 kJ/mol
# Density = 2.592189 g / cm^3
# Si number density = 25.981024 Si / 1000 Ang^3
#
#
#
# Elastic Constant Matrix: (Units=GPa)
#
#
# Indices 1 2 3 4 5 6 
#
# 1 163.1874 56.9166 59.4597 0.0000 0.0000 -9.4107
# 2 56.9166 163.1874 59.4597 0.0000 0.0000 9.4107
# 3 59.4597 59.4597 164.8627 0.0000 0.0000 0.0000
# 4 0.0000 0.0000 0.0000 -430.8470 0.0000 0.0000
# 5 0.0000 0.0000 0.0000 0.0000 -430.8470 0.0000
# 6 -9.4107 9.4107 0.0000 0.0000 0.0000 58.9288
#
#
#
# Elastic Compliance Matrix: (Units=1/GPa)
#
#
# Indices 1 2 3 4 5 6 
#
# 1 0.007663 -0.002020 -0.002035 0.000000 0.000000 0.001546
# 2 -0.002020 0.007663 -0.002035 0.000000 0.000000 -0.001546
# 3 -0.002035 -0.002035 0.007534 0.000000 0.000000 0.000000
# 4 0.000000 0.000000 0.000000 -0.002321 0.000000 0.000000
# 5 0.000000 0.000000 0.000000 0.000000 -0.002321 0.000000
# 6 0.001546 -0.001546 0.000000 0.000000 0.000000 0.017464
#
#
# Mechanical properties :
#
#
# Convention : Reuss Voigt Hill
#
# Bulk Modulus (GPa) = 93.64394 93.65661 93.65027
# Shear Modulus (GPa) = 97.23253 -139.52628 -21.14688
#
# Velocity S-wave (km/s) = 6.12419 -7.33619 -2.85605
# Velocity P-wave (km/s) = 9.28057 5.96936 5.02473
#
# Compressibility (1/GPa) = 0.01067875
#
# Stress axis : x y z
#
# Youngs Moduli (GPa) = 130.49124 130.49124 132.73736
#
# Poissons Ratio (x) = 0.26365 0.27014
# Poissons Ratio (y) = 0.26365 0.27014
# Poissons Ratio (z) = 0.26557 0.26557
#
# Static dielectric constant tensor:
#      x y z
#    x 5.130360 0.000000 0.000000 
#    y 0.000000 5.130360 0.000000 
#    z 0.000000 0.000000 5.030150 
# 
# 
# High freq. dielectric constant tensor:
#      x y z
#    x 2.039640 0.000000 0.000000 
#    y 0.000000 2.039640 0.000000 
#    z 0.000000 0.000000 2.062910 
# 
# From -- ./inp_files/1693.got.cif
#   From: 2010.03.12/outbox.cif.g09.slc.cpg/sg81_cif.got.tgz:1693.got - 2010.04.08 20:01:38.
