data_PCOD8302319
_publ_section_title
;
Structure prediction by ZEFSAII (Michael W. Deem and Ramdas Pophale) SiO2 
 PCOD8302319
Probable space group: P -4
;
_chemical_formula_sum "Si O2"
_cell_formula_units_Z 23
_cell_length_a 9.022158
_cell_length_b 9.022158
_cell_length_c 13.275398
_cell_angle_alpha 90.000000
_cell_angle_beta 90.000000
_cell_angle_gamma 90.000000
_cell_volume 1080.608569
_symmetry_space_group_name_H-M "P -4"
_symmetry_group_IT_number 81
_symmetry_cell_setting 'tetragonal'
loop_
_space_group_symop_operation_xyz
x,y,z
y,-x,-z
-x,-y,z
-y,x,-z
loop_
_atom_site_type_symbol
_atom_site_label
_atom_site_fract_x
_atom_site_fract_y
_atom_site_fract_z
Si Si1 0.338758 0.953662 0.717997
Si Si2 0.833635 0.160248 0.157339
Si Si3 0.845715 0.306830 0.805385
Si Si4 0.961577 0.755596 0.500560
Si Si5 0.364978 0.310040 0.993755
Si Si6 0.500000 0.000000 0.341200
Si Si7 0.000000 0.000000 0.000000
O O1 0.283839 0.800185 0.766275
O O2 0.342574 0.937365 0.598363
O O3 0.500000 0.000000 0.759416
O O4 0.229132 0.087530 0.745998
O O5 0.770121 0.005880 0.195624
O O6 0.714484 0.269715 0.107468
O O7 0.956927 0.138627 0.069817
O O8 0.814258 0.351541 0.920131
O O9 0.862159 0.448829 0.730719
O O10 0.947664 0.641530 0.593495
O O11 0.122151 0.832486 0.496562
O O12 0.315096 0.465379 0.042583
#
# Coordination Sequence:
#
# PCOD8302319 Si02
#       7
#     4   4   4   4   4   2   1
#     4  12  24  40  67 101 137 176 230 288 352 415
#     4  12  22  41  64 100 135 176 229 287 333 406
#     4  12  24  42  69 103 134 183 233 284 347 410
#     4  11  24  44  71  97 131 175 228 291 348 408
#     4  11  25  44  65  96 143 189 225 272 344 421
#     4  12  24  44  70 102 138 172 228 296 352 414
#     4  12  20  36  64  96 138 160 224 284 324 384
#
# _framework density 21.284302
#
# number of rings (size 3 to 8) (size 9 to 14) (size 15 to 20)
#    0.000    0.348    6.087    3.130    2.435    0.000 
#    1.565    0.000    0.000    4.696    0.000    0.000 
#    0.000    0.000    0.000    0.000    0.000    0.000 
#
# Total GULP energy -285205.830014 kJ/mol
# GULP energy per Si atom -12400.253479 kJ/mol
# Density = 2.123586 g / cm^3
# Si number density = 21.284302 Si / 1000 Ang^3
#
#
#
# Elastic Constant Matrix: (Units=GPa)
#
#
# Indices 1 2 3 4 5 6 
#
# 1 95.9579 33.6566 21.1985 0.0000 0.0000 1.0001
# 2 33.6566 95.9579 21.1985 0.0000 0.0000 -1.0001
# 3 21.1985 21.1985 93.3397 0.0000 0.0000 0.0000
# 4 0.0000 0.0000 0.0000 37.2965 0.0000 0.0000
# 5 0.0000 0.0000 0.0000 0.0000 37.2965 0.0000
# 6 1.0001 -1.0001 0.0000 0.0000 0.0000 35.9222
#
#
#
# Elastic Compliance Matrix: (Units=1/GPa)
#
#
# Indices 1 2 3 4 5 6 
#
# 1 0.012200 -0.003866 -0.001893 0.000000 0.000000 -0.000447
# 2 -0.003866 0.012200 -0.001893 0.000000 0.000000 0.000447
# 3 -0.001893 -0.001893 0.011573 0.000000 0.000000 0.000000
# 4 0.000000 0.000000 0.000000 0.026812 0.000000 0.000000
# 5 0.000000 0.000000 0.000000 0.000000 0.026812 0.000000
# 6 -0.000447 0.000447 0.000000 0.000000 0.000000 0.027863
#
#
# Mechanical properties :
#
#
# Convention : Reuss Voigt Hill
#
# Bulk Modulus (GPa) = 48.37768 48.59587 48.48678
# Shear Modulus (GPa) = 35.80307 36.04982 35.92644
#
# Velocity S-wave (km/s) = 4.10583 4.11996 4.11290
# Velocity P-wave (km/s) = 6.72724 6.74636 6.73681
#
# Compressibility (1/GPa) = 0.02067069
#
# Stress axis : x y z
#
# Youngs Moduli (GPa) = 81.96819 81.96819 86.40561
#
# Poissons Ratio (x) = 0.31685 0.16355
# Poissons Ratio (y) = 0.31685 0.16355
# Poissons Ratio (z) = 0.15515 0.15515
#
# Static dielectric constant tensor:
#      x y z
#    x 3.915850 0.000000 0.000000 
#    y 0.000000 3.915850 0.000000 
#    z 0.000000 0.000000 3.936370 
# 
# 
# High freq. dielectric constant tensor:
#      x y z
#    x 1.831540 0.000000 0.000000 
#    y 0.000000 1.831540 0.000000 
#    z 0.000000 0.000000 1.846030 
# 
# From -- ./inp_files/1636.got.cif
#   From: 2010.03.12/outbox.cif.g09.slc.cpg/sg81_cif.got.tgz:1636.got - 2010.04.08 20:01:38.
