data_PCOD8302224
_publ_section_title
;
Structure prediction by ZEFSAII (Michael W. Deem and Ramdas Pophale) SiO2 
 PCOD8302224
Probable space group: I 41
;
_chemical_formula_sum "Si O2"
_cell_formula_units_Z 40
_cell_length_a 18.859743
_cell_length_b 18.859743
_cell_length_c 5.155577
_cell_angle_alpha 90.000000
_cell_angle_beta 90.000000
_cell_angle_gamma 90.000000
_cell_volume 1833.786699
_symmetry_space_group_name_H-M "I 41"
_symmetry_group_IT_number 80
_symmetry_cell_setting 'tetragonal'
loop_
_space_group_symop_operation_xyz
x,y,z
-y,1/2+x,1/4+z
-x,-y,z
y,1/2-x,1/4+z
1/2+x,1/2+y,1/2+z
1/2-y,x,3/4+z
1/2-x,1/2-y,1/2+z
1/2+y,-x,3/4+z
loop_
_atom_site_type_symbol
_atom_site_label
_atom_site_fract_x
_atom_site_fract_y
_atom_site_fract_z
Si Si1 0.064980 0.386555 0.174160
Si Si2 0.374916 0.970260 0.491689
Si Si3 0.001726 0.285978 0.765208
Si Si4 0.650858 0.788527 0.992424
Si Si5 0.903537 0.061918 0.232529
O O1 0.134358 0.341212 0.252963
O O2 0.022437 0.419993 0.424221
O O3 0.090097 0.452439 0.005698
O O4 0.009990 0.334885 0.021610
O O5 0.400826 0.914482 0.706416
O O6 0.292136 0.972393 0.556743
O O7 0.397422 0.947853 0.202571
O O8 0.079661 0.279038 0.650011
O O9 0.942819 0.321701 0.576387
O O10 0.711277 0.824697 0.160144
#
# Coordination Sequence:
#
# PCOD8302224 Si02
#       5
#     8   8   8   8   8
#     4  11  25  44  70 103 143 186 241 289 346 426
#     4  12  27  43  75 102 144 183 232 294 360 407
#     4  11  26  47  68 104 140 187 241 289 360 426
#     4  11  26  41  63  99 153 199 238 278 340 424
#     4  11  27  44  70 106 137 180 235 297 348 420
#
# _framework density 21.812788999999999
#
# number of rings (size 3 to 8) (size 9 to 14) (size 15 to 20)
#    0.000    0.800    2.000    3.000   22.400    0.000 
#    0.000    0.000    0.000    2.400    0.000    0.000 
#    0.000    0.000    0.000    0.000    0.000    0.000 
#
# Total GULP energy -247781.845486 kJ/mol
# GULP energy per Si atom -12389.092274 kJ/mol
# Density = 2.176314 g / cm^3
# Si number density = 21.812789 Si / 1000 Ang^3
#
#
#
# Elastic Constant Matrix: (Units=GPa)
#
#
# Indices 1 2 3 4 5 6 
#
# 1 102.5102 64.4577 31.7396 0.0000 0.0000 -9.6969
# 2 64.4577 102.5102 31.7396 0.0000 0.0000 9.6969
# 3 31.7396 31.7396 94.6165 0.0000 0.0000 0.0000
# 4 0.0000 0.0000 0.0000 31.7734 0.0000 0.0000
# 5 0.0000 0.0000 0.0000 0.0000 31.7734 0.0000
# 6 -9.6969 9.6969 0.0000 0.0000 0.0000 29.1315
#
#
#
# Elastic Compliance Matrix: (Units=1/GPa)
#
#
# Indices 1 2 3 4 5 6 
#
# 1 0.019257 -0.012392 -0.002303 0.000000 0.000000 0.010535
# 2 -0.012392 0.019257 -0.002303 0.000000 0.000000 -0.010535
# 3 -0.002303 -0.002303 0.012114 0.000000 0.000000 0.000000
# 4 0.000000 0.000000 0.000000 0.031473 0.000000 0.000000
# 5 0.000000 0.000000 0.000000 0.000000 0.031473 0.000000
# 6 0.010535 -0.010535 0.000000 0.000000 0.000000 0.041341
#
#
# Mechanical properties :
#
#
# Convention : Reuss Voigt Hill
#
# Bulk Modulus (GPa) = 60.12457 61.72338 60.92398
# Shear Modulus (GPa) = 25.71318 29.98231 27.84774
#
# Velocity S-wave (km/s) = 3.43711 3.71149 3.57693
# Velocity P-wave (km/s) = 6.58600 6.83558 6.71195
#
# Compressibility (1/GPa) = 0.01663214
#
# Stress axis : x y z
#
# Youngs Moduli (GPa) = 51.93007 51.93007 82.54948
#
# Poissons Ratio (x) = 0.64352 0.19009
# Poissons Ratio (y) = 0.64352 0.19009
# Poissons Ratio (z) = 0.11958 0.11958
#
# Static dielectric constant tensor:
#      x y z
#    x 4.115180 0.000000 0.000000 
#    y 0.000000 4.115180 0.000000 
#    z 0.000000 0.000000 4.184140 
# 
# 
# High freq. dielectric constant tensor:
#      x y z
#    x 1.853010 0.000000 0.000000 
#    y 0.000000 1.853010 0.000000 
#    z 0.000000 0.000000 1.870580 
# 
# From -- ./inp_files/178.got.cif
#   From: 2010.03.12/outbox.cif.g09.slc.cpg/sg80_cif.got.tgz:178.got - 2010.04.08 20:00:04.
