data_PCOD8302102
_publ_section_title
;
Structure prediction by ZEFSAII (Michael W. Deem and Ramdas Pophale) SiO2 
 PCOD8302102
Probable space group: I 4
;
_chemical_formula_sum "Si O2"
_cell_formula_units_Z 48
_cell_length_a 8.858548
_cell_length_b 8.858548
_cell_length_c 32.565963
_cell_angle_alpha 90.000000
_cell_angle_beta 90.000000
_cell_angle_gamma 90.000000
_cell_volume 2555.577234
_symmetry_space_group_name_H-M "I 4"
_symmetry_group_IT_number 79
_symmetry_cell_setting 'tetragonal'
loop_
_space_group_symop_operation_xyz
x,y,z
-y,x,z
-x,-y,z
y,-x,z
1/2+x,1/2+y,1/2+z
1/2-y,1/2+x,1/2+z
1/2-x,1/2-y,1/2+z
1/2+y,1/2-x,1/2+z
loop_
_atom_site_type_symbol
_atom_site_label
_atom_site_fract_x
_atom_site_fract_y
_atom_site_fract_z
Si Si1 0.999986 0.250496 0.639890
Si Si2 0.741082 0.454620 0.511023
Si Si3 0.000000 0.500000 0.206636
Si Si4 0.739089 0.431835 0.417905
Si Si5 0.000000 0.500000 0.573141
Si Si6 0.545401 0.258922 0.768749
Si Si7 0.260914 0.431826 0.861869
O O1 0.966390 0.354752 0.679092
O O2 0.033570 0.354740 0.600685
O O3 0.850989 0.148994 0.639891
O O4 0.673188 0.618559 0.518702
O O5 0.798960 0.429640 0.464617
O O6 0.869713 0.437106 0.544147
O O7 0.937072 0.369724 0.235629
O O8 0.683015 0.601146 0.408774
O O9 0.880654 0.380657 0.389886
O O10 0.673198 0.381456 0.761067
O O11 0.570379 0.201054 0.815155
O O12 0.398861 0.316980 0.871000
#
# Coordination Sequence:
#
# PCOD8302102 Si02
#       7
#     8   8   4   8   4   8   8
#     4  10  22  38  54  78 110 134 162 212 264 312
#     4   9  19  35  53  77 108 137 173 220 259 300
#     4  11  20  34  59  80  98 138 179 204 254 321
#     4   9  19  34  51  74 105 139 175 217 261 304
#     4  11  20  34  59  80  98 138 179 204 254 321
#     4   9  19  35  53  77 108 137 173 220 259 300
#     4   9  19  34  51  74 105 139 175 217 261 304
#
# _framework density 18.782447999999999
#
# number of rings (size 3 to 8) (size 9 to 14) (size 15 to 20)
#    0.000    2.500    0.000    4.000    0.000    6.000 
#    0.000    0.000    0.000   12.000    0.000    0.000 
#    0.000    0.000    0.000    0.000    0.000    0.000 
#
# Total GULP energy -297397.297901 kJ/mol
# GULP energy per Si atom -12391.554079 kJ/mol
# Density = 1.873970 g / cm^3
# Si number density = 18.782448 Si / 1000 Ang^3
#
#
#
# Elastic Constant Matrix: (Units=GPa)
#
#
# Indices 1 2 3 4 5 6 
#
# 1 82.8764 40.4080 63.2843 0.0000 0.0000 -0.0013
# 2 40.4080 82.8764 63.2843 0.0000 0.0000 0.0013
# 3 63.2843 63.2843 133.2591 0.0000 0.0000 0.0000
# 4 0.0000 0.0000 0.0000 28.2988 0.0000 0.0000
# 5 0.0000 0.0000 0.0000 0.0000 28.2987 0.0000
# 6 -0.0013 0.0013 0.0000 0.0000 0.0000 27.7482
#
#
#
# Elastic Compliance Matrix: (Units=1/GPa)
#
#
# Indices 1 2 3 4 5 6 
#
# 1 0.019688 -0.003859 -0.007517 0.000000 0.000000 0.000001
# 2 -0.003859 0.019688 -0.007517 0.000000 0.000000 -0.000001
# 3 -0.007517 -0.007517 0.014644 0.000000 0.000000 0.000000
# 4 0.000000 0.000000 0.000000 0.035337 0.000000 0.000000
# 5 0.000000 0.000000 0.000000 0.000000 0.035337 0.000000
# 6 0.000001 -0.000001 0.000000 0.000000 0.000000 0.036038
#
#
# Mechanical properties :
#
#
# Convention : Reuss Voigt Hill
#
# Bulk Modulus (GPa) = 61.60278 70.32946 65.96612
# Shear Modulus (GPa) = 24.51837 25.67151 25.09494
#
# Velocity S-wave (km/s) = 3.61693 3.70101 3.65921
# Velocity P-wave (km/s) = 7.09311 7.46919 7.28358
#
# Compressibility (1/GPa) = 0.01623303
#
# Stress axis : x y z
#
# Youngs Moduli (GPa) = 50.79323 50.79322 68.28912
#
# Poissons Ratio (x) = 0.19602 0.51332
# Poissons Ratio (y) = 0.19602 0.51332
# Poissons Ratio (z) = 0.38180 0.38181
#
# Static dielectric constant tensor:
#      x y z
#    x 3.461890 0.000000 0.000000 
#    y 0.000000 3.461890 0.000000 
#    z 0.000000 0.000000 3.493340 
# 
# 
# High freq. dielectric constant tensor:
#      x y z
#    x 1.728730 0.000000 0.000000 
#    y 0.000000 1.728730 0.000000 
#    z 0.000000 0.000000 1.735400 
# 
# From -- ./inp_files/2169.got.cif
#   From: 2010.03.12/outbox.cif.g09.slc.cpg/sg79_cif.got.tgz:2169.got - 2010.04.16 16:38:49.
