data_PCOD8302540
_publ_section_title
;
Structure prediction by ZEFSAII (Michael W. Deem and Ramdas Pophale) SiO2 
 PCOD8302540
Probable space group: I -4 
;
_chemical_formula_sum "Si O2"
_cell_formula_units_Z 34
_cell_length_a 10.773029
_cell_length_b 10.773029
_cell_length_c 12.271631
_cell_angle_alpha 90.000000
_cell_angle_beta 90.000000
_cell_angle_gamma 90.000000
_cell_volume 1424.222838
_symmetry_space_group_name_H-M "I -4 "
_symmetry_group_IT_number 82
_symmetry_cell_setting 'tetragonal'
loop_
_space_group_symop_operation_xyz
x,y,z
y,-x,-z
-x,-y,z
-y,x,-z
1/2+x,1/2+y,1/2+z
1/2+y,1/2-x,1/2-z
1/2-x,1/2-y,1/2+z
1/2-y,1/2+x,1/2-z
loop_
_atom_site_type_symbol
_atom_site_label
_atom_site_fract_x
_atom_site_fract_y
_atom_site_fract_z
Si Si1 0.279603 0.283522 0.949844
Si Si2 0.896978 0.089687 0.146976
Si Si3 0.500000 0.000000 0.750000
Si Si4 0.048263 0.746087 0.353454
Si Si5 0.463073 0.812305 0.232652
O O1 0.189415 0.162967 0.937223
O O2 0.418785 0.251450 0.916502
O O3 0.229069 0.395086 0.876388
O O4 0.282809 0.333880 0.072812
O O5 0.953230 0.162678 0.250488
O O6 0.798030 0.988667 0.185269
O O7 0.000000 0.000000 0.091491
O O8 0.396487 0.071710 0.679862
O O9 0.592396 0.877438 0.198645
#
# Coordination Sequence:
#
# PCOD8302540 Si02
#       5
#     8   8   2   8   8
#     4  11  24  42  77 113 143 200 258 308 374 467
#     4  11  22  42  73 109 153 195 248 320 377 444
#     4  12  28  52  72 100 170 196 240 320 400 440
#     4  12  25  46  74 112 150 203 255 312 381 458
#     4   9  19  36  63 104 145 190 241 306 367 433
#
# _framework density 23.872668999999998
#
# number of rings (size 3 to 8) (size 9 to 14) (size 15 to 20)
#    0.000    1.176    4.706    1.412    0.000    3.765 
#    0.000    2.353    0.000    2.824    0.000    0.000 
#    0.000    0.000    0.000    0.000    0.000    0.000 
#
# Total GULP energy -210793.856748 kJ/mol
# GULP energy per Si atom -12399.638632 kJ/mol
# Density = 2.381833 g / cm^3
# Si number density = 23.872669 Si / 1000 Ang^3
#
#
#
# Elastic Constant Matrix: (Units=GPa)
#
#
# Indices 1 2 3 4 5 6 
#
# 1 128.4029 54.2064 30.1996 0.0000 0.0000 -7.1287
# 2 54.2064 128.4030 30.1997 0.0000 0.0000 7.1287
# 3 30.1996 30.1997 70.4584 0.0000 0.0000 0.0000
# 4 0.0000 0.0000 0.0000 27.8699 0.0000 0.0000
# 5 0.0000 0.0000 0.0000 0.0000 27.8698 0.0000
# 6 -7.1287 7.1287 0.0000 0.0000 0.0000 43.1281
#
#
#
# Elastic Compliance Matrix: (Units=1/GPa)
#
#
# Indices 1 2 3 4 5 6 
#
# 1 0.010150 -0.003770 -0.002735 0.000000 0.000000 0.002301
# 2 -0.003770 0.010150 -0.002735 0.000000 0.000000 -0.002301
# 3 -0.002735 -0.002735 0.016537 0.000000 0.000000 0.000000
# 4 0.000000 0.000000 0.000000 0.035881 0.000000 0.000000
# 5 0.000000 0.000000 0.000000 0.000000 0.035881 0.000000
# 6 0.002301 -0.002301 0.000000 0.000000 0.000000 0.023947
#
#
# Mechanical properties :
#
#
# Convention : Reuss Voigt Hill
#
# Bulk Modulus (GPa) = 54.46879 61.83064 58.14971
# Shear Modulus (GPa) = 31.81760 33.95080 32.88420
#
# Velocity S-wave (km/s) = 3.65472 3.77525 3.71547
# Velocity P-wave (km/s) = 6.37771 6.70520 6.54351
#
# Compressibility (1/GPa) = 0.01835914
#
# Stress axis : x y z
#
# Youngs Moduli (GPa) = 98.51923 98.51924 60.46962
#
# Poissons Ratio (x) = 0.37137 0.16538
# Poissons Ratio (y) = 0.37137 0.16538
# Poissons Ratio (z) = 0.26944 0.26944
#
# Static dielectric constant tensor:
#      x y z
#    x 4.488670 0.000000 0.000000 
#    y 0.000000 4.488670 0.000000 
#    z 0.000000 0.000000 3.954930 
# 
# 
# High freq. dielectric constant tensor:
#      x y z
#    x 1.963490 0.000000 0.000000 
#    y 0.000000 1.963490 0.000000 
#    z 0.000000 0.000000 1.922590 
# 
# From -- ./inp_files/1596.got.cif
#   From: 2010.03.12/outbox.cif.g09.slc.cpg/sg82_1_cif.got.tgz:1596.got - 2010.04.08 20:02:50.
