data_PCOD8302240
_publ_section_title
;
Structure prediction by ZEFSAII (Michael W. Deem and Ramdas Pophale) SiO2 
 PCOD8302240
Probable space group: P -4
;
_chemical_formula_sum "Si O2"
_cell_formula_units_Z 15
_cell_length_a 9.469455
_cell_length_b 9.469455
_cell_length_c 7.943117
_cell_angle_alpha 90.000000
_cell_angle_beta 90.000000
_cell_angle_gamma 90.000000
_cell_volume 712.263892
_symmetry_space_group_name_H-M "P -4"
_symmetry_group_IT_number 81
_symmetry_cell_setting 'tetragonal'
loop_
_space_group_symop_operation_xyz
x,y,z
y,-x,-z
-x,-y,z
-y,x,-z
loop_
_atom_site_type_symbol
_atom_site_label
_atom_site_fract_x
_atom_site_fract_y
_atom_site_fract_z
Si Si1 0.500000 0.500000 0.500000
Si Si2 0.205750 0.144536 0.734266
Si Si3 0.731702 0.493472 0.251701
Si Si4 0.500000 0.500000 0.000000
Si Si5 0.000000 0.000000 0.000000
Si Si6 0.929370 0.649210 0.487148
O O1 0.625823 0.431416 0.392745
O O2 0.361086 0.175887 0.812318
O O3 0.138639 0.286771 0.655994
O O4 0.231503 0.036780 0.580089
O O5 0.109515 0.083414 0.882450
O O6 0.635104 0.556175 0.103396
O O7 0.822563 0.620268 0.331308
O O8 0.000000 0.500000 0.539039
#
# Coordination Sequence:
#
# PCOD8302240 Si02
#       6
#     1   4   4   1   1   4
#     4  10  16  38  68  94 120 150 220 270 332 370
#     4  11  23  43  63  91 131 167 219 261 318 390
#     4  10  21  39  64  96 123 163 212 274 328 381
#     4  10  24  34  64  94 136 166 196 294 344 370
#     4  12  28  42  60  96 136 182 200 264 328 386
#     4  10  22  41  69  93 118 174 226 264 309 387
#
# _framework density 21.059609999999999
#
# number of rings (size 3 to 8) (size 9 to 14) (size 15 to 20)
#    0.000    1.600    2.667    1.600    3.733    0.000 
#    4.800    0.000    0.000    0.000    0.000    0.000 
#    0.000    0.000    0.000    0.000    0.000    0.000 
#
# Total GULP energy -185934.459048 kJ/mol
# GULP energy per Si atom -12395.630603 kJ/mol
# Density = 2.101168 g / cm^3
# Si number density = 21.059610 Si / 1000 Ang^3
#
#
#
# Elastic Constant Matrix: (Units=GPa)
#
#
# Indices 1 2 3 4 5 6 
#
# 1 96.1993 35.9843 43.6002 0.0000 0.0000 3.0048
# 2 35.9843 96.1993 43.6002 0.0000 0.0000 -3.0048
# 3 43.6002 43.6002 84.2859 0.0000 0.0000 0.0000
# 4 0.0000 0.0000 0.0000 30.5830 0.0000 0.0000
# 5 0.0000 0.0000 0.0000 0.0000 30.5830 0.0000
# 6 3.0048 -3.0048 0.0000 0.0000 0.0000 37.6211
#
#
#
# Elastic Compliance Matrix: (Units=1/GPa)
#
#
# Indices 1 2 3 4 5 6 
#
# 1 0.014112 -0.002628 -0.005941 0.000000 0.000000 -0.001337
# 2 -0.002628 0.014112 -0.005941 0.000000 0.000000 0.001337
# 3 -0.005941 -0.005941 0.018010 0.000000 0.000000 0.000000
# 4 0.000000 0.000000 0.000000 0.032698 0.000000 0.000000
# 5 0.000000 0.000000 0.000000 0.000000 0.032698 0.000000
# 6 -0.001337 0.001337 0.000000 0.000000 0.000000 0.026794
#
#
# Mechanical properties :
#
#
# Convention : Reuss Voigt Hill
#
# Bulk Modulus (GPa) = 58.08461 58.11709 58.10085
# Shear Modulus (GPa) = 28.87115 29.99076 29.43096
#
# Velocity S-wave (km/s) = 3.70662 3.77780 3.74238
# Velocity P-wave (km/s) = 6.77935 6.83268 6.80607
#
# Compressibility (1/GPa) = 0.01721626
#
# Stress axis : x y z
#
# Youngs Moduli (GPa) = 70.85958 70.85958 55.52322
#
# Poissons Ratio (x) = 0.18623 0.32985
# Poissons Ratio (y) = 0.18623 0.32985
# Poissons Ratio (z) = 0.42095 0.42095
#
# Static dielectric constant tensor:
#      x y z
#    x 3.845170 0.000000 0.000000 
#    y 0.000000 3.845170 0.000000 
#    z 0.000000 0.000000 3.551120 
# 
# 
# High freq. dielectric constant tensor:
#      x y z
#    x 1.831100 0.000000 0.000000 
#    y 0.000000 1.831100 0.000000 
#    z 0.000000 0.000000 1.803090 
# 
# From -- ./inp_files/558.got.cif
#   From: 2010.03.12/outbox.cif.g09.slc.cpg/sg81_cif.got.tgz:558.got - 2010.04.08 20:01:38.
