data_PCOD8302405
_publ_section_title
;
Structure prediction by ZEFSAII (Michael W. Deem and Ramdas Pophale) SiO2 
 PCOD8302405
Probable space group: I -4 
;
_chemical_formula_sum "Si O2"
_cell_formula_units_Z 44
_cell_length_a 13.977991
_cell_length_b 13.977991
_cell_length_c 11.072596
_cell_angle_alpha 90.000000
_cell_angle_beta 90.000000
_cell_angle_gamma 90.000000
_cell_volume 2163.410670
_symmetry_space_group_name_H-M "I -4 "
_symmetry_group_IT_number 82
_symmetry_cell_setting 'tetragonal'
loop_
_space_group_symop_operation_xyz
x,y,z
y,-x,-z
-x,-y,z
-y,x,-z
1/2+x,1/2+y,1/2+z
1/2+y,1/2-x,1/2-z
1/2-x,1/2-y,1/2+z
1/2-y,1/2+x,1/2-z
loop_
_atom_site_type_symbol
_atom_site_label
_atom_site_fract_x
_atom_site_fract_y
_atom_site_fract_z
Si Si1 0.981020 0.695470 0.673464
Si Si2 0.000000 0.500000 0.946339
Si Si3 0.357321 0.770999 0.352672
Si Si4 0.648223 0.481928 0.020689
Si Si5 0.252590 0.905160 0.747346
Si Si6 0.171184 0.427764 0.400505
O O1 0.018549 0.589945 0.640396
O O2 0.866732 0.696596 0.694022
O O3 0.007241 0.760726 0.559466
O O4 0.037394 0.733175 0.791026
O O5 0.012939 0.590222 0.031577
O O6 0.291310 0.681784 0.322367
O O7 0.369367 0.769943 0.497822
O O8 0.678345 0.432249 0.144104
O O9 0.579476 0.408359 0.948986
O O10 0.355380 0.875262 0.695306
O O11 0.261471 0.997319 0.832754
#
# Coordination Sequence:
#
# PCOD8302405 Si02
#       6
#     8   4   8   8   8   8
#     4  11  22  41  67  98 134 174 221 275 329 390
#     4  10  20  40  64  98 134 165 217 272 324 384
#     4  11  24  42  66  98 131 174 221 275 334 392
#     4  11  24  45  69  95 126 176 232 271 322 398
#     4  12  25  44  68  95 134 173 221 275 334 401
#     4  11  25  40  65 101 130 174 219 271 339 391
#
# _framework density 20.338256000000001
#
# number of rings (size 3 to 8) (size 9 to 14) (size 15 to 20)
#    0.000    0.909    5.455    3.273    2.545    3.636 
#    0.000    0.000    0.000    0.000    0.000    0.000 
#    0.000    0.000    0.000    0.000    0.000    0.000 
#
# Total GULP energy -272886.981639 kJ/mol
# GULP energy per Si atom -12403.953711 kJ/mol
# Density = 2.029197 g / cm^3
# Si number density = 20.338256 Si / 1000 Ang^3
#
#
#
# Elastic Constant Matrix: (Units=GPa)
#
#
# Indices 1 2 3 4 5 6 
#
# 1 91.8965 39.5144 25.9234 0.0000 0.0000 -8.3615
# 2 39.5144 91.8965 25.9234 0.0000 0.0000 8.3615
# 3 25.9234 25.9234 78.7458 0.0000 0.0000 0.0000
# 4 0.0000 0.0000 0.0000 25.8780 0.0000 0.0000
# 5 0.0000 0.0000 0.0000 0.0000 25.8780 0.0000
# 6 -8.3615 8.3615 0.0000 0.0000 0.0000 37.9254
#
#
#
# Elastic Compliance Matrix: (Units=1/GPa)
#
#
# Indices 1 2 3 4 5 6 
#
# 1 0.014641 -0.005895 -0.002879 0.000000 0.000000 0.004528
# 2 -0.005895 0.014641 -0.002879 0.000000 0.000000 -0.004528
# 3 -0.002879 -0.002879 0.014595 0.000000 0.000000 0.000000
# 4 0.000000 0.000000 0.000000 0.038643 0.000000 0.000000
# 5 0.000000 0.000000 0.000000 0.000000 0.038643 0.000000
# 6 0.004528 -0.004528 0.000000 0.000000 0.000000 0.028364
#
#
# Mechanical properties :
#
#
# Convention : Reuss Voigt Hill
#
# Bulk Modulus (GPa) = 48.61545 49.47349 49.04447
# Shear Modulus (GPa) = 27.82585 29.34813 28.58699
#
# Velocity S-wave (km/s) = 3.70287 3.80281 3.75317
# Velocity P-wave (km/s) = 6.49900 6.60757 6.55351
#
# Compressibility (1/GPa) = 0.02056959
#
# Stress axis : x y z
#
# Youngs Moduli (GPa) = 68.30236 68.30236 68.51794
#
# Poissons Ratio (x) = 0.40265 0.19727
# Poissons Ratio (y) = 0.40265 0.19727
# Poissons Ratio (z) = 0.19665 0.19665
#
# Static dielectric constant tensor:
#      x y z
#    x 3.739520 0.000000 0.000000 
#    y 0.000000 3.739520 0.000000 
#    z 0.000000 0.000000 3.761270 
# 
# 
# High freq. dielectric constant tensor:
#      x y z
#    x 1.796870 0.000000 0.000000 
#    y 0.000000 1.796870 0.000000 
#    z 0.000000 0.000000 1.796840 
# 
# From -- ./inp_files/1683.got.cif
#   From: 2010.03.12/outbox.cif.g09.slc.cpg/sg82_1_cif.got.tgz:1683.got - 2010.04.08 20:02:50.
