data_PCOD8302247
_publ_section_title
;
Structure prediction by ZEFSAII (Michael W. Deem and Ramdas Pophale) SiO2 
 PCOD8302247
Probable space group: P -4
;
_chemical_formula_sum "Si O2"
_cell_formula_units_Z 28
_cell_length_a 11.631617
_cell_length_b 11.631617
_cell_length_c 12.703739
_cell_angle_alpha 90.000000
_cell_angle_beta 90.000000
_cell_angle_gamma 90.000000
_cell_volume 1718.746194
_symmetry_space_group_name_H-M "P -4"
_symmetry_group_IT_number 81
_symmetry_cell_setting 'tetragonal'
loop_
_space_group_symop_operation_xyz
x,y,z
y,-x,-z
-x,-y,z
-y,x,-z
loop_
_atom_site_type_symbol
_atom_site_label
_atom_site_fract_x
_atom_site_fract_y
_atom_site_fract_z
Si Si1 0.134481 0.745109 0.409172
Si Si2 0.864613 0.500801 0.713695
Si Si3 0.128534 0.864682 0.003507
Si Si4 0.867762 0.746944 0.783468
Si Si5 0.136376 0.499142 0.477948
Si Si6 0.137165 0.255091 0.398804
Si Si7 0.744038 0.862069 0.209301
O O1 0.184058 0.802082 0.305618
O O2 0.177741 0.612908 0.416254
O O3 0.172676 0.811397 0.513033
O O4 0.998585 0.752724 0.404685
O O5 0.828009 0.614158 0.778207
O O6 0.810789 0.501694 0.596238
O O7 0.823624 0.388320 0.776976
O O8 0.000000 0.500000 0.701717
O O9 0.204415 0.830550 0.103770
O O10 0.165190 0.780142 0.909814
O O11 0.995064 0.847885 0.032992
O O12 0.003701 0.762522 0.764112
O O13 0.179805 0.386099 0.416727
O O14 0.000000 0.500000 0.486197
O O15 0.177069 0.213648 0.284955
#
# Coordination Sequence:
#
# PCOD8302247 Si02
#       7
#     4   4   4   4   4   4   4
#     4  11  20  30  48  73 100 129 162 200 246 297
#     4   9  16  30  49  69  96 133 168 197 237 294
#     4   9  18  32  48  70 102 131 158 204 256 293
#     4  10  19  32  51  74 100 131 166 201 246 297
#     4   9  18  32  45  67 102 135 162 197 243 288
#     4  11  20  30  48  73 100 129 162 200 246 297
#     4  10  19  32  51  74 100 131 166 201 246 297
#
# _framework density 16.290944
#
# number of rings (size 3 to 8) (size 9 to 14) (size 15 to 20)
#    0.000    2.143    2.857    1.714    0.000    3.143 
#    0.000    1.429    0.000    8.143    0.000    0.000 
#    0.000    0.000    0.000    0.000    0.000    0.000 
#
# Total GULP energy -347179.552409 kJ/mol
# GULP energy per Si atom -12399.269729 kJ/mol
# Density = 1.625387 g / cm^3
# Si number density = 16.290944 Si / 1000 Ang^3
#
#
#
# Elastic Constant Matrix: (Units=GPa)
#
#
# Indices 1 2 3 4 5 6 
#
# 1 28.7548 -25.1204 -13.8412 0.0000 0.0000 -0.0652
# 2 -25.1204 28.7548 -13.8412 0.0000 0.0000 0.0652
# 3 -13.8412 -13.8412 41.3966 0.0000 0.0000 0.0000
# 4 0.0000 0.0000 0.0000 19.2180 0.0000 0.0000
# 5 0.0000 0.0000 0.0000 0.0000 19.2180 0.0000
# 6 -0.0652 0.0652 0.0000 0.0000 0.0000 8.0669
#
#
#
# Elastic Compliance Matrix: (Units=1/GPa)
#
#
# Indices 1 2 3 4 5 6 
#
# 1 -0.079665 -0.098226 -0.059479 0.000000 0.000000 0.000150
# 2 -0.098226 -0.079665 -0.059479 0.000000 0.000000 -0.000150
# 3 -0.059479 -0.059479 -0.015618 0.000000 0.000000 0.000000
# 4 0.000000 0.000000 0.000000 0.052035 0.000000 0.000000
# 5 0.000000 0.000000 0.000000 0.000000 0.052035 0.000000
# 6 0.000150 -0.000150 0.000000 0.000000 0.000000 0.123966
#
#
# Mechanical properties :
#
#
# Convention : Reuss Voigt Hill
#
# Bulk Modulus (GPa) = -1.64119 -0.74439 -1.19279
# Shear Modulus (GPa) = 17.58383 19.41448 18.49916
#
# Velocity S-wave (km/s) = 3.28893 3.45590 3.37345
# Velocity P-wave (km/s) = 3.66239 3.93273 3.79997
#
# Compressibility (1/GPa) = -0.60931582
#
# Stress axis : x y z
#
# Youngs Moduli (GPa) = -12.55262 -12.55262 -64.02985
#
# Poissons Ratio (x) = -1.23300 -3.80843
# Poissons Ratio (y) = -1.23300 -3.80843
# Poissons Ratio (z) = -0.74662 -0.74662
#
# Static dielectric constant tensor:
#      x y z
#    x 3.160930 0.000000 0.000000 
#    y 0.000000 3.160930 0.000000 
#    z 0.000000 0.000000 3.093350 
# 
# 
# High freq. dielectric constant tensor:
#      x y z
#    x 1.613670 0.000000 0.000000 
#    y 0.000000 1.613670 0.000000 
#    z 0.000000 0.000000 1.624610 
# 
# From -- ./inp_files/1371.got.cif
#   From: 2010.03.12/outbox.cif.g09.slc.cpg/sg81_cif.got.tgz:1371.got - 2010.04.08 20:01:38.
