data_PCOD8302290
_publ_section_title
;
Structure prediction by ZEFSAII (Michael W. Deem and Ramdas Pophale) SiO2 
 PCOD8302290
Probable space group: P -4
;
_chemical_formula_sum "Si O2"
_cell_formula_units_Z 24
_cell_length_a 13.526408
_cell_length_b 13.526408
_cell_length_c 6.178676
_cell_angle_alpha 90.000000
_cell_angle_beta 90.000000
_cell_angle_gamma 90.000000
_cell_volume 1130.473505
_symmetry_space_group_name_H-M "P -4"
_symmetry_group_IT_number 81
_symmetry_cell_setting 'tetragonal'
loop_
_space_group_symop_operation_xyz
x,y,z
y,-x,-z
-x,-y,z
-y,x,-z
loop_
_atom_site_type_symbol
_atom_site_label
_atom_site_fract_x
_atom_site_fract_y
_atom_site_fract_z
Si Si1 0.500000 0.000000 0.110584
Si Si2 0.271747 0.226030 0.473753
Si Si3 0.581312 0.165156 0.414102
Si Si4 0.436841 0.160551 0.795463
Si Si5 0.438171 0.302982 0.174586
Si Si6 0.500000 0.500000 0.000000
Si Si7 0.000000 0.000000 0.000000
Si Si8 0.883678 0.928752 0.378648
O O1 0.569082 0.068928 0.261458
O O2 0.428945 0.068212 0.961998
O O3 0.194122 0.303599 0.575526
O O4 0.339406 0.171394 0.650656
O O5 0.334154 0.279871 0.287799
O O6 0.212222 0.138412 0.361175
O O7 0.534740 0.143415 0.649940
O O8 0.526701 0.260251 0.317080
O O9 0.444690 0.260723 0.932312
O O10 0.448967 0.420440 0.157569
O O11 0.030269 0.904901 0.859759
O O12 0.979354 0.866217 0.458647
#
# Coordination Sequence:
#
# PCOD8302290 Si02
#       8
#     2   4   4   4   4   1   1   4
#     4  10  22  42  68  90 122 168 204 250 320 366
#     4  11  23  40  64  93 123 159 205 256 308 365
#     4  10  22  41  62  91 126 162 207 256 306 364
#     4  10  22  42  61  91 128 159 208 258 298 371
#     4  10  23  38  61  91 122 165 209 249 306 361
#     4  12  20  40  62  84 124 166 204 252 298 360
#     4   8  18  44  64  86 124 156 198 252 304 370
#     4   9  21  40  61  87 118 156 200 250 308 365
#
# _framework density 21.230042999999998
#
# number of rings (size 3 to 8) (size 9 to 14) (size 15 to 20)
#    0.000    2.167    0.000    2.500    0.000   10.667 
#    0.000   10.000    0.000    0.000    0.000    0.000 
#    0.000    0.000    0.000    0.000    0.000    0.000 
#
# Total GULP energy -297630.820055 kJ/mol
# GULP energy per Si atom -12401.284169 kJ/mol
# Density = 2.118172 g / cm^3
# Si number density = 21.230043 Si / 1000 Ang^3
#
#
#
# Elastic Constant Matrix: (Units=GPa)
#
#
# Indices 1 2 3 4 5 6 
#
# 1 104.2766 36.7177 42.0846 0.0000 0.0000 -1.4221
# 2 36.7177 104.2766 42.0846 0.0000 0.0000 1.4221
# 3 42.0846 42.0846 117.0012 0.0000 0.0000 0.0000
# 4 0.0000 0.0000 0.0000 22.4009 0.0000 0.0000
# 5 0.0000 0.0000 0.0000 0.0000 22.4009 0.0000
# 6 -1.4221 1.4221 0.0000 0.0000 0.0000 35.8810
#
#
#
# Elastic Compliance Matrix: (Units=1/GPa)
#
#
# Indices 1 2 3 4 5 6 
#
# 1 0.011929 -0.002897 -0.003249 0.000000 0.000000 0.000588
# 2 -0.002897 0.011929 -0.003249 0.000000 0.000000 -0.000588
# 3 -0.003249 -0.003249 0.010884 0.000000 0.000000 0.000000
# 4 0.000000 0.000000 0.000000 0.044641 0.000000 0.000000
# 5 0.000000 0.000000 0.000000 0.000000 0.044641 0.000000
# 6 0.000588 -0.000588 0.000000 0.000000 0.000000 0.027916
#
#
# Mechanical properties :
#
#
# Convention : Reuss Voigt Hill
#
# Bulk Modulus (GPa) = 62.68449 63.03644 62.86046
# Shear Modulus (GPa) = 28.40132 29.78108 29.09120
#
# Velocity S-wave (km/s) = 3.66155 3.74943 3.70575
# Velocity P-wave (km/s) = 6.88958 6.96426 6.92702
#
# Compressibility (1/GPa) = 0.01595291
#
# Stress axis : x y z
#
# Youngs Moduli (GPa) = 83.82760 83.82760 91.87804
#
# Poissons Ratio (x) = 0.24288 0.29848
# Poissons Ratio (y) = 0.24288 0.29848
# Poissons Ratio (z) = 0.27233 0.27233
#
# Static dielectric constant tensor:
#      x y z
#    x 3.723200 0.000000 0.000000 
#    y 0.000000 3.723200 0.000000 
#    z 0.000000 0.000000 3.999890 
# 
# 
# High freq. dielectric constant tensor:
#      x y z
#    x 1.827330 0.000000 0.000000 
#    y 0.000000 1.827330 0.000000 
#    z 0.000000 0.000000 1.840220 
# 
# From -- ./inp_files/318.got.cif
#   From: 2010.03.12/outbox.cif.g09.slc.cpg/sg81_cif.got.tgz:318.got - 2010.04.08 20:01:38.
