data_PCOD8302249
_publ_section_title
;
Structure prediction by ZEFSAII (Michael W. Deem and Ramdas Pophale) SiO2 
 PCOD8302249
Probable space group: P -4
;
_chemical_formula_sum "Si O2"
_cell_formula_units_Z 29
_cell_length_a 10.961948
_cell_length_b 10.961948
_cell_length_c 13.316310
_cell_angle_alpha 90.000000
_cell_angle_beta 90.000000
_cell_angle_gamma 90.000000
_cell_volume 1600.145122
_symmetry_space_group_name_H-M "P -4"
_symmetry_group_IT_number 81
_symmetry_cell_setting 'tetragonal'
loop_
_space_group_symop_operation_xyz
x,y,z
y,-x,-z
-x,-y,z
-y,x,-z
loop_
_atom_site_type_symbol
_atom_site_label
_atom_site_fract_x
_atom_site_fract_y
_atom_site_fract_z
Si Si1 0.423110 0.878914 0.136176
Si Si2 0.914755 0.819210 0.493779
Si Si3 0.189612 0.196153 0.979351
Si Si4 0.306765 0.627168 0.875591
Si Si5 0.500000 0.500000 0.000000
Si Si6 0.640315 0.021446 0.335553
Si Si7 0.211482 0.219356 0.291455
Si Si8 0.864370 0.014761 0.853031
O O1 0.327818 0.865402 0.046557
O O2 0.499265 0.755497 0.148165
O O3 0.353951 0.888192 0.241783
O O4 0.500000 0.000000 0.114501
O O5 0.912495 0.717145 0.578842
O O6 0.836307 0.755052 0.404337
O O7 0.056282 0.849893 0.466877
O O8 0.205804 0.112282 0.879641
O O9 0.311625 0.215860 0.043214
O O10 0.094227 0.123777 0.046944
O O11 0.319612 0.708299 0.772042
O O12 0.437673 0.601460 0.927393
O O13 0.500000 0.000000 0.370771
O O14 0.702281 0.898088 0.295735
O O15 0.085052 0.208876 0.232073
O O16 0.000000 0.000000 0.809007
#
# Coordination Sequence:
#
# PCOD8302249 Si02
#       8
#     4   4   4   4   1   4   4   4
#     4  11  20  33  56  83 109 144 198 230 276 341
#     4   9  20  35  57  88 116 146 182 234 302 360
#     4  11  20  33  51  81 116 151 185 229 284 337
#     4  11  22  39  59  78 108 156 196 243 277 331
#     4  12  24  44  60  76 114 164 212 248 276 328
#     4  10  19  34  60  83 111 151 190 231 281 351
#     4  10  21  36  57  85 115 149 186 237 288 350
#     4  11  20  29  50  83 124 148 171 222 287 350
#
# _framework density 18.123355
#
# number of rings (size 3 to 8) (size 9 to 14) (size 15 to 20)
#    0.000    1.517    5.517    1.655    5.793    0.000 
#    0.000    0.000    9.103    0.000    0.000    0.000 
#    0.000    0.000    0.000    0.000    0.000    0.000 
#
# Total GULP energy -359321.073270 kJ/mol
# GULP energy per Si atom -12390.381837 kJ/mol
# Density = 1.808211 g / cm^3
# Si number density = 18.123355 Si / 1000 Ang^3
#
#
#
# Elastic Constant Matrix: (Units=GPa)
#
#
# Indices 1 2 3 4 5 6 
#
# 1 58.6996 12.7709 30.4634 0.0000 0.0000 -0.6968
# 2 12.7709 58.6996 30.4634 0.0000 0.0000 0.6968
# 3 30.4634 30.4634 85.7411 0.0000 0.0000 0.0000
# 4 0.0000 0.0000 0.0000 27.7295 0.0000 0.0000
# 5 0.0000 0.0000 0.0000 0.0000 27.7295 0.0000
# 6 -0.6968 0.6968 0.0000 0.0000 0.0000 28.1004
#
#
#
# Elastic Compliance Matrix: (Units=1/GPa)
#
#
# Indices 1 2 3 4 5 6 
#
# 1 0.020930 -0.000859 -0.007131 0.000000 0.000000 0.000540
# 2 -0.000859 0.020930 -0.007131 0.000000 0.000000 -0.000540
# 3 -0.007131 -0.007131 0.016730 0.000000 0.000000 0.000000
# 4 0.000000 0.000000 0.000000 0.036063 0.000000 0.000000
# 5 0.000000 0.000000 0.000000 0.000000 0.036063 0.000000
# 6 0.000540 -0.000540 0.000000 0.000000 0.000000 0.035614
#
#
# Mechanical properties :
#
#
# Convention : Reuss Voigt Hill
#
# Bulk Modulus (GPa) = 35.27624 38.94840 37.11232
# Shear Modulus (GPa) = 24.26934 25.34137 24.80535
#
# Velocity S-wave (km/s) = 3.66337 3.74340 3.70360
# Velocity P-wave (km/s) = 6.11559 6.34204 6.22984
#
# Compressibility (1/GPa) = 0.02834769
#
# Stress axis : x y z
#
# Youngs Moduli (GPa) = 47.77816 47.77816 59.77185
#
# Poissons Ratio (x) = 0.04105 0.42624
# Poissons Ratio (y) = 0.04105 0.42624
# Poissons Ratio (z) = 0.34071 0.34071
#
# Static dielectric constant tensor:
#      x y z
#    x 3.288540 0.000000 0.000000 
#    y 0.000000 3.288540 0.000000 
#    z 0.000000 0.000000 3.440120 
# 
# 
# High freq. dielectric constant tensor:
#      x y z
#    x 1.689840 0.000000 0.000000 
#    y 0.000000 1.689840 0.000000 
#    z 0.000000 0.000000 1.695900 
# 
# From -- ./inp_files/1422.got.cif
#   From: 2010.03.12/outbox.cif.g09.slc.cpg/sg81_cif.got.tgz:1422.got - 2010.04.08 20:01:38.
