data_PCOD8302613
_publ_section_title
;
Structure prediction by ZEFSAII (Michael W. Deem and Ramdas Pophale) SiO2 
 PCOD8302613
Probable space group: P 4/M
;
_chemical_formula_sum "Si O2"
_cell_formula_units_Z 48
_cell_length_a 16.924143
_cell_length_b 16.924143
_cell_length_c 9.002545
_cell_angle_alpha 90.000000
_cell_angle_beta 90.000000
_cell_angle_gamma 90.000000
_cell_volume 2578.568502
_symmetry_space_group_name_H-M "P 4/M"
_symmetry_group_IT_number 83
_symmetry_cell_setting 'tetragonal'
loop_
_space_group_symop_operation_xyz
x,y,z
-y,x,z
-x,-y,z
y,-x,z
-x,-y,-z
y,-x,-z
x,y,-z
-y,x,-z
loop_
_atom_site_type_symbol
_atom_site_label
_atom_site_fract_x
_atom_site_fract_y
_atom_site_fract_z
Si Si1 0.358045 0.362100 0.167274
Si Si2 0.860723 0.508228 0.825784
Si Si3 0.757020 0.221179 0.832449
Si Si4 0.930361 0.672411 0.825534
Si Si5 0.104162 0.669907 0.176682
Si Si6 0.500770 0.705443 0.326072
O O1 0.272646 0.322238 0.168274
O O2 0.361530 0.440575 0.268200
O O3 0.417033 0.299640 0.239451
O O4 0.384022 0.383256 0.000000
O O5 0.923839 0.577871 0.793497
O O6 0.887679 0.421307 0.770914
O O7 0.788508 0.535484 0.722623
O O8 0.836902 0.506773 0.000000
O O9 0.729793 0.138034 0.754199
O O10 0.829789 0.269687 0.754322
O O11 0.784818 0.204137 0.000000
O O12 0.017299 0.699461 0.770548
O O13 0.922049 0.684368 0.000000
O O14 0.112102 0.670107 0.000000
O O15 0.513576 0.697239 0.500000
#
# Coordination Sequence:
#
# PCOD8302613 Si02
#       6
#     8   8   8   8   8   8
#     4  11  21  38  58  75  98 139 188 222 253 304
#     4  10  17  30  51  75 101 136 177 217 263 316
#     4   9  16  27  48  75  99 128 170 220 267 310
#     4   9  16  26  45  75 104 130 172 226 268 309
#     4   9  16  26  45  75 104 130 172 226 268 309
#     4  12  24  36  52  79 109 138 172 220 273 313
#
# _framework density 18.614979000000002
#
# number of rings (size 3 to 8) (size 9 to 14) (size 15 to 20)
#    0.000    2.000    3.333    2.500    0.000    2.333 
#    0.000    1.667    0.000    2.500    0.000    3.500 
#    0.000    0.000    0.000    0.000    0.000    3.833 
#
# Total GULP energy -594656.494416 kJ/mol
# GULP energy per Si atom -12388.676967 kJ/mol
# Density = 1.857261 g / cm^3
# Si number density = 18.614979 Si / 1000 Ang^3
#
#
#
# Elastic Constant Matrix: (Units=GPa)
#
#
# Indices 1 2 3 4 5 6 
#
# 1 109.2502 49.2022 14.9655 0.0000 0.0000 -0.8844
# 2 49.2022 109.2502 14.9655 0.0000 0.0000 0.8844
# 3 14.9655 14.9655 47.5313 0.0000 0.0000 0.0000
# 4 0.0000 0.0000 0.0000 7.2273 0.0000 0.0000
# 5 0.0000 0.0000 0.0000 0.0000 7.2273 0.0000
# 6 -0.8844 0.8844 0.0000 0.0000 0.0000 23.9070
#
#
#
# Elastic Compliance Matrix: (Units=1/GPa)
#
#
# Indices 1 2 3 4 5 6 
#
# 1 0.011691 -0.004981 -0.002113 0.000000 0.000000 0.000617
# 2 -0.004981 0.011691 -0.002113 0.000000 0.000000 -0.000617
# 3 -0.002113 -0.002113 0.022369 0.000000 0.000000 0.000000
# 4 0.000000 0.000000 0.000000 0.138363 0.000000 0.000000
# 5 0.000000 0.000000 0.000000 0.000000 0.138363 0.000000
# 6 0.000617 -0.000617 0.000000 0.000000 0.000000 0.041874
#
#
# Mechanical properties :
#
#
# Convention : Reuss Voigt Hill
#
# Bulk Modulus (GPa) = 36.57840 47.14422 41.86131
# Shear Modulus (GPa) = 12.75910 20.13224 16.44567
#
# Velocity S-wave (km/s) = 2.62089 3.29220 2.97554
# Velocity P-wave (km/s) = 5.37135 6.31129 5.86019
#
# Compressibility (1/GPa) = 0.02733854
#
# Stress axis : x y z
#
# Youngs Moduli (GPa) = 85.53722 85.53722 44.70442
#
# Poissons Ratio (x) = 0.42603 0.09445
# Poissons Ratio (y) = 0.42603 0.09445
# Poissons Ratio (z) = 0.18072 0.18072
#
# Static dielectric constant tensor:
#      x y z
#    x 3.533770 0.000000 0.000000 
#    y 0.000000 3.533770 0.000000 
#    z 0.000000 0.000000 2.835830 
# 
# 
# High freq. dielectric constant tensor:
#      x y z
#    x 1.718260 0.000000 0.000000 
#    y 0.000000 1.718260 0.000000 
#    z 0.000000 0.000000 1.657330 
# 
# From -- ./inp_files/890.got.cif
#   From: 2010.03.12/outbox.cif.g09.slc.cpg/sg83_1_cif.got.tgz:890.got - 2010.04.08 20:05:18.
