data_PCOD8302624
_publ_section_title
;
Structure prediction by ZEFSAII (Michael W. Deem and Ramdas Pophale) SiO2 
 PCOD8302624
Probable space group: P 4/M
;
_chemical_formula_sum "Si O2"
_cell_formula_units_Z 48
_cell_length_a 14.794598
_cell_length_b 14.794598
_cell_length_c 15.620798
_cell_angle_alpha 90.000000
_cell_angle_beta 90.000000
_cell_angle_gamma 90.000000
_cell_volume 3419.082297
_symmetry_space_group_name_H-M "P 4/M"
_symmetry_group_IT_number 83
_symmetry_cell_setting 'tetragonal'
loop_
_space_group_symop_operation_xyz
x,y,z
-y,x,z
-x,-y,z
y,-x,z
-x,-y,-z
y,-x,-z
x,y,-z
-y,x,-z
loop_
_atom_site_type_symbol
_atom_site_label
_atom_site_fract_x
_atom_site_fract_y
_atom_site_fract_z
Si Si1 0.956681 0.596160 0.399323
Si Si2 0.866645 0.932986 0.500000
Si Si3 0.244711 0.431325 0.601141
Si Si4 0.366287 0.266852 0.601912
Si Si5 0.138049 0.060332 0.814526
Si Si6 0.940550 0.135829 0.000000
Si Si7 0.094896 0.739292 0.656903
O O1 0.964497 0.616600 0.500000
O O2 0.854182 0.596308 0.364844
O O3 0.000000 0.500000 0.377324
O O4 0.007546 0.675667 0.349975
O O5 0.814459 0.902186 0.583868
O O6 0.960202 0.879710 0.500000
O O7 0.239339 0.433686 0.500000
O O8 0.318266 0.358948 0.632118
O O9 0.273728 0.530315 0.633435
O O10 0.358750 0.250972 0.500000
O O11 0.321133 0.183944 0.650693
O O12 0.211767 0.093813 0.747669
O O13 0.045694 0.116627 0.802241
O O14 0.183640 0.080321 0.908658
O O15 0.045431 0.116138 0.000000
#
# Coordination Sequence:
#
# PCOD8302624 Si02
#       7
#     8   4   8   8   8   4   8
#     4  10  18  30  43  58  82 119 154 181 208 252
#     4  11  24  32  35  54  92 127 148 171 209 250
#     4   9  19  30  46  58  79 111 154 198 227 259
#     4  10  19  32  43  62  81 113 154 193 233 261
#     4   9  18  30  44  64  88 115 149 184 215 253
#     4   7  12  28  48  60  79 112 146 183 220 249
#     4  12  20  28  44  62  88 118 153 177 215 261
#
# _framework density 14.038855999999999
#
# number of rings (size 3 to 8) (size 9 to 14) (size 15 to 20)
#    0.000    2.167    3.333    2.000    4.667    1.667 
#    0.000    1.667    0.000    0.000    0.000    0.583 
#    0.000    1.333    0.000    0.000    0.000    1.917 
#
# Total GULP energy -594988.214379 kJ/mol
# GULP energy per Si atom -12395.587800 kJ/mol
# Density = 1.400690 g / cm^3
# Si number density = 14.038856 Si / 1000 Ang^3
#
#
#
# Elastic Constant Matrix: (Units=GPa)
#
#
# Indices 1 2 3 4 5 6 
#
# 1 90.9076 51.4530 26.8145 0.0000 0.0000 3.2817
# 2 51.4530 90.9076 26.8145 0.0000 0.0000 -3.2817
# 3 26.8145 26.8145 73.4926 0.0000 0.0000 0.0000
# 4 0.0000 0.0000 0.0000 12.9830 0.0000 0.0000
# 5 0.0000 0.0000 0.0000 0.0000 12.9830 0.0000
# 6 3.2817 -3.2817 0.0000 0.0000 0.0000 22.7695
#
#
#
# Elastic Compliance Matrix: (Units=1/GPa)
#
#
# Indices 1 2 3 4 5 6 
#
# 1 0.017056 -0.008912 -0.002971 0.000000 0.000000 -0.003743
# 2 -0.008912 0.017056 -0.002971 0.000000 0.000000 0.003743
# 3 -0.002971 -0.002971 0.015775 0.000000 0.000000 0.000000
# 4 0.000000 0.000000 0.000000 0.077024 0.000000 0.000000
# 5 0.000000 0.000000 0.000000 0.000000 0.077024 0.000000
# 6 -0.003743 0.003743 0.000000 0.000000 0.000000 0.044997
#
#
# Mechanical properties :
#
#
# Convention : Reuss Voigt Hill
#
# Bulk Modulus (GPa) = 49.56078 51.71909 50.63994
# Shear Modulus (GPa) = 17.52128 19.76216 18.64172
#
# Velocity S-wave (km/s) = 3.53662 3.75597 3.64794
# Velocity P-wave (km/s) = 7.21499 7.46523 7.34118
#
# Compressibility (1/GPa) = 0.02017724
#
# Stress axis : x y z
#
# Youngs Moduli (GPa) = 58.63046 58.63046 63.39128
#
# Poissons Ratio (x) = 0.52253 0.18836
# Poissons Ratio (y) = 0.52253 0.18836
# Poissons Ratio (z) = 0.17421 0.17421
#
# Static dielectric constant tensor:
#      x y z
#    x 2.839660 0.000000 0.000000 
#    y 0.000000 2.839660 0.000000 
#    z 0.000000 0.000000 2.634110 
# 
# 
# High freq. dielectric constant tensor:
#      x y z
#    x 1.535610 0.000000 0.000000 
#    y 0.000000 1.535610 0.000000 
#    z 0.000000 0.000000 1.486970 
# 
# From -- ./inp_files/2361.got.cif
#   From: 2010.03.12/outbox.cif.g09.slc.cpg/sg83_2_cif.got.tgz:2361.got - 2010.04.08 20:05:18.
