data_PCOD8302124
_publ_section_title
;
Structure prediction by ZEFSAII (Michael W. Deem and Ramdas Pophale) SiO2 
 PCOD8302124
Probable space group: I 4
;
_chemical_formula_sum "Si O2"
_cell_formula_units_Z 44
_cell_length_a 8.095276
_cell_length_b 8.095276
_cell_length_c 29.424853
_cell_angle_alpha 90.000000
_cell_angle_beta 90.000000
_cell_angle_gamma 90.000000
_cell_volume 1928.313413
_symmetry_space_group_name_H-M "I 4"
_symmetry_group_IT_number 79
_symmetry_cell_setting 'tetragonal'
loop_
_space_group_symop_operation_xyz
x,y,z
-y,x,z
-x,-y,z
y,-x,z
1/2+x,1/2+y,1/2+z
1/2-y,1/2+x,1/2+z
1/2-x,1/2-y,1/2+z
1/2+y,1/2-x,1/2+z
loop_
_atom_site_type_symbol
_atom_site_label
_atom_site_fract_x
_atom_site_fract_y
_atom_site_fract_z
Si Si1 0.754854 0.406521 0.517920
Si Si2 0.000000 0.500000 0.949101
Si Si3 0.241582 0.588687 0.789453
Si Si4 0.738486 0.918653 0.874394
Si Si5 0.408100 0.755506 0.204473
Si Si6 0.100601 0.251742 0.120179
O O1 0.707459 0.597692 0.509575
O O2 0.820833 0.377450 0.569067
O O3 0.898942 0.371649 0.481451
O O4 0.889096 0.379272 0.917739
O O5 0.292821 0.399352 0.793379
O O6 0.112981 0.634218 0.828967
O O7 0.147536 0.611821 0.741835
O O8 0.891965 0.795526 0.876117
O O9 0.291899 0.597149 0.210774
O O10 0.390983 0.838272 0.154900
O O11 0.910353 0.209754 0.128626
#
# Coordination Sequence:
#
# PCOD8302124 Si02
#       6
#     8   4   8   8   8   8
#     4   9  20  39  62  90 123 160 206 257 311 376
#     4  12  22  36  64  92 118 156 204 256 314 370
#     4  11  24  42  65  94 126 160 205 260 315 374
#     4  11  24  42  64  91 125 165 210 257 310 378
#     4  11  24  39  58  89 128 168 208 251 305 373
#     4   9  19  37  61  89 121 159 207 258 306 364
#
# _framework density 22.817867
#
# number of rings (size 3 to 8) (size 9 to 14) (size 15 to 20)
#    0.000    1.636    0.000    5.455    0.000   11.636 
#    0.000    0.000    0.000    4.909    0.000    0.000 
#    0.000    0.000    0.000    0.000    0.000    0.000 
#
# Total GULP energy -272855.396108 kJ/mol
# GULP energy per Si atom -12402.518005 kJ/mol
# Density = 2.276593 g / cm^3
# Si number density = 22.817867 Si / 1000 Ang^3
#
#
#
# Elastic Constant Matrix: (Units=GPa)
#
#
# Indices 1 2 3 4 5 6 
#
# 1 76.5294 14.4767 46.2624 0.0000 0.0000 -1.0283
# 2 14.4767 76.5294 46.2624 0.0000 0.0000 1.0283
# 3 46.2624 46.2624 173.9636 0.0000 0.0000 0.0000
# 4 0.0000 0.0000 0.0000 41.7394 0.0000 0.0000
# 5 0.0000 0.0000 0.0000 0.0000 41.7394 0.0000
# 6 -1.0283 1.0283 0.0000 0.0000 0.0000 29.8115
#
#
#
# Elastic Compliance Matrix: (Units=1/GPa)
#
#
# Indices 1 2 3 4 5 6 
#
# 1 0.015597 -0.000537 -0.004005 0.000000 0.000000 0.000556
# 2 -0.000537 0.015597 -0.004005 0.000000 0.000000 -0.000556
# 3 -0.004005 -0.004005 0.007878 0.000000 0.000000 0.000000
# 4 0.000000 0.000000 0.000000 0.023958 0.000000 0.000000
# 5 0.000000 0.000000 0.000000 0.000000 0.023958 0.000000
# 6 0.000556 -0.000556 0.000000 0.000000 0.000000 0.033583
#
#
# Mechanical properties :
#
#
# Convention : Reuss Voigt Hill
#
# Bulk Modulus (GPa) = 45.49848 60.11391 52.80619
# Shear Modulus (GPa) = 34.48495 37.32614 35.90554
#
# Velocity S-wave (km/s) = 3.89178 4.04893 3.97113
# Velocity P-wave (km/s) = 6.33859 6.94699 6.64975
#
# Compressibility (1/GPa) = 0.02197876
#
# Stress axis : x y z
#
# Youngs Moduli (GPa) = 64.11523 64.11524 126.92913
#
# Poissons Ratio (x) = 0.03442 0.50834
# Poissons Ratio (y) = 0.03442 0.50834
# Poissons Ratio (z) = 0.25678 0.25678
#
# Static dielectric constant tensor:
#      x y z
#    x 4.025140 0.000000 0.000000 
#    y 0.000000 4.025140 0.000000 
#    z 0.000000 0.000000 4.264210 
# 
# 
# High freq. dielectric constant tensor:
#      x y z
#    x 1.893920 0.000000 0.000000 
#    y 0.000000 1.893920 0.000000 
#    z 0.000000 0.000000 1.916900 
# 
# From -- ./inp_files/2095.got.cif
#   From: 2010.03.12/outbox.cif.g09.slc.cpg/sg79_cif.got.tgz:2095.got - 2010.04.16 16:38:49.
