data_PCOD8302397
_publ_section_title
;
Structure prediction by ZEFSAII (Michael W. Deem and Ramdas Pophale) SiO2 
 PCOD8302397
Probable space group: I -4 
;
_chemical_formula_sum "Si O2"
_cell_formula_units_Z 64
_cell_length_a 22.556987
_cell_length_b 22.556987
_cell_length_c 5.551573
_cell_angle_alpha 90.000000
_cell_angle_beta 90.000000
_cell_angle_gamma 90.000000
_cell_volume 2824.738397
_symmetry_space_group_name_H-M "I -4 "
_symmetry_group_IT_number 82
_symmetry_cell_setting 'tetragonal'
loop_
_space_group_symop_operation_xyz
x,y,z
y,-x,-z
-x,-y,z
-y,x,-z
1/2+x,1/2+y,1/2+z
1/2+y,1/2-x,1/2-z
1/2-x,1/2-y,1/2+z
1/2-y,1/2+x,1/2-z
loop_
_atom_site_type_symbol
_atom_site_label
_atom_site_fract_x
_atom_site_fract_y
_atom_site_fract_z
Si Si1 0.173074 0.686027 0.683702
Si Si2 0.587127 0.695663 0.837692
Si Si3 0.620510 0.338255 0.603021
Si Si4 0.556617 0.246894 0.296211
Si Si5 0.860520 0.971917 0.517366
Si Si6 0.234203 0.570528 0.652073
Si Si7 0.299013 0.286553 0.058716
Si Si8 0.560490 0.559757 0.609200
O O1 0.103829 0.697480 0.719045
O O2 0.180714 0.617205 0.611203
O O3 0.194621 0.731312 0.476719
O O4 0.215064 0.698593 0.917633
O O5 0.573241 0.725552 0.585039
O O6 0.659552 0.684277 0.845433
O O7 0.538553 0.641558 0.861549
O O8 0.582556 0.733868 0.089540
O O9 0.583895 0.280633 0.525804
O O10 0.617864 0.394399 0.414296
O O11 0.585288 0.369463 0.818593
O O12 0.686978 0.321947 0.682600
O O13 0.539057 0.296109 0.101360
O O14 0.496966 0.210088 0.354745
O O15 0.916283 0.976405 0.339197
O O16 0.572965 0.510153 0.391507
#
# Coordination Sequence:
#
# PCOD8302397 Si02
#       8
#     8   8   8   8   8   8   8   8
#     4  11  22  39  62  99 131 160 207 275 334 395
#     4  10  21  39  61  89 129 169 217 258 323 392
#     4  11  21  38  60  84 120 170 217 273 337 403
#     4  10  21  40  61  85 126 165 211 254 328 410
#     4  10  20  39  58  85 114 173 218 272 330 397
#     4  10  22  40  63  90 126 172 207 253 319 408
#     4  11  22  36  60  98 126 162 209 276 339 380
#     4  10  23  39  55  82 120 169 236 297 333 375
#
# _framework density 22.656963000000001
#
# number of rings (size 3 to 8) (size 9 to 14) (size 15 to 20)
#    0.000    1.625    2.500    2.250    0.000    5.000 
#    0.000    1.250    0.000    0.375    0.000    0.000 
#    0.000    4.500    0.000    0.000    0.000    0.750 
#
# Total GULP energy -396436.564727 kJ/mol
# GULP energy per Si atom -12388.642648 kJ/mol
# Density = 2.260539 g / cm^3
# Si number density = 22.656963 Si / 1000 Ang^3
#
#
#
# Elastic Constant Matrix: (Units=GPa)
#
#
# Indices 1 2 3 4 5 6 
#
# 1 130.4822 49.3369 19.5800 0.0000 0.0000 1.3766
# 2 49.3369 130.4822 19.5800 0.0000 0.0000 -1.3766
# 3 19.5800 19.5800 76.4206 0.0000 0.0000 0.0000
# 4 0.0000 0.0000 0.0000 30.3378 0.0000 0.0000
# 5 0.0000 0.0000 0.0000 0.0000 30.3378 0.0000
# 6 1.3766 -1.3766 0.0000 0.0000 0.0000 42.1068
#
#
#
# Elastic Compliance Matrix: (Units=1/GPa)
#
#
# Indices 1 2 3 4 5 6 
#
# 1 0.009114 -0.003224 -0.001509 0.000000 0.000000 -0.000403
# 2 -0.003224 0.009114 -0.001509 0.000000 0.000000 0.000403
# 3 -0.001509 -0.001509 0.013859 0.000000 0.000000 0.000000
# 4 0.000000 0.000000 0.000000 0.032962 0.000000 0.000000
# 5 0.000000 0.000000 0.000000 0.000000 0.032962 0.000000
# 6 -0.000403 0.000403 0.000000 0.000000 0.000000 0.023775
#
#
# Mechanical properties :
#
#
# Convention : Reuss Voigt Hill
#
# Bulk Modulus (GPa) = 51.01480 57.15316 54.08398
# Shear Modulus (GPa) = 35.51051 37.14902 36.32977
#
# Velocity S-wave (km/s) = 3.96322 4.05363 4.00868
# Velocity P-wave (km/s) = 6.59605 6.86945 6.73414
#
# Compressibility (1/GPa) = 0.01960215
#
# Stress axis : x y z
#
# Youngs Moduli (GPa) = 109.72716 109.72716 72.15656
#
# Poissons Ratio (x) = 0.35373 0.10889
# Poissons Ratio (y) = 0.35373 0.10889
# Poissons Ratio (z) = 0.16558 0.16558
#
# Static dielectric constant tensor:
#      x y z
#    x 4.298860 0.000000 0.000000 
#    y 0.000000 4.298860 0.000000 
#    z 0.000000 0.000000 4.438530 
# 
# 
# High freq. dielectric constant tensor:
#      x y z
#    x 1.880840 0.000000 0.000000 
#    y 0.000000 1.880840 0.000000 
#    z 0.000000 0.000000 1.918110 
# 
# From -- ./inp_files/469.got.cif
#   From: 2010.03.12/outbox.cif.g09.slc.cpg/sg82_1_cif.got.tgz:469.got - 2010.04.08 20:02:50.
