data_PCOD8302435
_publ_section_title
;
Structure prediction by ZEFSAII (Michael W. Deem and Ramdas Pophale) SiO2 
 PCOD8302435
Probable space group: I -4 
;
_chemical_formula_sum "Si O2"
_cell_formula_units_Z 48
_cell_length_a 8.636909
_cell_length_b 8.636909
_cell_length_c 29.196631
_cell_angle_alpha 90.000000
_cell_angle_beta 90.000000
_cell_angle_gamma 90.000000
_cell_volume 2177.957640
_symmetry_space_group_name_H-M "I -4 "
_symmetry_group_IT_number 82
_symmetry_cell_setting 'tetragonal'
loop_
_space_group_symop_operation_xyz
x,y,z
y,-x,-z
-x,-y,z
-y,x,-z
1/2+x,1/2+y,1/2+z
1/2+y,1/2-x,1/2-z
1/2-x,1/2-y,1/2+z
1/2-y,1/2+x,1/2-z
loop_
_atom_site_type_symbol
_atom_site_label
_atom_site_fract_x
_atom_site_fract_y
_atom_site_fract_z
Si Si1 0.654104 0.223954 0.819932
Si Si2 0.764449 0.103256 0.001398
Si Si3 0.104564 0.765640 0.420264
Si Si4 0.910500 0.841285 0.255057
Si Si5 0.956181 0.324558 0.680016
Si Si6 0.234145 0.102202 0.417919
O O1 0.621379 0.174010 0.871972
O O2 0.774571 0.107497 0.796110
O O3 0.500502 0.224557 0.788713
O O4 0.714748 0.397328 0.823525
O O5 0.656404 0.144840 0.958517
O O6 0.667141 0.139484 0.046987
O O7 0.921638 0.201723 0.999942
O O8 0.926446 0.810611 0.426800
O O9 0.211382 0.918321 0.424287
O O10 0.738127 0.856480 0.276961
O O11 0.000000 0.000000 0.248963
O O12 0.862366 0.303274 0.632579
O O13 0.000000 0.500000 0.689818
#
# Coordination Sequence:
#
# PCOD8302435 Si02
#       6
#     8   8   8   8   8   8
#     4  10  22  41  64  92 135 173 216 276 324 387
#     4  11  26  44  61  93 135 169 214 273 331 391
#     4  10  21  43  67  96 128 168 218 269 324 389
#     4  10  22  42  62  96 137 173 219 274 327 382
#     4  10  22  37  66 100 127 168 222 264 321 392
#     4  10  21  41  69  96 124 166 215 264 323 391
#
# _framework density 22.038995
#
# number of rings (size 3 to 8) (size 9 to 14) (size 15 to 20)
#    0.000    1.833    1.667    1.000    9.333    3.667 
#    6.000    1.667    0.000    0.000    0.000    0.000 
#    0.000    0.000    0.000    0.000    0.000    0.000 
#
# Total GULP energy -297625.586785 kJ/mol
# GULP energy per Si atom -12401.066116 kJ/mol
# Density = 2.198883 g / cm^3
# Si number density = 22.038995 Si / 1000 Ang^3
#
#
#
# Elastic Constant Matrix: (Units=GPa)
#
#
# Indices 1 2 3 4 5 6 
#
# 1 73.1452 15.6798 39.1969 0.0000 0.0000 -1.5599
# 2 15.6798 73.1452 39.1969 0.0000 0.0000 1.5599
# 3 39.1969 39.1969 146.0801 0.0000 0.0000 0.0000
# 4 0.0000 0.0000 0.0000 18.1635 0.0000 0.0000
# 5 0.0000 0.0000 0.0000 0.0000 18.1635 0.0000
# 6 -1.5599 1.5599 0.0000 0.0000 0.0000 30.5777
#
#
#
# Elastic Compliance Matrix: (Units=1/GPa)
#
#
# Indices 1 2 3 4 5 6 
#
# 1 0.016101 -0.001349 -0.003958 0.000000 0.000000 0.000890
# 2 -0.001349 0.016101 -0.003958 0.000000 0.000000 -0.000890
# 3 -0.003958 -0.003958 0.008970 0.000000 0.000000 0.000000
# 4 0.000000 0.000000 0.000000 0.055056 0.000000 0.000000
# 5 0.000000 0.000000 0.000000 0.000000 0.055056 0.000000
# 6 0.000890 -0.000890 0.000000 0.000000 0.000000 0.032794
#
#
# Mechanical properties :
#
#
# Convention : Reuss Voigt Hill
#
# Bulk Modulus (GPa) = 44.16982 53.39083 48.78032
# Shear Modulus (GPa) = 23.79199 26.60072 25.19636
#
# Velocity S-wave (km/s) = 3.28920 3.47794 3.38488
# Velocity P-wave (km/s) = 5.87455 6.35659 6.12032
#
# Compressibility (1/GPa) = 0.02263989
#
# Stress axis : x y z
#
# Youngs Moduli (GPa) = 62.10883 62.10884 111.48636
#
# Poissons Ratio (x) = 0.08381 0.44128
# Poissons Ratio (y) = 0.08381 0.44128
# Poissons Ratio (z) = 0.24584 0.24584
#
# Static dielectric constant tensor:
#      x y z
#    x 3.838270 0.000000 0.000000 
#    y 0.000000 3.838270 0.000000 
#    z 0.000000 0.000000 4.209410 
# 
# 
# High freq. dielectric constant tensor:
#      x y z
#    x 1.857880 0.000000 0.000000 
#    y 0.000000 1.857880 0.000000 
#    z 0.000000 0.000000 1.880190 
# 
# From -- ./inp_files/4024.got.cif
#   From: 2010.03.12/outbox.cif.g09.slc.cpg/sg82_3_cif.got.tgz:4024.got - 2010.04.08 20:02:50.
