data_PCOD8302677
_publ_section_title
;
Structure prediction by ZEFSAII (Michael W. Deem and Ramdas Pophale) SiO2 
 PCOD8302677
Probable space group: P 4/M
;
_chemical_formula_sum "Si O2"
_cell_formula_units_Z 56
_cell_length_a 20.142774
_cell_length_b 20.142774
_cell_length_c 8.989898
_cell_angle_alpha 90.000000
_cell_angle_beta 90.000000
_cell_angle_gamma 90.000000
_cell_volume 3647.483402
_symmetry_space_group_name_H-M "P 4/M"
_symmetry_group_IT_number 83
_symmetry_cell_setting 'tetragonal'
loop_
_space_group_symop_operation_xyz
x,y,z
-y,x,z
-x,-y,z
y,-x,z
-x,-y,-z
y,-x,-z
x,y,-z
-y,x,-z
loop_
_atom_site_type_symbol
_atom_site_label
_atom_site_fract_x
_atom_site_fract_y
_atom_site_fract_z
Si Si1 0.828671 0.257854 0.333454
Si Si2 0.852879 0.937360 0.662659
Si Si3 0.737776 0.165468 0.833120
Si Si4 0.931413 0.637006 0.323749
Si Si5 0.506254 0.077567 0.837914
Si Si6 0.149449 0.941504 0.162812
Si Si7 0.359339 0.074806 0.176595
O O1 0.810623 0.283947 0.500000
O O2 0.875720 0.195259 0.349948
O O3 0.761490 0.233674 0.248544
O O4 0.867274 0.313184 0.239725
O O5 0.873009 0.962856 0.500000
O O6 0.919259 0.916724 0.750448
O O7 0.816796 0.997330 0.749680
O O8 0.683209 0.127470 0.735924
O O9 0.800553 0.118623 0.848820
O O10 0.711042 0.182069 0.000000
O O11 0.938321 0.645147 0.500000
O O12 0.907197 0.562344 0.284269
O O13 0.002746 0.654537 0.250696
O O14 0.433448 0.101746 0.785880
O O15 0.500000 0.000000 0.860893
O O16 0.525377 0.108696 0.000000
O O17 0.129028 0.966424 0.000000
O O18 0.348189 0.066361 0.000000
#
# Coordination Sequence:
#
# PCOD8302677 Si02
#       7
#     8   8   8   8   8   8   8
#     4  10  20  32  46  64  84 105 134 172 209 247
#     4  10  20  32  44  57  74  94 118 155 203 248
#     4  10  20  33  47  61  81 109 138 168 205 252
#     4  11  20  29  45  67  89 112 141 179 219 255
#     4   8  16  30  45  63  87 113 141 172 208 255
#     4  10  20  32  45  58  71  91 123 160 196 241
#     4  10  19  31  47  65  87 115 144 174 213 260
#
# _framework density 15.353052
#
# number of rings (size 3 to 8) (size 9 to 14) (size 15 to 20)
#    0.000    2.143    0.000    5.143    0.000    9.143 
#    0.000    1.429    0.000    0.000    0.000    0.000 
#    0.000    0.000    0.000    0.000    0.000    0.714 
#
# Total GULP energy -693983.444056 kJ/mol
# GULP energy per Si atom -12392.561501 kJ/mol
# Density = 1.531811 g / cm^3
# Si number density = 15.353052 Si / 1000 Ang^3
#
#
#
# Elastic Constant Matrix: (Units=GPa)
#
#
# Indices 1 2 3 4 5 6 
#
# 1 64.9782 25.5149 43.1932 0.0000 0.0000 -1.2954
# 2 25.5149 64.9782 43.1932 0.0000 0.0000 1.2954
# 3 43.1932 43.1932 145.5228 0.0000 0.0000 0.0000
# 4 0.0000 0.0000 0.0000 -23.0595 0.0000 0.0000
# 5 0.0000 0.0000 0.0000 0.0000 -23.0595 0.0000
# 6 -1.2954 1.2954 0.0000 0.0000 0.0000 8.9881
#
#
#
# Elastic Compliance Matrix: (Units=1/GPa)
#
#
# Indices 1 2 3 4 5 6 
#
# 1 0.020501 -0.005081 -0.004577 0.000000 0.000000 0.003687
# 2 -0.005081 0.020501 -0.004577 0.000000 0.000000 -0.003687
# 3 -0.004577 -0.004577 0.009589 0.000000 0.000000 0.000000
# 4 0.000000 0.000000 0.000000 -0.043366 0.000000 0.000000
# 5 0.000000 0.000000 0.000000 0.000000 -0.043366 0.000000
# 6 0.003687 -0.003687 0.000000 0.000000 0.000000 0.112321
#
#
# Mechanical properties :
#
#
# Convention : Reuss Voigt Hill
#
# Bulk Modulus (GPa) = 45.20614 55.47573 50.34094
# Shear Modulus (GPa) = 44.63376 3.47899 24.05637
#
# Velocity S-wave (km/s) = 5.39766 1.50695 3.96268
# Velocity P-wave (km/s) = 8.26768 6.26416 7.33465
#
# Compressibility (1/GPa) = 0.02212089
#
# Stress axis : x y z
#
# Youngs Moduli (GPa) = 48.77850 48.77850 104.28974
#
# Poissons Ratio (x) = 0.24785 0.47731
# Poissons Ratio (y) = 0.24785 0.47731
# Poissons Ratio (z) = 0.22325 0.22325
#
# Static dielectric constant tensor:
#      x y z
#    x 2.926330 0.000000 0.000000 
#    y 0.000000 2.926330 0.000000 
#    z 0.000000 0.000000 3.357580 
# 
# 
# High freq. dielectric constant tensor:
#      x y z
#    x 1.552110 0.000000 0.000000 
#    y 0.000000 1.552110 0.000000 
#    z 0.000000 0.000000 1.613550 
# 
# From -- ./inp_files/1221.got.cif
#   From: 2010.03.12/outbox.cif.g09.slc.cpg/sg83_1_cif.got.tgz:1221.got - 2010.04.08 20:05:18.
