data_PCOD8302931
_publ_section_title
;
Structure prediction by ZEFSAII (Michael W. Deem and Ramdas Pophale) SiO2 
 PCOD8302931
Probable space group: P 4/M
;
_chemical_formula_sum "Si O2"
_cell_formula_units_Z 32
_cell_length_a 9.546855
_cell_length_b 9.546855
_cell_length_c 17.673385
_cell_angle_alpha 90.000000
_cell_angle_beta 90.000000
_cell_angle_gamma 90.000000
_cell_volume 1610.795439
_symmetry_space_group_name_H-M "P 4/M"
_symmetry_group_IT_number 83
_symmetry_cell_setting 'tetragonal'
loop_
_space_group_symop_operation_xyz
x,y,z
-y,x,z
-x,-y,z
y,-x,z
-x,-y,-z
y,-x,-z
x,y,-z
-y,x,-z
loop_
_atom_site_type_symbol
_atom_site_label
_atom_site_fract_x
_atom_site_fract_y
_atom_site_fract_z
Si Si1 0.643295 0.870296 0.414467
Si Si2 0.831758 0.646315 0.644032
Si Si3 0.696459 0.625044 0.195639
Si Si4 0.126754 0.187498 0.911174
O O1 0.627624 0.926609 0.500000
O O2 0.773176 0.766642 0.410382
O O3 0.504234 0.786106 0.388969
O O4 0.662240 0.000464 0.357296
O O5 0.769798 0.670624 0.726844
O O6 0.542401 0.691461 0.189641
O O7 0.791111 0.686543 0.128750
O O8 0.962976 0.191652 0.888006
O O9 0.142635 0.211536 0.000000
#
# Coordination Sequence:
#
# PCOD8302931 Si02
#       4
#     8   8   8   8
#     4  11  23  41  63  88 122 162 211 261 312 371
#     4  11  23  40  60  90 123 162 207 255 313 370
#     4  11  24  41  61  91 128 167 208 258 310 371
#     4   9  21  42  68  97 129 166 208 251 304 369
#
# _framework density 19.865963000000001
#
# number of rings (size 3 to 8) (size 9 to 14) (size 15 to 20)
#    0.000    1.500    2.500    3.750    3.500    3.000 
#    0.000    6.250    0.000    0.000    0.000    0.000 
#    0.000    0.000    0.000    0.000    0.000    0.000 
#
# Total GULP energy -396863.217610 kJ/mol
# GULP energy per Si atom -12401.975550 kJ/mol
# Density = 1.982075 g / cm^3
# Si number density = 19.865963 Si / 1000 Ang^3
#
#
#
# Elastic Constant Matrix: (Units=GPa)
#
#
# Indices 1 2 3 4 5 6 
#
# 1 103.3548 75.8006 51.6957 0.0000 0.0000 0.7261
# 2 75.8006 103.3548 51.6957 0.0000 0.0000 -0.7261
# 3 51.6957 51.6957 98.2188 0.0000 0.0000 0.0000
# 4 0.0000 0.0000 0.0000 36.0141 0.0000 0.0000
# 5 0.0000 0.0000 0.0000 0.0000 36.0141 0.0000
# 6 0.7261 -0.7261 0.0000 0.0000 0.0000 44.8524
#
#
#
# Elastic Compliance Matrix: (Units=1/GPa)
#
#
# Indices 1 2 3 4 5 6 
#
# 1 0.022170 -0.014153 -0.004220 0.000000 0.000000 -0.000588
# 2 -0.014153 0.022170 -0.004220 0.000000 0.000000 0.000588
# 3 -0.004220 -0.004220 0.014623 0.000000 0.000000 0.000000
# 4 0.000000 0.000000 0.000000 0.027767 0.000000 0.000000
# 5 0.000000 0.000000 0.000000 0.000000 0.027767 0.000000
# 6 -0.000588 0.000588 0.000000 0.000000 0.000000 0.022314
#
#
# Mechanical properties :
#
#
# Convention : Reuss Voigt Hill
#
# Bulk Modulus (GPa) = 72.57581 73.70137 73.13859
# Shear Modulus (GPa) = 26.79696 31.75855 29.27776
#
# Velocity S-wave (km/s) = 3.67671 4.00264 3.84313
# Velocity P-wave (km/s) = 7.39164 7.65123 7.52255
#
# Compressibility (1/GPa) = 0.01377870
#
# Stress axis : x y z
#
# Youngs Moduli (GPa) = 45.10615 45.10615 68.38507
#
# Poissons Ratio (x) = 0.63839 0.28855
# Poissons Ratio (y) = 0.63839 0.28855
# Poissons Ratio (z) = 0.19033 0.19033
#
# Static dielectric constant tensor:
#      x y z
#    x 3.598260 0.000000 0.000000 
#    y 0.000000 3.598260 0.000000 
#    z 0.000000 0.000000 3.451050 
# 
# 
# High freq. dielectric constant tensor:
#      x y z
#    x 1.778710 0.000000 0.000000 
#    y 0.000000 1.778710 0.000000 
#    z 0.000000 0.000000 1.772790 
# 
# From -- ./inp_files/2791.got.cif
#   From: 2010.03.12/outbox.cif.g09.slc.cpg/sg83_2_cif.got.tgz:2791.got - 2010.04.08 20:05:18.
