data_PCOD8302981
_publ_section_title
;
Structure prediction by ZEFSAII (Michael W. Deem and Ramdas Pophale) SiO2 
 PCOD8302981
Probable space group: P 4/M
;
_chemical_formula_sum "Si O2"
_cell_formula_units_Z 44
_cell_length_a 8.321784
_cell_length_b 8.321784
_cell_length_c 28.508990
_cell_angle_alpha 90.000000
_cell_angle_beta 90.000000
_cell_angle_gamma 90.000000
_cell_volume 1974.307111
_symmetry_space_group_name_H-M "P 4/M"
_symmetry_group_IT_number 83
_symmetry_cell_setting 'tetragonal'
loop_
_space_group_symop_operation_xyz
x,y,z
-y,x,z
-x,-y,z
y,-x,z
-x,-y,-z
y,-x,-z
x,y,-z
-y,x,-z
loop_
_atom_site_type_symbol
_atom_site_label
_atom_site_fract_x
_atom_site_fract_y
_atom_site_fract_z
Si Si1 0.101368 0.243811 0.639004
Si Si2 0.258804 0.392595 0.000000
Si Si3 0.744618 0.607949 0.898749
Si Si4 0.097137 0.246809 0.811647
Si Si5 0.262943 0.385117 0.446851
Si Si6 0.747664 0.595995 0.274792
O O1 0.126231 0.319244 0.587547
O O2 0.155116 0.372399 0.677596
O O3 0.915239 0.207008 0.645580
O O4 0.420507 0.293139 0.000000
O O5 0.172275 0.355082 0.950114
O O6 0.580184 0.707365 0.892746
O O7 0.872920 0.661541 0.860345
O O8 0.139920 0.364624 0.769200
O O9 0.910988 0.205775 0.808297
O O10 0.427289 0.290039 0.437284
O O11 0.203480 0.357199 0.500000
O O12 0.590043 0.705248 0.272931
#
# Coordination Sequence:
#
# PCOD8302981 Si02
#       6
#     8   4   8   8   8   8
#     4  11  24  39  56  83 118 151 183 222 270 325
#     4   7  12  26  50  79 108 136 172 223 272 313
#     4   9  17  32  56  83 108 138 180 226 271 320
#     4  11  24  39  54  77 111 147 181 219 267 323
#     4   9  19  37  60  85 113 147 190 236 276 318
#     4  11  24  41  62  86 108 135 178 228 274 324
#
# _framework density 22.286300000000001
#
# number of rings (size 3 to 8) (size 9 to 14) (size 15 to 20)
#    0.000    2.091    0.000    4.909    0.000   12.364 
#    0.000    3.636    0.000    4.364    0.000    0.000 
#    0.000    0.000    0.000    0.000    0.000    0.000 
#
# Total GULP energy -545582.270674 kJ/mol
# GULP energy per Si atom -12399.597061 kJ/mol
# Density = 2.223558 g / cm^3
# Si number density = 22.286300 Si / 1000 Ang^3
#
#
#
# Elastic Constant Matrix: (Units=GPa)
#
#
# Indices 1 2 3 4 5 6 
#
# 1 17.7464 -9.5760 8.2796 0.0000 0.0000 0.0507
# 2 -9.5760 17.7464 8.2796 0.0000 0.0000 -0.0507
# 3 8.2796 8.2796 146.7830 0.0000 0.0000 0.0000
# 4 0.0000 0.0000 0.0000 -1.6917 0.0000 0.0000
# 5 0.0000 0.0000 0.0000 0.0000 -1.6917 0.0000
# 6 0.0507 -0.0507 0.0000 0.0000 0.0000 31.5350
#
#
#
# Elastic Compliance Matrix: (Units=1/GPa)
#
#
# Indices 1 2 3 4 5 6 
#
# 1 0.087396 0.050795 -0.007795 0.000000 0.000000 -0.000059
# 2 0.050795 0.087396 -0.007795 0.000000 0.000000 0.000059
# 3 -0.007795 -0.007795 0.007692 0.000000 0.000000 0.000000
# 4 0.000000 0.000000 0.000000 -0.591134 0.000000 0.000000
# 5 0.000000 0.000000 0.000000 0.000000 -0.591134 0.000000
# 6 -0.000059 0.000059 0.000000 0.000000 0.000000 0.031711
#
#
# Mechanical properties :
#
#
# Convention : Reuss Voigt Hill
#
# Bulk Modulus (GPa) = 3.95422 21.80470 12.87946
# Shear Modulus (GPa) = -5.24007 17.31650 6.03822
#
# Velocity S-wave (km/s) = -1.53504 2.79050 1.64781
# Velocity P-wave (km/s) = 1.16776 4.49307 3.06790
#
# Compressibility (1/GPa) = 0.25289406
#
# Stress axis : x y z
#
# Youngs Moduli (GPa) = 11.44223 11.44223 130.00252
#
# Poissons Ratio (x) = -0.58121 1.01336
# Poissons Ratio (y) = -0.58121 1.01336
# Poissons Ratio (z) = 0.08919 0.08919
#
# Static dielectric constant tensor:
#      x y z
#    x 3.809140 0.000000 0.000000 
#    y 0.000000 3.809140 0.000000 
#    z 0.000000 0.000000 4.280050 
# 
# 
# High freq. dielectric constant tensor:
#      x y z
#    x 1.866210 0.000000 0.000000 
#    y 0.000000 1.866210 0.000000 
#    z 0.000000 0.000000 1.896200 
# 
# From -- ./inp_files/3370.got.cif
#   From: 2010.03.12/outbox.cif.g09.slc.cpg/sg83_2_cif.got.tgz:3370.got - 2010.04.08 20:05:18.
