data_PCOD8302321
_publ_section_title
;
Structure prediction by ZEFSAII (Michael W. Deem and Ramdas Pophale) SiO2 
 PCOD8302321
Probable space group: P -4
;
_chemical_formula_sum "Si O2"
_cell_formula_units_Z 17
_cell_length_a 9.246271
_cell_length_b 9.246271
_cell_length_c 8.515494
_cell_angle_alpha 90.000000
_cell_angle_beta 90.000000
_cell_angle_gamma 90.000000
_cell_volume 728.019620
_symmetry_space_group_name_H-M "P -4"
_symmetry_group_IT_number 81
_symmetry_cell_setting 'tetragonal'
loop_
_space_group_symop_operation_xyz
x,y,z
y,-x,-z
-x,-y,z
-y,x,-z
loop_
_atom_site_type_symbol
_atom_site_label
_atom_site_fract_x
_atom_site_fract_y
_atom_site_fract_z
Si Si1 0.306804 0.426673 0.081363
Si Si2 0.887062 0.795665 0.965864
Si Si3 0.817121 0.752154 0.618607
Si Si4 0.000000 0.000000 0.500000
Si Si5 0.492819 0.159443 0.616847
O O1 0.293496 0.483133 0.260882
O O2 0.320835 0.556018 0.952293
O O3 0.158281 0.335409 0.077969
O O4 0.814525 0.737796 0.805676
O O5 0.058712 0.811552 0.970204
O O6 0.949359 0.864819 0.602636
O O7 0.668646 0.817982 0.550641
O O8 0.842312 0.601278 0.530823
O O9 0.500000 0.000000 0.696494
#
# Coordination Sequence:
#
# PCOD8302321 Si02
#       5
#     4   4   4   1   4
#     4  11  26  46  70 102 149 197 251 312 385 471
#     4  11  25  47  75 108 146 199 260 316 383 459
#     4  12  27  47  77 110 154 200 256 327 396 468
#     4  12  24  48  74 108 148 188 258 312 380 468
#     4  12  27  48  73 114 152 202 259 327 401 475
#
# _framework density 23.351019000000001
#
# number of rings (size 3 to 8) (size 9 to 14) (size 15 to 20)
#    0.000    0.471    4.706    2.824    6.588    0.471 
#    0.000    0.000    0.000    0.000    0.000    0.000 
#    0.000    0.000    0.000    0.000    0.000    0.000 
#
# Total GULP energy -210642.790882 kJ/mol
# GULP energy per Si atom -12390.752405 kJ/mol
# Density = 2.329787 g / cm^3
# Si number density = 23.351019 Si / 1000 Ang^3
#
#
#
# Elastic Constant Matrix: (Units=GPa)
#
#
# Indices 1 2 3 4 5 6 
#
# 1 113.7473 27.4910 45.2890 0.0000 0.0000 -11.8769
# 2 27.4910 113.7473 45.2890 0.0000 0.0000 11.8769
# 3 45.2890 45.2890 83.9243 0.0000 0.0000 0.0000
# 4 0.0000 0.0000 0.0000 24.2882 0.0000 0.0000
# 5 0.0000 0.0000 0.0000 0.0000 24.2882 0.0000
# 6 -11.8769 11.8769 0.0000 0.0000 0.0000 44.0138
#
#
#
# Elastic Compliance Matrix: (Units=1/GPa)
#
#
# Indices 1 2 3 4 5 6 
#
# 1 0.011676 -0.000848 -0.005843 0.000000 0.000000 0.003380
# 2 -0.000848 0.011676 -0.005843 0.000000 0.000000 -0.003380
# 3 -0.005843 -0.005843 0.018222 0.000000 0.000000 0.000000
# 4 0.000000 0.000000 0.000000 0.041172 0.000000 0.000000
# 5 0.000000 0.000000 0.000000 0.000000 0.041172 0.000000
# 6 0.003380 -0.003380 0.000000 0.000000 0.000000 0.024544
#
#
# Mechanical properties :
#
#
# Convention : Reuss Voigt Hill
#
# Bulk Modulus (GPa) = 60.58848 60.83966 60.71407
# Shear Modulus (GPa) = 27.92805 31.40803 29.66804
#
# Velocity S-wave (km/s) = 3.46209 3.67146 3.56831
# Velocity P-wave (km/s) = 6.47955 6.63956 6.56004
#
# Compressibility (1/GPa) = 0.01650479
#
# Stress axis : x y z
#
# Youngs Moduli (GPa) = 85.64794 85.64794 54.87980
#
# Poissons Ratio (x) = 0.07266 0.32066
# Poissons Ratio (y) = 0.07266 0.32066
# Poissons Ratio (z) = 0.50043 0.50043
#
# Static dielectric constant tensor:
#      x y z
#    x 4.301010 0.000000 0.000000 
#    y 0.000000 4.301010 0.000000 
#    z 0.000000 0.000000 3.999580 
# 
# 
# High freq. dielectric constant tensor:
#      x y z
#    x 1.935640 0.000000 0.000000 
#    y 0.000000 1.935640 0.000000 
#    z 0.000000 0.000000 1.904820 
# 
# From -- ./inp_files/645.got.cif
#   From: 2010.03.12/outbox.cif.g09.slc.cpg/sg81_cif.got.tgz:645.got - 2010.04.08 20:01:38.
