data_PCOD8302899
_publ_section_title
;
Structure prediction by ZEFSAII (Michael W. Deem and Ramdas Pophale) SiO2 
 PCOD8302899
Probable space group: P 4/M
;
_chemical_formula_sum "Si O2"
_cell_formula_units_Z 56
_cell_length_a 11.314320
_cell_length_b 11.314320
_cell_length_c 24.025622
_cell_angle_alpha 90.000000
_cell_angle_beta 90.000000
_cell_angle_gamma 90.000000
_cell_volume 3075.612060
_symmetry_space_group_name_H-M "P 4/M"
_symmetry_group_IT_number 83
_symmetry_cell_setting 'tetragonal'
loop_
_space_group_symop_operation_xyz
x,y,z
-y,x,z
-x,-y,z
y,-x,z
-x,-y,-z
y,-x,-z
x,y,-z
-y,x,-z
loop_
_atom_site_type_symbol
_atom_site_label
_atom_site_fract_x
_atom_site_fract_y
_atom_site_fract_z
Si Si1 0.347081 0.811546 0.150763
Si Si2 0.413187 0.225237 0.188966
Si Si3 0.937098 0.819258 0.434996
Si Si4 0.604261 0.080647 0.356912
Si Si5 0.828548 0.084614 0.934853
Si Si6 0.003067 0.359799 0.239235
Si Si7 0.513015 0.310091 0.698712
O O1 0.490384 0.821662 0.143561
O O2 0.318323 0.673338 0.160417
O O3 0.283885 0.859452 0.095702
O O4 0.303059 0.892359 0.202702
O O5 0.324464 0.125377 0.214851
O O6 0.502320 0.277391 0.236185
O O7 0.927355 0.792076 0.500000
O O8 0.893928 0.702745 0.402998
O O9 0.071846 0.851714 0.419043
O O10 0.532778 0.196801 0.339070
O O11 0.500000 0.000000 0.382113
O O12 0.672534 0.021846 0.304024
O O13 0.947167 0.155929 0.918248
O O14 0.804595 0.096211 0.000000
O O15 0.000000 0.500000 0.234182
O O16 0.624902 0.391389 0.684459
#
# Coordination Sequence:
#
# PCOD8302899 Si02
#       7
#     8   8   8   8   8   8   8
#     4  11  20  32  52  78 109 144 184 221 269 333
#     4  11  19  32  52  76 109 148 180 218 270 331
#     4   9  21  41  61  82 111 149 194 244 298 351
#     4  11  20  33  58  86 113 146 190 240 288 336
#     4   9  19  38  60  79 102 138 184 234 288 338
#     4   9  18  32  46  76 111 140 171 223 273 321
#     4  11  21  35  53  78 116 156 191 219 271 348
#
# _framework density 18.207757999999998
#
# number of rings (size 3 to 8) (size 9 to 14) (size 15 to 20)
#    0.000    1.857    5.714    1.714    2.000    1.714 
#    0.000    0.714    0.000    7.286    0.000    2.000 
#    0.000    0.000    0.000    0.000    0.000    0.000 
#
# Total GULP energy -694020.331344 kJ/mol
# GULP energy per Si atom -12393.220203 kJ/mol
# Density = 1.816632 g / cm^3
# Si number density = 18.207758 Si / 1000 Ang^3
#
#
#
# Elastic Constant Matrix: (Units=GPa)
#
#
# Indices 1 2 3 4 5 6 
#
# 1 82.2580 28.6769 32.6206 0.0000 0.0000 -8.0084
# 2 28.6769 82.2580 32.6206 0.0000 0.0000 8.0084
# 3 32.6206 32.6206 61.5417 0.0000 0.0000 0.0000
# 4 0.0000 0.0000 0.0000 28.6907 0.0000 0.0000
# 5 0.0000 0.0000 0.0000 0.0000 28.6907 0.0000
# 6 -8.0084 8.0084 0.0000 0.0000 0.0000 21.2176
#
#
#
# Elastic Compliance Matrix: (Units=1/GPa)
#
#
# Indices 1 2 3 4 5 6 
#
# 1 0.017067 -0.003970 -0.006942 0.000000 0.000000 0.007940
# 2 -0.003970 0.017067 -0.006942 0.000000 0.000000 -0.007940
# 3 -0.006942 -0.006942 0.023609 0.000000 0.000000 0.000000
# 4 0.000000 0.000000 0.000000 0.034854 0.000000 0.000000
# 5 0.000000 0.000000 0.000000 0.000000 0.034854 0.000000
# 6 0.007940 -0.007940 0.000000 0.000000 0.000000 0.053125
#
#
# Mechanical properties :
#
#
# Convention : Reuss Voigt Hill
#
# Bulk Modulus (GPa) = 45.38443 45.98824 45.68634
# Shear Modulus (GPa) = 22.35846 24.52911 23.44379
#
# Velocity S-wave (km/s) = 3.50803 3.67438 3.59217
# Velocity P-wave (km/s) = 6.43338 6.58132 6.50777
#
# Compressibility (1/GPa) = 0.02203399
#
# Stress axis : x y z
#
# Youngs Moduli (GPa) = 58.59296 58.59296 42.35735
#
# Poissons Ratio (x) = 0.23261 0.29405
# Poissons Ratio (y) = 0.23261 0.29405
# Poissons Ratio (z) = 0.40676 0.40676
#
# Static dielectric constant tensor:
#      x y z
#    x 3.474460 0.000000 0.000000 
#    y 0.000000 3.474460 0.000000 
#    z 0.000000 0.000000 3.103230 
# 
# 
# High freq. dielectric constant tensor:
#      x y z
#    x 1.705460 0.000000 0.000000 
#    y 0.000000 1.705460 0.000000 
#    z 0.000000 0.000000 1.671680 
# 
# From -- ./inp_files/3005.got.cif
#   From: 2010.03.12/outbox.cif.g09.slc.cpg/sg83_2_cif.got.tgz:3005.got - 2010.04.08 20:05:18.
