data_PCOD8302306
_publ_section_title
;
Structure prediction by ZEFSAII (Michael W. Deem and Ramdas Pophale) SiO2 
 PCOD8302306
Probable space group: P -4
;
_chemical_formula_sum "Si O2"
_cell_formula_units_Z 28
_cell_length_a 11.649098
_cell_length_b 11.649098
_cell_length_c 10.411013
_cell_angle_alpha 90.000000
_cell_angle_beta 90.000000
_cell_angle_gamma 90.000000
_cell_volume 1412.789916
_symmetry_space_group_name_H-M "P -4"
_symmetry_group_IT_number 81
_symmetry_cell_setting 'tetragonal'
loop_
_space_group_symop_operation_xyz
x,y,z
y,-x,-z
-x,-y,z
-y,x,-z
loop_
_atom_site_type_symbol
_atom_site_label
_atom_site_fract_x
_atom_site_fract_y
_atom_site_fract_z
Si Si1 0.758107 0.321390 0.752032
Si Si2 0.518128 0.134001 0.109054
Si Si3 0.874972 0.606203 0.174567
Si Si4 0.645972 0.594104 0.463518
Si Si5 0.369109 0.029251 0.418474
Si Si6 0.625364 0.891877 0.704558
Si Si7 0.199426 0.309506 0.674211
O O1 0.797600 0.398128 0.872707
O O2 0.723540 0.194915 0.800973
O O3 0.645080 0.367710 0.679118
O O4 0.855982 0.319983 0.644437
O O5 0.605747 0.195598 0.205404
O O6 0.500000 0.000000 0.140651
O O7 0.562110 0.153648 0.966683
O O8 0.839576 0.503534 0.275385
O O9 0.009923 0.637888 0.185604
O O10 0.641390 0.457709 0.447609
O O11 0.757211 0.629835 0.543786
O O12 0.364505 0.043372 0.570250
O O13 0.500000 0.000000 0.374388
O O14 0.281285 0.931068 0.368271
O O15 0.727235 0.800355 0.717739
#
# Coordination Sequence:
#
# PCOD8302306 Si02
#       7
#     4   4   4   4   4   4   4
#     4  12  23  41  67  96 130 172 221 271 329 393
#     4  12  24  45  67  94 130 182 221 264 322 402
#     4  11  26  44  66  94 134 175 227 262 322 400
#     4  11  21  36  59  96 137 165 206 271 339 394
#     4  12  21  39  67  99 132 167 218 269 337 386
#     4  11  24  42  69  95 130 175 216 273 326 392
#     4  12  23  39  67  98 130 172 223 270 326 393
#
# _framework density 19.818940000000001
#
# number of rings (size 3 to 8) (size 9 to 14) (size 15 to 20)
#    0.000    0.429    8.571    1.714    2.000    0.000 
#    0.000    0.714    0.000    0.000    3.714    0.000 
#    0.000    0.000    0.000    0.000    0.000    0.000 
#
# Total GULP energy -347109.892981 kJ/mol
# GULP energy per Si atom -12396.781892 kJ/mol
# Density = 1.977383 g / cm^3
# Si number density = 19.818940 Si / 1000 Ang^3
#
#
#
# Elastic Constant Matrix: (Units=GPa)
#
#
# Indices 1 2 3 4 5 6 
#
# 1 89.6245 47.6131 17.3637 0.0000 0.0000 2.8716
# 2 47.6131 89.6245 17.3637 0.0000 0.0000 -2.8716
# 3 17.3637 17.3637 84.0067 0.0000 0.0000 0.0000
# 4 0.0000 0.0000 0.0000 28.8894 0.0000 0.0000
# 5 0.0000 0.0000 0.0000 0.0000 28.8894 0.0000
# 6 2.8716 -2.8716 0.0000 0.0000 0.0000 42.3372
#
#
#
# Elastic Compliance Matrix: (Units=1/GPa)
#
#
# Indices 1 2 3 4 5 6 
#
# 1 0.015857 -0.008169 -0.001589 0.000000 0.000000 -0.001630
# 2 -0.008169 0.015857 -0.001589 0.000000 0.000000 0.001630
# 3 -0.001589 -0.001589 0.012561 0.000000 0.000000 0.000000
# 4 0.000000 0.000000 0.000000 0.034615 0.000000 0.000000
# 5 0.000000 0.000000 0.000000 0.000000 0.034615 0.000000
# 6 -0.001630 0.001630 0.000000 0.000000 0.000000 0.023841
#
#
# Mechanical properties :
#
#
# Convention : Reuss Voigt Hill
#
# Bulk Modulus (GPa) = 46.33610 47.54851 46.94230
# Shear Modulus (GPa) = 29.89830 32.08422 30.99126
#
# Velocity S-wave (km/s) = 3.88825 4.02788 3.95868
# Velocity P-wave (km/s) = 6.60215 6.75835 6.68071
#
# Compressibility (1/GPa) = 0.02158144
#
# Stress axis : x y z
#
# Youngs Moduli (GPa) = 63.06249 63.06249 79.61286
#
# Poissons Ratio (x) = 0.51513 0.12652
# Poissons Ratio (y) = 0.51513 0.12652
# Poissons Ratio (z) = 0.10022 0.10022
#
# Static dielectric constant tensor:
#      x y z
#    x 3.676450 0.000000 0.000000 
#    y 0.000000 3.676450 0.000000 
#    z 0.000000 0.000000 3.579540 
# 
# 
# High freq. dielectric constant tensor:
#      x y z
#    x 1.766150 0.000000 0.000000 
#    y 0.000000 1.766150 0.000000 
#    z 0.000000 0.000000 1.778390 
# 
# From -- ./inp_files/1398.got.cif
#   From: 2010.03.12/outbox.cif.g09.slc.cpg/sg81_cif.got.tgz:1398.got - 2010.04.08 20:01:38.
