data_PCOD8302693
_publ_section_title
;
Structure prediction by ZEFSAII (Michael W. Deem and Ramdas Pophale) SiO2 
 PCOD8302693
Probable space group: P 4/M
;
_chemical_formula_sum "Si O2"
_cell_formula_units_Z 56
_cell_length_a 15.008323
_cell_length_b 15.008323
_cell_length_c 14.209562
_cell_angle_alpha 90.000000
_cell_angle_beta 90.000000
_cell_angle_gamma 90.000000
_cell_volume 3200.700420
_symmetry_space_group_name_H-M "P 4/M"
_symmetry_group_IT_number 83
_symmetry_cell_setting 'tetragonal'
loop_
_space_group_symop_operation_xyz
x,y,z
-y,x,z
-x,-y,z
y,-x,z
-x,-y,-z
y,-x,-z
x,y,-z
-y,x,-z
loop_
_atom_site_type_symbol
_atom_site_label
_atom_site_fract_x
_atom_site_fract_y
_atom_site_fract_z
Si Si1 0.271841 0.838031 0.765172
Si Si2 0.297664 0.315961 0.390507
Si Si3 0.511490 0.763851 0.391935
Si Si4 0.331503 0.686219 0.891925
Si Si5 0.241809 0.514134 0.108541
Si Si6 0.872504 0.073645 0.107308
Si Si7 0.096971 0.461666 0.247955
O O1 0.259692 0.773902 0.672676
O O2 0.292409 0.776487 0.853191
O O3 0.187185 0.893022 0.803722
O O4 0.354020 0.904888 0.743738
O O5 0.275611 0.296832 0.500000
O O6 0.291652 0.421695 0.366484
O O7 0.399103 0.289887 0.365192
O O8 0.512697 0.790182 0.500000
O O9 0.507796 0.856594 0.337062
O O10 0.437303 0.684744 0.874827
O O11 0.285577 0.600980 0.843334
O O12 0.306645 0.683278 0.000000
O O13 0.148332 0.490896 0.154643
O O14 0.220000 0.527379 0.000000
O O15 0.967742 0.120218 0.119149
O O16 0.836390 0.093793 0.000000
O O17 0.000000 0.500000 0.240067
#
# Coordination Sequence:
#
# PCOD8302693 Si02
#       7
#     8   8   8   8   8   8   8
#     4  10  19  32  51  71  99 132 162 203 250 295
#     4   9  18  32  51  76 105 136 170 205 242 286
#     4   9  18  33  52  74 100 129 163 206 248 286
#     4   9  17  29  45  67  95 126 159 193 235 287
#     4   9  18  31  46  66  93 124 158 197 236 281
#     4   9  19  36  57  80 101 122 158 209 261 310
#     4  10  21  34  47  68  97 130 166 199 238 292
#
# _framework density 17.496168999999998
#
# number of rings (size 3 to 8) (size 9 to 14) (size 15 to 20)
#    0.000    2.714    0.000    1.714    0.000    4.000 
#    0.000    4.286    0.000    6.000    0.000    1.000 
#    0.000    0.000    0.000    0.000    0.000    0.000 
#
# Total GULP energy -693817.322206 kJ/mol
# GULP energy per Si atom -12389.595039 kJ/mol
# Density = 1.745635 g / cm^3
# Si number density = 17.496169 Si / 1000 Ang^3
#
#
#
# Elastic Constant Matrix: (Units=GPa)
#
#
# Indices 1 2 3 4 5 6 
#
# 1 -208.8685 348.3851 48.0969 0.0000 0.0000 20.1908
# 2 348.3851 -208.8685 48.0969 0.0000 0.0000 -20.1908
# 3 48.0969 48.0969 89.2972 0.0000 0.0000 0.0000
# 4 0.0000 0.0000 0.0000 26.1082 0.0000 0.0000
# 5 0.0000 0.0000 0.0000 0.0000 26.1082 0.0000
# 6 20.1908 -20.1908 0.0000 0.0000 0.0000 25.5570
#
#
#
# Elastic Compliance Matrix: (Units=1/GPa)
#
#
# Indices 1 2 3 4 5 6 
#
# 1 0.004852 0.006550 -0.006141 0.000000 0.000000 0.001341
# 2 0.006550 0.004852 -0.006141 0.000000 0.000000 -0.001341
# 3 -0.006141 -0.006141 0.017814 0.000000 0.000000 0.000000
# 4 0.000000 0.000000 0.000000 0.038302 0.000000 0.000000
# 5 0.000000 0.000000 0.000000 0.000000 0.038302 0.000000
# 6 0.001341 -0.001341 0.000000 0.000000 0.000000 0.037009
#
#
# Mechanical properties :
#
#
# Convention : Reuss Voigt Hill
#
# Bulk Modulus (GPa) = 62.29405 62.30201 62.29803
# Shear Modulus (GPa) = 31.65577 -35.97992 -2.16207
#
# Velocity S-wave (km/s) = 4.25820 -4.53972 -1.11285
# Velocity P-wave (km/s) = 7.73680 2.86486 5.83376
#
# Compressibility (1/GPa) = 0.01605290
#
# Stress axis : x y z
#
# Youngs Moduli (GPa) = 206.08972 206.08972 56.13536
#
# Poissons Ratio (x) = -1.34980 0.34474
# Poissons Ratio (y) = -1.34980 0.34474
# Poissons Ratio (z) = 1.26564 1.26564
#
# Static dielectric constant tensor:
#      x y z
#    x 3.228780 0.000000 0.000000 
#    y 0.000000 3.228780 0.000000 
#    z 0.000000 0.000000 3.400780 
# 
# 
# High freq. dielectric constant tensor:
#      x y z
#    x 1.664080 0.000000 0.000000 
#    y 0.000000 1.664080 0.000000 
#    z 0.000000 0.000000 1.685840 
# 
# From -- ./inp_files/2419.got.cif
#   From: 2010.03.12/outbox.cif.g09.slc.cpg/sg83_2_cif.got.tgz:2419.got - 2010.04.08 20:05:18.
