data_PCOD8302606
_publ_section_title
;
Structure prediction by ZEFSAII (Michael W. Deem and Ramdas Pophale) SiO2 
 PCOD8302606
Probable space group: I -4 
;
_chemical_formula_sum "Si O2"
_cell_formula_units_Z 20
_cell_length_a 5.082629
_cell_length_b 5.082629
_cell_length_c 31.113671
_cell_angle_alpha 90.000000
_cell_angle_beta 90.000000
_cell_angle_gamma 90.000000
_cell_volume 803.763120
_symmetry_space_group_name_H-M "I -4 "
_symmetry_group_IT_number 82
_symmetry_cell_setting 'tetragonal'
loop_
_space_group_symop_operation_xyz
x,y,z
y,-x,-z
-x,-y,z
-y,x,-z
1/2+x,1/2+y,1/2+z
1/2+y,1/2-x,1/2-z
1/2-x,1/2-y,1/2+z
1/2-y,1/2+x,1/2-z
loop_
_atom_site_type_symbol
_atom_site_label
_atom_site_fract_x
_atom_site_fract_y
_atom_site_fract_z
Si Si1 0.000000 0.500000 0.750000
Si Si2 0.500000 0.500000 0.000000
Si Si3 0.500000 0.000000 0.055830
Si Si4 0.500000 0.500000 0.611074
Si Si5 0.232432 0.664294 0.184945
O O1 0.101041 0.271584 0.781325
O O2 0.750428 0.589527 0.972089
O O3 0.247243 0.099221 0.083083
O O4 0.621097 0.266696 0.639673
O O5 0.500000 0.500000 0.177321
O O6 0.000000 0.500000 0.206606
#
# Coordination Sequence:
#
# PCOD8302606 Si02
#       5
#     2   2   4   4   8
#     4  12  30  48  68 120 156 216 288 336 404 464
#     4  12  28  52  80 130 156 212 256 318 420 480
#     4  12  27  50  86 117 168 206 260 333 392 506
#     4  12  28  51  78 119 154 216 268 331 402 475
#     4  12  29  49  78 112 159 218 273 346 402 472
#
# _framework density 24.882950000000001
#
# number of rings (size 3 to 8) (size 9 to 14) (size 15 to 20)
#    0.000    0.000    0.000    8.400   16.800    0.000 
#    0.000    0.000    0.000    0.000    0.000    0.000 
#    0.000    0.000    0.000    0.000    0.000    0.000 
#
# Total GULP energy -124025.433075 kJ/mol
# GULP energy per Si atom -12402.543307 kJ/mol
# Density = 2.482632 g / cm^3
# Si number density = 24.882950 Si / 1000 Ang^3
#
#
#
# Elastic Constant Matrix: (Units=GPa)
#
#
# Indices 1 2 3 4 5 6 
#
# 1 169.8167 49.1075 59.6624 0.0000 0.0000 -0.8892
# 2 49.1075 169.8167 59.6624 0.0001 0.0000 0.8892
# 3 59.6624 59.6624 131.5587 0.0000 0.0000 0.0000
# 4 0.0000 0.0001 0.0000 56.1186 0.0000 0.0000
# 5 0.0000 0.0000 0.0000 0.0000 56.1185 0.0000
# 6 -0.8892 0.8892 0.0000 0.0000 0.0000 61.0216
#
#
#
# Elastic Compliance Matrix: (Units=1/GPa)
#
#
# Indices 1 2 3 4 5 6 
#
# 1 0.007177 -0.001109 -0.002752 0.000000 0.000000 0.000121
# 2 -0.001109 0.007177 -0.002752 0.000000 0.000000 -0.000121
# 3 -0.002752 -0.002752 0.010097 0.000000 0.000000 0.000000
# 4 0.000000 0.000000 0.000000 0.017819 0.000000 0.000000
# 5 0.000000 0.000000 0.000000 0.000000 0.017819 0.000000
# 6 0.000121 -0.000121 0.000000 0.000000 0.000000 0.016391
#
#
# Mechanical properties :
#
#
# Convention : Reuss Voigt Hill
#
# Bulk Modulus (GPa) = 89.08335 89.78406 89.43370
# Shear Modulus (GPa) = 53.50581 54.83573 54.17077
#
# Velocity S-wave (km/s) = 4.64216 4.69950 4.67092
# Velocity P-wave (km/s) = 8.03813 8.09988 8.06906
#
# Compressibility (1/GPa) = 0.01122544
#
# Stress axis : x y z
#
# Youngs Moduli (GPa) = 139.33643 139.33645 99.03970
#
# Poissons Ratio (x) = 0.15456 0.27253
# Poissons Ratio (y) = 0.15456 0.27253
# Poissons Ratio (z) = 0.38341 0.38341
#
# Static dielectric constant tensor:
#      x y z
#    x 4.845350 0.000000 0.000000 
#    y 0.000000 4.845350 0.000000 
#    z 0.000000 0.000000 4.579800 
# 
# 
# High freq. dielectric constant tensor:
#      x y z
#    x 2.004410 0.000000 0.000000 
#    y 0.000000 2.004410 0.000000 
#    z 0.000000 0.000000 1.999400 
# 
# From -- ./inp_files/3606.got.cif
#   From: 2010.03.12/outbox.cif.g09.slc.cpg/sg82_2_cif.got.tgz:3606.got - 2010.04.08 20:02:50.
