data_PCOD8302616
_publ_section_title
;
Structure prediction by ZEFSAII (Michael W. Deem and Ramdas Pophale) SiO2 
 PCOD8302616
Probable space group: P 4/M
;
_chemical_formula_sum "Si O2"
_cell_formula_units_Z 56
_cell_length_a 16.936076
_cell_length_b 16.936076
_cell_length_c 14.173264
_cell_angle_alpha 90.000000
_cell_angle_beta 90.000000
_cell_angle_gamma 90.000000
_cell_volume 4065.326813
_symmetry_space_group_name_H-M "P 4/M"
_symmetry_group_IT_number 83
_symmetry_cell_setting 'tetragonal'
loop_
_space_group_symop_operation_xyz
x,y,z
-y,x,z
-x,-y,z
y,-x,z
-x,-y,-z
y,-x,-z
x,y,-z
-y,x,-z
loop_
_atom_site_type_symbol
_atom_site_label
_atom_site_fract_x
_atom_site_fract_y
_atom_site_fract_z
Si Si1 0.127748 0.494753 0.894886
Si Si2 0.693670 0.496537 0.894753
Si Si3 0.594638 0.589337 0.394729
Si Si4 0.651213 0.644276 0.205668
Si Si5 0.772812 0.748619 0.888300
Si Si6 0.069926 0.330934 0.111048
Si Si7 0.104622 0.669530 0.111568
O O1 0.218631 0.469205 0.899027
O O2 0.085064 0.419301 0.844455
O O3 0.117170 0.580923 0.844562
O O4 0.092887 0.504819 0.000000
O O5 0.700003 0.415706 0.837253
O O6 0.638029 0.557675 0.839475
O O7 0.660256 0.481988 0.000000
O O8 0.503158 0.609500 0.379844
O O9 0.621477 0.614512 0.500000
O O10 0.645820 0.638483 0.319175
O O11 0.733791 0.680012 0.173808
O O12 0.865845 0.737295 0.862772
O O13 0.735842 0.832393 0.853379
O O14 0.757037 0.735580 0.000000
O O15 0.982962 0.300895 0.141642
O O16 0.074462 0.344086 0.000000
O O17 0.114981 0.663539 0.000000
#
# Coordination Sequence:
#
# PCOD8302616 Si02
#       7
#     8   8   8   8   8   8   8
#     4   9  15  24  36  51  72 102 133 162 191 221
#     4  11  20  26  35  54  83 110 132 158 193 244
#     4   9  18  32  43  51  66  95 141 184 205 218
#     4  12  19  28  40  55  76 108 135 162 203 236
#     4  10  18  27  39  57  83 107 125 158 203 243
#     4   9  16  25  37  52  72 103 138 164 191 228
#     4   9  16  25  37  52  72 103 138 164 191 228
#
# _framework density 13.775029999999999
#
# number of rings (size 3 to 8) (size 9 to 14) (size 15 to 20)
#    0.000    2.143    4.286    2.143    0.000    2.000 
#    0.000    0.714    0.000    0.429    0.000    3.000 
#    0.000    1.143    0.000    6.000    0.000    0.286 
#
# Total GULP energy -693744.871004 kJ/mol
# GULP energy per Si atom -12388.301268 kJ/mol
# Density = 1.374368 g / cm^3
# Si number density = 13.775030 Si / 1000 Ang^3
#
#
#
# Elastic Constant Matrix: (Units=GPa)
#
#
# Indices 1 2 3 4 5 6 
#
# 1 75.6780 35.4505 16.6915 0.0000 0.0000 -0.0592
# 2 35.4505 75.6780 16.6915 0.0000 0.0000 0.0592
# 3 16.6915 16.6915 59.8569 0.0000 0.0000 0.0000
# 4 0.0000 0.0000 0.0000 5.5058 0.0000 0.0000
# 5 0.0000 0.0000 0.0000 0.0000 5.5058 0.0000
# 6 -0.0592 0.0592 0.0000 0.0000 0.0000 17.0217
#
#
#
# Elastic Compliance Matrix: (Units=1/GPa)
#
#
# Indices 1 2 3 4 5 6 
#
# 1 0.017340 -0.007519 -0.002739 0.000000 0.000000 0.000086
# 2 -0.007519 0.017340 -0.002739 0.000000 0.000000 -0.000086
# 3 -0.002739 -0.002739 0.018234 0.000000 0.000000 0.000000
# 4 0.000000 0.000000 0.000000 0.181626 0.000000 0.000000
# 5 0.000000 0.000000 0.000000 0.000000 0.181626 0.000000
# 6 0.000086 -0.000086 0.000000 0.000000 0.000000 0.058749
#
#
# Mechanical properties :
#
#
# Convention : Reuss Voigt Hill
#
# Bulk Modulus (GPa) = 37.14489 38.76444 37.95467
# Shear Modulus (GPa) = 9.80618 15.09862 12.45240
#
# Velocity S-wave (km/s) = 2.67100 3.31431 3.00989
# Velocity P-wave (km/s) = 6.04452 6.54587 6.30019
#
# Compressibility (1/GPa) = 0.02692160
#
# Stress axis : x y z
#
# Youngs Moduli (GPa) = 57.66976 57.66976 54.84272
#
# Poissons Ratio (x) = 0.43361 0.15020
# Poissons Ratio (y) = 0.43361 0.15020
# Poissons Ratio (z) = 0.15794 0.15794
#
# Static dielectric constant tensor:
#      x y z
#    x 2.732000 0.000000 0.000000 
#    y 0.000000 2.732000 0.000000 
#    z 0.000000 0.000000 2.309230 
# 
# 
# High freq. dielectric constant tensor:
#      x y z
#    x 1.518340 0.000000 0.000000 
#    y 0.000000 1.518340 0.000000 
#    z 0.000000 0.000000 1.456960 
# 
# From -- ./inp_files/2012.got.cif
#   From: 2010.03.12/outbox.cif.g09.slc.cpg/sg83_2_cif.got.tgz:2012.got - 2010.04.08 20:05:18.
