data_PCOD8302011
_publ_section_title
;
Structure prediction by ZEFSAII (Michael W. Deem and Ramdas Pophale) SiO2 
 PCOD8302011
Probable space group: P 43
;
_chemical_formula_sum "Si O2"
_cell_formula_units_Z 32
_cell_length_a 13.383199
_cell_length_b 13.383199
_cell_length_c 9.634217
_cell_angle_alpha 90.000000
_cell_angle_beta 90.000000
_cell_angle_gamma 90.000000
_cell_volume 1725.584756
_symmetry_space_group_name_H-M "P 43"
_symmetry_group_IT_number 78
_symmetry_cell_setting 'tetragonal'
loop_
_space_group_symop_operation_xyz
x,y,z
-y,x,3/4+z
-x,-y,1/2+z
y,-x,1/4+z
loop_
_atom_site_type_symbol
_atom_site_label
_atom_site_fract_x
_atom_site_fract_y
_atom_site_fract_z
Si Si1 0.258206 0.677350 0.469890
Si Si2 0.990888 0.746827 0.857790
Si Si3 0.192492 0.113109 0.373265
Si Si4 0.786524 0.430621 0.707528
Si Si5 0.905251 0.243546 0.638904
Si Si6 0.590653 0.535135 0.749774
Si Si7 0.638317 0.126243 0.880968
Si Si8 0.047211 0.227020 0.907393
O O1 0.176053 0.709151 0.581277
O O2 0.207953 0.591494 0.373616
O O3 0.358327 0.637472 0.542484
O O4 0.291002 0.775899 0.384101
O O5 0.908268 0.829632 0.861001
O O6 0.948338 0.657217 0.761657
O O7 0.087945 0.792230 0.784003
O O8 0.021590 0.722626 0.014545
O O9 0.175113 0.015205 0.279745
O O10 0.819421 0.327944 0.635999
O O11 0.670834 0.458921 0.681475
O O12 0.853094 0.520708 0.647363
O O13 0.849118 0.137334 0.618308
O O14 0.974159 0.246710 0.776919
O O15 0.503186 0.543867 0.640419
O O16 0.666933 0.081549 0.728471
#
# Coordination Sequence:
#
# PCOD8302011 Si02
#       8
#     4   4   4   4   4   4   4   4
#     4   9  16  36  61  83 107 151 190 233 288 346
#     4  10  22  35  52  83 116 151 188 243 283 335
#     4  10  19  37  56  78 115 152 195 230 286 341
#     4  10  19  36  62  80 113 151 192 232 293 344
#     4  12  23  36  55  86 119 152 194 241 291 335
#     4   9  19  36  63  88 111 145 191 236 286 348
#     4   9  19  36  59  79 109 151 194 233 285 353
#     4  11  21  36  60  83 112 155 200 236 284 354
#
# _framework density 18.544436999999999
#
# number of rings (size 3 to 8) (size 9 to 14) (size 15 to 20)
#    0.000    2.000    2.500    2.250    0.000    4.000 
#    2.250    0.000    2.750    0.000    0.000    0.000 
#    0.000    0.000    0.000    0.000    0.000    0.000 
#
# Total GULP energy -396424.540698 kJ/mol
# GULP energy per Si atom -12388.266897 kJ/mol
# Density = 1.850223 g / cm^3
# Si number density = 18.544437 Si / 1000 Ang^3
#
#
#
# Elastic Constant Matrix: (Units=GPa)
#
#
# Indices 1 2 3 4 5 6 
#
# 1 83.8470 5.2876 17.8776 0.0000 0.0000 -10.2399
# 2 5.2876 83.8470 17.8776 0.0000 0.0000 10.2399
# 3 17.8776 17.8776 76.4262 0.0000 0.0000 0.0000
# 4 0.0000 0.0000 0.0000 135.6389 0.0000 0.0000
# 5 0.0000 0.0000 0.0000 0.0000 135.6389 0.0000
# 6 -10.2399 10.2399 0.0000 0.0000 0.0000 31.0671
#
#
#
# Elastic Compliance Matrix: (Units=1/GPa)
#
#
# Indices 1 2 3 4 5 6 
#
# 1 0.013153 -0.000773 -0.002896 0.000000 0.000000 0.004590
# 2 -0.000773 0.013153 -0.002896 0.000000 0.000000 -0.004590
# 3 -0.002896 -0.002896 0.014439 0.000000 0.000000 0.000000
# 4 0.000000 0.000000 0.000000 0.007373 0.000000 0.000000
# 5 0.000000 0.000000 0.000000 0.000000 0.007373 0.000000
# 6 0.004590 -0.004590 0.000000 0.000000 0.000000 0.035214
#
#
# Mechanical properties :
#
#
# Convention : Reuss Voigt Hill
#
# Bulk Modulus (GPa) = 36.21025 36.24508 36.22766
# Shear Modulus (GPa) = 44.23210 74.00746 59.11978
#
# Velocity S-wave (km/s) = 4.88914 6.32415 5.65237
# Velocity P-wave (km/s) = 7.17218 8.53896 7.88524
#
# Compressibility (1/GPa) = 0.02761649
#
# Stress axis : x y z
#
# Youngs Moduli (GPa) = 76.02679 76.02679 69.25485
#
# Poissons Ratio (x) = 0.05873 0.20057
# Poissons Ratio (y) = 0.05873 0.20057
# Poissons Ratio (z) = 0.22018 0.22018
#
# Static dielectric constant tensor:
#      x y z
#    x 3.364040 0.000000 0.000000 
#    y 0.000000 3.364040 0.000000 
#    z 0.000000 0.000000 3.474990 
# 
# 
# High freq. dielectric constant tensor:
#      x y z
#    x 1.719970 0.000000 0.000000 
#    y 0.000000 1.719970 0.000000 
#    z 0.000000 0.000000 1.705490 
# 
# From -- ./inp_files/684.got.cif
#   From: 2010.03.12/outbox.cif.g09.slc.cpg/sg78_cif.got.tgz:684.got - 2010.04.16 16:37:20.
