data_PCOD8302228
_publ_section_title
;
Structure prediction by ZEFSAII (Michael W. Deem and Ramdas Pophale) SiO2 
 PCOD8302228
Probable space group: I 41
;
_chemical_formula_sum "Si O2"
_cell_formula_units_Z 32
_cell_length_a 8.440143
_cell_length_b 8.440143
_cell_length_c 17.840827
_cell_angle_alpha 90.000000
_cell_angle_beta 90.000000
_cell_angle_gamma 90.000000
_cell_volume 1270.909399
_symmetry_space_group_name_H-M "I 41"
_symmetry_group_IT_number 80
_symmetry_cell_setting 'tetragonal'
loop_
_space_group_symop_operation_xyz
x,y,z
-y,1/2+x,1/4+z
-x,-y,z
y,1/2-x,1/4+z
1/2+x,1/2+y,1/2+z
1/2-y,x,3/4+z
1/2-x,1/2-y,1/2+z
1/2+y,-x,3/4+z
loop_
_atom_site_type_symbol
_atom_site_label
_atom_site_fract_x
_atom_site_fract_y
_atom_site_fract_z
Si Si1 0.308211 0.646229 0.051560
Si Si2 0.382684 0.864846 0.695134
Si Si3 0.364845 0.117313 0.864095
Si Si4 0.853771 0.808211 0.507668
O O1 0.247608 0.587589 0.132856
O O2 0.297871 0.490629 0.998695
O O3 0.490628 0.702134 0.060533
O O4 0.205867 0.791275 0.017447
O O5 0.499995 0.749995 0.654616
O O6 0.500000 0.000000 0.724151
O O7 0.294127 0.208721 0.791782
O O8 0.500000 0.000000 0.835076
O O9 0.412408 0.247608 0.926372
#
# Coordination Sequence:
#
# PCOD8302228 Si02
#       4
#     8   8   8   8
#     4  11  26  50  76 109 153 203 252 312 383 456
#     4  12  27  46  76 113 152 198 253 315 380 453
#     4  12  27  46  76 113 152 198 253 315 380 453
#     4  11  26  50  76 109 153 203 252 312 383 456
#
# _framework density 25.178822
#
# number of rings (size 3 to 8) (size 9 to 14) (size 15 to 20)
#    0.000    0.500    5.000    1.500    7.000    0.000 
#    9.000    0.000    0.000    0.000    0.000    0.000 
#    0.000    0.000    0.000    0.000    0.000    0.000 
#
# Total GULP energy -198275.579999 kJ/mol
# GULP energy per Si atom -12392.223750 kJ/mol
# Density = 2.512151 g / cm^3
# Si number density = 25.178822 Si / 1000 Ang^3
#
#
#
# Elastic Constant Matrix: (Units=GPa)
#
#
# Indices 1 2 3 4 5 6 
#
# 1 149.3626 61.9594 30.2539 0.0000 0.0000 8.4239
# 2 61.9594 149.3626 30.2539 0.0000 0.0000 -8.4239
# 3 30.2539 30.2539 111.4929 0.0000 0.0000 0.0000
# 4 0.0000 0.0000 0.0000 35.5385 0.0000 0.0000
# 5 0.0000 0.0000 0.0000 0.0000 35.5385 0.0000
# 6 8.4239 -8.4239 0.0000 0.0000 0.0000 62.0403
#
#
#
# Elastic Compliance Matrix: (Units=1/GPa)
#
#
# Indices 1 2 3 4 5 6 
#
# 1 0.008440 -0.003309 -0.001392 0.000000 0.000000 -0.001595
# 2 -0.003309 0.008440 -0.001392 0.000000 0.000000 0.001595
# 3 -0.001392 -0.001392 0.009725 0.000000 0.000000 0.000000
# 4 0.000000 0.000000 0.000000 0.028138 0.000000 0.000000
# 5 0.000000 0.000000 0.000000 0.000000 0.028138 0.000000
# 6 -0.001595 0.001595 0.000000 0.000000 0.000000 0.016552
#
#
# Mechanical properties :
#
#
# Convention : Reuss Voigt Hill
#
# Bulk Modulus (GPa) = 69.36116 72.79474 71.07795
# Shear Modulus (GPa) = 42.94585 45.80686 44.37636
#
# Velocity S-wave (km/s) = 4.13441 4.26991 4.20271
# Velocity P-wave (km/s) = 7.09918 7.29954 7.20006
#
# Compressibility (1/GPa) = 0.01441729
#
# Stress axis : x y z
#
# Youngs Moduli (GPa) = 118.48704 118.48704 102.83031
#
# Poissons Ratio (x) = 0.39207 0.14317
# Poissons Ratio (y) = 0.39207 0.14317
# Poissons Ratio (z) = 0.16496 0.16496
#
# Static dielectric constant tensor:
#      x y z
#    x 4.715700 0.000000 0.000000 
#    y 0.000000 4.715700 0.000000 
#    z 0.000000 0.000000 5.684470 
# 
# 
# High freq. dielectric constant tensor:
#      x y z
#    x 2.016530 0.000000 0.000000 
#    y 0.000000 2.016530 0.000000 
#    z 0.000000 0.000000 2.013620 
# 
# From -- ./inp_files/1656.got.cif
#   From: 2010.03.12/outbox.cif.g09.slc.cpg/sg80_cif.got.tgz:1656.got - 2010.04.08 20:00:04.
