data_PCOD8302470
_publ_section_title
;
Structure prediction by ZEFSAII (Michael W. Deem and Ramdas Pophale) SiO2 
 PCOD8302470
Probable space group: I -4 
;
_chemical_formula_sum "Si O2"
_cell_formula_units_Z 42
_cell_length_a 8.431278
_cell_length_b 8.431278
_cell_length_c 28.265704
_cell_angle_alpha 90.000000
_cell_angle_beta 90.000000
_cell_angle_gamma 90.000000
_cell_volume 2009.308518
_symmetry_space_group_name_H-M "I -4 "
_symmetry_group_IT_number 82
_symmetry_cell_setting 'tetragonal'
loop_
_space_group_symop_operation_xyz
x,y,z
y,-x,-z
-x,-y,z
-y,x,-z
1/2+x,1/2+y,1/2+z
1/2+y,1/2-x,1/2-z
1/2-x,1/2-y,1/2+z
1/2-y,1/2+x,1/2-z
loop_
_atom_site_type_symbol
_atom_site_label
_atom_site_fract_x
_atom_site_fract_y
_atom_site_fract_z
Si Si1 0.216451 0.307860 0.460107
Si Si2 0.500000 0.500000 0.500000
Si Si3 0.413248 0.769202 0.265702
Si Si4 0.000000 0.000000 0.294073
Si Si5 0.770489 0.789524 0.646681
Si Si6 0.000000 0.500000 0.110620
Si Si7 0.676585 0.038354 0.441366
O O1 0.389471 0.388886 0.466899
O O2 0.118959 0.397238 0.420442
O O3 0.119195 0.318947 0.508031
O O4 0.227685 0.126109 0.443528
O O5 0.599250 0.811537 0.262417
O O6 0.383128 0.603799 0.238918
O O7 0.366795 0.746167 0.320814
O O8 0.889660 0.098312 0.327668
O O9 0.834804 0.748905 0.594780
O O10 0.609687 0.890108 0.643327
O O11 0.500000 0.000000 0.424754
#
# Coordination Sequence:
#
# PCOD8302470 Si02
#       7
#     8   2   8   4   8   4   8
#     4  12  24  45  66  96 142 185 227 279 346 397
#     4  12  20  40  66  92 128 180 236 268 330 412
#     4   9  21  43  69  94 130 171 222 277 352 424
#     4  10  22  44  69  97 130 173 216 290 359 412
#     4  11  25  43  67 102 130 177 233 281 339 418
#     4  12  26  44  61 104 142 180 229 282 340 412
#     4  12  25  42  70  98 134 181 232 282 335 403
#
# _framework density 20.902714
#
# number of rings (size 3 to 8) (size 9 to 14) (size 15 to 20)
#    0.000    0.952    2.857    3.429    5.333    4.952 
#    3.429    0.000    0.000    0.000    0.000    0.000 
#    0.000    0.000    0.000    0.000    0.000    0.000 
#
# Total GULP energy -260444.963669 kJ/mol
# GULP energy per Si atom -12402.141127 kJ/mol
# Density = 2.085514 g / cm^3
# Si number density = 20.902714 Si / 1000 Ang^3
#
#
#
# Elastic Constant Matrix: (Units=GPa)
#
#
# Indices 1 2 3 4 5 6 
#
# 1 84.1080 6.3578 17.8945 0.0000 0.0000 -1.7045
# 2 6.3578 84.1080 17.8945 0.0000 0.0000 1.7045
# 3 17.8945 17.8945 80.9805 0.0000 0.0000 0.0000
# 4 0.0000 0.0000 0.0000 53.5331 0.0000 0.0000
# 5 0.0000 0.0000 0.0000 0.0000 53.5331 0.0000
# 6 -1.7045 1.7045 0.0000 0.0000 0.0000 31.0411
#
#
#
# Elastic Compliance Matrix: (Units=1/GPa)
#
#
# Indices 1 2 3 4 5 6 
#
# 1 0.012503 -0.000390 -0.002677 0.000000 0.000000 0.000708
# 2 -0.000390 0.012503 -0.002677 0.000000 0.000000 -0.000708
# 3 -0.002677 -0.002677 0.013532 0.000000 0.000000 0.000000
# 4 0.000000 0.000000 0.000000 0.018680 0.000000 0.000000
# 5 0.000000 0.000000 0.000000 0.000000 0.018680 0.000000
# 6 0.000708 -0.000708 0.000000 0.000000 0.000000 0.032293
#
#
# Mechanical properties :
#
#
# Convention : Reuss Voigt Hill
#
# Bulk Modulus (GPa) = 36.96755 37.05444 37.01099
# Shear Modulus (GPa) = 38.85201 41.42478 40.13840
#
# Velocity S-wave (km/s) = 4.31595 4.45656 4.38682
# Velocity P-wave (km/s) = 6.52384 6.65183 6.58814
#
# Compressibility (1/GPa) = 0.02705075
#
# Stress axis : x y z
#
# Youngs Moduli (GPa) = 79.98232 79.98234 73.90132
#
# Poissons Ratio (x) = 0.03119 0.19780
# Poissons Ratio (y) = 0.03119 0.19780
# Poissons Ratio (z) = 0.21408 0.21408
#
# Static dielectric constant tensor:
#      x y z
#    x 4.093190 0.000000 0.000000 
#    y 0.000000 4.093190 0.000000 
#    z 0.000000 0.000000 3.947850 
# 
# 
# High freq. dielectric constant tensor:
#      x y z
#    x 1.829730 0.000000 0.000000 
#    y 0.000000 1.829730 0.000000 
#    z 0.000000 0.000000 1.815630 
# 
# From -- ./inp_files/3734.got.cif
#   From: 2010.03.12/outbox.cif.g09.slc.cpg/sg82_2_cif.got.tgz:3734.got - 2010.04.08 20:02:50.
