data_PCOD8302219
_publ_section_title
;
Structure prediction by ZEFSAII (Michael W. Deem and Ramdas Pophale) SiO2 
 PCOD8302219
Probable space group: I 41
;
_chemical_formula_sum "Si O2"
_cell_formula_units_Z 48
_cell_length_a 18.354989
_cell_length_b 18.354989
_cell_length_c 6.905542
_cell_angle_alpha 90.000000
_cell_angle_beta 90.000000
_cell_angle_gamma 90.000000
_cell_volume 2326.515917
_symmetry_space_group_name_H-M "I 41"
_symmetry_group_IT_number 80
_symmetry_cell_setting 'tetragonal'
loop_
_space_group_symop_operation_xyz
x,y,z
-y,1/2+x,1/4+z
-x,-y,z
y,1/2-x,1/4+z
1/2+x,1/2+y,1/2+z
1/2-y,x,3/4+z
1/2-x,1/2-y,1/2+z
1/2+y,-x,3/4+z
loop_
_atom_site_type_symbol
_atom_site_label
_atom_site_fract_x
_atom_site_fract_y
_atom_site_fract_z
Si Si1 0.835864 0.920448 0.552960
Si Si2 0.171895 0.417413 0.108542
Si Si3 0.920448 0.164136 0.854964
Si Si4 0.917413 0.328105 0.799381
Si Si5 0.833089 0.312651 0.423903
Si Si6 0.812651 0.666911 0.484021
O O1 0.749877 0.920025 0.506509
O O2 0.859074 0.880019 0.751875
O O3 0.864587 0.877894 0.366048
O O4 0.865845 0.003005 0.558346
O O5 0.134155 0.496995 0.099579
O O6 0.191929 0.396446 0.326980
O O7 0.920025 0.250123 0.901413
O O8 0.880018 0.140926 0.656050
O O9 0.877894 0.135413 0.041876
O O10 0.896446 0.308071 0.580943
O O11 0.757626 0.325923 0.537156
O O12 0.742374 0.674077 0.620768
#
# Coordination Sequence:
#
# PCOD8302219 Si02
#       6
#     8   8   8   8   8   8
#     4  11  24  42  65  95 130 169 216 270 325 385
#     4  11  24  42  65  95 130 169 216 270 325 385
#     4  11  24  42  65  95 130 169 216 270 325 385
#     4  11  24  42  65  95 130 169 216 270 325 385
#     4  12  22  38  68  99 124 170 223 270 316 388
#     4  12  22  38  68  99 124 170 223 270 316 388
#
# _framework density 20.631710000000002
#
# number of rings (size 3 to 8) (size 9 to 14) (size 15 to 20)
#    0.000    0.667    6.667    2.000    0.000    4.667 
#    0.000    0.000    0.000    0.000    0.000    0.000 
#    0.000    0.000    0.000    0.000    0.000    0.000 
#
# Total GULP energy -297468.776125 kJ/mol
# GULP energy per Si atom -12394.532339 kJ/mol
# Density = 2.058475 g / cm^3
# Si number density = 20.631710 Si / 1000 Ang^3
#
#
#
# Elastic Constant Matrix: (Units=GPa)
#
#
# Indices 1 2 3 4 5 6 
#
# 1 92.9507 18.8782 25.5530 0.0000 0.0000 8.4094
# 2 18.8782 92.9507 25.5530 0.0000 0.0000 -8.4094
# 3 25.5530 25.5530 105.6623 0.0000 0.0000 0.0000
# 4 0.0000 0.0000 0.0000 26.1499 0.0000 0.0000
# 5 0.0000 0.0000 0.0000 0.0000 26.1499 0.0000
# 6 8.4094 -8.4094 0.0000 0.0000 0.0000 20.0279
#
#
#
# Elastic Compliance Matrix: (Units=1/GPa)
#
#
# Indices 1 2 3 4 5 6 
#
# 1 0.012488 -0.002435 -0.002431 0.000000 0.000000 -0.006266
# 2 -0.002435 0.012488 -0.002431 0.000000 0.000000 0.006266
# 3 -0.002431 -0.002431 0.010640 0.000000 0.000000 0.000000
# 4 0.000000 0.000000 0.000000 0.038241 0.000000 0.000000
# 5 0.000000 0.000000 0.000000 0.000000 0.038241 0.000000
# 6 -0.006266 0.006266 0.000000 0.000000 0.000000 0.055192
#
#
# Mechanical properties :
#
#
# Convention : Reuss Voigt Hill
#
# Bulk Modulus (GPa) = 47.57000 47.94801 47.75900
# Shear Modulus (GPa) = 26.47005 29.23752 27.85378
#
# Velocity S-wave (km/s) = 3.58576 3.76854 3.67829
# Velocity P-wave (km/s) = 6.34431 6.49818 6.42171
#
# Compressibility (1/GPa) = 0.02102165
#
# Stress axis : x y z
#
# Youngs Moduli (GPa) = 80.07580 80.07580 93.98456
#
# Poissons Ratio (x) = 0.19497 0.22850
# Poissons Ratio (y) = 0.19497 0.22850
# Poissons Ratio (z) = 0.19468 0.19468
#
# Static dielectric constant tensor:
#      x y z
#    x 3.730820 0.000000 0.000000 
#    y 0.000000 3.730820 0.000000 
#    z 0.000000 0.000000 3.822770 
# 
# 
# High freq. dielectric constant tensor:
#      x y z
#    x 1.796280 0.000000 0.000000 
#    y 0.000000 1.796280 0.000000 
#    z 0.000000 0.000000 1.819880 
# 
# From -- ./inp_files/279.got.cif
#   From: 2010.03.12/outbox.cif.g09.slc.cpg/sg80_cif.got.tgz:279.got - 2010.04.08 20:00:04.
