data_PCOD8302595
_publ_section_title
;
Structure prediction by ZEFSAII (Michael W. Deem and Ramdas Pophale) SiO2 
 PCOD8302595
Probable space group: I -4 
;
_chemical_formula_sum "Si O2"
_cell_formula_units_Z 40
_cell_length_a 9.488355
_cell_length_b 9.488355
_cell_length_c 21.071783
_cell_angle_alpha 90.000000
_cell_angle_beta 90.000000
_cell_angle_gamma 90.000000
_cell_volume 1897.069036
_symmetry_space_group_name_H-M "I -4 "
_symmetry_group_IT_number 82
_symmetry_cell_setting 'tetragonal'
loop_
_space_group_symop_operation_xyz
x,y,z
y,-x,-z
-x,-y,z
-y,x,-z
1/2+x,1/2+y,1/2+z
1/2+y,1/2-x,1/2-z
1/2-x,1/2-y,1/2+z
1/2-y,1/2+x,1/2-z
loop_
_atom_site_type_symbol
_atom_site_label
_atom_site_fract_x
_atom_site_fract_y
_atom_site_fract_z
Si Si1 0.000000 0.500000 0.046799
Si Si2 0.647384 0.444462 0.718679
Si Si3 0.500000 0.500000 0.000000
Si Si4 0.047342 0.717333 0.558893
Si Si5 0.106495 0.380838 0.678859
Si Si6 0.500000 0.500000 0.500000
Si Si7 0.776020 0.866643 0.903547
O O1 0.940934 0.375077 0.090452
O O2 0.875266 0.561677 0.003910
O O3 0.500000 0.500000 0.746657
O O4 0.733348 0.563086 0.679092
O O5 0.740618 0.397251 0.778394
O O6 0.608357 0.321986 0.669033
O O7 0.475268 0.365233 0.043703
O O8 0.199260 0.739279 0.589462
O O9 0.936432 0.647440 0.606756
O O10 0.000000 0.500000 0.705857
O O11 0.383561 0.428246 0.455302
#
# Coordination Sequence:
#
# PCOD8302595 Si02
#       7
#     4   8   2   8   8   2   8
#     4  12  24  40  70 107 149 184 232 298 372 432
#     4  12  25  45  72 107 134 182 246 297 354 426
#     4  12  28  40  62 112 148 172 232 290 376 428
#     4  12  24  43  70 105 141 187 236 299 357 432
#     4  12  23  47  78  97 132 192 247 286 347 438
#     4  12  24  40  70 104 132 188 228 282 360 444
#     4  12  24  42  69 103 144 183 238 295 358 436
#
# _framework density 21.085159000000001
#
# number of rings (size 3 to 8) (size 9 to 14) (size 15 to 20)
#    0.000    0.000   10.000    0.000    1.400    1.600 
#    0.000    0.000    0.000    0.000    0.000    0.000 
#    0.000    0.000    0.000    0.000    0.000    0.000 
#
# Total GULP energy -248033.516545 kJ/mol
# GULP energy per Si atom -12401.675827 kJ/mol
# Density = 2.103717 g / cm^3
# Si number density = 21.085159 Si / 1000 Ang^3
#
#
#
# Elastic Constant Matrix: (Units=GPa)
#
#
# Indices 1 2 3 4 5 6 
#
# 1 119.7067 26.3590 24.9749 0.0000 0.0000 0.8362
# 2 26.3590 119.7067 24.9749 0.0000 0.0000 -0.8362
# 3 24.9749 24.9749 75.6292 0.0000 0.0000 0.0000
# 4 0.0000 0.0000 0.0000 31.3870 0.0000 0.0000
# 5 0.0000 0.0000 0.0000 0.0000 31.3870 0.0000
# 6 0.8362 -0.8362 0.0000 0.0000 0.0000 30.2072
#
#
#
# Elastic Compliance Matrix: (Units=1/GPa)
#
#
# Indices 1 2 3 4 5 6 
#
# 1 0.009218 -0.001500 -0.002549 0.000000 0.000000 -0.000297
# 2 -0.001500 0.009218 -0.002549 0.000000 0.000000 0.000297
# 3 -0.002549 -0.002549 0.014906 0.000000 0.000000 0.000000
# 4 0.000000 0.000000 0.000000 0.031860 0.000000 0.000000
# 5 0.000000 0.000000 0.000000 0.000000 0.031860 0.000000
# 6 -0.000297 0.000297 0.000000 0.000000 0.000000 0.033121
#
#
# Mechanical properties :
#
#
# Convention : Reuss Voigt Hill
#
# Bulk Modulus (GPa) = 49.63588 51.96224 50.79906
# Shear Modulus (GPa) = 33.31259 34.51183 33.91221
#
# Velocity S-wave (km/s) = 3.97912 4.05011 4.01477
# Velocity P-wave (km/s) = 6.68603 6.82412 6.75543
#
# Compressibility (1/GPa) = 0.02014671
#
# Stress axis : x y z
#
# Youngs Moduli (GPa) = 108.48495 108.48495 67.08862
#
# Poissons Ratio (x) = 0.16274 0.17098
# Poissons Ratio (y) = 0.16274 0.17098
# Poissons Ratio (z) = 0.27649 0.27649
#
# Static dielectric constant tensor:
#      x y z
#    x 3.983260 0.000000 0.000000 
#    y 0.000000 3.983260 0.000000 
#    z 0.000000 0.000000 3.691720 
# 
# 
# High freq. dielectric constant tensor:
#      x y z
#    x 1.830060 0.000000 0.000000 
#    y 0.000000 1.830060 0.000000 
#    z 0.000000 0.000000 1.826750 
# 
# From -- ./inp_files/3423.got.cif
#   From: 2010.03.12/outbox.cif.g09.slc.cpg/sg82_2_cif.got.tgz:3423.got - 2010.04.08 20:02:50.
