data_PCOD8302853
_publ_section_title
;
Structure prediction by ZEFSAII (Michael W. Deem and Ramdas Pophale) SiO2 
 PCOD8302853
Probable space group: P 4/M
;
_chemical_formula_sum "Si O2"
_cell_formula_units_Z 48
_cell_length_a 8.352525
_cell_length_b 8.352525
_cell_length_c 32.588908
_cell_angle_alpha 90.000000
_cell_angle_beta 90.000000
_cell_angle_gamma 90.000000
_cell_volume 2273.554539
_symmetry_space_group_name_H-M "P 4/M"
_symmetry_group_IT_number 83
_symmetry_cell_setting 'tetragonal'
loop_
_space_group_symop_operation_xyz
x,y,z
-y,x,z
-x,-y,z
y,-x,z
-x,-y,-z
y,-x,-z
x,y,-z
-y,x,-z
loop_
_atom_site_type_symbol
_atom_site_label
_atom_site_fract_x
_atom_site_fract_y
_atom_site_fract_z
Si Si1 0.500000 0.000000 0.567702
Si Si2 0.750489 0.415711 0.881472
Si Si3 0.749258 0.919710 0.279176
Si Si4 0.252006 0.085976 0.190672
Si Si5 0.902394 0.243490 0.953369
Si Si6 0.927464 0.255016 0.367317
Si Si7 0.437080 0.758551 0.500000
O O1 0.620577 0.898584 0.596232
O O2 0.408964 0.869274 0.539840
O O3 0.700670 0.598723 0.879437
O O4 0.868255 0.381112 0.843503
O O5 0.845856 0.385439 0.923705
O O6 0.660783 0.887639 0.235562
O O7 0.656883 0.895489 0.322706
O O8 0.898976 0.803970 0.279293
O O9 0.097299 0.199095 0.185597
O O10 0.086719 0.203562 0.944649
O O11 0.878837 0.302472 0.000000
O O12 0.109231 0.194578 0.371411
O O13 0.307635 0.618249 0.500000
#
# Coordination Sequence:
#
# PCOD8302853 Si02
#       7
#     4   8   8   8   8   8   4
#     4  11  20  32  54  80 100 132 182 220 257 314
#     4  11  24  37  48  70 107 144 174 208 253 303
#     4   7  12  26  48  73 100 127 156 199 256 307
#     4   9  17  32  55  78  98 127 171 215 252 300
#     4   9  19  37  60  83 103 125 162 214 265 313
#     4   9  17  31  51  76 106 133 162 211 267 312
#     4  10  22  38  52  70 104 144 178 218 264 310
#
# _framework density 21.112314000000001
#
# number of rings (size 3 to 8) (size 9 to 14) (size 15 to 20)
#    0.000    2.750    0.000    4.500    0.000    4.667 
#    0.000    7.500    0.000    4.000    0.000    2.333 
#    0.000    0.000    0.000    0.000    0.000    0.000 
#
# Total GULP energy -594748.830869 kJ/mol
# GULP energy per Si atom -12390.600643 kJ/mol
# Density = 2.106426 g / cm^3
# Si number density = 21.112314 Si / 1000 Ang^3
#
#
#
# Elastic Constant Matrix: (Units=GPa)
#
#
# Indices 1 2 3 4 5 6 
#
# 1 35.2568 -2.9797 23.4543 0.0000 0.0000 0.1998
# 2 -2.9797 35.2568 23.4543 0.0000 0.0000 -0.1998
# 3 23.4543 23.4543 173.1264 0.0000 0.0000 0.0000
# 4 0.0000 0.0000 0.0000 -2.0011 0.0000 0.0000
# 5 0.0000 0.0000 0.0000 0.0000 -2.0011 0.0000
# 6 0.1998 -0.1998 0.0000 0.0000 0.0000 25.5540
#
#
#
# Elastic Compliance Matrix: (Units=1/GPa)
#
#
# Indices 1 2 3 4 5 6 
#
# 1 0.032366 0.006211 -0.005226 0.000000 0.000000 -0.000205
# 2 0.006211 0.032366 -0.005226 0.000000 0.000000 0.000205
# 3 -0.005226 -0.005226 0.007192 0.000000 0.000000 0.000000
# 4 0.000000 0.000000 0.000000 -0.499736 0.000000 0.000000
# 5 0.000000 0.000000 0.000000 0.000000 -0.499736 0.000000
# 6 -0.000205 0.000205 0.000000 0.000000 0.000000 0.039136
#
#
# Mechanical properties :
#
#
# Convention : Reuss Voigt Hill
#
# Bulk Modulus (GPa) = 15.76261 36.83311 26.29786
# Shear Modulus (GPa) = -5.82220 17.62444 5.90112
#
# Velocity S-wave (km/s) = -1.66244 2.89242 1.67367
# Velocity P-wave (km/s) = 1.94867 5.35153 4.02717
#
# Compressibility (1/GPa) = 0.06344128
#
# Stress axis : x y z
#
# Youngs Moduli (GPa) = 30.89655 30.89655 139.03996
#
# Poissons Ratio (x) = -0.19190 0.72665
# Poissons Ratio (y) = -0.19190 0.72665
# Poissons Ratio (z) = 0.16147 0.16147
#
# Static dielectric constant tensor:
#      x y z
#    x 3.449780 0.000000 0.000000 
#    y 0.000000 3.449780 0.000000 
#    z 0.000000 0.000000 4.321980 
# 
# 
# High freq. dielectric constant tensor:
#      x y z
#    x 1.799370 0.000000 0.000000 
#    y 0.000000 1.799370 0.000000 
#    z 0.000000 0.000000 1.854140 
# 
# From -- ./inp_files/3464.got.cif
#   From: 2010.03.12/outbox.cif.g09.slc.cpg/sg83_2_cif.got.tgz:3464.got - 2010.04.08 20:05:18.
