data_PCOD8302277
_publ_section_title
;
Structure prediction by ZEFSAII (Michael W. Deem and Ramdas Pophale) SiO2 
 PCOD8302277
Probable space group: P -4
;
_chemical_formula_sum "Si O2"
_cell_formula_units_Z 24
_cell_length_a 13.886625
_cell_length_b 13.886625
_cell_length_c 6.256079
_cell_angle_alpha 90.000000
_cell_angle_beta 90.000000
_cell_angle_gamma 90.000000
_cell_volume 1206.411976
_symmetry_space_group_name_H-M "P -4"
_symmetry_group_IT_number 81
_symmetry_cell_setting 'tetragonal'
loop_
_space_group_symop_operation_xyz
x,y,z
y,-x,-z
-x,-y,z
-y,x,-z
loop_
_atom_site_type_symbol
_atom_site_label
_atom_site_fract_x
_atom_site_fract_y
_atom_site_fract_z
Si Si1 0.159090 0.567833 0.591538
Si Si2 0.000000 0.500000 0.281392
Si Si3 0.000000 0.000000 0.500000
Si Si4 0.136251 0.752939 0.357079
Si Si5 0.633210 0.500224 0.620740
Si Si6 0.036814 0.200872 0.641278
Si Si7 0.500000 0.500000 0.000000
Si Si8 0.948426 0.338348 0.973586
O O1 0.092839 0.505612 0.433206
O O2 0.190661 0.668342 0.482988
O O3 0.252257 0.503350 0.633048
O O4 0.106770 0.589511 0.815037
O O5 0.990296 0.595459 0.135762
O O6 0.997664 0.909973 0.663723
O O7 0.199087 0.848489 0.399476
O O8 0.025303 0.756826 0.444324
O O9 0.128281 0.726625 0.106208
O O10 0.587568 0.400371 0.532292
O O11 0.594894 0.518182 0.859125
O O12 0.018103 0.264005 0.851734
#
# Coordination Sequence:
#
# PCOD8302277 Si02
#       8
#     4   2   1   4   4   4   1   4
#     4  10  21  41  60  85 120 156 196 241 296 348
#     4  10  22  42  60  80 122 160 194 250 288 344
#     4   8  16  32  58  84 124 162 184 240 302 328
#     4   9  20  36  56  81 124 154 198 243 288 344
#     4   9  20  41  64  89 119 151 183 244 303 350
#     4   9  18  35  55  85 120 160 196 242 288 340
#     4   8  18  36  68  90 120 136 190 248 292 370
#     4  10  21  37  60  85 116 159 203 243 283 349
#
# _framework density 19.893702999999999
#
# number of rings (size 3 to 8) (size 9 to 14) (size 15 to 20)
#    0.000    2.833    0.000    0.500    0.000   10.667 
#   15.000    0.833    0.000    0.000    0.000    0.000 
#    0.000    0.000    0.000    0.000    0.000    0.000 
#
# Total GULP energy -297474.629919 kJ/mol
# GULP energy per Si atom -12394.776247 kJ/mol
# Density = 1.984842 g / cm^3
# Si number density = 19.893703 Si / 1000 Ang^3
#
#
#
# Elastic Constant Matrix: (Units=GPa)
#
#
# Indices 1 2 3 4 5 6 
#
# 1 81.4800 22.2078 28.6866 0.0000 0.0000 -9.9838
# 2 22.2078 81.4800 28.6866 0.0000 0.0000 9.9838
# 3 28.6866 28.6866 108.7050 0.0000 0.0000 0.0000
# 4 0.0000 0.0000 0.0000 20.3438 0.0000 0.0000
# 5 0.0000 0.0000 0.0000 0.0000 20.3438 0.0000
# 6 -9.9838 9.9838 0.0000 0.0000 0.0000 31.4585
#
#
#
# Elastic Compliance Matrix: (Units=1/GPa)
#
#
# Indices 1 2 3 4 5 6 
#
# 1 0.015092 -0.003799 -0.002980 0.000000 0.000000 0.005995
# 2 -0.003799 0.015092 -0.002980 0.000000 0.000000 -0.005995
# 3 -0.002980 -0.002980 0.010772 0.000000 0.000000 0.000000
# 4 0.000000 0.000000 0.000000 0.049155 0.000000 0.000000
# 5 0.000000 0.000000 0.000000 0.000000 0.049155 0.000000
# 6 0.005995 -0.005995 0.000000 0.000000 0.000000 0.035593
#
#
# Mechanical properties :
#
#
# Convention : Reuss Voigt Hill
#
# Bulk Modulus (GPa) = 46.64635 47.86966 47.25801
# Shear Modulus (GPa) = 24.81085 27.23482 26.02284
#
# Velocity S-wave (km/s) = 3.53536 3.70404 3.62068
# Velocity P-wave (km/s) = 6.33749 6.51215 6.42541
#
# Compressibility (1/GPa) = 0.02143790
#
# Stress axis : x y z
#
# Youngs Moduli (GPa) = 66.25934 66.25934 92.83194
#
# Poissons Ratio (x) = 0.25171 0.27666
# Poissons Ratio (y) = 0.25171 0.27666
# Poissons Ratio (z) = 0.19747 0.19747
#
# Static dielectric constant tensor:
#      x y z
#    x 3.524770 0.000000 0.000000 
#    y 0.000000 3.524770 0.000000 
#    z 0.000000 0.000000 3.679480 
# 
# 
# High freq. dielectric constant tensor:
#      x y z
#    x 1.765310 0.000000 0.000000 
#    y 0.000000 1.765310 0.000000 
#    z 0.000000 0.000000 1.778010 
# 
# From -- ./inp_files/306.got.cif
#   From: 2010.03.12/outbox.cif.g09.slc.cpg/sg81_cif.got.tgz:306.got - 2010.04.08 20:01:38.
