data_PCOD8302820
_publ_section_title
;
Structure prediction by ZEFSAII (Michael W. Deem and Ramdas Pophale) SiO2 
 PCOD8302820
Probable space group: P 4/M
;
_chemical_formula_sum "Si O2"
_cell_formula_units_Z 64
_cell_length_a 19.888504
_cell_length_b 19.888504
_cell_length_c 9.241337
_cell_angle_alpha 90.000000
_cell_angle_beta 90.000000
_cell_angle_gamma 90.000000
_cell_volume 3655.434798
_symmetry_space_group_name_H-M "P 4/M"
_symmetry_group_IT_number 83
_symmetry_cell_setting 'tetragonal'
loop_
_space_group_symop_operation_xyz
x,y,z
-y,x,z
-x,-y,z
y,-x,z
-x,-y,-z
y,-x,-z
x,y,-z
-y,x,-z
loop_
_atom_site_type_symbol
_atom_site_label
_atom_site_fract_x
_atom_site_fract_y
_atom_site_fract_z
Si Si1 0.766620 0.543621 0.839614
Si Si2 0.205085 0.309363 0.830738
Si Si3 0.072959 0.352655 0.668255
Si Si4 0.419798 0.574605 0.660882
Si Si5 0.499897 0.890324 0.333140
Si Si6 0.306102 0.214887 0.671824
Si Si7 0.699893 0.409790 0.836724
Si Si8 0.927478 0.356888 0.670294
O O1 0.750745 0.622257 0.805474
O O2 0.817071 0.515070 0.724247
O O3 0.704279 0.491635 0.831350
O O4 0.799129 0.540930 0.000000
O O5 0.130248 0.319272 0.766907
O O6 0.241559 0.248515 0.747696
O O7 0.199314 0.291266 0.000000
O O8 0.089760 0.337032 0.500000
O O9 0.065055 0.433332 0.693145
O O10 0.999445 0.324639 0.718346
O O11 0.406916 0.496027 0.684480
O O12 0.396521 0.595586 0.500000
O O13 0.373372 0.612096 0.777759
O O14 0.515040 0.880855 0.500000
O O15 0.568183 0.918872 0.259642
O O16 0.303133 0.227552 0.500000
O O17 0.375132 0.244298 0.736639
O O18 0.307772 0.134963 0.709270
O O19 0.707112 0.382146 0.000000
O O20 0.932052 0.366556 0.500000
#
# Coordination Sequence:
#
# PCOD8302820 Si02
#       8
#     8   8   8   8   8   8   8   8
#     4   9  19  33  47  65  95 129 163 203 248 296
#     4  10  21  37  52  72 103 137 172 212 252 301
#     4   9  17  31  53  77 101 134 171 207 251 302
#     4   9  20  38  54  68  86 111 154 214 271 321
#     4   9  15  27  48  73  99 128 163 202 242 290
#     4  11  22  36  53  75 102 135 172 213 260 305
#     4  11  22  34  49  70  95 126 164 208 257 312
#     4   9  17  30  50  77 105 130 166 212 253 301
#
# _framework density 17.508175999999999
#
# number of rings (size 3 to 8) (size 9 to 14) (size 15 to 20)
#    0.000    2.375    1.250    1.875    1.750    3.000 
#    0.000    2.500    0.000    3.000    0.000    0.000 
#    0.000    0.500    0.000    5.750    0.000    2.250 
#
# Total GULP energy -792852.921317 kJ/mol
# GULP energy per Si atom -12388.326896 kJ/mol
# Density = 1.746833 g / cm^3
# Si number density = 17.508176 Si / 1000 Ang^3
#
#
#
# Elastic Constant Matrix: (Units=GPa)
#
#
# Indices 1 2 3 4 5 6 
#
# 1 115.9015 2.1764 43.5446 0.0000 0.0000 10.0538
# 2 2.1764 115.9015 43.5446 0.0000 0.0000 -10.0538
# 3 43.5446 43.5446 75.2979 0.0000 0.0000 0.0000
# 4 0.0000 0.0000 0.0000 13.2428 0.0000 0.0000
# 5 0.0000 0.0000 0.0000 0.0000 13.2428 0.0000
# 6 10.0538 -10.0538 0.0000 0.0000 0.0000 15.2975
#
#
#
# Elastic Compliance Matrix: (Units=1/GPa)
#
#
# Indices 1 2 3 4 5 6 
#
# 1 0.012359 0.002409 -0.008540 0.000000 0.000000 -0.006539
# 2 0.002409 0.012359 -0.008540 0.000000 0.000000 0.006539
# 3 -0.008540 -0.008540 0.023158 0.000000 0.000000 0.000000
# 4 0.000000 0.000000 0.000000 0.075513 0.000000 0.000000
# 5 0.000000 0.000000 0.000000 0.000000 0.075513 0.000000
# 6 -0.006539 0.006539 0.000000 0.000000 0.000000 0.073965
#
#
# Mechanical properties :
#
#
# Convention : Reuss Voigt Hill
#
# Bulk Modulus (GPa) = 53.95775 53.95913 53.95844
# Shear Modulus (GPa) = 16.21346 22.87897 19.54621
#
# Velocity S-wave (km/s) = 3.04641 3.61883 3.34489
# Velocity P-wave (km/s) = 6.57721 6.95324 6.76784
#
# Compressibility (1/GPa) = 0.01853302
#
# Stress axis : x y z
#
# Youngs Moduli (GPa) = 80.91530 80.91530 43.18119
#
# Poissons Ratio (x) = -0.19495 0.36878
# Poissons Ratio (y) = -0.19495 0.36878
# Poissons Ratio (z) = 0.69104 0.69104
#
# Static dielectric constant tensor:
#      x y z
#    x 3.196060 0.000000 0.000000 
#    y 0.000000 3.196060 0.000000 
#    z 0.000000 0.000000 3.220530 
# 
# 
# High freq. dielectric constant tensor:
#      x y z
#    x 1.653670 0.000000 0.000000 
#    y 0.000000 1.653670 0.000000 
#    z 0.000000 0.000000 1.672190 
# 
# From -- ./inp_files/1284.got.cif
#   From: 2010.03.12/outbox.cif.g09.slc.cpg/sg83_1_cif.got.tgz:1284.got - 2010.04.08 20:05:18.
