data_PCOD8302936
_publ_section_title
;
Structure prediction by ZEFSAII (Michael W. Deem and Ramdas Pophale) SiO2 
 PCOD8302936
Probable space group: P 4/M
;
_chemical_formula_sum "Si O2"
_cell_formula_units_Z 32
_cell_length_a 8.427595
_cell_length_b 8.427595
_cell_length_c 21.054128
_cell_angle_alpha 90.000000
_cell_angle_beta 90.000000
_cell_angle_gamma 90.000000
_cell_volume 1495.355914
_symmetry_space_group_name_H-M "P 4/M"
_symmetry_group_IT_number 83
_symmetry_cell_setting 'tetragonal'
loop_
_space_group_symop_operation_xyz
x,y,z
-y,x,z
-x,-y,z
y,-x,z
-x,-y,-z
y,-x,-z
x,y,-z
-y,x,-z
loop_
_atom_site_type_symbol
_atom_site_label
_atom_site_fract_x
_atom_site_fract_y
_atom_site_fract_z
Si Si1 0.097624 0.756744 0.066916
Si Si2 0.745801 0.410069 0.683035
Si Si3 0.096808 0.754697 0.795797
Si Si4 0.900012 0.239945 0.427884
O O1 0.130886 0.671495 0.134696
O O2 0.913927 0.798702 0.066360
O O3 0.135477 0.661465 0.000000
O O4 0.701491 0.592754 0.685127
O O5 0.856773 0.373034 0.743113
O O6 0.842906 0.378963 0.618459
O O7 0.912791 0.798353 0.787838
O O8 0.875640 0.298697 0.500000
O O9 0.083233 0.202930 0.414582
#
# Coordination Sequence:
#
# PCOD8302936 Si02
#       4
#     8   8   8   8
#     4   7  10  19  39  69 100 123 147 190 248 299
#     4  11  24  37  48  68 101 138 172 204 238 281
#     4   9  17  30  51  77 100 125 162 206 249 295
#     4   9  19  37  60  83 103 123 153 196 244 294
#
# _framework density 21.399588999999999
#
# number of rings (size 3 to 8) (size 9 to 14) (size 15 to 20)
#    0.000    3.000    0.000    4.500    0.000    7.000 
#    0.000    3.750    0.000    1.500    0.000    8.750 
#    0.000    0.000    0.000    0.000    0.000    0.000 
#
# Total GULP energy -396419.496554 kJ/mol
# GULP energy per Si atom -12388.109267 kJ/mol
# Density = 2.135088 g / cm^3
# Si number density = 21.399589 Si / 1000 Ang^3
#
#
#
# Elastic Constant Matrix: (Units=GPa)
#
#
# Indices 1 2 3 4 5 6 
#
# 1 15.8705 -6.4075 8.3834 0.0000 0.0000 2.3095
# 2 -6.4075 15.8705 8.3834 0.0000 0.0000 -2.3095
# 3 8.3834 8.3834 163.3251 0.0000 0.0000 0.0000
# 4 0.0000 0.0000 0.0000 -5.3499 0.0000 0.0000
# 5 0.0000 0.0000 0.0000 0.0000 -5.3499 0.0000
# 6 2.3095 -2.3095 0.0000 0.0000 0.0000 26.5733
#
#
#
# Elastic Compliance Matrix: (Units=1/GPa)
#
#
# Indices 1 2 3 4 5 6 
#
# 1 0.080979 0.035268 -0.005967 0.000000 0.000000 -0.003973
# 2 0.035268 0.080979 -0.005967 0.000000 0.000000 0.003973
# 3 -0.005967 -0.005967 0.006735 0.000000 0.000000 0.000000
# 4 0.000000 0.000000 0.000000 -0.186919 0.000000 0.000000
# 5 0.000000 0.000000 0.000000 0.000000 -0.186919 0.000000
# 6 -0.003973 0.003973 0.000000 0.000000 0.000000 0.038322
#
#
# Mechanical properties :
#
#
# Convention : Reuss Voigt Hill
#
# Bulk Modulus (GPa) = 4.64338 23.97610 14.30974
# Shear Modulus (GPa) = -35.28468 15.48848 -9.89810
#
# Velocity S-wave (km/s) = -4.06501 2.69322 -2.15300
# Velocity P-wave (km/s) = 4.45621 4.57161 0.72173
#
# Compressibility (1/GPa) = 0.21536031
#
# Stress axis : x y z
#
# Youngs Moduli (GPa) = 12.34894 12.34894 148.47121
#
# Poissons Ratio (x) = -0.43552 0.88591
# Poissons Ratio (y) = -0.43552 0.88591
# Poissons Ratio (z) = 0.07368 0.07368
#
# Static dielectric constant tensor:
#      x y z
#    x 3.416340 0.000000 0.000000 
#    y 0.000000 3.416340 0.000000 
#    z 0.000000 0.000000 4.513930 
# 
# 
# High freq. dielectric constant tensor:
#      x y z
#    x 1.802570 0.000000 0.000000 
#    y 0.000000 1.802570 0.000000 
#    z 0.000000 0.000000 1.871400 
# 
# From -- ./inp_files/2788.got.cif
#   From: 2010.03.12/outbox.cif.g09.slc.cpg/sg83_2_cif.got.tgz:2788.got - 2010.04.08 20:05:18.
