data_PCOD8302902
_publ_section_title
;
Structure prediction by ZEFSAII (Michael W. Deem and Ramdas Pophale) SiO2 
 PCOD8302902
Probable space group: P 4/M
;
_chemical_formula_sum "Si O2"
_cell_formula_units_Z 44
_cell_length_a 15.550414
_cell_length_b 15.550414
_cell_length_c 10.098813
_cell_angle_alpha 90.000000
_cell_angle_beta 90.000000
_cell_angle_gamma 90.000000
_cell_volume 2442.048258
_symmetry_space_group_name_H-M "P 4/M"
_symmetry_group_IT_number 83
_symmetry_cell_setting 'tetragonal'
loop_
_space_group_symop_operation_xyz
x,y,z
-y,x,z
-x,-y,z
y,-x,z
-x,-y,-z
y,-x,-z
x,y,-z
-y,x,-z
loop_
_atom_site_type_symbol
_atom_site_label
_atom_site_fract_x
_atom_site_fract_y
_atom_site_fract_z
Si Si1 0.559393 0.621136 0.657318
Si Si2 0.014124 0.257299 0.147133
Si Si3 0.341632 0.214080 0.652770
Si Si4 0.595553 0.973814 0.348333
Si Si5 0.829524 0.843185 0.766307
Si Si6 0.088388 0.109715 0.500000
O O1 0.461157 0.613797 0.708430
O O2 0.558686 0.622860 0.500000
O O3 0.601993 0.708043 0.711409
O O4 0.018557 0.334857 0.252741
O O5 0.939290 0.188745 0.181725
O O6 0.105397 0.207736 0.138805
O O7 0.996472 0.294653 0.000000
O O8 0.313571 0.229355 0.500000
O O9 0.398644 0.128685 0.663798
O O10 0.259558 0.207807 0.748566
O O11 0.614108 0.003297 0.500000
O O12 0.500000 0.000000 0.303812
O O13 0.875875 0.842857 0.626208
O O14 0.987198 0.120333 0.500000
#
# Coordination Sequence:
#
# PCOD8302902 Si02
#       6
#     8   8   8   8   8   4
#     4   8  14  25  41  65 100 136 165 199 251 316
#     4  11  24  38  54  76 108 146 180 218 266 322
#     4   9  17  28  48  74 102 134 170 215 268 312
#     4   9  20  37  56  79 105 136 178 228 271 319
#     4  11  21  34  52  75 107 138 180 225 263 315
#     4  11  20  32  52  78  98 139 182 228 276 319
#
# _framework density 18.017661
#
# number of rings (size 3 to 8) (size 9 to 14) (size 15 to 20)
#    0.000    2.273    2.727    1.091    2.545    2.182 
#    0.000    4.545    0.000    0.000    0.000    0.000 
#    0.000    0.000    0.000   51.636    0.000   18.364 
#
# Total GULP energy -545498.541675 kJ/mol
# GULP energy per Si atom -12397.694129 kJ/mol
# Density = 1.797665 g / cm^3
# Si number density = 18.017661 Si / 1000 Ang^3
#
#
#
# Elastic Constant Matrix: (Units=GPa)
#
#
# Indices 1 2 3 4 5 6 
#
# 1 110.5827 57.4766 21.6894 0.0000 0.0000 -10.9282
# 2 57.4766 110.5827 21.6894 0.0000 0.0000 10.9282
# 3 21.6894 21.6894 68.8152 0.0000 0.0000 0.0000
# 4 0.0000 0.0000 0.0000 14.2821 0.0000 0.0000
# 5 0.0000 0.0000 0.0000 0.0000 14.2821 0.0000
# 6 -10.9282 10.9282 0.0000 0.0000 0.0000 32.6807
#
#
#
# Elastic Compliance Matrix: (Units=1/GPa)
#
#
# Indices 1 2 3 4 5 6 
#
# 1 0.014156 -0.007679 -0.002042 0.000000 0.000000 0.007302
# 2 -0.007679 0.014156 -0.002042 0.000000 0.000000 -0.007302
# 3 -0.002042 -0.002042 0.015819 0.000000 0.000000 0.000000
# 4 0.000000 0.000000 0.000000 0.070018 0.000000 0.000000
# 5 0.000000 0.000000 0.000000 0.000000 0.070018 0.000000
# 6 0.007302 -0.007302 0.000000 0.000000 0.000000 0.035482
#
#
# Mechanical properties :
#
#
# Convention : Reuss Voigt Hill
#
# Bulk Modulus (GPa) = 48.52724 54.63237 51.57981
# Shear Modulus (GPa) = 19.99666 24.85733 22.42699
#
# Velocity S-wave (km/s) = 3.33504 3.71834 3.53189
# Velocity P-wave (km/s) = 6.46696 6.98728 6.73215
#
# Compressibility (1/GPa) = 0.02060698
#
# Stress axis : x y z
#
# Youngs Moduli (GPa) = 70.64009 70.64009 63.21681
#
# Poissons Ratio (x) = 0.54245 0.12906
# Poissons Ratio (y) = 0.54245 0.12906
# Poissons Ratio (z) = 0.14421 0.14421
#
# Static dielectric constant tensor:
#      x y z
#    x 3.405900 0.000000 0.000000 
#    y 0.000000 3.405900 0.000000 
#    z 0.000000 0.000000 3.055410 
# 
# 
# High freq. dielectric constant tensor:
#      x y z
#    x 1.696430 0.000000 0.000000 
#    y 0.000000 1.696430 0.000000 
#    z 0.000000 0.000000 1.665270 
# 
# From -- ./inp_files/1716.got.cif
#   From: 2010.03.12/outbox.cif.g09.slc.cpg/sg83_1_cif.got.tgz:1716.got - 2010.04.08 20:05:18.
