data_PCOD8302351
_publ_section_title
;
Structure prediction by ZEFSAII (Michael W. Deem and Ramdas Pophale) SiO2 
 PCOD8302351
Probable space group: I -4 
;
_chemical_formula_sum "Si O2"
_cell_formula_units_Z 60
_cell_length_a 11.273095
_cell_length_b 11.273095
_cell_length_c 24.227269
_cell_angle_alpha 90.000000
_cell_angle_beta 90.000000
_cell_angle_gamma 90.000000
_cell_volume 3078.866053
_symmetry_space_group_name_H-M "I -4 "
_symmetry_group_IT_number 82
_symmetry_cell_setting 'tetragonal'
loop_
_space_group_symop_operation_xyz
x,y,z
y,-x,-z
-x,-y,z
-y,x,-z
1/2+x,1/2+y,1/2+z
1/2+y,1/2-x,1/2-z
1/2-x,1/2-y,1/2+z
1/2-y,1/2+x,1/2-z
loop_
_atom_site_type_symbol
_atom_site_label
_atom_site_fract_x
_atom_site_fract_y
_atom_site_fract_z
Si Si1 0.860581 0.980578 0.805165
Si Si2 0.132938 0.468211 0.452216
Si Si3 0.500000 0.500000 0.111451
Si Si4 0.340174 0.211152 0.038965
Si Si5 0.209928 0.718140 0.133638
Si Si6 0.217667 0.100437 0.450043
Si Si7 0.215815 0.018426 0.682434
Si Si8 0.661515 0.776254 0.623323
O O1 0.826782 0.862664 0.839730
O O2 0.797879 0.958446 0.746957
O O3 0.812969 0.098037 0.834953
O O4 0.000000 0.000000 0.798529
O O5 0.196647 0.408416 0.505754
O O6 0.133584 0.372389 0.403506
O O7 0.203684 0.583507 0.431975
O O8 0.000000 0.500000 0.467800
O O9 0.566485 0.411285 0.071371
O O10 0.597234 0.560918 0.150742
O O11 0.483265 0.203835 0.042716
O O12 0.281549 0.214822 0.099842
O O13 0.298661 0.331062 0.007716
O O14 0.313764 0.776839 0.096356
O O15 0.261597 0.623094 0.177289
O O16 0.319036 0.101552 0.657119
#
# Coordination Sequence:
#
# PCOD8302351 Si02
#       8
#     8   8   4   8   8   8   8   8
#     4  11  24  42  60  83 123 166 206 251 306 366
#     4  10  19  37  56  83 124 156 190 246 294 356
#     4  10  18  31  58  90 126 142 181 256 320 368
#     4  11  21  35  58  90 121 162 194 245 308 366
#     4   9  21  36  59  88 116 155 195 253 305 360
#     4  10  19  32  57  90 120 151 193 242 313 368
#     4  11  19  38  64  93 113 149 205 262 316 350
#     4  11  23  40  60  89 124 158 209 252 297 373
#
# _framework density 19.487694999999999
#
# number of rings (size 3 to 8) (size 9 to 14) (size 15 to 20)
#    0.000    1.600    3.333    2.400    1.867    0.000 
#    9.600    1.333    0.000    0.000    0.000    0.000 
#    0.000    0.000    0.000    0.000    0.000    0.000 
#
# Total GULP energy -371894.946987 kJ/mol
# GULP energy per Si atom -12396.498233 kJ/mol
# Density = 1.944334 g / cm^3
# Si number density = 19.487695 Si / 1000 Ang^3
#
#
#
# Elastic Constant Matrix: (Units=GPa)
#
#
# Indices 1 2 3 4 5 6 
#
# 1 78.6542 28.7964 37.7963 0.0000 0.0000 1.4680
# 2 28.7964 78.6542 37.7963 0.0000 0.0000 -1.4680
# 3 37.7963 37.7963 102.5703 0.0000 0.0000 0.0000
# 4 0.0000 0.0000 0.0000 21.2002 0.0000 0.0000
# 5 0.0000 0.0000 0.0000 0.0000 21.2002 0.0000
# 6 1.4680 -1.4680 0.0000 0.0000 0.0000 22.5018
#
#
#
# Elastic Compliance Matrix: (Units=1/GPa)
#
#
# Indices 1 2 3 4 5 6 
#
# 1 0.016349 -0.003785 -0.004630 0.000000 0.000000 -0.001314
# 2 -0.003785 0.016349 -0.004630 0.000000 0.000000 0.001314
# 3 -0.004630 -0.004630 0.013161 0.000000 0.000000 0.000000
# 4 0.000000 0.000000 0.000000 0.047169 0.000000 0.000000
# 5 0.000000 0.000000 0.000000 0.000000 0.047169 0.000000
# 6 -0.001314 0.001314 0.000000 0.000000 0.000000 0.044612
#
#
# Mechanical properties :
#
#
# Convention : Reuss Voigt Hill
#
# Bulk Modulus (GPa) = 50.58127 52.07296 51.32712
# Shear Modulus (GPa) = 22.98961 23.34641 23.16801
#
# Velocity S-wave (km/s) = 3.43840 3.46498 3.45172
# Velocity P-wave (km/s) = 6.46338 6.54118 6.50240
#
# Compressibility (1/GPa) = 0.01977016
#
# Stress axis : x y z
#
# Youngs Moduli (GPa) = 61.16600 61.16600 75.98020
#
# Poissons Ratio (x) = 0.23154 0.35175
# Poissons Ratio (y) = 0.23154 0.35175
# Poissons Ratio (z) = 0.28317 0.28317
#
# Static dielectric constant tensor:
#      x y z
#    x 3.588400 0.000000 0.000000 
#    y 0.000000 3.588400 0.000000 
#    z 0.000000 0.000000 3.586090 
# 
# 
# High freq. dielectric constant tensor:
#      x y z
#    x 1.746520 0.000000 0.000000 
#    y 0.000000 1.746520 0.000000 
#    z 0.000000 0.000000 1.759360 
# 
# From -- ./inp_files/3180.got.cif
#   From: 2010.03.12/outbox.cif.g09.slc.cpg/sg82_2_cif.got.tgz:3180.got - 2010.04.08 20:02:50.
