data_PCOD8302565
_publ_section_title
;
Structure prediction by ZEFSAII (Michael W. Deem and Ramdas Pophale) SiO2 
 PCOD8302565
Probable space group: I -4 
;
_chemical_formula_sum "Si O2"
_cell_formula_units_Z 36
_cell_length_a 12.430699
_cell_length_b 12.430699
_cell_length_c 10.336667
_cell_angle_alpha 90.000000
_cell_angle_beta 90.000000
_cell_angle_gamma 90.000000
_cell_volume 1597.245328
_symmetry_space_group_name_H-M "I -4 "
_symmetry_group_IT_number 82
_symmetry_cell_setting 'tetragonal'
loop_
_space_group_symop_operation_xyz
x,y,z
y,-x,-z
-x,-y,z
-y,x,-z
1/2+x,1/2+y,1/2+z
1/2+y,1/2-x,1/2-z
1/2-x,1/2-y,1/2+z
1/2-y,1/2+x,1/2-z
loop_
_atom_site_type_symbol
_atom_site_label
_atom_site_fract_x
_atom_site_fract_y
_atom_site_fract_z
Si Si1 0.478125 0.145969 0.320760
Si Si2 0.924671 0.863388 0.545790
Si Si3 0.132539 0.627769 0.058844
Si Si4 0.857427 0.867755 0.820304
Si Si5 0.000000 0.500000 0.250000
Si Si6 0.500000 0.500000 0.500000
O O1 0.378780 0.062537 0.297466
O O2 0.533095 0.130968 0.459869
O O3 0.436805 0.266154 0.318343
O O4 0.902496 0.739670 0.516969
O O5 0.857889 0.904107 0.671422
O O6 0.053757 0.881407 0.564556
O O7 0.158666 0.739301 0.130098
O O8 0.101740 0.540026 0.166491
O O9 0.902213 0.961376 0.911263
#
# Coordination Sequence:
#
# PCOD8302565 Si02
#       6
#     8   8   8   8   2   2
#     4  11  24  46  75 107 144 198 251 303 376 454
#     4  11  26  48  72 105 146 195 246 305 380 451
#     4  12  27  47  77 108 148 197 250 311 379 455
#     4  12  26  45  74 109 144 200 239 317 371 451
#     4  12  28  48  70 112 148 196 252 314 360 456
#     4  12  24  48  70 108 156 184 256 302 388 448
#
# _framework density 22.538803999999999
#
# number of rings (size 3 to 8) (size 9 to 14) (size 15 to 20)
#    0.000    0.444    4.444    4.000    3.111    1.778 
#    4.000    0.000    0.000    0.000    0.000    0.000 
#    0.000    0.000    0.000    0.000    0.000    0.000 
#
# Total GULP energy -223165.510204 kJ/mol
# GULP energy per Si atom -12398.083900 kJ/mol
# Density = 2.248751 g / cm^3
# Si number density = 22.538804 Si / 1000 Ang^3
#
#
#
# Elastic Constant Matrix: (Units=GPa)
#
#
# Indices 1 2 3 4 5 6 
#
# 1 82.8491 22.7116 31.5138 0.0000 0.0000 5.0363
# 2 22.7116 82.8491 31.5138 0.0000 0.0000 -5.0363
# 3 31.5138 31.5138 116.2673 0.0000 0.0000 0.0000
# 4 0.0000 0.0000 0.0000 39.9684 0.0000 0.0000
# 5 0.0000 0.0000 0.0000 0.0000 39.9684 0.0000
# 6 5.0363 -5.0363 0.0000 0.0000 0.0000 38.7010
#
#
#
# Elastic Compliance Matrix: (Units=1/GPa)
#
#
# Indices 1 2 3 4 5 6 
#
# 1 0.014151 -0.002848 -0.003063 0.000000 0.000000 -0.002212
# 2 -0.002848 0.014151 -0.003063 0.000000 0.000000 0.002212
# 3 -0.003063 -0.003063 0.010262 0.000000 0.000000 0.000000
# 4 0.000000 0.000000 0.000000 0.025020 0.000000 0.000000
# 5 0.000000 0.000000 0.000000 0.000000 0.025020 0.000000
# 6 -0.002212 0.002212 0.000000 0.000000 0.000000 0.026415
#
#
# Mechanical properties :
#
#
# Convention : Reuss Voigt Hill
#
# Bulk Modulus (GPa) = 48.51451 50.38268 49.44859
# Shear Modulus (GPa) = 35.75546 36.80929 36.28238
#
# Velocity S-wave (km/s) = 3.98728 4.04561 4.01655
# Velocity P-wave (km/s) = 6.53984 6.65018 6.59524
#
# Compressibility (1/GPa) = 0.02061239
#
# Stress axis : x y z
#
# Youngs Moduli (GPa) = 70.66781 70.66781 97.45116
#
# Poissons Ratio (x) = 0.20129 0.29854
# Poissons Ratio (y) = 0.20129 0.29854
# Poissons Ratio (z) = 0.21649 0.21649
#
# Static dielectric constant tensor:
#      x y z
#    x 4.026020 0.000000 0.000000 
#    y 0.000000 4.026020 0.000000 
#    z 0.000000 0.000000 4.378910 
# 
# 
# High freq. dielectric constant tensor:
#      x y z
#    x 1.892250 0.000000 0.000000 
#    y 0.000000 1.892250 0.000000 
#    z 0.000000 0.000000 1.895970 
# 
# From -- ./inp_files/1619.got.cif
#   From: 2010.03.12/outbox.cif.g09.slc.cpg/sg82_1_cif.got.tgz:1619.got - 2010.04.08 20:02:50.
