data_PCOD8302105
_publ_section_title
;
Structure prediction by ZEFSAII (Michael W. Deem and Ramdas Pophale) SiO2 
 PCOD8302105
Probable space group: I 4
;
_chemical_formula_sum "Si O2"
_cell_formula_units_Z 40
_cell_length_a 8.503311
_cell_length_b 8.503311
_cell_length_c 27.661580
_cell_angle_alpha 90.000000
_cell_angle_beta 90.000000
_cell_angle_gamma 90.000000
_cell_volume 2000.106446
_symmetry_space_group_name_H-M "I 4"
_symmetry_group_IT_number 79
_symmetry_cell_setting 'tetragonal'
loop_
_space_group_symop_operation_xyz
x,y,z
-y,x,z
-x,-y,z
y,-x,z
1/2+x,1/2+y,1/2+z
1/2-y,1/2+x,1/2+z
1/2-x,1/2-y,1/2+z
1/2+y,1/2-x,1/2+z
loop_
_atom_site_type_symbol
_atom_site_label
_atom_site_fract_x
_atom_site_fract_y
_atom_site_fract_z
Si Si1 0.935518 0.752614 0.977740
Si Si2 0.756843 0.541865 0.796164
Si Si3 0.249909 0.927201 0.868003
Si Si4 0.000000 0.500000 0.213703
Si Si5 0.243900 0.527660 0.130850
Si Si6 0.500000 0.000000 0.051505
O O1 0.913698 0.690746 0.923191
O O2 0.111426 0.811164 0.986699
O O3 0.905748 0.619750 0.017203
O O4 0.626718 0.677341 0.802669
O O5 0.887486 0.597299 0.835413
O O6 0.842227 0.522691 0.744915
O O7 0.104643 0.808481 0.857501
O O8 0.154884 0.507292 0.181311
O O9 0.328758 0.361768 0.127635
O O10 0.130803 0.572105 0.086495
#
# Coordination Sequence:
#
# PCOD8302105 Si02
#       6
#     8   8   8   4   8   4
#     4   9  19  35  55  82 114 150 190 224 262 323
#     4  11  23  37  56  85 116 144 183 237 289 332
#     4   9  19  36  57  81 113 154 194 227 266 328
#     4  11  22  39  60  78 104 147 186 223 280 346
#     4  10  22  39  57  80 108 139 181 230 280 337
#     4  11  20  33  58  84 110 143 178 229 286 324
#
# _framework density 19.998936
#
# number of rings (size 3 to 8) (size 9 to 14) (size 15 to 20)
#    0.000    2.000    0.000    4.800    0.000    4.000 
#    0.000    2.000    0.000   12.000    0.000    0.000 
#    0.000    0.000    0.000    0.000    0.000    0.000 
#
# Total GULP energy -247812.000866 kJ/mol
# GULP energy per Si atom -12390.600043 kJ/mol
# Density = 1.995342 g / cm^3
# Si number density = 19.998936 Si / 1000 Ang^3
#
#
#
# Elastic Constant Matrix: (Units=GPa)
#
#
# Indices 1 2 3 4 5 6 
#
# 1 68.8675 15.2533 34.8190 0.0000 0.0000 -5.1426
# 2 15.2533 68.8675 34.8190 0.0000 0.0000 5.1426
# 3 34.8190 34.8190 119.3759 0.0000 0.0000 0.0000
# 4 0.0000 0.0000 0.0000 20.6252 0.0000 0.0000
# 5 0.0000 0.0000 0.0000 0.0000 20.6252 0.0000
# 6 -5.1426 5.1426 0.0000 0.0000 0.0000 40.3631
#
#
#
# Elastic Compliance Matrix: (Units=1/GPa)
#
#
# Indices 1 2 3 4 5 6 
#
# 1 0.017395 -0.001724 -0.004571 0.000000 0.000000 0.002436
# 2 -0.001724 0.017395 -0.004571 0.000000 0.000000 -0.002436
# 3 -0.004571 -0.004571 0.011043 0.000000 0.000000 0.000000
# 4 0.000000 0.000000 0.000000 0.048484 0.000000 0.000000
# 5 0.000000 0.000000 0.000000 0.000000 0.048484 0.000000
# 6 0.002436 -0.002436 0.000000 0.000000 0.000000 0.025396
#
#
# Mechanical properties :
#
#
# Convention : Reuss Voigt Hill
#
# Bulk Modulus (GPa) = 41.48919 47.43264 44.46091
# Shear Modulus (GPa) = 25.25702 27.80398 26.53050
#
# Velocity S-wave (km/s) = 3.55761 3.73268 3.64620
# Velocity P-wave (km/s) = 6.13728 6.50740 6.32505
#
# Compressibility (1/GPa) = 0.02410267
#
# Stress axis : x y z
#
# Youngs Moduli (GPa) = 57.48639 57.48639 90.55156
#
# Poissons Ratio (x) = 0.09909 0.41392
# Poissons Ratio (y) = 0.09909 0.41392
# Poissons Ratio (z) = 0.26277 0.26277
#
# Static dielectric constant tensor:
#      x y z
#    x 3.630600 0.000000 0.000000 
#    y 0.000000 3.630600 0.000000 
#    z 0.000000 0.000000 3.645520 
# 
# 
# High freq. dielectric constant tensor:
#      x y z
#    x 1.783890 0.000000 0.000000 
#    y 0.000000 1.783890 0.000000 
#    z 0.000000 0.000000 1.786400 
# 
# From -- ./inp_files/1907.got.cif
#   From: 2010.03.12/outbox.cif.g09.slc.cpg/sg79_cif.got.tgz:1907.got - 2010.04.16 16:38:49.
