data_PCOD8302504
_publ_section_title
;
Structure prediction by ZEFSAII (Michael W. Deem and Ramdas Pophale) SiO2 
 PCOD8302504
Probable space group: I -4 
;
_chemical_formula_sum "Si O2"
_cell_formula_units_Z 40
_cell_length_a 8.758847
_cell_length_b 8.758847
_cell_length_c 21.328168
_cell_angle_alpha 90.000000
_cell_angle_beta 90.000000
_cell_angle_gamma 90.000000
_cell_volume 1636.241612
_symmetry_space_group_name_H-M "I -4 "
_symmetry_group_IT_number 82
_symmetry_cell_setting 'tetragonal'
loop_
_space_group_symop_operation_xyz
x,y,z
y,-x,-z
-x,-y,z
-y,x,-z
1/2+x,1/2+y,1/2+z
1/2+y,1/2-x,1/2-z
1/2-x,1/2-y,1/2+z
1/2-y,1/2+x,1/2-z
loop_
_atom_site_type_symbol
_atom_site_label
_atom_site_fract_x
_atom_site_fract_y
_atom_site_fract_z
Si Si1 0.963221 0.726235 0.269838
Si Si2 0.932788 0.330051 0.042483
Si Si3 0.576745 0.217274 0.278562
Si Si4 0.170223 0.788240 0.917087
Si Si5 0.321026 0.488928 0.094467
O O1 0.833651 0.594459 0.277077
O O2 0.886155 0.880348 0.244391
O O3 0.041426 0.760066 0.335578
O O4 0.759154 0.356535 0.067499
O O5 0.000000 0.500000 0.044563
O O6 0.028640 0.208672 0.085803
O O7 0.944141 0.258509 0.972816
O O8 0.404169 0.185412 0.257393
O O9 0.599859 0.215716 0.353709
O O10 0.330966 0.716278 0.939924
O O11 0.500000 0.500000 0.090168
#
# Coordination Sequence:
#
# PCOD8302504 Si02
#       5
#     8   8   8   8   8
#     4  11  23  41  69  97 143 188 235 295 365 440
#     4  10  26  43  75 105 145 200 239 314 367 440
#     4  11  25  43  70 106 148 190 241 307 370 437
#     4  11  24  48  68 103 152 191 251 302 374 444
#     4  11  24  42  73 108 142 187 252 303 365 448
#
# _framework density 24.446263999999999
#
# number of rings (size 3 to 8) (size 9 to 14) (size 15 to 20)
#    0.000    1.200    2.000    2.400   14.000    2.000 
#    0.000    2.000    0.000    0.000    0.000    0.000 
#    0.000    0.000    0.000    0.000    0.000    0.000 
#
# Total GULP energy -247850.074671 kJ/mol
# GULP energy per Si atom -12392.503734 kJ/mol
# Density = 2.439062 g / cm^3
# Si number density = 24.446264 Si / 1000 Ang^3
#
#
#
# Elastic Constant Matrix: (Units=GPa)
#
#
# Indices 1 2 3 4 5 6 
#
# 1 81.8929 15.7769 30.8285 0.0000 0.0000 -6.5817
# 2 15.7769 81.8929 30.8285 0.0000 0.0000 6.5817
# 3 30.8285 30.8285 108.6563 0.0000 0.0000 0.0000
# 4 0.0000 0.0000 0.0000 37.7326 0.0000 0.0000
# 5 0.0000 0.0000 0.0000 0.0000 37.7326 0.0000
# 6 -6.5817 6.5817 0.0000 0.0000 0.0000 32.8790
#
#
#
# Elastic Compliance Matrix: (Units=1/GPa)
#
#
# Indices 1 2 3 4 5 6 
#
# 1 0.014113 -0.001640 -0.003539 0.000000 0.000000 0.003153
# 2 -0.001640 0.014113 -0.003539 0.000000 0.000000 -0.003153
# 3 -0.003539 -0.003539 0.011211 0.000000 0.000000 0.000000
# 4 0.000000 0.000000 0.000000 0.026502 0.000000 0.000000
# 5 0.000000 0.000000 0.000000 0.000000 0.026502 0.000000
# 6 0.003153 -0.003153 0.000000 0.000000 0.000000 0.031677
#
#
# Mechanical properties :
#
#
# Convention : Reuss Voigt Hill
#
# Bulk Modulus (GPa) = 45.45165 47.47887 46.46526
# Shear Modulus (GPa) = 33.58242 34.66938 34.12590
#
# Velocity S-wave (km/s) = 3.71040 3.76997 3.74030
# Velocity P-wave (km/s) = 6.08185 6.19791 6.14016
#
# Compressibility (1/GPa) = 0.02200140
#
# Stress axis : x y z
#
# Youngs Moduli (GPa) = 70.85847 70.85848 89.19493
#
# Poissons Ratio (x) = 0.11622 0.31564
# Poissons Ratio (y) = 0.11622 0.31564
# Poissons Ratio (z) = 0.25075 0.25075
#
# Static dielectric constant tensor:
#      x y z
#    x 4.516470 0.000000 0.000000 
#    y 0.000000 4.516470 0.000000 
#    z 0.000000 0.000000 4.275870 
# 
# 
# High freq. dielectric constant tensor:
#      x y z
#    x 1.975700 0.000000 0.000000 
#    y 0.000000 1.975700 0.000000 
#    z 0.000000 0.000000 1.961150 
# 
# From -- ./inp_files/3369.got.cif
#   From: 2010.03.12/outbox.cif.g09.slc.cpg/sg82_2_cif.got.tgz:3369.got - 2010.04.08 20:02:50.
