data_PCOD8302635
_publ_section_title
;
Structure prediction by ZEFSAII (Michael W. Deem and Ramdas Pophale) SiO2 
 PCOD8302635
Probable space group: P 4/M
;
_chemical_formula_sum "Si O2"
_cell_formula_units_Z 52
_cell_length_a 17.666755
_cell_length_b 17.666755
_cell_length_c 9.760320
_cell_angle_alpha 90.000000
_cell_angle_beta 90.000000
_cell_angle_gamma 90.000000
_cell_volume 3046.334783
_symmetry_space_group_name_H-M "P 4/M"
_symmetry_group_IT_number 83
_symmetry_cell_setting 'tetragonal'
loop_
_space_group_symop_operation_xyz
x,y,z
-y,x,z
-x,-y,z
y,-x,z
-x,-y,-z
y,-x,-z
x,y,-z
-y,x,-z
loop_
_atom_site_type_symbol
_atom_site_label
_atom_site_fract_x
_atom_site_fract_y
_atom_site_fract_z
Si Si1 0.922414 0.900089 0.500000
Si Si2 0.417321 0.788235 0.160959
Si Si3 0.405868 0.215117 0.842219
Si Si4 0.312822 0.918684 0.156019
Si Si5 0.703737 0.694985 0.344653
Si Si6 0.814394 0.172582 0.280032
Si Si7 0.082233 0.702828 0.158320
O O1 0.889859 0.855125 0.371438
O O2 0.013139 0.894908 0.500000
O O3 0.505867 0.788503 0.188890
O O4 0.382992 0.868700 0.210910
O O5 0.379205 0.725306 0.257239
O O6 0.398387 0.772868 0.000000
O O7 0.368642 0.272737 0.735819
O O8 0.371484 0.132240 0.814787
O O9 0.389622 0.240013 0.000000
O O10 0.234070 0.873362 0.168560
O O11 0.309604 0.000438 0.231753
O O12 0.329709 0.935802 0.000000
O O13 0.680908 0.672228 0.500000
O O14 0.771220 0.756345 0.357064
O O15 0.879963 0.221430 0.213298
O O16 0.070130 0.718376 0.000000
#
# Coordination Sequence:
#
# PCOD8302635 Si02
#       7
#     4   8   8   8   8   8   8
#     4  11  22  32  44  62  86 124 170 213 256 298
#     4   9  18  32  51  75 103 132 163 202 248 300
#     4   9  18  32  51  75 103 132 163 202 248 300
#     4   9  17  29  48  72  96 125 162 205 253 302
#     4  10  19  32  52  75  97 130 169 203 242 290
#     4  10  18  32  46  65  91 127 164 211 248 294
#     4   9  17  29  48  72  96 125 162 205 253 302
#
# _framework density 17.069693999999998
#
# number of rings (size 3 to 8) (size 9 to 14) (size 15 to 20)
#    0.000    2.538    0.769    1.846    0.000    4.923 
#    0.000    3.077    0.000    0.462    0.000   14.000 
#    0.000    0.000    0.000    0.000    0.000    0.000 
#
# Total GULP energy -644412.552124 kJ/mol
# GULP energy per Si atom -12392.549079 kJ/mol
# Density = 1.703084 g / cm^3
# Si number density = 17.069694 Si / 1000 Ang^3
#
#
#
# Elastic Constant Matrix: (Units=GPa)
#
#
# Indices 1 2 3 4 5 6 
#
# 1 102.4635 44.1423 39.6268 0.0000 0.0000 1.5945
# 2 44.1423 102.4635 39.6268 0.0000 0.0000 -1.5945
# 3 39.6268 39.6268 68.9598 0.0000 0.0000 0.0000
# 4 0.0000 0.0000 0.0000 18.4935 0.0000 0.0000
# 5 0.0000 0.0000 0.0000 0.0000 18.4935 0.0000
# 6 1.5945 -1.5945 0.0000 0.0000 0.0000 19.4576
#
#
#
# Elastic Compliance Matrix: (Units=1/GPa)
#
#
# Indices 1 2 3 4 5 6 
#
# 1 0.013559 -0.003664 -0.005686 0.000000 0.000000 -0.001411
# 2 -0.003664 0.013559 -0.005686 0.000000 0.000000 0.001411
# 3 -0.005686 -0.005686 0.021036 0.000000 0.000000 0.000000
# 4 0.000000 0.000000 0.000000 0.054073 0.000000 0.000000
# 5 0.000000 0.000000 0.000000 0.000000 0.054073 0.000000
# 6 -0.001411 0.001411 0.000000 0.000000 0.000000 0.051625
#
#
# Mechanical properties :
#
#
# Convention : Reuss Voigt Hill
#
# Bulk Modulus (GPa) = 55.30423 57.85317 56.57870
# Shear Modulus (GPa) = 20.48972 21.32166 20.90569
#
# Velocity S-wave (km/s) = 3.46838 3.53809 3.50340
# Velocity P-wave (km/s) = 6.96483 7.11735 7.04150
#
# Compressibility (1/GPa) = 0.01808180
#
# Stress axis : x y z
#
# Youngs Moduli (GPa) = 73.75083 73.75083 47.53796
#
# Poissons Ratio (x) = 0.27025 0.27029
# Poissons Ratio (y) = 0.27025 0.27029
# Poissons Ratio (z) = 0.41934 0.41934
#
# Static dielectric constant tensor:
#      x y z
#    x 3.237310 0.000000 0.000000 
#    y 0.000000 3.237310 0.000000 
#    z 0.000000 0.000000 3.077030 
# 
# 
# High freq. dielectric constant tensor:
#      x y z
#    x 1.655760 0.000000 0.000000 
#    y 0.000000 1.655760 0.000000 
#    z 0.000000 0.000000 1.642620 
# 
# From -- ./inp_files/1036.got.cif
#   From: 2010.03.12/outbox.cif.g09.slc.cpg/sg83_1_cif.got.tgz:1036.got - 2010.04.08 20:05:18.
