data_PCOD8302761
_publ_section_title
;
Structure prediction by ZEFSAII (Michael W. Deem and Ramdas Pophale) SiO2 
 PCOD8302761
Probable space group: P 4/M
;
_chemical_formula_sum "Si O2"
_cell_formula_units_Z 40
_cell_length_a 14.938546
_cell_length_b 14.938546
_cell_length_c 9.368802
_cell_angle_alpha 90.000000
_cell_angle_beta 90.000000
_cell_angle_gamma 90.000000
_cell_volume 2090.743321
_symmetry_space_group_name_H-M "P 4/M"
_symmetry_group_IT_number 83
_symmetry_cell_setting 'tetragonal'
loop_
_space_group_symop_operation_xyz
x,y,z
-y,x,z
-x,-y,z
y,-x,z
-x,-y,-z
y,-x,-z
x,y,-z
-y,x,-z
loop_
_atom_site_type_symbol
_atom_site_label
_atom_site_fract_x
_atom_site_fract_y
_atom_site_fract_z
Si Si1 0.438720 0.081866 0.335967
Si Si2 0.608255 0.189999 0.336254
Si Si3 0.765279 0.114460 0.834759
Si Si4 0.254431 0.086158 0.833669
Si Si5 0.570181 0.380051 0.330091
O O1 0.410398 0.064619 0.500000
O O2 0.502805 0.167976 0.320389
O O3 0.348569 0.096672 0.247092
O O4 0.500000 0.000000 0.279487
O O5 0.638317 0.179450 0.500000
O O6 0.671239 0.126522 0.244730
O O7 0.621015 0.291207 0.277817
O O8 0.841776 0.181698 0.776071
O O9 0.791306 0.010882 0.808417
O O10 0.748828 0.133767 0.000000
O O11 0.274669 0.101078 0.000000
O O12 0.620500 0.467702 0.272382
O O13 0.565543 0.379031 0.500000
#
# Coordination Sequence:
#
# PCOD8302761 Si02
#       5
#     8   8   8   8   8
#     4  10  20  35  55  83 114 141 177 224 275 328
#     4  10  20  33  54  82 110 143 181 225 274 324
#     4  10  22  39  57  80 109 143 188 234 282 336
#     4  10  22  39  59  82 109 146 187 232 284 335
#     4   8  15  28  46  71 103 138 177 215 254 309
#
# _framework density 19.131951999999998
#
# number of rings (size 3 to 8) (size 9 to 14) (size 15 to 20)
#    0.000    2.400    2.000    0.600    2.800    2.400 
#    0.000    2.000    0.000    0.000    0.000    4.200 
#    0.000    0.000    0.000    0.000    0.000    0.000 
#
# Total GULP energy -495768.552916 kJ/mol
# GULP energy per Si atom -12394.213823 kJ/mol
# Density = 1.908841 g / cm^3
# Si number density = 19.131952 Si / 1000 Ang^3
#
#
#
# Elastic Constant Matrix: (Units=GPa)
#
#
# Indices 1 2 3 4 5 6 
#
# 1 97.0585 34.8291 33.5540 0.0000 0.0000 3.9657
# 2 34.8291 97.0585 33.5540 0.0000 0.0000 -3.9657
# 3 33.5540 33.5540 41.4643 0.0000 0.0000 0.0000
# 4 0.0000 0.0000 0.0000 23.4600 0.0000 0.0000
# 5 0.0000 0.0000 0.0000 0.0000 23.4600 0.0000
# 6 3.9657 -3.9657 0.0000 0.0000 0.0000 29.2818
#
#
#
# Elastic Compliance Matrix: (Units=1/GPa)
#
#
# Indices 1 2 3 4 5 6 
#
# 1 0.014621 -0.001731 -0.010431 0.000000 0.000000 -0.002215
# 2 -0.001731 0.014621 -0.010431 0.000000 0.000000 0.002215
# 3 -0.010431 -0.010431 0.040999 0.000000 0.000000 0.000000
# 4 0.000000 0.000000 0.000000 0.042626 0.000000 0.000000
# 5 0.000000 0.000000 0.000000 0.000000 0.042626 0.000000
# 6 -0.002215 0.002215 0.000000 0.000000 0.000000 0.034751
#
#
# Mechanical properties :
#
#
# Convention : Reuss Voigt Hill
#
# Bulk Modulus (GPa) = 39.91160 48.82836 44.36998
# Shear Modulus (GPa) = 20.51041 24.14995 22.33018
#
# Velocity S-wave (km/s) = 3.27777 3.55672 3.42009
# Velocity P-wave (km/s) = 5.93562 6.51493 6.23201
#
# Compressibility (1/GPa) = 0.02505537
#
# Stress axis : x y z
#
# Youngs Moduli (GPa) = 68.39614 68.39614 24.39112
#
# Poissons Ratio (x) = 0.11840 0.25441
# Poissons Ratio (y) = 0.11840 0.25441
# Poissons Ratio (z) = 0.71341 0.71341
#
# Static dielectric constant tensor:
#      x y z
#    x 3.673070 0.000000 0.000000 
#    y 0.000000 3.673070 0.000000 
#    z 0.000000 0.000000 3.153570 
# 
# 
# High freq. dielectric constant tensor:
#      x y z
#    x 1.750290 0.000000 0.000000 
#    y 0.000000 1.750290 0.000000 
#    z 0.000000 0.000000 1.705750 
# 
# From -- ./inp_files/655.got.cif
#   From: 2010.03.12/outbox.cif.g09.slc.cpg/sg83_1_cif.got.tgz:655.got - 2010.04.08 20:05:18.
