data_PCOD8302583
_publ_section_title
;
Structure prediction by ZEFSAII (Michael W. Deem and Ramdas Pophale) SiO2 
 PCOD8302583
Probable space group: I -4 
;
_chemical_formula_sum "Si O2"
_cell_formula_units_Z 26
_cell_length_a 10.839442
_cell_length_b 10.839442
_cell_length_c 9.621766
_cell_angle_alpha 90.000000
_cell_angle_beta 90.000000
_cell_angle_gamma 90.000000
_cell_volume 1130.494991
_symmetry_space_group_name_H-M "I -4 "
_symmetry_group_IT_number 82
_symmetry_cell_setting 'tetragonal'
loop_
_space_group_symop_operation_xyz
x,y,z
y,-x,-z
-x,-y,z
-y,x,-z
1/2+x,1/2+y,1/2+z
1/2+y,1/2-x,1/2-z
1/2-x,1/2-y,1/2+z
1/2-y,1/2+x,1/2-z
loop_
_atom_site_type_symbol
_atom_site_label
_atom_site_fract_x
_atom_site_fract_y
_atom_site_fract_z
Si Si1 0.223677 0.114086 0.832286
Si Si2 0.872814 0.383820 0.690551
Si Si3 0.000000 0.000000 0.000000
Si Si4 0.639595 0.016081 0.584932
O O1 0.170705 0.241280 0.773013
O O2 0.268958 0.031512 0.704407
O O3 0.336129 0.155132 0.933519
O O4 0.119467 0.034554 0.909546
O O5 0.858029 0.533743 0.679447
O O6 0.935995 0.329738 0.551831
O O7 0.500000 0.000000 0.634109
#
# Coordination Sequence:
#
# PCOD8302583 Si02
#       4
#     8   8   2   8
#     4  12  28  47  77 112 155 203 259 326 381 460
#     4  11  27  46  78 109 150 207 253 316 383 472
#     4  12  32  48  76 114 156 208 264 334 376 456
#     4  12  24  47  76 110 153 203 252 312 393 457
#
# _framework density 22.998777
#
# number of rings (size 3 to 8) (size 9 to 14) (size 15 to 20)
#    0.000    0.308    6.154    1.846    8.615    0.000 
#    0.000    0.000    0.000    0.000    0.000    0.000 
#    0.000    0.000    0.000    0.000    0.000    0.000 
#
# Total GULP energy -161105.989040 kJ/mol
# GULP energy per Si atom -12392.768388 kJ/mol
# Density = 2.294643 g / cm^3
# Si number density = 22.998777 Si / 1000 Ang^3
#
#
#
# Elastic Constant Matrix: (Units=GPa)
#
#
# Indices 1 2 3 4 5 6 
#
# 1 160.8259 55.9658 41.0932 0.0000 0.0000 21.3058
# 2 55.9658 160.8259 41.0932 0.0000 0.0000 -21.3058
# 3 41.0932 41.0932 106.5844 0.0000 0.0000 0.0000
# 4 0.0000 0.0000 0.0000 40.7462 0.0000 0.0000
# 5 0.0000 0.0000 0.0000 0.0000 40.7462 0.0000
# 6 21.3058 -21.3058 0.0000 0.0000 0.0000 38.0392
#
#
#
# Elastic Compliance Matrix: (Units=1/GPa)
#
#
# Indices 1 2 3 4 5 6 
#
# 1 0.008875 -0.003472 -0.002083 0.000000 0.000000 -0.006915
# 2 -0.003472 0.008875 -0.002083 0.000000 0.000000 0.006915
# 3 -0.002083 -0.002083 0.010988 0.000000 0.000000 0.000000
# 4 0.000000 0.000000 0.000000 0.024542 0.000000 0.000000
# 5 0.000000 0.000000 0.000000 0.000000 0.024542 0.000000
# 6 -0.006915 0.006915 0.000000 0.000000 0.000000 0.034035
#
#
# Mechanical properties :
#
#
# Convention : Reuss Voigt Hill
#
# Bulk Modulus (GPa) = 74.28549 78.28229 76.28389
# Shear Modulus (GPa) = 37.98817 43.24526 40.61672
#
# Velocity S-wave (km/s) = 4.06858 4.34098 4.20698
# Velocity P-wave (km/s) = 7.37841 7.69656 7.53916
#
# Compressibility (1/GPa) = 0.01346158
#
# Stress axis : x y z
#
# Youngs Moduli (GPa) = 112.68217 112.68217 91.00590
#
# Poissons Ratio (x) = 0.39125 0.18955
# Poissons Ratio (y) = 0.39125 0.18955
# Poissons Ratio (z) = 0.23470 0.23470
#
# Static dielectric constant tensor:
#      x y z
#    x 4.453200 0.000000 0.000000 
#    y 0.000000 4.453200 0.000000 
#    z 0.000000 0.000000 4.029820 
# 
# 
# High freq. dielectric constant tensor:
#      x y z
#    x 1.913790 0.000000 0.000000 
#    y 0.000000 1.913790 0.000000 
#    z 0.000000 0.000000 1.911470 
# 
# From -- ./inp_files/621.got.cif
#   From: 2010.03.12/outbox.cif.g09.slc.cpg/sg82_1_cif.got.tgz:621.got - 2010.04.08 20:02:50.
