data_PCOD8302930
_publ_section_title
;
Structure prediction by ZEFSAII (Michael W. Deem and Ramdas Pophale) SiO2 
 PCOD8302930
Probable space group: P 4/M
;
_chemical_formula_sum "Si O2"
_cell_formula_units_Z 48
_cell_length_a 9.539530
_cell_length_b 9.539530
_cell_length_c 27.476322
_cell_angle_alpha 90.000000
_cell_angle_beta 90.000000
_cell_angle_gamma 90.000000
_cell_volume 2500.417637
_symmetry_space_group_name_H-M "P 4/M"
_symmetry_group_IT_number 83
_symmetry_cell_setting 'tetragonal'
loop_
_space_group_symop_operation_xyz
x,y,z
-y,x,z
-x,-y,z
y,-x,z
-x,-y,-z
y,-x,-z
x,y,-z
-y,x,-z
loop_
_atom_site_type_symbol
_atom_site_label
_atom_site_fract_x
_atom_site_fract_y
_atom_site_fract_z
Si Si1 0.145393 0.331538 0.592713
Si Si2 0.629396 0.856098 0.555015
Si Si3 0.619317 0.307572 0.879198
Si Si4 0.691311 0.623952 0.765784
Si Si5 0.123083 0.197932 0.696343
Si Si6 0.118927 0.194871 0.055909
O O1 0.161256 0.499523 0.592068
O O2 0.267196 0.273978 0.558102
O O3 0.167339 0.268940 0.645964
O O4 0.995587 0.285879 0.570770
O O5 0.572561 0.870136 0.500000
O O6 0.689738 0.455537 0.892609
O O7 0.641471 0.276786 0.822542
O O8 0.687395 0.184059 0.910000
O O9 0.540749 0.690870 0.752008
O O10 0.816019 0.703461 0.738407
O O11 0.955543 0.191156 0.700803
O O12 0.954276 0.189274 0.067333
O O13 0.144846 0.236277 0.000000
#
# Coordination Sequence:
#
# PCOD8302930 Si02
#       6
#     8   8   8   8   8   8
#     4  11  23  40  60  88 118 151 189 231 280 337
#     4  11  23  41  63  88 119 153 190 232 280 335
#     4   9  19  37  57  83 116 151 194 242 291 347
#     4   9  21  40  63  86 115 153 193 237 290 349
#     4  11  24  41  59  86 117 151 190 234 286 339
#     4   9  19  35  54  79 116 158 199 245 296 349
#
# _framework density 19.196791999999999
#
# number of rings (size 3 to 8) (size 9 to 14) (size 15 to 20)
#    0.000    2.000    1.667    3.500    2.333    4.000 
#    0.000    9.167    0.000    0.000    0.000    0.000 
#    0.000    0.000    0.000    0.000    0.000    0.000 
#
# Total GULP energy -595271.712554 kJ/mol
# GULP energy per Si atom -12401.494012 kJ/mol
# Density = 1.915310 g / cm^3
# Si number density = 19.196792 Si / 1000 Ang^3
#
#
#
# Elastic Constant Matrix: (Units=GPa)
#
#
# Indices 1 2 3 4 5 6 
#
# 1 69.5339 43.5672 32.1899 0.0000 0.0000 -0.8443
# 2 43.5672 69.5339 32.1899 0.0000 0.0000 0.8443
# 3 32.1899 32.1899 72.0602 0.0000 0.0000 0.0000
# 4 0.0000 0.0000 0.0000 34.1580 0.0000 0.0000
# 5 0.0000 0.0000 0.0000 0.0000 34.1580 0.0000
# 6 -0.8443 0.8443 0.0000 0.0000 0.0000 42.3439
#
#
#
# Elastic Compliance Matrix: (Units=1/GPa)
#
#
# Indices 1 2 3 4 5 6 
#
# 1 0.025209 -0.013352 -0.005296 0.000000 0.000000 0.000769
# 2 -0.013352 0.025209 -0.005296 0.000000 0.000000 -0.000769
# 3 -0.005296 -0.005296 0.018609 0.000000 0.000000 0.000000
# 4 0.000000 0.000000 0.000000 0.029276 0.000000 0.000000
# 5 0.000000 0.000000 0.000000 0.000000 0.029276 0.000000
# 6 0.000769 -0.000769 0.000000 0.000000 0.000000 0.023647
#
#
# Mechanical properties :
#
#
# Convention : Reuss Voigt Hill
#
# Bulk Modulus (GPa) = 47.31135 47.44687 47.37911
# Shear Modulus (GPa) = 24.25299 29.01071 26.63185
#
# Velocity S-wave (km/s) = 3.55827 3.89167 3.72870
# Velocity P-wave (km/s) = 6.44831 6.70546 6.57814
#
# Compressibility (1/GPa) = 0.02113658
#
# Stress axis : x y z
#
# Youngs Moduli (GPa) = 39.66892 39.66892 53.73692
#
# Poissons Ratio (x) = 0.52967 0.28461
# Poissons Ratio (y) = 0.52967 0.28461
# Poissons Ratio (z) = 0.21010 0.21010
#
# Static dielectric constant tensor:
#      x y z
#    x 3.449150 0.000000 0.000000 
#    y 0.000000 3.449150 0.000000 
#    z 0.000000 0.000000 3.355080 
# 
# 
# High freq. dielectric constant tensor:
#      x y z
#    x 1.748650 0.000000 0.000000 
#    y 0.000000 1.748650 0.000000 
#    z 0.000000 0.000000 1.744230 
# 
# From -- ./inp_files/3421.got.cif
#   From: 2010.03.12/outbox.cif.g09.slc.cpg/sg83_2_cif.got.tgz:3421.got - 2010.04.08 20:05:18.
