data_PCOD8302652
_publ_section_title
;
Structure prediction by ZEFSAII (Michael W. Deem and Ramdas Pophale) SiO2 
 PCOD8302652
Probable space group: P 4/M
;
_chemical_formula_sum "Si O2"
_cell_formula_units_Z 64
_cell_length_a 21.447892
_cell_length_b 21.447892
_cell_length_c 9.239484
_cell_angle_alpha 90.000000
_cell_angle_beta 90.000000
_cell_angle_gamma 90.000000
_cell_volume 4250.274172
_symmetry_space_group_name_H-M "P 4/M"
_symmetry_group_IT_number 83
_symmetry_cell_setting 'tetragonal'
loop_
_space_group_symop_operation_xyz
x,y,z
-y,x,z
-x,-y,z
y,-x,z
-x,-y,-z
y,-x,-z
x,y,-z
-y,x,-z
loop_
_atom_site_type_symbol
_atom_site_label
_atom_site_fract_x
_atom_site_fract_y
_atom_site_fract_z
Si Si1 0.156208 0.439071 0.833456
Si Si2 0.656193 0.069632 0.667446
Si Si3 0.170424 0.566251 0.331998
Si Si4 0.648464 0.745426 0.159692
Si Si5 0.753095 0.663782 0.164498
Si Si6 0.756113 0.164705 0.665891
Si Si7 0.759382 0.844612 0.837121
Si Si8 0.071881 0.672959 0.667583
O O1 0.104331 0.392915 0.769375
O O2 0.154839 0.502824 0.747489
O O3 0.225595 0.408243 0.819730
O O4 0.139353 0.452228 0.000000
O O5 0.635483 0.077652 0.500000
O O6 0.727031 0.095662 0.688333
O O7 0.656350 0.997873 0.715078
O O8 0.178698 0.552549 0.500000
O O9 0.235488 0.595755 0.274423
O O10 0.114004 0.612915 0.297682
O O11 0.678443 0.676255 0.188581
O O12 0.707411 0.791248 0.170324
O O13 0.617979 0.749019 0.000000
O O14 0.789225 0.701130 0.287303
O O15 0.770420 0.686791 0.000000
O O16 0.773424 0.177850 0.500000
O O17 0.818373 0.177799 0.759918
O O18 0.733287 0.905517 0.756285
O O19 0.776547 0.863540 0.000000
O O20 0.075851 0.690948 0.500000
#
# Coordination Sequence:
#
# PCOD8302652 Si02
#       8
#     8   8   8   8   8   8   8   8
#     4  10  19  30  43  59  82 112 143 173 205 242
#     4   9  18  31  44  59  81 110 143 177 208 240
#     4  10  19  29  41  58  81 110 142 173 204 238
#     4   8  14  26  42  58  76  98 127 165 207 246
#     4   8  15  27  42  59  78 101 130 167 209 247
#     4   9  15  24  41  61  79 101 130 165 208 251
#     4   9  16  26  41  60  81 103 130 167 209 249
#     4   9  18  31  44  58  80 111 145 177 207 239
#
# _framework density 15.057853
#
# number of rings (size 3 to 8) (size 9 to 14) (size 15 to 20)
#    0.000    3.000    0.000    2.250    0.000    5.500 
#    0.000    2.500    0.000    0.000    0.000    0.000 
#    0.000    1.000    0.000   11.500    0.000    5.000 
#
# Total GULP energy -793041.127130 kJ/mol
# GULP energy per Si atom -12391.267611 kJ/mol
# Density = 1.502358 g / cm^3
# Si number density = 15.057853 Si / 1000 Ang^3
#
#
#
# Elastic Constant Matrix: (Units=GPa)
#
#
# Indices 1 2 3 4 5 6 
#
# 1 55.0552 55.2120 47.8722 0.0000 0.0000 -0.4273
# 2 55.2120 55.0552 47.8722 0.0000 0.0000 0.4273
# 3 47.8722 47.8722 99.0121 0.0000 0.0000 0.0000
# 4 0.0000 0.0000 0.0000 20.9248 0.0000 0.0000
# 5 0.0000 0.0000 0.0000 0.0000 20.9248 0.0000
# 6 -0.4273 0.4273 0.0000 0.0000 0.0000 14.5178
#
#
#
# Elastic Compliance Matrix: (Units=1/GPa)
#
#
# Indices 1 2 3 4 5 6 
#
# 1 -2.740121 2.755753 -0.007558 0.000000 0.000000 -0.161764
# 2 2.755753 -2.740121 -0.007558 0.000000 0.000000 0.161764
# 3 -0.007558 -0.007558 0.017408 0.000000 0.000000 0.000000
# 4 0.000000 0.000000 0.000000 0.047790 0.000000 0.000000
# 5 0.000000 0.000000 0.000000 0.000000 0.047790 0.000000
# 6 -0.161764 0.161764 0.000000 0.000000 0.000000 0.059358
#
#
# Mechanical properties :
#
#
# Convention : Reuss Voigt Hill
#
# Bulk Modulus (GPa) = 54.23079 56.78173 55.50626
# Shear Modulus (GPa) = -0.46369 15.15123 7.34377
#
# Velocity S-wave (km/s) = -0.55553 3.17551 2.21080
# Velocity P-wave (km/s) = 5.97341 7.15794 6.59233
#
# Compressibility (1/GPa) = 0.01843971
#
# Stress axis : x y z
#
# Youngs Moduli (GPa) = -0.36495 -0.36495 57.44490
#
# Poissons Ratio (x) = 1.00570 0.43415
# Poissons Ratio (y) = 1.00570 0.43415
# Poissons Ratio (z) = -0.00276 -0.00276
#
# Static dielectric constant tensor:
#      x y z
#    x 2.871540 0.000000 0.000000 
#    y 0.000000 2.871540 0.000000 
#    z 0.000000 0.000000 3.044540 
# 
# 
# High freq. dielectric constant tensor:
#      x y z
#    x 1.547530 0.000000 0.000000 
#    y 0.000000 1.547530 0.000000 
#    z 0.000000 0.000000 1.592230 
# 
# From -- ./inp_files/1299.got.cif
#   From: 2010.03.12/outbox.cif.g09.slc.cpg/sg83_1_cif.got.tgz:1299.got - 2010.04.08 20:05:18.
