data_PCOD8302049
_publ_section_title
;
Structure prediction by ZEFSAII (Michael W. Deem and Ramdas Pophale) SiO2 
 PCOD8302049
Probable space group: P 43
;
_chemical_formula_sum "Si O2"
_cell_formula_units_Z 28
_cell_length_a 11.941042
_cell_length_b 11.941042
_cell_length_c 8.991349
_cell_angle_alpha 90.000000
_cell_angle_beta 90.000000
_cell_angle_gamma 90.000000
_cell_volume 1282.062823
_symmetry_space_group_name_H-M "P 43"
_symmetry_group_IT_number 78
_symmetry_cell_setting 'tetragonal'
loop_
_space_group_symop_operation_xyz
x,y,z
-y,x,3/4+z
-x,-y,1/2+z
y,-x,1/4+z
loop_
_atom_site_type_symbol
_atom_site_label
_atom_site_fract_x
_atom_site_fract_y
_atom_site_fract_z
Si Si1 0.053548 0.884989 0.050700
Si Si2 0.875474 0.747534 0.520596
Si Si3 0.044139 0.642507 0.108787
Si Si4 0.295548 0.109861 0.187723
Si Si5 0.591437 0.565824 0.091444
Si Si6 0.832008 0.502634 0.112875
Si Si7 0.790328 0.503544 0.444577
O O1 0.176112 0.876166 0.123817
O O2 0.022268 0.756523 0.016149
O O3 0.960406 0.942051 0.154982
O O4 0.814036 0.813534 0.656018
O O5 0.808690 0.632879 0.489269
O O6 0.007651 0.727879 0.554335
O O7 0.051418 0.664276 0.284950
O O8 0.942426 0.564547 0.058651
O O9 0.157892 0.579623 0.065620
O O10 0.391167 0.185459 0.263533
O O11 0.564389 0.448166 0.171355
O O12 0.725211 0.584260 0.090528
O O13 0.525280 0.659180 0.186611
O O14 0.845909 0.473604 0.286289
#
# Coordination Sequence:
#
# PCOD8302049 Si02
#       7
#     4   4   4   4   4   4   4
#     4  11  23  43  65  97 133 177 224 278 342 407
#     4  11  21  43  69 100 130 186 221 287 333 419
#     4  11  22  41  73  95 129 181 226 271 345 413
#     4  11  24  41  74  96 141 179 235 274 348 412
#     4  10  26  42  64  91 137 170 223 274 336 402
#     4  11  22  46  61 103 133 174 224 290 326 412
#     4  11  24  42  68  96 135 173 225 280 346 399
#
# _framework density 21.839803
#
# number of rings (size 3 to 8) (size 9 to 14) (size 15 to 20)
#    0.000    1.143    5.714    0.000   12.000    0.000 
#    5.143    0.000    0.000    0.000    0.000    0.000 
#    0.000    0.000    0.000    0.000    0.000    0.000 
#
# Total GULP energy -347153.561373 kJ/mol
# GULP energy per Si atom -12398.341478 kJ/mol
# Density = 2.179009 g / cm^3
# Si number density = 21.839803 Si / 1000 Ang^3
#
#
#
# Elastic Constant Matrix: (Units=GPa)
#
#
# Indices 1 2 3 4 5 6 
#
# 1 123.1523 32.0606 28.1894 0.0000 0.0000 -3.2622
# 2 32.0606 123.1523 28.1894 0.0000 0.0000 3.2622
# 3 28.1894 28.1894 31.5610 0.0000 0.0000 0.0000
# 4 0.0000 0.0000 0.0000 28.0862 0.0000 0.0000
# 5 0.0000 0.0000 0.0000 0.0000 28.0862 0.0000
# 6 -3.2622 3.2622 0.0000 0.0000 0.0000 35.4415
#
#
#
# Elastic Compliance Matrix: (Units=1/GPa)
#
#
# Indices 1 2 3 4 5 6 
#
# 1 0.010294 -0.000757 -0.008518 0.000000 0.000000 0.001017
# 2 -0.000757 0.010294 -0.008518 0.000000 0.000000 -0.001017
# 3 -0.008518 -0.008518 0.046901 0.000000 0.000000 0.000000
# 4 0.000000 0.000000 0.000000 0.035605 0.000000 0.000000
# 5 0.000000 0.000000 0.000000 0.000000 0.035605 0.000000
# 6 0.001017 -0.001017 0.000000 0.000000 0.000000 0.028403
#
#
# Mechanical properties :
#
#
# Convention : Reuss Voigt Hill
#
# Bulk Modulus (GPa) = 31.34565 50.52714 40.93640
# Shear Modulus (GPa) = 23.43890 30.95119 27.19504
#
# Velocity S-wave (km/s) = 3.27956 3.76864 3.53258
# Velocity P-wave (km/s) = 5.35951 6.49018 5.95176
#
# Compressibility (1/GPa) = 0.03190235
#
# Stress axis : x y z
#
# Youngs Moduli (GPa) = 97.14585 97.14585 21.32163
#
# Poissons Ratio (x) = 0.07354 0.18162
# Poissons Ratio (y) = 0.07354 0.18162
# Poissons Ratio (z) = 0.82749 0.82749
#
# Static dielectric constant tensor:
#      x y z
#    x 4.171090 0.000000 0.000000 
#    y 0.000000 4.171090 0.000000 
#    z 0.000000 0.000000 3.629510 
# 
# 
# High freq. dielectric constant tensor:
#      x y z
#    x 1.868530 0.000000 0.000000 
#    y 0.000000 1.868530 0.000000 
#    z 0.000000 0.000000 1.829280 
# 
# From -- ./inp_files/631.got.cif
#   From: 2010.03.12/outbox.cif.g09.slc.cpg/sg78_cif.got.tgz:631.got - 2010.04.16 16:37:20.
