data_PCOD8302134
_publ_section_title
;
Structure prediction by ZEFSAII (Michael W. Deem and Ramdas Pophale) SiO2 
 PCOD8302134
Probable space group: I 4
;
_chemical_formula_sum "Si O2"
_cell_formula_units_Z 48
_cell_length_a 11.477881
_cell_length_b 11.477881
_cell_length_c 16.110922
_cell_angle_alpha 90.000000
_cell_angle_beta 90.000000
_cell_angle_gamma 90.000000
_cell_volume 2122.481095
_symmetry_space_group_name_H-M "I 4"
_symmetry_group_IT_number 79
_symmetry_cell_setting 'tetragonal'
loop_
_space_group_symop_operation_xyz
x,y,z
-y,x,z
-x,-y,z
y,-x,z
1/2+x,1/2+y,1/2+z
1/2-y,1/2+x,1/2+z
1/2-x,1/2-y,1/2+z
1/2+y,1/2-x,1/2+z
loop_
_atom_site_type_symbol
_atom_site_label
_atom_site_fract_x
_atom_site_fract_y
_atom_site_fract_z
Si Si1 0.042973 0.818753 0.705370
Si Si2 0.433453 0.117073 0.919239
Si Si3 0.055383 0.180100 0.097423
Si Si4 0.944618 0.180100 0.900670
Si Si5 0.882927 0.566546 0.078855
Si Si6 0.042974 0.181247 0.292724
O O1 0.054971 0.797150 0.802692
O O2 0.067655 0.701425 0.656929
O O3 0.914854 0.862013 0.679953
O O4 0.300096 0.090672 0.945194
O O5 0.432343 0.201425 0.841165
O O6 0.500000 0.000000 0.892228
O O7 0.500000 0.172004 0.999047
O O8 0.090674 0.300095 0.052900
O O9 0.054972 0.202850 0.195402
O O10 0.923831 0.143812 0.070937
O O11 0.076170 0.143812 0.927157
O O12 0.000000 0.500000 0.105865
O O13 0.914854 0.137988 0.318141
#
# Coordination Sequence:
#
# PCOD8302134 Si02
#       6
#     8   8   8   8   8   8
#     4   9  20  40  67  98 126 166 221 274 329 388
#     4  11  25  41  57  95 136 174 213 265 329 398
#     4   9  20  42  71  97 124 167 225 277 322 383
#     4   9  20  42  71  97 124 167 225 277 322 383
#     4  11  25  41  57  95 136 174 213 265 329 398
#     4   9  20  40  67  98 126 166 221 274 329 388
#
# _framework density 22.615041000000002
#
# number of rings (size 3 to 8) (size 9 to 14) (size 15 to 20)
#    0.000    2.333    0.000    3.000    4.667    4.000 
#    6.000    1.667    0.000    8.000    0.000    0.000 
#    0.000    0.000    0.000    0.000    0.000    0.000 
#
# Total GULP energy -297602.655423 kJ/mol
# GULP energy per Si atom -12400.110643 kJ/mol
# Density = 2.256357 g / cm^3
# Si number density = 22.615041 Si / 1000 Ang^3
#
#
#
# Elastic Constant Matrix: (Units=GPa)
#
#
# Indices 1 2 3 4 5 6 
#
# 1 140.2773 31.9265 21.3113 0.0000 0.0000 -0.0002
# 2 31.9265 140.2773 21.3113 0.0000 0.0000 0.0002
# 3 21.3113 21.3113 39.1205 0.0000 0.0000 0.0000
# 4 0.0000 0.0000 0.0000 36.0957 0.0000 0.0000
# 5 0.0000 0.0000 0.0000 0.0000 36.0957 0.0000
# 6 -0.0002 0.0002 0.0000 0.0000 0.0000 19.7868
#
#
#
# Elastic Compliance Matrix: (Units=1/GPa)
#
#
# Indices 1 2 3 4 5 6 
#
# 1 0.007971 -0.001259 -0.003656 0.000000 0.000000 0.000000
# 2 -0.001259 0.007971 -0.003656 0.000000 0.000000 0.000000
# 3 -0.003656 -0.003656 0.029546 0.000000 0.000000 0.000000
# 4 0.000000 0.000000 0.000000 0.027704 0.000000 0.000000
# 5 0.000000 0.000000 0.000000 0.000000 0.027704 0.000000
# 6 0.000000 0.000000 0.000000 0.000000 0.000000 0.050539
#
#
# Mechanical properties :
#
#
# Convention : Reuss Voigt Hill
#
# Bulk Modulus (GPa) = 35.28071 52.08593 43.68332
# Shear Modulus (GPa) = 28.08589 34.73737 31.41163
#
# Velocity S-wave (km/s) = 3.52790 3.92347 3.73093
# Velocity P-wave (km/s) = 5.67708 6.60351 6.15774
#
# Compressibility (1/GPa) = 0.02834410
#
# Stress axis : x y z
#
# Youngs Moduli (GPa) = 125.45968 125.45969 33.84573
#
# Poissons Ratio (x) = 0.15790 0.12376
# Poissons Ratio (y) = 0.15790 0.12376
# Poissons Ratio (z) = 0.45874 0.45874
#
# Static dielectric constant tensor:
#      x y z
#    x 4.176760 0.000000 0.000000 
#    y 0.000000 4.176760 0.000000 
#    z 0.000000 0.000000 4.067140 
# 
# 
# High freq. dielectric constant tensor:
#      x y z
#    x 1.894410 0.000000 0.000000 
#    y 0.000000 1.894410 0.000000 
#    z 0.000000 0.000000 1.908550 
# 
# From -- ./inp_files/1562.got.cif
#   From: 2010.03.12/outbox.cif.g09.slc.cpg/sg79_cif.got.tgz:1562.got - 2010.04.16 16:38:49.
