data_PCOD8302304
_publ_section_title
;
Structure prediction by ZEFSAII (Michael W. Deem and Ramdas Pophale) SiO2 
 PCOD8302304
Probable space group: P -4
;
_chemical_formula_sum "Si O2"
_cell_formula_units_Z 32
_cell_length_a 11.596567
_cell_length_b 11.596567
_cell_length_c 11.497979
_cell_angle_alpha 90.000000
_cell_angle_beta 90.000000
_cell_angle_gamma 90.000000
_cell_volume 1546.252426
_symmetry_space_group_name_H-M "P -4"
_symmetry_group_IT_number 81
_symmetry_cell_setting 'tetragonal'
loop_
_space_group_symop_operation_xyz
x,y,z
y,-x,-z
-x,-y,z
-y,x,-z
loop_
_atom_site_type_symbol
_atom_site_label
_atom_site_fract_x
_atom_site_fract_y
_atom_site_fract_z
Si Si1 0.114341 0.176835 0.645468
Si Si2 0.586902 0.910137 0.510835
Si Si3 0.321284 0.492890 0.525327
Si Si4 0.737911 0.876801 0.291753
Si Si5 0.534600 0.871565 0.108218
Si Si6 0.444649 0.336859 0.954219
Si Si7 0.271607 0.360526 0.753676
Si Si8 0.231983 0.948594 0.615823
O O1 0.225354 0.240590 0.701368
O O2 0.100281 0.220493 0.514168
O O3 0.002107 0.204140 0.721969
O O4 0.131714 0.039606 0.646049
O O5 0.519069 0.794447 0.550299
O O6 0.679205 0.867883 0.417580
O O7 0.500000 0.000000 0.448742
O O8 0.646860 0.979256 0.618824
O O9 0.395867 0.608658 0.543661
O O10 0.293775 0.452785 0.654028
O O11 0.646524 0.860214 0.190266
O O12 0.841314 0.780228 0.293759
O O13 0.418340 0.825200 0.166810
O O14 0.500000 0.000000 0.069619
O O15 0.565862 0.795074 0.996220
O O16 0.389732 0.341838 0.825632
O O17 0.377087 0.421403 0.045384
#
# Coordination Sequence:
#
# PCOD8302304 Si02
#       8
#     4   4   4   4   4   4   4   4
#     4  11  20  35  58  90 125 170 222 246 315 386
#     4  11  22  34  54  83 129 169 219 264 314 375
#     4  11  24  37  57  91 129 173 220 265 312 390
#     4  11  21  34  59  92 122 165 215 266 310 391
#     4  11  21  40  68 100 118 164 221 279 334 396
#     4   9  22  44  69  93 121 161 214 280 341 402
#     4  11  22  40  66  91 129 172 213 271 334 389
#     4  11  22  34  56  88 131 177 207 261 303 392
#
# _framework density 20.695195999999999
#
# number of rings (size 3 to 8) (size 9 to 14) (size 15 to 20)
#    0.000    1.250    5.000    3.000    1.750    4.000 
#    0.000    3.750    0.000    0.750    0.000    0.000 
#    0.000    0.000    0.000    0.000    0.000    0.000 
#
# Total GULP energy -396594.812548 kJ/mol
# GULP energy per Si atom -12393.587892 kJ/mol
# Density = 2.064809 g / cm^3
# Si number density = 20.695196 Si / 1000 Ang^3
#
#
#
# Elastic Constant Matrix: (Units=GPa)
#
#
# Indices 1 2 3 4 5 6 
#
# 1 125.8523 49.4322 27.0243 0.0000 0.0000 -4.9239
# 2 49.4322 125.8523 27.0243 0.0000 0.0000 4.9239
# 3 27.0243 27.0243 31.3025 0.0000 0.0000 0.0000
# 4 0.0000 0.0000 0.0000 24.4442 0.0000 0.0000
# 5 0.0000 0.0000 0.0000 0.0000 24.4442 0.0000
# 6 -4.9239 4.9239 0.0000 0.0000 0.0000 42.2073
#
#
#
# Elastic Compliance Matrix: (Units=1/GPa)
#
#
# Indices 1 2 3 4 5 6 
#
# 1 0.010530 -0.002755 -0.006712 0.000000 0.000000 0.001550
# 2 -0.002755 0.010530 -0.006712 0.000000 0.000000 -0.001550
# 3 -0.006712 -0.006712 0.043536 0.000000 0.000000 0.000000
# 4 0.000000 0.000000 0.000000 0.040910 0.000000 0.000000
# 5 0.000000 0.000000 0.000000 0.000000 0.040910 0.000000
# 6 0.001550 -0.001550 0.000000 0.000000 0.000000 0.024054
#
#
# Mechanical properties :
#
#
# Convention : Reuss Voigt Hill
#
# Bulk Modulus (GPa) = 31.02044 54.44098 42.73071
# Shear Modulus (GPa) = 23.41112 30.18755 26.79933
#
# Velocity S-wave (km/s) = 3.36703 3.82340 3.60245
# Velocity P-wave (km/s) = 5.48977 6.77159 6.16409
#
# Compressibility (1/GPa) = 0.03223681
#
# Stress axis : x y z
#
# Youngs Moduli (GPa) = 94.96697 94.96697 22.96955
#
# Poissons Ratio (x) = 0.26166 0.15417
# Poissons Ratio (y) = 0.26166 0.15417
# Poissons Ratio (z) = 0.63743 0.63743
#
# Static dielectric constant tensor:
#      x y z
#    x 4.122420 0.000000 0.000000 
#    y 0.000000 4.122420 0.000000 
#    z 0.000000 0.000000 3.210360 
# 
# 
# High freq. dielectric constant tensor:
#      x y z
#    x 1.826820 0.000000 0.000000 
#    y 0.000000 1.826820 0.000000 
#    z 0.000000 0.000000 1.742120 
# 
# From -- ./inp_files/1456.got.cif
#   From: 2010.03.12/outbox.cif.g09.slc.cpg/sg81_cif.got.tgz:1456.got - 2010.04.08 20:01:38.
