data_PCOD8302298
_publ_section_title
;
Structure prediction by ZEFSAII (Michael W. Deem and Ramdas Pophale) SiO2 
 PCOD8302298
Probable space group: P -4
;
_chemical_formula_sum "Si O2"
_cell_formula_units_Z 16
_cell_length_a 8.409721
_cell_length_b 8.409721
_cell_length_c 9.149601
_cell_angle_alpha 90.000000
_cell_angle_beta 90.000000
_cell_angle_gamma 90.000000
_cell_volume 647.090958
_symmetry_space_group_name_H-M "P -4"
_symmetry_group_IT_number 81
_symmetry_cell_setting 'tetragonal'
loop_
_space_group_symop_operation_xyz
x,y,z
y,-x,-z
-x,-y,z
-y,x,-z
loop_
_atom_site_type_symbol
_atom_site_label
_atom_site_fract_x
_atom_site_fract_y
_atom_site_fract_z
Si Si1 0.666913 0.410791 0.848158
Si Si2 0.687426 0.235059 0.337123
Si Si3 0.560125 0.166314 0.630992
Si Si4 0.193882 0.151337 0.945660
O O1 0.500000 0.500000 0.877669
O O2 0.782235 0.531848 0.764956
O O3 0.665170 0.250624 0.752894
O O4 0.745017 0.348466 0.000980
O O5 0.659860 0.129469 0.482145
O O6 0.715372 0.412307 0.400789
O O7 0.833168 0.181617 0.232017
O O8 0.500000 0.000000 0.696240
O O9 0.032569 0.218565 0.016839
#
# Coordination Sequence:
#
# PCOD8302298 Si02
#       4
#     4   4   4   4
#     4  10  24  43  67  99 139 183 237 287 350 415
#     4  11  24  42  68 100 141 179 237 293 345 426
#     4  11  23  42  68 105 137 182 230 298 357 416
#     4  11  27  48  70 104 146 189 233 292 361 433
#
# _framework density 24.726046
#
# number of rings (size 3 to 8) (size 9 to 14) (size 15 to 20)
#    0.000    1.250    2.500    1.500   10.500    0.000 
#    0.000    0.000    0.000    3.000    0.000    0.000 
#    0.000    0.000    0.000    0.000    0.000    0.000 
#
# Total GULP energy -198340.483831 kJ/mol
# GULP energy per Si atom -12396.280239 kJ/mol
# Density = 2.466977 g / cm^3
# Si number density = 24.726046 Si / 1000 Ang^3
#
#
#
# Elastic Constant Matrix: (Units=GPa)
#
#
# Indices 1 2 3 4 5 6 
#
# 1 86.7300 0.6734 22.1100 0.0000 0.0000 -6.0296
# 2 0.6734 86.7300 22.1100 0.0000 0.0000 6.0296
# 3 22.1100 22.1100 136.6718 0.0000 0.0000 0.0000
# 4 0.0000 0.0000 0.0000 35.4221 0.0000 0.0000
# 5 0.0000 0.0000 0.0000 0.0000 35.4221 0.0000
# 6 -6.0296 6.0296 0.0000 0.0000 0.0000 35.6705
#
#
#
# Elastic Compliance Matrix: (Units=1/GPa)
#
#
# Indices 1 2 3 4 5 6 
#
# 1 0.012182 0.000279 -0.002016 0.000000 0.000000 0.002012
# 2 0.000279 0.012182 -0.002016 0.000000 0.000000 -0.002012
# 3 -0.002016 -0.002016 0.007969 0.000000 0.000000 0.000000
# 4 0.000000 0.000000 0.000000 0.028231 0.000000 0.000000
# 5 0.000000 0.000000 0.000000 0.000000 0.028231 0.000000
# 6 0.002012 -0.002012 0.000000 0.000000 0.000000 0.028715
#
#
# Mechanical properties :
#
#
# Convention : Reuss Voigt Hill
#
# Bulk Modulus (GPa) = 40.27763 44.43542 42.35653
# Shear Modulus (GPa) = 37.51238 38.98550 38.24894
#
# Velocity S-wave (km/s) = 3.89925 3.97507 3.93734
# Velocity P-wave (km/s) = 6.04955 6.25127 6.15124
#
# Compressibility (1/GPa) = 0.02482768
#
# Stress axis : x y z
#
# Youngs Moduli (GPa) = 82.09075 82.09075 125.48567
#
# Poissons Ratio (x) = -0.02294 0.25297
# Poissons Ratio (y) = -0.02294 0.25297
# Poissons Ratio (z) = 0.16549 0.16549
#
# Static dielectric constant tensor:
#      x y z
#    x 4.229160 0.000000 0.000000 
#    y 0.000000 4.229160 0.000000 
#    z 0.000000 0.000000 4.547620 
# 
# 
# High freq. dielectric constant tensor:
#      x y z
#    x 1.968080 0.000000 0.000000 
#    y 0.000000 1.968080 0.000000 
#    z 0.000000 0.000000 2.000340 
# 
# From -- ./inp_files/586.got.cif
#   From: 2010.03.12/outbox.cif.g09.slc.cpg/sg81_cif.got.tgz:586.got - 2010.04.08 20:01:38.
