data_PCOD8302094
_publ_section_title
;
Structure prediction by ZEFSAII (Michael W. Deem and Ramdas Pophale) SiO2 
 PCOD8302094
Probable space group: I 4
;
_chemical_formula_sum "Si O2"
_cell_formula_units_Z 48
_cell_length_a 11.528848
_cell_length_b 11.528848
_cell_length_c 17.087955
_cell_angle_alpha 90.000000
_cell_angle_beta 90.000000
_cell_angle_gamma 90.000000
_cell_volume 2271.234196
_symmetry_space_group_name_H-M "I 4"
_symmetry_group_IT_number 79
_symmetry_cell_setting 'tetragonal'
loop_
_space_group_symop_operation_xyz
x,y,z
-y,x,z
-x,-y,z
y,-x,z
1/2+x,1/2+y,1/2+z
1/2-y,1/2+x,1/2+z
1/2-x,1/2-y,1/2+z
1/2+y,1/2-x,1/2+z
loop_
_atom_site_type_symbol
_atom_site_label
_atom_site_fract_x
_atom_site_fract_y
_atom_site_fract_z
Si Si1 0.136208 0.311638 0.456900
Si Si2 0.317758 0.444543 0.181736
Si Si3 0.729345 0.898840 0.507412
Si Si4 0.600776 0.905045 0.796907
Si Si5 0.522828 0.690782 0.715308
Si Si6 0.502040 0.126880 0.582002
O O1 0.228467 0.209526 0.457129
O O2 0.155365 0.399190 0.384072
O O3 0.148989 0.375815 0.540444
O O4 0.010577 0.250536 0.453241
O O5 0.423565 0.356764 0.199890
O O6 0.288108 0.420136 0.091558
O O7 0.204799 0.421500 0.234805
O O8 0.592339 0.879652 0.513948
O O9 0.539287 0.779815 0.786198
O O10 0.500000 0.000000 0.789878
O O11 0.399694 0.627917 0.717966
O O12 0.529073 0.766995 0.637184
O O13 0.500000 0.000000 0.626551
#
# Coordination Sequence:
#
# PCOD8302094 Si02
#       6
#     8   8   8   8   8   8
#     4  11  26  41  66 100 136 174 230 281 350 409
#     4  11  25  45  74 107 134 176 237 293 347 409
#     4  11  21  41  69  96 131 178 223 288 333 411
#     4  12  28  44  70 101 143 185 224 287 355 423
#     4  11  25  41  63  98 136 178 228 280 342 415
#     4  10  21  39  66  96 128 174 231 275 335 411
#
# _framework density 21.133886
#
# number of rings (size 3 to 8) (size 9 to 14) (size 15 to 20)
#    0.000    1.000    3.333    3.000    7.000    1.667 
#    0.000    0.000    0.000    2.000    0.000    0.000 
#    0.000    0.000    0.000    0.000    0.000    0.000 
#
# Total GULP energy -297505.631993 kJ/mol
# GULP energy per Si atom -12396.068000 kJ/mol
# Density = 2.108578 g / cm^3
# Si number density = 21.133886 Si / 1000 Ang^3
#
#
#
# Elastic Constant Matrix: (Units=GPa)
#
#
# Indices 1 2 3 4 5 6 
#
# 1 119.8758 58.3922 21.7515 0.0000 0.0000 -0.4791
# 2 58.3922 119.8758 21.7515 0.0000 0.0000 0.4791
# 3 21.7515 21.7515 82.3946 0.0000 0.0000 0.0000
# 4 0.0000 0.0000 0.0000 22.9676 0.0000 0.0000
# 5 0.0000 0.0000 0.0000 0.0000 22.9676 0.0000
# 6 -0.4791 0.4791 0.0000 0.0000 0.0000 35.8804
#
#
#
# Elastic Compliance Matrix: (Units=1/GPa)
#
#
# Indices 1 2 3 4 5 6 
#
# 1 0.011132 -0.005136 -0.001583 0.000000 0.000000 0.000217
# 2 -0.005136 0.011132 -0.001583 0.000000 0.000000 -0.000217
# 3 -0.001583 -0.001583 0.012972 0.000000 0.000000 0.000000
# 4 0.000000 0.000000 0.000000 0.043540 0.000000 0.000000
# 5 0.000000 0.000000 0.000000 0.000000 0.043540 0.000000
# 6 0.000217 -0.000217 0.000000 0.000000 0.000000 0.027876
#
#
# Mechanical properties :
#
#
# Convention : Reuss Voigt Hill
#
# Bulk Modulus (GPa) = 53.66920 58.43740 56.05330
# Shear Modulus (GPa) = 28.90074 31.04650 29.97362
#
# Velocity S-wave (km/s) = 3.70199 3.83696 3.77008
# Velocity P-wave (km/s) = 6.61234 6.88046 6.74773
#
# Compressibility (1/GPa) = 0.01863266
#
# Stress axis : x y z
#
# Youngs Moduli (GPa) = 89.83234 89.83234 77.08649
#
# Poissons Ratio (x) = 0.46138 0.12202
# Poissons Ratio (y) = 0.46138 0.12202
# Poissons Ratio (z) = 0.14219 0.14219
#
# Static dielectric constant tensor:
#      x y z
#    x 4.049520 0.000000 0.000000 
#    y 0.000000 4.049520 0.000000 
#    z 0.000000 0.000000 3.651510 
# 
# 
# High freq. dielectric constant tensor:
#      x y z
#    x 1.838280 0.000000 0.000000 
#    y 0.000000 1.838280 0.000000 
#    z 0.000000 0.000000 1.818690 
# 
# From -- ./inp_files/1559.got.cif
#   From: 2010.03.12/outbox.cif.g09.slc.cpg/sg79_cif.got.tgz:1559.got - 2010.04.16 16:38:49.
