data_PCOD8302725
_publ_section_title
;
Structure prediction by ZEFSAII (Michael W. Deem and Ramdas Pophale) SiO2 
 PCOD8302725
Probable space group: P 4/M
;
_chemical_formula_sum "Si O2"
_cell_formula_units_Z 64
_cell_length_a 19.195942
_cell_length_b 19.195942
_cell_length_c 9.077130
_cell_angle_alpha 90.000000
_cell_angle_beta 90.000000
_cell_angle_gamma 90.000000
_cell_volume 3344.778889
_symmetry_space_group_name_H-M "P 4/M"
_symmetry_group_IT_number 83
_symmetry_cell_setting 'tetragonal'
loop_
_space_group_symop_operation_xyz
x,y,z
-y,x,z
-x,-y,z
y,-x,z
-x,-y,-z
y,-x,-z
x,y,-z
-y,x,-z
loop_
_atom_site_type_symbol
_atom_site_label
_atom_site_fract_x
_atom_site_fract_y
_atom_site_fract_z
Si Si1 0.790286 0.092986 0.827923
Si Si2 0.792484 0.424279 0.168606
Si Si3 0.291984 0.289216 0.170417
Si Si4 0.077448 0.352704 0.324694
Si Si5 0.646133 0.918464 0.328700
Si Si6 0.202256 0.420006 0.829185
Si Si7 0.010083 0.112680 0.665327
Si Si8 0.834114 0.220597 0.328730
O O1 0.717985 0.105173 0.746774
O O2 0.823752 0.018902 0.779965
O O3 0.844251 0.151917 0.770286
O O4 0.778157 0.096942 0.000000
O O5 0.725313 0.374363 0.199790
O O6 0.862983 0.404516 0.253573
O O7 0.769643 0.502793 0.208942
O O8 0.814566 0.418239 0.000000
O O9 0.266214 0.367386 0.208908
O O10 0.253135 0.239117 0.282564
O O11 0.273251 0.271371 0.000000
O O12 0.081141 0.347635 0.500000
O O13 0.131682 0.410073 0.265920
O O14 0.997659 0.367928 0.272978
O O15 0.629631 0.913499 0.500000
O O16 0.726498 0.897680 0.296366
O O17 0.181421 0.412536 0.000000
O O18 0.012223 0.143287 0.500000
O O19 0.938821 0.074166 0.692905
O O20 0.831966 0.199836 0.500000
#
# Coordination Sequence:
#
# PCOD8302725 Si02
#       8
#     8   8   8   8   8   8   8   8
#     4  12  24  35  50  77 106 136 175 224 282 336
#     4   9  19  35  57  83 111 149 187 223 277 332
#     4   9  17  33  55  79 109 143 181 225 268 319
#     4  11  23  38  55  78 108 146 188 230 281 331
#     4   9  21  38  55  78 108 142 184 229 269 321
#     4  10  20  35  56  83 114 146 184 231 279 329
#     4   9  20  39  58  73  95 133 179 226 278 336
#     4  10  19  34  55  76 100 136 181 227 272 320
#
# _framework density 19.134298999999999
#
# number of rings (size 3 to 8) (size 9 to 14) (size 15 to 20)
#    0.000    2.125    1.250    2.250    1.750    3.000 
#    0.000    3.125    0.000    0.375    0.000    2.625 
#    0.000    0.000    0.000    7.375    0.000    7.750 
#
# Total GULP energy -793169.932404 kJ/mol
# GULP energy per Si atom -12393.280194 kJ/mol
# Density = 1.909075 g / cm^3
# Si number density = 19.134299 Si / 1000 Ang^3
#
#
#
# Elastic Constant Matrix: (Units=GPa)
#
#
# Indices 1 2 3 4 5 6 
#
# 1 92.8733 70.8240 37.0704 0.0000 0.0000 -9.7837
# 2 70.8240 92.8733 37.0704 0.0000 0.0000 9.7837
# 3 37.0704 37.0704 66.3625 0.0000 0.0000 0.0000
# 4 0.0000 0.0000 0.0000 21.4040 0.0000 0.0000
# 5 0.0000 0.0000 0.0000 0.0000 21.4040 0.0000
# 6 -9.7837 9.7837 0.0000 0.0000 0.0000 19.7981
#
#
#
# Elastic Compliance Matrix: (Units=1/GPa)
#
#
# Indices 1 2 3 4 5 6 
#
# 1 0.044478 -0.036300 -0.004568 0.000000 0.000000 0.039918
# 2 -0.036300 0.044478 -0.004568 0.000000 0.000000 -0.039918
# 3 -0.004568 -0.004568 0.020172 0.000000 0.000000 0.000000
# 4 0.000000 0.000000 0.000000 0.046720 0.000000 0.000000
# 5 0.000000 0.000000 0.000000 0.000000 0.046720 0.000000
# 6 0.039918 -0.039918 0.000000 0.000000 0.000000 0.089963
#
#
# Mechanical properties :
#
#
# Convention : Reuss Voigt Hill
#
# Bulk Modulus (GPa) = 54.77854 60.22651 57.50252
# Shear Modulus (GPa) = 12.83733 19.66416 16.25075
#
# Velocity S-wave (km/s) = 2.59300 3.20924 2.91744
# Velocity P-wave (km/s) = 6.13640 6.72877 6.43940
#
# Compressibility (1/GPa) = 0.01825532
#
# Stress axis : x y z
#
# Youngs Moduli (GPa) = 22.48313 22.48313 49.57282
#
# Poissons Ratio (x) = 0.81614 0.22646
# Poissons Ratio (y) = 0.81614 0.22646
# Poissons Ratio (z) = 0.10271 0.10271
#
# Static dielectric constant tensor:
#      x y z
#    x 3.602500 0.000000 0.000000 
#    y 0.000000 3.602500 0.000000 
#    z 0.000000 0.000000 3.456140 
# 
# 
# High freq. dielectric constant tensor:
#      x y z
#    x 1.735720 0.000000 0.000000 
#    y 0.000000 1.735720 0.000000 
#    z 0.000000 0.000000 1.738340 
# 
# From -- ./inp_files/1276.got.cif
#   From: 2010.03.12/outbox.cif.g09.slc.cpg/sg83_1_cif.got.tgz:1276.got - 2010.04.08 20:05:18.
