data_PCOD8302610
_publ_section_title
;
Structure prediction by ZEFSAII (Michael W. Deem and Ramdas Pophale) SiO2 
 PCOD8302610
Probable space group: P 4/M
;
_chemical_formula_sum "Si O2"
_cell_formula_units_Z 40
_cell_length_a 17.930698
_cell_length_b 17.930698
_cell_length_c 8.553850
_cell_angle_alpha 90.000000
_cell_angle_beta 90.000000
_cell_angle_gamma 90.000000
_cell_volume 2750.147721
_symmetry_space_group_name_H-M "P 4/M"
_symmetry_group_IT_number 83
_symmetry_cell_setting 'tetragonal'
loop_
_space_group_symop_operation_xyz
x,y,z
-y,x,z
-x,-y,z
y,-x,z
-x,-y,-z
y,-x,-z
x,y,-z
-y,x,-z
loop_
_atom_site_type_symbol
_atom_site_label
_atom_site_fract_x
_atom_site_fract_y
_atom_site_fract_z
Si Si1 0.492814 0.911095 0.174649
Si Si2 0.344703 0.914752 0.679264
Si Si3 0.079852 0.801801 0.316199
Si Si4 0.076748 0.652757 0.184558
Si Si5 0.193296 0.915186 0.817825
O O1 0.425601 0.878466 0.280213
O O2 0.575263 0.878258 0.218915
O O3 0.500000 0.000000 0.188551
O O4 0.471313 0.887782 0.000000
O O5 0.326615 0.899724 0.500000
O O6 0.275474 0.881786 0.778561
O O7 0.349860 0.001791 0.714889
O O8 0.066619 0.793962 0.500000
O O9 0.119613 0.726546 0.245885
O O10 0.131873 0.871552 0.281230
O O11 0.001280 0.812918 0.229999
O O12 0.057989 0.658437 0.000000
O O13 0.176620 0.905549 0.000000
#
# Coordination Sequence:
#
# PCOD8302610 Si02
#       5
#     8   8   8   8   8
#     4   8  14  24  38  56  78 101 123 148 182 230
#     4  10  17  25  39  59  79  98 123 157 195 230
#     4  11  21  33  46  61  78  97 129 172 211 239
#     4   9  16  27  41  57  77 101 126 152 189 236
#     4  11  21  34  47  58  75 102 134 165 204 247
#
# _framework density 14.544673
#
# number of rings (size 3 to 8) (size 9 to 14) (size 15 to 20)
#    0.000    2.200    0.000    9.600    0.000    4.800 
#    0.000    2.000    0.000    0.000    0.000    0.000 
#    0.000    0.000    0.000    0.000    0.000    1.000 
#
# Total GULP energy -495570.822639 kJ/mol
# GULP energy per Si atom -12389.270566 kJ/mol
# Density = 1.451157 g / cm^3
# Si number density = 14.544673 Si / 1000 Ang^3
#
#
#
# Elastic Constant Matrix: (Units=GPa)
#
#
# Indices 1 2 3 4 5 6 
#
# 1 57.1137 25.7569 13.1282 0.0000 0.0000 0.0914
# 2 25.7569 57.1137 13.1282 0.0000 0.0000 -0.0914
# 3 13.1282 13.1282 68.9058 0.0000 0.0000 0.0000
# 4 0.0000 0.0000 0.0000 19.5595 0.0000 0.0000
# 5 0.0000 0.0000 0.0000 0.0000 19.5595 0.0000
# 6 0.0914 -0.0914 0.0000 0.0000 0.0000 0.1345
#
#
#
# Elastic Compliance Matrix: (Units=1/GPa)
#
#
# Indices 1 2 3 4 5 6 
#
# 1 0.022430 -0.009588 -0.002447 0.000000 0.000000 -0.021767
# 2 -0.009588 0.022430 -0.002447 0.000000 0.000000 0.021767
# 3 -0.002447 -0.002447 0.015445 0.000000 0.000000 0.000000
# 4 0.000000 0.000000 0.000000 0.051126 0.000000 0.000000
# 5 0.000000 0.000000 0.000000 0.000000 0.051126 0.000000
# 6 -0.021767 0.021767 0.000000 0.000000 0.000000 7.465527
#
#
# Mechanical properties :
#
#
# Convention : Reuss Voigt Hill
#
# Bulk Modulus (GPa) = 31.90572 31.90664 31.90618
# Shear Modulus (GPa) = 0.65210 16.59200 8.62205
#
# Velocity S-wave (km/s) = 0.67031 3.38118 2.43739
# Velocity P-wave (km/s) = 4.75217 6.10146 5.46859
#
# Compressibility (1/GPa) = 0.03134234
#
# Stress axis : x y z
#
# Youngs Moduli (GPa) = 44.58292 44.58292 64.74631
#
# Poissons Ratio (x) = 0.42746 0.15842
# Poissons Ratio (y) = 0.42746 0.15842
# Poissons Ratio (z) = 0.10908 0.10908
#
# Static dielectric constant tensor:
#      x y z
#    x 2.972380 0.000000 0.000000 
#    y 0.000000 2.972380 0.000000 
#    z 0.000000 0.000000 2.919060 
# 
# 
# High freq. dielectric constant tensor:
#      x y z
#    x 1.520920 0.000000 0.000000 
#    y 0.000000 1.520920 0.000000 
#    z 0.000000 0.000000 1.574080 
# 
# From -- ./inp_files/817.got.cif
#   From: 2010.03.12/outbox.cif.g09.slc.cpg/sg83_1_cif.got.tgz:817.got - 2010.04.08 20:05:18.
