data_PCOD8302026
_publ_section_title
;
Structure prediction by ZEFSAII (Michael W. Deem and Ramdas Pophale) SiO2 
 PCOD8302026
Probable space group: P 43
;
_chemical_formula_sum "Si O2"
_cell_formula_units_Z 24
_cell_length_a 10.735596
_cell_length_b 10.735596
_cell_length_c 9.211878
_cell_angle_alpha 90.000000
_cell_angle_beta 90.000000
_cell_angle_gamma 90.000000
_cell_volume 1061.696773
_symmetry_space_group_name_H-M "P 43"
_symmetry_group_IT_number 78
_symmetry_cell_setting 'tetragonal'
loop_
_space_group_symop_operation_xyz
x,y,z
-y,x,3/4+z
-x,-y,1/2+z
y,-x,1/4+z
loop_
_atom_site_type_symbol
_atom_site_label
_atom_site_fract_x
_atom_site_fract_y
_atom_site_fract_z
Si Si1 0.598307 0.224514 0.027290
Si Si2 0.479764 0.785430 0.126455
Si Si3 0.965443 0.667122 0.548431
Si Si4 0.451350 0.224090 0.306410
Si Si5 0.235944 0.655561 0.114346
Si Si6 0.090277 0.901954 0.138977
O O1 0.567095 0.203674 0.196827
O O2 0.661961 0.360726 0.008405
O O3 0.678647 0.116701 0.947525
O O4 0.465342 0.203769 0.954001
O O5 0.439134 0.923386 0.180451
O O6 0.361898 0.706822 0.187236
O O7 0.610877 0.745463 0.197320
O O8 0.480748 0.754293 0.958207
O O9 0.971831 0.801720 0.476002
O O10 0.105981 0.635167 0.587284
O O11 0.124455 0.755822 0.122368
O O12 0.962089 0.919901 0.228340
#
# Coordination Sequence:
#
# PCOD8302026 Si02
#       6
#     4   4   4   4   4   4
#     4  11  23  39  65  91 126 169 208 267 327 384
#     4  10  22  38  63  90 126 168 211 265 320 384
#     4  10  22  43  62  86 126 169 210 262 327 390
#     4  12  23  38  62  95 124 163 220 266 319 394
#     4  10  22  42  61  90 128 170 208 258 329 390
#     4  11  24  44  69  94 126 167 217 274 334 400
#
# _framework density 22.605325000000001
#
# number of rings (size 3 to 8) (size 9 to 14) (size 15 to 20)
#    0.000    1.333    0.000    7.000    0.000    9.333 
#    0.000    8.333    0.000    0.000    0.000    0.000 
#    0.000    0.000    0.000    0.000    0.000    0.000 
#
# Total GULP energy -297427.538293 kJ/mol
# GULP energy per Si atom -12392.814096 kJ/mol
# Density = 2.255387 g / cm^3
# Si number density = 22.605325 Si / 1000 Ang^3
#
#
#
# Elastic Constant Matrix: (Units=GPa)
#
#
# Indices 1 2 3 4 5 6 
#
# 1 92.5588 15.4488 23.0157 0.0000 0.0000 1.7522
# 2 15.4488 92.5588 23.0157 0.0000 0.0000 -1.7522
# 3 23.0157 23.0157 129.1726 0.0000 0.0000 0.0000
# 4 0.0000 0.0000 0.0000 31.8792 0.0000 0.0000
# 5 0.0000 0.0000 0.0000 0.0000 31.8792 0.0000
# 6 1.7522 -1.7522 0.0000 0.0000 0.0000 22.3747
#
#
#
# Elastic Compliance Matrix: (Units=1/GPa)
#
#
# Indices 1 2 3 4 5 6 
#
# 1 0.011517 -0.001498 -0.001785 0.000000 0.000000 -0.001019
# 2 -0.001498 0.011517 -0.001785 0.000000 0.000000 0.001019
# 3 -0.001785 -0.001785 0.008378 0.000000 0.000000 0.000000
# 4 0.000000 0.000000 0.000000 0.031368 0.000000 0.000000
# 5 0.000000 0.000000 0.000000 0.000000 0.031368 0.000000
# 6 -0.001019 0.001019 0.000000 0.000000 0.000000 0.044853
#
#
# Mechanical properties :
#
#
# Convention : Reuss Voigt Hill
#
# Bulk Modulus (GPa) = 47.00200 48.58340 47.79270
# Shear Modulus (GPa) = 32.00407 34.08060 33.04233
#
# Velocity S-wave (km/s) = 3.76676 3.88704 3.82737
# Velocity P-wave (km/s) = 6.30520 6.45632 6.38121
#
# Compressibility (1/GPa) = 0.02127569
#
# Stress axis : x y z
#
# Youngs Moduli (GPa) = 86.82715 86.82715 119.36360
#
# Poissons Ratio (x) = 0.13004 0.21309
# Poissons Ratio (y) = 0.13004 0.21309
# Poissons Ratio (z) = 0.15501 0.15501
#
# Static dielectric constant tensor:
#      x y z
#    x 4.164670 0.000000 0.000000 
#    y 0.000000 4.164670 0.000000 
#    z 0.000000 0.000000 4.738870 
# 
# 
# High freq. dielectric constant tensor:
#      x y z
#    x 1.884600 0.000000 0.000000 
#    y 0.000000 1.884600 0.000000 
#    z 0.000000 0.000000 1.899340 
# 
# From -- ./inp_files/593.got.cif
#   From: 2010.03.12/outbox.cif.g09.slc.cpg/sg78_cif.got.tgz:593.got - 2010.04.16 16:37:20.
