data_PCOD8302187
_publ_section_title
;
Structure prediction by ZEFSAII (Michael W. Deem and Ramdas Pophale) SiO2 
 PCOD8302187
Probable space group: I 41
;
_chemical_formula_sum "Si O2"
_cell_formula_units_Z 60
_cell_length_a 18.074991
_cell_length_b 18.074991
_cell_length_c 8.431722
_cell_angle_alpha 90.000000
_cell_angle_beta 90.000000
_cell_angle_gamma 90.000000
_cell_volume 2754.688263
_symmetry_space_group_name_H-M "I 41"
_symmetry_group_IT_number 80
_symmetry_cell_setting 'tetragonal'
loop_
_space_group_symop_operation_xyz
x,y,z
-y,1/2+x,1/4+z
-x,-y,z
y,1/2-x,1/4+z
1/2+x,1/2+y,1/2+z
1/2-y,x,3/4+z
1/2-x,1/2-y,1/2+z
1/2+y,-x,3/4+z
loop_
_atom_site_type_symbol
_atom_site_label
_atom_site_fract_x
_atom_site_fract_y
_atom_site_fract_z
Si Si1 0.301581 0.686856 0.255710
Si Si2 0.308207 0.177047 0.163621
Si Si3 0.608377 0.082777 0.892275
Si Si4 0.461052 0.134352 0.285871
Si Si5 0.483010 0.274387 0.795765
Si Si6 0.536071 0.145105 0.605289
Si Si7 0.500000 0.000000 0.108187
Si Si8 0.424129 0.777853 0.071926
O O1 0.300147 0.721511 0.429552
O O2 0.307968 0.599094 0.267621
O O3 0.366193 0.722416 0.150531
O O4 0.241458 0.189711 0.283952
O O5 0.384273 0.178374 0.264793
O O6 0.300263 0.101081 0.064947
O O7 0.579815 0.082445 0.708920
O O8 0.542867 0.055918 0.000527
O O9 0.622682 0.166078 0.958382
O O10 0.676760 0.027318 0.915707
O O11 0.480460 0.117189 0.469498
O O12 0.447774 0.052421 0.214065
O O13 0.527562 0.179957 0.204281
O O14 0.485388 0.191481 0.727006
O O15 0.522880 0.274556 0.966440
#
# Coordination Sequence:
#
# PCOD8302187 Si02
#       8
#     8   8   8   8   8   8   4   8
#     4  12  25  38  61 102 149 193 232 273 337 417
#     4  12  28  50  76 105 134 183 242 311 382 434
#     4  10  22  41  66  97 136 184 233 280 355 417
#     4  11  23  48  66 105 139 184 237 299 365 430
#     4  11  23  45  71  99 141 191 234 299 358 432
#     4  11  26  41  66 104 146 181 234 296 347 427
#     4  10  22  42  72  96 128 178 234 282 358 438
#     4  10  22  41  66  95 144 194 238 283 341 429
#
# _framework density 21.781047999999998
#
# number of rings (size 3 to 8) (size 9 to 14) (size 15 to 20)
#    0.000    1.067    4.000    1.600    9.333    0.533 
#    0.000    1.333    0.000    0.000    0.000    0.000 
#    0.000    0.000    0.000    0.000    0.000    0.000 
#
# Total GULP energy -371922.199098 kJ/mol
# GULP energy per Si atom -12397.406637 kJ/mol
# Density = 2.173147 g / cm^3
# Si number density = 21.781048 Si / 1000 Ang^3
#
#
#
# Elastic Constant Matrix: (Units=GPa)
#
#
# Indices 1 2 3 4 5 6 
#
# 1 81.2009 30.4919 38.2318 0.0000 0.0000 -6.4661
# 2 30.4919 81.2009 38.2318 0.0000 0.0000 6.4661
# 3 38.2318 38.2318 125.8443 0.0000 0.0000 0.0000
# 4 0.0000 0.0000 0.0000 110.9066 0.0000 0.0000
# 5 0.0000 0.0000 0.0000 0.0000 110.9066 0.0000
# 6 -6.4661 6.4661 0.0000 0.0000 0.0000 28.8188
#
#
#
# Elastic Compliance Matrix: (Units=1/GPa)
#
#
# Indices 1 2 3 4 5 6 
#
# 1 0.016111 -0.004807 -0.003434 0.000000 0.000000 0.004693
# 2 -0.004807 0.016111 -0.003434 0.000000 0.000000 -0.004693
# 3 -0.003434 -0.003434 0.010033 0.000000 0.000000 0.000000
# 4 0.000000 0.000000 0.000000 0.009017 0.000000 0.000000
# 5 0.000000 0.000000 0.000000 0.000000 0.009017 0.000000
# 6 0.004693 -0.004693 0.000000 0.000000 0.000000 0.036806
#
#
# Mechanical properties :
#
#
# Convention : Reuss Voigt Hill
#
# Bulk Modulus (GPa) = 52.89778 55.79524 54.34651
# Shear Modulus (GPa) = 39.44938 62.21244 50.83091
#
# Velocity S-wave (km/s) = 4.26041 5.35020 4.83610
# Velocity P-wave (km/s) = 6.96709 7.98988 7.49595
#
# Compressibility (1/GPa) = 0.01890439
#
# Stress axis : x y z
#
# Youngs Moduli (GPa) = 62.07047 62.07047 99.67125
#
# Poissons Ratio (x) = 0.29834 0.34229
# Poissons Ratio (y) = 0.29834 0.34229
# Poissons Ratio (z) = 0.21316 0.21316
#
# Static dielectric constant tensor:
#      x y z
#    x 2.642460 0.000000 0.000000 
#    y 0.000000 2.642460 0.000000 
#    z 0.000000 0.000000 4.001000 
# 
# 
# High freq. dielectric constant tensor:
#      x y z
#    x 1.852000 0.000000 0.000000 
#    y 0.000000 1.852000 0.000000 
#    z 0.000000 0.000000 1.862050 
# 
# From -- ./inp_files/742.got.cif
#   From: 2010.03.12/outbox.cif.g09.slc.cpg/sg80_cif.got.tgz:742.got - 2010.04.08 20:00:04.
