data_PCOD8302647
_publ_section_title
;
Structure prediction by ZEFSAII (Michael W. Deem and Ramdas Pophale) SiO2 
 PCOD8302647
Probable space group: P 4/M
;
_chemical_formula_sum "Si O2"
_cell_formula_units_Z 48
_cell_length_a 15.885454
_cell_length_b 15.885454
_cell_length_c 13.499539
_cell_angle_alpha 90.000000
_cell_angle_beta 90.000000
_cell_angle_gamma 90.000000
_cell_volume 3406.576926
_symmetry_space_group_name_H-M "P 4/M"
_symmetry_group_IT_number 83
_symmetry_cell_setting 'tetragonal'
loop_
_space_group_symop_operation_xyz
x,y,z
-y,x,z
-x,-y,z
y,-x,z
-x,-y,-z
y,-x,-z
x,y,-z
-y,x,-z
loop_
_atom_site_type_symbol
_atom_site_label
_atom_site_fract_x
_atom_site_fract_y
_atom_site_fract_z
Si Si1 0.589973 0.035020 0.383552
Si Si2 0.764421 0.990817 0.301695
Si Si3 0.381383 0.440604 0.382012
Si Si4 0.138465 0.994340 0.111803
Si Si5 0.175877 0.840517 0.384886
Si Si6 0.354747 0.783442 0.383607
O O1 0.605425 0.018153 0.500000
O O2 0.664476 0.989143 0.322940
O O3 0.500000 0.000000 0.348548
O O4 0.590284 0.134142 0.358823
O O5 0.804156 0.901066 0.324356
O O6 0.782247 0.010234 0.186066
O O7 0.811898 0.059691 0.369233
O O8 0.462834 0.388327 0.345515
O O9 0.377056 0.439647 0.500000
O O10 0.298016 0.398785 0.334417
O O11 0.079028 0.914299 0.130775
O O12 0.173897 0.992858 0.000000
O O13 0.160924 0.822957 0.500000
O O14 0.259755 0.794034 0.343905
O O15 0.349897 0.770359 0.500000
#
# Coordination Sequence:
#
# PCOD8302647 Si02
#       6
#     8   8   8   8   8   8
#     4   9  18  30  41  55  80 116 151 175 199 243
#     4  11  18  29  43  60  84 110 138 178 211 253
#     4   8  13  21  34  51  68  88 121 169 217 245
#     4   9  17  30  46  65  86 109 138 172 218 269
#     4  10  19  27  37  57  84 113 141 170 203 241
#     4   8  15  26  36  49  72 102 138 172 198 234
#
# _framework density 14.090391
#
# number of rings (size 3 to 8) (size 9 to 14) (size 15 to 20)
#    0.000    2.833    1.667    3.500    0.000    1.667 
#    0.000    5.833    0.000    0.500    0.000    0.000 
#    0.000    0.000    0.000    0.000    0.000    0.000 
#
# Total GULP energy -594968.649517 kJ/mol
# GULP energy per Si atom -12395.180198 kJ/mol
# Density = 1.405832 g / cm^3
# Si number density = 14.090391 Si / 1000 Ang^3
#
#
#
# Elastic Constant Matrix: (Units=GPa)
#
#
# Indices 1 2 3 4 5 6 
#
# 1 99.4138 50.2906 15.8745 0.0000 0.0000 8.7102
# 2 50.2906 99.4138 15.8745 0.0000 0.0000 -8.7102
# 3 15.8745 15.8745 46.6620 0.0000 0.0000 0.0000
# 4 0.0000 0.0000 0.0000 11.5301 0.0000 0.0000
# 5 0.0000 0.0000 0.0000 0.0000 11.5301 0.0000
# 6 8.7102 -8.7102 0.0000 0.0000 0.0000 20.2244
#
#
#
# Elastic Compliance Matrix: (Units=1/GPa)
#
#
# Indices 1 2 3 4 5 6 
#
# 1 0.015613 -0.008414 -0.002449 0.000000 0.000000 -0.010348
# 2 -0.008414 0.015613 -0.002449 0.000000 0.000000 0.010348
# 3 -0.002449 -0.002449 0.023097 0.000000 0.000000 0.000000
# 4 0.000000 0.000000 0.000000 0.086730 0.000000 0.000000
# 5 0.000000 0.000000 0.000000 0.000000 0.086730 0.000000
# 6 -0.010348 0.010348 0.000000 0.000000 0.000000 0.058358
#
#
# Mechanical properties :
#
#
# Convention : Reuss Voigt Hill
#
# Bulk Modulus (GPa) = 36.10256 45.50763 40.80509
# Shear Modulus (GPa) = 15.52808 19.55358 17.54083
#
# Velocity S-wave (km/s) = 3.32329 3.72926 3.53211
# Velocity P-wave (km/s) = 6.35637 7.13514 6.75698
#
# Compressibility (1/GPa) = 0.02769887
#
# Stress axis : x y z
#
# Youngs Moduli (GPa) = 64.04964 64.04964 43.29536
#
# Poissons Ratio (x) = 0.53889 0.10604
# Poissons Ratio (y) = 0.53889 0.10604
# Poissons Ratio (z) = 0.15687 0.15687
#
# Static dielectric constant tensor:
#      x y z
#    x 2.900920 0.000000 0.000000 
#    y 0.000000 2.900920 0.000000 
#    z 0.000000 0.000000 2.395400 
# 
# 
# High freq. dielectric constant tensor:
#      x y z
#    x 1.537820 0.000000 0.000000 
#    y 0.000000 1.537820 0.000000 
#    z 0.000000 0.000000 1.482600 
# 
# From -- ./inp_files/2330.got.cif
#   From: 2010.03.12/outbox.cif.g09.slc.cpg/sg83_2_cif.got.tgz:2330.got - 2010.04.08 20:05:18.
