data_PCOD8302485
_publ_section_title
;
Structure prediction by ZEFSAII (Michael W. Deem and Ramdas Pophale) SiO2 
 PCOD8302485
Probable space group: I -4 
;
_chemical_formula_sum "Si O2"
_cell_formula_units_Z 60
_cell_length_a 14.019241
_cell_length_b 14.019241
_cell_length_c 14.411586
_cell_angle_alpha 90.000000
_cell_angle_beta 90.000000
_cell_angle_gamma 90.000000
_cell_volume 2832.440405
_symmetry_space_group_name_H-M "I -4 "
_symmetry_group_IT_number 82
_symmetry_cell_setting 'tetragonal'
loop_
_space_group_symop_operation_xyz
x,y,z
y,-x,-z
-x,-y,z
-y,x,-z
1/2+x,1/2+y,1/2+z
1/2+y,1/2-x,1/2-z
1/2-x,1/2-y,1/2+z
1/2-y,1/2+x,1/2-z
loop_
_atom_site_type_symbol
_atom_site_label
_atom_site_fract_x
_atom_site_fract_y
_atom_site_fract_z
Si Si1 0.800500 0.021725 0.261882
Si Si2 0.842005 0.744696 0.337085
Si Si3 0.746503 0.435790 0.562417
Si Si4 0.285627 0.097198 0.405748
Si Si5 0.968889 0.208005 0.416461
Si Si6 0.724376 0.735976 0.157035
Si Si7 0.253166 0.366484 0.484552
Si Si8 0.000000 0.000000 0.642130
O O1 0.793603 0.010338 0.152560
O O2 0.775362 0.130489 0.282261
O O3 0.905724 0.987506 0.294244
O O4 0.717317 0.956453 0.306991
O O5 0.798855 0.825233 0.405473
O O6 0.809073 0.757844 0.230662
O O7 0.805602 0.649977 0.389074
O O8 0.956523 0.749950 0.341984
O O9 0.850468 0.386720 0.578398
O O10 0.755655 0.519611 0.488275
O O11 0.668313 0.361607 0.526477
O O12 0.255156 0.016754 0.481844
O O13 0.864659 0.246154 0.390427
O O14 0.981205 0.093277 0.421387
O O15 0.712698 0.816621 0.078404
#
# Coordination Sequence:
#
# PCOD8302485 Si02
#       8
#     8   8   8   8   8   8   8   4
#     4  11  22  40  66 101 139 173 235 282 350 415
#     4  11  22  42  65  96 134 179 225 283 346 416
#     4  11  25  44  70  97 138 189 227 288 347 420
#     4  11  22  42  64  99 138 175 226 283 349 407
#     4  11  23  40  67 101 136 174 224 288 352 407
#     4  11  22  43  68  97 140 184 223 293 348 408
#     4  11  24  44  68  98 138 182 233 282 350 416
#     4  10  24  33  66 113 128 164 224 289 358 403
#
# _framework density 21.183147000000002
#
# number of rings (size 3 to 8) (size 9 to 14) (size 15 to 20)
#    0.000    1.067    6.667    1.600    1.867    2.933 
#    0.000    2.667    0.000    0.000    0.000    0.000 
#    0.000    0.000    0.000    0.000    0.000    0.000 
#
# Total GULP energy -371902.802339 kJ/mol
# GULP energy per Si atom -12396.760078 kJ/mol
# Density = 2.113493 g / cm^3
# Si number density = 21.183147 Si / 1000 Ang^3
#
#
#
# Elastic Constant Matrix: (Units=GPa)
#
#
# Indices 1 2 3 4 5 6 
#
# 1 84.5799 20.4218 10.2248 0.0000 0.0000 2.2277
# 2 20.4218 84.5799 10.2248 0.0000 0.0000 -2.2277
# 3 10.2248 10.2248 71.2984 0.0000 0.0000 0.0000
# 4 0.0000 0.0000 0.0000 34.9317 0.0000 0.0000
# 5 0.0000 0.0000 0.0000 0.0000 34.9317 0.0000
# 6 2.2277 -2.2277 0.0000 0.0000 0.0000 24.4544
#
#
#
# Elastic Compliance Matrix: (Units=1/GPa)
#
#
# Indices 1 2 3 4 5 6 
#
# 1 0.012742 -0.002944 -0.001405 0.000000 0.000000 -0.001429
# 2 -0.002944 0.012742 -0.001405 0.000000 0.000000 0.001429
# 3 -0.001405 -0.001405 0.014429 0.000000 0.000000 0.000000
# 4 0.000000 0.000000 0.000000 0.028627 0.000000 0.000000
# 5 0.000000 0.000000 0.000000 0.000000 0.028627 0.000000
# 6 -0.001429 0.001429 0.000000 0.000000 0.000000 0.041153
#
#
# Mechanical properties :
#
#
# Convention : Reuss Voigt Hill
#
# Bulk Modulus (GPa) = 35.20750 35.80014 35.50382
# Shear Modulus (GPa) = 31.38829 32.16936 31.77882
#
# Velocity S-wave (km/s) = 3.85354 3.90119 3.87744
# Velocity P-wave (km/s) = 6.03790 6.10158 6.06983
#
# Compressibility (1/GPa) = 0.02840304
#
# Stress axis : x y z
#
# Youngs Moduli (GPa) = 78.48360 78.48363 69.30707
#
# Poissons Ratio (x) = 0.23107 0.09738
# Poissons Ratio (y) = 0.23107 0.09738
# Poissons Ratio (z) = 0.11027 0.11027
#
# Static dielectric constant tensor:
#      x y z
#    x 3.812970 0.000000 0.000000 
#    y 0.000000 3.812970 0.000000 
#    z 0.000000 0.000000 3.850370 
# 
# 
# High freq. dielectric constant tensor:
#      x y z
#    x 1.820300 0.000000 0.000000 
#    y 0.000000 1.820300 0.000000 
#    z 0.000000 0.000000 1.834230 
# 
# From -- ./inp_files/2350.got.cif
#   From: 2010.03.12/outbox.cif.g09.slc.cpg/sg82_2_cif.got.tgz:2350.got - 2010.04.08 20:02:50.
