data_PCOD8302195
_publ_section_title
;
Structure prediction by ZEFSAII (Michael W. Deem and Ramdas Pophale) SiO2 
 PCOD8302195
Probable space group: I 41
;
_chemical_formula_sum "Si O2"
_cell_formula_units_Z 48
_cell_length_a 11.091752
_cell_length_b 11.091752
_cell_length_c 17.353339
_cell_angle_alpha 90.000000
_cell_angle_beta 90.000000
_cell_angle_gamma 90.000000
_cell_volume 2134.928585
_symmetry_space_group_name_H-M "I 41"
_symmetry_group_IT_number 80
_symmetry_cell_setting 'tetragonal'
loop_
_space_group_symop_operation_xyz
x,y,z
-y,1/2+x,1/4+z
-x,-y,z
y,1/2-x,1/4+z
1/2+x,1/2+y,1/2+z
1/2-y,x,3/4+z
1/2-x,1/2-y,1/2+z
1/2+y,-x,3/4+z
loop_
_atom_site_type_symbol
_atom_site_label
_atom_site_fract_x
_atom_site_fract_y
_atom_site_fract_z
Si Si1 0.979142 0.252055 0.774810
Si Si2 0.453701 0.631106 0.122832
Si Si3 0.325976 0.920665 0.829556
Si Si4 0.239804 0.349505 0.771901
Si Si5 0.679267 0.575739 0.608469
Si Si6 0.384299 0.925127 0.664809
O O1 0.910092 0.193729 0.701957
O O2 0.885992 0.351259 0.808142
O O3 0.007589 0.162402 0.845318
O O4 0.112033 0.290702 0.749884
O O5 0.500000 0.500000 0.146563
O O6 0.555586 0.718508 0.089660
O O7 0.433447 0.820320 0.836280
O O8 0.293722 0.923546 0.738009
O O9 0.209550 0.894156 0.881020
O O10 0.372544 0.046593 0.859541
O O11 0.344959 0.258212 0.798573
O O12 0.275996 0.418332 0.695298
O O13 0.500000 0.000000 0.695410
#
# Coordination Sequence:
#
# PCOD8302195 Si02
#       6
#     8   8   8   8   8   8
#     4  11  23  41  69 103 144 190 246 303 363 434
#     4  10  23  43  64 105 141 189 251 297 369 438
#     4  11  26  45  69 107 141 188 243 297 360 427
#     4  11  23  42  73  99 142 193 240 296 362 437
#     4  11  23  43  69 102 140 185 249 290 359 438
#     4  12  24  45  72 104 147 188 239 299 362 422
#
# _framework density 22.483187000000001
#
# number of rings (size 3 to 8) (size 9 to 14) (size 15 to 20)
#    0.000    1.000    3.333    3.500    2.333    4.000 
#    0.000    3.333    0.000    0.000    0.000    0.000 
#    0.000    0.000    0.000    0.000    0.000    0.000 
#
# Total GULP energy -297435.964667 kJ/mol
# GULP energy per Si atom -12393.165194 kJ/mol
# Density = 2.243201 g / cm^3
# Si number density = 22.483187 Si / 1000 Ang^3
#
#
#
# Elastic Constant Matrix: (Units=GPa)
#
#
# Indices 1 2 3 4 5 6 
#
# 1 97.5937 32.0204 42.4213 0.0000 0.0000 -2.2227
# 2 32.0204 97.5937 42.4212 0.0000 0.0000 2.2227
# 3 42.4213 42.4212 146.4869 0.0000 0.0000 0.0000
# 4 0.0000 0.0000 0.0000 9.0191 0.0000 0.0000
# 5 0.0000 0.0000 0.0000 0.0000 9.0192 0.0000
# 6 -2.2227 2.2227 0.0000 0.0000 0.0000 36.2094
#
#
#
# Elastic Compliance Matrix: (Units=1/GPa)
#
#
# Indices 1 2 3 4 5 6 
#
# 1 0.012417 -0.002897 -0.002757 0.000000 0.000000 0.000940
# 2 -0.002897 0.012417 -0.002757 0.000000 0.000000 -0.000940
# 3 -0.002757 -0.002757 0.008423 0.000000 0.000000 0.000000
# 4 0.000000 0.000000 0.000000 0.110875 0.000000 0.000000
# 5 0.000000 0.000000 0.000000 0.000000 0.110875 0.000000
# 6 0.000940 -0.000940 0.000000 0.000000 0.000000 0.027733
#
#
# Mechanical properties :
#
#
# Convention : Reuss Voigt Hill
#
# Bulk Modulus (GPa) = 60.84407 63.93334 62.38871
# Shear Modulus (GPa) = 16.39131 25.83697 21.11414
#
# Velocity S-wave (km/s) = 2.70302 3.39362 3.06781
# Velocity P-wave (km/s) = 6.07145 6.62218 6.35279
#
# Compressibility (1/GPa) = 0.01643546
#
# Stress axis : x y z
#
# Youngs Moduli (GPa) = 80.53603 80.53603 118.71892
#
# Poissons Ratio (x) = 0.23331 0.32729
# Poissons Ratio (y) = 0.23331 0.32729
# Poissons Ratio (z) = 0.22202 0.22202
#
# Static dielectric constant tensor:
#      x y z
#    x 4.215460 0.000000 0.000000 
#    y 0.000000 4.215460 0.000000 
#    z 0.000000 0.000000 4.119340 
# 
# 
# High freq. dielectric constant tensor:
#      x y z
#    x 1.884560 0.000000 0.000000 
#    y 0.000000 1.884560 0.000000 
#    z 0.000000 0.000000 1.909010 
# 
# From -- ./inp_files/1531.got.cif
#   From: 2010.03.12/outbox.cif.g09.slc.cpg/sg80_cif.got.tgz:1531.got - 2010.04.08 20:00:04.
