data_PCOD8302552
_publ_section_title
;
Structure prediction by ZEFSAII (Michael W. Deem and Ramdas Pophale) SiO2 
 PCOD8302552
Probable space group: I -4 
;
_chemical_formula_sum "Si O2"
_cell_formula_units_Z 56
_cell_length_a 14.942604
_cell_length_b 14.942604
_cell_length_c 11.679693
_cell_angle_alpha 90.000000
_cell_angle_beta 90.000000
_cell_angle_gamma 90.000000
_cell_volume 2607.858372
_symmetry_space_group_name_H-M "I -4 "
_symmetry_group_IT_number 82
_symmetry_cell_setting 'tetragonal'
loop_
_space_group_symop_operation_xyz
x,y,z
y,-x,-z
-x,-y,z
-y,x,-z
1/2+x,1/2+y,1/2+z
1/2+y,1/2-x,1/2-z
1/2-x,1/2-y,1/2+z
1/2-y,1/2+x,1/2-z
loop_
_atom_site_type_symbol
_atom_site_label
_atom_site_fract_x
_atom_site_fract_y
_atom_site_fract_z
Si Si1 0.358183 0.264820 0.814454
Si Si2 0.292615 0.112259 0.961674
Si Si3 0.296915 0.139781 0.209163
Si Si4 0.363839 0.986486 0.787845
Si Si5 0.124299 0.929929 0.483733
Si Si6 0.227229 0.944905 0.246536
Si Si7 0.411852 0.590820 0.544528
O O1 0.302784 0.180314 0.858610
O O2 0.299155 0.310767 0.716134
O O3 0.453095 0.229525 0.766740
O O4 0.369736 0.330480 0.920212
O O5 0.338220 0.020261 0.915523
O O6 0.189140 0.112517 0.995711
O O7 0.338646 0.138939 0.080873
O O8 0.369685 0.197028 0.281604
O O9 0.281130 0.038323 0.250784
O O10 0.405524 0.064118 0.705778
O O11 0.180575 0.927380 0.367714
O O12 0.028130 0.885747 0.461881
O O13 0.148022 0.942535 0.151592
O O14 0.520938 0.597466 0.563533
#
# Coordination Sequence:
#
# PCOD8302552 Si02
#       7
#     8   8   8   8   8   8   8
#     4  11  23  43  71 100 139 188 236 290 358 428
#     4  11  23  43  68 104 139 185 236 289 358 429
#     4  12  26  45  71  99 143 184 239 295 361 435
#     4   9  22  44  69 106 144 185 239 297 349 425
#     4  11  25  42  66  99 136 180 227 289 356 424
#     4  12  26  47  68 103 143 184 239 293 363 435
#     4  11  25  41  68 106 141 179 226 301 361 419
#
# _framework density 21.473557
#
# number of rings (size 3 to 8) (size 9 to 14) (size 15 to 20)
#    0.000    1.000    5.714    0.000    4.000    2.571 
#    2.571    1.429    0.000    0.000    0.000    0.000 
#    0.000    0.000    0.000    0.000    0.000    0.000 
#
# Total GULP energy -346911.513184 kJ/mol
# GULP energy per Si atom -12389.696899 kJ/mol
# Density = 2.142468 g / cm^3
# Si number density = 21.473557 Si / 1000 Ang^3
#
#
#
# Elastic Constant Matrix: (Units=GPa)
#
#
# Indices 1 2 3 4 5 6 
#
# 1 112.9874 53.8967 40.6010 0.0000 0.0000 3.0935
# 2 53.8967 112.9874 40.6010 0.0000 0.0000 -3.0935
# 3 40.6010 40.6010 103.2101 0.0000 0.0000 0.0000
# 4 0.0000 0.0000 0.0000 34.9974 0.0000 0.0000
# 5 0.0000 0.0000 0.0000 0.0000 34.9974 0.0000
# 6 3.0935 -3.0935 0.0000 0.0000 0.0000 29.3243
#
#
#
# Elastic Compliance Matrix: (Units=1/GPa)
#
#
# Indices 1 2 3 4 5 6 
#
# 1 0.012261 -0.004851 -0.002915 0.000000 0.000000 -0.001805
# 2 -0.004851 0.012261 -0.002915 0.000000 0.000000 0.001805
# 3 -0.002915 -0.002915 0.011983 0.000000 0.000000 0.000000
# 4 0.000000 0.000000 0.000000 0.028574 0.000000 0.000000
# 5 0.000000 0.000000 0.000000 0.000000 0.028574 0.000000
# 6 -0.001805 0.001805 0.000000 0.000000 0.000000 0.034482
#
#
# Mechanical properties :
#
#
# Convention : Reuss Voigt Hill
#
# Bulk Modulus (GPa) = 66.03710 66.59804 66.31757
# Shear Modulus (GPa) = 32.35305 32.80287 32.57796
#
# Velocity S-wave (km/s) = 3.88576 3.91268 3.89925
# Velocity P-wave (km/s) = 7.13805 7.17589 7.15700
#
# Compressibility (1/GPa) = 0.01514300
#
# Stress axis : x y z
#
# Youngs Moduli (GPa) = 81.55663 81.55663 83.45454
#
# Poissons Ratio (x) = 0.39561 0.24329
# Poissons Ratio (y) = 0.39561 0.24329
# Poissons Ratio (z) = 0.23776 0.23776
#
# Static dielectric constant tensor:
#      x y z
#    x 4.089000 0.000000 0.000000 
#    y 0.000000 4.089000 0.000000 
#    z 0.000000 0.000000 3.748120 
# 
# 
# High freq. dielectric constant tensor:
#      x y z
#    x 1.854150 0.000000 0.000000 
#    y 0.000000 1.854150 0.000000 
#    z 0.000000 0.000000 1.821320 
# 
# From -- ./inp_files/1859.got.cif
#   From: 2010.03.12/outbox.cif.g09.slc.cpg/sg82_1_cif.got.tgz:1859.got - 2010.04.08 20:02:50.
