data_PCOD8302871
_publ_section_title
;
Structure prediction by ZEFSAII (Michael W. Deem and Ramdas Pophale) SiO2 
 PCOD8302871
Probable space group: P 4/M
;
_chemical_formula_sum "Si O2"
_cell_formula_units_Z 48
_cell_length_a 8.283620
_cell_length_b 8.283620
_cell_length_c 31.794569
_cell_angle_alpha 90.000000
_cell_angle_beta 90.000000
_cell_angle_gamma 90.000000
_cell_volume 2181.691191
_symmetry_space_group_name_H-M "P 4/M"
_symmetry_group_IT_number 83
_symmetry_cell_setting 'tetragonal'
loop_
_space_group_symop_operation_xyz
x,y,z
-y,x,z
-x,-y,z
y,-x,z
-x,-y,-z
y,-x,-z
x,y,-z
-y,x,-z
loop_
_atom_site_type_symbol
_atom_site_label
_atom_site_fract_x
_atom_site_fract_y
_atom_site_fract_z
Si Si1 0.742308 0.068823 0.360621
Si Si2 0.750400 0.586778 0.288707
Si Si3 0.250330 0.411908 0.952453
Si Si4 0.749481 0.587449 0.806707
Si Si5 0.759521 0.437870 0.500000
Si Si6 0.500000 0.000000 0.429864
Si Si7 0.254593 0.922459 0.879463
O O1 0.636269 0.102585 0.319012
O O2 0.886678 0.196009 0.360991
O O3 0.631033 0.093522 0.401460
O O4 0.597196 0.701249 0.297432
O O5 0.811451 0.609194 0.240969
O O6 0.404097 0.298539 0.944150
O O7 0.108122 0.361946 0.920919
O O8 0.186685 0.388925 0.000000
O O9 0.596297 0.701266 0.815316
O O10 0.892463 0.638180 0.837932
O O11 0.693388 0.619811 0.500000
O O12 0.867607 0.410459 0.541366
O O13 0.105188 0.800570 0.879486
#
# Coordination Sequence:
#
# PCOD8302871 Si02
#       7
#     8   8   8   8   4   4   8
#     4  11  23  37  56  85 120 157 196 239 290 349
#     4   9  19  37  60  85 114 150 192 239 291 345
#     4   9  19  37  60  83 105 133 176 230 284 341
#     4   9  19  37  60  83 107 141 188 236 280 332
#     4  10  22  40  64  92 118 152 202 253 296 342
#     4  11  22  40  62  86 122 160 196 242 299 356
#     4  11  24  37  50  76 114 150 184 226 278 336
#
# _framework density 22.001280000000001
#
# number of rings (size 3 to 8) (size 9 to 14) (size 15 to 20)
#    0.000    2.083    0.000    4.500    0.000    6.000 
#    0.000    9.167    0.000    4.000    0.000    0.000 
#    0.000    0.000    0.000    0.000    0.000    0.000 
#
# Total GULP energy -595365.677602 kJ/mol
# GULP energy per Si atom -12403.451617 kJ/mol
# Density = 2.195120 g / cm^3
# Si number density = 22.001280 Si / 1000 Ang^3
#
#
#
# Elastic Constant Matrix: (Units=GPa)
#
#
# Indices 1 2 3 4 5 6 
#
# 1 54.2061 11.6732 36.7998 0.0000 0.0000 7.2444
# 2 11.6732 54.2061 36.7998 0.0000 0.0000 -7.2444
# 3 36.7998 36.7998 154.4078 0.0000 0.0000 0.0000
# 4 0.0000 0.0000 0.0000 18.2511 0.0000 0.0000
# 5 0.0000 0.0000 0.0000 0.0000 18.2511 0.0000
# 6 7.2444 -7.2444 0.0000 0.0000 0.0000 38.7684
#
#
#
# Elastic Compliance Matrix: (Units=1/GPa)
#
#
# Indices 1 2 3 4 5 6 
#
# 1 0.022899 -0.002211 -0.004930 0.000000 0.000000 -0.004692
# 2 -0.002211 0.022899 -0.004930 0.000000 0.000000 0.004692
# 3 -0.004930 -0.004930 0.008826 0.000000 0.000000 0.000000
# 4 0.000000 0.000000 0.000000 0.054791 0.000000 0.000000
# 5 0.000000 0.000000 0.000000 0.000000 0.054791 0.000000
# 6 -0.004692 0.004692 0.000000 0.000000 0.000000 0.027548
#
#
# Mechanical properties :
#
#
# Convention : Reuss Voigt Hill
#
# Bulk Modulus (GPa) = 32.80862 48.15172 40.48017
# Shear Modulus (GPa) = 22.11829 26.89061 24.50445
#
# Velocity S-wave (km/s) = 3.17411 3.49983 3.34095
# Velocity P-wave (km/s) = 5.32709 6.18588 5.77248
#
# Compressibility (1/GPa) = 0.03047980
#
# Stress axis : x y z
#
# Youngs Moduli (GPa) = 43.67091 43.67091 113.29538
#
# Poissons Ratio (x) = 0.09656 0.55859
# Poissons Ratio (y) = 0.09656 0.55859
# Poissons Ratio (z) = 0.21532 0.21532
#
# Static dielectric constant tensor:
#      x y z
#    x 3.789310 0.000000 0.000000 
#    y 0.000000 3.789310 0.000000 
#    z 0.000000 0.000000 3.974740 
# 
# 
# High freq. dielectric constant tensor:
#      x y z
#    x 1.863850 0.000000 0.000000 
#    y 0.000000 1.863850 0.000000 
#    z 0.000000 0.000000 1.872270 
# 
# From -- ./inp_files/3435.got.cif
#   From: 2010.03.12/outbox.cif.g09.slc.cpg/sg83_2_cif.got.tgz:3435.got - 2010.04.08 20:05:18.
