data_PCOD8302231
_publ_section_title
;
Structure prediction by ZEFSAII (Michael W. Deem and Ramdas Pophale) SiO2 
 PCOD8302231
Probable space group: I 41
;
_chemical_formula_sum "Si O2"
_cell_formula_units_Z 36
_cell_length_a 16.005324
_cell_length_b 16.005324
_cell_length_c 6.762338
_cell_angle_alpha 90.000000
_cell_angle_beta 90.000000
_cell_angle_gamma 90.000000
_cell_volume 1732.310806
_symmetry_space_group_name_H-M "I 41"
_symmetry_group_IT_number 80
_symmetry_cell_setting 'tetragonal'
loop_
_space_group_symop_operation_xyz
x,y,z
-y,1/2+x,1/4+z
-x,-y,z
y,1/2-x,1/4+z
1/2+x,1/2+y,1/2+z
1/2-y,x,3/4+z
1/2-x,1/2-y,1/2+z
1/2+y,-x,3/4+z
loop_
_atom_site_type_symbol
_atom_site_label
_atom_site_fract_x
_atom_site_fract_y
_atom_site_fract_z
Si Si1 0.913088 0.402234 0.627250
Si Si2 0.114936 0.054968 0.049843
Si Si3 0.366651 0.754286 0.373501
Si Si4 0.207853 0.489699 0.403482
Si Si5 0.500000 0.500000 0.209864
O O1 0.889807 0.307472 0.679307
O O2 0.828379 0.443140 0.554098
O O3 0.934966 0.450317 0.826960
O O4 0.984747 0.409741 0.460726
O O5 0.211993 0.052344 0.001649
O O6 0.067407 0.045089 0.844594
O O7 0.088425 0.145504 0.128287
O O8 0.321532 0.807917 0.548306
O O9 0.456568 0.723251 0.454283
#
# Coordination Sequence:
#
# PCOD8302231 Si02
#       5
#     8   8   8   8   4
#     4  12  23  45  71  99 133 182 231 279 350 413
#     4  12  25  45  69 102 137 178 234 282 342 421
#     4  12  24  41  67 104 140 178 225 296 358 405
#     4  12  24  44  68  99 140 179 231 287 336 421
#     4  12  20  46  70 100 132 184 228 268 354 410
#
# _framework density 20.781488
#
# number of rings (size 3 to 8) (size 9 to 14) (size 15 to 20)
#    0.000    0.000    6.667    5.333    0.000    0.000 
#    0.000    4.444    0.000    0.000    0.000    0.000 
#    0.000    0.000    0.000    0.000    0.000    0.000 
#
# Total GULP energy -223221.156145 kJ/mol
# GULP energy per Si atom -12401.175341 kJ/mol
# Density = 2.073419 g / cm^3
# Si number density = 20.781488 Si / 1000 Ang^3
#
#
#
# Elastic Constant Matrix: (Units=GPa)
#
#
# Indices 1 2 3 4 5 6 
#
# 1 122.3102 27.2408 27.4478 0.0000 0.0000 4.1794
# 2 27.2408 122.3102 27.4478 0.0000 0.0000 -4.1794
# 3 27.4478 27.4478 88.6349 0.0000 0.0000 0.0000
# 4 0.0000 0.0000 0.0000 45.8537 0.0000 0.0000
# 5 0.0000 0.0000 0.0000 0.0000 45.8537 0.0000
# 6 4.1794 -4.1794 0.0000 0.0000 0.0000 30.6229
#
#
#
# Elastic Compliance Matrix: (Units=1/GPa)
#
#
# Indices 1 2 3 4 5 6 
#
# 1 0.009095 -0.001551 -0.002336 0.000000 0.000000 -0.001453
# 2 -0.001551 0.009095 -0.002336 0.000000 0.000000 0.001453
# 3 -0.002336 -0.002336 0.012729 0.000000 0.000000 0.000000
# 4 0.000000 0.000000 0.000000 0.021808 0.000000 0.000000
# 5 0.000000 0.000000 0.000000 0.000000 0.021808 0.000000
# 6 -0.001453 0.001453 0.000000 0.000000 0.000000 0.033052
#
#
# Mechanical properties :
#
#
# Convention : Reuss Voigt Hill
#
# Bulk Modulus (GPa) = 54.13397 55.28089 54.70743
# Shear Modulus (GPa) = 39.62174 41.20733 40.41454
#
# Velocity S-wave (km/s) = 4.37119 4.45779 4.41470
# Velocity P-wave (km/s) = 7.18206 7.29072 7.23660
#
# Compressibility (1/GPa) = 0.01847269
#
# Stress axis : x y z
#
# Youngs Moduli (GPa) = 109.94666 109.94666 78.55969
#
# Poissons Ratio (x) = 0.17054 0.18353
# Poissons Ratio (y) = 0.17054 0.18353
# Poissons Ratio (z) = 0.25686 0.25686
#
# Static dielectric constant tensor:
#      x y z
#    x 2.251900 0.000000 0.000000 
#    y 0.000000 2.251900 0.000000 
#    z 0.000000 0.000000 4.141220 
# 
# 
# High freq. dielectric constant tensor:
#      x y z
#    x 1.815230 0.000000 0.000000 
#    y 0.000000 1.815230 0.000000 
#    z 0.000000 0.000000 1.827250 
# 
# From -- ./inp_files/195.got.cif
#   From: 2010.03.12/outbox.cif.g09.slc.cpg/sg80_cif.got.tgz:195.got - 2010.04.08 20:00:04.
