data_PCOD8302456
_publ_section_title
;
Structure prediction by ZEFSAII (Michael W. Deem and Ramdas Pophale) SiO2 
 PCOD8302456
Probable space group: I -4 
;
_chemical_formula_sum "Si O2"
_cell_formula_units_Z 40
_cell_length_a 8.637530
_cell_length_b 8.637530
_cell_length_c 23.864348
_cell_angle_alpha 90.000000
_cell_angle_beta 90.000000
_cell_angle_gamma 90.000000
_cell_volume 1780.445609
_symmetry_space_group_name_H-M "I -4 "
_symmetry_group_IT_number 82
_symmetry_cell_setting 'tetragonal'
loop_
_space_group_symop_operation_xyz
x,y,z
y,-x,-z
-x,-y,z
-y,x,-z
1/2+x,1/2+y,1/2+z
1/2+y,1/2-x,1/2-z
1/2-x,1/2-y,1/2+z
1/2-y,1/2+x,1/2-z
loop_
_atom_site_type_symbol
_atom_site_label
_atom_site_fract_x
_atom_site_fract_y
_atom_site_fract_z
Si Si1 0.160184 0.907783 0.665139
Si Si2 0.865838 0.288760 0.764563
Si Si3 0.231549 0.908925 0.986815
Si Si4 0.707417 0.234128 0.878982
Si Si5 0.670266 0.959252 0.417694
O O1 0.209371 0.845238 0.726196
O O2 0.155845 0.757598 0.624898
O O3 0.284869 0.033183 0.644286
O O4 0.000000 0.000000 0.668350
O O5 0.788947 0.452185 0.749120
O O6 0.832361 0.244961 0.828910
O O7 0.264773 0.910636 0.920050
O O8 0.378944 0.845553 0.021580
O O9 0.084431 0.799311 0.996554
O O10 0.727371 0.384248 0.919942
O O11 0.500000 0.000000 0.393078
#
# Coordination Sequence:
#
# PCOD8302456 Si02
#       5
#     8   8   8   8   8
#     4  10  22  41  65 104 130 169 230 281 333 398
#     4  11  21  39  69  96 127 174 227 276 335 410
#     4  11  26  45  65 102 138 179 226 282 344 402
#     4  11  24  44  67  99 136 175 227 283 336 401
#     4  11  21  43  70  96 131 175 224 276 331 402
#
# _framework density 22.466286
#
# number of rings (size 3 to 8) (size 9 to 14) (size 15 to 20)
#    0.000    1.200    6.000    1.200    2.800    0.000 
#    7.200    0.000    0.000    0.000    0.000    0.000 
#    0.000    0.000    0.000    0.000    0.000    0.000 
#
# Total GULP energy -247951.776082 kJ/mol
# GULP energy per Si atom -12397.588804 kJ/mol
# Density = 2.241515 g / cm^3
# Si number density = 22.466286 Si / 1000 Ang^3
#
#
#
# Elastic Constant Matrix: (Units=GPa)
#
#
# Indices 1 2 3 4 5 6 
#
# 1 88.1006 6.7974 51.3750 0.0000 0.0000 -9.8019
# 2 6.7974 88.1006 51.3750 0.0000 0.0000 9.8019
# 3 51.3750 51.3750 171.6166 0.0000 0.0000 0.0000
# 4 0.0000 0.0000 0.0000 37.4605 0.0000 0.0000
# 5 0.0000 0.0000 0.0000 0.0000 37.4605 0.0000
# 6 -9.8019 9.8019 0.0000 0.0000 0.0000 12.6135
#
#
#
# Elastic Compliance Matrix: (Units=1/GPa)
#
#
# Indices 1 2 3 4 5 6 
#
# 1 0.015363 0.000228 -0.004667 0.000000 0.000000 0.011762
# 2 0.000228 0.015363 -0.004667 0.000000 0.000000 -0.011762
# 3 -0.004667 -0.004667 0.008621 0.000000 0.000000 0.000000
# 4 0.000000 0.000000 0.000000 0.026695 0.000000 0.000000
# 5 0.000000 0.000000 0.000000 0.000000 0.026695 0.000000
# 6 0.011762 -0.011762 0.000000 0.000000 0.000000 0.097560
#
#
# Mechanical properties :
#
#
# Convention : Reuss Voigt Hill
#
# Bulk Modulus (GPa) = 47.31648 62.99030 55.15339
# Shear Modulus (GPa) = 23.19579 33.39160 28.29370
#
# Velocity S-wave (km/s) = 3.21669 3.85944 3.55263
# Velocity P-wave (km/s) = 5.90788 6.92524 6.43669
#
# Compressibility (1/GPa) = 0.02113428
#
# Stress axis : x y z
#
# Youngs Moduli (GPa) = 65.08972 65.08970 115.99063
#
# Poissons Ratio (x) = -0.01483 0.54137
# Poissons Ratio (y) = -0.01483 0.54137
# Poissons Ratio (z) = 0.30380 0.30380
#
# Static dielectric constant tensor:
#      x y z
#    x 4.080350 0.000000 0.000000 
#    y 0.000000 4.080350 0.000000 
#    z 0.000000 0.000000 4.077830 
# 
# 
# High freq. dielectric constant tensor:
#      x y z
#    x 1.871510 0.000000 0.000000 
#    y 0.000000 1.871510 0.000000 
#    z 0.000000 0.000000 1.889080 
# 
# From -- ./inp_files/3340.got.cif
#   From: 2010.03.12/outbox.cif.g09.slc.cpg/sg82_2_cif.got.tgz:3340.got - 2010.04.08 20:02:50.
