data_PCOD8302285
_publ_section_title
;
Structure prediction by ZEFSAII (Michael W. Deem and Ramdas Pophale) SiO2 
 PCOD8302285
Probable space group: P -4
;
_chemical_formula_sum "Si O2"
_cell_formula_units_Z 16
_cell_length_a 7.704879
_cell_length_b 7.704879
_cell_length_c 13.474225
_cell_angle_alpha 90.000000
_cell_angle_beta 90.000000
_cell_angle_gamma 90.000000
_cell_volume 799.899528
_symmetry_space_group_name_H-M "P -4"
_symmetry_group_IT_number 81
_symmetry_cell_setting 'tetragonal'
loop_
_space_group_symop_operation_xyz
x,y,z
y,-x,-z
-x,-y,z
-y,x,-z
loop_
_atom_site_type_symbol
_atom_site_label
_atom_site_fract_x
_atom_site_fract_y
_atom_site_fract_z
Si Si1 0.999833 0.700015 0.349285
Si Si2 0.699486 0.699434 0.500129
Si Si3 0.297938 0.316305 0.998201
Si Si4 0.194637 0.006191 0.869633
O O1 0.826404 0.747807 0.409994
O O2 0.998323 0.808182 0.248813
O O3 0.000000 0.500000 0.319455
O O4 0.173810 0.747671 0.409602
O O5 0.729398 0.499909 0.534164
O O6 0.275180 0.187155 0.905901
O O7 0.283532 0.511395 0.955135
O O8 0.158394 0.294761 0.085516
O O9 0.000000 0.000000 0.909629
#
# Coordination Sequence:
#
# PCOD8302285 Si02
#       4
#     4   4   4   4
#     4  10  22  38  60  87 120 157 198 246 292 353
#     4   9  20  39  60  86 120 157 198 243 292 346
#     4  11  23  42  66  88 121 163 202 250 302 357
#     4  12  24  40  62  94 125 160 200 253 301 363
#
# _framework density 20.002514000000001
#
# number of rings (size 3 to 8) (size 9 to 14) (size 15 to 20)
#    0.000    1.500    2.500    2.250    3.500    2.000 
#    0.000    5.000    0.000    0.000    0.000    0.000 
#    0.000    0.000    0.000    0.000    0.000    0.000 
#
# Total GULP energy -198426.445755 kJ/mol
# GULP energy per Si atom -12401.652860 kJ/mol
# Density = 1.995699 g / cm^3
# Si number density = 20.002514 Si / 1000 Ang^3
#
#
#
# Elastic Constant Matrix: (Units=GPa)
#
#
# Indices 1 2 3 4 5 6 
#
# 1 91.4662 7.0693 34.2731 0.0000 0.0000 -0.2023
# 2 7.0693 91.4662 34.2731 0.0000 0.0000 0.2023
# 3 34.2731 34.2731 118.4044 0.0000 0.0000 0.0000
# 4 0.0000 0.0000 0.0000 20.6630 0.0000 0.0000
# 5 0.0000 0.0000 0.0000 0.0000 20.6630 0.0000
# 6 -0.2023 0.2023 0.0000 0.0000 0.0000 24.7719
#
#
#
# Elastic Compliance Matrix: (Units=1/GPa)
#
#
# Indices 1 2 3 4 5 6 
#
# 1 0.012278 0.000429 -0.003678 0.000000 0.000000 0.000097
# 2 0.000429 0.012278 -0.003678 0.000000 0.000000 -0.000097
# 3 -0.003678 -0.003678 0.010575 0.000000 0.000000 0.000000
# 4 0.000000 0.000000 0.000000 0.048396 0.000000 0.000000
# 5 0.000000 0.000000 0.000000 0.000000 0.048396 0.000000
# 6 0.000097 -0.000097 0.000000 0.000000 0.000000 0.040370
#
#
# Mechanical properties :
#
#
# Convention : Reuss Voigt Hill
#
# Bulk Modulus (GPa) = 46.99952 50.28530 48.64241
# Shear Modulus (GPa) = 25.87453 28.26766 27.07109
#
# Velocity S-wave (km/s) = 3.60052 3.76334 3.68283
# Velocity P-wave (km/s) = 6.39005 6.63910 6.51577
#
# Compressibility (1/GPa) = 0.02127681
#
# Stress axis : x y z
#
# Youngs Moduli (GPa) = 81.44434 81.44434 94.56234
#
# Poissons Ratio (x) = -0.03495 0.34782
# Poissons Ratio (y) = -0.03495 0.34782
# Poissons Ratio (z) = 0.29957 0.29957
#
# Static dielectric constant tensor:
#      x y z
#    x 3.835280 0.000000 0.000000 
#    y 0.000000 3.835280 0.000000 
#    z 0.000000 0.000000 3.267350 
# 
# 
# High freq. dielectric constant tensor:
#      x y z
#    x 1.796800 0.000000 0.000000 
#    y 0.000000 1.796800 0.000000 
#    z 0.000000 0.000000 1.757810 
# 
# From -- ./inp_files/1104.got.cif
#   From: 2010.03.12/outbox.cif.g09.slc.cpg/sg81_cif.got.tgz:1104.got - 2010.04.08 20:01:38.
