data_PCOD8302326
_publ_section_title
;
Structure prediction by ZEFSAII (Michael W. Deem and Ramdas Pophale) SiO2 
 PCOD8302326
Probable space group: P -4
;
_chemical_formula_sum "Si O2"
_cell_formula_units_Z 15
_cell_length_a 8.340491
_cell_length_b 8.340491
_cell_length_c 9.277854
_cell_angle_alpha 90.000000
_cell_angle_beta 90.000000
_cell_angle_gamma 90.000000
_cell_volume 645.402688
_symmetry_space_group_name_H-M "P -4"
_symmetry_group_IT_number 81
_symmetry_cell_setting 'tetragonal'
loop_
_space_group_symop_operation_xyz
x,y,z
y,-x,-z
-x,-y,z
-y,x,-z
loop_
_atom_site_type_symbol
_atom_site_label
_atom_site_fract_x
_atom_site_fract_y
_atom_site_fract_z
Si Si1 0.283578 0.185754 0.108310
Si Si2 0.532256 0.822246 0.815300
Si Si3 0.312446 0.401968 0.575641
Si Si4 0.500000 0.000000 0.329799
Si Si5 0.000000 0.000000 0.000000
O O1 0.265736 0.373218 0.132661
O O2 0.395194 0.115565 0.231890
O O3 0.356984 0.151589 0.952711
O O4 0.113102 0.097566 0.109580
O O5 0.624356 0.703865 0.707000
O O6 0.500000 0.000000 0.747218
O O7 0.348055 0.598581 0.574736
O O8 0.118125 0.389456 0.571248
#
# Coordination Sequence:
#
# PCOD8302326 Si02
#       5
#     4   4   4   2   1
#     4  12  23  43  72 116 155 199 252 327 409 453
#     4  12  25  44  77 111 156 204 259 325 387 471
#     4  11  26  50  73 106 146 210 261 305 371 468
#     4  12  26  48  78 110 150 200 264 326 388 462
#     4  12  20  36  64 108 166 180 240 312 400 466
#
# _framework density 23.241306000000002
#
# number of rings (size 3 to 8) (size 9 to 14) (size 15 to 20)
#    0.000    0.267    4.000    6.400    1.867    2.667 
#    0.000    0.000    0.000    0.000    0.000    0.000 
#    0.000    0.000    0.000    0.000    0.000    0.000 
#
# Total GULP energy -185828.918018 kJ/mol
# GULP energy per Si atom -12388.594535 kJ/mol
# Density = 2.318841 g / cm^3
# Si number density = 23.241306 Si / 1000 Ang^3
#
#
#
# Elastic Constant Matrix: (Units=GPa)
#
#
# Indices 1 2 3 4 5 6 
#
# 1 149.3051 49.2500 50.4130 0.0000 0.0000 -4.2105
# 2 49.2500 149.3051 50.4130 0.0000 0.0000 4.2105
# 3 50.4130 50.4130 80.7437 0.0000 0.0000 0.0000
# 4 0.0000 0.0000 0.0000 29.6544 0.0000 0.0000
# 5 0.0000 0.0000 0.0000 0.0000 29.6544 0.0000
# 6 -4.2105 4.2105 0.0000 0.0000 0.0000 47.3372
#
#
#
# Elastic Compliance Matrix: (Units=1/GPa)
#
#
# Indices 1 2 3 4 5 6 
#
# 1 0.008722 -0.001348 -0.004604 0.000000 0.000000 0.000896
# 2 -0.001348 0.008722 -0.004604 0.000000 0.000000 -0.000896
# 3 -0.004604 -0.004604 0.018134 0.000000 0.000000 0.000000
# 4 0.000000 0.000000 0.000000 0.033722 0.000000 0.000000
# 5 0.000000 0.000000 0.000000 0.000000 0.033722 0.000000
# 6 0.000896 -0.000896 0.000000 0.000000 0.000000 0.021284
#
#
# Mechanical properties :
#
#
# Convention : Reuss Voigt Hill
#
# Bulk Modulus (GPa) = 69.12746 75.50066 72.31406
# Shear Modulus (GPa) = 33.27982 36.61441 34.94712
#
# Velocity S-wave (km/s) = 3.78818 3.97344 3.88192
# Velocity P-wave (km/s) = 6.99584 7.32168 7.16061
#
# Compressibility (1/GPa) = 0.01446603
#
# Stress axis : x y z
#
# Youngs Moduli (GPa) = 114.65050 114.65050 55.14397
#
# Poissons Ratio (x) = 0.15452 0.25390
# Poissons Ratio (y) = 0.15452 0.25390
# Poissons Ratio (z) = 0.52789 0.52789
#
# Static dielectric constant tensor:
#      x y z
#    x 4.694550 0.000000 0.000000 
#    y 0.000000 4.694550 0.000000 
#    z 0.000000 0.000000 4.056620 
# 
# 
# High freq. dielectric constant tensor:
#      x y z
#    x 1.934810 0.000000 0.000000 
#    y 0.000000 1.934810 0.000000 
#    z 0.000000 0.000000 1.903020 
# 
# From -- ./inp_files/644.got.cif
#   From: 2010.03.12/outbox.cif.g09.slc.cpg/sg81_cif.got.tgz:644.got - 2010.04.08 20:01:38.
