data_PCOD8302208
_publ_section_title
;
Structure prediction by ZEFSAII (Michael W. Deem and Ramdas Pophale) SiO2 
 PCOD8302208
Probable space group: I 41
;
_chemical_formula_sum "Si O2"
_cell_formula_units_Z 56
_cell_length_a 11.976142
_cell_length_b 11.976142
_cell_length_c 20.393792
_cell_angle_alpha 90.000000
_cell_angle_beta 90.000000
_cell_angle_gamma 90.000000
_cell_volume 2925.040334
_symmetry_space_group_name_H-M "I 41"
_symmetry_group_IT_number 80
_symmetry_cell_setting 'tetragonal'
loop_
_space_group_symop_operation_xyz
x,y,z
-y,1/2+x,1/4+z
-x,-y,z
y,1/2-x,1/4+z
1/2+x,1/2+y,1/2+z
1/2-y,x,3/4+z
1/2-x,1/2-y,1/2+z
1/2+y,-x,3/4+z
loop_
_atom_site_type_symbol
_atom_site_label
_atom_site_fract_x
_atom_site_fract_y
_atom_site_fract_z
Si Si1 0.746607 0.184478 0.139630
Si Si2 0.648066 0.429567 0.428938
Si Si3 0.125426 0.012225 0.076614
Si Si4 0.239322 0.838670 0.519740
Si Si5 0.626930 0.767679 0.588888
Si Si6 0.485777 0.870625 0.486147
Si Si7 0.259898 0.018838 0.616408
O O1 0.836376 0.257012 0.179801
O O2 0.698156 0.250098 0.075886
O O3 0.659317 0.171404 0.200509
O O4 0.791640 0.063892 0.119097
O O5 0.625034 0.474346 0.501393
O O6 0.702393 0.526755 0.386928
O O7 0.534723 0.375188 0.397730
O O8 0.165634 0.139245 0.088578
O O9 0.000000 0.000000 0.104021
O O10 0.371456 0.815590 0.511532
O O11 0.230484 0.964464 0.546604
O O12 0.586120 0.798333 0.516189
O O13 0.729583 0.848008 0.607930
O O14 0.493629 0.849871 0.408989
O O15 0.500000 0.000000 0.504466
#
# Coordination Sequence:
#
# PCOD8302208 Si02
#       7
#     8   8   8   8   8   8   8
#     4  11  20  34  58  88 118 162 205 243 300 367
#     4  11  19  33  55  86 126 153 189 249 309 363
#     4  12  22  34  55  88 128 160 200 251 311 372
#     4  11  19  35  60  84 120 153 201 250 302 363
#     4  12  21  33  55  92 126 155 190 254 316 373
#     4  12  20  34  60  91 117 154 198 254 313 370
#     4  11  22  36  57  88 121 152 196 253 311 362
#
# _framework density 19.145033999999999
#
# number of rings (size 3 to 8) (size 9 to 14) (size 15 to 20)
#    0.000    0.571   10.000    3.000    0.000    0.000 
#    0.000    0.000    6.286    0.000    0.000    1.000 
#    0.000    0.000    0.000    0.000    0.000    0.000 
#
# Total GULP energy -347004.523491 kJ/mol
# GULP energy per Si atom -12393.018696 kJ/mol
# Density = 1.910146 g / cm^3
# Si number density = 19.145034 Si / 1000 Ang^3
#
#
#
# Elastic Constant Matrix: (Units=GPa)
#
#
# Indices 1 2 3 4 5 6 
#
# 1 79.8054 26.4546 34.5398 0.0000 0.0000 9.8574
# 2 26.4546 79.8054 34.5398 0.0000 0.0000 -9.8574
# 3 34.5398 34.5398 118.5906 0.0000 0.0000 0.0000
# 4 0.0000 0.0000 0.0000 23.8988 0.0000 0.0000
# 5 0.0000 0.0000 0.0000 0.0000 23.8988 0.0000
# 6 9.8574 -9.8574 0.0000 0.0000 0.0000 12.4932
#
#
#
# Elastic Compliance Matrix: (Units=1/GPa)
#
#
# Indices 1 2 3 4 5 6 
#
# 1 0.019034 -0.007425 -0.003381 0.000000 0.000000 -0.020876
# 2 -0.007425 0.019034 -0.003381 0.000000 0.000000 0.020876
# 3 -0.003381 -0.003381 0.010402 0.000000 0.000000 0.000000
# 4 0.000000 0.000000 0.000000 0.041843 0.000000 0.000000
# 5 0.000000 0.000000 0.000000 0.000000 0.041843 0.000000
# 6 -0.020876 0.020876 0.000000 0.000000 0.000000 0.112987
#
#
# Mechanical properties :
#
#
# Convention : Reuss Voigt Hill
#
# Bulk Modulus (GPa) = 49.76298 52.14111 50.95205
# Shear Modulus (GPa) = 17.84349 24.23597 21.03973
#
# Velocity S-wave (km/s) = 3.05621 3.56183 3.31866
# Velocity P-wave (km/s) = 6.20507 6.64902 6.43088
#
# Compressibility (1/GPa) = 0.02009526
#
# Stress axis : x y z
#
# Youngs Moduli (GPa) = 52.53876 52.53876 96.13623
#
# Poissons Ratio (x) = 0.39008 0.32505
# Poissons Ratio (y) = 0.39008 0.32505
# Poissons Ratio (z) = 0.17764 0.17764
#
# Static dielectric constant tensor:
#      x y z
#    x 3.413320 0.000000 0.000000 
#    y 0.000000 3.413320 0.000000 
#    z 0.000000 0.000000 3.764390 
# 
# 
# High freq. dielectric constant tensor:
#      x y z
#    x 1.715440 0.000000 0.000000 
#    y 0.000000 1.715440 0.000000 
#    z 0.000000 0.000000 1.755130 
# 
# From -- ./inp_files/1811.got.cif
#   From: 2010.03.12/outbox.cif.g09.slc.cpg/sg80_cif.got.tgz:1811.got - 2010.04.08 20:00:04.
