data_PCOD8302222
_publ_section_title
;
Structure prediction by ZEFSAII (Michael W. Deem and Ramdas Pophale) SiO2 
 PCOD8302222
Probable space group: I 41
;
_chemical_formula_sum "Si O2"
_cell_formula_units_Z 52
_cell_length_a 18.929617
_cell_length_b 18.929617
_cell_length_c 6.741273
_cell_angle_alpha 90.000000
_cell_angle_beta 90.000000
_cell_angle_gamma 90.000000
_cell_volume 2415.603049
_symmetry_space_group_name_H-M "I 41"
_symmetry_group_IT_number 80
_symmetry_cell_setting 'tetragonal'
loop_
_space_group_symop_operation_xyz
x,y,z
-y,1/2+x,1/4+z
-x,-y,z
y,1/2-x,1/4+z
1/2+x,1/2+y,1/2+z
1/2-y,x,3/4+z
1/2-x,1/2-y,1/2+z
1/2+y,-x,3/4+z
loop_
_atom_site_type_symbol
_atom_site_label
_atom_site_fract_x
_atom_site_fract_y
_atom_site_fract_z
Si Si1 0.829113 0.194368 0.795150
Si Si2 0.144585 0.953251 0.974101
Si Si3 0.825849 0.689320 0.729009
Si Si4 0.000000 0.500000 0.372234
Si Si5 0.045286 0.257314 0.947267
Si Si6 0.043486 0.145971 0.276501
Si Si7 0.043841 0.756172 0.551829
O O1 0.751928 0.175580 0.717473
O O2 0.877350 0.222487 0.615995
O O3 0.863371 0.125746 0.893125
O O4 0.066521 0.984563 0.982853
O O5 0.180679 0.953185 0.191465
O O6 0.187005 0.002255 0.824699
O O7 0.824556 0.747618 0.557451
O O8 0.875937 0.713359 0.910264
O O9 0.856029 0.618435 0.634075
O O10 0.933604 0.516736 0.510744
O O11 0.007769 0.246918 0.737898
O O12 0.050997 0.182784 0.061088
O O13 0.983889 0.185465 0.401174
#
# Coordination Sequence:
#
# PCOD8302222 Si02
#       7
#     8   8   8   4   8   8   8
#     4  12  25  43  74 110 144 191 242 294 363 436
#     4  11  27  46  70 105 144 188 244 295 359 432
#     4  12  25  43  74 110 144 191 242 294 363 436
#     4  12  28  44  78 104 140 194 240 300 354 428
#     4  11  24  48  71  98 149 190 232 300 361 419
#     4  11  27  46  70 105 144 188 244 295 359 432
#     4  11  24  48  71  98 149 190 232 300 361 419
#
# _framework density 21.526717000000001
#
# number of rings (size 3 to 8) (size 9 to 14) (size 15 to 20)
#    0.000    0.615    3.077    3.692    8.615    2.462 
#    0.000    1.538    0.000    0.000    0.000    0.000 
#    0.000    0.000    0.000    0.000    0.000    0.000 
#
# Total GULP energy -322618.696102 kJ/mol
# GULP energy per Si atom -12408.411389 kJ/mol
# Density = 2.147772 g / cm^3
# Si number density = 21.526717 Si / 1000 Ang^3
#
#
#
# Elastic Constant Matrix: (Units=GPa)
#
#
# Indices 1 2 3 4 5 6 
#
# 1 117.3961 20.8310 21.2328 0.0000 0.0000 -6.4784
# 2 20.8310 117.3961 21.2328 0.0000 0.0000 6.4784
# 3 21.2328 21.2328 84.9105 0.0000 0.0000 0.0000
# 4 0.0000 0.0000 0.0000 33.3993 0.0000 0.0000
# 5 0.0000 0.0000 0.0000 0.0000 33.3993 0.0000
# 6 -6.4784 6.4784 0.0000 0.0000 0.0000 28.6939
#
#
#
# Elastic Compliance Matrix: (Units=1/GPa)
#
#
# Indices 1 2 3 4 5 6 
#
# 1 0.009258 -0.001421 -0.001960 0.000000 0.000000 0.002411
# 2 -0.001421 0.009258 -0.001960 0.000000 0.000000 -0.002411
# 3 -0.001960 -0.001960 0.012757 0.000000 0.000000 0.000000
# 4 0.000000 0.000000 0.000000 0.029941 0.000000 0.000000
# 5 0.000000 0.000000 0.000000 0.000000 0.029941 0.000000
# 6 0.002411 -0.002411 0.000000 0.000000 0.000000 0.035939
#
#
# Mechanical properties :
#
#
# Convention : Reuss Voigt Hill
#
# Bulk Modulus (GPa) = 48.56318 49.58842 49.07580
# Shear Modulus (GPa) = 34.56892 36.19228 35.38060
#
# Velocity S-wave (km/s) = 4.01167 4.10478 4.05849
# Velocity P-wave (km/s) = 6.63826 6.74918 6.69395
#
# Compressibility (1/GPa) = 0.02059173
#
# Stress axis : x y z
#
# Youngs Moduli (GPa) = 108.01640 108.01640 78.38749
#
# Poissons Ratio (x) = 0.15353 0.15361
# Poissons Ratio (y) = 0.15353 0.15361
# Poissons Ratio (z) = 0.21167 0.21167
#
# Static dielectric constant tensor:
#      x y z
#    x 4.127310 0.000000 0.000000 
#    y 0.000000 4.127310 0.000000 
#    z 0.000000 0.000000 4.042270 
# 
# 
# High freq. dielectric constant tensor:
#      x y z
#    x 1.860980 0.000000 0.000000 
#    y 0.000000 1.860980 0.000000 
#    z 0.000000 0.000000 1.847990 
# 
# From -- ./inp_files/330.got.cif
#   From: 2010.03.12/outbox.cif.g09.slc.cpg/sg80_cif.got.tgz:330.got - 2010.04.08 20:00:04.
