data_PCOD8302935
_publ_section_title
;
Structure prediction by ZEFSAII (Michael W. Deem and Ramdas Pophale) SiO2 
 PCOD8302935
Probable space group: P 4/M
;
_chemical_formula_sum "Si O2"
_cell_formula_units_Z 48
_cell_length_a 8.244510
_cell_length_b 8.244510
_cell_length_c 31.515002
_cell_angle_alpha 90.000000
_cell_angle_beta 90.000000
_cell_angle_gamma 90.000000
_cell_volume 2142.135987
_symmetry_space_group_name_H-M "P 4/M"
_symmetry_group_IT_number 83
_symmetry_cell_setting 'tetragonal'
loop_
_space_group_symop_operation_xyz
x,y,z
-y,x,z
-x,-y,z
y,-x,z
-x,-y,-z
y,-x,-z
x,y,-z
-y,x,-z
loop_
_atom_site_type_symbol
_atom_site_label
_atom_site_fract_x
_atom_site_fract_y
_atom_site_fract_z
Si Si1 0.891189 0.246841 0.739641
Si Si2 0.750264 0.901762 0.579901
Si Si3 0.754225 0.896655 0.831190
Si Si4 0.247375 0.586267 0.000000
Si Si5 0.398857 0.252464 0.340394
Si Si6 0.597040 0.750487 0.500000
Si Si7 0.748876 0.902222 0.922587
O O1 0.857624 0.332653 0.786063
O O2 0.833369 0.374624 0.704852
O O3 0.080998 0.209288 0.734261
O O4 0.654414 0.872369 0.623403
O O5 0.633083 0.857426 0.541235
O O6 0.910169 0.792586 0.577419
O O7 0.664116 0.863595 0.876253
O O8 0.915430 0.792996 0.831219
O O9 0.296002 0.400634 0.000000
O O10 0.141085 0.618774 0.958258
O O11 0.587023 0.291460 0.345100
O O12 0.409032 0.707028 0.500000
O O13 0.909959 0.794469 0.927609
#
# Coordination Sequence:
#
# PCOD8302935 Si02
#       7
#     8   8   8   4   8   4   8
#     4   9  17  32  56  83 108 136 172 214 262 317
#     4  11  24  41  62  88 114 143 185 232 274 319
#     4   7  12  26  50  79 106 128 158 208 263 311
#     4  11  24  37  46  64 100 141 174 207 254 310
#     4  11  24  39  54  77 111 149 187 225 267 316
#     4  11  24  41  62  90 122 153 184 219 264 320
#     4   9  17  32  56  81 100 124 165 215 263 311
#
# _framework density 22.407540999999998
#
# number of rings (size 3 to 8) (size 9 to 14) (size 15 to 20)
#    0.000    2.333    0.000    5.000    0.000   10.667 
#    0.000    1.667    0.000    8.000    0.000    0.000 
#    0.000    0.000    0.000    0.000    0.000    0.000 
#
# Total GULP energy -594916.077125 kJ/mol
# GULP energy per Si atom -12394.084940 kJ/mol
# Density = 2.235654 g / cm^3
# Si number density = 22.407541 Si / 1000 Ang^3
#
#
#
# Elastic Constant Matrix: (Units=GPa)
#
#
# Indices 1 2 3 4 5 6 
#
# 1 22.5087 -7.3211 6.0268 0.0000 0.0000 0.1457
# 2 -7.3211 22.5087 6.0268 0.0000 0.0000 -0.1457
# 3 6.0268 6.0268 178.2435 0.0000 0.0000 0.0000
# 4 0.0000 0.0000 0.0000 -16.1216 0.0000 0.0000
# 5 0.0000 0.0000 0.0000 0.0000 -16.1216 0.0000
# 6 0.1457 -0.1457 0.0000 0.0000 0.0000 29.6734
#
#
#
# Elastic Compliance Matrix: (Units=1/GPa)
#
#
# Indices 1 2 3 4 5 6 
#
# 1 0.050592 0.017067 -0.002288 0.000000 0.000000 -0.000165
# 2 0.017067 0.050592 -0.002288 0.000000 0.000000 0.000165
# 3 -0.002288 -0.002288 0.005765 0.000000 0.000000 0.000000
# 4 0.000000 0.000000 0.000000 -0.062029 0.000000 0.000000
# 5 0.000000 0.000000 0.000000 0.000000 -0.062029 0.000000
# 6 -0.000165 0.000165 0.000000 0.000000 0.000000 0.033702
#
#
# Mechanical properties :
#
#
# Convention : Reuss Voigt Hill
#
# Bulk Modulus (GPa) = 7.57967 25.85842 16.71905
# Shear Modulus (GPa) = 140.49721 14.05460 77.27591
#
# Velocity S-wave (km/s) = 7.92698 2.50717 5.87890
# Velocity P-wave (km/s) = 9.33663 4.46613 7.31843
#
# Compressibility (1/GPa) = 0.13193190
#
# Stress axis : x y z
#
# Youngs Moduli (GPa) = 19.76597 19.76597 173.46039
#
# Poissons Ratio (x) = -0.33734 0.39682
# Poissons Ratio (y) = -0.33734 0.39682
# Poissons Ratio (z) = 0.04522 0.04522
#
# Static dielectric constant tensor:
#      x y z
#    x 3.755080 0.000000 0.000000 
#    y 0.000000 3.755080 0.000000 
#    z 0.000000 0.000000 4.553980 
# 
# 
# High freq. dielectric constant tensor:
#      x y z
#    x 1.863270 0.000000 0.000000 
#    y 0.000000 1.863270 0.000000 
#    z 0.000000 0.000000 1.908960 
# 
# From -- ./inp_files/3492.got.cif
#   From: 2010.03.12/outbox.cif.g09.slc.cpg/sg83_2_cif.got.tgz:3492.got - 2010.04.08 20:05:18.
