data_PCOD8302997
_publ_section_title
;
Structure prediction by ZEFSAII (Michael W. Deem and Ramdas Pophale) SiO2 
 PCOD8302997
Probable space group: P 4/M
;
_chemical_formula_sum "Si O2"
_cell_formula_units_Z 40
_cell_length_a 8.374220
_cell_length_b 8.374220
_cell_length_c 26.723884
_cell_angle_alpha 90.000000
_cell_angle_beta 90.000000
_cell_angle_gamma 90.000000
_cell_volume 1874.080795
_symmetry_space_group_name_H-M "P 4/M"
_symmetry_group_IT_number 83
_symmetry_cell_setting 'tetragonal'
loop_
_space_group_symop_operation_xyz
x,y,z
-y,x,z
-x,-y,z
y,-x,z
-x,-y,-z
y,-x,-z
x,y,-z
-y,x,-z
loop_
_atom_site_type_symbol
_atom_site_label
_atom_site_fract_x
_atom_site_fract_y
_atom_site_fract_z
Si Si1 0.748087 0.582205 0.705600
Si Si2 0.749074 0.925142 0.443714
Si Si3 0.903645 0.753912 0.092349
Si Si4 0.743481 0.596856 0.818772
Si Si5 0.500000 0.000000 0.631752
Si Si6 0.598292 0.253590 0.000000
O O1 0.600856 0.698605 0.696185
O O2 0.808137 0.612034 0.762146
O O3 0.890983 0.614422 0.666783
O O4 0.681991 0.904685 0.500000
O O5 0.610176 0.889078 0.403793
O O6 0.893301 0.804445 0.435066
O O7 0.880360 0.661344 0.144707
O O8 0.853056 0.634896 0.048362
O O9 0.088558 0.795951 0.088197
O O10 0.586890 0.702669 0.829044
O O11 0.704780 0.412413 0.000000
#
# Coordination Sequence:
#
# PCOD8302997 Si02
#       6
#     8   8   8   8   4   4
#     4   9  20  36  52  76 110 142 177 226 278 328
#     4   9  19  35  52  74 108 146 183 225 273 328
#     4  11  24  39  57  85 118 146 179 228 279 323
#     4   9  19  37  58  78 104 143 187 223 265 330
#     4  12  19  30  56  84 104 137 186 230 276 326
#     4  11  24  41  62  88 114 145 188 229 270 330
#
# _framework density 21.343796999999999
#
# number of rings (size 3 to 8) (size 9 to 14) (size 15 to 20)
#    0.000    2.100    0.000    5.100    0.000    9.600 
#    0.000    0.000    0.000    2.400    0.000    8.400 
#    0.000    0.000    0.000    0.000    0.000    0.000 
#
# Total GULP energy -496033.136138 kJ/mol
# GULP energy per Si atom -12400.828403 kJ/mol
# Density = 2.129522 g / cm^3
# Si number density = 21.343797 Si / 1000 Ang^3
#
#
#
# Elastic Constant Matrix: (Units=GPa)
#
#
# Indices 1 2 3 4 5 6 
#
# 1 42.4484 -3.2464 29.5473 0.0000 0.0000 -1.8035
# 2 -3.2464 42.4484 29.5473 0.0000 0.0000 1.8035
# 3 29.5473 29.5473 139.7269 0.0000 0.0000 0.0000
# 4 0.0000 0.0000 0.0000 28.4461 0.0000 0.0000
# 5 0.0000 0.0000 0.0000 0.0000 28.4461 0.0000
# 6 -1.8035 1.8035 0.0000 0.0000 0.0000 26.9291
#
#
#
# Elastic Compliance Matrix: (Units=1/GPa)
#
#
# Indices 1 2 3 4 5 6 
#
# 1 0.029723 0.007722 -0.007918 0.000000 0.000000 0.001473
# 2 0.007722 0.029723 -0.007918 0.000000 0.000000 -0.001473
# 3 -0.007918 -0.007918 0.010506 0.000000 0.000000 0.000000
# 4 0.000000 0.000000 0.000000 0.035154 0.000000 0.000000
# 5 0.000000 0.000000 0.000000 0.000000 0.035154 0.000000
# 6 0.001473 -0.001473 0.000000 0.000000 0.000000 0.037332
#
#
# Mechanical properties :
#
#
# Convention : Reuss Voigt Hill
#
# Bulk Modulus (GPa) = 18.61399 37.36890 27.99145
# Shear Modulus (GPa) = 23.61516 28.01598 25.81557
#
# Velocity S-wave (km/s) = 3.32989 3.62692 3.48158
# Velocity P-wave (km/s) = 4.85018 5.92330 5.41340
#
# Compressibility (1/GPa) = 0.05372304
#
# Stress axis : x y z
#
# Youngs Moduli (GPa) = 33.64396 33.64396 95.18612
#
# Poissons Ratio (x) = -0.25981 0.75372
# Poissons Ratio (y) = -0.25981 0.75372
# Poissons Ratio (z) = 0.26641 0.26641
#
# Static dielectric constant tensor:
#      x y z
#    x 3.628420 0.000000 0.000000 
#    y 0.000000 3.628420 0.000000 
#    z 0.000000 0.000000 3.947610 
# 
# 
# High freq. dielectric constant tensor:
#      x y z
#    x 1.824390 0.000000 0.000000 
#    y 0.000000 1.824390 0.000000 
#    z 0.000000 0.000000 1.852070 
# 
# From -- ./inp_files/3275.got.cif
#   From: 2010.03.12/outbox.cif.g09.slc.cpg/sg83_2_cif.got.tgz:3275.got - 2010.04.08 20:05:18.
