data_PCOD8302377
_publ_section_title
;
Structure prediction by ZEFSAII (Michael W. Deem and Ramdas Pophale) SiO2 
 PCOD8302377
Probable space group: I -4 
;
_chemical_formula_sum "Si O2"
_cell_formula_units_Z 64
_cell_length_a 16.828652
_cell_length_b 16.828652
_cell_length_c 12.141050
_cell_angle_alpha 90.000000
_cell_angle_beta 90.000000
_cell_angle_gamma 90.000000
_cell_volume 3438.388195
_symmetry_space_group_name_H-M "I -4 "
_symmetry_group_IT_number 82
_symmetry_cell_setting 'tetragonal'
loop_
_space_group_symop_operation_xyz
x,y,z
y,-x,-z
-x,-y,z
-y,x,-z
1/2+x,1/2+y,1/2+z
1/2+y,1/2-x,1/2-z
1/2-x,1/2-y,1/2+z
1/2-y,1/2+x,1/2-z
loop_
_atom_site_type_symbol
_atom_site_label
_atom_site_fract_x
_atom_site_fract_y
_atom_site_fract_z
Si Si1 0.176133 0.188572 0.311053
Si Si2 0.835778 0.967655 0.925275
Si Si3 0.568114 0.317013 0.000176
Si Si4 0.552261 0.798643 0.699155
Si Si5 0.436410 0.366803 0.158902
Si Si6 0.815314 0.196848 0.206806
Si Si7 0.913058 0.319846 0.348043
Si Si8 0.105290 0.060998 0.163490
O O1 0.161585 0.145298 0.427146
O O2 0.106660 0.250945 0.286378
O O3 0.262971 0.230957 0.324370
O O4 0.169759 0.123964 0.212326
O O5 0.753388 0.010287 0.895036
O O6 0.903499 0.017670 0.860580
O O7 0.831605 0.873967 0.892728
O O8 0.854006 0.974548 0.054270
O O9 0.487074 0.323884 0.066267
O O10 0.566756 0.378679 0.897046
O O11 0.568616 0.225327 0.961791
O O12 0.600453 0.863688 0.628996
O O13 0.490622 0.842907 0.778685
O O14 0.380900 0.300200 0.217656
O O15 0.491142 0.409885 0.248962
O O16 0.860553 0.261814 0.276002
#
# Coordination Sequence:
#
# PCOD8302377 Si02
#       8
#     8   8   8   8   8   8   8   8
#     4   9  19  35  53  73 101 132 168 213 257 299
#     4  10  20  33  51  74 104 140 172 202 247 304
#     4  10  20  33  51  75 101 134 167 203 252 307
#     4   9  18  34  52  74 101 131 168 212 252 298
#     4  10  21  33  49  74 104 134 168 205 249 300
#     4   9  19  33  51  73  98 132 170 209 251 299
#     4   9  18  32  50  72  98 128 167 209 252 297
#     4  10  21  34  49  75 107 137 170 208 250 302
#
# _framework density 18.613374
#
# number of rings (size 3 to 8) (size 9 to 14) (size 15 to 20)
#    0.000    2.500    0.000    1.500    0.000   11.250 
#    0.000    1.250    0.000    0.000    0.000    0.000 
#    0.000    4.500    0.000    0.000    0.000    0.000 
#
# Total GULP energy -396542.402379 kJ/mol
# GULP energy per Si atom -12391.950074 kJ/mol
# Density = 1.857101 g / cm^3
# Si number density = 18.613374 Si / 1000 Ang^3
#
#
#
# Elastic Constant Matrix: (Units=GPa)
#
#
# Indices 1 2 3 4 5 6 
#
# 1 91.3900 55.5654 45.8261 0.0000 0.0000 3.6198
# 2 55.5654 91.3900 45.8261 0.0000 0.0000 -3.6198
# 3 45.8261 45.8261 98.5405 0.0000 0.0000 0.0000
# 4 0.0000 0.0000 0.0000 23.7563 0.0000 0.0000
# 5 0.0000 0.0000 0.0000 0.0000 23.7563 0.0000
# 6 3.6198 -3.6198 0.0000 0.0000 0.0000 23.5163
#
#
#
# Elastic Compliance Matrix: (Units=1/GPa)
#
#
# Indices 1 2 3 4 5 6 
#
# 1 0.019197 -0.009613 -0.004457 0.000000 0.000000 -0.004435
# 2 -0.009613 0.019197 -0.004457 0.000000 0.000000 0.004435
# 3 -0.004457 -0.004457 0.014294 0.000000 0.000000 0.000000
# 4 0.000000 0.000000 0.000000 0.042094 0.000000 0.000000
# 5 0.000000 0.000000 0.000000 0.000000 0.042094 0.000000
# 6 -0.004435 0.004435 0.000000 0.000000 0.000000 0.043889
#
#
# Mechanical properties :
#
#
# Convention : Reuss Voigt Hill
#
# Bulk Modulus (GPa) = 63.96359 63.97286 63.96822
# Shear Modulus (GPa) = 22.41834 23.14596 22.78215
#
# Velocity S-wave (km/s) = 3.47424 3.53017 3.50232
# Velocity P-wave (km/s) = 7.10864 7.14563 7.12716
#
# Compressibility (1/GPa) = 0.01563389
#
# Stress axis : x y z
#
# Youngs Moduli (GPa) = 52.09062 52.09062 69.95997
#
# Poissons Ratio (x) = 0.50073 0.31184
# Poissons Ratio (y) = 0.50073 0.31184
# Poissons Ratio (z) = 0.23219 0.23219
#
# Static dielectric constant tensor:
#      x y z
#    x 3.609930 0.000000 0.000000 
#    y 0.000000 3.609930 0.000000 
#    z 0.000000 0.000000 3.434250 
# 
# 
# High freq. dielectric constant tensor:
#      x y z
#    x 1.710880 0.000000 0.000000 
#    y 0.000000 1.710880 0.000000 
#    z 0.000000 0.000000 1.719020 
# 
# From -- ./inp_files/1919.got.cif
#   From: 2010.03.12/outbox.cif.g09.slc.cpg/sg82_1_cif.got.tgz:1919.got - 2010.04.08 20:02:50.
