data_PCOD8302802
_publ_section_title
;
Structure prediction by ZEFSAII (Michael W. Deem and Ramdas Pophale) SiO2 
 PCOD8302802
Probable space group: P 4/M
;
_chemical_formula_sum "Si O2"
_cell_formula_units_Z 36
_cell_length_a 14.850546
_cell_length_b 14.850546
_cell_length_c 7.737873
_cell_angle_alpha 90.000000
_cell_angle_beta 90.000000
_cell_angle_gamma 90.000000
_cell_volume 1706.500580
_symmetry_space_group_name_H-M "P 4/M"
_symmetry_group_IT_number 83
_symmetry_cell_setting 'tetragonal'
loop_
_space_group_symop_operation_xyz
x,y,z
-y,x,z
-x,-y,z
y,-x,z
-x,-y,-z
y,-x,-z
x,y,-z
-y,x,-z
loop_
_atom_site_type_symbol
_atom_site_label
_atom_site_fract_x
_atom_site_fract_y
_atom_site_fract_z
Si Si1 0.132702 0.065401 0.500000
Si Si2 0.272079 0.627051 0.203847
Si Si3 0.959654 0.593260 0.699033
Si Si4 0.733975 0.903941 0.195839
Si Si5 0.427659 0.756281 0.205909
O O1 0.182562 0.092482 0.324525
O O2 0.040865 0.119837 0.500000
O O3 0.178481 0.672023 0.259104
O O4 0.355754 0.684184 0.278677
O O5 0.273631 0.525424 0.277398
O O6 0.281003 0.623367 0.000000
O O7 0.986892 0.603971 0.500000
O O8 0.853136 0.598725 0.720634
O O9 0.000000 0.500000 0.774018
O O10 0.004804 0.675643 0.800893
O O11 0.769746 0.889238 0.000000
O O12 0.426831 0.761834 0.000000
#
# Coordination Sequence:
#
# PCOD8302802 Si02
#       5
#     4   8   8   8   8
#     4  11  28  50  67  92 130 169 212 265 331 400
#     4   9  20  36  59  90 125 164 212 258 314 381
#     4  11  22  37  60  93 125 163 213 267 328 381
#     4  11  23  41  67  98 128 166 216 269 323 387
#     4  10  20  37  59  88 124 166 208 260 319 379
#
# _framework density 21.095803
#
# number of rings (size 3 to 8) (size 9 to 14) (size 15 to 20)
#    0.000    1.667    3.333    0.667    3.111    2.222 
#    0.000    3.333    0.000    0.000    0.000    1.556 
#    0.000    0.000    0.000    0.000    0.000    0.000 
#
# Total GULP energy -446513.793269 kJ/mol
# GULP energy per Si atom -12403.160924 kJ/mol
# Density = 2.104779 g / cm^3
# Si number density = 21.095803 Si / 1000 Ang^3
#
#
#
# Elastic Constant Matrix: (Units=GPa)
#
#
# Indices 1 2 3 4 5 6 
#
# 1 127.9660 91.9201 24.4968 0.0000 0.0000 18.9702
# 2 91.9201 127.9660 24.4968 0.0000 0.0000 -18.9702
# 3 24.4968 24.4968 76.2533 0.0000 0.0000 0.0000
# 4 0.0000 0.0000 0.0000 18.8981 0.0000 0.0000
# 5 0.0000 0.0000 0.0000 0.0000 18.8981 0.0000
# 6 18.9702 -18.9702 0.0000 0.0000 0.0000 30.0622
#
#
#
# Elastic Compliance Matrix: (Units=1/GPa)
#
#
# Indices 1 2 3 4 5 6 
#
# 1 0.043757 -0.038858 -0.001574 0.000000 0.000000 -0.052133
# 2 -0.038858 0.043757 -0.001574 0.000000 0.000000 0.052133
# 3 -0.001574 -0.001574 0.014125 0.000000 0.000000 0.000000
# 4 0.000000 0.000000 0.000000 0.052915 0.000000 0.000000
# 5 0.000000 0.000000 0.000000 0.000000 0.052915 0.000000
# 6 -0.052133 0.052133 0.000000 0.000000 0.000000 0.099059
#
#
# Mechanical properties :
#
#
# Convention : Reuss Voigt Hill
#
# Bulk Modulus (GPa) = 56.72937 68.22363 62.47650
# Shear Modulus (GPa) = 12.61304 26.32312 19.46808
#
# Velocity S-wave (km/s) = 2.44784 3.53624 3.04113
# Velocity P-wave (km/s) = 5.91091 7.00596 6.48160
#
# Compressibility (1/GPa) = 0.01762755
#
# Stress axis : x y z
#
# Youngs Moduli (GPa) = 22.85366 22.85366 70.79507
#
# Poissons Ratio (x) = 0.88805 0.11141
# Poissons Ratio (y) = 0.88805 0.11141
# Poissons Ratio (z) = 0.03596 0.03596
#
# Static dielectric constant tensor:
#      x y z
#    x 3.939570 0.000000 0.000000 
#    y 0.000000 3.939570 0.000000 
#    z 0.000000 0.000000 3.563890 
# 
# 
# High freq. dielectric constant tensor:
#      x y z
#    x 1.830430 0.000000 0.000000 
#    y 0.000000 1.830430 0.000000 
#    z 0.000000 0.000000 1.814780 
# 
# From -- ./inp_files/546.got.cif
#   From: 2010.03.12/outbox.cif.g09.slc.cpg/sg83_1_cif.got.tgz:546.got - 2010.04.08 20:05:18.
