data_PCOD8302709
_publ_section_title
;
Structure prediction by ZEFSAII (Michael W. Deem and Ramdas Pophale) SiO2 
 PCOD8302709
Probable space group: P 4/M
;
_chemical_formula_sum "Si O2"
_cell_formula_units_Z 40
_cell_length_a 15.244214
_cell_length_b 15.244214
_cell_length_c 9.448577
_cell_angle_alpha 90.000000
_cell_angle_beta 90.000000
_cell_angle_gamma 90.000000
_cell_volume 2195.717586
_symmetry_space_group_name_H-M "P 4/M"
_symmetry_group_IT_number 83
_symmetry_cell_setting 'tetragonal'
loop_
_space_group_symop_operation_xyz
x,y,z
-y,x,z
-x,-y,z
y,-x,z
-x,-y,-z
y,-x,-z
x,y,-z
-y,x,-z
loop_
_atom_site_type_symbol
_atom_site_label
_atom_site_fract_x
_atom_site_fract_y
_atom_site_fract_z
Si Si1 0.300569 0.324663 0.835376
Si Si2 0.483792 0.243097 0.163276
Si Si3 0.252340 0.030470 0.333374
Si Si4 0.162287 0.207252 0.332107
Si Si5 0.916518 0.439663 0.342096
O O1 0.297365 0.428338 0.804126
O O2 0.398372 0.297400 0.789045
O O3 0.229482 0.272629 0.743584
O O4 0.282328 0.304194 0.000000
O O5 0.490191 0.153804 0.249429
O O6 0.477604 0.217638 0.000000
O O7 0.261645 0.019419 0.500000
O O8 0.182964 0.106028 0.293424
O O9 0.346599 0.058760 0.270583
O O10 0.223589 0.935889 0.272593
O O11 0.170360 0.223295 0.500000
O O12 0.878420 0.424510 0.500000
O O13 0.000000 0.500000 0.349060
#
# Coordination Sequence:
#
# PCOD8302709 Si02
#       5
#     8   8   8   8   8
#     4  10  21  37  55  79 108 141 181 225 272 321
#     4  10  21  36  55  78 107 141 180 223 270 321
#     4   9  18  31  52  80 107 140 177 219 267 315
#     4  10  19  35  56  79 109 142 180 223 269 321
#     4  10  19  33  53  80 110 139 178 222 270 320
#
# _framework density 18.217279000000001
#
# number of rings (size 3 to 8) (size 9 to 14) (size 15 to 20)
#    0.000    2.200    2.000    1.200    0.000    3.600 
#    0.000    6.000    0.000    0.000    0.000    4.200 
#    0.000    0.000    0.000    0.000    0.000    0.000 
#
# Total GULP energy -495976.375234 kJ/mol
# GULP energy per Si atom -12399.409381 kJ/mol
# Density = 1.817582 g / cm^3
# Si number density = 18.217279 Si / 1000 Ang^3
#
#
#
# Elastic Constant Matrix: (Units=GPa)
#
#
# Indices 1 2 3 4 5 6 
#
# 1 121.1933 41.5032 39.1840 0.0000 0.0000 -3.3944
# 2 41.5032 121.1933 39.1840 0.0000 0.0000 3.3944
# 3 39.1840 39.1840 41.7611 0.0000 0.0000 0.0000
# 4 0.0000 0.0000 0.0000 19.3166 0.0000 0.0000
# 5 0.0000 0.0000 0.0000 0.0000 19.3166 0.0000
# 6 -3.3944 3.3944 0.0000 0.0000 0.0000 31.1917
#
#
#
# Elastic Compliance Matrix: (Units=1/GPa)
#
#
# Indices 1 2 3 4 5 6 
#
# 1 0.011941 -0.000725 -0.010523 0.000000 0.000000 0.001378
# 2 -0.000725 0.011941 -0.010523 0.000000 0.000000 -0.001378
# 3 -0.010523 -0.010523 0.043693 0.000000 0.000000 0.000000
# 4 0.000000 0.000000 0.000000 0.051769 0.000000 0.000000
# 5 0.000000 0.000000 0.000000 0.000000 0.051769 0.000000
# 6 0.001378 -0.001378 0.000000 0.000000 0.000000 0.032360
#
#
# Mechanical properties :
#
#
# Convention : Reuss Voigt Hill
#
# Bulk Modulus (GPa) = 41.61268 58.20999 49.91133
# Shear Modulus (GPa) = 19.60587 24.91675 22.26131
#
# Velocity S-wave (km/s) = 3.28414 3.70233 3.49949
# Velocity P-wave (km/s) = 6.10515 7.09217 6.61709
#
# Compressibility (1/GPa) = 0.02403114
#
# Stress axis : x y z
#
# Youngs Moduli (GPa) = 83.74777 83.74777 22.88691
#
# Poissons Ratio (x) = 0.06075 0.24084
# Poissons Ratio (y) = 0.06075 0.24084
# Poissons Ratio (z) = 0.88129 0.88129
#
# Static dielectric constant tensor:
#      x y z
#    x 3.524350 0.000000 0.000000 
#    y 0.000000 3.524350 0.000000 
#    z 0.000000 0.000000 3.185950 
# 
# 
# High freq. dielectric constant tensor:
#      x y z
#    x 1.715400 0.000000 0.000000 
#    y 0.000000 1.715400 0.000000 
#    z 0.000000 0.000000 1.677210 
# 
# From -- ./inp_files/626.got.cif
#   From: 2010.03.12/outbox.cif.g09.slc.cpg/sg83_1_cif.got.tgz:626.got - 2010.04.08 20:05:18.
