data_PCOD8302379
_publ_section_title
;
Structure prediction by ZEFSAII (Michael W. Deem and Ramdas Pophale) SiO2 
 PCOD8302379
Probable space group: I -4 
;
_chemical_formula_sum "Si O2"
_cell_formula_units_Z 56
_cell_length_a 11.897672
_cell_length_b 11.897672
_cell_length_c 22.252634
_cell_angle_alpha 90.000000
_cell_angle_beta 90.000000
_cell_angle_gamma 90.000000
_cell_volume 3149.962683
_symmetry_space_group_name_H-M "I -4 "
_symmetry_group_IT_number 82
_symmetry_cell_setting 'tetragonal'
loop_
_space_group_symop_operation_xyz
x,y,z
y,-x,-z
-x,-y,z
-y,x,-z
1/2+x,1/2+y,1/2+z
1/2+y,1/2-x,1/2-z
1/2-x,1/2-y,1/2+z
1/2-y,1/2+x,1/2-z
loop_
_atom_site_type_symbol
_atom_site_label
_atom_site_fract_x
_atom_site_fract_y
_atom_site_fract_z
Si Si1 0.726880 0.724868 0.335786
Si Si2 0.860177 0.385395 0.765284
Si Si3 0.047293 0.876888 0.082899
Si Si4 0.863103 0.617696 0.930016
Si Si5 0.286133 0.657354 0.472830
Si Si6 0.135498 0.379782 0.596523
Si Si7 0.571436 0.904379 0.794872
O O1 0.678850 0.764078 0.271783
O O2 0.655443 0.618656 0.358695
O O3 0.724052 0.826528 0.383389
O O4 0.857536 0.686329 0.331799
O O5 0.846563 0.518918 0.758991
O O6 0.844525 0.352817 0.834453
O O7 0.942508 0.791138 0.076087
O O8 0.122945 0.871271 0.023679
O O9 0.000000 0.000000 0.093313
O O10 0.846923 0.484977 0.930517
O O11 0.987002 0.654972 0.908120
O O12 0.839026 0.662705 0.997177
O O13 0.311108 0.775579 0.442126
O O14 0.478160 0.845974 0.750319
O O15 0.500000 0.000000 0.833986
#
# Coordination Sequence:
#
# PCOD8302379 Si02
#       7
#     8   8   8   8   8   8   8
#     4  11  19  34  60  85 116 161 190 241 307 359
#     4  11  20  35  53  89 125 158 192 238 297 371
#     4  11  20  33  54  88 122 144 193 261 310 347
#     4  10  20  34  59  89 116 154 199 242 301 361
#     4  11  19  36  57  85 118 152 193 255 302 351
#     4  11  20  37  58  87 125 152 195 249 299 361
#     4   6  17  38  54  71 106 157 186 244 278 343
#
# _framework density 17.777989000000002
#
# number of rings (size 3 to 8) (size 9 to 14) (size 15 to 20)
#    0.857    1.000    5.714    1.714    0.000    1.143 
#    0.000    2.857    0.000    0.429    0.000    0.000 
#    0.000    0.000    0.000    0.000    0.000    0.000 
#
# Total GULP energy -346914.784756 kJ/mol
# GULP energy per Si atom -12389.813741 kJ/mol
# Density = 1.773753 g / cm^3
# Si number density = 17.777989 Si / 1000 Ang^3
#
#
#
# Elastic Constant Matrix: (Units=GPa)
#
#
# Indices 1 2 3 4 5 6 
#
# 1 80.8518 31.4468 30.4666 0.0000 0.0000 -2.4849
# 2 31.4468 80.8518 30.4666 0.0000 0.0000 2.4849
# 3 30.4666 30.4666 65.6904 0.0000 0.0000 0.0000
# 4 0.0000 0.0000 0.0000 21.8995 0.0000 0.0000
# 5 0.0000 0.0000 0.0000 0.0000 21.8995 0.0000
# 6 -2.4849 2.4849 0.0000 0.0000 0.0000 30.7401
#
#
#
# Elastic Compliance Matrix: (Units=1/GPa)
#
#
# Indices 1 2 3 4 5 6 
#
# 1 0.016153 -0.004254 -0.005519 0.000000 0.000000 0.001650
# 2 -0.004254 0.016153 -0.005519 0.000000 0.000000 -0.001650
# 3 -0.005519 -0.005519 0.020342 0.000000 0.000000 0.000000
# 4 0.000000 0.000000 0.000000 0.045663 0.000000 0.000000
# 5 0.000000 0.000000 0.000000 0.000000 0.045663 0.000000
# 6 0.001650 -0.001650 0.000000 0.000000 0.000000 0.032797
#
#
# Mechanical properties :
#
#
# Convention : Reuss Voigt Hill
#
# Bulk Modulus (GPa) = 45.31955 45.79487 45.55721
# Shear Modulus (GPa) = 23.28727 23.90877 23.59802
#
# Velocity S-wave (km/s) = 3.62317 3.67120 3.64727
# Velocity P-wave (km/s) = 6.56128 6.61706 6.58923
#
# Compressibility (1/GPa) = 0.02206553
#
# Stress axis : x y z
#
# Youngs Moduli (GPa) = 61.90772 61.90772 49.15931
#
# Poissons Ratio (x) = 0.26334 0.27130
# Poissons Ratio (y) = 0.26334 0.27130
# Poissons Ratio (z) = 0.34166 0.34166
#
# Static dielectric constant tensor:
#      x y z
#    x 3.218800 0.000000 0.000000 
#    y 0.000000 3.218800 0.000000 
#    z 0.000000 0.000000 3.281210 
# 
# 
# High freq. dielectric constant tensor:
#      x y z
#    x 1.672980 0.000000 0.000000 
#    y 0.000000 1.672980 0.000000 
#    z 0.000000 0.000000 1.678550 
# 
# From -- ./inp_files/3127.got.cif
#   From: 2010.03.12/outbox.cif.g09.slc.cpg/sg82_2_cif.got.tgz:3127.got - 2010.04.08 20:02:50.
