data_PCOD8302370
_publ_section_title
;
Structure prediction by ZEFSAII (Michael W. Deem and Ramdas Pophale) SiO2 
 PCOD8302370
Probable space group: I -4 
;
_chemical_formula_sum "Si O2"
_cell_formula_units_Z 64
_cell_length_a 18.255287
_cell_length_b 18.255287
_cell_length_c 9.537606
_cell_angle_alpha 90.000000
_cell_angle_beta 90.000000
_cell_angle_gamma 90.000000
_cell_volume 3178.459689
_symmetry_space_group_name_H-M "I -4 "
_symmetry_group_IT_number 82
_symmetry_cell_setting 'tetragonal'
loop_
_space_group_symop_operation_xyz
x,y,z
y,-x,-z
-x,-y,z
-y,x,-z
1/2+x,1/2+y,1/2+z
1/2+y,1/2-x,1/2-z
1/2-x,1/2-y,1/2+z
1/2-y,1/2+x,1/2-z
loop_
_atom_site_type_symbol
_atom_site_label
_atom_site_fract_x
_atom_site_fract_y
_atom_site_fract_z
Si Si1 0.764650 0.666843 0.280542
Si Si2 0.145857 0.492574 0.466864
Si Si3 0.679750 0.397415 0.403011
Si Si4 0.053679 0.368973 0.569613
Si Si5 0.799589 0.941428 0.982274
Si Si6 0.303066 0.922479 0.707798
Si Si7 0.627075 0.891144 0.345570
Si Si8 0.215640 0.720629 0.515997
O O1 0.709369 0.603691 0.334590
O O2 0.850674 0.643742 0.271868
O O3 0.772055 0.733235 0.391657
O O4 0.737983 0.695768 0.129078
O O5 0.073255 0.442703 0.481238
O O6 0.216187 0.450722 0.537234
O O7 0.165552 0.512106 0.305280
O O8 0.135228 0.567181 0.546181
O O9 0.663025 0.479186 0.460893
O O10 0.604692 0.349650 0.407592
O O11 0.717881 0.404909 0.249441
O O12 0.741262 0.356494 0.495600
O O13 0.051653 0.303800 0.454928
O O14 0.114642 0.359302 0.689710
O O15 0.978758 0.373751 0.655950
O O16 0.704196 0.859132 0.399493
#
# Coordination Sequence:
#
# PCOD8302370 Si02
#       8
#     8   8   8   8   8   8   8   8
#     4  10  20  37  57  85 117 156 209 255 309 365
#     4  11  22  40  59  81 123 165 209 256 298 364
#     4   9  20  36  61  89 118 153 208 263 320 371
#     4  12  26  37  58  87 127 173 205 256 307 375
#     4  10  19  37  61  89 124 157 203 273 313 373
#     4  10  22  38  60  87 114 162 213 251 299 371
#     4  12  24  41  53  85 129 164 209 250 313 367
#     4  10  22  38  60  85 117 163 208 252 304 373
#
# _framework density 20.135539000000001
#
# number of rings (size 3 to 8) (size 9 to 14) (size 15 to 20)
#    0.000    1.500    6.250    0.375    7.000    1.250 
#    0.000    0.000    0.000    0.000    0.000    0.000 
#    0.000    6.000    0.000    0.000    0.000    0.000 
#
# Total GULP energy -396480.914146 kJ/mol
# GULP energy per Si atom -12390.028567 kJ/mol
# Density = 2.008971 g / cm^3
# Si number density = 20.135539 Si / 1000 Ang^3
#
#
#
# Elastic Constant Matrix: (Units=GPa)
#
#
# Indices 1 2 3 4 5 6 
#
# 1 57.6670 11.3489 -0.1198 0.0000 0.0000 9.5703
# 2 11.3489 57.6670 -0.1198 0.0000 0.0000 -9.5703
# 3 -0.1198 -0.1198 91.1631 0.0000 0.0000 0.0000
# 4 0.0000 0.0000 0.0000 26.2140 0.0000 0.0000
# 5 0.0000 0.0000 0.0000 0.0000 26.2140 0.0000
# 6 9.5703 -9.5703 0.0000 0.0000 0.0000 31.7130
#
#
#
# Elastic Compliance Matrix: (Units=1/GPa)
#
#
# Indices 1 2 3 4 5 6 
#
# 1 0.019578 -0.005088 0.000019 0.000000 0.000000 -0.007444
# 2 -0.005088 0.019578 0.000019 0.000000 0.000000 0.007444
# 3 0.000019 0.000019 0.010969 0.000000 0.000000 0.000000
# 4 0.000000 0.000000 0.000000 0.038148 0.000000 0.000000
# 5 0.000000 0.000000 0.000000 0.000000 0.038148 0.000000
# 6 -0.007444 0.007444 0.000000 0.000000 0.000000 0.036025
#
#
# Mechanical properties :
#
#
# Convention : Reuss Voigt Hill
#
# Bulk Modulus (GPa) = 24.98468 25.41286 25.19877
# Shear Modulus (GPa) = 26.89804 29.85404 28.37604
#
# Velocity S-wave (km/s) = 3.65889 3.85470 3.75807
# Velocity P-wave (km/s) = 5.50320 5.69736 5.60112
#
# Compressibility (1/GPa) = 0.04002452
#
# Stress axis : x y z
#
# Youngs Moduli (GPa) = 51.07858 51.07858 91.16273
#
# Poissons Ratio (x) = 0.25990 -0.00174
# Poissons Ratio (y) = 0.25990 -0.00174
# Poissons Ratio (z) = -0.00097 -0.00097
#
# Static dielectric constant tensor:
#      x y z
#    x 3.686750 0.000000 0.000000 
#    y 0.000000 3.686750 0.000000 
#    z 0.000000 0.000000 3.726200 
# 
# 
# High freq. dielectric constant tensor:
#      x y z
#    x 1.768390 0.000000 0.000000 
#    y 0.000000 1.768390 0.000000 
#    z 0.000000 0.000000 1.778340 
# 
# From -- ./inp_files/1244.got.cif
#   From: 2010.03.12/outbox.cif.g09.slc.cpg/sg82_1_cif.got.tgz:1244.got - 2010.04.08 20:02:50.
