data_PCOD8302746
_publ_section_title
;
Structure prediction by ZEFSAII (Michael W. Deem and Ramdas Pophale) SiO2 
 PCOD8302746
Probable space group: P 4/M
;
_chemical_formula_sum "Si O2"
_cell_formula_units_Z 40
_cell_length_a 19.332507
_cell_length_b 19.332507
_cell_length_c 7.905127
_cell_angle_alpha 90.000000
_cell_angle_beta 90.000000
_cell_angle_gamma 90.000000
_cell_volume 2954.508227
_symmetry_space_group_name_H-M "P 4/M"
_symmetry_group_IT_number 83
_symmetry_cell_setting 'tetragonal'
loop_
_space_group_symop_operation_xyz
x,y,z
-y,x,z
-x,-y,z
y,-x,z
-x,-y,-z
y,-x,-z
x,y,-z
-y,x,-z
loop_
_atom_site_type_symbol
_atom_site_label
_atom_site_fract_x
_atom_site_fract_y
_atom_site_fract_z
Si Si1 0.581006 0.676182 0.192783
Si Si2 0.417765 0.834081 0.814204
Si Si3 0.418253 0.166637 0.188177
Si Si4 0.921745 0.417366 0.500000
Si Si5 0.687213 0.570079 0.691228
Si Si6 0.417369 0.921463 0.500000
O O1 0.601062 0.754993 0.238203
O O2 0.625560 0.625372 0.308751
O O3 0.499882 0.662132 0.219081
O O4 0.599542 0.659627 0.000000
O O5 0.499811 0.840227 0.814756
O O6 0.397171 0.754496 0.780879
O O7 0.387435 0.884023 0.668247
O O8 0.388819 0.855862 0.000000
O O9 0.387619 0.115571 0.331181
O O10 0.389345 0.147777 0.000000
O O11 0.918691 0.499988 0.500000
O O12 0.000113 0.390199 0.500000
O O13 0.707810 0.551564 0.500000
#
# Coordination Sequence:
#
# PCOD8302746 Si02
#       6
#     8   8   8   4   8   4
#     4  10  20  32  43  56  74  98 126 158 198 236
#     4   9  16  28  41  54  75  97 117 145 183 224
#     4   8  16  27  40  55  72  95 118 143 181 227
#     4   9  16  24  41  54  77  89 112 143 179 218
#     4  11  20  30  44  59  73  95 128 160 196 236
#     4   9  16  26  37  60  71  93 114 141 175 226
#
# _framework density 13.538633000000001
#
# number of rings (size 3 to 8) (size 9 to 14) (size 15 to 20)
#    0.000    2.600    1.000    3.600    5.600    1.200 
#    0.000    6.000    0.000    0.000    0.000    0.000 
#    0.000    0.000    0.000    0.000    0.000    0.000 
#
# Total GULP energy -495846.789285 kJ/mol
# GULP energy per Si atom -12396.169732 kJ/mol
# Density = 1.350782 g / cm^3
# Si number density = 13.538633 Si / 1000 Ang^3
#
#
#
# Elastic Constant Matrix: (Units=GPa)
#
#
# Indices 1 2 3 4 5 6 
#
# 1 52.2357 27.4227 30.6281 0.0000 0.0000 0.1856
# 2 27.4227 52.2357 30.6281 0.0000 0.0000 -0.1856
# 3 30.6281 30.6281 97.7073 0.0000 0.0000 0.0000
# 4 0.0000 0.0000 0.0000 15.3206 0.0000 0.0000
# 5 0.0000 0.0000 0.0000 0.0000 15.3206 0.0000
# 6 0.1856 -0.1856 0.0000 0.0000 0.0000 0.2782
#
#
#
# Elastic Compliance Matrix: (Units=1/GPa)
#
#
# Indices 1 2 3 4 5 6 
#
# 1 0.028624 -0.012083 -0.005185 0.000000 0.000000 -0.027148
# 2 -0.012083 0.028624 -0.005185 0.000000 0.000000 0.027148
# 3 -0.005185 -0.005185 0.013485 0.000000 0.000000 0.000000
# 4 0.000000 0.000000 0.000000 0.065272 0.000000 0.000000
# 5 0.000000 0.000000 0.000000 0.000000 0.065272 0.000000
# 6 -0.027148 0.027148 0.000000 0.000000 0.000000 3.630261
#
#
# Mechanical properties :
#
#
# Convention : Reuss Voigt Hill
#
# Bulk Modulus (GPa) = 38.71936 42.17073 40.44504
# Shear Modulus (GPa) = 1.28698 13.75054 7.51876
#
# Velocity S-wave (km/s) = 0.97605 3.19039 2.35916
# Velocity P-wave (km/s) = 5.47097 6.69235 6.11224
#
# Compressibility (1/GPa) = 0.02582687
#
# Stress axis : x y z
#
# Youngs Moduli (GPa) = 34.93550 34.93550 74.15472
#
# Poissons Ratio (x) = 0.42214 0.38449
# Poissons Ratio (y) = 0.42214 0.38449
# Poissons Ratio (z) = 0.18114 0.18114
#
# Static dielectric constant tensor:
#      x y z
#    x 2.405160 0.000000 0.000000 
#    y 0.000000 2.405160 0.000000 
#    z 0.000000 0.000000 3.077790 
# 
# 
# High freq. dielectric constant tensor:
#      x y z
#    x 1.469000 0.000000 0.000000 
#    y 0.000000 1.469000 0.000000 
#    z 0.000000 0.000000 1.543440 
# 
# From -- ./inp_files/837.got.cif
#   From: 2010.03.12/outbox.cif.g09.slc.cpg/sg83_1_cif.got.tgz:837.got - 2010.04.08 20:05:18.
