data_PCOD8302343
_publ_section_title
;
Structure prediction by ZEFSAII (Michael W. Deem and Ramdas Pophale) SiO2 
 PCOD8302343
Probable space group: I -4 
;
_chemical_formula_sum "Si O2"
_cell_formula_units_Z 36
_cell_length_a 8.958966
_cell_length_b 8.958966
_cell_length_c 24.954504
_cell_angle_alpha 90.000000
_cell_angle_beta 90.000000
_cell_angle_gamma 90.000000
_cell_volume 2002.925146
_symmetry_space_group_name_H-M "I -4 "
_symmetry_group_IT_number 82
_symmetry_cell_setting 'tetragonal'
loop_
_space_group_symop_operation_xyz
x,y,z
y,-x,-z
-x,-y,z
-y,x,-z
1/2+x,1/2+y,1/2+z
1/2+y,1/2-x,1/2-z
1/2-x,1/2-y,1/2+z
1/2-y,1/2+x,1/2-z
loop_
_atom_site_type_symbol
_atom_site_label
_atom_site_fract_x
_atom_site_fract_y
_atom_site_fract_z
Si Si1 0.285604 0.661445 0.863251
Si Si2 0.531193 0.172530 0.945194
Si Si3 0.000000 0.000000 0.286812
Si Si4 0.836551 0.924708 0.444322
Si Si5 0.571670 0.212172 0.270610
O O1 0.336614 0.795484 0.902418
O O2 0.420015 0.625476 0.822574
O O3 0.248968 0.512382 0.897740
O O4 0.136679 0.705634 0.830908
O O5 0.376390 0.254647 0.927547
O O6 0.500000 0.000000 0.948843
O O7 0.579736 0.235389 0.002986
O O8 0.119391 0.087791 0.250307
O O9 0.000000 0.000000 0.453272
O O10 0.397926 0.162364 0.269712
#
# Coordination Sequence:
#
# PCOD8302343 Si02
#       5
#     8   8   4   8   8
#     4  10  18  37  61  80 111 158 194 238 292 340
#     4  11  19  33  59  91 115 145 199 242 287 350
#     4  10  18  36  61  76 114 149 198 246 270 350
#     4  10  16  37  61  80 111 154 199 232 276 365
#     4   9  20  38  57  86 113 146 201 236 287 346
#
# _framework density 17.973711000000002
#
# number of rings (size 3 to 8) (size 9 to 14) (size 15 to 20)
#    0.000    2.000    7.778    0.000    0.000    0.000 
#   16.000    0.000    0.000    0.667    0.000    0.000 
#    0.000    0.000    0.000    0.000    0.000    0.000 
#
# Total GULP energy -223023.370916 kJ/mol
# GULP energy per Si atom -12390.187273 kJ/mol
# Density = 1.793280 g / cm^3
# Si number density = 17.973711 Si / 1000 Ang^3
#
#
#
# Elastic Constant Matrix: (Units=GPa)
#
#
# Indices 1 2 3 4 5 6 
#
# 1 111.0999 31.4555 56.5962 0.0000 0.0000 1.8570
# 2 31.4555 111.0999 56.5962 0.0000 0.0000 -1.8570
# 3 56.5962 56.5962 133.9393 0.0000 0.0000 0.0000
# 4 0.0000 0.0000 0.0000 29.7645 0.0000 0.0000
# 5 0.0000 0.0000 0.0000 0.0000 29.7645 0.0000
# 6 1.8570 -1.8570 0.0000 0.0000 0.0000 16.1621
#
#
#
# Elastic Compliance Matrix: (Units=1/GPa)
#
#
# Indices 1 2 3 4 5 6 
#
# 1 0.011590 -0.001033 -0.004461 0.000000 0.000000 -0.001450
# 2 -0.001033 0.011590 -0.004461 0.000000 0.000000 0.001450
# 3 -0.004461 -0.004461 0.011236 0.000000 0.000000 0.000000
# 4 0.000000 0.000000 0.000000 0.033597 0.000000 0.000000
# 5 0.000000 0.000000 0.000000 0.000000 0.033597 0.000000
# 6 -0.001450 0.001450 0.000000 0.000000 0.000000 0.062206
#
#
# Mechanical properties :
#
#
# Convention : Reuss Voigt Hill
#
# Bulk Modulus (GPa) = 68.93541 71.71497 70.32519
# Shear Modulus (GPa) = 26.51650 29.23763 27.87707
#
# Velocity S-wave (km/s) = 3.84512 4.03760 3.94254
# Velocity P-wave (km/s) = 7.62562 7.85639 7.74186
#
# Compressibility (1/GPa) = 0.01450633
#
# Stress axis : x y z
#
# Youngs Moduli (GPa) = 86.28044 86.28042 89.00066
#
# Poissons Ratio (x) = 0.08916 0.39701
# Poissons Ratio (y) = 0.08916 0.39701
# Poissons Ratio (z) = 0.38488 0.38488
#
# Static dielectric constant tensor:
#      x y z
#    x 3.426250 0.000000 0.000000 
#    y 0.000000 3.426250 0.000000 
#    z 0.000000 0.000000 3.529290 
# 
# 
# High freq. dielectric constant tensor:
#      x y z
#    x 1.672230 0.000000 0.000000 
#    y 0.000000 1.672230 0.000000 
#    z 0.000000 0.000000 1.704890 
# 
# From -- ./inp_files/3642.got.cif
#   From: 2010.03.12/outbox.cif.g09.slc.cpg/sg82_2_cif.got.tgz:3642.got - 2010.04.08 20:02:50.
