data_PCOD8302593
_publ_section_title
;
Structure prediction by ZEFSAII (Michael W. Deem and Ramdas Pophale) SiO2 
 PCOD8302593
Probable space group: I -4 
;
_chemical_formula_sum "Si O2"
_cell_formula_units_Z 48
_cell_length_a 9.072292
_cell_length_b 9.072292
_cell_length_c 28.486710
_cell_angle_alpha 90.000000
_cell_angle_beta 90.000000
_cell_angle_gamma 90.000000
_cell_volume 2344.640888
_symmetry_space_group_name_H-M "I -4 "
_symmetry_group_IT_number 82
_symmetry_cell_setting 'tetragonal'
loop_
_space_group_symop_operation_xyz
x,y,z
y,-x,-z
-x,-y,z
-y,x,-z
1/2+x,1/2+y,1/2+z
1/2+y,1/2-x,1/2-z
1/2-x,1/2-y,1/2+z
1/2-y,1/2+x,1/2-z
loop_
_atom_site_type_symbol
_atom_site_label
_atom_site_fract_x
_atom_site_fract_y
_atom_site_fract_z
Si Si1 0.659858 0.417647 0.952251
Si Si2 0.001573 0.675672 0.637373
Si Si3 0.772401 0.845241 0.698834
Si Si4 0.490360 0.663765 0.706924
Si Si5 0.788371 0.353006 0.145580
Si Si6 0.025841 0.332332 0.453454
O O1 0.500000 0.500000 0.949496
O O2 0.776351 0.485768 0.916607
O O3 0.628554 0.246256 0.938853
O O4 0.733399 0.414609 0.003487
O O5 0.871187 0.737235 0.668550
O O6 0.000000 0.500000 0.641158
O O7 0.149513 0.749561 0.656785
O O8 0.642619 0.743749 0.718988
O O9 0.856208 0.899466 0.745142
O O10 0.726484 0.984099 0.667059
O O11 0.500000 0.500000 0.684954
O O12 0.425268 0.772024 0.668228
O O13 0.822338 0.361746 0.090041
O O14 0.000000 0.500000 0.468919
#
# Coordination Sequence:
#
# PCOD8302593 Si02
#       6
#     8   8   8   8   8   8
#     4  12  21  43  72  99 135 179 231 280 338 425
#     4  12  25  44  69 106 141 178 228 295 360 424
#     4  12  24  44  70  97 135 186 238 291 348 431
#     4  12  26  44  65 101 138 182 237 297 358 420
#     4  12  24  44  69  99 134 184 234 287 352 427
#     4  12  23  39  69 102 130 176 230 284 339 411
#
# _framework density 20.472217000000001
#
# number of rings (size 3 to 8) (size 9 to 14) (size 15 to 20)
#    0.000    0.000    6.667    4.500    0.000    0.000 
#    0.000    0.000    0.000    0.000    0.000    0.000 
#    0.000    0.000    0.000    0.000    0.000    0.000 
#
# Total GULP energy -297527.947367 kJ/mol
# GULP energy per Si atom -12396.997807 kJ/mol
# Density = 2.042562 g / cm^3
# Si number density = 20.472217 Si / 1000 Ang^3
#
#
#
# Elastic Constant Matrix: (Units=GPa)
#
#
# Indices 1 2 3 4 5 6 
#
# 1 139.2056 49.2162 34.4331 0.0000 0.0000 3.6010
# 2 49.2162 139.2055 34.4331 0.0000 0.0000 -3.6010
# 3 34.4331 34.4331 118.8248 0.0000 0.0000 0.0000
# 4 0.0000 0.0000 0.0000 82.4529 0.0000 0.0000
# 5 0.0000 0.0000 0.0000 0.0000 82.4529 0.0000
# 6 3.6010 -3.6010 0.0000 0.0000 0.0000 34.8839
#
#
#
# Elastic Compliance Matrix: (Units=1/GPa)
#
#
# Indices 1 2 3 4 5 6 
#
# 1 0.008570 -0.002635 -0.001720 0.000000 0.000000 -0.001157
# 2 -0.002635 0.008570 -0.001720 0.000000 0.000000 0.001157
# 3 -0.001720 -0.001720 0.009413 0.000000 0.000000 0.000000
# 4 0.000000 0.000000 0.000000 0.012128 0.000000 0.000000
# 5 0.000000 0.000000 0.000000 0.000000 0.012128 0.000000
# 6 -0.001157 0.001157 0.000000 0.000000 0.000000 0.028905
#
#
# Mechanical properties :
#
#
# Convention : Reuss Voigt Hill
#
# Bulk Modulus (GPa) = 69.42487 70.37784 69.90136
# Shear Modulus (GPa) = 51.72447 58.56817 55.14632
#
# Velocity S-wave (km/s) = 5.03195 5.35450 5.19573
# Velocity P-wave (km/s) = 8.23080 8.52523 8.37931
#
# Compressibility (1/GPa) = 0.01440406
#
# Stress axis : x y z
#
# Youngs Moduli (GPa) = 116.67984 116.67983 106.23986
#
# Poissons Ratio (x) = 0.30740 0.18274
# Poissons Ratio (y) = 0.30740 0.18274
# Poissons Ratio (z) = 0.20070 0.20070
#
# Static dielectric constant tensor:
#      x y z
#    x 3.536080 0.000000 0.000000 
#    y 0.000000 3.536080 0.000000 
#    z 0.000000 0.000000 3.799490 
# 
# 
# High freq. dielectric constant tensor:
#      x y z
#    x 1.800940 0.000000 0.000000 
#    y 0.000000 1.800940 0.000000 
#    z 0.000000 0.000000 1.815450 
# 
# From -- ./inp_files/4050.got.cif
#   From: 2010.03.12/outbox.cif.g09.slc.cpg/sg82_3_cif.got.tgz:4050.got - 2010.04.08 20:02:50.
