data_PCOD8302098
_publ_section_title
;
Structure prediction by ZEFSAII (Michael W. Deem and Ramdas Pophale) SiO2 
 PCOD8302098
Probable space group: I 4
;
_chemical_formula_sum "Si O2"
_cell_formula_units_Z 36
_cell_length_a 14.824545
_cell_length_b 14.824545
_cell_length_c 8.699078
_cell_angle_alpha 90.000000
_cell_angle_beta 90.000000
_cell_angle_gamma 90.000000
_cell_volume 1911.771444
_symmetry_space_group_name_H-M "I 4"
_symmetry_group_IT_number 79
_symmetry_cell_setting 'tetragonal'
loop_
_space_group_symop_operation_xyz
x,y,z
-y,x,z
-x,-y,z
y,-x,z
1/2+x,1/2+y,1/2+z
1/2-y,1/2+x,1/2+z
1/2-x,1/2-y,1/2+z
1/2+y,1/2-x,1/2+z
loop_
_atom_site_type_symbol
_atom_site_label
_atom_site_fract_x
_atom_site_fract_y
_atom_site_fract_z
Si Si1 0.284795 0.193978 0.648880
Si Si2 0.500000 0.000000 0.502479
Si Si3 0.766603 0.867369 0.332452
Si Si4 0.022319 0.356686 0.251371
Si Si5 0.412035 0.617672 0.097168
O O1 0.298033 0.178703 0.464745
O O2 0.273910 0.299332 0.689339
O O3 0.371017 0.160939 0.745120
O O4 0.194351 0.138229 0.700376
O O5 0.410092 0.002260 0.404292
O O6 0.491756 0.910754 0.602753
O O7 0.861640 0.890618 0.416615
O O8 0.732365 0.961670 0.262202
O O9 0.374999 0.518442 0.134070
#
# Coordination Sequence:
#
# PCOD8302098 Si02
#       5
#     8   4   8   8   8
#     4  10  23  38  60  89 125 166 207 264 310 382
#     4  10  22  34  62  84 124 158 210 254 314 390
#     4  10  22  36  60  88 121 163 208 257 314 374
#     4  11  21  40  56  93 121 167 203 261 321 374
#     4   9  19  38  63  89 117 165 211 251 305 375
#
# _framework density 18.830701999999999
#
# number of rings (size 3 to 8) (size 9 to 14) (size 15 to 20)
#    1.333    0.667    2.222    1.333    3.111    3.556 
#    0.000    0.000    0.000    0.000    0.000    3.111 
#    0.000    0.000    0.000    0.000    0.000    0.000 
#
# Total GULP energy -223004.849686 kJ/mol
# GULP energy per Si atom -12389.158316 kJ/mol
# Density = 1.878784 g / cm^3
# Si number density = 18.830702 Si / 1000 Ang^3
#
#
#
# Elastic Constant Matrix: (Units=GPa)
#
#
# Indices 1 2 3 4 5 6 
#
# 1 96.5657 23.0636 18.1291 0.0000 0.0000 6.2971
# 2 23.0636 96.5657 18.1291 0.0000 0.0000 -6.2971
# 3 18.1291 18.1291 59.5484 0.0000 0.0000 0.0000
# 4 0.0000 0.0000 0.0000 126.4891 0.0000 0.0000
# 5 0.0000 0.0000 0.0000 0.0000 126.4891 0.0000
# 6 6.2971 -6.2971 0.0000 0.0000 0.0000 27.8350
#
#
#
# Elastic Compliance Matrix: (Units=1/GPa)
#
#
# Indices 1 2 3 4 5 6 
#
# 1 0.011681 -0.002472 -0.002804 0.000000 0.000000 -0.003202
# 2 -0.002472 0.011681 -0.002804 0.000000 0.000000 0.003202
# 3 -0.002804 -0.002804 0.018500 0.000000 0.000000 0.000000
# 4 0.000000 0.000000 0.000000 0.007906 0.000000 0.000000
# 5 0.000000 0.000000 0.000000 0.000000 0.007906 0.000000
# 6 -0.003202 0.003202 0.000000 0.000000 0.000000 0.037375
#
#
# Mechanical properties :
#
#
# Convention : Reuss Voigt Hill
#
# Bulk Modulus (GPa) = 38.90509 41.25815 40.08162
# Shear Modulus (GPa) = 41.74457 69.05317 55.39887
#
# Velocity S-wave (km/s) = 4.71344 6.06219 5.42985
# Velocity P-wave (km/s) = 7.09417 8.42364 7.78733
#
# Compressibility (1/GPa) = 0.02570358
#
# Stress axis : x y z
#
# Youngs Moduli (GPa) = 85.60694 85.60694 54.05365
#
# Poissons Ratio (x) = 0.21166 0.15154
# Poissons Ratio (y) = 0.21166 0.15154
# Poissons Ratio (z) = 0.24001 0.24001
#
# Static dielectric constant tensor:
#      x y z
#    x 3.330030 0.000000 0.000000 
#    y 0.000000 3.330030 0.000000 
#    z 0.000000 0.000000 3.208030 
# 
# 
# High freq. dielectric constant tensor:
#      x y z
#    x 1.731230 0.000000 0.000000 
#    y 0.000000 1.731230 0.000000 
#    z 0.000000 0.000000 1.705930 
# 
# From -- ./inp_files/485.got.cif
#   From: 2010.03.12/outbox.cif.g09.slc.cpg/sg79_cif.got.tgz:485.got - 2010.04.16 16:38:49.
