data_PCOD8302958
_publ_section_title
;
Structure prediction by ZEFSAII (Michael W. Deem and Ramdas Pophale) SiO2 
 PCOD8302958
Probable space group: P 4/M
;
_chemical_formula_sum "Si O2"
_cell_formula_units_Z 40
_cell_length_a 8.341714
_cell_length_b 8.341714
_cell_length_c 26.686205
_cell_angle_alpha 90.000000
_cell_angle_beta 90.000000
_cell_angle_gamma 90.000000
_cell_volume 1856.938025
_symmetry_space_group_name_H-M "P 4/M"
_symmetry_group_IT_number 83
_symmetry_cell_setting 'tetragonal'
loop_
_space_group_symop_operation_xyz
x,y,z
-y,x,z
-x,-y,z
y,-x,z
-x,-y,-z
y,-x,-z
x,y,-z
-y,x,-z
loop_
_atom_site_type_symbol
_atom_site_label
_atom_site_fract_x
_atom_site_fract_y
_atom_site_fract_z
Si Si1 0.500000 0.000000 0.633260
Si Si2 0.245688 0.091694 0.086484
Si Si3 0.754726 0.425030 0.712870
Si Si4 0.419243 0.248547 0.000000
Si Si5 0.245823 0.093973 0.200423
Si Si6 0.252671 0.927221 0.555950
O O1 0.396198 0.122093 0.667228
O O2 0.613950 0.107472 0.597724
O O3 0.304856 0.115400 0.143408
O O4 0.091670 0.201765 0.075991
O O5 0.387890 0.143169 0.049565
O O6 0.697512 0.607814 0.709979
O O7 0.849795 0.391662 0.764433
O O8 0.601500 0.300340 0.000000
O O9 0.090279 0.202829 0.211218
O O10 0.324655 0.906208 0.500000
O O11 0.108771 0.804884 0.563622
#
# Coordination Sequence:
#
# PCOD8302958 Si02
#       6
#     4   8   8   4   8   8
#     4  12  21  36  58  82 112 153 192 228 280 344
#     4   9  19  37  61  85 108 138 182 233 281 334
#     4  11  24  38  53  79 115 151 189 236 286 336
#     4  11  24  37  50  78 118 153 186 227 278 336
#     4   9  19  38  62  85 109 143 188 235 285 344
#     4   9  19  36  58  85 114 145 187 237 283 328
#
# _framework density 21.540839999999999
#
# number of rings (size 3 to 8) (size 9 to 14) (size 15 to 20)
#    0.000    2.100    0.000    5.100    0.000    4.000 
#    0.000    8.000    0.000    0.000    0.000    8.400 
#    0.000    0.000    0.000    0.000    0.000    0.000 
#
# Total GULP energy -496060.218595 kJ/mol
# GULP energy per Si atom -12401.505465 kJ/mol
# Density = 2.149181 g / cm^3
# Si number density = 21.540840 Si / 1000 Ang^3
#
#
#
# Elastic Constant Matrix: (Units=GPa)
#
#
# Indices 1 2 3 4 5 6 
#
# 1 55.6688 10.6469 41.0402 0.0000 0.0000 7.4054
# 2 10.6469 55.6688 41.0402 0.0000 0.0000 -7.4054
# 3 41.0402 41.0402 152.1204 0.0000 0.0000 0.0000
# 4 0.0000 0.0000 0.0000 35.1907 0.0000 0.0000
# 5 0.0000 0.0000 0.0000 0.0000 35.1907 0.0000
# 6 7.4054 -7.4054 0.0000 0.0000 0.0000 33.7644
#
#
#
# Elastic Compliance Matrix: (Units=1/GPa)
#
#
# Indices 1 2 3 4 5 6 
#
# 1 0.023289 -0.000650 -0.006108 0.000000 0.000000 -0.005250
# 2 -0.000650 0.023289 -0.006108 0.000000 0.000000 0.005250
# 3 -0.006108 -0.006108 0.009869 0.000000 0.000000 0.000000
# 4 0.000000 0.000000 0.000000 0.028417 0.000000 0.000000
# 5 0.000000 0.000000 0.000000 0.000000 0.028417 0.000000
# 6 -0.005250 0.005250 0.000000 0.000000 0.000000 0.031920
#
#
# Mechanical properties :
#
#
# Convention : Reuss Voigt Hill
#
# Bulk Modulus (GPa) = 32.55575 49.87914 41.21744
# Shear Modulus (GPa) = 27.59844 32.21120 29.90482
#
# Velocity S-wave (km/s) = 3.58329 3.87118 3.73001
# Velocity P-wave (km/s) = 5.68034 6.57170 6.14221
#
# Compressibility (1/GPa) = 0.03071654
#
# Stress axis : x y z
#
# Youngs Moduli (GPa) = 42.93902 42.93902 101.32407
#
# Poissons Ratio (x) = 0.02790 0.61886
# Poissons Ratio (y) = 0.02790 0.61886
# Poissons Ratio (z) = 0.26226 0.26226
#
# Static dielectric constant tensor:
#      x y z
#    x 3.683080 0.000000 0.000000 
#    y 0.000000 3.683080 0.000000 
#    z 0.000000 0.000000 3.938960 
# 
# 
# High freq. dielectric constant tensor:
#      x y z
#    x 1.837180 0.000000 0.000000 
#    y 0.000000 1.837180 0.000000 
#    z 0.000000 0.000000 1.856300 
# 
# From -- ./inp_files/3264.got.cif
#   From: 2010.03.12/outbox.cif.g09.slc.cpg/sg83_2_cif.got.tgz:3264.got - 2010.04.08 20:05:18.
