data_PCOD8302901
_publ_section_title
;
Structure prediction by ZEFSAII (Michael W. Deem and Ramdas Pophale) SiO2 
 PCOD8302901
Probable space group: P 4/M
;
_chemical_formula_sum "Si O2"
_cell_formula_units_Z 44
_cell_length_a 17.320217
_cell_length_b 17.320217
_cell_length_c 9.526673
_cell_angle_alpha 90.000000
_cell_angle_beta 90.000000
_cell_angle_gamma 90.000000
_cell_volume 2857.905842
_symmetry_space_group_name_H-M "P 4/M"
_symmetry_group_IT_number 83
_symmetry_cell_setting 'tetragonal'
loop_
_space_group_symop_operation_xyz
x,y,z
-y,x,z
-x,-y,z
y,-x,z
-x,-y,-z
y,-x,-z
x,y,-z
-y,x,-z
loop_
_atom_site_type_symbol
_atom_site_label
_atom_site_fract_x
_atom_site_fract_y
_atom_site_fract_z
Si Si1 0.000689 0.407880 0.160500
Si Si2 0.398107 0.574490 0.500000
Si Si3 0.144027 0.409188 0.658203
Si Si4 0.715149 0.584083 0.151367
Si Si5 0.691173 0.410618 0.770516
Si Si6 0.856856 0.408249 0.659509
O O1 0.927263 0.375586 0.247374
O O2 0.000000 0.500000 0.156933
O O3 0.075360 0.376336 0.244394
O O4 0.999911 0.376143 0.000000
O O5 0.392554 0.483082 0.500000
O O6 0.354867 0.608557 0.630755
O O7 0.140545 0.374009 0.500000
O O8 0.225196 0.387637 0.730166
O O9 0.136227 0.500453 0.647138
O O10 0.680509 0.499293 0.184385
O O11 0.647776 0.647549 0.125283
O O12 0.757939 0.576885 0.000000
O O13 0.779924 0.387024 0.745993
O O14 0.857415 0.373867 0.500000
#
# Coordination Sequence:
#
# PCOD8302901 Si02
#       6
#     8   4   8   8   8   8
#     4   9  16  27  43  62  84 103 124 159 209 259
#     4  11  20  32  48  62  73 107 155 197 226 257
#     4   9  18  30  46  62  78 102 135 170 209 255
#     4  11  23  34  44  60  84 111 142 183 227 264
#     4  11  21  32  47  60  83 109 147 183 224 259
#     4   9  17  27  44  62  80 102 132 172 208 254
#
# _framework density 15.395889
#
# number of rings (size 3 to 8) (size 9 to 14) (size 15 to 20)
#    0.000    2.091    2.727    1.636    2.545    7.636 
#    0.000    0.909    0.000    0.000    0.000    0.000 
#    0.000    0.000    0.000    0.000    0.000    0.909 
#
# Total GULP energy -545259.575817 kJ/mol
# GULP energy per Si atom -12392.263087 kJ/mol
# Density = 1.536085 g / cm^3
# Si number density = 15.395889 Si / 1000 Ang^3
#
#
#
# Elastic Constant Matrix: (Units=GPa)
#
#
# Indices 1 2 3 4 5 6 
#
# 1 70.1308 21.5013 26.9929 0.0000 0.0000 1.3021
# 2 21.5013 70.1308 26.9929 0.0000 0.0000 -1.3021
# 3 26.9929 26.9929 116.8379 0.0000 0.0000 0.0000
# 4 0.0000 0.0000 0.0000 14.8922 0.0000 0.0000
# 5 0.0000 0.0000 0.0000 0.0000 14.8922 0.0000
# 6 1.3021 -1.3021 0.0000 0.0000 0.0000 3.4262
#
#
#
# Elastic Compliance Matrix: (Units=1/GPa)
#
#
# Indices 1 2 3 4 5 6 
#
# 1 0.016812 -0.004179 -0.002919 0.000000 0.000000 -0.007978
# 2 -0.004179 0.016812 -0.002919 0.000000 0.000000 0.007978
# 3 -0.002919 -0.002919 0.009907 0.000000 0.000000 0.000000
# 4 0.000000 0.000000 0.000000 0.067149 0.000000 0.000000
# 5 0.000000 0.000000 0.000000 0.000000 0.067149 0.000000
# 6 -0.007978 0.007978 0.000000 0.000000 0.000000 0.297931
#
#
# Mechanical properties :
#
#
# Convention : Reuss Voigt Hill
#
# Bulk Modulus (GPa) = 42.55560 45.34156 43.94858
# Shear Modulus (GPa) = 9.92799 18.74960 14.33880
#
# Velocity S-wave (km/s) = 2.54214 3.49353 3.05510
# Velocity P-wave (km/s) = 6.02640 6.76664 6.40722
#
# Compressibility (1/GPa) = 0.02349867
#
# Stress axis : x y z
#
# Youngs Moduli (GPa) = 59.48215 59.48215 100.93483
#
# Poissons Ratio (x) = 0.24858 0.29458
# Poissons Ratio (y) = 0.24858 0.29458
# Poissons Ratio (z) = 0.17360 0.17360
#
# Static dielectric constant tensor:
#      x y z
#    x 2.707960 0.000000 0.000000 
#    y 0.000000 2.707960 0.000000 
#    z 0.000000 0.000000 3.263200 
# 
# 
# High freq. dielectric constant tensor:
#      x y z
#    x 1.546100 0.000000 0.000000 
#    y 0.000000 1.546100 0.000000 
#    z 0.000000 0.000000 1.620090 
# 
# From -- ./inp_files/922.got.cif
#   From: 2010.03.12/outbox.cif.g09.slc.cpg/sg83_1_cif.got.tgz:922.got - 2010.04.08 20:05:18.
