data_PCOD8302733
_publ_section_title
;
Structure prediction by ZEFSAII (Michael W. Deem and Ramdas Pophale) SiO2 
 PCOD8302733
Probable space group: P 4/M
;
_chemical_formula_sum "Si O2"
_cell_formula_units_Z 40
_cell_length_a 15.346425
_cell_length_b 15.346425
_cell_length_c 8.431001
_cell_angle_alpha 90.000000
_cell_angle_beta 90.000000
_cell_angle_gamma 90.000000
_cell_volume 1985.608317
_symmetry_space_group_name_H-M "P 4/M"
_symmetry_group_IT_number 83
_symmetry_cell_setting 'tetragonal'
loop_
_space_group_symop_operation_xyz
x,y,z
-y,x,z
-x,-y,z
y,-x,z
-x,-y,-z
y,-x,-z
x,y,-z
-y,x,-z
loop_
_atom_site_type_symbol
_atom_site_label
_atom_site_fract_x
_atom_site_fract_y
_atom_site_fract_z
Si Si1 0.757790 0.018396 0.815260
Si Si2 0.836142 0.188485 0.685071
Si Si3 0.332346 0.301779 0.689681
Si Si4 0.076741 0.432496 0.819794
Si Si5 0.520519 0.254265 0.683532
O O1 0.821256 0.098790 0.778714
O O2 0.661034 0.044307 0.761442
O O3 0.783782 0.935111 0.712807
O O4 0.762450 0.994109 0.000000
O O5 0.819774 0.172147 0.500000
O O6 0.770431 0.263182 0.750569
O O7 0.332974 0.299738 0.500000
O O8 0.428215 0.281709 0.761434
O O9 0.305898 0.397009 0.756980
O O10 0.152192 0.465019 0.705176
O O11 0.000000 0.500000 0.802241
O O12 0.111543 0.427723 0.000000
O O13 0.515515 0.276905 0.500000
#
# Coordination Sequence:
#
# PCOD8302733 Si02
#       5
#     8   8   8   8   8
#     4  11  23  39  60  86 117 156 196 241 296 353
#     4  11  22  39  60  87 119 154 197 246 295 350
#     4   9  19  34  57  87 119 154 197 244 293 345
#     4  10  21  37  57  85 117 151 197 245 293 347
#     4  10  19  35  57  84 118 156 197 242 292 346
#
# _framework density 20.144957999999999
#
# number of rings (size 3 to 8) (size 9 to 14) (size 15 to 20)
#    0.000    1.800    2.000    2.400    0.000    2.000 
#    0.000    6.000    0.000    0.000    0.000    1.400 
#    0.000    0.000    0.000    0.000    0.000    0.000 
#
# Total GULP energy -496097.928352 kJ/mol
# GULP energy per Si atom -12402.448209 kJ/mol
# Density = 2.009911 g / cm^3
# Si number density = 20.144958 Si / 1000 Ang^3
#
#
#
# Elastic Constant Matrix: (Units=GPa)
#
#
# Indices 1 2 3 4 5 6 
#
# 1 147.0713 58.7183 9.6286 0.0000 0.0000 1.5235
# 2 58.7183 147.0713 9.6286 0.0000 0.0000 -1.5235
# 3 9.6286 9.6286 21.3661 0.0000 0.0000 0.0000
# 4 0.0000 0.0000 0.0000 6.5390 0.0000 0.0000
# 5 0.0000 0.0000 0.0000 0.0000 6.5390 0.0000
# 6 1.5235 -1.5235 0.0000 0.0000 0.0000 31.4534
#
#
#
# Elastic Compliance Matrix: (Units=1/GPa)
#
#
# Indices 1 2 3 4 5 6 
#
# 1 0.008205 -0.003132 -0.002286 0.000000 0.000000 -0.000549
# 2 -0.003132 0.008205 -0.002286 0.000000 0.000000 0.000549
# 3 -0.002286 -0.002286 0.048864 0.000000 0.000000 0.000000
# 4 0.000000 0.000000 0.000000 0.152928 0.000000 0.000000
# 5 0.000000 0.000000 0.000000 0.000000 0.152928 0.000000
# 6 -0.000549 0.000549 0.000000 0.000000 0.000000 0.031846
#
#
# Mechanical properties :
#
#
# Convention : Reuss Voigt Hill
#
# Bulk Modulus (GPa) = 20.05404 52.38441 36.21922
# Shear Modulus (GPa) = 11.49408 24.74184 18.11796
#
# Velocity S-wave (km/s) = 2.39125 3.50836 3.00222
# Velocity P-wave (km/s) = 4.19530 6.51702 5.48052
#
# Compressibility (1/GPa) = 0.04986527
#
# Stress axis : x y z
#
# Youngs Moduli (GPa) = 121.87352 121.87352 20.46506
#
# Poissons Ratio (x) = 0.38170 0.04679
# Poissons Ratio (y) = 0.38170 0.04679
# Poissons Ratio (z) = 0.27864 0.27864
#
# Static dielectric constant tensor:
#      x y z
#    x 3.806140 0.000000 0.000000 
#    y 0.000000 3.806140 0.000000 
#    z 0.000000 0.000000 3.355350 
# 
# 
# High freq. dielectric constant tensor:
#      x y z
#    x 1.797490 0.000000 0.000000 
#    y 0.000000 1.797490 0.000000 
#    z 0.000000 0.000000 1.757810 
# 
# From -- ./inp_files/627.got.cif
#   From: 2010.03.12/outbox.cif.g09.slc.cpg/sg83_1_cif.got.tgz:627.got - 2010.04.08 20:05:18.
