data_PCOD8302830
_publ_section_title
;
Structure prediction by ZEFSAII (Michael W. Deem and Ramdas Pophale) SiO2 
 PCOD8302830
Probable space group: P 4/M
;
_chemical_formula_sum "Si O2"
_cell_formula_units_Z 48
_cell_length_a 11.777962
_cell_length_b 11.777962
_cell_length_c 17.464205
_cell_angle_alpha 90.000000
_cell_angle_beta 90.000000
_cell_angle_gamma 90.000000
_cell_volume 2422.641309
_symmetry_space_group_name_H-M "P 4/M"
_symmetry_group_IT_number 83
_symmetry_cell_setting 'tetragonal'
loop_
_space_group_symop_operation_xyz
x,y,z
-y,x,z
-x,-y,z
y,-x,z
-x,-y,-z
y,-x,-z
x,y,-z
-y,x,-z
loop_
_atom_site_type_symbol
_atom_site_label
_atom_site_fract_x
_atom_site_fract_y
_atom_site_fract_z
Si Si1 0.763370 0.644596 0.164265
Si Si2 0.875510 0.862021 0.413696
Si Si3 0.789249 0.302793 0.700422
Si Si4 0.210342 0.589037 0.087042
Si Si5 0.449035 0.320786 0.413770
Si Si6 0.373659 0.016608 0.808941
O O1 0.702204 0.680669 0.243116
O O2 0.750703 0.510962 0.145746
O O3 0.699538 0.710378 0.095718
O O4 0.895171 0.683629 0.172577
O O5 0.842541 0.825706 0.500000
O O6 0.807539 0.785630 0.353673
O O7 0.007722 0.842042 0.400035
O O8 0.776595 0.415046 0.647243
O O9 0.907554 0.305156 0.747407
O O10 0.082134 0.622250 0.109659
O O11 0.214039 0.545682 0.000000
O O12 0.576392 0.361286 0.400210
O O13 0.436068 0.273248 0.500000
O O14 0.500000 0.000000 0.775572
#
# Coordination Sequence:
#
# PCOD8302830 Si02
#       6
#     8   8   8   8   8   8
#     4  10  22  36  55  84 116 143 187 230 275 339
#     4   9  18  33  53  78 107 144 192 238 283 334
#     4  11  20  33  59  80 110 150 183 236 285 329
#     4  10  21  38  60  83 111 150 182 227 282 333
#     4   9  20  36  53  77 112 153 192 229 276 337
#     4   9  21  37  52  81 114 145 186 227 273 341
#
# _framework density 19.813086999999999
#
# number of rings (size 3 to 8) (size 9 to 14) (size 15 to 20)
#    0.000    2.333    0.000    3.000    7.000    4.000 
#    0.000    0.833    0.000    5.500    0.000    4.667 
#    0.000    0.000    0.000    0.000    0.000    0.000 
#
# Total GULP energy -594978.281180 kJ/mol
# GULP energy per Si atom -12395.380858 kJ/mol
# Density = 1.976799 g / cm^3
# Si number density = 19.813087 Si / 1000 Ang^3
#
#
#
# Elastic Constant Matrix: (Units=GPa)
#
#
# Indices 1 2 3 4 5 6 
#
# 1 68.5997 23.4125 35.3936 0.0000 0.0000 -4.7283
# 2 23.4125 68.5997 35.3936 0.0000 0.0000 4.7283
# 3 35.3936 35.3936 123.2703 0.0000 0.0000 0.0000
# 4 0.0000 0.0000 0.0000 23.1812 0.0000 0.0000
# 5 0.0000 0.0000 0.0000 0.0000 23.1812 0.0000
# 6 -4.7283 4.7283 0.0000 0.0000 0.0000 28.2175
#
#
#
# Elastic Compliance Matrix: (Units=1/GPa)
#
#
# Indices 1 2 3 4 5 6 
#
# 1 0.018442 -0.004493 -0.004005 0.000000 0.000000 0.003843
# 2 -0.004493 0.018442 -0.004005 0.000000 0.000000 -0.003843
# 3 -0.004005 -0.004005 0.010412 0.000000 0.000000 0.000000
# 4 0.000000 0.000000 0.000000 0.043138 0.000000 0.000000
# 5 0.000000 0.000000 0.000000 0.000000 0.043138 0.000000
# 6 0.003843 -0.003843 0.000000 0.000000 0.000000 0.036727
#
#
# Mechanical properties :
#
#
# Convention : Reuss Voigt Hill
#
# Bulk Modulus (GPa) = 44.86257 49.87436 47.36847
# Shear Modulus (GPa) = 24.66267 26.00064 25.33166
#
# Velocity S-wave (km/s) = 3.53195 3.62649 3.57953
# Velocity P-wave (km/s) = 6.27096 6.53929 6.40653
#
# Compressibility (1/GPa) = 0.02229029
#
# Stress axis : x y z
#
# Youngs Moduli (GPa) = 54.22426 54.22426 96.04111
#
# Poissons Ratio (x) = 0.24360 0.38466
# Poissons Ratio (y) = 0.24360 0.38466
# Poissons Ratio (z) = 0.21718 0.21718
#
# Static dielectric constant tensor:
#      x y z
#    x 3.504580 0.000000 0.000000 
#    y 0.000000 3.504580 0.000000 
#    z 0.000000 0.000000 3.573580 
# 
# 
# High freq. dielectric constant tensor:
#      x y z
#    x 1.758860 0.000000 0.000000 
#    y 0.000000 1.758860 0.000000 
#    z 0.000000 0.000000 1.777690 
# 
# From -- ./inp_files/2653.got.cif
#   From: 2010.03.12/outbox.cif.g09.slc.cpg/sg83_2_cif.got.tgz:2653.got - 2010.04.08 20:05:18.
