data_PCOD8302949
_publ_section_title
;
Structure prediction by ZEFSAII (Michael W. Deem and Ramdas Pophale) SiO2 
 PCOD8302949
Probable space group: P 4/M
;
_chemical_formula_sum "Si O2"
_cell_formula_units_Z 44
_cell_length_a 8.750925
_cell_length_b 8.750925
_cell_length_c 28.219142
_cell_angle_alpha 90.000000
_cell_angle_beta 90.000000
_cell_angle_gamma 90.000000
_cell_volume 2160.984881
_symmetry_space_group_name_H-M "P 4/M"
_symmetry_group_IT_number 83
_symmetry_cell_setting 'tetragonal'
loop_
_space_group_symop_operation_xyz
x,y,z
-y,x,z
-x,-y,z
y,-x,z
-x,-y,-z
y,-x,-z
x,y,-z
-y,x,-z
loop_
_atom_site_type_symbol
_atom_site_label
_atom_site_fract_x
_atom_site_fract_y
_atom_site_fract_z
Si Si1 0.233779 0.907615 0.500000
Si Si2 0.276550 0.388435 0.945736
Si Si3 0.269788 0.403557 0.321855
Si Si4 0.727657 0.604041 0.214093
Si Si5 0.907905 0.763898 0.602111
Si Si6 0.769323 0.102983 0.865554
O O1 0.317707 0.874768 0.550402
O O2 0.083801 0.806768 0.500000
O O3 0.433144 0.299322 0.934739
O O4 0.142283 0.323721 0.913074
O O5 0.226939 0.363995 0.000000
O O6 0.419978 0.303790 0.331589
O O7 0.215924 0.375528 0.268016
O O8 0.134669 0.354529 0.356886
O O9 0.573608 0.698232 0.203862
O O10 0.859358 0.666720 0.180153
O O11 0.084780 0.805610 0.607351
O O12 0.924153 0.199748 0.864656
#
# Coordination Sequence:
#
# PCOD8302949 Si02
#       6
#     4   8   8   8   8   8
#     4   7  12  26  46  67  94 128 164 201 242 289
#     4   9  19  37  60  83 105 133 173 215 250 291
#     4   9  19  35  52  72 100 131 163 203 252 302
#     4   9  19  37  58  75  94 128 173 213 248 295
#     4   9  17  30  50  74  98 127 165 207 248 293
#     4  11  24  37  50  76 112 141 166 204 253 300
#
# _framework density 20.361087000000001
#
# number of rings (size 3 to 8) (size 9 to 14) (size 15 to 20)
#    0.000    2.818    0.000    3.818    0.000    7.273 
#    0.000    9.091    0.000    4.364    0.000    0.000 
#    0.000    0.000    0.000    0.000    0.000    0.000 
#
# Total GULP energy -545422.296124 kJ/mol
# GULP energy per Si atom -12395.961276 kJ/mol
# Density = 2.031474 g / cm^3
# Si number density = 20.361087 Si / 1000 Ang^3
#
#
#
# Elastic Constant Matrix: (Units=GPa)
#
#
# Indices 1 2 3 4 5 6 
#
# 1 13.6056 -7.4334 10.2966 0.0000 0.0000 2.0277
# 2 -7.4334 13.6056 10.2966 0.0000 0.0000 -2.0277
# 3 10.2966 10.2966 111.8988 0.0000 0.0000 0.0000
# 4 0.0000 0.0000 0.0000 2.5605 0.0000 0.0000
# 5 0.0000 0.0000 0.0000 0.0000 2.5605 0.0000
# 6 2.0277 -2.0277 0.0000 0.0000 0.0000 31.8677
#
#
#
# Elastic Compliance Matrix: (Units=1/GPa)
#
#
# Indices 1 2 3 4 5 6 
#
# 1 0.140956 0.092835 -0.021513 0.000000 0.000000 -0.003062
# 2 0.092835 0.140956 -0.021513 0.000000 0.000000 0.003062
# 3 -0.021513 -0.021513 0.012896 0.000000 0.000000 0.000000
# 4 0.000000 0.000000 0.000000 0.390556 0.000000 0.000000
# 5 0.000000 0.000000 0.000000 0.000000 0.390556 0.000000
# 6 -0.003062 0.003062 0.000000 0.000000 0.000000 0.031769
#
#
# Mechanical properties :
#
#
# Convention : Reuss Voigt Hill
#
# Bulk Modulus (GPa) = 2.53533 18.38107 10.45820
# Shear Modulus (GPa) = 4.38772 15.79440 10.09106
#
# Velocity S-wave (km/s) = 1.46957 2.78819 2.22863
# Velocity P-wave (km/s) = 2.03160 4.40596 3.43073
#
# Compressibility (1/GPa) = 0.39442580
#
# Stress axis : x y z
#
# Youngs Moduli (GPa) = 7.09443 7.09443 77.54514
#
# Poissons Ratio (x) = -0.65861 1.66820
# Poissons Ratio (y) = -0.65861 1.66820
# Poissons Ratio (z) = 0.15262 0.15262
#
# Static dielectric constant tensor:
#      x y z
#    x 3.401550 0.000000 0.000000 
#    y 0.000000 3.401550 0.000000 
#    z 0.000000 0.000000 3.907860 
# 
# 
# High freq. dielectric constant tensor:
#      x y z
#    x 1.775980 0.000000 0.000000 
#    y 0.000000 1.775980 0.000000 
#    z 0.000000 0.000000 1.812120 
# 
# From -- ./inp_files/3349.got.cif
#   From: 2010.03.12/outbox.cif.g09.slc.cpg/sg83_2_cif.got.tgz:3349.got - 2010.04.08 20:05:18.
