data_PCOD8302645
_publ_section_title
;
Structure prediction by ZEFSAII (Michael W. Deem and Ramdas Pophale) SiO2 
 PCOD8302645
Probable space group: P 4/M
;
_chemical_formula_sum "Si O2"
_cell_formula_units_Z 56
_cell_length_a 17.167098
_cell_length_b 17.167098
_cell_length_c 13.754379
_cell_angle_alpha 90.000000
_cell_angle_beta 90.000000
_cell_angle_gamma 90.000000
_cell_volume 4053.542771
_symmetry_space_group_name_H-M "P 4/M"
_symmetry_group_IT_number 83
_symmetry_cell_setting 'tetragonal'
loop_
_space_group_symop_operation_xyz
x,y,z
-y,x,z
-x,-y,z
y,-x,z
-x,-y,-z
y,-x,-z
x,y,-z
-y,x,-z
loop_
_atom_site_type_symbol
_atom_site_label
_atom_site_fract_x
_atom_site_fract_y
_atom_site_fract_z
Si Si1 0.942720 0.885199 0.891115
Si Si2 0.083749 0.625742 0.613221
Si Si3 0.200627 0.499026 0.615402
Si Si4 0.083028 0.196017 0.299803
Si Si5 0.501005 0.623878 0.615599
Si Si6 0.200572 0.078936 0.614104
Si Si7 0.089872 0.361042 0.386771
O O1 0.909870 0.822212 0.814891
O O2 0.034303 0.897510 0.874828
O O3 0.927114 0.853629 0.000000
O O4 0.101856 0.625117 0.500000
O O5 0.147059 0.567662 0.661729
O O6 0.096015 0.712628 0.654769
O O7 0.994358 0.598430 0.631836
O O8 0.204150 0.506884 0.500000
O O9 0.288334 0.501877 0.659163
O O10 0.159578 0.417992 0.643439
O O11 0.147442 0.151450 0.361562
O O12 0.097657 0.286684 0.317689
O O13 0.998826 0.167230 0.336316
O O14 0.423332 0.577854 0.650898
O O15 0.500301 0.627746 0.500000
O O16 0.203760 0.063260 0.500000
O O17 0.095490 0.335677 0.500000
#
# Coordination Sequence:
#
# PCOD8302645 Si02
#       7
#     8   8   8   8   8   8   8
#     4   9  17  30  45  59  73  97 137 177 208 238
#     4   8  15  26  36  48  69  99 135 169 193 216
#     4   9  15  24  39  52  67 100 137 164 196 230
#     4  11  18  28  39  55  80 106 133 168 206 236
#     4   8  14  23  33  47  66  87 119 163 200 228
#     4  10  19  27  36  53  81 113 139 163 194 238
#     4   9  17  26  36  53  77 103 133 166 193 227
#
# _framework density 13.815075999999999
#
# number of rings (size 3 to 8) (size 9 to 14) (size 15 to 20)
#    0.000    2.857    1.429    3.429    0.000    3.143 
#    0.000    5.000    0.000    0.000    0.000    0.000 
#    0.000   10.286    0.000    0.000    0.000    0.000 
#
# Total GULP energy -694043.008672 kJ/mol
# GULP energy per Si atom -12393.625155 kJ/mol
# Density = 1.378363 g / cm^3
# Si number density = 13.815076 Si / 1000 Ang^3
#
#
#
# Elastic Constant Matrix: (Units=GPa)
#
#
# Indices 1 2 3 4 5 6 
#
# 1 83.7193 47.6346 12.0726 0.0000 0.0000 2.1428
# 2 47.6346 83.7193 12.0726 0.0000 0.0000 -2.1428
# 3 12.0726 12.0726 34.3759 0.0000 0.0000 0.0000
# 4 0.0000 0.0000 0.0000 7.8119 0.0000 0.0000
# 5 0.0000 0.0000 0.0000 0.0000 7.8119 0.0000
# 6 2.1428 -2.1428 0.0000 0.0000 0.0000 19.2038
#
#
#
# Elastic Compliance Matrix: (Units=1/GPa)
#
#
# Indices 1 2 3 4 5 6 
#
# 1 0.018112 -0.009973 -0.002858 0.000000 0.000000 -0.003134
# 2 -0.009973 0.018112 -0.002858 0.000000 0.000000 0.003134
# 3 -0.002858 -0.002858 0.031098 0.000000 0.000000 0.000000
# 4 0.000000 0.000000 0.000000 0.128010 0.000000 0.000000
# 5 0.000000 0.000000 0.000000 0.000000 0.128010 0.000000
# 6 -0.003134 0.003134 0.000000 0.000000 0.000000 0.052772
#
#
# Mechanical properties :
#
#
# Convention : Reuss Voigt Hill
#
# Bulk Modulus (GPa) = 27.82273 38.37490 33.09882
# Shear Modulus (GPa) = 11.91975 15.63451 13.77713
#
# Velocity S-wave (km/s) = 2.94054 3.36772 3.16136
# Velocity P-wave (km/s) = 5.63136 6.55438 6.11032
#
# Compressibility (1/GPa) = 0.03594183
#
# Stress axis : x y z
#
# Youngs Moduli (GPa) = 55.21330 55.21330 32.15676
#
# Poissons Ratio (x) = 0.55065 0.09191
# Poissons Ratio (y) = 0.55065 0.09191
# Poissons Ratio (z) = 0.15781 0.15781
#
# Static dielectric constant tensor:
#      x y z
#    x 2.856620 0.000000 0.000000 
#    y 0.000000 2.856620 0.000000 
#    z 0.000000 0.000000 2.272560 
# 
# 
# High freq. dielectric constant tensor:
#      x y z
#    x 1.529270 0.000000 0.000000 
#    y 0.000000 1.529270 0.000000 
#    z 0.000000 0.000000 1.458710 
# 
# From -- ./inp_files/1997.got.cif
#   From: 2010.03.12/outbox.cif.g09.slc.cpg/sg83_1_cif.got.tgz:1997.got - 2010.04.08 20:05:18.
