data_PCOD8302123
_publ_section_title
;
Structure prediction by ZEFSAII (Michael W. Deem and Ramdas Pophale) SiO2 
 PCOD8302123
Probable space group: I 4
;
_chemical_formula_sum "Si O2"
_cell_formula_units_Z 44
_cell_length_a 8.400570
_cell_length_b 8.400570
_cell_length_c 29.210457
_cell_angle_alpha 90.000000
_cell_angle_beta 90.000000
_cell_angle_gamma 90.000000
_cell_volume 2061.369575
_symmetry_space_group_name_H-M "I 4"
_symmetry_group_IT_number 79
_symmetry_cell_setting 'tetragonal'
loop_
_space_group_symop_operation_xyz
x,y,z
-y,x,z
-x,-y,z
y,-x,z
1/2+x,1/2+y,1/2+z
1/2-y,1/2+x,1/2+z
1/2-x,1/2-y,1/2+z
1/2+y,1/2-x,1/2+z
loop_
_atom_site_type_symbol
_atom_site_label
_atom_site_fract_x
_atom_site_fract_y
_atom_site_fract_z
Si Si1 0.251451 0.930135 0.132240
Si Si2 0.751824 0.923027 0.807265
Si Si3 0.254493 0.927431 0.488787
Si Si4 0.746812 0.587591 0.411126
Si Si5 0.000000 0.500000 0.061829
Si Si6 0.070366 0.251477 0.234536
O O1 0.322581 0.909114 0.183373
O O2 0.109756 0.807252 0.125134
O O3 0.384165 0.896212 0.094192
O O4 0.691872 0.896902 0.859088
O O5 0.609850 0.885553 0.772008
O O6 0.897836 0.804646 0.798315
O O7 0.355612 0.892454 0.442887
O O8 0.374334 0.900976 0.531199
O O9 0.108603 0.804872 0.490388
O O10 0.594430 0.699236 0.420987
O O11 0.892608 0.192412 0.241899
#
# Coordination Sequence:
#
# PCOD8302123 Si02
#       6
#     8   8   8   8   4   8
#     4   9  20  38  58  82 111 144 186 231 271 324
#     4   9  19  35  56  84 115 146 183 224 266 321
#     4  11  24  39  56  84 118 145 179 234 289 334
#     4   9  19  38  61  83 111 150 192 228 269 332
#     4  12  22  38  62  82 106 146 190 228 282 340
#     4   9  19  35  54  80 114 147 183 226 270 319
#
# _framework density 21.345032
#
# number of rings (size 3 to 8) (size 9 to 14) (size 15 to 20)
#    0.000    2.364    0.000    4.364    0.000    5.091 
#    0.000    7.273    0.000    2.182    0.000    0.000 
#    0.000    0.000    0.000    0.000    0.000    0.000 
#
# Total GULP energy -272789.881866 kJ/mol
# GULP energy per Si atom -12399.540085 kJ/mol
# Density = 2.129645 g / cm^3
# Si number density = 21.345032 Si / 1000 Ang^3
#
#
#
# Elastic Constant Matrix: (Units=GPa)
#
#
# Indices 1 2 3 4 5 6 
#
# 1 63.9103 28.1506 57.8530 0.0000 0.0000 7.2758
# 2 28.1506 63.9103 57.8530 0.0000 0.0000 -7.2758
# 3 57.8530 57.8530 166.9102 0.0000 0.0000 0.0000
# 4 0.0000 0.0000 0.0000 40.8075 0.0000 0.0000
# 5 0.0000 0.0000 0.0000 0.0000 40.8075 0.0000
# 6 7.2758 -7.2758 0.0000 0.0000 0.0000 36.5935
#
#
#
# Elastic Compliance Matrix: (Units=1/GPa)
#
#
# Indices 1 2 3 4 5 6 
#
# 1 0.024837 -0.005590 -0.006671 0.000000 0.000000 -0.006050
# 2 -0.005590 0.024837 -0.006671 0.000000 0.000000 0.006050
# 3 -0.006671 -0.006671 0.010616 0.000000 0.000000 0.000000
# 4 0.000000 0.000000 0.000000 0.024505 0.000000 0.000000
# 5 0.000000 0.000000 0.000000 0.000000 0.024505 0.000000
# 6 -0.006050 0.006050 0.000000 0.000000 0.000000 0.029733
#
#
# Mechanical properties :
#
#
# Convention : Reuss Voigt Hill
#
# Bulk Modulus (GPa) = 44.59298 64.71601 54.65449
# Shear Modulus (GPa) = 27.11913 33.70000 30.40957
#
# Velocity S-wave (km/s) = 3.56829 3.97775 3.77857
# Velocity P-wave (km/s) = 6.15742 7.17506 6.68563
#
# Compressibility (1/GPa) = 0.02242506
#
# Stress axis : x y z
#
# Youngs Moduli (GPa) = 40.26315 40.26314 94.19816
#
# Poissons Ratio (x) = 0.22505 0.62842
# Poissons Ratio (y) = 0.22505 0.62842
# Poissons Ratio (z) = 0.26861 0.26861
#
# Static dielectric constant tensor:
#      x y z
#    x 3.665530 0.000000 0.000000 
#    y 0.000000 3.665530 0.000000 
#    z 0.000000 0.000000 3.900140 
# 
# 
# High freq. dielectric constant tensor:
#      x y z
#    x 1.829840 0.000000 0.000000 
#    y 0.000000 1.829840 0.000000 
#    z 0.000000 0.000000 1.844850 
# 
# From -- ./inp_files/2086.got.cif
#   From: 2010.03.12/outbox.cif.g09.slc.cpg/sg79_cif.got.tgz:2086.got - 2010.04.16 16:38:49.
