data_PCOD8302391
_publ_section_title
;
Structure prediction by ZEFSAII (Michael W. Deem and Ramdas Pophale) SiO2 
 PCOD8302391
Probable space group: I -4 
;
_chemical_formula_sum "Si O2"
_cell_formula_units_Z 36
_cell_length_a 12.475251
_cell_length_b 12.475251
_cell_length_c 11.837717
_cell_angle_alpha 90.000000
_cell_angle_beta 90.000000
_cell_angle_gamma 90.000000
_cell_volume 1842.326241
_symmetry_space_group_name_H-M "I -4 "
_symmetry_group_IT_number 82
_symmetry_cell_setting 'tetragonal'
loop_
_space_group_symop_operation_xyz
x,y,z
y,-x,-z
-x,-y,z
-y,x,-z
1/2+x,1/2+y,1/2+z
1/2+y,1/2-x,1/2-z
1/2-x,1/2-y,1/2+z
1/2-y,1/2+x,1/2-z
loop_
_atom_site_type_symbol
_atom_site_label
_atom_site_fract_x
_atom_site_fract_y
_atom_site_fract_z
Si Si1 0.198281 0.058511 0.112279
Si Si2 0.078308 0.346368 0.231748
Si Si3 0.000000 0.000000 0.000000
Si Si4 0.500000 0.500000 0.000000
Si Si5 0.236924 0.662355 0.500306
Si Si6 0.861688 0.160742 0.648433
O O1 0.237215 0.160310 0.036564
O O2 0.211646 0.074332 0.245513
O O3 0.071540 0.070601 0.084106
O O4 0.240580 0.942194 0.077861
O O5 0.136568 0.451234 0.281063
O O6 0.124726 0.327089 0.108479
O O7 0.102302 0.247082 0.313682
O O8 0.577859 0.565549 0.918646
O O9 0.159512 0.737683 0.570537
#
# Coordination Sequence:
#
# PCOD8302391 Si02
#       6
#     8   8   2   2   8   8
#     4   9  19  34  57  83 111 148 191 234 283 345
#     4  10  21  39  61  84 115 158 204 244 289 348
#     4   8  14  32  56  78 104 140 186 228 268 330
#     4  12  26  40  56  86 116 148 194 244 304 362
#     4  10  20  37  59  86 116 153 196 241 292 348
#     4  11  23  37  59  87 119 153 189 243 299 353
#
# _framework density 19.540513000000001
#
# number of rings (size 3 to 8) (size 9 to 14) (size 15 to 20)
#    0.000    2.000    0.000    3.333    0.000    8.889 
#    0.000    4.444    0.000    0.000    0.000    0.000 
#    0.000    0.000    0.000    0.000    0.000    0.000 
#
# Total GULP energy -223082.868371 kJ/mol
# GULP energy per Si atom -12393.492687 kJ/mol
# Density = 1.949604 g / cm^3
# Si number density = 19.540513 Si / 1000 Ang^3
#
#
#
# Elastic Constant Matrix: (Units=GPa)
#
#
# Indices 1 2 3 4 5 6 
#
# 1 105.9113 54.7758 67.0838 0.0000 0.0000 8.1305
# 2 54.7758 105.9113 67.0838 0.0000 0.0000 -8.1305
# 3 67.0838 67.0838 146.6904 0.0000 0.0000 0.0000
# 4 0.0000 0.0000 0.0000 27.9946 0.0000 0.0000
# 5 0.0000 0.0000 0.0000 0.0000 27.9946 0.0000
# 6 8.1305 -8.1305 0.0000 0.0000 0.0000 35.2463
#
#
#
# Elastic Compliance Matrix: (Units=1/GPa)
#
#
# Indices 1 2 3 4 5 6 
#
# 1 0.015586 -0.005518 -0.004604 0.000000 0.000000 -0.004868
# 2 -0.005518 0.015586 -0.004604 0.000000 0.000000 0.004868
# 3 -0.004604 -0.004604 0.011028 0.000000 0.000000 0.000000
# 4 0.000000 0.000000 0.000000 0.035721 0.000000 0.000000
# 5 0.000000 0.000000 0.000000 0.000000 0.035721 0.000000
# 6 -0.004868 0.004868 0.000000 0.000000 0.000000 0.030618
#
#
# Mechanical properties :
#
#
# Convention : Reuss Voigt Hill
#
# Bulk Modulus (GPa) = 78.45028 81.82220 80.13624
# Shear Modulus (GPa) = 28.09606 29.55175 28.82390
#
# Velocity S-wave (km/s) = 3.79600 3.89309 3.84485
# Velocity P-wave (km/s) = 7.71022 7.88494 7.79807
#
# Compressibility (1/GPa) = 0.01274693
#
# Stress axis : x y z
#
# Youngs Moduli (GPa) = 64.16151 64.16151 90.67802
#
# Poissons Ratio (x) = 0.35406 0.41748
# Poissons Ratio (y) = 0.35406 0.41748
# Poissons Ratio (z) = 0.29540 0.29540
#
# Static dielectric constant tensor:
#      x y z
#    x 3.592590 0.000000 0.000000 
#    y 0.000000 3.592590 0.000000 
#    z 0.000000 0.000000 3.626510 
# 
# 
# High freq. dielectric constant tensor:
#      x y z
#    x 1.759820 0.000000 0.000000 
#    y 0.000000 1.759820 0.000000 
#    z 0.000000 0.000000 1.771970 
# 
# From -- ./inp_files/895.got.cif
#   From: 2010.03.12/outbox.cif.g09.slc.cpg/sg82_1_cif.got.tgz:895.got - 2010.04.08 20:02:50.
