data_PCOD8302731
_publ_section_title
;
Structure prediction by ZEFSAII (Michael W. Deem and Ramdas Pophale) SiO2 
 PCOD8302731
Probable space group: P 4/M
;
_chemical_formula_sum "Si O2"
_cell_formula_units_Z 52
_cell_length_a 18.041974
_cell_length_b 18.041974
_cell_length_c 8.347897
_cell_angle_alpha 90.000000
_cell_angle_beta 90.000000
_cell_angle_gamma 90.000000
_cell_volume 2717.347542
_symmetry_space_group_name_H-M "P 4/M"
_symmetry_group_IT_number 83
_symmetry_cell_setting 'tetragonal'
loop_
_space_group_symop_operation_xyz
x,y,z
-y,x,z
-x,-y,z
y,-x,z
-x,-y,-z
y,-x,-z
x,y,-z
-y,x,-z
loop_
_atom_site_type_symbol
_atom_site_label
_atom_site_fract_x
_atom_site_fract_y
_atom_site_fract_z
Si Si1 0.491911 0.250452 0.686336
Si Si2 0.836648 0.631726 0.313796
Si Si3 0.866937 0.359720 0.321569
Si Si4 0.559134 0.394321 0.500000
Si Si5 0.582504 0.011364 0.815647
Si Si6 0.755804 0.255732 0.176435
Si Si7 0.638614 0.384601 0.822969
O O1 0.507364 0.277349 0.500000
O O2 0.565631 0.213449 0.765279
O O3 0.429023 0.188080 0.687477
O O4 0.463542 0.321328 0.787089
O O5 0.823445 0.624368 0.500000
O O6 0.813040 0.713342 0.256550
O O7 0.922831 0.622676 0.277127
O O8 0.898490 0.351848 0.500000
O O9 0.935927 0.371346 0.203740
O O10 0.826856 0.282385 0.277039
O O11 0.598889 0.472304 0.500000
O O12 0.585792 0.358283 0.672566
O O13 0.500000 0.000000 0.744595
O O14 0.578331 0.034179 0.000000
O O15 0.701202 0.324124 0.164867
O O16 0.782149 0.231323 0.000000
O O17 0.598993 0.391256 0.000000
#
# Coordination Sequence:
#
# PCOD8302731 Si02
#       7
#     8   8   8   4   8   8   8
#     4   9  18  32  52  77 106 139 177 225 274 328
#     4  11  22  34  55  82 109 143 185 230 273 328
#     4  10  19  35  56  76 106 148 188 221 272 337
#     4  11  26  42  54  68  94 125 171 233 285 337
#     4  11  22  35  53  80 117 151 182 227 280 335
#     4  10  22  37  53  79 108 138 179 227 276 330
#     4  10  22  37  58  77  97 132 175 223 283 342
#
# _framework density 19.136308
#
# number of rings (size 3 to 8) (size 9 to 14) (size 15 to 20)
#    0.000    1.769    2.308    1.846    4.308    3.077 
#    0.000    0.769    0.000    0.000    0.000    0.000 
#    0.000    0.615    0.000    6.154    0.000    3.692 
#
# Total GULP energy -644644.806346 kJ/mol
# GULP energy per Si atom -12397.015507 kJ/mol
# Density = 1.909275 g / cm^3
# Si number density = 19.136308 Si / 1000 Ang^3
#
#
#
# Elastic Constant Matrix: (Units=GPa)
#
#
# Indices 1 2 3 4 5 6 
#
# 1 77.1917 13.2258 20.3720 0.0000 0.0000 -0.4228
# 2 13.2258 77.1917 20.3720 0.0000 0.0000 0.4228
# 3 20.3720 20.3720 102.2766 0.0000 0.0000 0.0000
# 4 0.0000 0.0000 0.0000 26.2439 0.0000 0.0000
# 5 0.0000 0.0000 0.0000 0.0000 26.2439 0.0000
# 6 -0.4228 0.4228 0.0000 0.0000 0.0000 26.0322
#
#
#
# Elastic Compliance Matrix: (Units=1/GPa)
#
#
# Indices 1 2 3 4 5 6 
#
# 1 0.013894 -0.001743 -0.002420 0.000000 0.000000 0.000254
# 2 -0.001743 0.013894 -0.002420 0.000000 0.000000 -0.000254
# 3 -0.002420 -0.002420 0.010742 0.000000 0.000000 0.000000
# 4 0.000000 0.000000 0.000000 0.038104 0.000000 0.000000
# 5 0.000000 0.000000 0.000000 0.000000 0.038104 0.000000
# 6 0.000254 -0.000254 0.000000 0.000000 0.000000 0.038422
#
#
# Mechanical properties :
#
#
# Convention : Reuss Voigt Hill
#
# Bulk Modulus (GPa) = 39.42968 40.51105 39.97036
# Shear Modulus (GPa) = 28.60742 29.21669 28.91205
#
# Velocity S-wave (km/s) = 3.87063 3.91163 3.89118
# Velocity P-wave (km/s) = 6.37378 6.45111 6.41256
#
# Compressibility (1/GPa) = 0.02536161
#
# Stress axis : x y z
#
# Youngs Moduli (GPa) = 71.97587 71.97587 93.09658
#
# Poissons Ratio (x) = 0.12547 0.22531
# Poissons Ratio (y) = 0.12547 0.22531
# Poissons Ratio (z) = 0.17419 0.17419
#
# Static dielectric constant tensor:
#      x y z
#    x 3.382390 0.000000 0.000000 
#    y 0.000000 3.382390 0.000000 
#    z 0.000000 0.000000 3.921580 
# 
# 
# High freq. dielectric constant tensor:
#      x y z
#    x 1.720000 0.000000 0.000000 
#    y 0.000000 1.720000 0.000000 
#    z 0.000000 0.000000 1.755980 
# 
# From -- ./inp_files/1035.got.cif
#   From: 2010.03.12/outbox.cif.g09.slc.cpg/sg83_1_cif.got.tgz:1035.got - 2010.04.08 20:05:18.
