data_PCOD8302519
_publ_section_title
;
Structure prediction by ZEFSAII (Michael W. Deem and Ramdas Pophale) SiO2 
 PCOD8302519
Probable space group: I -4 
;
_chemical_formula_sum "Si O2"
_cell_formula_units_Z 48
_cell_length_a 19.326364
_cell_length_b 19.326364
_cell_length_c 6.233485
_cell_angle_alpha 90.000000
_cell_angle_beta 90.000000
_cell_angle_gamma 90.000000
_cell_volume 2328.258669
_symmetry_space_group_name_H-M "I -4 "
_symmetry_group_IT_number 82
_symmetry_cell_setting 'tetragonal'
loop_
_space_group_symop_operation_xyz
x,y,z
y,-x,-z
-x,-y,z
-y,x,-z
1/2+x,1/2+y,1/2+z
1/2+y,1/2-x,1/2-z
1/2-x,1/2-y,1/2+z
1/2-y,1/2+x,1/2-z
loop_
_atom_site_type_symbol
_atom_site_label
_atom_site_fract_x
_atom_site_fract_y
_atom_site_fract_z
Si Si1 0.946723 0.731109 0.080860
Si Si2 0.414558 0.757964 0.792014
Si Si3 0.807132 0.176324 0.047928
Si Si4 0.169484 0.729913 0.690928
Si Si5 0.342761 0.873794 0.562558
Si Si6 0.524907 0.889550 0.243301
O O1 0.884091 0.710285 0.242268
O O2 0.007647 0.764343 0.226614
O O3 0.906092 0.789999 0.942565
O O4 0.972812 0.668568 0.929300
O O5 0.361290 0.695737 0.735218
O O6 0.404667 0.827113 0.651721
O O7 0.399874 0.775852 0.042290
O O8 0.740091 0.227875 0.054195
O O9 0.841983 0.199252 0.822418
O O10 0.182143 0.663138 0.844257
O O11 0.362555 0.951909 0.491668
O O12 0.449099 0.919224 0.201976
#
# Coordination Sequence:
#
# PCOD8302519 Si02
#       6
#     8   8   8   8   8   8
#     4  12  25  40  62  94 126 169 211 259 330 373
#     4  11  24  40  61  93 126 160 215 261 317 381
#     4  11  21  37  65  89 120 160 209 269 314 374
#     4  11  20  39  60  91 120 164 207 262 321 361
#     4  11  22  35  60  85 125 166 202 260 296 375
#     4  11  24  39  57  85 128 178 216 245 298 379
#
# _framework density 20.616264999999999
#
# number of rings (size 3 to 8) (size 9 to 14) (size 15 to 20)
#    0.000    0.833    6.667    1.000    4.667    0.000 
#    0.000    1.667    0.000    0.500    0.000    0.000 
#    0.000    0.000    0.000    0.000    0.000    0.000 
#
# Total GULP energy -297332.229312 kJ/mol
# GULP energy per Si atom -12388.842888 kJ/mol
# Density = 2.056934 g / cm^3
# Si number density = 20.616265 Si / 1000 Ang^3
#
#
#
# Elastic Constant Matrix: (Units=GPa)
#
#
# Indices 1 2 3 4 5 6 
#
# 1 58.7686 7.1323 7.8313 0.0000 0.0000 -5.3342
# 2 7.1323 58.7686 7.8313 0.0000 0.0000 5.3342
# 3 7.8313 7.8313 74.1217 0.0000 0.0000 0.0000
# 4 0.0000 0.0000 0.0000 26.3457 0.0000 0.0000
# 5 0.0000 0.0000 0.0000 0.0000 26.3457 0.0000
# 6 -5.3342 5.3342 0.0000 0.0000 0.0000 24.7830
#
#
#
# Elastic Compliance Matrix: (Units=1/GPa)
#
#
# Indices 1 2 3 4 5 6 
#
# 1 0.017916 -0.002351 -0.001645 0.000000 0.000000 0.004362
# 2 -0.002351 0.017916 -0.001645 0.000000 0.000000 -0.004362
# 3 -0.001645 -0.001645 0.013839 0.000000 0.000000 0.000000
# 4 0.000000 0.000000 0.000000 0.037957 0.000000 0.000000
# 5 0.000000 0.000000 0.000000 0.000000 0.037957 0.000000
# 6 0.004362 -0.004362 0.000000 0.000000 0.000000 0.042228
#
#
# Mechanical properties :
#
#
# Convention : Reuss Voigt Hill
#
# Bulk Modulus (GPa) = 26.04780 26.36100 26.20440
# Shear Modulus (GPa) = 26.05650 26.75249 26.40449
#
# Velocity S-wave (km/s) = 3.55897 3.60618 3.58265
# Velocity P-wave (km/s) = 5.43602 5.49124 5.46370
#
# Compressibility (1/GPa) = 0.03839096
#
# Stress axis : x y z
#
# Youngs Moduli (GPa) = 55.81504 55.81504 72.26040
#
# Poissons Ratio (x) = 0.13123 0.11883
# Poissons Ratio (y) = 0.13123 0.11883
# Poissons Ratio (z) = 0.09179 0.09179
#
# Static dielectric constant tensor:
#      x y z
#    x 3.572360 0.000000 0.000000 
#    y 0.000000 3.572360 0.000000 
#    z 0.000000 0.000000 3.937820 
# 
# 
# High freq. dielectric constant tensor:
#      x y z
#    x 1.777460 0.000000 0.000000 
#    y 0.000000 1.777460 0.000000 
#    z 0.000000 0.000000 1.825050 
# 
# From -- ./inp_files/341.got.cif
#   From: 2010.03.12/outbox.cif.g09.slc.cpg/sg82_1_cif.got.tgz:341.got - 2010.04.08 20:02:50.
