data_PCOD8302852
_publ_section_title
;
Structure prediction by ZEFSAII (Michael W. Deem and Ramdas Pophale) SiO2 
 PCOD8302852
Probable space group: P 4/M
;
_chemical_formula_sum "Si O2"
_cell_formula_units_Z 36
_cell_length_a 14.483647
_cell_length_b 14.483647
_cell_length_c 7.937645
_cell_angle_alpha 90.000000
_cell_angle_beta 90.000000
_cell_angle_gamma 90.000000
_cell_volume 1665.127659
_symmetry_space_group_name_H-M "P 4/M"
_symmetry_group_IT_number 83
_symmetry_cell_setting 'tetragonal'
loop_
_space_group_symop_operation_xyz
x,y,z
-y,x,z
-x,-y,z
y,-x,z
-x,-y,-z
y,-x,-z
x,y,-z
-y,x,-z
loop_
_atom_site_type_symbol
_atom_site_label
_atom_site_fract_x
_atom_site_fract_y
_atom_site_fract_z
Si Si1 0.875209 0.244847 0.810717
Si Si2 0.807130 0.668053 0.802647
Si Si3 0.395697 0.004124 0.305481
Si Si4 0.858463 0.951478 0.500000
Si Si5 0.444470 0.634901 0.200397
O O1 0.768471 0.235338 0.761198
O O2 0.913289 0.349657 0.803454
O O3 0.938321 0.195256 0.673355
O O4 0.891630 0.205436 0.000000
O O5 0.731969 0.594992 0.730210
O O6 0.905060 0.654267 0.713747
O O7 0.822586 0.655016 0.000000
O O8 0.391167 0.033031 0.500000
O O9 0.500000 0.000000 0.239132
O O10 0.942768 0.883138 0.500000
O O11 0.380562 0.549331 0.263950
O O12 0.439961 0.635812 0.000000
#
# Coordination Sequence:
#
# PCOD8302852 Si02
#       5
#     8   8   8   4   8
#     4  11  24  42  66  95 128 171 221 270 326 400
#     4  10  22  37  63  96 126 168 216 269 330 390
#     4  11  25  43  64  94 131 175 223 273 334 399
#     4  11  24  42  67  94 126 167 209 270 336 386
#     4   8  15  30  54  86 124 162 205 258 317 387
#
# _framework density 21.619965000000001
#
# number of rings (size 3 to 8) (size 9 to 14) (size 15 to 20)
#    0.000    1.889    1.111    2.667    4.667    4.444 
#    0.000    1.111    0.000    0.000    0.000    1.556 
#    0.000    0.000    0.000    0.000    0.000    0.000 
#
# Total GULP energy -446288.685581 kJ/mol
# GULP energy per Si atom -12396.907933 kJ/mol
# Density = 2.157076 g / cm^3
# Si number density = 21.619965 Si / 1000 Ang^3
#
#
#
# Elastic Constant Matrix: (Units=GPa)
#
#
# Indices 1 2 3 4 5 6 
#
# 1 110.3116 36.5429 16.2873 0.0000 0.0000 2.7841
# 2 36.5429 110.3116 16.2873 0.0000 0.0000 -2.7841
# 3 16.2873 16.2873 70.0813 0.0000 0.0000 0.0000
# 4 0.0000 0.0000 0.0000 -1.8544 0.0000 0.0000
# 5 0.0000 0.0000 0.0000 0.0000 -1.8544 0.0000
# 6 2.7841 -2.7841 0.0000 0.0000 0.0000 50.7099
#
#
#
# Elastic Compliance Matrix: (Units=1/GPa)
#
#
# Indices 1 2 3 4 5 6 
#
# 1 0.010396 -0.003216 -0.001669 0.000000 0.000000 -0.000747
# 2 -0.003216 0.010396 -0.001669 0.000000 0.000000 0.000747
# 3 -0.001669 -0.001669 0.015045 0.000000 0.000000 0.000000
# 4 0.000000 0.000000 0.000000 -0.539263 0.000000 0.000000
# 5 0.000000 0.000000 0.000000 0.000000 -0.539263 0.000000
# 6 -0.000747 0.000747 0.000000 0.000000 0.000000 0.019802
#
#
# Mechanical properties :
#
#
# Convention : Reuss Voigt Hill
#
# Bulk Modulus (GPa) = 43.99557 47.65996 45.82777
# Shear Modulus (GPa) = -4.98900 24.17269 9.59184
#
# Velocity S-wave (km/s) = -1.52072 3.34739 2.10860
# Velocity P-wave (km/s) = 4.16056 6.08541 5.21260
#
# Compressibility (1/GPa) = 0.02272956
#
# Stress axis : x y z
#
# Youngs Moduli (GPa) = 96.19140 96.19140 66.46854
#
# Poissons Ratio (x) = 0.30939 0.11091
# Poissons Ratio (y) = 0.30939 0.11091
# Poissons Ratio (z) = 0.16050 0.16050
#
# Static dielectric constant tensor:
#      x y z
#    x 4.080810 0.000000 0.000000 
#    y 0.000000 4.080810 0.000000 
#    z 0.000000 0.000000 3.695900 
# 
# 
# High freq. dielectric constant tensor:
#      x y z
#    x 1.853670 0.000000 0.000000 
#    y 0.000000 1.853670 0.000000 
#    z 0.000000 0.000000 1.831940 
# 
# From -- ./inp_files/572.got.cif
#   From: 2010.03.12/outbox.cif.g09.slc.cpg/sg83_1_cif.got.tgz:572.got - 2010.04.08 20:05:18.
