data_PCOD8302534
_publ_section_title
;
Structure prediction by ZEFSAII (Michael W. Deem and Ramdas Pophale) SiO2 
 PCOD8302534
Probable space group: I -4 
;
_chemical_formula_sum "Si O2"
_cell_formula_units_Z 40
_cell_length_a 8.566512
_cell_length_b 8.566512
_cell_length_c 24.425288
_cell_angle_alpha 90.000000
_cell_angle_beta 90.000000
_cell_angle_gamma 90.000000
_cell_volume 1792.452883
_symmetry_space_group_name_H-M "I -4 "
_symmetry_group_IT_number 82
_symmetry_cell_setting 'tetragonal'
loop_
_space_group_symop_operation_xyz
x,y,z
y,-x,-z
-x,-y,z
-y,x,-z
1/2+x,1/2+y,1/2+z
1/2+y,1/2-x,1/2-z
1/2-x,1/2-y,1/2+z
1/2-y,1/2+x,1/2-z
loop_
_atom_site_type_symbol
_atom_site_label
_atom_site_fract_x
_atom_site_fract_y
_atom_site_fract_z
Si Si1 0.143635 0.702934 0.820883
Si Si2 0.706159 0.375740 0.418829
Si Si3 0.213853 0.813779 0.126762
Si Si4 0.412157 0.662841 0.208472
Si Si5 0.168418 0.557097 0.529066
O O1 0.257863 0.754526 0.871329
O O2 0.192636 0.529673 0.802962
O O3 0.969334 0.717854 0.844442
O O4 0.159530 0.818100 0.768894
O O5 0.669545 0.529925 0.383075
O O6 0.838659 0.405932 0.464248
O O7 0.561741 0.308862 0.454857
O O8 0.267286 0.670414 0.165478
O O9 0.296053 0.791562 0.066945
O O10 0.500000 0.500000 0.202769
O O11 0.000000 0.500000 0.547201
#
# Coordination Sequence:
#
# PCOD8302534 Si02
#       5
#     8   8   8   8   8
#     4  11  23  41  68  96 132 180 230 281 346 417
#     4  11  23  42  72 102 135 174 232 289 344 420
#     4  11  22  40  73  99 129 178 231 284 339 413
#     4  12  25  43  66 100 141 179 229 291 348 415
#     4  11  22  40  70 104 133 175 225 282 347 420
#
# _framework density 22.31579
#
# number of rings (size 3 to 8) (size 9 to 14) (size 15 to 20)
#    0.000    0.800    4.000    6.600    0.000    1.600 
#    0.000    0.000    0.000    0.000    0.000    0.000 
#    0.000    0.000    0.000    0.000    0.000    0.000 
#
# Total GULP energy -247761.649637 kJ/mol
# GULP energy per Si atom -12388.082482 kJ/mol
# Density = 2.226500 g / cm^3
# Si number density = 22.315790 Si / 1000 Ang^3
#
#
#
# Elastic Constant Matrix: (Units=GPa)
#
#
# Indices 1 2 3 4 5 6 
#
# 1 69.5184 7.6155 31.4734 0.0000 0.0000 4.5852
# 2 7.6155 69.5184 31.4733 0.0000 0.0000 -4.5853
# 3 31.4734 31.4733 171.0474 0.0000 0.0000 0.0000
# 4 0.0000 0.0000 0.0000 33.7898 0.0000 0.0000
# 5 0.0000 0.0000 0.0000 0.0000 33.7898 0.0000
# 6 4.5852 -4.5853 0.0000 0.0000 0.0000 21.7549
#
#
#
# Elastic Compliance Matrix: (Units=1/GPa)
#
#
# Indices 1 2 3 4 5 6 
#
# 1 0.015965 -0.000710 -0.002807 0.000000 0.000000 -0.003515
# 2 -0.000710 0.015965 -0.002807 0.000000 0.000000 0.003515
# 3 -0.002807 -0.002807 0.006879 0.000000 0.000000 0.000000
# 4 0.000000 0.000000 0.000000 0.029595 0.000000 0.000000
# 5 0.000000 0.000000 0.000000 0.000000 0.029595 0.000000
# 6 -0.003515 0.003515 0.000000 0.000000 0.000000 0.047448
#
#
# Mechanical properties :
#
#
# Convention : Reuss Voigt Hill
#
# Bulk Modulus (GPa) = 38.22384 50.13428 44.17906
# Shear Modulus (GPa) = 29.97322 33.83503 31.90412
#
# Velocity S-wave (km/s) = 3.66886 3.89806 3.78519
# Velocity P-wave (km/s) = 5.92564 6.54021 6.24050
#
# Compressibility (1/GPa) = 0.02616168
#
# Stress axis : x y z
#
# Youngs Moduli (GPa) = 62.63666 62.63662 145.36291
#
# Poissons Ratio (x) = 0.04447 0.40804
# Poissons Ratio (y) = 0.04447 0.40804
# Poissons Ratio (z) = 0.17582 0.17582
#
# Static dielectric constant tensor:
#      x y z
#    x 3.799410 0.000000 0.000000 
#    y 0.000000 3.799410 0.000000 
#    z 0.000000 0.000000 4.988650 
# 
# 
# High freq. dielectric constant tensor:
#      x y z
#    x 1.848790 0.000000 0.000000 
#    y 0.000000 1.848790 0.000000 
#    z 0.000000 0.000000 1.914890 
# 
# From -- ./inp_files/3354.got.cif
#   From: 2010.03.12/outbox.cif.g09.slc.cpg/sg82_2_cif.got.tgz:3354.got - 2010.04.08 20:02:50.
