data_PCOD8302227
_publ_section_title
;
Structure prediction by ZEFSAII (Michael W. Deem and Ramdas Pophale) SiO2 
 PCOD8302227
Probable space group: I 41
;
_chemical_formula_sum "Si O2"
_cell_formula_units_Z 36
_cell_length_a 9.615175
_cell_length_b 9.615175
_cell_length_c 17.866090
_cell_angle_alpha 90.000000
_cell_angle_beta 90.000000
_cell_angle_gamma 90.000000
_cell_volume 1651.748433
_symmetry_space_group_name_H-M "I 41"
_symmetry_group_IT_number 80
_symmetry_cell_setting 'tetragonal'
loop_
_space_group_symop_operation_xyz
x,y,z
-y,1/2+x,1/4+z
-x,-y,z
y,1/2-x,1/4+z
1/2+x,1/2+y,1/2+z
1/2-y,x,3/4+z
1/2-x,1/2-y,1/2+z
1/2+y,-x,3/4+z
loop_
_atom_site_type_symbol
_atom_site_label
_atom_site_fract_x
_atom_site_fract_y
_atom_site_fract_z
Si Si1 0.000000 0.500000 0.558410
Si Si2 0.149892 0.306698 0.456460
Si Si3 0.340925 0.849194 0.552068
Si Si4 0.340925 0.349194 0.314752
Si Si5 0.806698 0.350108 0.660361
O O1 0.126735 0.443972 0.507291
O O2 0.056028 0.626735 0.609529
O O3 0.239025 0.346487 0.384962
O O4 0.231480 0.192635 0.504301
O O5 0.000000 0.250000 0.433410
O O6 0.499664 0.825323 0.525691
O O7 0.307365 0.731480 0.612520
O O8 0.239025 0.846487 0.481859
O O9 0.325323 0.000336 0.591129
#
# Coordination Sequence:
#
# PCOD8302227 Si02
#       5
#     4   8   8   8   8
#     4  12  24  44  68 108 140 188 238 288 352 412
#     4  12  24  46  72 102 144 187 234 289 350 421
#     4  11  26  46  71 104 143 185 235 289 353 416
#     4  11  26  46  71 104 143 185 235 289 353 416
#     4  12  24  46  72 102 144 187 234 289 350 421
#
# _framework density 21.795088
#
# number of rings (size 3 to 8) (size 9 to 14) (size 15 to 20)
#    0.000    0.444    4.444    4.000    0.000    0.000 
#    0.000    0.000    0.000    0.000    0.000    0.000 
#    0.000    0.000    0.000    0.000    0.000    0.000 
#
# Total GULP energy -223253.738540 kJ/mol
# GULP energy per Si atom -12402.985474 kJ/mol
# Density = 2.174548 g / cm^3
# Si number density = 21.795088 Si / 1000 Ang^3
#
#
#
# Elastic Constant Matrix: (Units=GPa)
#
#
# Indices 1 2 3 4 5 6 
#
# 1 155.8559 65.3174 72.7318 0.0000 0.0000 1.2127
# 2 65.3174 155.8559 72.7318 0.0000 0.0000 -1.2127
# 3 72.7318 72.7318 130.7228 0.0000 0.0000 0.0000
# 4 0.0000 0.0000 0.0000 34.2079 0.0000 0.0000
# 5 0.0000 0.0000 0.0000 0.0000 34.2079 0.0000
# 6 1.2127 -1.2127 0.0000 0.0000 0.0000 38.7389
#
#
#
# Elastic Compliance Matrix: (Units=1/GPa)
#
#
# Indices 1 2 3 4 5 6 
#
# 1 0.009092 -0.001962 -0.003967 0.000000 0.000000 -0.000346
# 2 -0.001962 0.009092 -0.003967 0.000000 0.000000 0.000346
# 3 -0.003967 -0.003967 0.012064 0.000000 0.000000 0.000000
# 4 0.000000 0.000000 0.000000 0.029233 0.000000 0.000000
# 5 0.000000 0.000000 0.000000 0.000000 0.029233 0.000000
# 6 -0.000346 0.000346 0.000000 0.000000 0.000000 0.025835
#
#
# Mechanical properties :
#
#
# Convention : Reuss Voigt Hill
#
# Bulk Modulus (GPa) = 95.63569 95.99964 95.81766
# Shear Modulus (GPa) = 36.27670 36.87451 36.57561
#
# Velocity S-wave (km/s) = 4.08419 4.11770 4.10098
# Velocity P-wave (km/s) = 8.13729 8.17003 8.15368
#
# Compressibility (1/GPa) = 0.01045635
#
# Stress axis : x y z
#
# Youngs Moduli (GPa) = 109.98119 109.98119 82.88783
#
# Poissons Ratio (x) = 0.21576 0.32885
# Poissons Ratio (y) = 0.21576 0.32885
# Poissons Ratio (z) = 0.43633 0.43633
#
# Static dielectric constant tensor:
#      x y z
#    x 4.224100 0.000000 0.000000 
#    y 0.000000 4.224100 0.000000 
#    z 0.000000 0.000000 4.092580 
# 
# 
# High freq. dielectric constant tensor:
#      x y z
#    x 1.868610 0.000000 0.000000 
#    y 0.000000 1.868610 0.000000 
#    z 0.000000 0.000000 1.859810 
# 
# From -- ./inp_files/1722.got.cif
#   From: 2010.03.12/outbox.cif.g09.slc.cpg/sg80_cif.got.tgz:1722.got - 2010.04.08 20:00:04.
