data_PCOD8302649
_publ_section_title
;
Structure prediction by ZEFSAII (Michael W. Deem and Ramdas Pophale) SiO2 
 PCOD8302649
Probable space group: P 4/M
;
_chemical_formula_sum "Si O2"
_cell_formula_units_Z 40
_cell_length_a 14.161560
_cell_length_b 14.161560
_cell_length_c 13.593696
_cell_angle_alpha 90.000000
_cell_angle_beta 90.000000
_cell_angle_gamma 90.000000
_cell_volume 2726.212764
_symmetry_space_group_name_H-M "P 4/M"
_symmetry_group_IT_number 83
_symmetry_cell_setting 'tetragonal'
loop_
_space_group_symop_operation_xyz
x,y,z
-y,x,z
-x,-y,z
y,-x,z
-x,-y,-z
y,-x,-z
x,y,-z
-y,x,-z
loop_
_atom_site_type_symbol
_atom_site_label
_atom_site_fract_x
_atom_site_fract_y
_atom_site_fract_z
Si Si1 0.253447 0.398212 0.615455
Si Si2 0.741164 0.396935 0.301536
Si Si3 0.645706 0.445764 0.110815
Si Si4 0.099812 0.255096 0.614543
Si Si5 0.255941 0.111086 0.616122
O O1 0.259927 0.381384 0.500000
O O2 0.243718 0.506906 0.639841
O O3 0.348432 0.354861 0.661033
O O4 0.161916 0.341800 0.657330
O O5 0.729231 0.416522 0.185169
O O6 0.832700 0.333806 0.321554
O O7 0.619179 0.554484 0.128891
O O8 0.683626 0.431449 0.000000
O O9 0.084758 0.270189 0.500000
O O10 0.153135 0.156548 0.635711
O O11 0.994801 0.253727 0.660145
O O12 0.280923 0.117616 0.500000
#
# Coordination Sequence:
#
# PCOD8302649 Si02
#       5
#     8   8   8   8   8
#     4  10  19  28  39  60  92 122 151 175 205 251
#     4  11  18  28  42  62  87 120 146 178 215 251
#     4   9  17  30  45  62  83 111 150 189 216 251
#     4   8  16  29  42  60  86 116 147 183 214 250
#     4   9  17  29  44  63  88 114 148 183 216 258
#
# _framework density 14.672370000000001
#
# number of rings (size 3 to 8) (size 9 to 14) (size 15 to 20)
#    0.000    2.600    2.000    3.600    0.000    1.600 
#    0.000    6.000    0.000    0.000    0.000    8.400 
#    0.000    0.000    0.000    7.200    0.000    0.800 
#
# Total GULP energy -495840.075484 kJ/mol
# GULP energy per Si atom -12396.001887 kJ/mol
# Density = 1.463897 g / cm^3
# Si number density = 14.672370 Si / 1000 Ang^3
#
#
#
# Elastic Constant Matrix: (Units=GPa)
#
#
# Indices 1 2 3 4 5 6 
#
# 1 90.0239 29.9472 12.9255 0.0000 0.0000 -1.7604
# 2 29.9472 90.0239 12.9255 0.0000 0.0000 1.7604
# 3 12.9255 12.9255 49.1601 0.0000 0.0000 0.0000
# 4 0.0000 0.0000 0.0000 11.9605 0.0000 0.0000
# 5 0.0000 0.0000 0.0000 0.0000 11.9605 0.0000
# 6 -1.7604 1.7604 0.0000 0.0000 0.0000 8.1878
#
#
#
# Elastic Compliance Matrix: (Units=1/GPa)
#
#
# Indices 1 2 3 4 5 6 
#
# 1 0.012847 -0.004011 -0.002323 0.000000 0.000000 0.003624
# 2 -0.004011 0.012847 -0.002323 0.000000 0.000000 -0.003624
# 3 -0.002323 -0.002323 0.021563 0.000000 0.000000 0.000000
# 4 0.000000 0.000000 0.000000 0.083609 0.000000 0.000000
# 5 0.000000 0.000000 0.000000 0.000000 0.083609 0.000000
# 6 0.003624 -0.003624 0.000000 0.000000 0.000000 0.123691
#
#
# Mechanical properties :
#
#
# Convention : Reuss Voigt Hill
#
# Bulk Modulus (GPa) = 33.39744 37.86714 35.63229
# Shear Modulus (GPa) = 13.68136 17.98241 15.83189
#
# Velocity S-wave (km/s) = 3.05693 3.50465 3.28842
# Velocity P-wave (km/s) = 5.93896 6.49933 6.22545
#
# Compressibility (1/GPa) = 0.02994242
#
# Stress axis : x y z
#
# Youngs Moduli (GPa) = 77.83996 77.83996 46.37496
#
# Poissons Ratio (x) = 0.31221 0.10774
# Poissons Ratio (y) = 0.31221 0.10774
# Poissons Ratio (z) = 0.18084 0.18084
#
# Static dielectric constant tensor:
#      x y z
#    x 2.899360 0.000000 0.000000 
#    y 0.000000 2.899360 0.000000 
#    z 0.000000 0.000000 2.603920 
# 
# 
# High freq. dielectric constant tensor:
#      x y z
#    x 1.558030 0.000000 0.000000 
#    y 0.000000 1.558030 0.000000 
#    z 0.000000 0.000000 1.524200 
# 
# From -- ./inp_files/1663.got.cif
#   From: 2010.03.12/outbox.cif.g09.slc.cpg/sg83_1_cif.got.tgz:1663.got - 2010.04.08 20:05:18.
