data_PCOD8302976
_publ_section_title
;
Structure prediction by ZEFSAII (Michael W. Deem and Ramdas Pophale) SiO2 
 PCOD8302976
Probable space group: P 4/M
;
_chemical_formula_sum "Si O2"
_cell_formula_units_Z 44
_cell_length_a 8.326221
_cell_length_b 8.326221
_cell_length_c 29.034703
_cell_angle_alpha 90.000000
_cell_angle_beta 90.000000
_cell_angle_gamma 90.000000
_cell_volume 2012.858547
_symmetry_space_group_name_H-M "P 4/M"
_symmetry_group_IT_number 83
_symmetry_cell_setting 'tetragonal'
loop_
_space_group_symop_operation_xyz
x,y,z
-y,x,z
-x,-y,z
y,-x,z
-x,-y,-z
y,-x,-z
x,y,-z
-y,x,-z
loop_
_atom_site_type_symbol
_atom_site_label
_atom_site_fract_x
_atom_site_fract_y
_atom_site_fract_z
Si Si1 0.907442 0.751460 0.781219
Si Si2 0.253631 0.397033 0.303230
Si Si3 0.396000 0.743870 0.597193
Si Si4 0.893692 0.759188 0.052219
Si Si5 0.747417 0.593661 0.864867
Si Si6 0.605053 0.254738 0.500000
O O1 0.875685 0.653263 0.734571
O O2 0.870244 0.638700 0.824555
O O3 0.092763 0.795803 0.783051
O O4 0.415829 0.294365 0.297292
O O5 0.170412 0.361011 0.353659
O O6 0.294357 0.582788 0.596820
O O7 0.355619 0.839399 0.548708
O O8 0.832619 0.620255 0.085963
O O9 0.079967 0.792966 0.061717
O O10 0.867778 0.699253 0.000000
O O11 0.591390 0.704373 0.860322
O O12 0.705823 0.417520 0.500000
#
# Coordination Sequence:
#
# PCOD8302976 Si02
#       6
#     8   8   8   8   8   4
#     4  11  24  39  54  73  97 128 169 213 254 301
#     4   9  17  30  49  74 102 129 160 201 249 300
#     4   7  10  17  32  58  92 125 154 188 233 286
#     4   9  19  37  60  85 113 145 180 214 246 285
#     4  11  24  39  56  81 110 137 168 209 255 302
#     4   7   8  12  26  52  88 125 154 182 226 283
#
# _framework density 21.859459999999999
#
# number of rings (size 3 to 8) (size 9 to 14) (size 15 to 20)
#    0.000    2.818    0.000    4.909    0.000    8.727 
#    0.000    2.727    0.000    0.000    0.000    1.273 
#    0.000    8.727    0.000    0.000    0.000    0.000 
#
# Total GULP energy -545089.107395 kJ/mol
# GULP energy per Si atom -12388.388804 kJ/mol
# Density = 2.180971 g / cm^3
# Si number density = 21.859460 Si / 1000 Ang^3
#
#
#
# Elastic Constant Matrix: (Units=GPa)
#
#
# Indices 1 2 3 4 5 6 
#
# 1 16.6866 -6.4138 7.4765 0.0000 0.0000 -0.6033
# 2 -6.4138 16.6866 7.4765 0.0000 0.0000 0.6033
# 3 7.4765 7.4765 173.0938 0.0000 0.0000 0.0000
# 4 0.0000 0.0000 0.0000 -10.2236 0.0000 0.0000
# 5 0.0000 0.0000 0.0000 0.0000 -10.2236 0.0000
# 6 -0.6033 0.6033 0.0000 0.0000 0.0000 24.6248
#
#
#
# Elastic Compliance Matrix: (Units=1/GPa)
#
#
# Indices 1 2 3 4 5 6 
#
# 1 0.073610 0.030265 -0.004487 0.000000 0.000000 0.001062
# 2 0.030265 0.073610 -0.004487 0.000000 0.000000 -0.001062
# 3 -0.004487 -0.004487 0.006165 0.000000 0.000000 0.000000
# 4 0.000000 0.000000 0.000000 -0.097813 0.000000 0.000000
# 5 0.000000 0.000000 0.000000 0.000000 -0.097813 0.000000
# 6 0.001062 -0.001062 0.000000 0.000000 0.000000 0.040661
#
#
# Mechanical properties :
#
#
# Convention : Reuss Voigt Hill
#
# Bulk Modulus (GPa) = 5.10287 24.83837 14.97062
# Shear Modulus (GPa) = 236.29556 14.03071 125.16313
#
# Velocity S-wave (km/s) = 10.40828 2.53624 7.57512
# Velocity P-wave (km/s) = 12.11538 4.46812 9.13090
#
# Compressibility (1/GPa) = 0.19596824
#
# Stress axis : x y z
#
# Youngs Moduli (GPa) = 13.58512 13.58512 162.21122
#
# Poissons Ratio (x) = -0.41116 0.72779
# Poissons Ratio (y) = -0.41116 0.72779
# Poissons Ratio (z) = 0.06095 0.06095
#
# Static dielectric constant tensor:
#      x y z
#    x 3.515700 0.000000 0.000000 
#    y 0.000000 3.515700 0.000000 
#    z 0.000000 0.000000 4.631360 
# 
# 
# High freq. dielectric constant tensor:
#      x y z
#    x 1.823020 0.000000 0.000000 
#    y 0.000000 1.823020 0.000000 
#    z 0.000000 0.000000 1.892710 
# 
# From -- ./inp_files/3362.got.cif
#   From: 2010.03.12/outbox.cif.g09.slc.cpg/sg83_2_cif.got.tgz:3362.got - 2010.04.08 20:05:18.
