data_PCOD8302462
_publ_section_title
;
Structure prediction by ZEFSAII (Michael W. Deem and Ramdas Pophale) SiO2 
 PCOD8302462
Probable space group: I -4 
;
_chemical_formula_sum "Si O2"
_cell_formula_units_Z 40
_cell_length_a 16.566659
_cell_length_b 16.566659
_cell_length_c 5.651854
_cell_angle_alpha 90.000000
_cell_angle_beta 90.000000
_cell_angle_gamma 90.000000
_cell_volume 1551.175014
_symmetry_space_group_name_H-M "I -4 "
_symmetry_group_IT_number 82
_symmetry_cell_setting 'tetragonal'
loop_
_space_group_symop_operation_xyz
x,y,z
y,-x,-z
-x,-y,z
-y,x,-z
1/2+x,1/2+y,1/2+z
1/2+y,1/2-x,1/2-z
1/2-x,1/2-y,1/2+z
1/2-y,1/2+x,1/2-z
loop_
_atom_site_type_symbol
_atom_site_label
_atom_site_fract_x
_atom_site_fract_y
_atom_site_fract_z
Si Si1 0.119672 0.983788 0.924144
Si Si2 0.793772 0.263924 0.672311
Si Si3 0.281609 0.944029 0.170766
Si Si4 0.879036 0.533291 0.318540
Si Si5 0.447376 0.722979 0.949829
O O1 0.139324 0.035661 0.687596
O O2 0.084509 0.050380 0.112456
O O3 0.204101 0.943563 0.996854
O O4 0.741666 0.258874 0.429094
O O5 0.819951 0.356520 0.696849
O O6 0.873433 0.208961 0.632377
O O7 0.248591 0.970573 0.423367
O O8 0.353133 0.002370 0.078582
O O9 0.904986 0.453911 0.163133
O O10 0.799651 0.577473 0.214449
#
# Coordination Sequence:
#
# PCOD8302462 Si02
#       5
#     8   8   8   8   8
#     4  10  24  47  73 103 145 195 263 329 399 473
#     4  12  30  50  80 115 161 211 269 333 408 491
#     4  11  26  43  74 106 153 199 263 321 403 477
#     4  10  22  42  69 104 149 192 247 311 391 474
#     4  11  26  44  75 110 153 203 264 326 403 479
#
# _framework density 25.786905999999998
#
# number of rings (size 3 to 8) (size 9 to 14) (size 15 to 20)
#    0.000    1.200    2.000    1.200   16.800    1.600 
#    0.000    4.000    0.000    0.000    0.000    0.000 
#    0.000    0.000    0.000    0.000    0.000    0.000 
#
# Total GULP energy -247853.058721 kJ/mol
# GULP energy per Si atom -12392.652936 kJ/mol
# Density = 2.572821 g / cm^3
# Si number density = 25.786906 Si / 1000 Ang^3
#
#
#
# Elastic Constant Matrix: (Units=GPa)
#
#
# Indices 1 2 3 4 5 6 
#
# 1 71.1223 13.9479 13.0106 0.0000 0.0000 6.6809
# 2 13.9479 71.1223 13.0106 0.0000 0.0000 -6.6809
# 3 13.0106 13.0106 90.0747 0.0000 0.0000 0.0000
# 4 0.0000 0.0000 0.0000 41.5923 0.0000 0.0000
# 5 0.0000 0.0000 0.0000 0.0000 41.5923 0.0000
# 6 6.6809 -6.6809 0.0000 0.0000 0.0000 44.9103
#
#
#
# Elastic Compliance Matrix: (Units=1/GPa)
#
#
# Indices 1 2 3 4 5 6 
#
# 1 0.015209 -0.002911 -0.001776 0.000000 0.000000 -0.002696
# 2 -0.002911 0.015209 -0.001776 0.000000 0.000000 0.002696
# 3 -0.001776 -0.001776 0.011615 0.000000 0.000000 0.000000
# 4 0.000000 0.000000 0.000000 0.024043 0.000000 0.000000
# 5 0.000000 0.000000 0.000000 0.000000 0.024043 0.000000
# 6 -0.002696 0.002696 0.000000 0.000000 0.000000 0.023069
#
#
# Mechanical properties :
#
#
# Convention : Reuss Voigt Hill
#
# Bulk Modulus (GPa) = 34.35698 34.69530 34.52614
# Shear Modulus (GPa) = 36.81403 38.44234 37.62819
#
# Velocity S-wave (km/s) = 3.78249 3.86524 3.82409
# Velocity P-wave (km/s) = 5.69462 5.77961 5.73727
#
# Compressibility (1/GPa) = 0.02910617
#
# Stress axis : x y z
#
# Youngs Moduli (GPa) = 65.74909 65.74909 86.09504
#
# Poissons Ratio (x) = 0.19139 0.15294
# Poissons Ratio (y) = 0.19139 0.15294
# Poissons Ratio (z) = 0.11680 0.11680
#
# Static dielectric constant tensor:
#      x y z
#    x 4.646090 0.000000 0.000000 
#    y 0.000000 4.646090 0.000000 
#    z 0.000000 0.000000 4.596030 
# 
# 
# High freq. dielectric constant tensor:
#      x y z
#    x 2.033480 0.000000 0.000000 
#    y 0.000000 2.033480 0.000000 
#    z 0.000000 0.000000 2.017330 
# 
# From -- ./inp_files/194.got.cif
#   From: 2010.03.12/outbox.cif.g09.slc.cpg/sg82_1_cif.got.tgz:194.got - 2010.04.08 20:02:50.
