data_PCOD8302972
_publ_section_title
;
Structure prediction by ZEFSAII (Michael W. Deem and Ramdas Pophale) SiO2 
 PCOD8302972
Probable space group: P 4/M
;
_chemical_formula_sum "Si O2"
_cell_formula_units_Z 48
_cell_length_a 8.309910
_cell_length_b 8.309910
_cell_length_c 31.816755
_cell_angle_alpha 90.000000
_cell_angle_beta 90.000000
_cell_angle_gamma 90.000000
_cell_volume 2197.093424
_symmetry_space_group_name_H-M "P 4/M"
_symmetry_group_IT_number 83
_symmetry_cell_setting 'tetragonal'
loop_
_space_group_symop_operation_xyz
x,y,z
-y,x,z
-x,-y,z
y,-x,z
-x,-y,-z
y,-x,-z
x,y,-z
-y,x,-z
loop_
_atom_site_type_symbol
_atom_site_label
_atom_site_fract_x
_atom_site_fract_y
_atom_site_fract_z
Si Si1 0.100451 0.244124 0.248160
Si Si2 0.747724 0.594707 0.923055
Si Si3 0.253108 0.074982 0.453049
Si Si4 0.104639 0.241720 0.847404
Si Si5 0.577397 0.245713 0.677986
Si Si6 0.500000 0.000000 0.611727
Si Si7 0.092775 0.249780 0.000000
O O1 0.126947 0.301485 0.200349
O O2 0.156698 0.389731 0.277859
O O3 0.914480 0.205761 0.257140
O O4 0.590804 0.704876 0.927721
O O5 0.831834 0.618937 0.877880
O O6 0.872874 0.643687 0.959020
O O7 0.324898 0.096534 0.500000
O O8 0.387567 0.110101 0.418116
O O9 0.196698 0.892226 0.446552
O O10 0.918427 0.206876 0.856347
O O11 0.699314 0.393509 0.674661
O O12 0.607536 0.119114 0.640429
O O13 0.906931 0.204295 0.000000
#
# Coordination Sequence:
#
# PCOD8302972 Si02
#       7
#     8   8   8   8   8   4   4
#     4   9  19  38  62  85 111 148 194 241 288 343
#     4  11  24  39  56  84 120 154 189 231 282 342
#     4   9  19  36  58  85 114 145 188 241 290 338
#     4   9  19  37  61  87 113 144 188 236 280 334
#     4  11  24  38  53  79 115 151 190 239 291 344
#     4  12  21  36  58  82 112 154 194 231 286 354
#     4  11  24  41  62  86 112 145 190 241 290 344
#
# _framework density 21.847045000000001
#
# number of rings (size 3 to 8) (size 9 to 14) (size 15 to 20)
#    0.000    1.917    0.000    5.250    0.000    6.667 
#    0.000    6.667    0.000    0.000    0.000    7.000 
#    0.000    0.000    0.000    0.000    0.000    0.000 
#
# Total GULP energy -595336.369997 kJ/mol
# GULP energy per Si atom -12402.841042 kJ/mol
# Density = 2.179732 g / cm^3
# Si number density = 21.847045 Si / 1000 Ang^3
#
#
#
# Elastic Constant Matrix: (Units=GPa)
#
#
# Indices 1 2 3 4 5 6 
#
# 1 49.8411 4.2197 34.2254 0.0000 0.0000 -5.3689
# 2 4.2197 49.8411 34.2254 0.0000 0.0000 5.3689
# 3 34.2254 34.2254 147.4270 0.0000 0.0000 0.0000
# 4 0.0000 0.0000 0.0000 34.6143 0.0000 0.0000
# 5 0.0000 0.0000 0.0000 0.0000 34.6143 0.0000
# 6 -5.3689 5.3689 0.0000 0.0000 0.0000 33.4291
#
#
#
# Elastic Compliance Matrix: (Units=1/GPa)
#
#
# Indices 1 2 3 4 5 6 
#
# 1 0.024490 0.001709 -0.006082 0.000000 0.000000 0.003659
# 2 0.001709 0.024490 -0.006082 0.000000 0.000000 -0.003659
# 3 -0.006082 -0.006082 0.009607 0.000000 0.000000 0.000000
# 4 0.000000 0.000000 0.000000 0.028890 0.000000 0.000000
# 5 0.000000 0.000000 0.000000 0.000000 0.028890 0.000000
# 6 0.003659 -0.003659 0.000000 0.000000 0.000000 0.031089
#
#
# Mechanical properties :
#
#
# Convention : Reuss Voigt Hill
#
# Bulk Modulus (GPa) = 26.54204 43.60555 35.07380
# Shear Modulus (GPa) = 27.63591 32.16080 29.89836
#
# Velocity S-wave (km/s) = 3.56050 3.84094 3.70338
# Velocity P-wave (km/s) = 5.39243 6.29867 5.86309
#
# Compressibility (1/GPa) = 0.03767608
#
# Stress axis : x y z
#
# Youngs Moduli (GPa) = 40.83350 40.83350 104.09154
#
# Poissons Ratio (x) = -0.06978 0.63309
# Poissons Ratio (y) = -0.06978 0.63309
# Poissons Ratio (z) = 0.24835 0.24835
#
# Static dielectric constant tensor:
#      x y z
#    x 3.770950 0.000000 0.000000 
#    y 0.000000 3.770950 0.000000 
#    z 0.000000 0.000000 3.983280 
# 
# 
# High freq. dielectric constant tensor:
#      x y z
#    x 1.852640 0.000000 0.000000 
#    y 0.000000 1.852640 0.000000 
#    z 0.000000 0.000000 1.869420 
# 
# From -- ./inp_files/3479.got.cif
#   From: 2010.03.12/outbox.cif.g09.slc.cpg/sg83_2_cif.got.tgz:3479.got - 2010.04.08 20:05:18.
