data_PCOD8302792
_publ_section_title
;
Structure prediction by ZEFSAII (Michael W. Deem and Ramdas Pophale) SiO2 
 PCOD8302792
Probable space group: P 4/M
;
_chemical_formula_sum "Si O2"
_cell_formula_units_Z 40
_cell_length_a 15.922172
_cell_length_b 15.922172
_cell_length_c 8.427728
_cell_angle_alpha 90.000000
_cell_angle_beta 90.000000
_cell_angle_gamma 90.000000
_cell_volume 2136.560194
_symmetry_space_group_name_H-M "P 4/M"
_symmetry_group_IT_number 83
_symmetry_cell_setting 'tetragonal'
loop_
_space_group_symop_operation_xyz
x,y,z
-y,x,z
-x,-y,z
y,-x,z
-x,-y,-z
y,-x,-z
x,y,-z
-y,x,-z
loop_
_atom_site_type_symbol
_atom_site_label
_atom_site_fract_x
_atom_site_fract_y
_atom_site_fract_z
Si Si1 0.681483 0.649171 0.815355
Si Si2 0.881870 0.059982 0.810940
Si Si3 0.283754 0.856378 0.186681
Si Si4 0.088738 0.464157 0.812054
Si Si5 0.521912 0.738580 0.316453
O O1 0.758936 0.708871 0.762566
O O2 0.686905 0.562698 0.718456
O O3 0.595663 0.696736 0.784108
O O4 0.690057 0.626013 0.000000
O O5 0.798792 0.102158 0.734128
O O6 0.963555 0.111653 0.752406
O O7 0.878443 0.062009 0.000000
O O8 0.366984 0.906380 0.241530
O O9 0.274223 0.864105 0.000000
O O10 0.163943 0.515470 0.731242
O O11 0.000000 0.500000 0.752162
O O12 0.099146 0.473881 0.000000
O O13 0.544544 0.731143 0.500000
#
# Coordination Sequence:
#
# PCOD8302792 Si02
#       5
#     8   8   8   8   8
#     4  10  20  36  55  75 100 133 173 213 254 306
#     4   8  13  21  35  60  95 129 158 194 244 296
#     4   8  15  27  44  67  95 127 166 210 251 294
#     4   9  18  33  52  74 101 137 180 220 258 305
#     4  11  22  36  54  78 107 136 168 211 265 317
#
# _framework density 18.721681
#
# number of rings (size 3 to 8) (size 9 to 14) (size 15 to 20)
#    0.000    2.800    0.000    4.200    0.000    2.400 
#    0.000    8.000    0.000    0.000    0.000    0.000 
#    0.000    0.000    0.000   56.800    0.000   52.000 
#
# Total GULP energy -495889.575819 kJ/mol
# GULP energy per Si atom -12397.239395 kJ/mol
# Density = 1.867907 g / cm^3
# Si number density = 18.721681 Si / 1000 Ang^3
#
#
#
# Elastic Constant Matrix: (Units=GPa)
#
#
# Indices 1 2 3 4 5 6 
#
# 1 130.9901 83.9724 5.2749 0.0000 0.0000 -17.4156
# 2 83.9724 130.9901 5.2749 0.0000 0.0000 17.4156
# 3 5.2749 5.2749 31.6615 0.0000 0.0000 0.0000
# 4 0.0000 0.0000 0.0000 12.8587 0.0000 0.0000
# 5 0.0000 0.0000 0.0000 0.0000 12.8587 0.0000
# 6 -17.4156 17.4156 0.0000 0.0000 0.0000 34.9309
#
#
#
# Elastic Compliance Matrix: (Units=1/GPa)
#
#
# Indices 1 2 3 4 5 6 
#
# 1 0.019207 -0.014517 -0.000781 0.000000 0.000000 0.016814
# 2 -0.014517 0.019207 -0.000781 0.000000 0.000000 -0.016814
# 3 -0.000781 -0.000781 0.031845 0.000000 0.000000 0.000000
# 4 0.000000 0.000000 0.000000 0.077768 0.000000 0.000000
# 5 0.000000 0.000000 0.000000 0.000000 0.077768 0.000000
# 6 0.016814 -0.016814 0.000000 0.000000 0.000000 0.045394
#
#
# Mechanical properties :
#
#
# Convention : Reuss Voigt Hill
#
# Bulk Modulus (GPa) = 26.24709 53.63177 39.93943
# Shear Modulus (GPa) = 15.82029 25.40430 20.61230
#
# Velocity S-wave (km/s) = 2.91009 3.68767 3.32171
# Velocity P-wave (km/s) = 5.03404 6.84405 6.00760
#
# Compressibility (1/GPa) = 0.03809946
#
# Stress axis : x y z
#
# Youngs Moduli (GPa) = 52.06302 52.06302 31.40259
#
# Poissons Ratio (x) = 0.75581 0.02454
# Poissons Ratio (y) = 0.75581 0.02454
# Poissons Ratio (z) = 0.04068 0.04068
#
# Static dielectric constant tensor:
#      x y z
#    x 3.635730 0.000000 0.000000 
#    y 0.000000 3.635730 0.000000 
#    z 0.000000 0.000000 2.990840 
# 
# 
# High freq. dielectric constant tensor:
#      x y z
#    x 1.731120 0.000000 0.000000 
#    y 0.000000 1.731120 0.000000 
#    z 0.000000 0.000000 1.688540 
# 
# From -- ./inp_files/685.got.cif
#   From: 2010.03.12/outbox.cif.g09.slc.cpg/sg83_1_cif.got.tgz:685.got - 2010.04.08 20:05:18.
