data_PCOD8302450
_publ_section_title
;
Structure prediction by ZEFSAII (Michael W. Deem and Ramdas Pophale) SiO2 
 PCOD8302450
Probable space group: I -4 
;
_chemical_formula_sum "Si O2"
_cell_formula_units_Z 52
_cell_length_a 16.190173
_cell_length_b 16.190173
_cell_length_c 9.213016
_cell_angle_alpha 90.000000
_cell_angle_beta 90.000000
_cell_angle_gamma 90.000000
_cell_volume 2414.931432
_symmetry_space_group_name_H-M "I -4 "
_symmetry_group_IT_number 82
_symmetry_cell_setting 'tetragonal'
loop_
_space_group_symop_operation_xyz
x,y,z
y,-x,-z
-x,-y,z
-y,x,-z
1/2+x,1/2+y,1/2+z
1/2+y,1/2-x,1/2-z
1/2-x,1/2-y,1/2+z
1/2-y,1/2+x,1/2-z
loop_
_atom_site_type_symbol
_atom_site_label
_atom_site_fract_x
_atom_site_fract_y
_atom_site_fract_z
Si Si1 0.078217 0.247966 0.121753
Si Si2 0.326355 0.317078 0.008646
Si Si3 0.162665 0.462555 0.578997
Si Si4 0.000000 0.500000 0.750000
Si Si5 0.172409 0.001182 0.613702
Si Si6 0.906474 0.412525 0.213494
Si Si7 0.500000 0.500000 0.000000
Si Si8 0.813665 0.242476 0.803695
O O1 0.007442 0.207477 0.223368
O O2 0.120366 0.328251 0.197845
O O3 0.155791 0.185773 0.104150
O O4 0.036859 0.276057 0.970619
O O5 0.302036 0.411118 0.047597
O O6 0.302286 0.257798 0.139956
O O7 0.423648 0.297909 0.984382
O O8 0.275398 0.295875 0.864267
O O9 0.083078 0.502240 0.655050
O O10 0.132388 0.410280 0.440394
O O11 0.214304 0.402730 0.682767
O O12 0.073805 0.995365 0.615000
O O13 0.895147 0.511411 0.191548
#
# Coordination Sequence:
#
# PCOD8302450 Si02
#       8
#     8   8   8   2   8   8   2   8
#     4  10  22  39  64  92 123 173 216 279 343 410
#     4  10  23  41  67  97 131 173 222 278 344 409
#     4  11  24  42  62  93 133 173 230 277 351 414
#     4  12  28  44  62  96 136 196 220 294 356 404
#     4   9  19  39  66  92 125 170 217 266 336 410
#     4   9  18  36  63  87 115 160 218 267 322 408
#     4   8  16  36  60  96 122 156 216 268 314 412
#     4  11  25  41  62  98 133 171 227 284 342 406
#
# _framework density 21.532702
#
# number of rings (size 3 to 8) (size 9 to 14) (size 15 to 20)
#    0.000    2.000    0.000    3.692    8.615    2.462 
#    0.000    3.077    0.000    0.000    0.000    0.000 
#    0.000    0.000    0.000    0.000    0.000    0.000 
#
# Total GULP energy -322333.158277 kJ/mol
# GULP energy per Si atom -12397.429165 kJ/mol
# Density = 2.148369 g / cm^3
# Si number density = 21.532702 Si / 1000 Ang^3
#
#
#
# Elastic Constant Matrix: (Units=GPa)
#
#
# Indices 1 2 3 4 5 6 
#
# 1 77.9281 43.1677 26.7212 0.0000 0.0000 -3.1153
# 2 43.1677 77.9281 26.7212 0.0000 0.0000 3.1153
# 3 26.7212 26.7212 50.5106 0.0000 0.0000 0.0000
# 4 0.0000 0.0000 0.0000 32.6439 0.0000 0.0000
# 5 0.0000 0.0000 0.0000 0.0000 32.6439 0.0000
# 6 -3.1153 3.1153 0.0000 0.0000 0.0000 41.1706
#
#
#
# Elastic Compliance Matrix: (Units=1/GPa)
#
#
# Indices 1 2 3 4 5 6 
#
# 1 0.019969 -0.009195 -0.005699 0.000000 0.000000 0.002207
# 2 -0.009195 0.019969 -0.005699 0.000000 0.000000 -0.002207
# 3 -0.005699 -0.005699 0.025828 0.000000 0.000000 0.000000
# 4 0.000000 0.000000 0.000000 0.030634 0.000000 0.000000
# 5 0.000000 0.000000 0.000000 0.000000 0.030634 0.000000
# 6 0.002207 -0.002207 0.000000 0.000000 0.000000 0.024623
#
#
# Mechanical properties :
#
#
# Convention : Reuss Voigt Hill
#
# Bulk Modulus (GPa) = 40.68810 44.39857 42.54334
# Shear Modulus (GPa) = 24.87125 28.60879 26.74002
#
# Velocity S-wave (km/s) = 3.40228 3.64898 3.52779
# Velocity P-wave (km/s) = 5.86268 6.19817 6.03276
#
# Compressibility (1/GPa) = 0.02457721
#
# Stress axis : x y z
#
# Youngs Moduli (GPa) = 50.07879 50.07879 38.71793
#
# Poissons Ratio (x) = 0.46049 0.22066
# Poissons Ratio (y) = 0.46049 0.22066
# Poissons Ratio (z) = 0.28541 0.28541
#
# Static dielectric constant tensor:
#      x y z
#    x 4.103320 0.000000 0.000000 
#    y 0.000000 4.103320 0.000000 
#    z 0.000000 0.000000 3.608050 
# 
# 
# High freq. dielectric constant tensor:
#      x y z
#    x 1.853220 0.000000 0.000000 
#    y 0.000000 1.853220 0.000000 
#    z 0.000000 0.000000 1.816840 
# 
# From -- ./inp_files/1146.got.cif
#   From: 2010.03.12/outbox.cif.g09.slc.cpg/sg82_1_cif.got.tgz:1146.got - 2010.04.08 20:02:50.
