data_PCOD8302479
_publ_section_title
;
Structure prediction by ZEFSAII (Michael W. Deem and Ramdas Pophale) SiO2 
 PCOD8302479
Probable space group: I -4 
;
_chemical_formula_sum "Si O2"
_cell_formula_units_Z 48
_cell_length_a 15.961255
_cell_length_b 15.961255
_cell_length_c 8.587654
_cell_angle_alpha 90.000000
_cell_angle_beta 90.000000
_cell_angle_gamma 90.000000
_cell_volume 2187.804999
_symmetry_space_group_name_H-M "I -4 "
_symmetry_group_IT_number 82
_symmetry_cell_setting 'tetragonal'
loop_
_space_group_symop_operation_xyz
x,y,z
y,-x,-z
-x,-y,z
-y,x,-z
1/2+x,1/2+y,1/2+z
1/2+y,1/2-x,1/2-z
1/2-x,1/2-y,1/2+z
1/2-y,1/2+x,1/2-z
loop_
_atom_site_type_symbol
_atom_site_label
_atom_site_fract_x
_atom_site_fract_y
_atom_site_fract_z
Si Si1 0.110011 0.290497 0.473174
Si Si2 0.611912 0.064886 0.800667
Si Si3 0.157821 0.815002 0.331442
Si Si4 0.253723 0.331830 0.668480
Si Si5 0.929136 0.309020 0.536171
Si Si6 0.101047 0.094388 0.978669
O O1 0.093824 0.303289 0.288976
O O2 0.128095 0.193875 0.524086
O O3 0.188240 0.347992 0.527862
O O4 0.027349 0.321479 0.565888
O O5 0.535127 0.103640 0.697465
O O6 0.611142 0.102815 0.975561
O O7 0.234332 0.753312 0.275036
O O8 0.082603 0.758872 0.396884
O O9 0.125387 0.873502 0.193056
O O10 0.224044 0.387302 0.810449
O O11 0.154243 0.142927 0.110289
O O12 0.004568 0.117293 0.007026
#
# Coordination Sequence:
#
# PCOD8302479 Si02
#       6
#     8   8   8   8   8   8
#     4   9  22  39  59  93 128 169 227 273 336 407
#     4   9  19  37  59  88 126 168 214 268 335 402
#     4  10  23  43  60  95 129 171 228 270 338 406
#     4  10  23  41  65  99 134 173 230 284 343 413
#     4  11  21  38  64  90 128 173 219 282 337 408
#     4  11  24  46  73 103 140 183 230 285 349 414
#
# _framework density 21.939798
#
# number of rings (size 3 to 8) (size 9 to 14) (size 15 to 20)
#    1.000    1.000    0.000    3.000    2.333    2.667 
#   12.000    0.000    0.000    2.000    0.000    0.000 
#    0.000    0.000    0.000    0.000    0.000    0.000 
#
# Total GULP energy -297368.034588 kJ/mol
# GULP energy per Si atom -12390.334775 kJ/mol
# Density = 2.188986 g / cm^3
# Si number density = 21.939798 Si / 1000 Ang^3
#
#
#
# Elastic Constant Matrix: (Units=GPa)
#
#
# Indices 1 2 3 4 5 6 
#
# 1 99.1592 32.1065 24.0425 0.0000 0.0000 2.7981
# 2 32.1065 99.1592 24.0425 0.0000 0.0000 -2.7981
# 3 24.0425 24.0425 31.1333 0.0000 0.0000 0.0000
# 4 0.0000 0.0000 0.0000 36.1461 0.0000 0.0000
# 5 0.0000 0.0000 0.0000 0.0000 36.1461 0.0000
# 6 2.7981 -2.7981 0.0000 0.0000 0.0000 33.6546
#
#
#
# Elastic Compliance Matrix: (Units=1/GPa)
#
#
# Indices 1 2 3 4 5 6 
#
# 1 0.012821 -0.002197 -0.008204 0.000000 0.000000 -0.001249
# 2 -0.002197 0.012821 -0.008204 0.000000 0.000000 0.001249
# 3 -0.008204 -0.008204 0.044791 0.000000 0.000000 0.000000
# 4 0.000000 0.000000 0.000000 0.027665 0.000000 0.000000
# 5 0.000000 0.000000 0.000000 0.000000 0.027665 0.000000
# 6 -0.001249 0.001249 0.000000 0.000000 0.000000 0.029921
#
#
# Mechanical properties :
#
#
# Convention : Reuss Voigt Hill
#
# Bulk Modulus (GPa) = 30.10046 43.31498 36.70772
# Shear Modulus (GPa) = 24.51368 31.14005 27.82687
#
# Velocity S-wave (km/s) = 3.34625 3.77150 3.56522
# Velocity P-wave (km/s) = 5.35530 6.22504 5.80648
#
# Compressibility (1/GPa) = 0.03322208
#
# Stress axis : x y z
#
# Youngs Moduli (GPa) = 77.99952 77.99952 22.32610
#
# Poissons Ratio (x) = 0.17139 0.18316
# Poissons Ratio (y) = 0.17139 0.18316
# Poissons Ratio (z) = 0.63989 0.63989
#
# Static dielectric constant tensor:
#      x y z
#    x 3.989610 0.000000 0.000000 
#    y 0.000000 3.989610 0.000000 
#    z 0.000000 0.000000 3.693460 
# 
# 
# High freq. dielectric constant tensor:
#      x y z
#    x 1.861530 0.000000 0.000000 
#    y 0.000000 1.861530 0.000000 
#    z 0.000000 0.000000 1.850870 
# 
# From -- ./inp_files/1771.got.cif
#   From: 2010.03.12/outbox.cif.g09.slc.cpg/sg82_1_cif.got.tgz:1771.got - 2010.04.08 20:02:50.
