data_PCOD8302574
_publ_section_title
;
Structure prediction by ZEFSAII (Michael W. Deem and Ramdas Pophale) SiO2 
 PCOD8302574
Probable space group: I -4 
;
_chemical_formula_sum "Si O2"
_cell_formula_units_Z 34
_cell_length_a 10.766188
_cell_length_b 10.766188
_cell_length_c 12.233816
_cell_angle_alpha 90.000000
_cell_angle_beta 90.000000
_cell_angle_gamma 90.000000
_cell_volume 1418.031449
_symmetry_space_group_name_H-M "I -4 "
_symmetry_group_IT_number 82
_symmetry_cell_setting 'tetragonal'
loop_
_space_group_symop_operation_xyz
x,y,z
y,-x,-z
-x,-y,z
-y,x,-z
1/2+x,1/2+y,1/2+z
1/2+y,1/2-x,1/2-z
1/2-x,1/2-y,1/2+z
1/2-y,1/2+x,1/2-z
loop_
_atom_site_type_symbol
_atom_site_label
_atom_site_fract_x
_atom_site_fract_y
_atom_site_fract_z
Si Si1 0.206681 0.633913 0.626868
Si Si2 0.422759 0.703914 0.772438
Si Si3 0.365012 0.939687 0.903934
Si Si4 0.111407 0.112572 0.431920
Si Si5 0.500000 0.000000 0.250000
O O1 0.319203 0.617779 0.712624
O O2 0.215891 0.552163 0.516277
O O3 0.205714 0.777245 0.589567
O O4 0.075478 0.601059 0.681072
O O5 0.371534 0.794025 0.868970
O O6 0.480667 0.795459 0.684564
O O7 0.526321 0.613724 0.823104
O O8 0.500000 0.000000 0.922209
O O9 0.029629 0.154732 0.539823
#
# Coordination Sequence:
#
# PCOD8302574 Si02
#       5
#     8   8   8   8   2
#     4  12  28  47  77 112 157 201 260 328 385 465
#     4  12  24  46  78 113 153 203 256 321 380 462
#     4  12  22  45  75 112 149 202 262 307 388 463
#     4  11  25  44  75 112 148 202 263 305 377 458
#     4  12  32  48  72 114 156 196 264 336 404 442
#
# _framework density 23.976901999999999
#
# number of rings (size 3 to 8) (size 9 to 14) (size 15 to 20)
#    0.000    0.235    8.235    0.000    6.588    1.882 
#    0.000    0.000    0.000    0.000    0.000    0.000 
#    0.000    0.000    0.000    0.000    0.000    0.000 
#
# Total GULP energy -210715.320192 kJ/mol
# GULP energy per Si atom -12395.018835 kJ/mol
# Density = 2.392233 g / cm^3
# Si number density = 23.976902 Si / 1000 Ang^3
#
#
#
# Elastic Constant Matrix: (Units=GPa)
#
#
# Indices 1 2 3 4 5 6 
#
# 1 82.5171 20.6667 40.4574 0.0000 0.0000 7.4116
# 2 20.6667 82.5171 40.4574 0.0000 0.0000 -7.4116
# 3 40.4574 40.4574 141.9175 0.0000 0.0000 0.0000
# 4 0.0000 0.0000 0.0000 32.1243 0.0000 0.0000
# 5 0.0000 0.0000 0.0000 0.0000 32.1243 0.0000
# 6 7.4116 -7.4116 0.0000 0.0000 0.0000 35.7241
#
#
#
# Elastic Compliance Matrix: (Units=1/GPa)
#
#
# Indices 1 2 3 4 5 6 
#
# 1 0.014748 -0.002266 -0.003558 0.000000 0.000000 -0.003530
# 2 -0.002266 0.014748 -0.003558 0.000000 0.000000 0.003530
# 3 -0.003558 -0.003558 0.009075 0.000000 0.000000 0.000000
# 4 0.000000 0.000000 0.000000 0.031129 0.000000 0.000000
# 5 0.000000 0.000000 0.000000 0.000000 0.031129 0.000000
# 6 -0.003530 0.003530 0.000000 0.000000 0.000000 0.029457
#
#
# Mechanical properties :
#
#
# Convention : Reuss Voigt Hill
#
# Bulk Modulus (GPa) = 50.49083 56.67943 53.58513
# Shear Modulus (GPa) = 32.12269 33.68587 32.90428
#
# Velocity S-wave (km/s) = 3.66421 3.75231 3.70852
# Velocity P-wave (km/s) = 6.24546 6.51641 6.38237
#
# Compressibility (1/GPa) = 0.01980557
#
# Stress axis : x y z
#
# Youngs Moduli (GPa) = 67.80635 67.80633 110.19155
#
# Poissons Ratio (x) = 0.15366 0.39209
# Poissons Ratio (y) = 0.15366 0.39209
# Poissons Ratio (z) = 0.24127 0.24127
#
# Static dielectric constant tensor:
#      x y z
#    x 4.255570 0.000000 0.000000 
#    y 0.000000 4.255570 0.000000 
#    z 0.000000 0.000000 4.699020 
# 
# 
# High freq. dielectric constant tensor:
#      x y z
#    x 1.939720 0.000000 0.000000 
#    y 0.000000 1.939720 0.000000 
#    z 0.000000 0.000000 1.972890 
# 
# From -- ./inp_files/1590.got.cif
#   From: 2010.03.12/outbox.cif.g09.slc.cpg/sg82_1_cif.got.tgz:1590.got - 2010.04.08 20:02:50.
