data_PCOD8302617
_publ_section_title
;
Structure prediction by ZEFSAII (Michael W. Deem and Ramdas Pophale) SiO2 
 PCOD8302617
Probable space group: P 4/M
;
_chemical_formula_sum "Si O2"
_cell_formula_units_Z 56
_cell_length_a 12.047809
_cell_length_b 12.047809
_cell_length_c 23.315089
_cell_angle_alpha 90.000000
_cell_angle_beta 90.000000
_cell_angle_gamma 90.000000
_cell_volume 3384.178213
_symmetry_space_group_name_H-M "P 4/M"
_symmetry_group_IT_number 83
_symmetry_cell_setting 'tetragonal'
loop_
_space_group_symop_operation_xyz
x,y,z
-y,x,z
-x,-y,z
y,-x,z
-x,-y,-z
y,-x,-z
x,y,-z
-y,x,-z
loop_
_atom_site_type_symbol
_atom_site_label
_atom_site_fract_x
_atom_site_fract_y
_atom_site_fract_z
Si Si1 0.479815 0.678660 0.371337
Si Si2 0.129997 0.498967 0.851632
Si Si3 0.125721 0.304172 0.064318
Si Si4 0.097113 0.417011 0.432022
Si Si5 0.694909 0.872534 0.064615
Si Si6 0.679791 0.508331 0.762299
Si Si7 0.958733 0.828478 0.431858
O O1 0.379147 0.596234 0.387408
O O2 0.464787 0.789448 0.407307
O O3 0.483005 0.707954 0.304485
O O4 0.162698 0.395946 0.890871
O O5 0.163851 0.605041 0.888895
O O6 0.203061 0.491892 0.794626
O O7 0.000000 0.500000 0.834745
O O8 0.194121 0.194278 0.076787
O O9 0.999059 0.271030 0.073162
O O10 0.146429 0.350107 0.000000
O O11 0.108580 0.413201 0.500000
O O12 0.070750 0.293478 0.407318
O O13 0.000000 0.500000 0.412630
O O14 0.648771 0.851830 0.000000
O O15 0.603873 0.613897 0.778587
O O16 0.959342 0.824434 0.500000
O O17 0.081375 0.867222 0.410612
#
# Coordination Sequence:
#
# PCOD8302617 Si02
#       7
#     8   8   8   8   8   8   8
#     4   9  20  37  53  70  96 129 160 198 248 291
#     4  10  18  28  46  69  92 118 150 189 235 281
#     4   9  17  28  42  63  92 122 153 188 226 270
#     4  10  21  32  49  77 104 128 160 197 233 281
#     4   9  17  28  42  63  92 123 152 186 227 273
#     4   9  18  34  53  69  88 117 157 198 232 274
#     4   8  15  29  48  69  97 131 161 190 225 266
#
# _framework density 16.547592999999999
#
# number of rings (size 3 to 8) (size 9 to 14) (size 15 to 20)
#    0.000    2.857    0.000    2.571    2.000    3.143 
#    0.000    2.143    0.000    0.000    0.000    6.000 
#    0.000    0.000    0.000    0.000    0.000    0.000 
#
# Total GULP energy -694207.561739 kJ/mol
# GULP energy per Si atom -12396.563602 kJ/mol
# Density = 1.650993 g / cm^3
# Si number density = 16.547593 Si / 1000 Ang^3
#
#
#
# Elastic Constant Matrix: (Units=GPa)
#
#
# Indices 1 2 3 4 5 6 
#
# 1 106.8931 56.6036 36.5984 0.0000 0.0000 -0.3125
# 2 56.6036 106.8931 36.5984 0.0000 0.0000 0.3125
# 3 36.5984 36.5984 33.4714 0.0000 0.0000 0.0000
# 4 0.0000 0.0000 0.0000 26.3232 0.0000 0.0000
# 5 0.0000 0.0000 0.0000 0.0000 26.3232 0.0000
# 6 -0.3125 0.3125 0.0000 0.0000 0.0000 20.6577
#
#
#
# Elastic Compliance Matrix: (Units=1/GPa)
#
#
# Indices 1 2 3 4 5 6 
#
# 1 0.015935 -0.003954 -0.013101 0.000000 0.000000 0.000301
# 2 -0.003954 0.015935 -0.013101 0.000000 0.000000 -0.000301
# 3 -0.013101 -0.013101 0.058526 0.000000 0.000000 0.000000
# 4 0.000000 0.000000 0.000000 0.037989 0.000000 0.000000
# 5 0.000000 0.000000 0.000000 0.000000 0.037989 0.000000
# 6 0.000301 -0.000301 0.000000 0.000000 0.000000 0.048417
#
#
# Mechanical properties :
#
#
# Convention : Reuss Voigt Hill
#
# Bulk Modulus (GPa) = 33.23876 56.31761 44.77818
# Shear Modulus (GPa) = 17.53582 22.49131 20.01356
#
# Velocity S-wave (km/s) = 3.25887 3.69072 3.48149
# Velocity P-wave (km/s) = 5.85582 7.22976 6.57876
#
# Compressibility (1/GPa) = 0.03008536
#
# Stress axis : x y z
#
# Youngs Moduli (GPa) = 62.75464 62.75464 17.08647
#
# Poissons Ratio (x) = 0.24810 0.22385
# Poissons Ratio (y) = 0.24810 0.22385
# Poissons Ratio (z) = 0.82214 0.82214
#
# Static dielectric constant tensor:
#      x y z
#    x 3.183260 0.000000 0.000000 
#    y 0.000000 3.183260 0.000000 
#    z 0.000000 0.000000 2.845940 
# 
# 
# High freq. dielectric constant tensor:
#      x y z
#    x 1.642020 0.000000 0.000000 
#    y 0.000000 1.642020 0.000000 
#    z 0.000000 0.000000 1.610060 
# 
# From -- ./inp_files/2995.got.cif
#   From: 2010.03.12/outbox.cif.g09.slc.cpg/sg83_2_cif.got.tgz:2995.got - 2010.04.08 20:05:18.
