data_PCOD8302015
_publ_section_title
;
Structure prediction by ZEFSAII (Michael W. Deem and Ramdas Pophale) SiO2 
 PCOD8302015
Probable space group: P 43
;
_chemical_formula_sum "Si O2"
_cell_formula_units_Z 32
_cell_length_a 11.856084
_cell_length_b 11.856084
_cell_length_c 9.754659
_cell_angle_alpha 90.000000
_cell_angle_beta 90.000000
_cell_angle_gamma 90.000000
_cell_volume 1371.180497
_symmetry_space_group_name_H-M "P 43"
_symmetry_group_IT_number 78
_symmetry_cell_setting 'tetragonal'
loop_
_space_group_symop_operation_xyz
x,y,z
-y,x,3/4+z
-x,-y,1/2+z
y,-x,1/4+z
loop_
_atom_site_type_symbol
_atom_site_label
_atom_site_fract_x
_atom_site_fract_y
_atom_site_fract_z
Si Si1 0.099729 0.210500 0.699880
Si Si2 0.909746 0.350569 0.808550
Si Si3 0.790660 0.340494 0.537068
Si Si4 0.841943 0.710682 0.919205
Si Si5 0.965096 0.921288 0.824286
Si Si6 0.614629 0.794187 0.842966
Si Si7 0.448652 0.605793 0.909011
Si Si8 0.033574 0.569684 0.818643
O O1 0.204982 0.217312 0.802992
O O2 0.118840 0.300327 0.576775
O O3 0.110808 0.087972 0.631537
O O4 0.979500 0.234986 0.774185
O O5 0.822749 0.385157 0.687805
O O6 0.015308 0.436195 0.825796
O O7 0.830476 0.347665 0.941434
O O8 0.674690 0.387343 0.476696
O O9 0.890733 0.381765 0.439535
O O10 0.706130 0.705768 0.906396
O O11 0.870870 0.831167 0.855004
O O12 0.905635 0.616733 0.830296
O O13 0.965039 0.937049 0.660310
O O14 0.495751 0.727511 0.855196
O O15 0.606976 0.910690 0.926338
O O16 0.525515 0.552738 0.027655
#
# Coordination Sequence:
#
# PCOD8302015 Si02
#       8
#     4   4   4   4   4   4   4   4
#     4  11  21  44  70 101 144 195 244 300 392 468
#     4  12  29  42  76 114 153 192 270 326 377 470
#     4  12  24  50  75 109 151 207 256 319 401 474
#     4  11  22  44  73  99 145 195 253 305 381 465
#     4  10  20  35  61  93 132 180 224 282 362 449
#     4  12  28  48  72 118 153 206 261 330 389 466
#     4  12  29  50  82 106 150 208 265 324 395 460
#     4  12  23  47  75 106 148 207 251 316 405 454
#
# _framework density 23.337555999999999
#
# number of rings (size 3 to 8) (size 9 to 14) (size 15 to 20)
#    0.000    0.500    5.000    3.000    7.000    1.000 
#    0.000    0.000    0.000    0.000    0.000    0.000 
#    0.000    0.000    0.000    0.000    0.000    0.000 
#
# Total GULP energy -396642.253359 kJ/mol
# GULP energy per Si atom -12395.070417 kJ/mol
# Density = 2.328444 g / cm^3
# Si number density = 23.337556 Si / 1000 Ang^3
#
#
#
# Elastic Constant Matrix: (Units=GPa)
#
#
# Indices 1 2 3 4 5 6 
#
# 1 81.7836 22.3950 17.9658 0.0000 0.0000 -6.2781
# 2 22.3950 81.7836 17.9658 0.0000 0.0000 6.2781
# 3 17.9658 17.9658 96.3328 0.0000 0.0000 0.0000
# 4 0.0000 0.0000 0.0000 28.0903 0.0000 0.0000
# 5 0.0000 0.0000 0.0000 0.0000 28.0903 0.0000
# 6 -6.2781 6.2781 0.0000 0.0000 0.0000 32.7155
#
#
#
# Elastic Compliance Matrix: (Units=1/GPa)
#
#
# Indices 1 2 3 4 5 6 
#
# 1 0.013905 -0.003646 -0.001913 0.000000 0.000000 0.003368
# 2 -0.003646 0.013905 -0.001913 0.000000 0.000000 -0.003368
# 3 -0.001913 -0.001913 0.011094 0.000000 0.000000 0.000000
# 4 0.000000 0.000000 0.000000 0.035600 0.000000 0.000000
# 5 0.000000 0.000000 0.000000 0.000000 0.035600 0.000000
# 6 0.003368 -0.003368 0.000000 0.000000 0.000000 0.031859
#
#
# Mechanical properties :
#
#
# Convention : Reuss Voigt Hill
#
# Bulk Modulus (GPa) = 41.73805 41.83920 41.78862
# Shear Modulus (GPa) = 30.32281 31.21743 30.77012
#
# Velocity S-wave (km/s) = 3.60851 3.66135 3.63503
# Velocity P-wave (km/s) = 5.94013 5.98672 5.96347
#
# Compressibility (1/GPa) = 0.02395896
#
# Stress axis : x y z
#
# Youngs Moduli (GPa) = 71.91896 71.91896 90.13632
#
# Poissons Ratio (x) = 0.26220 0.17245
# Poissons Ratio (y) = 0.26220 0.17245
# Poissons Ratio (z) = 0.13760 0.13760
#
# Static dielectric constant tensor:
#      x y z
#    x 4.236140 0.000000 0.000000 
#    y 0.000000 4.236140 0.000000 
#    z 0.000000 0.000000 4.475940 
# 
# 
# High freq. dielectric constant tensor:
#      x y z
#    x 1.922850 0.000000 0.000000 
#    y 0.000000 1.922850 0.000000 
#    z 0.000000 0.000000 1.926370 
# 
# From -- ./inp_files/950.got.cif
#   From: 2010.03.12/outbox.cif.g09.slc.cpg/sg78_cif.got.tgz:950.got - 2010.04.16 16:37:20.
