data_PCOD8302179
_publ_section_title
;
Structure prediction by ZEFSAII (Michael W. Deem and Ramdas Pophale) SiO2 
 PCOD8302179
Probable space group: I 41
;
_chemical_formula_sum "Si O2"
_cell_formula_units_Z 48
_cell_length_a 14.592209
_cell_length_b 14.592209
_cell_length_c 11.376347
_cell_angle_alpha 90.000000
_cell_angle_beta 90.000000
_cell_angle_gamma 90.000000
_cell_volume 2422.394730
_symmetry_space_group_name_H-M "I 41"
_symmetry_group_IT_number 80
_symmetry_cell_setting 'tetragonal'
loop_
_space_group_symop_operation_xyz
x,y,z
-y,1/2+x,1/4+z
-x,-y,z
y,1/2-x,1/4+z
1/2+x,1/2+y,1/2+z
1/2-y,x,3/4+z
1/2-x,1/2-y,1/2+z
1/2+y,-x,3/4+z
loop_
_atom_site_type_symbol
_atom_site_label
_atom_site_fract_x
_atom_site_fract_y
_atom_site_fract_z
Si Si1 0.495061 0.873169 0.038820
Si Si2 0.500000 0.000000 0.691962
Si Si3 0.626831 0.004939 0.905794
Si Si4 0.441633 0.185128 0.591313
Si Si5 0.558367 0.685128 0.103300
Si Si6 0.000000 0.000000 0.502652
Si Si7 0.116341 0.250000 0.847307
O O1 0.506563 0.764216 0.030920
O O2 0.494050 0.908489 0.173268
O O3 0.579718 0.920282 0.972307
O O4 0.400980 0.900980 0.972307
O O5 0.408489 0.994050 0.771346
O O6 0.494403 0.089748 0.610268
O O7 0.735784 0.993437 0.913694
O O8 0.335909 0.179782 0.636429
O O9 0.445862 0.211429 0.453402
O O10 0.664091 0.679782 0.058184
O O11 0.554138 0.711429 0.241212
O O12 0.505597 0.589748 0.084345
#
# Coordination Sequence:
#
# PCOD8302179 Si02
#       7
#     8   4   8   8   8   4   8
#     4   9  21  37  59  96 129 172 207 256 329 387
#     4  10  21  39  64  88 126 176 204 272 316 390
#     4   9  21  37  59  96 129 172 207 256 329 387
#     4  11  21  41  59  97 130 158 227 257 336 378
#     4  11  21  41  59  97 130 158 227 257 336 378
#     4  10  21  39  64  88 126 176 204 272 316 390
#     4  10  24  34  64  96 122 172 200 284 336 370
#
# _framework density 19.815102
#
# number of rings (size 3 to 8) (size 9 to 14) (size 15 to 20)
#    0.000    2.333    3.333    0.000    4.667    8.000 
#    0.000    0.000    0.000    4.000    0.000    0.000 
#    0.000    0.000    0.000    0.000    0.000    0.000 
#
# Total GULP energy -297482.636320 kJ/mol
# GULP energy per Si atom -12395.109847 kJ/mol
# Density = 1.977000 g / cm^3
# Si number density = 19.815102 Si / 1000 Ang^3
#
#
#
# Elastic Constant Matrix: (Units=GPa)
#
#
# Indices 1 2 3 4 5 6 
#
# 1 150.9660 73.9110 50.6895 0.0000 0.0000 0.0000
# 2 73.9110 150.9660 50.6895 0.0000 0.0000 0.0000
# 3 50.6895 50.6895 116.4310 0.0000 0.0000 0.0000
# 4 0.0000 0.0000 0.0000 19.5418 0.0000 0.0000
# 5 0.0000 0.0000 0.0000 0.0000 19.5418 0.0000
# 6 0.0000 0.0000 0.0000 0.0000 0.0000 32.5582
#
#
#
# Elastic Compliance Matrix: (Units=1/GPa)
#
#
# Indices 1 2 3 4 5 6 
#
# 1 0.009255 -0.003722 -0.002409 0.000000 0.000000 0.000000
# 2 -0.003722 0.009255 -0.002409 0.000000 0.000000 0.000000
# 3 -0.002409 -0.002409 0.010686 0.000000 0.000000 0.000000
# 4 0.000000 0.000000 0.000000 0.051172 0.000000 0.000000
# 5 0.000000 0.000000 0.000000 0.000000 0.051172 0.000000
# 6 0.000000 0.000000 0.000000 0.000000 0.000000 0.030714
#
#
# Mechanical properties :
#
#
# Convention : Reuss Voigt Hill
#
# Bulk Modulus (GPa) = 82.53085 85.43809 83.98447
# Shear Modulus (GPa) = 27.26664 30.53325 28.89995
#
# Velocity S-wave (km/s) = 3.71354 3.92970 3.82315
# Velocity P-wave (km/s) = 7.75423 7.98757 7.87177
#
# Compressibility (1/GPa) = 0.01211668
#
# Stress axis : x y z
#
# Youngs Moduli (GPa) = 108.04661 108.04661 93.57917
#
# Poissons Ratio (x) = 0.40220 0.22541
# Poissons Ratio (y) = 0.40220 0.22541
# Poissons Ratio (z) = 0.26026 0.26026
#
# Static dielectric constant tensor:
#      x y z
#    x 3.548840 0.000000 0.000000 
#    y 0.000000 3.548840 0.000000 
#    z 0.000000 0.000000 3.654240 
# 
# 
# High freq. dielectric constant tensor:
#      x y z
#    x 1.752750 0.000000 0.000000 
#    y 0.000000 1.752750 0.000000 
#    z 0.000000 0.000000 1.778920 
# 
# From -- ./inp_files/1028.got.cif
#   From: 2010.03.12/outbox.cif.g09.slc.cpg/sg80_cif.got.tgz:1028.got - 2010.04.08 20:00:04.
