data_PCOD8302502
_publ_section_title
;
Structure prediction by ZEFSAII (Michael W. Deem and Ramdas Pophale) SiO2 
 PCOD8302502
Probable space group: I -4 
;
_chemical_formula_sum "Si O2"
_cell_formula_units_Z 48
_cell_length_a 11.330012
_cell_length_b 11.330012
_cell_length_c 17.133207
_cell_angle_alpha 90.000000
_cell_angle_beta 90.000000
_cell_angle_gamma 90.000000
_cell_volume 2199.375595
_symmetry_space_group_name_H-M "I -4 "
_symmetry_group_IT_number 82
_symmetry_cell_setting 'tetragonal'
loop_
_space_group_symop_operation_xyz
x,y,z
y,-x,-z
-x,-y,z
-y,x,-z
1/2+x,1/2+y,1/2+z
1/2+y,1/2-x,1/2-z
1/2-x,1/2-y,1/2+z
1/2-y,1/2+x,1/2-z
loop_
_atom_site_type_symbol
_atom_site_label
_atom_site_fract_x
_atom_site_fract_y
_atom_site_fract_z
Si Si1 0.174941 0.626524 0.508739
Si Si2 0.520508 0.326901 0.275734
Si Si3 0.094086 0.597120 0.346951
Si Si4 0.232511 0.379638 0.567445
Si Si5 0.361115 0.004460 0.354904
Si Si6 0.017163 0.803570 0.236924
O O1 0.082179 0.632774 0.437370
O O2 0.208192 0.489986 0.512760
O O3 0.287753 0.704887 0.489446
O O4 0.115513 0.669701 0.589401
O O5 0.578640 0.310989 0.359976
O O6 0.515892 0.205526 0.227485
O O7 0.387947 0.375843 0.291822
O O8 0.605975 0.418058 0.229494
O O9 0.069878 0.718439 0.302196
O O10 0.224200 0.543229 0.330703
O O11 0.000000 0.500000 0.321117
O O12 0.113280 0.319902 0.600532
O O13 0.500000 0.000000 0.337508
#
# Coordination Sequence:
#
# PCOD8302502 Si02
#       6
#     8   8   8   8   8   8
#     4  11  26  43  66 100 136 179 231 282 353 411
#     4  11  26  43  71 102 144 175 241 286 351 418
#     4  12  22  43  69  98 140 180 233 282 349 417
#     4  11  25  43  69  99 135 184 224 293 343 417
#     4  10  25  45  67 101 133 189 232 285 353 420
#     4  11  24  42  68 109 133 186 226 292 348 413
#
# _framework density 21.824377999999999
#
# number of rings (size 3 to 8) (size 9 to 14) (size 15 to 20)
#    0.000    1.000    3.333    2.500    7.000    3.000 
#    0.000    0.000    0.000    2.000    0.000    0.000 
#    0.000    0.000    0.000    0.000    0.000    0.000 
#
# Total GULP energy -297559.884737 kJ/mol
# GULP energy per Si atom -12398.328531 kJ/mol
# Density = 2.177470 g / cm^3
# Si number density = 21.824378 Si / 1000 Ang^3
#
#
#
# Elastic Constant Matrix: (Units=GPa)
#
#
# Indices 1 2 3 4 5 6 
#
# 1 84.9139 28.9078 9.5065 0.0000 0.0000 3.3496
# 2 28.9078 84.9139 9.5065 0.0000 0.0000 -3.3496
# 3 9.5065 9.5065 57.6908 0.0000 0.0000 0.0000
# 4 0.0000 0.0000 0.0000 33.2221 0.0000 0.0000
# 5 0.0000 0.0000 0.0000 0.0000 33.2221 0.0000
# 6 3.3496 -3.3496 0.0000 0.0000 0.0000 39.2001
#
#
#
# Elastic Compliance Matrix: (Units=1/GPa)
#
#
# Indices 1 2 3 4 5 6 
#
# 1 0.013537 -0.004503 -0.001489 0.000000 0.000000 -0.001541
# 2 -0.004503 0.013537 -0.001489 0.000000 0.000000 0.001541
# 3 -0.001489 -0.001489 0.017824 0.000000 0.000000 0.000000
# 4 0.000000 0.000000 0.000000 0.030100 0.000000 0.000000
# 5 0.000000 0.000000 0.000000 0.000000 0.030100 0.000000
# 6 -0.001541 0.001541 0.000000 0.000000 0.000000 0.025774
#
#
# Mechanical properties :
#
#
# Convention : Reuss Voigt Hill
#
# Bulk Modulus (GPa) = 33.40208 35.92892 34.66550
# Shear Modulus (GPa) = 32.08991 33.10206 32.59598
#
# Velocity S-wave (km/s) = 3.83870 3.89877 3.86885
# Velocity P-wave (km/s) = 5.91487 6.06347 5.98963
#
# Compressibility (1/GPa) = 0.02993825
#
# Stress axis : x y z
#
# Youngs Moduli (GPa) = 73.87187 73.87187 56.10282
#
# Poissons Ratio (x) = 0.33262 0.08352
# Poissons Ratio (y) = 0.33262 0.08352
# Poissons Ratio (z) = 0.10997 0.10997
#
# Static dielectric constant tensor:
#      x y z
#    x 4.095440 0.000000 0.000000 
#    y 0.000000 4.095440 0.000000 
#    z 0.000000 0.000000 3.784870 
# 
# 
# High freq. dielectric constant tensor:
#      x y z
#    x 1.865520 0.000000 0.000000 
#    y 0.000000 1.865520 0.000000 
#    z 0.000000 0.000000 1.853100 
# 
# From -- ./inp_files/2626.got.cif
#   From: 2010.03.12/outbox.cif.g09.slc.cpg/sg82_2_cif.got.tgz:2626.got - 2010.04.08 20:02:50.
