data_PCOD8302736
_publ_section_title
;
Structure prediction by ZEFSAII (Michael W. Deem and Ramdas Pophale) SiO2 
 PCOD8302736
Probable space group: P 4/M
;
_chemical_formula_sum "Si O2"
_cell_formula_units_Z 40
_cell_length_a 15.339989
_cell_length_b 15.339989
_cell_length_c 8.408930
_cell_angle_alpha 90.000000
_cell_angle_beta 90.000000
_cell_angle_gamma 90.000000
_cell_volume 1978.749570
_symmetry_space_group_name_H-M "P 4/M"
_symmetry_group_IT_number 83
_symmetry_cell_setting 'tetragonal'
loop_
_space_group_symop_operation_xyz
x,y,z
-y,x,z
-x,-y,z
y,-x,z
-x,-y,-z
y,-x,-z
x,y,-z
-y,x,-z
loop_
_atom_site_type_symbol
_atom_site_label
_atom_site_fract_x
_atom_site_fract_y
_atom_site_fract_z
Si Si1 0.161761 0.201420 0.189125
Si Si2 0.312683 0.331203 0.815076
Si Si3 0.249786 0.027167 0.188931
Si Si4 0.562325 0.918541 0.180570
Si Si5 0.741461 0.488795 0.317825
O O1 0.233908 0.270464 0.251502
O O2 0.066551 0.223064 0.261820
O O3 0.184282 0.103274 0.245462
O O4 0.159115 0.207117 0.000000
O O5 0.291683 0.432343 0.790859
O O6 0.400973 0.309647 0.723262
O O7 0.327246 0.311889 0.000000
O O8 0.345105 0.052621 0.251408
O O9 0.250888 0.019786 0.000000
O O10 0.523127 0.843912 0.290238
O O11 0.500000 0.000000 0.185705
O O12 0.572347 0.883025 0.000000
O O13 0.724333 0.513274 0.500000
#
# Coordination Sequence:
#
# PCOD8302736 Si02
#       5
#     8   8   8   8   8
#     4   9  17  30  53  84 120 153 195 249 302 351
#     4  11  22  41  64  87 117 162 209 248 296 367
#     4   9  16  28  49  83 119 154 194 247 302 351
#     4  10  19  35  59  86 117 159 213 259 300 358
#     4  12  25  40  60  90 125 158 196 253 318 369
#
# _framework density 20.214786
#
# number of rings (size 3 to 8) (size 9 to 14) (size 15 to 20)
#    0.000    1.800    2.000    3.600    0.000    4.400 
#    0.000    4.000    0.000    0.000    0.000    0.000 
#    0.000    1.600    0.000    0.000    0.000    0.000 
#
# Total GULP energy -496060.581900 kJ/mol
# GULP energy per Si atom -12401.514548 kJ/mol
# Density = 2.016878 g / cm^3
# Si number density = 20.214786 Si / 1000 Ang^3
#
#
#
# Elastic Constant Matrix: (Units=GPa)
#
#
# Indices 1 2 3 4 5 6 
#
# 1 137.6144 47.3845 8.1697 0.0000 0.0000 -2.1890
# 2 47.3845 137.6144 8.1697 0.0000 0.0000 2.1890
# 3 8.1697 8.1697 35.9956 0.0000 0.0000 0.0000
# 4 0.0000 0.0000 0.0000 13.8911 0.0000 0.0000
# 5 0.0000 0.0000 0.0000 0.0000 13.8911 0.0000
# 6 -2.1890 2.1890 0.0000 0.0000 0.0000 35.3302
#
#
#
# Elastic Compliance Matrix: (Units=1/GPa)
#
#
# Indices 1 2 3 4 5 6 
#
# 1 0.008316 -0.002800 -0.001252 0.000000 0.000000 0.000689
# 2 -0.002800 0.008316 -0.001252 0.000000 0.000000 -0.000689
# 3 -0.001252 -0.001252 0.028349 0.000000 0.000000 0.000000
# 4 0.000000 0.000000 0.000000 0.071989 0.000000 0.000000
# 5 0.000000 0.000000 0.000000 0.000000 0.071989 0.000000
# 6 0.000689 -0.000689 0.000000 0.000000 0.000000 0.028390
#
#
# Mechanical properties :
#
#
# Convention : Reuss Voigt Hill
#
# Bulk Modulus (GPa) = 29.09200 48.74137 38.91668
# Shear Modulus (GPa) = 20.88427 29.12251 25.00339
#
# Velocity S-wave (km/s) = 3.21770 3.79971 3.52075
# Velocity P-wave (km/s) = 5.31296 6.58897 5.98507
#
# Compressibility (1/GPa) = 0.03437371
#
# Stress axis : x y z
#
# Youngs Moduli (GPa) = 120.24851 120.24851 35.27407
#
# Poissons Ratio (x) = 0.33671 0.04416
# Poissons Ratio (y) = 0.33671 0.04416
# Poissons Ratio (z) = 0.15054 0.15054
#
# Static dielectric constant tensor:
#      x y z
#    x 3.830950 0.000000 0.000000 
#    y 0.000000 3.830950 0.000000 
#    z 0.000000 0.000000 3.223350 
# 
# 
# High freq. dielectric constant tensor:
#      x y z
#    x 1.802350 0.000000 0.000000 
#    y 0.000000 1.802350 0.000000 
#    z 0.000000 0.000000 1.741050 
# 
# From -- ./inp_files/625.got.cif
#   From: 2010.03.12/outbox.cif.g09.slc.cpg/sg83_1_cif.got.tgz:625.got - 2010.04.08 20:05:18.
