data_PCOD8302564
_publ_section_title
;
Structure prediction by ZEFSAII (Michael W. Deem and Ramdas Pophale) SiO2 
 PCOD8302564
Probable space group: I -4 
;
_chemical_formula_sum "Si O2"
_cell_formula_units_Z 40
_cell_length_a 9.548898
_cell_length_b 9.548898
_cell_length_c 19.899090
_cell_angle_alpha 90.000000
_cell_angle_beta 90.000000
_cell_angle_gamma 90.000000
_cell_volume 1814.427940
_symmetry_space_group_name_H-M "I -4 "
_symmetry_group_IT_number 82
_symmetry_cell_setting 'tetragonal'
loop_
_space_group_symop_operation_xyz
x,y,z
y,-x,-z
-x,-y,z
-y,x,-z
1/2+x,1/2+y,1/2+z
1/2+y,1/2-x,1/2-z
1/2-x,1/2-y,1/2+z
1/2-y,1/2+x,1/2-z
loop_
_atom_site_type_symbol
_atom_site_label
_atom_site_fract_x
_atom_site_fract_y
_atom_site_fract_z
Si Si1 0.280915 0.740933 0.494334
Si Si2 0.800111 0.588853 0.270134
Si Si3 0.835934 0.513049 0.926083
Si Si4 0.993562 0.836679 0.095860
Si Si5 0.580119 0.809394 0.221671
O O1 0.268300 0.904298 0.478168
O O2 0.280865 0.662881 0.421538
O O3 0.426952 0.694922 0.526750
O O4 0.165032 0.706487 0.549298
O O5 0.821478 0.443715 0.229401
O O6 0.761184 0.554402 0.346299
O O7 0.673185 0.674672 0.237622
O O8 0.783078 0.489330 0.850531
O O9 0.000000 0.500000 0.928373
O O10 0.000000 0.000000 0.116714
O O11 0.452109 0.826155 0.275531
#
# Coordination Sequence:
#
# PCOD8302564 Si02
#       5
#     8   8   8   8   8
#     4  12  25  43  74 103 137 188 228 294 349 409
#     4  11  28  46  68 107 149 187 231 292 358 418
#     4  12  24  45  70 104 144 177 236 288 349 419
#     4  12  23  45  75 100 136 185 250 284 337 429
#     4  11  24  45  76 105 136 186 236 291 348 416
#
# _framework density 22.045515000000002
#
# number of rings (size 3 to 8) (size 9 to 14) (size 15 to 20)
#    0.000    0.400    6.000    2.400    5.600    5.200 
#    0.000    2.000    0.000    0.000    0.000    0.000 
#    0.000    0.000    0.000    0.000    0.000    0.000 
#
# Total GULP energy -248062.794017 kJ/mol
# GULP energy per Si atom -12403.139701 kJ/mol
# Density = 2.199534 g / cm^3
# Si number density = 22.045515 Si / 1000 Ang^3
#
#
#
# Elastic Constant Matrix: (Units=GPa)
#
#
# Indices 1 2 3 4 5 6 
#
# 1 73.6166 27.1628 41.6903 0.0000 0.0000 1.8603
# 2 27.1628 73.6166 41.6903 0.0000 0.0000 -1.8603
# 3 41.6903 41.6903 104.8561 0.0000 0.0000 0.0000
# 4 0.0000 0.0000 0.0000 52.7869 0.0000 0.0000
# 5 0.0000 0.0000 0.0000 0.0000 52.7869 0.0000
# 6 1.8603 -1.8603 0.0000 0.0000 0.0000 42.1831
#
#
#
# Elastic Compliance Matrix: (Units=1/GPa)
#
#
# Indices 1 2 3 4 5 6 
#
# 1 0.018195 -0.003408 -0.005879 0.000000 0.000000 -0.000953
# 2 -0.003408 0.018195 -0.005879 0.000000 0.000000 0.000953
# 3 -0.005879 -0.005879 0.014212 0.000000 0.000000 0.000000
# 4 0.000000 0.000000 0.000000 0.018944 0.000000 0.000000
# 5 0.000000 0.000000 0.000000 0.000000 0.018944 0.000000
# 6 -0.000953 0.000953 0.000000 0.000000 0.000000 0.023790
#
#
# Mechanical properties :
#
#
# Convention : Reuss Voigt Hill
#
# Bulk Modulus (GPa) = 49.33662 52.57512 50.95587
# Shear Modulus (GPa) = 33.47402 38.98778 36.23090
#
# Velocity S-wave (km/s) = 3.90090 4.20993 4.05836
# Velocity P-wave (km/s) = 6.53585 6.89431 6.71748
#
# Compressibility (1/GPa) = 0.02026892
#
# Stress axis : x y z
#
# Youngs Moduli (GPa) = 54.96022 54.96022 70.36334
#
# Poissons Ratio (x) = 0.18731 0.41368
# Poissons Ratio (y) = 0.18731 0.41368
# Poissons Ratio (z) = 0.32312 0.32312
#
# Static dielectric constant tensor:
#      x y z
#    x 3.894560 0.000000 0.000000 
#    y 0.000000 3.894560 0.000000 
#    z 0.000000 0.000000 3.950940 
# 
# 
# High freq. dielectric constant tensor:
#      x y z
#    x 1.870980 0.000000 0.000000 
#    y 0.000000 1.870980 0.000000 
#    z 0.000000 0.000000 1.869310 
# 
# From -- ./inp_files/3372.got.cif
#   From: 2010.03.12/outbox.cif.g09.slc.cpg/sg82_2_cif.got.tgz:3372.got - 2010.04.08 20:02:50.
