data_PCOD8302769
_publ_section_title
;
Structure prediction by ZEFSAII (Michael W. Deem and Ramdas Pophale) SiO2 
 PCOD8302769
Probable space group: P 4/M
;
_chemical_formula_sum "Si O2"
_cell_formula_units_Z 40
_cell_length_a 15.836523
_cell_length_b 15.836523
_cell_length_c 8.847047
_cell_angle_alpha 90.000000
_cell_angle_beta 90.000000
_cell_angle_gamma 90.000000
_cell_volume 2218.799228
_symmetry_space_group_name_H-M "P 4/M"
_symmetry_group_IT_number 83
_symmetry_cell_setting 'tetragonal'
loop_
_space_group_symop_operation_xyz
x,y,z
-y,x,z
-x,-y,z
y,-x,z
-x,-y,-z
y,-x,-z
x,y,-z
-y,x,-z
loop_
_atom_site_type_symbol
_atom_site_label
_atom_site_fract_x
_atom_site_fract_y
_atom_site_fract_z
Si Si1 0.674274 0.652772 0.177835
Si Si2 0.934691 0.884333 0.820194
Si Si3 0.287799 0.859069 0.177310
Si Si4 0.917842 0.548273 0.677539
Si Si5 0.513087 0.734259 0.321759
O O1 0.761355 0.699506 0.218228
O O2 0.603390 0.705380 0.263252
O O3 0.677457 0.557453 0.239605
O O4 0.655760 0.650861 0.000000
O O5 0.888141 0.802025 0.754268
O O6 0.031758 0.886300 0.762934
O O7 0.932855 0.882446 0.000000
O O8 0.359332 0.917146 0.250412
O O9 0.292380 0.874204 0.000000
O O10 0.925101 0.559896 0.500000
O O11 0.832800 0.497659 0.721696
O O12 0.000000 0.500000 0.741856
O O13 0.505365 0.719730 0.500000
#
# Coordination Sequence:
#
# PCOD8302769 Si02
#       5
#     8   8   8   8   8
#     4  10  20  34  51  74 103 129 159 205 254 292
#     4   8  14  26  45  70 100 131 162 197 237 283
#     4   9  18  31  49  74 100 127 162 203 245 288
#     4   9  19  35  52  71  98 131 165 201 242 289
#     4  10  20  35  54  74  98 131 169 202 239 295
#
# _framework density 18.027768999999999
#
# number of rings (size 3 to 8) (size 9 to 14) (size 15 to 20)
#    0.000    2.800    0.000    1.800    0.000    4.000 
#    0.000    4.000    0.000    1.200    0.000    1.400 
#    0.000    0.000    0.000    0.000    0.000    0.000 
#
# Total GULP energy -495987.662773 kJ/mol
# GULP energy per Si atom -12399.691569 kJ/mol
# Density = 1.798674 g / cm^3
# Si number density = 18.027769 Si / 1000 Ang^3
#
#
#
# Elastic Constant Matrix: (Units=GPa)
#
#
# Indices 1 2 3 4 5 6 
#
# 1 120.1335 70.6510 18.9354 0.0000 0.0000 -13.4681
# 2 70.6510 120.1335 18.9354 0.0000 0.0000 13.4681
# 3 18.9354 18.9354 19.9276 0.0000 0.0000 0.0000
# 4 0.0000 0.0000 0.0000 21.3948 0.0000 0.0000
# 5 0.0000 0.0000 0.0000 0.0000 21.3948 0.0000
# 6 -13.4681 13.4681 0.0000 0.0000 0.0000 33.4768
#
#
#
# Elastic Compliance Matrix: (Units=1/GPa)
#
#
# Indices 1 2 3 4 5 6 
#
# 1 0.016168 -0.009708 -0.006138 0.000000 0.000000 0.010410
# 2 -0.009708 0.016168 -0.006138 0.000000 0.000000 -0.010410
# 3 -0.006138 -0.006138 0.061847 0.000000 0.000000 0.000000
# 4 0.000000 0.000000 0.000000 0.046740 0.000000 0.000000
# 5 0.000000 0.000000 0.000000 0.000000 0.046740 0.000000
# 6 0.010410 -0.010410 0.000000 0.000000 0.000000 0.038248
#
#
# Mechanical properties :
#
#
# Convention : Reuss Voigt Hill
#
# Bulk Modulus (GPa) = 19.91493 53.02644 36.47069
# Shear Modulus (GPa) = 17.44480 25.36482 21.40481
#
# Velocity S-wave (km/s) = 3.11410 3.75505 3.44950
# Velocity P-wave (km/s) = 4.89908 6.94825 6.01162
#
# Compressibility (1/GPa) = 0.05021359
#
# Stress axis : x y z
#
# Youngs Moduli (GPa) = 61.85054 61.85054 16.16897
#
# Poissons Ratio (x) = 0.60045 0.09925
# Poissons Ratio (y) = 0.60045 0.09925
# Poissons Ratio (z) = 0.37966 0.37966
#
# Static dielectric constant tensor:
#      x y z
#    x 3.509890 0.000000 0.000000 
#    y 0.000000 3.509890 0.000000 
#    z 0.000000 0.000000 3.127960 
# 
# 
# High freq. dielectric constant tensor:
#      x y z
#    x 1.701960 0.000000 0.000000 
#    y 0.000000 1.701960 0.000000 
#    z 0.000000 0.000000 1.680240 
# 
# From -- ./inp_files/651.got.cif
#   From: 2010.03.12/outbox.cif.g09.slc.cpg/sg83_1_cif.got.tgz:651.got - 2010.04.08 20:05:18.
