data_PCOD8302037
_publ_section_title
;
Structure prediction by ZEFSAII (Michael W. Deem and Ramdas Pophale) SiO2 
 PCOD8302037
Probable space group: P 43
;
_chemical_formula_sum "Si O2"
_cell_formula_units_Z 32
_cell_length_a 7.490960
_cell_length_b 7.490960
_cell_length_c 25.708523
_cell_angle_alpha 90.000000
_cell_angle_beta 90.000000
_cell_angle_gamma 90.000000
_cell_volume 1442.620444
_symmetry_space_group_name_H-M "P 43"
_symmetry_group_IT_number 78
_symmetry_cell_setting 'tetragonal'
loop_
_space_group_symop_operation_xyz
x,y,z
-y,x,3/4+z
-x,-y,1/2+z
y,-x,1/4+z
loop_
_atom_site_type_symbol
_atom_site_label
_atom_site_fract_x
_atom_site_fract_y
_atom_site_fract_z
Si Si1 0.539636 0.720245 0.359340
Si Si2 0.141495 0.747937 0.384170
Si Si3 0.086478 0.005021 0.591372
Si Si4 0.173732 0.511849 0.997554
Si Si5 0.007758 0.130825 0.985415
Si Si6 0.396815 0.481491 0.676520
Si Si7 0.707194 0.037911 0.413750
Si Si8 0.377211 0.888457 0.667458
O O1 0.331937 0.761549 0.358833
O O2 0.607904 0.783597 0.302662
O O3 0.564479 0.509302 0.373392
O O4 0.628133 0.842842 0.403476
O O5 0.057794 0.548869 0.382261
O O6 0.142471 0.815496 0.443813
O O7 0.014895 0.874321 0.350774
O O8 0.207050 0.878875 0.628946
O O9 0.110349 0.965508 0.530471
O O10 0.124528 0.205211 0.611137
O O11 0.102540 0.310880 0.005970
O O12 0.365625 0.504173 0.970036
O O13 0.034123 0.635068 0.964222
O O14 0.149010 0.990806 0.960218
O O15 0.413241 0.690915 0.690529
O O16 0.185868 0.439946 0.676815
#
# Coordination Sequence:
#
# PCOD8302037 Si02
#       8
#     4   4   4   4   4   4   4   4
#     4  11  23  42  66  97 134 179 222 278 345 404
#     4   9  21  41  63  94 128 172 224 276 331 404
#     4  11  21  41  69  94 131 177 223 278 339 402
#     4  11  22  45  70  94 136 181 224 283 344 405
#     4  10  22  42  68  94 133 184 223 280 348 404
#     4  11  24  44  65 101 138 172 223 288 336 409
#     4  11  24  40  67  96 141 174 225 283 341 406
#     4  10  23  43  68  96 137 171 226 286 332 404
#
# _framework density 22.181854000000001
#
# number of rings (size 3 to 8) (size 9 to 14) (size 15 to 20)
#    0.000    1.500    3.750    0.750    1.750    1.000 
#   13.500    1.250    0.000    0.000    0.000    0.000 
#    0.000    0.000    0.000    0.000    0.000    0.000 
#
# Total GULP energy -396463.830086 kJ/mol
# GULP energy per Si atom -12389.494690 kJ/mol
# Density = 2.213137 g / cm^3
# Si number density = 22.181854 Si / 1000 Ang^3
#
#
#
# Elastic Constant Matrix: (Units=GPa)
#
#
# Indices 1 2 3 4 5 6 
#
# 1 79.1580 19.0078 23.4280 0.0000 0.0000 6.5001
# 2 19.0078 79.1580 23.4280 0.0000 0.0000 -6.5001
# 3 23.4280 23.4280 107.3872 0.0000 0.0000 0.0000
# 4 0.0000 0.0000 0.0000 28.2708 0.0000 0.0000
# 5 0.0000 0.0000 0.0000 0.0000 28.2708 0.0000
# 6 6.5001 -6.5001 0.0000 0.0000 0.0000 30.2769
#
#
#
# Elastic Compliance Matrix: (Units=1/GPa)
#
#
# Indices 1 2 3 4 5 6 
#
# 1 0.014402 -0.003032 -0.002481 0.000000 0.000000 -0.003743
# 2 -0.003032 0.014402 -0.002481 0.000000 0.000000 0.003743
# 3 -0.002481 -0.002481 0.010395 0.000000 0.000000 0.000000
# 4 0.000000 0.000000 0.000000 0.035372 0.000000 0.000000
# 5 0.000000 0.000000 0.000000 0.000000 0.035372 0.000000
# 6 -0.003743 0.003743 0.000000 0.000000 0.000000 0.034636
#
#
# Mechanical properties :
#
#
# Convention : Reuss Voigt Hill
#
# Bulk Modulus (GPa) = 43.07844 44.15899 43.61871
# Shear Modulus (GPa) = 29.70832 30.68634 30.19733
#
# Velocity S-wave (km/s) = 3.66363 3.72344 3.69365
# Velocity P-wave (km/s) = 6.11220 6.19970 6.15610
#
# Compressibility (1/GPa) = 0.02321347
#
# Stress axis : x y z
#
# Youngs Moduli (GPa) = 69.43258 69.43258 96.20459
#
# Poissons Ratio (x) = 0.21049 0.23866
# Poissons Ratio (y) = 0.21049 0.23866
# Poissons Ratio (z) = 0.17224 0.17224
#
# Static dielectric constant tensor:
#      x y z
#    x 4.051340 0.000000 0.000000 
#    y 0.000000 4.051340 0.000000 
#    z 0.000000 0.000000 3.926380 
# 
# 
# High freq. dielectric constant tensor:
#      x y z
#    x 1.874510 0.000000 0.000000 
#    y 0.000000 1.874510 0.000000 
#    z 0.000000 0.000000 1.853860 
# 
# From -- ./inp_files/1604.got.cif
#   From: 2010.03.12/outbox.cif.g09.slc.cpg/sg78_cif.got.tgz:1604.got - 2010.04.16 16:37:20.
