data_PCOD8302683
_publ_section_title
;
Structure prediction by ZEFSAII (Michael W. Deem and Ramdas Pophale) SiO2 
 PCOD8302683
Probable space group: P 4/M
;
_chemical_formula_sum "Si O2"
_cell_formula_units_Z 52
_cell_length_a 18.356515
_cell_length_b 18.356515
_cell_length_c 8.245732
_cell_angle_alpha 90.000000
_cell_angle_beta 90.000000
_cell_angle_gamma 90.000000
_cell_volume 2778.495402
_symmetry_space_group_name_H-M "P 4/M"
_symmetry_group_IT_number 83
_symmetry_cell_setting 'tetragonal'
loop_
_space_group_symop_operation_xyz
x,y,z
-y,x,z
-x,-y,z
y,-x,z
-x,-y,-z
y,-x,-z
x,y,-z
-y,x,-z
loop_
_atom_site_type_symbol
_atom_site_label
_atom_site_fract_x
_atom_site_fract_y
_atom_site_fract_z
Si Si1 0.492062 0.243617 0.309705
Si Si2 0.834788 0.633506 0.192715
Si Si3 0.869821 0.364130 0.316496
Si Si4 0.566186 0.401484 0.500000
Si Si5 0.579952 0.012834 0.812158
Si Si6 0.759395 0.260692 0.178839
Si Si7 0.644561 0.387876 0.821700
O O1 0.498869 0.262860 0.500000
O O2 0.570111 0.220618 0.242540
O O3 0.434341 0.179113 0.277744
O O4 0.464596 0.315501 0.216352
O O5 0.806052 0.712610 0.258022
O O6 0.915156 0.617478 0.265382
O O7 0.834227 0.638399 0.000000
O O8 0.895813 0.364543 0.500000
O O9 0.942991 0.368518 0.210219
O O10 0.828228 0.287581 0.284147
O O11 0.599695 0.480781 0.500000
O O12 0.592260 0.364581 0.670090
O O13 0.500000 0.000000 0.731959
O O14 0.568943 0.029618 0.000000
O O15 0.704987 0.327301 0.164202
O O16 0.788520 0.239418 0.000000
O O17 0.605128 0.394926 0.000000
#
# Coordination Sequence:
#
# PCOD8302683 Si02
#       7
#     8   8   8   4   8   8   8
#     4  10  19  31  49  75 103 134 170 216 263 314
#     4  10  20  33  51  78 104 133 177 220 259 313
#     4  10  20  33  50  71 104 142 176 209 259 319
#     4  11  26  42  52  68  94 121 167 227 275 327
#     4  10  19  32  52  76 108 142 172 213 264 318
#     4   9  20  35  52  74  99 131 174 218 259 311
#     4  10  21  37  57  73  93 129 170 216 273 325
#
# _framework density 18.715166
#
# number of rings (size 3 to 8) (size 9 to 14) (size 15 to 20)
#    0.000    2.077    2.308    0.923    3.231    3.385 
#    0.000    0.769    0.000    0.000    0.000    0.000 
#    0.000    0.615    0.000    7.077    0.000    2.769 
#
# Total GULP energy -644398.736979 kJ/mol
# GULP energy per Si atom -12392.283403 kJ/mol
# Density = 1.867257 g / cm^3
# Si number density = 18.715166 Si / 1000 Ang^3
#
#
#
# Elastic Constant Matrix: (Units=GPa)
#
#
# Indices 1 2 3 4 5 6 
#
# 1 68.1895 18.4106 9.6281 0.0000 0.0000 -0.4963
# 2 18.4106 68.1895 9.6281 0.0000 0.0000 0.4963
# 3 9.6281 9.6281 67.2288 0.0000 0.0000 0.0000
# 4 0.0000 0.0000 0.0000 19.9334 0.0000 0.0000
# 5 0.0000 0.0000 0.0000 0.0000 19.9334 0.0000
# 6 -0.4963 0.4963 0.0000 0.0000 0.0000 26.4063
#
#
#
# Elastic Compliance Matrix: (Units=1/GPa)
#
#
# Indices 1 2 3 4 5 6 
#
# 1 0.016012 -0.004085 -0.001708 0.000000 0.000000 0.000378
# 2 -0.004085 0.016012 -0.001708 0.000000 0.000000 -0.000378
# 3 -0.001708 -0.001708 0.015364 0.000000 0.000000 0.000000
# 4 0.000000 0.000000 0.000000 0.050167 0.000000 0.000000
# 5 0.000000 0.000000 0.000000 0.000000 0.050167 0.000000
# 6 0.000378 -0.000378 0.000000 0.000000 0.000000 0.037884
#
#
# Mechanical properties :
#
#
# Convention : Reuss Voigt Hill
#
# Bulk Modulus (GPa) = 30.87795 30.99351 30.93573
# Shear Modulus (GPa) = 23.65156 24.31733 23.98444
#
# Velocity S-wave (km/s) = 3.55880 3.60854 3.58376
# Velocity P-wave (km/s) = 5.78113 5.82741 5.80432
#
# Compressibility (1/GPa) = 0.03238557
#
# Stress axis : x y z
#
# Youngs Moduli (GPa) = 62.45406 62.45406 65.08791
#
# Poissons Ratio (x) = 0.25510 0.11118
# Poissons Ratio (y) = 0.25510 0.11118
# Poissons Ratio (z) = 0.10668 0.10668
#
# Static dielectric constant tensor:
#      x y z
#    x 3.487010 0.000000 0.000000 
#    y 0.000000 3.487010 0.000000 
#    z 0.000000 0.000000 3.668910 
# 
# 
# High freq. dielectric constant tensor:
#      x y z
#    x 1.701780 0.000000 0.000000 
#    y 0.000000 1.701780 0.000000 
#    z 0.000000 0.000000 1.727380 
# 
# From -- ./inp_files/1034.got.cif
#   From: 2010.03.12/outbox.cif.g09.slc.cpg/sg83_1_cif.got.tgz:1034.got - 2010.04.08 20:05:18.
