data_PCOD8302905
_publ_section_title
;
Structure prediction by ZEFSAII (Michael W. Deem and Ramdas Pophale) SiO2 
 PCOD8302905
Probable space group: P 4/M
;
_chemical_formula_sum "Si O2"
_cell_formula_units_Z 40
_cell_length_a 15.731250
_cell_length_b 15.731250
_cell_length_c 9.005080
_cell_angle_alpha 90.000000
_cell_angle_beta 90.000000
_cell_angle_gamma 90.000000
_cell_volume 2228.507198
_symmetry_space_group_name_H-M "P 4/M"
_symmetry_group_IT_number 83
_symmetry_cell_setting 'tetragonal'
loop_
_space_group_symop_operation_xyz
x,y,z
-y,x,z
-x,-y,z
y,-x,z
-x,-y,-z
y,-x,-z
x,y,-z
-y,x,-z
loop_
_atom_site_type_symbol
_atom_site_label
_atom_site_fract_x
_atom_site_fract_y
_atom_site_fract_z
Si Si1 0.431326 0.926219 0.663261
Si Si2 0.956420 0.126326 0.323453
Si Si3 0.634985 0.467576 0.329404
Si Si4 0.448108 0.189873 0.174679
Si Si5 0.069782 0.686341 0.676380
O O1 0.417798 0.884892 0.500000
O O2 0.462708 0.852811 0.774109
O O3 0.500000 0.000000 0.652071
O O4 0.346010 0.974214 0.718489
O O5 0.958571 0.128615 0.500000
O O6 0.924108 0.217171 0.263980
O O7 0.052336 0.106703 0.266469
O O8 0.600751 0.561758 0.295875
O O9 0.664720 0.460751 0.500000
O O10 0.712440 0.446528 0.221738
O O11 0.367309 0.143117 0.245248
O O12 0.441388 0.182339 0.000000
O O13 0.083645 0.678198 0.500000
#
# Coordination Sequence:
#
# PCOD8302905 Si02
#       5
#     8   8   8   8   8
#     4   8  15  29  48  69  98 134 172 212 250 294
#     4   8  14  27  49  76 103 129 164 213 263 302
#     4   9  19  38  61  79  97 128 170 211 252 302
#     4  11  21  32  50  76 108 138 167 206 255 308
#     4   9  17  31  51  75 104 135 174 218 257 299
#
# _framework density 17.949234000000001
#
# number of rings (size 3 to 8) (size 9 to 14) (size 15 to 20)
#    0.000    3.000    0.000    4.200    0.000    4.400 
#    3.600    1.000    0.000    1.200    0.000    1.400 
#    0.000    0.000    0.000    0.000    0.000    0.000 
#
# Total GULP energy -495758.340941 kJ/mol
# GULP energy per Si atom -12393.958524 kJ/mol
# Density = 1.790838 g / cm^3
# Si number density = 17.949234 Si / 1000 Ang^3
#
#
#
# Elastic Constant Matrix: (Units=GPa)
#
#
# Indices 1 2 3 4 5 6 
#
# 1 108.3386 45.8087 44.4874 0.0000 0.0000 -1.3858
# 2 45.8087 108.3386 44.4874 0.0000 0.0000 1.3858
# 3 44.4874 44.4874 72.3916 0.0000 0.0000 0.0000
# 4 0.0000 0.0000 0.0000 4.3271 0.0000 0.0000
# 5 0.0000 0.0000 0.0000 0.0000 4.3271 0.0000
# 6 -1.3858 1.3858 0.0000 0.0000 0.0000 16.8499
#
#
#
# Elastic Compliance Matrix: (Units=1/GPa)
#
#
# Indices 1 2 3 4 5 6 
#
# 1 0.013052 -0.002999 -0.006178 0.000000 0.000000 0.001320
# 2 -0.002999 0.013052 -0.006178 0.000000 0.000000 -0.001320
# 3 -0.006178 -0.006178 0.021407 0.000000 0.000000 0.000000
# 4 0.000000 0.000000 0.000000 0.231099 0.000000 0.000000
# 5 0.000000 0.000000 0.000000 0.000000 0.231099 0.000000
# 6 0.001320 -0.001320 0.000000 0.000000 0.000000 0.059565
#
#
# Mechanical properties :
#
#
# Convention : Reuss Voigt Hill
#
# Bulk Modulus (GPa) = 59.51941 62.07064 60.79503
# Shear Modulus (GPa) = 8.25648 15.38653 11.82151
#
# Velocity S-wave (km/s) = 2.14707 2.93102 2.56912
# Velocity P-wave (km/s) = 6.27522 6.79049 6.53793
#
# Compressibility (1/GPa) = 0.01680124
#
# Stress axis : x y z
#
# Youngs Moduli (GPa) = 76.61586 76.61586 46.71328
#
# Poissons Ratio (x) = 0.22975 0.28860
# Poissons Ratio (y) = 0.22975 0.28860
# Poissons Ratio (z) = 0.47335 0.47335
#
# Static dielectric constant tensor:
#      x y z
#    x 3.520600 0.000000 0.000000 
#    y 0.000000 3.520600 0.000000 
#    z 0.000000 0.000000 2.979790 
# 
# 
# High freq. dielectric constant tensor:
#      x y z
#    x 1.690150 0.000000 0.000000 
#    y 0.000000 1.690150 0.000000 
#    z 0.000000 0.000000 1.660010 
# 
# From -- ./inp_files/629.got.cif
#   From: 2010.03.12/outbox.cif.g09.slc.cpg/sg83_1_cif.got.tgz:629.got - 2010.04.08 20:05:18.
