data_PCOD8302900
_publ_section_title
;
Structure prediction by ZEFSAII (Michael W. Deem and Ramdas Pophale) SiO2 
 PCOD8302900
Probable space group: P 4/M
;
_chemical_formula_sum "Si O2"
_cell_formula_units_Z 48
_cell_length_a 11.559456
_cell_length_b 11.559456
_cell_length_c 19.460037
_cell_angle_alpha 90.000000
_cell_angle_beta 90.000000
_cell_angle_gamma 90.000000
_cell_volume 2600.270052
_symmetry_space_group_name_H-M "P 4/M"
_symmetry_group_IT_number 83
_symmetry_cell_setting 'tetragonal'
loop_
_space_group_symop_operation_xyz
x,y,z
-y,x,z
-x,-y,z
y,-x,z
-x,-y,-z
y,-x,-z
x,y,-z
-y,x,-z
loop_
_atom_site_type_symbol
_atom_site_label
_atom_site_fract_x
_atom_site_fract_y
_atom_site_fract_z
Si Si1 0.312805 0.488740 0.728772
Si Si2 0.803611 0.637515 0.922926
Si Si3 0.636785 0.005069 0.180282
Si Si4 0.397798 0.916976 0.328051
Si Si5 0.946051 0.821504 0.580861
Si Si6 0.593103 0.769592 0.133731
O O1 0.392759 0.378633 0.712570
O O2 0.203185 0.465938 0.681061
O O3 0.274464 0.502661 0.807811
O O4 0.903290 0.690619 0.873470
O O5 0.809544 0.497187 0.925048
O O6 0.676877 0.673022 0.896062
O O7 0.824138 0.684458 0.000000
O O8 0.666551 0.040828 0.258219
O O9 0.500000 0.000000 0.173033
O O10 0.675885 0.874225 0.161627
O O11 0.297703 0.907385 0.384198
O O12 0.500000 0.000000 0.353746
O O13 0.939949 0.801649 0.500000
O O14 0.076275 0.857715 0.602580
#
# Coordination Sequence:
#
# PCOD8302900 Si02
#       6
#     8   8   8   8   8   8
#     4  11  21  35  56  80 118 156 184 234 299 355
#     4  11  22  33  50  74 103 142 186 236 291 346
#     4   9  19  35  51  75 105 140 180 233 283 335
#     4  11  20  34  61  91 114 151 202 242 287 353
#     4   9  21  41  63  90 125 160 194 241 295 339
#     4  11  19  35  52  73 104 140 186 235 286 348
#
# _framework density 18.459620999999999
#
# number of rings (size 3 to 8) (size 9 to 14) (size 15 to 20)
#    0.000    1.667    6.667    1.000    2.333    5.667 
#    0.000    0.833    0.000    0.500    0.000    2.333 
#    0.000    0.000    0.000    0.000    0.000    0.000 
#
# Total GULP energy -594852.186031 kJ/mol
# GULP energy per Si atom -12392.753876 kJ/mol
# Density = 1.841761 g / cm^3
# Si number density = 18.459621 Si / 1000 Ang^3
#
#
#
# Elastic Constant Matrix: (Units=GPa)
#
#
# Indices 1 2 3 4 5 6 
#
# 1 84.3146 26.9558 32.6866 0.0000 0.0000 -6.4781
# 2 26.9558 84.3146 32.6866 0.0000 0.0000 6.4781
# 3 32.6866 32.6866 65.9171 0.0000 0.0000 0.0000
# 4 0.0000 0.0000 0.0000 22.9303 0.0000 0.0000
# 5 0.0000 0.0000 0.0000 0.0000 22.9303 0.0000
# 6 -6.4781 6.4781 0.0000 0.0000 0.0000 16.2544
#
#
#
# Elastic Compliance Matrix: (Units=1/GPa)
#
#
# Indices 1 2 3 4 5 6 
#
# 1 0.015920 -0.003239 -0.006289 0.000000 0.000000 0.007636
# 2 -0.003239 0.015920 -0.006289 0.000000 0.000000 -0.007636
# 3 -0.006289 -0.006289 0.021407 0.000000 0.000000 0.000000
# 4 0.000000 0.000000 0.000000 0.043610 0.000000 0.000000
# 5 0.000000 0.000000 0.000000 0.000000 0.043610 0.000000
# 6 0.007636 -0.007636 0.000000 0.000000 0.000000 0.067608
#
#
# Mechanical properties :
#
#
# Convention : Reuss Voigt Hill
#
# Bulk Modulus (GPa) = 46.26093 46.57827 46.41960
# Shear Modulus (GPa) = 20.24998 21.90415 21.07706
#
# Velocity S-wave (km/s) = 3.31567 3.44844 3.38271
# Velocity P-wave (km/s) = 6.30661 6.41428 6.36067
#
# Compressibility (1/GPa) = 0.02161651
#
# Stress axis : x y z
#
# Youngs Moduli (GPa) = 62.81285 62.81285 46.71315
#
# Poissons Ratio (x) = 0.20342 0.29376
# Poissons Ratio (y) = 0.20342 0.29376
# Poissons Ratio (z) = 0.39500 0.39500
#
# Static dielectric constant tensor:
#      x y z
#    x 3.479280 0.000000 0.000000 
#    y 0.000000 3.479280 0.000000 
#    z 0.000000 0.000000 3.240010 
# 
# 
# High freq. dielectric constant tensor:
#      x y z
#    x 1.708510 0.000000 0.000000 
#    y 0.000000 1.708510 0.000000 
#    z 0.000000 0.000000 1.694190 
# 
# From -- ./inp_files/2630.got.cif
#   From: 2010.03.12/outbox.cif.g09.slc.cpg/sg83_2_cif.got.tgz:2630.got - 2010.04.08 20:05:18.
