data_PCOD8302691
_publ_section_title
;
Structure prediction by ZEFSAII (Michael W. Deem and Ramdas Pophale) SiO2 
 PCOD8302691
Probable space group: P 4/M
;
_chemical_formula_sum "Si O2"
_cell_formula_units_Z 64
_cell_length_a 20.069668
_cell_length_b 20.069668
_cell_length_c 8.653995
_cell_angle_alpha 90.000000
_cell_angle_beta 90.000000
_cell_angle_gamma 90.000000
_cell_volume 3485.756264
_symmetry_space_group_name_H-M "P 4/M"
_symmetry_group_IT_number 83
_symmetry_cell_setting 'tetragonal'
loop_
_space_group_symop_operation_xyz
x,y,z
-y,x,z
-x,-y,z
y,-x,z
-x,-y,-z
y,-x,-z
x,y,-z
-y,x,-z
loop_
_atom_site_type_symbol
_atom_site_label
_atom_site_fract_x
_atom_site_fract_y
_atom_site_fract_z
Si Si1 0.348875 0.076092 0.682655
Si Si2 0.798352 0.683592 0.178519
Si Si3 0.417753 0.568607 0.822147
Si Si4 0.769324 0.538500 0.178311
Si Si5 0.499925 0.903014 0.321020
Si Si6 0.634822 0.058985 0.816673
Si Si7 0.207691 0.696368 0.816111
Si Si8 0.709267 0.420205 0.320888
O O1 0.341586 0.082636 0.500000
O O2 0.425302 0.083838 0.739355
O O3 0.299882 0.131012 0.760630
O O4 0.325711 0.003034 0.740877
O O5 0.753641 0.616843 0.204966
O O6 0.872671 0.669816 0.246931
O O7 0.758927 0.747731 0.248768
O O8 0.807980 0.698665 0.000000
O O9 0.408805 0.491111 0.781931
O O10 0.364670 0.608293 0.715291
O O11 0.401642 0.584326 0.000000
O O12 0.826119 0.514849 0.294819
O O13 0.708859 0.490700 0.226333
O O14 0.790895 0.527930 0.000000
O O15 0.494003 0.922122 0.500000
O O16 0.443356 0.945249 0.231597
O O17 0.639219 0.055379 0.000000
O O18 0.234825 0.628348 0.744169
O O19 0.211978 0.692979 0.000000
O O20 0.722287 0.431111 0.500000
#
# Coordination Sequence:
#
# PCOD8302691 Si02
#       8
#     8   8   8   8   8   8   8   8
#     4  11  22  35  51  78 113 142 175 221 270 321
#     4   8  19  37  56  79 102 131 178 227 262 304
#     4   9  20  39  58  71  85 116 167 223 276 331
#     4  10  19  34  54  73  97 134 180 220 257 313
#     4  10  19  32  49  73 108 140 169 217 267 306
#     4  10  20  35  56  79 105 140 184 222 259 320
#     4  11  22  38  58  77 103 142 182 223 268 315
#     4  12  24  35  48  74 104 132 166 215 274 329
#
# _framework density 18.360434999999999
#
# number of rings (size 3 to 8) (size 9 to 14) (size 15 to 20)
#    0.000    1.875    1.250    4.500    1.750    3.500 
#    0.000    7.500    0.000    0.000    0.000    0.000 
#    0.000    0.500    0.000    5.750    0.000    2.250 
#
# Total GULP energy -793115.701352 kJ/mol
# GULP energy per Si atom -12392.432834 kJ/mol
# Density = 1.831865 g / cm^3
# Si number density = 18.360435 Si / 1000 Ang^3
#
#
#
# Elastic Constant Matrix: (Units=GPa)
#
#
# Indices 1 2 3 4 5 6 
#
# 1 76.3817 48.6445 23.0916 0.0000 0.0000 8.7275
# 2 48.6445 76.3817 23.0916 0.0000 0.0000 -8.7275
# 3 23.0916 23.0916 58.6133 0.0000 0.0000 0.0000
# 4 0.0000 0.0000 0.0000 16.1402 0.0000 0.0000
# 5 0.0000 0.0000 0.0000 0.0000 16.1402 0.0000
# 6 8.7275 -8.7275 0.0000 0.0000 0.0000 15.9181
#
#
#
# Elastic Compliance Matrix: (Units=1/GPa)
#
#
# Indices 1 2 3 4 5 6 
#
# 1 0.032203 -0.022842 -0.003688 0.000000 0.000000 -0.030180
# 2 -0.022842 0.032203 -0.003688 0.000000 0.000000 0.030180
# 3 -0.003688 -0.003688 0.019967 0.000000 0.000000 0.000000
# 4 0.000000 0.000000 0.000000 0.061957 0.000000 0.000000
# 5 0.000000 0.000000 0.000000 0.000000 0.061957 0.000000
# 6 -0.030180 0.030180 0.000000 0.000000 0.000000 0.095916
#
#
# Mechanical properties :
#
#
# Convention : Reuss Voigt Hill
#
# Bulk Modulus (GPa) = 41.77666 44.55913 43.16790
# Shear Modulus (GPa) = 13.41864 17.40961 15.41412
#
# Velocity S-wave (km/s) = 2.70635 3.08265 2.90061
# Velocity P-wave (km/s) = 5.70691 6.08211 5.89749
#
# Compressibility (1/GPa) = 0.02393681
#
# Stress axis : x y z
#
# Youngs Moduli (GPa) = 31.05332 31.05332 50.08350
#
# Poissons Ratio (x) = 0.70932 0.18469
# Poissons Ratio (y) = 0.70932 0.18469
# Poissons Ratio (z) = 0.11452 0.11452
#
# Static dielectric constant tensor:
#      x y z
#    x 3.470020 0.000000 0.000000 
#    y 0.000000 3.470020 0.000000 
#    z 0.000000 0.000000 3.205590 
# 
# 
# High freq. dielectric constant tensor:
#      x y z
#    x 1.693390 0.000000 0.000000 
#    y 0.000000 1.693390 0.000000 
#    z 0.000000 0.000000 1.704370 
# 
# From -- ./inp_files/1270.got.cif
#   From: 2010.03.12/outbox.cif.g09.slc.cpg/sg83_1_cif.got.tgz:1270.got - 2010.04.08 20:05:18.
