data_PCOD8302674
_publ_section_title
;
Structure prediction by ZEFSAII (Michael W. Deem and Ramdas Pophale) SiO2 
 PCOD8302674
Probable space group: P 4/M
;
_chemical_formula_sum "Si O2"
_cell_formula_units_Z 48
_cell_length_a 15.308066
_cell_length_b 15.308066
_cell_length_c 13.618758
_cell_angle_alpha 90.000000
_cell_angle_beta 90.000000
_cell_angle_gamma 90.000000
_cell_volume 3191.377323
_symmetry_space_group_name_H-M "P 4/M"
_symmetry_group_IT_number 83
_symmetry_cell_setting 'tetragonal'
loop_
_space_group_symop_operation_xyz
x,y,z
-y,x,z
-x,-y,z
y,-x,z
-x,-y,-z
y,-x,-z
x,y,-z
-y,x,-z
loop_
_atom_site_type_symbol
_atom_site_label
_atom_site_fract_x
_atom_site_fract_y
_atom_site_fract_z
Si Si1 0.532322 0.749967 0.616593
Si Si2 0.760606 0.976622 0.698083
Si Si3 0.141660 0.025130 0.890048
Si Si4 0.658417 0.295099 0.617013
Si Si5 0.840085 0.804735 0.614390
Si Si6 0.416519 0.059726 0.387638
O O1 0.525046 0.749903 0.500000
O O2 0.607474 0.683769 0.653172
O O3 0.437780 0.724363 0.660694
O O4 0.558793 0.845574 0.653693
O O5 0.780596 0.959516 0.812728
O O6 0.797141 0.898683 0.631198
O O7 0.657075 0.982287 0.681388
O O8 0.804437 0.067422 0.668154
O O9 0.069340 0.099172 0.873505
O O10 0.180616 0.032000 0.000000
O O11 0.658705 0.292298 0.500000
O O12 0.728411 0.223796 0.655842
O O13 0.856419 0.789601 0.500000
O O14 0.382346 0.064811 0.500000
O O15 0.500000 0.000000 0.380216
#
# Coordination Sequence:
#
# PCOD8302674 Si02
#       6
#     8   8   8   8   8   8
#     4   9  16  27  42  58  82 118 158 197 230 260
#     4  12  20  31  48  68  92 124 158 196 233 279
#     4   9  18  34  51  67  89 118 156 200 243 290
#     4   9  17  29  42  59  85 119 159 198 228 261
#     4  11  21  30  41  64  98 128 154 189 228 274
#     4  10  19  31  45  64  94 133 167 186 218 286
#
# _framework density 15.040527000000001
#
# number of rings (size 3 to 8) (size 9 to 14) (size 15 to 20)
#    0.000    2.000    3.333    3.000    0.000    3.333 
#    0.000    2.500    0.000    0.500    0.000    0.000 
#    0.000    0.000    0.000    0.000    0.000    2.333 
#
# Total GULP energy -595152.010466 kJ/mol
# GULP energy per Si atom -12399.000218 kJ/mol
# Density = 1.500629 g / cm^3
# Si number density = 15.040527 Si / 1000 Ang^3
#
#
#
# Elastic Constant Matrix: (Units=GPa)
#
#
# Indices 1 2 3 4 5 6 
#
# 1 89.5235 21.0976 21.5759 0.0000 0.0000 5.0069
# 2 21.0976 89.5235 21.5759 0.0000 0.0000 -5.0069
# 3 21.5759 21.5759 54.0156 0.0000 0.0000 0.0000
# 4 0.0000 0.0000 0.0000 10.8491 0.0000 0.0000
# 5 0.0000 0.0000 0.0000 0.0000 10.8491 0.0000
# 6 5.0069 -5.0069 0.0000 0.0000 0.0000 22.5499
#
#
#
# Elastic Compliance Matrix: (Units=1/GPa)
#
#
# Indices 1 2 3 4 5 6 
#
# 1 0.012907 -0.002198 -0.004277 0.000000 0.000000 -0.003354
# 2 -0.002198 0.012907 -0.004277 0.000000 0.000000 0.003354
# 3 -0.004277 -0.004277 0.021930 0.000000 0.000000 0.000000
# 4 0.000000 0.000000 0.000000 0.092174 0.000000 0.000000
# 5 0.000000 0.000000 0.000000 0.000000 0.092174 0.000000
# 6 -0.003354 0.003354 0.000000 0.000000 0.000000 0.045835
#
#
# Mechanical properties :
#
#
# Convention : Reuss Voigt Hill
#
# Bulk Modulus (GPa) = 38.11313 40.17348 39.14331
# Shear Modulus (GPa) = 16.22437 20.10384 18.16410
#
# Velocity S-wave (km/s) = 3.28794 3.65998 3.47894
# Velocity P-wave (km/s) = 6.30946 6.68048 6.49762
#
# Compressibility (1/GPa) = 0.02623767
#
# Stress axis : x y z
#
# Youngs Moduli (GPa) = 77.47861 77.47861 45.59911
#
# Poissons Ratio (x) = 0.17033 0.19504
# Poissons Ratio (y) = 0.17033 0.19504
# Poissons Ratio (z) = 0.33140 0.33140
#
# Static dielectric constant tensor:
#      x y z
#    x 3.029740 0.000000 0.000000 
#    y 0.000000 3.029740 0.000000 
#    z 0.000000 0.000000 2.506610 
# 
# 
# High freq. dielectric constant tensor:
#      x y z
#    x 1.583880 0.000000 0.000000 
#    y 0.000000 1.583880 0.000000 
#    z 0.000000 0.000000 1.512370 
# 
# From -- ./inp_files/1809.got.cif
#   From: 2010.03.12/outbox.cif.g09.slc.cpg/sg83_1_cif.got.tgz:1809.got - 2010.04.08 20:05:18.
