data_PCOD8302850
_publ_section_title
;
Structure prediction by ZEFSAII (Michael W. Deem and Ramdas Pophale) SiO2 
 PCOD8302850
Probable space group: P 4/M
;
_chemical_formula_sum "Si O2"
_cell_formula_units_Z 52
_cell_length_a 16.574475
_cell_length_b 16.574475
_cell_length_c 9.442207
_cell_angle_alpha 90.000000
_cell_angle_beta 90.000000
_cell_angle_gamma 90.000000
_cell_volume 2593.899103
_symmetry_space_group_name_H-M "P 4/M"
_symmetry_group_IT_number 83
_symmetry_cell_setting 'tetragonal'
loop_
_space_group_symop_operation_xyz
x,y,z
-y,x,z
-x,-y,z
y,-x,z
-x,-y,-z
y,-x,-z
x,y,-z
-y,x,-z
loop_
_atom_site_type_symbol
_atom_site_label
_atom_site_fract_x
_atom_site_fract_y
_atom_site_fract_z
Si Si1 0.371920 0.930669 0.163587
Si Si2 0.491014 0.632381 0.663355
Si Si3 0.384873 0.088398 0.330652
Si Si4 0.081676 0.794386 0.652683
Si Si5 0.092478 0.905504 0.000000
Si Si6 0.502494 0.794834 0.835377
Si Si7 0.807155 0.087724 0.253832
O O1 0.424011 0.850568 0.174662
O O2 0.287233 0.904108 0.230908
O O3 0.410410 0.003367 0.256255
O O4 0.362531 0.959163 0.000000
O O5 0.415282 0.573964 0.693356
O O6 0.489180 0.661777 0.500000
O O7 0.483667 0.707601 0.769485
O O8 0.401708 0.084756 0.500000
O O9 0.292572 0.106748 0.286654
O O10 0.429868 0.163120 0.259772
O O11 0.042857 0.775026 0.500000
O O12 0.158026 0.854239 0.623608
O O13 0.005772 0.833454 0.736332
O O14 0.139195 0.867949 0.132490
O O15 0.999791 0.885974 0.000000
O O16 0.529241 0.785673 0.000000
#
# Coordination Sequence:
#
# PCOD8302850 Si02
#       7
#     8   8   8   8   4   8   8
#     4  10  22  38  58  82 115 154 194 239 291 348
#     4   9  20  41  67  92 119 153 190 231 286 349
#     4  10  22  40  60  83 113 153 199 245 295 345
#     4  10  22  37  54  78 110 148 191 240 289 339
#     4  11  20  32  52  82 107 143 203 238 279 347
#     4  11  23  39  60  91 122 151 190 235 286 351
#     4  11  20  36  55  77 110 151 191 236 288 342
#
# _framework density 20.047041
#
# number of rings (size 3 to 8) (size 9 to 14) (size 15 to 20)
#    0.000    1.769    2.308    2.308    0.000    5.846 
#    1.385    4.615    0.000    0.000    0.000    0.000 
#    0.000    0.000    0.000    0.000    0.000    0.000 
#
# Total GULP energy -644291.219936 kJ/mol
# GULP energy per Si atom -12390.215768 kJ/mol
# Density = 2.000141 g / cm^3
# Si number density = 20.047041 Si / 1000 Ang^3
#
#
#
# Elastic Constant Matrix: (Units=GPa)
#
#
# Indices 1 2 3 4 5 6 
#
# 1 85.6943 42.8555 38.0633 0.0000 0.0000 1.3085
# 2 42.8555 85.6943 38.0633 0.0000 0.0000 -1.3085
# 3 38.0633 38.0633 109.0436 0.0000 0.0000 0.0000
# 4 0.0000 0.0000 0.0000 28.9221 0.0000 0.0000
# 5 0.0000 0.0000 0.0000 0.0000 28.9221 0.0000
# 6 1.3085 -1.3085 0.0000 0.0000 0.0000 27.3930
#
#
#
# Elastic Compliance Matrix: (Units=1/GPa)
#
#
# Indices 1 2 3 4 5 6 
#
# 1 0.016609 -0.006803 -0.003423 0.000000 0.000000 -0.001118
# 2 -0.006803 0.016609 -0.003423 0.000000 0.000000 0.001118
# 3 -0.003423 -0.003423 0.011560 0.000000 0.000000 0.000000
# 4 0.000000 0.000000 0.000000 0.034576 0.000000 0.000000
# 5 0.000000 0.000000 0.000000 0.000000 0.034576 0.000000
# 6 -0.001118 0.001118 0.000000 0.000000 0.000000 0.036612
#
#
# Mechanical properties :
#
#
# Convention : Reuss Voigt Hill
#
# Bulk Modulus (GPa) = 57.20594 57.59963 57.40279
# Shear Modulus (GPa) = 27.22332 27.81080 27.51706
#
# Velocity S-wave (km/s) = 3.68906 3.72866 3.70891
# Velocity P-wave (km/s) = 6.83691 6.87981 6.85840
#
# Compressibility (1/GPa) = 0.01748070
#
# Stress axis : x y z
#
# Youngs Moduli (GPa) = 60.20872 60.20872 86.50265
#
# Poissons Ratio (x) = 0.40958 0.29610
# Poissons Ratio (y) = 0.40958 0.29610
# Poissons Ratio (z) = 0.20609 0.20609
#
# Static dielectric constant tensor:
#      x y z
#    x 3.506620 0.000000 0.000000 
#    y 0.000000 3.506620 0.000000 
#    z 0.000000 0.000000 3.828160 
# 
# 
# High freq. dielectric constant tensor:
#      x y z
#    x 1.776860 0.000000 0.000000 
#    y 0.000000 1.776860 0.000000 
#    z 0.000000 0.000000 1.799770 
# 
# From -- ./inp_files/957.got.cif
#   From: 2010.03.12/outbox.cif.g09.slc.cpg/sg83_1_cif.got.tgz:957.got - 2010.04.08 20:05:18.
