data_PCOD8302424
_publ_section_title
;
Structure prediction by ZEFSAII (Michael W. Deem and Ramdas Pophale) SiO2 
 PCOD8302424
Probable space group: I -4 
;
_chemical_formula_sum "Si O2"
_cell_formula_units_Z 48
_cell_length_a 8.198041
_cell_length_b 8.198041
_cell_length_c 33.670383
_cell_angle_alpha 90.000000
_cell_angle_beta 90.000000
_cell_angle_gamma 90.000000
_cell_volume 2262.914934
_symmetry_space_group_name_H-M "I -4 "
_symmetry_group_IT_number 82
_symmetry_cell_setting 'tetragonal'
loop_
_space_group_symop_operation_xyz
x,y,z
y,-x,-z
-x,-y,z
-y,x,-z
1/2+x,1/2+y,1/2+z
1/2+y,1/2-x,1/2-z
1/2-x,1/2-y,1/2+z
1/2-y,1/2+x,1/2-z
loop_
_atom_site_type_symbol
_atom_site_label
_atom_site_fract_x
_atom_site_fract_y
_atom_site_fract_z
Si Si1 0.752728 0.765575 0.338312
Si Si2 0.500000 0.000000 0.125246
Si Si3 0.739522 0.384222 0.006440
Si Si4 0.247494 0.099517 0.919522
Si Si5 0.500000 0.500000 0.200152
Si Si6 0.744951 0.903791 0.757672
Si Si7 0.108573 0.760896 0.931500
O O1 0.598764 0.878746 0.346829
O O2 0.801485 0.653823 0.375668
O O3 0.705151 0.648517 0.301892
O O4 0.906805 0.876190 0.328223
O O5 0.607245 0.875204 0.098411
O O6 0.828006 0.378499 0.049320
O O7 0.569389 0.287541 0.007020
O O8 0.860956 0.298904 0.975873
O O9 0.073889 0.173398 0.930887
O O10 0.237516 0.902668 0.919962
O O11 0.398148 0.375955 0.228353
O O12 0.595192 0.798002 0.741252
#
# Coordination Sequence:
#
# PCOD8302424 Si02
#       7
#     8   4   8   8   4   8   8
#     4  10  22  39  60  88 121 154 200 250 301 365
#     4  10  22  38  61  90 120 152 194 256 305 346
#     4  11  23  38  57  84 120 159 202 249 295 351
#     4  10  22  38  60  87 114 156 200 244 302 357
#     4  10  22  38  62  88 119 156 195 250 300 358
#     4   9  20  40  61  84 117 159 198 241 305 376
#     4  10  21  39  59  83 119 157 196 242 297 363
#
# _framework density 21.211580000000001
#
# number of rings (size 3 to 8) (size 9 to 14) (size 15 to 20)
#    0.000    2.000    0.000    3.000    0.000   12.667 
#    0.000    5.000    0.000    0.000    0.000    0.000 
#    0.000    0.000    0.000    0.000    0.000    0.000 
#
# Total GULP energy -297671.536939 kJ/mol
# GULP energy per Si atom -12402.980706 kJ/mol
# Density = 2.116330 g / cm^3
# Si number density = 21.211580 Si / 1000 Ang^3
#
#
#
# Elastic Constant Matrix: (Units=GPa)
#
#
# Indices 1 2 3 4 5 6 
#
# 1 85.5984 25.8261 56.3855 0.0000 0.0000 -4.8438
# 2 25.8261 85.5983 56.3855 -0.0001 0.0000 4.8438
# 3 56.3855 56.3855 171.4329 0.0000 0.0000 0.0000
# 4 0.0000 -0.0001 0.0000 34.4385 0.0000 0.0000
# 5 0.0000 0.0000 0.0000 0.0000 34.4386 0.0000
# 6 -4.8438 4.8438 0.0000 0.0000 0.0000 22.0130
#
#
#
# Elastic Compliance Matrix: (Units=1/GPa)
#
#
# Indices 1 2 3 4 5 6 
#
# 1 0.015401 -0.001948 -0.004425 0.000000 0.000000 0.003817
# 2 -0.001948 0.015401 -0.004425 0.000000 0.000000 -0.003817
# 3 -0.004425 -0.004425 0.008744 0.000000 0.000000 0.000000
# 4 0.000000 0.000000 0.000000 0.029037 0.000000 0.000000
# 5 0.000000 0.000000 0.000000 0.000000 0.029037 0.000000
# 6 0.003817 -0.003817 0.000000 0.000000 0.000000 0.047108
#
#
# Mechanical properties :
#
#
# Convention : Reuss Voigt Hill
#
# Bulk Modulus (GPa) = 55.70827 68.86931 62.28879
# Shear Modulus (GPa) = 29.01807 31.78018 30.39913
#
# Velocity S-wave (km/s) = 3.70270 3.87492 3.78979
# Velocity P-wave (km/s) = 6.67833 7.24971 6.96988
#
# Compressibility (1/GPa) = 0.01795066
#
# Stress axis : x y z
#
# Youngs Moduli (GPa) = 64.93128 64.93125 114.36594
#
# Poissons Ratio (x) = 0.12648 0.50604
# Poissons Ratio (y) = 0.12648 0.50604
# Poissons Ratio (z) = 0.28731 0.28731
#
# Static dielectric constant tensor:
#      x y z
#    x 3.907730 0.000000 0.000000 
#    y 0.000000 3.907730 0.000000 
#    z 0.000000 0.000000 3.952500 
# 
# 
# High freq. dielectric constant tensor:
#      x y z
#    x 1.831830 0.000000 0.000000 
#    y 0.000000 1.831830 0.000000 
#    z 0.000000 0.000000 1.835200 
# 
# From -- ./inp_files/4070.got.cif
#   From: 2010.03.12/outbox.cif.g09.slc.cpg/sg82_3_cif.got.tgz:4070.got - 2010.04.08 20:02:50.
