data_PCOD8302488
_publ_section_title
;
Structure prediction by ZEFSAII (Michael W. Deem and Ramdas Pophale) SiO2 
 PCOD8302488
Probable space group: I -4 
;
_chemical_formula_sum "Si O2"
_cell_formula_units_Z 36
_cell_length_a 8.933226
_cell_length_b 8.933226
_cell_length_c 22.147655
_cell_angle_alpha 90.000000
_cell_angle_beta 90.000000
_cell_angle_gamma 90.000000
_cell_volume 1767.438831
_symmetry_space_group_name_H-M "I -4 "
_symmetry_group_IT_number 82
_symmetry_cell_setting 'tetragonal'
loop_
_space_group_symop_operation_xyz
x,y,z
y,-x,-z
-x,-y,z
-y,x,-z
1/2+x,1/2+y,1/2+z
1/2+y,1/2-x,1/2-z
1/2-x,1/2-y,1/2+z
1/2-y,1/2+x,1/2-z
loop_
_atom_site_type_symbol
_atom_site_label
_atom_site_fract_x
_atom_site_fract_y
_atom_site_fract_z
Si Si1 0.762292 0.510207 0.740529
Si Si2 0.486710 0.670611 0.390444
Si Si3 0.827172 0.808086 0.585183
Si Si4 0.000000 0.000000 0.327956
Si Si5 0.641687 0.910654 0.472645
O O1 0.850821 0.373027 0.771467
O O2 0.696748 0.451860 0.676999
O O3 0.632301 0.562028 0.785702
O O4 0.500000 0.500000 0.410494
O O5 0.310859 0.709524 0.389237
O O6 0.583938 0.763304 0.438509
O O7 0.761131 0.873421 0.523652
O O8 0.859776 0.943527 0.631504
O O9 0.985254 0.724815 0.575733
O O10 0.500000 0.000000 0.500759
#
# Coordination Sequence:
#
# PCOD8302488 Si02
#       5
#     8   8   8   4   8
#     4  11  23  42  67  95 129 173 223 274 329 403
#     4  11  24  40  65 100 134 171 220 276 337 397
#     4  11  23  42  65  98 130 178 219 275 332 397
#     4  12  22  41  70  96 133 172 224 278 332 398
#     4  10  24  41  66  98 131 175 222 271 334 399
#
# _framework density 20.368456999999999
#
# number of rings (size 3 to 8) (size 9 to 14) (size 15 to 20)
#    0.000    1.111    3.333    2.667   12.444    0.000 
#    0.000    0.000    0.000    0.000    0.000    0.000 
#    0.000    0.000    0.000    0.000    0.000    0.000 
#
# Total GULP energy -223277.302532 kJ/mol
# GULP energy per Si atom -12404.294585 kJ/mol
# Density = 2.032210 g / cm^3
# Si number density = 20.368457 Si / 1000 Ang^3
#
#
#
# Elastic Constant Matrix: (Units=GPa)
#
#
# Indices 1 2 3 4 5 6 
#
# 1 130.3138 53.4092 42.5461 0.0000 0.0000 -4.2831
# 2 53.4092 130.3138 42.5461 0.0000 0.0000 4.2831
# 3 42.5461 42.5461 94.6508 0.0000 0.0000 0.0000
# 4 0.0000 0.0000 0.0000 36.9549 0.0000 0.0000
# 5 0.0000 0.0000 0.0000 0.0000 36.9549 0.0000
# 6 -4.2831 4.2831 0.0000 0.0000 0.0000 28.3892
#
#
#
# Elastic Compliance Matrix: (Units=1/GPa)
#
#
# Indices 1 2 3 4 5 6 
#
# 1 0.010050 -0.003176 -0.003090 0.000000 0.000000 0.001995
# 2 -0.003176 0.010050 -0.003090 0.000000 0.000000 -0.001995
# 3 -0.003090 -0.003090 0.013343 0.000000 0.000000 0.000000
# 4 0.000000 0.000000 0.000000 0.027060 0.000000 0.000000
# 5 0.000000 0.000000 0.000000 0.000000 0.027060 0.000000
# 6 0.001995 -0.001995 0.000000 0.000000 0.000000 0.035827
#
#
# Mechanical properties :
#
#
# Convention : Reuss Voigt Hill
#
# Bulk Modulus (GPa) = 67.88197 70.25348 69.06772
# Shear Modulus (GPa) = 34.01108 34.91159 34.46133
#
# Velocity S-wave (km/s) = 4.09074 4.14454 4.11773
# Velocity P-wave (km/s) = 7.46402 7.58084 7.52266
#
# Compressibility (1/GPa) = 0.01473145
#
# Stress axis : x y z
#
# Youngs Moduli (GPa) = 99.50505 99.50506 74.94539
#
# Poissons Ratio (x) = 0.31599 0.23158
# Poissons Ratio (y) = 0.31599 0.23158
# Poissons Ratio (z) = 0.30747 0.30747
#
# Static dielectric constant tensor:
#      x y z
#    x 3.738740 0.000000 0.000000 
#    y 0.000000 3.738740 0.000000 
#    z 0.000000 0.000000 3.626270 
# 
# 
# High freq. dielectric constant tensor:
#      x y z
#    x 1.793640 0.000000 0.000000 
#    y 0.000000 1.793640 0.000000 
#    z 0.000000 0.000000 1.803310 
# 
# From -- ./inp_files/2947.got.cif
#   From: 2010.03.12/outbox.cif.g09.slc.cpg/sg82_2_cif.got.tgz:2947.got - 2010.04.08 20:02:50.
