data_PCOD8302513
_publ_section_title
;
Structure prediction by ZEFSAII (Michael W. Deem and Ramdas Pophale) SiO2 
 PCOD8302513
Probable space group: I -4 
;
_chemical_formula_sum "Si O2"
_cell_formula_units_Z 36
_cell_length_a 10.126778
_cell_length_b 10.126778
_cell_length_c 17.930213
_cell_angle_alpha 90.000000
_cell_angle_beta 90.000000
_cell_angle_gamma 90.000000
_cell_volume 1838.772617
_symmetry_space_group_name_H-M "I -4 "
_symmetry_group_IT_number 82
_symmetry_cell_setting 'tetragonal'
loop_
_space_group_symop_operation_xyz
x,y,z
y,-x,-z
-x,-y,z
-y,x,-z
1/2+x,1/2+y,1/2+z
1/2+y,1/2-x,1/2-z
1/2-x,1/2-y,1/2+z
1/2-y,1/2+x,1/2-z
loop_
_atom_site_type_symbol
_atom_site_label
_atom_site_fract_x
_atom_site_fract_y
_atom_site_fract_z
Si Si1 0.703085 0.134448 0.960363
Si Si2 0.015401 0.152473 0.765846
Si Si3 0.813777 0.324348 0.849369
Si Si4 0.000000 0.500000 0.946528
Si Si5 0.132671 0.086390 0.910624
O O1 0.706302 0.261015 0.905927
O O2 0.738930 0.006705 0.910498
O O3 0.813791 0.150971 0.022613
O O4 0.562611 0.113649 0.000393
O O5 0.063112 0.239492 0.696673
O O6 0.124695 0.161770 0.831628
O O7 0.876875 0.212187 0.795930
O O8 0.000000 0.000000 0.740685
O O9 0.933761 0.388537 0.895555
O O10 0.000000 0.000000 0.920309
#
# Coordination Sequence:
#
# PCOD8302513 Si02
#       5
#     8   8   8   4   8
#     4  12  20  39  65  94 120 157 211 260 299 366
#     4  11  23  42  66  90 124 166 205 257 307 368
#     4  12  24  42  65  94 126 161 211 254 309 371
#     4  12  24  39  66  97 122 162 210 258 308 363
#     4  11  16  37  70  88 112 157 214 259 298 361
#
# _framework density 19.578278999999998
#
# number of rings (size 3 to 8) (size 9 to 14) (size 15 to 20)
#    0.000    0.444   11.111    1.333    0.000    0.000 
#    8.000    0.000    0.000    0.000    0.000    0.000 
#    0.000    0.000    0.000    0.000    0.000    0.000 
#
# Total GULP energy -223156.201575 kJ/mol
# GULP energy per Si atom -12397.566754 kJ/mol
# Density = 1.953372 g / cm^3
# Si number density = 19.578279 Si / 1000 Ang^3
#
#
#
# Elastic Constant Matrix: (Units=GPa)
#
#
# Indices 1 2 3 4 5 6 
#
# 1 74.7840 23.6530 31.6965 0.0000 0.0000 -0.3661
# 2 23.6530 74.7840 31.6965 0.0000 0.0000 0.3661
# 3 31.6965 31.6965 98.9255 0.0000 0.0000 0.0000
# 4 0.0000 0.0000 0.0000 32.7426 0.0000 0.0000
# 5 0.0000 0.0000 0.0000 0.0000 32.7426 0.0000
# 6 -0.3661 0.3661 0.0000 0.0000 0.0000 31.8946
#
#
#
# Elastic Compliance Matrix: (Units=1/GPa)
#
#
# Indices 1 2 3 4 5 6 
#
# 1 0.016180 -0.003380 -0.004101 0.000000 0.000000 0.000225
# 2 -0.003380 0.016180 -0.004101 0.000000 0.000000 -0.000225
# 3 -0.004101 -0.004101 0.012737 0.000000 0.000000 0.000000
# 4 0.000000 0.000000 0.000000 0.030541 0.000000 0.000000
# 5 0.000000 0.000000 0.000000 0.000000 0.030541 0.000000
# 6 0.000225 -0.000225 0.000000 0.000000 0.000000 0.031358
#
#
# Mechanical properties :
#
#
# Convention : Reuss Voigt Hill
#
# Bulk Modulus (GPa) = 45.59586 46.95392 46.27489
# Shear Modulus (GPa) = 29.75930 30.23913 29.99922
#
# Velocity S-wave (km/s) = 3.90297 3.93431 3.91867
# Velocity P-wave (km/s) = 6.60685 6.68379 6.64543
#
# Compressibility (1/GPa) = 0.02193182
#
# Stress axis : x y z
#
# Youngs Moduli (GPa) = 61.80324 61.80324 78.51307
#
# Poissons Ratio (x) = 0.20892 0.32200
# Poissons Ratio (y) = 0.20892 0.32200
# Poissons Ratio (z) = 0.25347 0.25347
#
# Static dielectric constant tensor:
#      x y z
#    x 3.483480 0.000000 0.000000 
#    y 0.000000 3.483480 0.000000 
#    z 0.000000 0.000000 3.845940 
# 
# 
# High freq. dielectric constant tensor:
#      x y z
#    x 1.744060 0.000000 0.000000 
#    y 0.000000 1.744060 0.000000 
#    z 0.000000 0.000000 1.768250 
# 
# From -- ./inp_files/2142.got.cif
#   From: 2010.03.12/outbox.cif.g09.slc.cpg/sg82_2_cif.got.tgz:2142.got - 2010.04.08 20:02:50.
