data_PCOD8302580
_publ_section_title
;
Structure prediction by ZEFSAII (Michael W. Deem and Ramdas Pophale) SiO2 
 PCOD8302580
Probable space group: I -4 
;
_chemical_formula_sum "Si O2"
_cell_formula_units_Z 26
_cell_length_a 10.693094
_cell_length_b 10.693094
_cell_length_c 10.201307
_cell_angle_alpha 90.000000
_cell_angle_beta 90.000000
_cell_angle_gamma 90.000000
_cell_volume 1166.440490
_symmetry_space_group_name_H-M "I -4 "
_symmetry_group_IT_number 82
_symmetry_cell_setting 'tetragonal'
loop_
_space_group_symop_operation_xyz
x,y,z
y,-x,-z
-x,-y,z
-y,x,-z
1/2+x,1/2+y,1/2+z
1/2+y,1/2-x,1/2-z
1/2-x,1/2-y,1/2+z
1/2-y,1/2+x,1/2-z
loop_
_atom_site_type_symbol
_atom_site_label
_atom_site_fract_x
_atom_site_fract_y
_atom_site_fract_z
Si Si1 0.357325 0.456016 0.658967
Si Si2 0.951379 0.182471 0.548606
Si Si3 0.500000 0.000000 0.750000
Si Si4 0.199205 0.590156 0.438034
O O1 0.500000 0.500000 0.634430
O O2 0.308477 0.496634 0.801334
O O3 0.264260 0.515200 0.554384
O O4 0.343904 0.306580 0.647462
O O5 0.897208 0.311870 0.498496
O O6 0.071909 0.150954 0.460253
O O7 0.498771 0.876730 0.658681
#
# Coordination Sequence:
#
# PCOD8302580 Si02
#       4
#     8   8   2   8
#     4  12  25  47  74 108 149 198 244 294 380 441
#     4  11  26  45  75 105 145 194 243 302 373 444
#     4  12  32  48  74 108 148 196 256 310 380 416
#     4  12  28  46  75 106 147 191 248 313 361 444
#
# _framework density 22.290037000000002
#
# number of rings (size 3 to 8) (size 9 to 14) (size 15 to 20)
#    0.000    0.308    6.154    1.846   12.923    0.000 
#    0.000    0.000    0.000    0.000    0.000    0.000 
#    0.000    0.000    0.000    0.000    0.000    0.000 
#
# Total GULP energy -161271.943640 kJ/mol
# GULP energy per Si atom -12405.534126 kJ/mol
# Density = 2.223930 g / cm^3
# Si number density = 22.290037 Si / 1000 Ang^3
#
#
#
# Elastic Constant Matrix: (Units=GPa)
#
#
# Indices 1 2 3 4 5 6 
#
# 1 95.9187 23.2520 41.6828 0.0000 0.0000 12.8087
# 2 23.2520 95.9187 41.6828 0.0000 0.0000 -12.8087
# 3 41.6828 41.6828 145.0299 0.0000 0.0000 0.0000
# 4 0.0000 0.0000 0.0000 37.9190 0.0000 0.0000
# 5 0.0000 0.0000 0.0000 0.0000 37.9190 0.0000
# 6 12.8087 -12.8087 0.0000 0.0000 0.0000 41.2502
#
#
#
# Elastic Compliance Matrix: (Units=1/GPa)
#
#
# Indices 1 2 3 4 5 6 
#
# 1 0.012978 -0.002475 -0.003019 0.000000 0.000000 -0.004798
# 2 -0.002475 0.012978 -0.003019 0.000000 0.000000 0.004798
# 3 -0.003019 -0.003019 0.008630 0.000000 0.000000 0.000000
# 4 0.000000 0.000000 0.000000 0.026372 0.000000 0.000000
# 5 0.000000 0.000000 0.000000 0.000000 0.026372 0.000000
# 6 -0.004798 0.004798 0.000000 0.000000 0.000000 0.027222
#
#
# Mechanical properties :
#
#
# Convention : Reuss Voigt Hill
#
# Bulk Modulus (GPa) = 56.94205 61.12251 59.03228
# Shear Modulus (GPa) = 36.38186 38.76763 37.57475
#
# Velocity S-wave (km/s) = 4.04444 4.17494 4.11021
# Velocity P-wave (km/s) = 6.88559 7.12188 7.00473
#
# Compressibility (1/GPa) = 0.01756171
#
# Stress axis : x y z
#
# Youngs Moduli (GPa) = 77.05327 77.05327 115.87079
#
# Poissons Ratio (x) = 0.19071 0.34977
# Poissons Ratio (y) = 0.19071 0.34977
# Poissons Ratio (z) = 0.23260 0.23260
#
# Static dielectric constant tensor:
#      x y z
#    x 3.988940 0.000000 0.000000 
#    y 0.000000 3.988940 0.000000 
#    z 0.000000 0.000000 4.277260 
# 
# 
# High freq. dielectric constant tensor:
#      x y z
#    x 1.874000 0.000000 0.000000 
#    y 0.000000 1.874000 0.000000 
#    z 0.000000 0.000000 1.901050 
# 
# From -- ./inp_files/607.got.cif
#   From: 2010.03.12/outbox.cif.g09.slc.cpg/sg82_1_cif.got.tgz:607.got - 2010.04.08 20:02:50.
