data_PCOD8302751
_publ_section_title
;
Structure prediction by ZEFSAII (Michael W. Deem and Ramdas Pophale) SiO2 
 PCOD8302751
Probable space group: P 4/M
;
_chemical_formula_sum "Si O2"
_cell_formula_units_Z 56
_cell_length_a 21.623156
_cell_length_b 21.623156
_cell_length_c 8.904509
_cell_angle_alpha 90.000000
_cell_angle_beta 90.000000
_cell_angle_gamma 90.000000
_cell_volume 4163.400023
_symmetry_space_group_name_H-M "P 4/M"
_symmetry_group_IT_number 83
_symmetry_cell_setting 'tetragonal'
loop_
_space_group_symop_operation_xyz
x,y,z
-y,x,z
-x,-y,z
y,-x,z
-x,-y,-z
y,-x,-z
x,y,-z
-y,x,-z
loop_
_atom_site_type_symbol
_atom_site_label
_atom_site_fract_x
_atom_site_fract_y
_atom_site_fract_z
Si Si1 0.384387 0.082235 0.332489
Si Si2 0.847822 0.148951 0.673720
Si Si3 0.909657 0.257540 0.177124
Si Si4 0.947132 0.753394 0.177144
Si Si5 0.926320 0.505651 0.830623
Si Si6 0.936767 0.626745 0.332384
Si Si7 0.944098 0.083861 0.165124
O O1 0.381221 0.110653 0.500000
O O2 0.325774 0.104231 0.237422
O O3 0.446974 0.104881 0.251434
O O4 0.385877 0.008918 0.342660
O O5 0.831039 0.156446 0.500000
O O6 0.854251 0.215878 0.752384
O O7 0.802514 0.099776 0.750723
O O8 0.917176 0.123121 0.698366
O O9 0.980248 0.235621 0.221181
O O10 0.902489 0.258386 0.000000
O O11 0.923629 0.687075 0.233524
O O12 0.939378 0.756777 0.000000
O O13 0.904522 0.567805 0.745569
O O14 0.000000 0.500000 0.830533
O O15 0.901110 0.508328 0.000000
O O16 0.909373 0.635871 0.500000
O O17 0.016615 0.084613 0.179162
O O18 0.925850 0.111495 0.000000
#
# Coordination Sequence:
#
# PCOD8302751 Si02
#       7
#     8   8   8   8   8   8   8
#     4   9  16  26  40  58  78  96 115 142 175 209
#     4  12  23  31  41  56  72  90 114 146 184 223
#     4  10  20  33  46  57  71  93 120 149 183 225
#     4  10  20  33  46  57  71  93 120 149 183 225
#     4   9  15  23  37  57  79 101 121 137 161 204
#     4   9  16  26  40  58  78  96 115 142 175 209
#     4   9  18  32  46  56  66  82 106 138 178 224
#
# _framework density 13.450544000000001
#
# number of rings (size 3 to 8) (size 9 to 14) (size 15 to 20)
#    0.000    2.286    0.000    4.714    0.000   10.857 
#    0.000    0.714    0.000    0.000    0.000    0.000 
#    0.000    0.000    0.000    0.000    0.000    0.000 
#
# Total GULP energy -693947.572051 kJ/mol
# GULP energy per Si atom -12391.920929 kJ/mol
# Density = 1.341993 g / cm^3
# Si number density = 13.450544 Si / 1000 Ang^3
#
#
#
# Elastic Constant Matrix: (Units=GPa)
#
#
# Indices 1 2 3 4 5 6 
#
# 1 44.1978 20.7766 29.5716 0.0000 0.0000 -3.3000
# 2 20.7766 44.1978 29.5716 0.0000 0.0000 3.3000
# 3 29.5716 29.5716 95.4592 0.0000 0.0000 0.0000
# 4 0.0000 0.0000 0.0000 17.6444 0.0000 0.0000
# 5 0.0000 0.0000 0.0000 0.0000 17.6444 0.0000
# 6 -3.3000 3.3000 0.0000 0.0000 0.0000 5.2111
#
#
#
# Elastic Compliance Matrix: (Units=1/GPa)
#
#
# Indices 1 2 3 4 5 6 
#
# 1 0.036703 -0.015268 -0.006640 0.000000 0.000000 0.032912
# 2 -0.015268 0.036703 -0.006640 0.000000 0.000000 -0.032912
# 3 -0.006640 -0.006640 0.014590 0.000000 0.000000 0.000000
# 4 0.000000 0.000000 0.000000 0.056675 0.000000 0.000000
# 5 0.000000 0.000000 0.000000 0.000000 0.056675 0.000000
# 6 0.032912 -0.032912 0.000000 0.000000 0.000000 0.233582
#
#
# Mechanical properties :
#
#
# Convention : Reuss Voigt Hill
#
# Bulk Modulus (GPa) = 32.36368 38.18828 35.27598
# Shear Modulus (GPa) = 9.95374 15.02898 12.49136
#
# Velocity S-wave (km/s) = 2.72329 3.34631 3.05074
# Velocity P-wave (km/s) = 5.83111 6.58662 6.22035
#
# Compressibility (1/GPa) = 0.03089884
#
# Stress axis : x y z
#
# Youngs Moduli (GPa) = 27.24584 27.24584 68.54162
#
# Poissons Ratio (x) = 0.41599 0.45513
# Poissons Ratio (y) = 0.41599 0.45513
# Poissons Ratio (z) = 0.18092 0.18092
#
# Static dielectric constant tensor:
#      x y z
#    x 2.556870 0.000000 0.000000 
#    y 0.000000 2.556870 0.000000 
#    z 0.000000 0.000000 2.889410 
# 
# 
# High freq. dielectric constant tensor:
#      x y z
#    x 1.475910 0.000000 0.000000 
#    y 0.000000 1.475910 0.000000 
#    z 0.000000 0.000000 1.530670 
# 
# From -- ./inp_files/1207.got.cif
#   From: 2010.03.12/outbox.cif.g09.slc.cpg/sg83_1_cif.got.tgz:1207.got - 2010.04.08 20:05:18.
