data_PCOD8302587
_publ_section_title
;
Structure prediction by ZEFSAII (Michael W. Deem and Ramdas Pophale) SiO2 
 PCOD8302587
Probable space group: I -4 
;
_chemical_formula_sum "Si O2"
_cell_formula_units_Z 36
_cell_length_a 12.895581
_cell_length_b 12.895581
_cell_length_c 9.582833
_cell_angle_alpha 90.000000
_cell_angle_beta 90.000000
_cell_angle_gamma 90.000000
_cell_volume 1593.586886
_symmetry_space_group_name_H-M "I -4 "
_symmetry_group_IT_number 82
_symmetry_cell_setting 'tetragonal'
loop_
_space_group_symop_operation_xyz
x,y,z
y,-x,-z
-x,-y,z
-y,x,-z
1/2+x,1/2+y,1/2+z
1/2+y,1/2-x,1/2-z
1/2-x,1/2-y,1/2+z
1/2-y,1/2+x,1/2-z
loop_
_atom_site_type_symbol
_atom_site_label
_atom_site_fract_x
_atom_site_fract_y
_atom_site_fract_z
Si Si1 0.500000 0.000000 0.250000
Si Si2 0.555388 0.317995 0.830485
Si Si3 0.855101 0.903694 0.181905
Si Si4 0.000000 0.000000 0.500000
Si Si5 0.129806 0.189105 0.899684
Si Si6 0.180316 0.418470 0.909336
O O1 0.504682 0.898296 0.150824
O O2 0.454051 0.339902 0.737667
O O3 0.576882 0.426293 0.912467
O O4 0.653198 0.295494 0.728530
O O5 0.546286 0.221544 0.938022
O O6 0.774760 0.900343 0.306499
O O7 0.872235 0.022147 0.130711
O O8 0.816375 0.844994 0.043787
O O9 0.114750 0.312004 0.911110
#
# Coordination Sequence:
#
# PCOD8302587 Si02
#       6
#     2   8   8   2   8   8
#     4  12  28  52  68  98 152 212 252 302 392 472
#     4  12  23  41  72 109 145 183 249 312 371 445
#     4  12  24  42  74 108 143 188 242 308 377 444
#     4  12  20  36  70 112 136 172 238 312 356 424
#     4  12  24  44  71 109 148 186 236 312 381 446
#     4  12  27  47  72 101 147 204 246 302 380 470
#
# _framework density 22.590547999999998
#
# number of rings (size 3 to 8) (size 9 to 14) (size 15 to 20)
#    0.000    0.000    8.889    1.333    0.000    1.778 
#    0.000    0.000    0.000    1.333    0.000    0.000 
#    0.000    0.000    0.000    0.000    0.000    0.000 
#
# Total GULP energy -223104.867321 kJ/mol
# GULP energy per Si atom -12394.714851 kJ/mol
# Density = 2.253913 g / cm^3
# Si number density = 22.590548 Si / 1000 Ang^3
#
#
#
# Elastic Constant Matrix: (Units=GPa)
#
#
# Indices 1 2 3 4 5 6 
#
# 1 72.7602 5.1435 32.2419 0.0000 0.0000 -4.1527
# 2 5.1435 72.7602 32.2419 0.0000 0.0000 4.1527
# 3 32.2419 32.2419 149.4859 0.0000 0.0000 0.0000
# 4 0.0000 0.0000 0.0000 30.0189 0.0000 0.0000
# 5 0.0000 0.0000 0.0000 0.0000 30.0189 0.0000
# 6 -4.1527 4.1527 0.0000 0.0000 0.0000 26.0973
#
#
#
# Elastic Compliance Matrix: (Units=1/GPa)
#
#
# Indices 1 2 3 4 5 6 
#
# 1 0.015355 0.000271 -0.003370 0.000000 0.000000 0.002400
# 2 0.000271 0.015355 -0.003370 0.000000 0.000000 -0.002400
# 3 -0.003370 -0.003370 0.008143 0.000000 0.000000 0.000000
# 4 0.000000 0.000000 0.000000 0.033312 0.000000 0.000000
# 5 0.000000 0.000000 0.000000 0.000000 0.033312 0.000000
# 6 0.002400 -0.002400 0.000000 0.000000 0.000000 0.039082
#
#
# Mechanical properties :
#
#
# Convention : Reuss Voigt Hill
#
# Bulk Modulus (GPa) = 38.58864 48.25124 43.41994
# Shear Modulus (GPa) = 30.09554 32.25230 31.17392
#
# Velocity S-wave (km/s) = 3.65392 3.78258 3.71880
# Velocity P-wave (km/s) = 5.90934 6.36259 6.14015
#
# Compressibility (1/GPa) = 0.02591436
#
# Stress axis : x y z
#
# Youngs Moduli (GPa) = 65.12502 65.12502 122.79805
#
# Poissons Ratio (x) = -0.01765 0.41387
# Poissons Ratio (y) = -0.01765 0.41387
# Poissons Ratio (z) = 0.21949 0.21949
#
# Static dielectric constant tensor:
#      x y z
#    x 3.902670 0.000000 0.000000 
#    y 0.000000 3.902670 0.000000 
#    z 0.000000 0.000000 4.577480 
# 
# 
# High freq. dielectric constant tensor:
#      x y z
#    x 1.870590 0.000000 0.000000 
#    y 0.000000 1.870590 0.000000 
#    z 0.000000 0.000000 1.919960 
# 
# From -- ./inp_files/894.got.cif
#   From: 2010.03.12/outbox.cif.g09.slc.cpg/sg82_1_cif.got.tgz:894.got - 2010.04.08 20:02:50.
