data_PCOD8302089
_publ_section_title
;
Structure prediction by ZEFSAII (Michael W. Deem and Ramdas Pophale) SiO2 
 PCOD8302089
Probable space group: I 4
;
_chemical_formula_sum "Si O2"
_cell_formula_units_Z 56
_cell_length_a 11.225383
_cell_length_b 11.225383
_cell_length_c 21.903814
_cell_angle_alpha 90.000000
_cell_angle_beta 90.000000
_cell_angle_gamma 90.000000
_cell_volume 2760.082594
_symmetry_space_group_name_H-M "I 4"
_symmetry_group_IT_number 79
_symmetry_cell_setting 'tetragonal'
loop_
_space_group_symop_operation_xyz
x,y,z
-y,x,z
-x,-y,z
y,-x,z
1/2+x,1/2+y,1/2+z
1/2-y,1/2+x,1/2+z
1/2-x,1/2-y,1/2+z
1/2+y,1/2-x,1/2+z
loop_
_atom_site_type_symbol
_atom_site_label
_atom_site_fract_x
_atom_site_fract_y
_atom_site_fract_z
Si Si1 0.874460 0.722622 0.274190
Si Si2 0.736853 0.909554 0.353477
Si Si3 0.857478 0.490323 0.413153
Si Si4 0.538728 0.315872 0.984441
Si Si5 0.112290 0.572172 0.543762
Si Si6 0.315126 0.429673 0.320965
Si Si7 0.939222 0.813283 0.142228
O O1 0.823630 0.838028 0.308911
O O2 0.773983 0.618072 0.267901
O O3 0.920199 0.757827 0.208169
O O4 0.985795 0.675858 0.313580
O O5 0.634590 0.822568 0.380501
O O6 0.804414 0.965995 0.411168
O O7 0.830387 0.495780 0.485330
O O8 0.767924 0.587568 0.382406
O O9 0.000000 0.500000 0.403316
O O10 0.639305 0.409041 0.004730
O O11 0.561386 0.195899 0.020123
O O12 0.213103 0.593103 0.593356
O O13 0.000000 0.500000 0.571678
O O14 0.432468 0.349553 0.316527
O O15 0.075632 0.851537 0.133121
#
# Coordination Sequence:
#
# PCOD8302089 Si02
#       7
#     8   8   8   8   8   8   8
#     4  12  22  40  67  97 134 165 211 279 335 403
#     4  11  20  34  66 100 130 159 202 274 347 389
#     4  10  20  39  65  95 130 170 215 266 325 399
#     4  10  21  37  66 101 130 159 206 277 343 401
#     4  10  25  44  66  92 132 179 227 270 330 404
#     4  11  24  40  61  98 140 176 215 262 333 408
#     4  11  26  47  69  95 129 175 231 284 329 390
#
# _framework density 20.289245999999999
#
# number of rings (size 3 to 8) (size 9 to 14) (size 15 to 20)
#    0.000    1.286    5.714    0.000    2.000    1.429 
#    5.143    1.429    0.000    1.714    0.000    0.000 
#    0.000    0.000    0.000    0.000    0.000    0.000 
#
# Total GULP energy -346991.461106 kJ/mol
# GULP energy per Si atom -12392.552182 kJ/mol
# Density = 2.024307 g / cm^3
# Si number density = 20.289246 Si / 1000 Ang^3
#
#
#
# Elastic Constant Matrix: (Units=GPa)
#
#
# Indices 1 2 3 4 5 6 
#
# 1 100.3524 45.9856 47.1396 0.0000 0.0000 3.0426
# 2 45.9856 100.3524 47.1396 0.0000 0.0000 -3.0426
# 3 47.1396 47.1396 106.8287 0.0000 0.0000 0.0000
# 4 0.0000 0.0000 0.0000 26.6665 0.0000 0.0000
# 5 0.0000 0.0000 0.0000 0.0000 26.6665 0.0000
# 6 3.0426 -3.0426 0.0000 0.0000 0.0000 21.7428
#
#
#
# Elastic Compliance Matrix: (Units=1/GPa)
#
#
# Indices 1 2 3 4 5 6 
#
# 1 0.014117 -0.004569 -0.004213 0.000000 0.000000 -0.002615
# 2 -0.004569 0.014117 -0.004213 0.000000 0.000000 0.002615
# 3 -0.004213 -0.004213 0.013079 0.000000 0.000000 0.000000
# 4 0.000000 0.000000 0.000000 0.037500 0.000000 0.000000
# 5 0.000000 0.000000 0.000000 0.000000 0.037500 0.000000
# 6 -0.002615 0.002615 0.000000 0.000000 0.000000 0.046724
#
#
# Mechanical properties :
#
#
# Convention : Reuss Voigt Hill
#
# Bulk Modulus (GPa) = 65.26486 65.34033 65.30260
# Shear Modulus (GPa) = 25.75519 26.16643 25.96081
#
# Velocity S-wave (km/s) = 3.56673 3.59509 3.58094
# Velocity P-wave (km/s) = 7.01421 7.03614 7.02518
#
# Compressibility (1/GPa) = 0.01532218
#
# Stress axis : x y z
#
# Youngs Moduli (GPa) = 70.83641 70.83641 76.45874
#
# Poissons Ratio (x) = 0.32367 0.32213
# Poissons Ratio (y) = 0.32367 0.32213
# Poissons Ratio (z) = 0.29844 0.29844
#
# Static dielectric constant tensor:
#      x y z
#    x 3.807170 0.000000 0.000000 
#    y 0.000000 3.807170 0.000000 
#    z 0.000000 0.000000 3.498600 
# 
# 
# High freq. dielectric constant tensor:
#      x y z
#    x 1.803380 0.000000 0.000000 
#    y 0.000000 1.803380 0.000000 
#    z 0.000000 0.000000 1.763840 
# 
# From -- ./inp_files/1801.got.cif
#   From: 2010.03.12/outbox.cif.g09.slc.cpg/sg79_cif.got.tgz:1801.got - 2010.04.16 16:38:49.
