data_PCOD8302953
_publ_section_title
;
Structure prediction by ZEFSAII (Michael W. Deem and Ramdas Pophale) SiO2 
 PCOD8302953
Probable space group: P 4/M
;
_chemical_formula_sum "Si O2"
_cell_formula_units_Z 48
_cell_length_a 8.389222
_cell_length_b 8.389222
_cell_length_c 31.027727
_cell_angle_alpha 90.000000
_cell_angle_beta 90.000000
_cell_angle_gamma 90.000000
_cell_volume 2183.701819
_symmetry_space_group_name_H-M "P 4/M"
_symmetry_group_IT_number 83
_symmetry_cell_setting 'tetragonal'
loop_
_space_group_symop_operation_xyz
x,y,z
-y,x,z
-x,-y,z
y,-x,z
-x,-y,-z
y,-x,-z
x,y,-z
-y,x,-z
loop_
_atom_site_type_symbol
_atom_site_label
_atom_site_fract_x
_atom_site_fract_y
_atom_site_fract_z
Si Si1 0.905185 0.245467 0.250863
Si Si2 0.744620 0.402273 0.827524
Si Si3 0.761453 0.892068 0.000000
Si Si4 0.891290 0.242096 0.093093
Si Si5 0.596927 0.742461 0.425105
Si Si6 0.740705 0.398166 0.327471
Si Si7 0.248110 0.085351 0.500000
O O1 0.860669 0.361658 0.211862
O O2 0.878105 0.337129 0.295835
O O3 0.089426 0.203540 0.247828
O O4 0.704674 0.587313 0.824881
O O5 0.837124 0.369956 0.871889
O O6 0.676066 0.854329 0.045849
O O7 0.922369 0.794301 0.000000
O O8 0.078227 0.206224 0.098735
O O9 0.413436 0.702649 0.433753
O O10 0.624212 0.802194 0.376296
O O11 0.648445 0.882037 0.457299
O O12 0.704241 0.582476 0.318622
O O13 0.096969 0.200681 0.500000
#
# Coordination Sequence:
#
# PCOD8302953 Si02
#       7
#     8   8   4   8   8   8   4
#     4  11  24  39  56  81 110 139 174 217 264 315
#     4  11  24  39  54  75 105 141 180 221 265 313
#     4   7  12  26  50  79 108 136 168 211 260 309
#     4   9  17  32  56  83 108 136 174 218 263 313
#     4   9  19  37  60  83 107 139 181 224 264 313
#     4   9  19  37  60  85 111 139 174 217 264 315
#     4  11  24  37  50  76 114 149 182 225 272 314
#
# _framework density 21.981024000000001
#
# number of rings (size 3 to 8) (size 9 to 14) (size 15 to 20)
#    0.000    2.333    0.000    4.500    0.000   10.667 
#    0.000    5.833    0.000    4.000    0.000    0.000 
#    0.000    0.000    0.000    0.000    0.000    0.000 
#
# Total GULP energy -595141.928414 kJ/mol
# GULP energy per Si atom -12398.790175 kJ/mol
# Density = 2.193099 g / cm^3
# Si number density = 21.981024 Si / 1000 Ang^3
#
#
#
# Elastic Constant Matrix: (Units=GPa)
#
#
# Indices 1 2 3 4 5 6 
#
# 1 17.6090 -9.1676 7.9616 0.0000 0.0000 -1.5875
# 2 -9.1676 17.6090 7.9616 0.0000 0.0000 1.5875
# 3 7.9616 7.9616 143.6359 0.0000 0.0000 0.0000
# 4 0.0000 0.0000 0.0000 -3.0226 0.0000 0.0000
# 5 0.0000 0.0000 0.0000 0.0000 -3.0226 0.0000
# 6 -1.5875 1.5875 0.0000 0.0000 0.0000 32.2183
#
#
#
# Elastic Compliance Matrix: (Units=1/GPa)
#
#
# Indices 1 2 3 4 5 6 
#
# 1 0.084931 0.047366 -0.007333 0.000000 0.000000 0.001851
# 2 0.047366 0.084931 -0.007333 0.000000 0.000000 -0.001851
# 3 -0.007333 -0.007333 0.007775 0.000000 0.000000 0.000000
# 4 0.000000 0.000000 0.000000 -0.330846 0.000000 0.000000
# 5 0.000000 0.000000 0.000000 0.000000 -0.330846 0.000000
# 6 0.001851 -0.001851 0.000000 0.000000 0.000000 0.031221
#
#
# Mechanical properties :
#
#
# Convention : Reuss Voigt Hill
#
# Bulk Modulus (GPa) = 4.11460 21.37389 12.74425
# Shear Modulus (GPa) = -11.43588 16.70786 2.63599
#
# Velocity S-wave (km/s) = -2.28340 2.75999 1.09627
# Velocity P-wave (km/s) = 2.25298 4.46112 2.72265
#
# Compressibility (1/GPa) = 0.24303675
#
# Stress axis : x y z
#
# Youngs Moduli (GPa) = 11.77422 11.77422 128.61770
#
# Poissons Ratio (x) = -0.55770 0.94317
# Poissons Ratio (y) = -0.55770 0.94317
# Poissons Ratio (z) = 0.08634 0.08634
#
# Static dielectric constant tensor:
#      x y z
#    x 3.710880 0.000000 0.000000 
#    y 0.000000 3.710880 0.000000 
#    z 0.000000 0.000000 4.214250 
# 
# 
# High freq. dielectric constant tensor:
#      x y z
#    x 1.850690 0.000000 0.000000 
#    y 0.000000 1.850690 0.000000 
#    z 0.000000 0.000000 1.882310 
# 
# From -- ./inp_files/3446.got.cif
#   From: 2010.03.12/outbox.cif.g09.slc.cpg/sg83_2_cif.got.tgz:3446.got - 2010.04.08 20:05:18.
