data_PCOD8302075
_publ_section_title
;
Structure prediction by ZEFSAII (Michael W. Deem and Ramdas Pophale) SiO2 
 PCOD8302075
Probable space group: I 4
;
_chemical_formula_sum "Si O2"
_cell_formula_units_Z 64
_cell_length_a 21.250789
_cell_length_b 21.250789
_cell_length_c 8.276097
_cell_angle_alpha 90.000000
_cell_angle_beta 90.000000
_cell_angle_gamma 90.000000
_cell_volume 3737.452575
_symmetry_space_group_name_H-M "I 4"
_symmetry_group_IT_number 79
_symmetry_cell_setting 'tetragonal'
loop_
_space_group_symop_operation_xyz
x,y,z
-y,x,z
-x,-y,z
y,-x,z
1/2+x,1/2+y,1/2+z
1/2-y,1/2+x,1/2+z
1/2-x,1/2-y,1/2+z
1/2+y,1/2-x,1/2+z
loop_
_atom_site_type_symbol
_atom_site_label
_atom_site_fract_x
_atom_site_fract_y
_atom_site_fract_z
Si Si1 0.191650 0.357895 0.077390
Si Si2 0.563420 0.188673 0.374332
Si Si3 0.115911 0.538785 0.191828
Si Si4 0.678685 0.150405 0.570659
Si Si5 0.731925 0.650563 0.778642
Si Si6 0.013290 0.741744 0.179183
Si Si7 0.965265 0.377201 0.381806
Si Si8 0.754835 0.125843 0.258371
O O1 0.221444 0.396180 0.230069
O O2 0.149810 0.299281 0.137010
O O3 0.249614 0.335475 0.965353
O O4 0.147874 0.402341 0.968581
O O5 0.519013 0.137138 0.298472
O O6 0.610323 0.150622 0.488301
O O7 0.523969 0.237756 0.484747
O O8 0.172225 0.591173 0.192181
O O9 0.051866 0.563614 0.270880
O O10 0.102002 0.517463 0.009149
O O11 0.685493 0.215972 0.666305
O O12 0.734096 0.137325 0.443912
O O13 0.724213 0.575222 0.752398
O O14 0.665602 0.681630 0.734161
O O15 0.005177 0.673954 0.261812
O O16 0.946526 0.774950 0.219682
#
# Coordination Sequence:
#
# PCOD8302075 Si02
#       8
#     8   8   8   8   8   8   8   8
#     4   9  18  32  52  75 102 136 171 221 267 302
#     4   9  19  31  51  70 101 139 176 209 251 306
#     4  11  18  34  50  68  96 143 178 214 251 295
#     4  10  19  34  51  73 102 134 172 217 259 306
#     4  10  20  35  51  79 109 131 172 223 263 316
#     4  10  19  33  53  74 100 137 168 214 269 319
#     4  10  19  33  52  67 101 137 181 216 256 305
#     4  11  20  32  56  78 102 138 171 217 273 320
#
# _framework density 17.123963
#
# number of rings (size 3 to 8) (size 9 to 14) (size 15 to 20)
#    0.000    2.000    5.000    1.500    0.000    0.000 
#    0.000    1.875    0.000    0.375    0.000    0.000 
#    0.000    0.000    8.500    0.000    0.000    0.000 
#
# Total GULP energy -396594.115198 kJ/mol
# GULP energy per Si atom -12393.566100 kJ/mol
# Density = 1.708499 g / cm^3
# Si number density = 17.123963 Si / 1000 Ang^3
#
#
#
# Elastic Constant Matrix: (Units=GPa)
#
#
# Indices 1 2 3 4 5 6 
#
# 1 70.4124 36.8552 29.0724 0.0000 0.0000 -7.0449
# 2 36.8552 70.4124 29.0724 0.0000 0.0000 7.0449
# 3 29.0724 29.0724 91.2911 0.0000 0.0000 0.0000
# 4 0.0000 0.0000 0.0000 17.9837 0.0000 0.0000
# 5 0.0000 0.0000 0.0000 0.0000 17.9837 0.0000
# 6 -7.0449 7.0449 0.0000 0.0000 0.0000 21.0889
#
#
#
# Elastic Compliance Matrix: (Units=1/GPa)
#
#
# Indices 1 2 3 4 5 6 
#
# 1 0.022965 -0.011697 -0.003588 0.000000 0.000000 0.011579
# 2 -0.011697 0.022965 -0.003588 0.000000 0.000000 -0.011579
# 3 -0.003588 -0.003588 0.013239 0.000000 0.000000 0.000000
# 4 0.000000 0.000000 0.000000 0.055606 0.000000 0.000000
# 5 0.000000 0.000000 0.000000 0.000000 0.055606 0.000000
# 6 0.011579 -0.011579 0.000000 0.000000 0.000000 0.055155
#
#
# Mechanical properties :
#
#
# Convention : Reuss Voigt Hill
#
# Bulk Modulus (GPa) = 46.68216 46.90175 46.79196
# Shear Modulus (GPa) = 18.48959 20.55231 19.52095
#
# Velocity S-wave (km/s) = 3.28952 3.46816 3.38002
# Velocity P-wave (km/s) = 6.46130 6.59443 6.52820
#
# Compressibility (1/GPa) = 0.02142146
#
# Stress axis : x y z
#
# Youngs Moduli (GPa) = 43.54538 43.54538 75.53233
#
# Poissons Ratio (x) = 0.50935 0.27103
# Poissons Ratio (y) = 0.50935 0.27103
# Poissons Ratio (z) = 0.15625 0.15625
#
# Static dielectric constant tensor:
#      x y z
#    x 2.968540 0.000000 0.000000 
#    y 0.000000 2.968540 0.000000 
#    z 0.000000 0.000000 3.603700 
# 
# 
# High freq. dielectric constant tensor:
#      x y z
#    x 1.628170 0.000000 0.000000 
#    y 0.000000 1.628170 0.000000 
#    z 0.000000 0.000000 1.682930 
# 
# From -- ./inp_files/800.got.cif
#   From: 2010.03.12/outbox.cif.g09.slc.cpg/sg79_cif.got.tgz:800.got - 2010.04.16 16:38:49.
