data_PCOD8302149
_publ_section_title
;
Structure prediction by ZEFSAII (Michael W. Deem and Ramdas Pophale) SiO2 
 PCOD8302149
Probable space group: I 41
;
_chemical_formula_sum "Si O2"
_cell_formula_units_Z 56
_cell_length_a 24.530051
_cell_length_b 24.530051
_cell_length_c 5.243809
_cell_angle_alpha 90.000000
_cell_angle_beta 90.000000
_cell_angle_gamma 90.000000
_cell_volume 3155.322591
_symmetry_space_group_name_H-M "I 41"
_symmetry_group_IT_number 80
_symmetry_cell_setting 'tetragonal'
loop_
_space_group_symop_operation_xyz
x,y,z
-y,1/2+x,1/4+z
-x,-y,z
y,1/2-x,1/4+z
1/2+x,1/2+y,1/2+z
1/2-y,x,3/4+z
1/2-x,1/2-y,1/2+z
1/2+y,-x,3/4+z
loop_
_atom_site_type_symbol
_atom_site_label
_atom_site_fract_x
_atom_site_fract_y
_atom_site_fract_z
Si Si1 0.668870 0.748806 0.614150
Si Si2 0.548284 0.771994 0.506460
Si Si3 0.832785 0.955931 0.279571
Si Si4 0.877315 0.846415 0.395995
Si Si5 0.652575 0.946327 0.653538
Si Si6 0.441564 0.970209 0.562897
Si Si7 0.023680 0.560997 0.558268
O O1 0.707716 0.799163 0.677394
O O2 0.614404 0.771876 0.481204
O O3 0.649329 0.713280 0.858522
O O4 0.530311 0.797184 0.779048
O O5 0.525825 0.711210 0.452664
O O6 0.518615 0.806135 0.283655
O O7 0.831567 0.891637 0.341565
O O8 0.894814 0.976506 0.264858
O O9 0.900436 0.846940 0.682418
O O10 0.921855 0.861747 0.179125
O O11 0.608388 0.988601 0.552686
O O12 0.435537 0.933924 0.818019
O O13 0.500000 0.000000 0.582033
O O14 0.441509 0.930304 0.317139
O O15 0.000000 0.500000 0.578870
#
# Coordination Sequence:
#
# PCOD8302149 Si02
#       7
#     8   8   8   8   8   8   8
#     4  11  25  37  51  69  94 137 194 255 283 320
#     4  11  25  39  52  77  99 149 180 222 297 333
#     4  12  22  39  55  76 105 134 179 226 285 352
#     4  11  22  36  52  70  93 137 174 241 286 326
#     4  11  22  37  56  76 108 132 180 226 285 348
#     4  10  18  33  54  82 100 127 164 223 284 326
#     4  10  20  33  55  80 101 124 165 223 285 325
#
# _framework density 17.747789000000001
#
# number of rings (size 3 to 8) (size 9 to 14) (size 15 to 20)
#    0.000    1.143    1.429    7.714    4.000    0.000 
#    0.000    0.000    0.000    0.000    0.000    0.000 
#    0.000    0.000    0.000    0.000    0.000   40.000 
#
# Total GULP energy -346872.392536 kJ/mol
# GULP energy per Si atom -12388.299733 kJ/mol
# Density = 1.770739 g / cm^3
# Si number density = 17.747789 Si / 1000 Ang^3
#
#
#
# Elastic Constant Matrix: (Units=GPa)
#
#
# Indices 1 2 3 4 5 6 
#
# 1 60.9707 28.9044 22.3932 0.0000 0.0000 0.0924
# 2 28.9044 60.9707 22.3932 0.0000 0.0000 -0.0924
# 3 22.3932 22.3932 133.2559 0.0000 0.0000 0.0000
# 4 0.0000 0.0000 0.0000 19.9089 0.0000 0.0000
# 5 0.0000 0.0000 0.0000 0.0000 19.9089 0.0000
# 6 0.0924 -0.0924 0.0000 0.0000 0.0000 31.2784
#
#
#
# Elastic Compliance Matrix: (Units=1/GPa)
#
#
# Indices 1 2 3 4 5 6 
#
# 1 0.021665 -0.009521 -0.002041 0.000000 0.000000 -0.000092
# 2 -0.009521 0.021665 -0.002041 0.000000 0.000000 0.000092
# 3 -0.002041 -0.002041 0.008190 0.000000 0.000000 0.000000
# 4 0.000000 0.000000 0.000000 0.050229 0.000000 0.000000
# 5 0.000000 0.000000 0.000000 0.000000 0.050229 0.000000
# 6 -0.000092 0.000092 0.000000 0.000000 0.000000 0.031971
#
#
# Mechanical properties :
#
#
# Convention : Reuss Voigt Hill
#
# Bulk Modulus (GPa) = 41.12778 44.73099 42.92938
# Shear Modulus (GPa) = 22.80411 26.31966 24.56188
#
# Velocity S-wave (km/s) = 3.58844 3.85513 3.72417
# Velocity P-wave (km/s) = 6.35554 6.71375 6.53710
#
# Compressibility (1/GPa) = 0.02431447
#
# Stress axis : x y z
#
# Youngs Moduli (GPa) = 46.15807 46.15807 122.09697
#
# Poissons Ratio (x) = 0.43948 0.24916
# Poissons Ratio (y) = 0.43948 0.24916
# Poissons Ratio (z) = 0.09419 0.09419
#
# Static dielectric constant tensor:
#      x y z
#    x 3.077240 0.000000 0.000000 
#    y 0.000000 3.077240 0.000000 
#    z 0.000000 0.000000 4.789560 
# 
# 
# High freq. dielectric constant tensor:
#      x y z
#    x 1.644870 0.000000 0.000000 
#    y 0.000000 1.644870 0.000000 
#    z 0.000000 0.000000 1.725450 
# 
# From -- ./inp_files/400.got.cif
#   From: 2010.03.12/outbox.cif.g09.slc.cpg/sg80_cif.got.tgz:400.got - 2010.04.08 20:00:04.
