data_PCOD8302730
_publ_section_title
;
Structure prediction by ZEFSAII (Michael W. Deem and Ramdas Pophale) SiO2 
 PCOD8302730
Probable space group: P 4/M
;
_chemical_formula_sum "Si O2"
_cell_formula_units_Z 64
_cell_length_a 20.133686
_cell_length_b 20.133686
_cell_length_c 8.638299
_cell_angle_alpha 90.000000
_cell_angle_beta 90.000000
_cell_angle_gamma 90.000000
_cell_volume 3501.666769
_symmetry_space_group_name_H-M "P 4/M"
_symmetry_group_IT_number 83
_symmetry_cell_setting 'tetragonal'
loop_
_space_group_symop_operation_xyz
x,y,z
-y,x,z
-x,-y,z
y,-x,z
-x,-y,-z
y,-x,-z
x,y,-z
-y,x,-z
loop_
_atom_site_type_symbol
_atom_site_label
_atom_site_fract_x
_atom_site_fract_y
_atom_site_fract_z
Si Si1 0.361217 0.066513 0.682793
Si Si2 0.786653 0.704495 0.319043
Si Si3 0.564475 0.414577 0.677497
Si Si4 0.712501 0.585672 0.822355
Si Si5 0.496837 0.904599 0.670190
Si Si6 0.647468 0.079197 0.682261
Si Si7 0.202717 0.678492 0.182157
Si Si8 0.756007 0.456017 0.672198
O O1 0.362533 0.082908 0.500000
O O2 0.437980 0.059981 0.745734
O O3 0.320955 0.125554 0.765460
O O4 0.325822 0.995468 0.718090
O O5 0.781001 0.720591 0.500000
O O6 0.758152 0.631408 0.284789
O O7 0.864189 0.699697 0.261269
O O8 0.748027 0.762552 0.228290
O O9 0.591163 0.486796 0.715475
O O10 0.577143 0.395327 0.500000
O O11 0.604892 0.364065 0.787212
O O12 0.717031 0.507891 0.779110
O O13 0.730577 0.598734 0.000000
O O14 0.487160 0.935687 0.500000
O O15 0.426480 0.912851 0.760090
O O16 0.515480 0.828686 0.660175
O O17 0.638879 0.091043 0.500000
O O18 0.243592 0.617904 0.257293
O O19 0.205625 0.670235 0.000000
O O20 0.723692 0.452128 0.500000
#
# Coordination Sequence:
#
# PCOD8302730 Si02
#       8
#     8   8   8   8   8   8   8   8
#     4   9  17  31  55  81 106 138 176 215 261 318
#     4  11  22  38  57  77 105 143 185 222 262 314
#     4   9  20  39  58  71  85 115 167 222 271 327
#     4  12  24  35  50  75 105 132 164 216 276 326
#     4   8  13  25  48  77 102 127 165 210 250 297
#     4   9  16  29  53  83 106 132 177 224 259 308
#     4  11  23  38  53  76 109 142 178 222 271 315
#     4  10  19  35  56  73  96 135 180 217 257 312
#
# _framework density 18.277011000000002
#
# number of rings (size 3 to 8) (size 9 to 14) (size 15 to 20)
#    0.000    2.125    1.250    4.500    1.750    2.000 
#    0.000    1.875    0.000    1.500    0.000    0.000 
#    0.000    0.500    0.000    5.750    0.000    2.250 
#
# Total GULP energy -792966.901136 kJ/mol
# GULP energy per Si atom -12390.107830 kJ/mol
# Density = 1.823541 g / cm^3
# Si number density = 18.277011 Si / 1000 Ang^3
#
#
#
# Elastic Constant Matrix: (Units=GPa)
#
#
# Indices 1 2 3 4 5 6 
#
# 1 75.2639 44.8039 15.8462 0.0000 0.0000 -9.9533
# 2 44.8039 75.2639 15.8462 0.0000 0.0000 9.9533
# 3 15.8462 15.8462 62.3378 0.0000 0.0000 0.0000
# 4 0.0000 0.0000 0.0000 11.7523 0.0000 0.0000
# 5 0.0000 0.0000 0.0000 0.0000 11.7523 0.0000
# 6 -9.9533 9.9533 0.0000 0.0000 0.0000 13.2663
#
#
#
# Elastic Compliance Matrix: (Units=1/GPa)
#
#
# Indices 1 2 3 4 5 6 
#
# 1 0.036670 -0.027743 -0.002269 0.000000 0.000000 0.048327
# 2 -0.027743 0.036670 -0.002269 0.000000 0.000000 -0.048327
# 3 -0.002269 -0.002269 0.017195 0.000000 0.000000 0.000000
# 4 0.000000 0.000000 0.000000 0.085090 0.000000 0.000000
# 5 0.000000 0.000000 0.000000 0.000000 0.085090 0.000000
# 6 0.048327 -0.048327 0.000000 0.000000 0.000000 0.147896
#
#
# Mechanical properties :
#
#
# Convention : Reuss Voigt Hill
#
# Bulk Modulus (GPa) = 38.50139 40.65091 39.57615
# Shear Modulus (GPa) = 10.37704 16.44546 13.41125
#
# Velocity S-wave (km/s) = 2.38537 3.00290 2.71177
# Velocity P-wave (km/s) = 5.35704 5.85774 5.61297
#
# Compressibility (1/GPa) = 0.02597309
#
# Stress axis : x y z
#
# Youngs Moduli (GPa) = 27.26996 27.26996 58.15513
#
# Poissons Ratio (x) = 0.75654 0.13198
# Poissons Ratio (y) = 0.75654 0.13198
# Poissons Ratio (z) = 0.06189 0.06189
#
# Static dielectric constant tensor:
#      x y z
#    x 3.403580 0.000000 0.000000 
#    y 0.000000 3.403580 0.000000 
#    z 0.000000 0.000000 3.084860 
# 
# 
# High freq. dielectric constant tensor:
#      x y z
#    x 1.693030 0.000000 0.000000 
#    y 0.000000 1.693030 0.000000 
#    z 0.000000 0.000000 1.678910 
# 
# From -- ./inp_files/1269.got.cif
#   From: 2010.03.12/outbox.cif.g09.slc.cpg/sg83_1_cif.got.tgz:1269.got - 2010.04.08 20:05:18.
