data_PCOD8302697
_publ_section_title
;
Structure prediction by ZEFSAII (Michael W. Deem and Ramdas Pophale) SiO2 
 PCOD8302697
Probable space group: P 4/M
;
_chemical_formula_sum "Si O2"
_cell_formula_units_Z 40
_cell_length_a 11.599855
_cell_length_b 11.599855
_cell_length_c 15.530484
_cell_angle_alpha 90.000000
_cell_angle_beta 90.000000
_cell_angle_gamma 90.000000
_cell_volume 2089.729683
_symmetry_space_group_name_H-M "P 4/M"
_symmetry_group_IT_number 83
_symmetry_cell_setting 'tetragonal'
loop_
_space_group_symop_operation_xyz
x,y,z
-y,x,z
-x,-y,z
y,-x,z
-x,-y,-z
y,-x,-z
x,y,-z
-y,x,-z
loop_
_atom_site_type_symbol
_atom_site_label
_atom_site_fract_x
_atom_site_fract_y
_atom_site_fract_z
Si Si1 0.766167 0.395662 0.844561
Si Si2 0.996245 0.361444 0.228536
Si Si3 0.679377 0.447524 0.660062
Si Si4 0.070596 0.615465 0.407314
Si Si5 0.637374 0.183560 0.094188
O O1 0.879326 0.322687 0.818048
O O2 0.699776 0.446224 0.762254
O O3 0.686002 0.311608 0.898436
O O4 0.807146 0.499717 0.904733
O O5 0.989021 0.313806 0.327610
O O6 0.000000 0.500000 0.234796
O O7 0.104286 0.314995 0.173076
O O8 0.641780 0.577651 0.634954
O O9 0.795333 0.412786 0.610932
O O10 0.064176 0.682267 0.500000
O O11 0.000000 0.500000 0.418631
O O12 0.671547 0.132555 0.000000
#
# Coordination Sequence:
#
# PCOD8302697 Si02
#       5
#     8   8   8   8   8
#     4  10  19  33  49  73 105 142 181 216 263 312
#     4   8  18  34  52  69  99 138 179 217 267 313
#     4  10  19  32  52  76 113 153 177 209 266 325
#     4   9  18  33  52  74 101 138 183 223 257 311
#     4  11  21  32  51  77 107 141 183 224 265 318
#
# _framework density 19.141234000000001
#
# number of rings (size 3 to 8) (size 9 to 14) (size 15 to 20)
#    0.000    2.400    2.000    1.800    0.000    5.600 
#    0.000    2.000    0.000    0.600    0.000    1.400 
#    0.000    0.800    0.000    9.600    0.000    0.000 
#
# Total GULP energy -495542.093413 kJ/mol
# GULP energy per Si atom -12388.552335 kJ/mol
# Density = 1.909767 g / cm^3
# Si number density = 19.141234 Si / 1000 Ang^3
#
#
#
# Elastic Constant Matrix: (Units=GPa)
#
#
# Indices 1 2 3 4 5 6 
#
# 1 62.3578 18.2052 37.1271 0.0000 0.0000 4.8025
# 2 18.2052 62.3578 37.1271 0.0000 0.0000 -4.8025
# 3 37.1271 37.1271 166.1012 0.0000 0.0000 0.0000
# 4 0.0000 0.0000 0.0000 1.3929 0.0000 0.0000
# 5 0.0000 0.0000 0.0000 0.0000 1.3929 0.0000
# 6 4.8025 -4.8025 0.0000 0.0000 0.0000 4.6713
#
#
#
# Elastic Compliance Matrix: (Units=1/GPa)
#
#
# Indices 1 2 3 4 5 6 
#
# 1 0.022403 -0.006770 -0.003494 0.000000 0.000000 -0.029993
# 2 -0.006770 0.022403 -0.003494 0.000000 0.000000 0.029993
# 3 -0.003494 -0.003494 0.007583 0.000000 0.000000 0.000000
# 4 0.000000 0.000000 0.000000 0.717924 0.000000 0.000000
# 5 0.000000 0.000000 0.000000 0.000000 0.717924 0.000000
# 6 -0.029993 0.029993 0.000000 0.000000 0.000000 0.275746
#
#
# Mechanical properties :
#
#
# Convention : Reuss Voigt Hill
#
# Bulk Modulus (GPa) = 40.20620 52.85951 46.53286
# Shear Modulus (GPa) = 2.77810 14.71524 8.74667
#
# Velocity S-wave (km/s) = 1.20603 2.77568 2.13997
# Velocity P-wave (km/s) = 4.79479 6.16020 5.51987
#
# Compressibility (1/GPa) = 0.02487179
#
# Stress axis : x y z
#
# Youngs Moduli (GPa) = 44.63590 44.63590 131.88151
#
# Poissons Ratio (x) = 0.30219 0.46085
# Poissons Ratio (y) = 0.30219 0.46085
# Poissons Ratio (z) = 0.15598 0.15598
#
# Static dielectric constant tensor:
#      x y z
#    x 3.284970 0.000000 0.000000 
#    y 0.000000 3.284970 0.000000 
#    z 0.000000 0.000000 4.007540 
# 
# 
# High freq. dielectric constant tensor:
#      x y z
#    x 1.708920 0.000000 0.000000 
#    y 0.000000 1.708920 0.000000 
#    z 0.000000 0.000000 1.760290 
# 
# From -- ./inp_files/2249.got.cif
#   From: 2010.03.12/outbox.cif.g09.slc.cpg/sg83_2_cif.got.tgz:2249.got - 2010.04.08 20:05:18.
