data_PCOD8302204
_publ_section_title
;
Structure prediction by ZEFSAII (Michael W. Deem and Ramdas Pophale) SiO2 
 PCOD8302204
Probable space group: I 41
;
_chemical_formula_sum "Si O2"
_cell_formula_units_Z 48
_cell_length_a 8.455077
_cell_length_b 8.455077
_cell_length_c 28.480061
_cell_angle_alpha 90.000000
_cell_angle_beta 90.000000
_cell_angle_gamma 90.000000
_cell_volume 2035.991916
_symmetry_space_group_name_H-M "I 41"
_symmetry_group_IT_number 80
_symmetry_cell_setting 'tetragonal'
loop_
_space_group_symop_operation_xyz
x,y,z
-y,1/2+x,1/4+z
-x,-y,z
y,1/2-x,1/4+z
1/2+x,1/2+y,1/2+z
1/2-y,x,3/4+z
1/2-x,1/2-y,1/2+z
1/2+y,-x,3/4+z
loop_
_atom_site_type_symbol
_atom_site_label
_atom_site_fract_x
_atom_site_fract_y
_atom_site_fract_z
Si Si1 0.989820 0.813138 0.649520
Si Si2 0.104381 0.345138 0.293048
Si Si3 0.654862 0.104381 0.223055
Si Si4 0.180237 0.696563 0.570117
Si Si5 0.680237 0.696563 0.695986
Si Si6 0.313138 0.510180 0.366583
O O1 0.115659 0.745127 0.687172
O O2 0.019147 0.731162 0.598619
O O3 0.813872 0.771489 0.663528
O O4 0.000000 0.000000 0.645701
O O5 0.183857 0.283160 0.245826
O O6 0.245127 0.384341 0.328931
O O7 0.000000 0.500000 0.282610
O O8 0.990979 0.207469 0.313720
O O9 0.716840 0.183857 0.270278
O O10 0.500000 0.000000 0.233493
O O11 0.792531 0.990979 0.202383
O O12 0.313872 0.771489 0.602575
O O13 0.519147 0.731162 0.667484
O O14 0.500000 0.500000 0.370403
#
# Coordination Sequence:
#
# PCOD8302204 Si02
#       6
#     8   8   8   8   8   8
#     4  11  25  43  74 102 140 182 237 291 346 414
#     4  10  25  44  69 104 143 183 235 289 352 416
#     4  10  25  44  69 104 143 183 235 289 352 416
#     4  11  25  45  70 102 143 183 235 284 355 414
#     4  11  25  45  70 102 143 183 235 284 355 414
#     4  11  25  43  74 102 140 182 237 291 346 414
#
# _framework density 23.575728999999999
#
# number of rings (size 3 to 8) (size 9 to 14) (size 15 to 20)
#    0.000    1.333    0.000    3.000   14.000    0.667 
#    0.000    0.000    0.000    0.000    0.000    0.000 
#    0.000    0.000    0.000    0.000    0.000    0.000 
#
# Total GULP energy -297717.048116 kJ/mol
# GULP energy per Si atom -12404.877005 kJ/mol
# Density = 2.352207 g / cm^3
# Si number density = 23.575729 Si / 1000 Ang^3
#
#
#
# Elastic Constant Matrix: (Units=GPa)
#
#
# Indices 1 2 3 4 5 6 
#
# 1 102.6670 27.9404 40.0083 0.0000 0.0000 6.2433
# 2 27.9404 102.6670 40.0083 0.0000 0.0000 -6.2433
# 3 40.0083 40.0083 116.0635 0.0000 0.0000 0.0000
# 4 0.0000 0.0000 0.0000 6.0258 0.0000 0.0000
# 5 0.0000 0.0000 0.0000 0.0000 6.0257 0.0000
# 6 6.2433 -6.2433 0.0000 0.0000 0.0000 25.8197
#
#
#
# Elastic Compliance Matrix: (Units=1/GPa)
#
#
# Indices 1 2 3 4 5 6 
#
# 1 0.011826 -0.002120 -0.003346 0.000000 0.000000 -0.003372
# 2 -0.002120 0.011826 -0.003346 0.000000 0.000000 0.003372
# 3 -0.003346 -0.003346 0.010923 0.000000 0.000000 0.000000
# 4 0.000000 0.000000 0.000000 0.165954 -0.000001 0.000000
# 5 0.000000 0.000000 0.000000 -0.000001 0.165955 0.000000
# 6 -0.003372 0.003372 0.000000 0.000000 0.000000 0.040361
#
#
# Mechanical properties :
#
#
# Convention : Reuss Voigt Hill
#
# Bulk Modulus (GPa) = 58.99039 59.70127 59.34583
# Shear Modulus (GPa) = 11.62473 21.80362 16.71417
#
# Velocity S-wave (km/s) = 2.22295 3.04441 2.66551
# Velocity P-wave (km/s) = 5.62714 6.14297 5.89070
#
# Compressibility (1/GPa) = 0.01695192
#
# Stress axis : x y z
#
# Youngs Moduli (GPa) = 84.55950 84.55949 91.55244
#
# Poissons Ratio (x) = 0.17923 0.30633
# Poissons Ratio (y) = 0.17923 0.30633
# Poissons Ratio (z) = 0.28293 0.28293
#
# Static dielectric constant tensor:
#      x y z
#    x 4.398490 0.000000 0.000000 
#    y 0.000000 4.398490 0.000000 
#    z 0.000000 0.000000 4.307080 
# 
# 
# High freq. dielectric constant tensor:
#      x y z
#    x 1.940340 0.000000 0.000000 
#    y 0.000000 1.940340 0.000000 
#    z 0.000000 0.000000 1.945540 
# 
# From -- ./inp_files/2643.got.cif
#   From: 2010.03.12/outbox.cif.g09.slc.cpg/sg80_cif.got.tgz:2643.got - 2010.04.08 20:00:04.
