data_PCOD8302607
_publ_section_title
;
Structure prediction by ZEFSAII (Michael W. Deem and Ramdas Pophale) SiO2 
 PCOD8302607
Probable space group: P 4/M
;
_chemical_formula_sum "Si O2"
_cell_formula_units_Z 48
_cell_length_a 20.748860
_cell_length_b 20.748860
_cell_length_c 8.848936
_cell_angle_alpha 90.000000
_cell_angle_beta 90.000000
_cell_angle_gamma 90.000000
_cell_volume 3809.601375
_symmetry_space_group_name_H-M "P 4/M"
_symmetry_group_IT_number 83
_symmetry_cell_setting 'tetragonal'
loop_
_space_group_symop_operation_xyz
x,y,z
-y,x,z
-x,-y,z
y,-x,z
-x,-y,-z
y,-x,-z
x,y,-z
-y,x,-z
loop_
_atom_site_type_symbol
_atom_site_label
_atom_site_fract_x
_atom_site_fract_y
_atom_site_fract_z
Si Si1 0.692859 0.922633 0.670761
Si Si2 0.927085 0.435528 0.820885
Si Si3 0.924063 0.699648 0.332652
Si Si4 0.438968 0.932962 0.321197
Si Si5 0.073300 0.823622 0.179940
Si Si6 0.927958 0.826633 0.177419
O O1 0.692193 0.896403 0.500000
O O2 0.630116 0.894667 0.757741
O O3 0.757420 0.898178 0.753496
O O4 0.691387 0.999451 0.674928
O O5 0.893678 0.499076 0.743534
O O6 0.001279 0.436372 0.772874
O O7 0.919076 0.438197 0.000000
O O8 0.902151 0.720127 0.500000
O O9 0.894991 0.628766 0.290923
O O10 0.900504 0.756093 0.221717
O O11 0.446355 0.947377 0.500000
O O12 0.117376 0.881962 0.242045
O O13 0.000531 0.836475 0.239998
O O14 0.074452 0.818447 0.000000
O O15 0.928378 0.831329 0.000000
#
# Coordination Sequence:
#
# PCOD8302607 Si02
#       6
#     8   8   8   8   8   8
#     4   9  16  26  37  48  63  84 104 127 158 194
#     4  10  16  21  32  50  68  85 103 124 148 182
#     4   8  15  25  36  48  63  82 104 127 155 191
#     4   9  15  23  33  47  67  88 106 124 146 180
#     4   9  17  28  39  52  65  81 105 136 174 214
#     4   9  17  27  39  51  65  82 104 136 174 213
#
# _framework density 12.599743999999999
#
# number of rings (size 3 to 8) (size 9 to 14) (size 15 to 20)
#    0.000    3.000    0.000    4.500    0.000    5.667 
#    0.000    1.667    0.000    0.000    0.000    4.667 
#    0.000    0.000    0.000    0.000    0.000    0.000 
#
# Total GULP energy -594650.379452 kJ/mol
# GULP energy per Si atom -12388.549572 kJ/mol
# Density = 1.257107 g / cm^3
# Si number density = 12.599744 Si / 1000 Ang^3
#
#
#
# Elastic Constant Matrix: (Units=GPa)
#
#
# Indices 1 2 3 4 5 6 
#
# 1 68.8036 38.4252 23.0560 0.0000 0.0000 -0.0375
# 2 38.4252 68.8036 23.0560 0.0000 0.0000 0.0375
# 3 23.0560 23.0560 47.2557 0.0000 0.0000 0.0000
# 4 0.0000 0.0000 0.0000 14.7372 0.0000 0.0000
# 5 0.0000 0.0000 0.0000 0.0000 14.7372 0.0000
# 6 -0.0375 0.0375 0.0000 0.0000 0.0000 0.6451
#
#
#
# Elastic Compliance Matrix: (Units=1/GPa)
#
#
# Indices 1 2 3 4 5 6 
#
# 1 0.022362 -0.010560 -0.005758 0.000000 0.000000 0.001913
# 2 -0.010560 0.022362 -0.005758 0.000000 0.000000 -0.001913
# 3 -0.005758 -0.005758 0.026780 0.000000 0.000000 0.000000
# 4 0.000000 0.000000 0.000000 0.067855 0.000000 0.000000
# 5 0.000000 0.000000 0.000000 0.000000 0.067855 0.000000
# 6 0.001913 -0.001913 0.000000 0.000000 0.000000 1.550462
#
#
# Mechanical properties :
#
#
# Convention : Reuss Voigt Hill
#
# Bulk Modulus (GPa) = 36.56095 39.32639 37.94367
# Shear Modulus (GPa) = 2.76098 12.71227 7.73663
#
# Velocity S-wave (km/s) = 1.48191 3.17981 2.48065
# Velocity P-wave (km/s) = 5.65759 6.69040 6.19555
#
# Compressibility (1/GPa) = 0.02735159
#
# Stress axis : x y z
#
# Youngs Moduli (GPa) = 44.71778 44.71778 37.34085
#
# Poissons Ratio (x) = 0.47224 0.21502
# Poissons Ratio (y) = 0.47224 0.21502
# Poissons Ratio (z) = 0.25749 0.25749
#
# Static dielectric constant tensor:
#      x y z
#    x 2.674270 0.000000 0.000000 
#    y 0.000000 2.674270 0.000000 
#    z 0.000000 0.000000 2.593510 
# 
# 
# High freq. dielectric constant tensor:
#      x y z
#    x 1.442690 0.000000 0.000000 
#    y 0.000000 1.442690 0.000000 
#    z 0.000000 0.000000 1.488100 
# 
# From -- ./inp_files/1153.got.cif
#   From: 2010.03.12/outbox.cif.g09.slc.cpg/sg83_1_cif.got.tgz:1153.got - 2010.04.08 20:05:18.
