data_PCOD8302318
_publ_section_title
;
Structure prediction by ZEFSAII (Michael W. Deem and Ramdas Pophale) SiO2 
 PCOD8302318
Probable space group: P -4
;
_chemical_formula_sum "Si O2"
_cell_formula_units_Z 29
_cell_length_a 11.789372
_cell_length_b 11.789372
_cell_length_c 10.960355
_cell_angle_alpha 90.000000
_cell_angle_beta 90.000000
_cell_angle_gamma 90.000000
_cell_volume 1523.371983
_symmetry_space_group_name_H-M "P -4"
_symmetry_group_IT_number 81
_symmetry_cell_setting 'tetragonal'
loop_
_space_group_symop_operation_xyz
x,y,z
y,-x,-z
-x,-y,z
-y,x,-z
loop_
_atom_site_type_symbol
_atom_site_label
_atom_site_fract_x
_atom_site_fract_y
_atom_site_fract_z
Si Si1 0.142378 0.110724 0.641838
Si Si2 0.854054 0.879889 0.368076
Si Si3 0.636270 0.377365 0.996842
Si Si4 0.500000 0.500000 0.500000
Si Si5 0.301832 0.720270 0.744739
Si Si6 0.309201 0.259861 0.759055
Si Si7 0.508566 0.137945 0.614038
Si Si8 0.520899 0.279363 0.377338
O O1 0.185019 0.149304 0.506868
O O2 0.205159 0.172875 0.752545
O O3 0.012407 0.143134 0.654178
O O4 0.168654 0.978690 0.655992
O O5 0.766522 0.825799 0.271801
O O6 0.725930 0.354881 0.104323
O O7 0.508628 0.352536 0.043072
O O8 0.666462 0.293966 0.885931
O O9 0.564199 0.400250 0.428735
O O10 0.379736 0.815539 0.681255
O O11 0.309265 0.598843 0.682197
O O12 0.404408 0.203175 0.674832
O O13 0.254641 0.379925 0.718465
O O14 0.513535 0.175286 0.472200
O O15 0.500000 0.000000 0.623150
#
# Coordination Sequence:
#
# PCOD8302318 Si02
#       8
#     4   4   4   1   4   4   4   4
#     4   9  19  38  64  91 122 162 203 247 306 370
#     4   9  19  38  64  91 122 162 203 247 306 370
#     4  11  24  42  64  85 118 168 210 251 302 362
#     4  12  20  36  52  90 120 156 184 236 294 380
#     4  12  22  39  61  89 120 162 206 252 305 366
#     4  12  22  39  61  89 120 162 206 252 305 366
#     4  12  24  37  59  94 129 155 192 255 319 369
#     4  12  22  35  61  91 124 156 199 251 315 371
#
# _framework density 19.036718
#
# number of rings (size 3 to 8) (size 9 to 14) (size 15 to 20)
#    0.000    0.966    5.517    3.310    0.000    3.310 
#    0.000    2.759    0.000    1.655    0.000    0.000 
#    0.000    0.000    0.000    0.000    0.000    0.000 
#
# Total GULP energy -359462.152550 kJ/mol
# GULP energy per Si atom -12395.246640 kJ/mol
# Density = 1.899339 g / cm^3
# Si number density = 19.036718 Si / 1000 Ang^3
#
#
#
# Elastic Constant Matrix: (Units=GPa)
#
#
# Indices 1 2 3 4 5 6 
#
# 1 81.1948 29.4814 33.2460 0.0000 0.0000 0.6157
# 2 29.4814 81.1948 33.2460 0.0000 0.0000 -0.6157
# 3 33.2460 33.2460 78.6682 0.0000 0.0000 0.0000
# 4 0.0000 0.0000 0.0000 25.7888 0.0000 0.0000
# 5 0.0000 0.0000 0.0000 0.0000 25.7888 0.0000
# 6 0.6157 -0.6157 0.0000 0.0000 0.0000 37.7159
#
#
#
# Elastic Compliance Matrix: (Units=1/GPa)
#
#
# Indices 1 2 3 4 5 6 
#
# 1 0.015727 -0.003617 -0.005118 0.000000 0.000000 -0.000316
# 2 -0.003617 0.015727 -0.005118 0.000000 0.000000 0.000316
# 3 -0.005118 -0.005118 0.017037 0.000000 0.000000 0.000000
# 4 0.000000 0.000000 0.000000 0.038777 0.000000 0.000000
# 5 0.000000 0.000000 0.000000 0.000000 0.038777 0.000000
# 6 -0.000316 0.000316 0.000000 0.000000 0.000000 0.026524
#
#
# Mechanical properties :
#
#
# Convention : Reuss Voigt Hill
#
# Bulk Modulus (GPa) = 48.10909 48.11161 48.11035
# Shear Modulus (GPa) = 26.70875 27.53098 27.11987
#
# Velocity S-wave (km/s) = 3.74974 3.80702 3.77849
# Velocity P-wave (km/s) = 6.63883 6.68225 6.66058
#
# Compressibility (1/GPa) = 0.02078609
#
# Stress axis : x y z
#
# Youngs Moduli (GPa) = 63.58304 63.58304 58.69474
#
# Poissons Ratio (x) = 0.23001 0.30039
# Poissons Ratio (y) = 0.23001 0.30039
# Poissons Ratio (z) = 0.32541 0.32541
#
# Static dielectric constant tensor:
#      x y z
#    x 3.564910 0.000000 0.000000 
#    y 0.000000 3.564910 0.000000 
#    z 0.000000 0.000000 3.278870 
# 
# 
# High freq. dielectric constant tensor:
#      x y z
#    x 1.746460 0.000000 0.000000 
#    y 0.000000 1.746460 0.000000 
#    z 0.000000 0.000000 1.712540 
# 
# From -- ./inp_files/1403.got.cif
#   From: 2010.03.12/outbox.cif.g09.slc.cpg/sg81_cif.got.tgz:1403.got - 2010.04.08 20:01:38.
