data_PCOD8302946
_publ_section_title
;
Structure prediction by ZEFSAII (Michael W. Deem and Ramdas Pophale) SiO2 
 PCOD8302946
Probable space group: P 4/M
;
_chemical_formula_sum "Si O2"
_cell_formula_units_Z 44
_cell_length_a 9.037032
_cell_length_b 9.037032
_cell_length_c 27.490410
_cell_angle_alpha 90.000000
_cell_angle_beta 90.000000
_cell_angle_gamma 90.000000
_cell_volume 2245.085357
_symmetry_space_group_name_H-M "P 4/M"
_symmetry_group_IT_number 83
_symmetry_cell_setting 'tetragonal'
loop_
_space_group_symop_operation_xyz
x,y,z
-y,x,z
-x,-y,z
y,-x,z
-x,-y,-z
y,-x,-z
x,y,-z
-y,x,-z
loop_
_atom_site_type_symbol
_atom_site_label
_atom_site_fract_x
_atom_site_fract_y
_atom_site_fract_z
Si Si1 0.778023 0.096338 0.126479
Si Si2 0.884403 0.782854 0.500000
Si Si3 0.603157 0.282547 0.308911
Si Si4 0.595559 0.278196 0.055550
Si Si5 0.779249 0.097766 0.237117
Si Si6 0.384765 0.712982 0.579584
O O1 0.648184 0.147434 0.090704
O O2 0.725328 0.121147 0.181832
O O3 0.924963 0.191024 0.116256
O O4 0.840399 0.689012 0.547464
O O5 0.060070 0.801992 0.500000
O O6 0.693385 0.431286 0.297865
O O7 0.653451 0.150909 0.273882
O O8 0.632854 0.237808 0.364602
O O9 0.690874 0.424446 0.066238
O O10 0.618129 0.227261 0.000000
O O11 0.926388 0.191670 0.247109
O O12 0.303510 0.558361 0.567843
#
# Coordination Sequence:
#
# PCOD8302946 Si02
#       6
#     8   4   8   8   8   8
#     4   9  19  35  52  72 100 133 169 207 247 294
#     4  11  24  37  50  76 110 137 166 207 252 298
#     4   9  19  35  54  78 105 131 165 209 252 296
#     4   9  19  35  52  72 100 131 163 203 252 302
#     4   9  19  35  52  72 102 137 169 204 248 296
#     4   9  19  37  58  77 100 133 171 209 250 297
#
# _framework density 19.598365999999999
#
# number of rings (size 3 to 8) (size 9 to 14) (size 15 to 20)
#    0.000    2.818    0.000    3.273    0.000    7.273 
#    0.000   13.636    0.000    0.000    0.000    0.000 
#    0.000    0.000    0.000    0.000    0.000    0.000 
#
# Total GULP energy -545643.678087 kJ/mol
# GULP energy per Si atom -12400.992684 kJ/mol
# Density = 1.955376 g / cm^3
# Si number density = 19.598366 Si / 1000 Ang^3
#
#
#
# Elastic Constant Matrix: (Units=GPa)
#
#
# Indices 1 2 3 4 5 6 
#
# 1 16.3941 -4.4304 11.2961 0.0000 0.0000 1.5511
# 2 -4.4304 16.3941 11.2961 0.0000 0.0000 -1.5511
# 3 11.2961 11.2961 71.5005 0.0000 0.0000 0.0000
# 4 0.0000 0.0000 0.0000 5.6061 0.0000 0.0000
# 5 0.0000 0.0000 0.0000 0.0000 5.6061 0.0000
# 6 1.5511 -1.5511 0.0000 0.0000 0.0000 33.5503
#
#
#
# Elastic Compliance Matrix: (Units=1/GPa)
#
#
# Indices 1 2 3 4 5 6 
#
# 1 0.083740 0.035387 -0.018820 0.000000 0.000000 -0.002235
# 2 0.035387 0.083740 -0.018820 0.000000 0.000000 0.002235
# 3 -0.018820 -0.018820 0.019933 0.000000 0.000000 0.000000
# 4 0.000000 0.000000 0.000000 0.178376 0.000000 0.000000
# 5 0.000000 0.000000 0.000000 0.000000 0.178376 0.000000
# 6 -0.002235 0.002235 0.000000 0.000000 0.000000 0.030013
#
#
# Mechanical properties :
#
#
# Convention : Reuss Voigt Hill
#
# Bulk Modulus (GPa) = 5.46732 15.62359 10.54545
# Shear Modulus (GPa) = 7.81672 14.69430 11.25551
#
# Velocity S-wave (km/s) = 1.99928 2.74117 2.39907
# Velocity P-wave (km/s) = 2.85048 4.24357 3.61477
#
# Compressibility (1/GPa) = 0.18290487
#
# Stress axis : x y z
#
# Youngs Moduli (GPa) = 11.94169 11.94169 50.16894
#
# Poissons Ratio (x) = -0.42258 0.94420
# Poissons Ratio (y) = -0.42258 0.94420
# Poissons Ratio (z) = 0.22475 0.22475
#
# Static dielectric constant tensor:
#      x y z
#    x 3.367980 0.000000 0.000000 
#    y 0.000000 3.367980 0.000000 
#    z 0.000000 0.000000 3.492490 
# 
# 
# High freq. dielectric constant tensor:
#      x y z
#    x 1.755530 0.000000 0.000000 
#    y 0.000000 1.755530 0.000000 
#    z 0.000000 0.000000 1.766610 
# 
# From -- ./inp_files/3346.got.cif
#   From: 2010.03.12/outbox.cif.g09.slc.cpg/sg83_2_cif.got.tgz:3346.got - 2010.04.08 20:05:18.
