data_PCOD8302903
_publ_section_title
;
Structure prediction by ZEFSAII (Michael W. Deem and Ramdas Pophale) SiO2 
 PCOD8302903
Probable space group: P 4/M
;
_chemical_formula_sum "Si O2"
_cell_formula_units_Z 44
_cell_length_a 15.536352
_cell_length_b 15.536352
_cell_length_c 10.131781
_cell_angle_alpha 90.000000
_cell_angle_beta 90.000000
_cell_angle_gamma 90.000000
_cell_volume 2445.591400
_symmetry_space_group_name_H-M "P 4/M"
_symmetry_group_IT_number 83
_symmetry_cell_setting 'tetragonal'
loop_
_space_group_symop_operation_xyz
x,y,z
-y,x,z
-x,-y,z
y,-x,z
-x,-y,-z
y,-x,-z
x,y,-z
-y,x,-z
loop_
_atom_site_type_symbol
_atom_site_label
_atom_site_fract_x
_atom_site_fract_y
_atom_site_fract_z
Si Si1 0.331121 0.695721 0.146091
Si Si2 0.524764 0.094386 0.348171
Si Si3 0.509354 0.358850 0.500000
Si Si4 0.121467 0.940600 0.656629
Si Si5 0.734368 0.487449 0.767052
Si Si6 0.713635 0.161177 0.652162
O O1 0.310529 0.596941 0.178398
O O2 0.433752 0.710536 0.137274
O O3 0.287204 0.754171 0.257406
O O4 0.294347 0.716934 0.000000
O O5 0.494706 0.105496 0.500000
O O6 0.475912 0.162751 0.253196
O O7 0.627067 0.106240 0.333993
O O8 0.500000 0.000000 0.295937
O O9 0.590759 0.420675 0.500000
O O10 0.517470 0.298930 0.625194
O O11 0.121835 0.941653 0.500000
O O12 0.209257 0.897934 0.707769
O O13 0.039044 0.885962 0.708069
O O14 0.728531 0.189876 0.500000
#
# Coordination Sequence:
#
# PCOD8302903 Si02
#       6
#     8   8   4   8   8   8
#     4  11  24  38  53  75 106 143 180 218 261 308
#     4   9  18  31  50  78 109 139 172 219 263 306
#     4  11  20  32  53  86 112 138 167 214 268 317
#     4   8  14  27  50  81 112 135 163 216 277 324
#     4  11  21  35  56  76 110 138 178 214 264 314
#     4   9  19  33  53  77 104 137 179 218 262 316
#
# _framework density 17.991558999999999
#
# number of rings (size 3 to 8) (size 9 to 14) (size 15 to 20)
#    0.000    2.273    2.727    1.091    2.545    1.818 
#    0.000    4.545    0.000   19.091    0.000    1.273 
#    0.000    0.000    0.000    0.000    0.000    0.000 
#
# Total GULP energy -545496.947001 kJ/mol
# GULP energy per Si atom -12397.657886 kJ/mol
# Density = 1.795061 g / cm^3
# Si number density = 17.991559 Si / 1000 Ang^3
#
#
#
# Elastic Constant Matrix: (Units=GPa)
#
#
# Indices 1 2 3 4 5 6 
#
# 1 94.9402 34.7101 15.7269 0.0000 0.0000 -12.4846
# 2 34.7101 94.9402 15.7269 0.0000 0.0000 12.4846
# 3 15.7269 15.7269 63.0434 0.0000 0.0000 0.0000
# 4 0.0000 0.0000 0.0000 12.0588 0.0000 0.0000
# 5 0.0000 0.0000 0.0000 0.0000 12.0588 0.0000
# 6 -12.4846 12.4846 0.0000 0.0000 0.0000 31.3991
#
#
#
# Elastic Compliance Matrix: (Units=1/GPa)
#
#
# Indices 1 2 3 4 5 6 
#
# 1 0.014045 -0.005835 -0.002048 0.000000 0.000000 0.007904
# 2 -0.005835 0.014045 -0.002048 0.000000 0.000000 -0.007904
# 3 -0.002048 -0.002048 0.016884 0.000000 0.000000 0.000000
# 4 0.000000 0.000000 0.000000 0.082927 0.000000 0.000000
# 5 0.000000 0.000000 0.000000 0.000000 0.082927 0.000000
# 6 0.007904 -0.007904 0.000000 0.000000 0.000000 0.038134
#
#
# Mechanical properties :
#
#
# Convention : Reuss Voigt Hill
#
# Bulk Modulus (GPa) = 39.82237 42.80575 41.31406
# Shear Modulus (GPa) = 18.03787 23.55400 20.79593
#
# Velocity S-wave (km/s) = 3.16978 3.62217 3.40350
# Velocity P-wave (km/s) = 5.96478 6.42941 6.20145
#
# Compressibility (1/GPa) = 0.02511152
#
# Stress axis : x y z
#
# Youngs Moduli (GPa) = 71.20012 71.20012 59.22797
#
# Poissons Ratio (x) = 0.41545 0.12130
# Poissons Ratio (y) = 0.41545 0.12130
# Poissons Ratio (z) = 0.14582 0.14582
#
# Static dielectric constant tensor:
#      x y z
#    x 3.438670 0.000000 0.000000 
#    y 0.000000 3.438670 0.000000 
#    z 0.000000 0.000000 3.092380 
# 
# 
# High freq. dielectric constant tensor:
#      x y z
#    x 1.696870 0.000000 0.000000 
#    y 0.000000 1.696870 0.000000 
#    z 0.000000 0.000000 1.664680 
# 
# From -- ./inp_files/1721.got.cif
#   From: 2010.03.12/outbox.cif.g09.slc.cpg/sg83_1_cif.got.tgz:1721.got - 2010.04.08 20:05:18.
