data_PCOD8302984
_publ_section_title
;
Structure prediction by ZEFSAII (Michael W. Deem and Ramdas Pophale) SiO2 
 PCOD8302984
Probable space group: P 4/M
;
_chemical_formula_sum "Si O2"
_cell_formula_units_Z 48
_cell_length_a 8.197599
_cell_length_b 8.197599
_cell_length_c 31.182489
_cell_angle_alpha 90.000000
_cell_angle_beta 90.000000
_cell_angle_gamma 90.000000
_cell_volume 2095.482886
_symmetry_space_group_name_H-M "P 4/M"
_symmetry_group_IT_number 83
_symmetry_cell_setting 'tetragonal'
loop_
_space_group_symop_operation_xyz
x,y,z
-y,x,z
-x,-y,z
y,-x,z
-x,-y,-z
y,-x,-z
x,y,-z
-y,x,-z
loop_
_atom_site_type_symbol
_atom_site_label
_atom_site_fract_x
_atom_site_fract_y
_atom_site_fract_z
Si Si1 0.747661 0.093099 0.250194
Si Si2 0.754755 0.586546 0.828750
Si Si3 0.904064 0.749626 0.000000
Si Si4 0.746181 0.095237 0.092410
Si Si5 0.880252 0.758553 0.414019
Si Si6 0.606904 0.253660 0.330786
Si Si7 0.260063 0.374995 0.500000
O O1 0.622407 0.134033 0.212338
O O2 0.660946 0.122201 0.295602
O O3 0.905364 0.206619 0.246281
O O4 0.600097 0.704576 0.827639
O O5 0.858624 0.615518 0.871714
O O6 0.870634 0.659261 0.954447
O O7 0.091696 0.794679 0.000000
O O8 0.906973 0.205523 0.097596
O O9 0.821875 0.634864 0.377486
O O10 0.845266 0.674684 0.459136
O O11 0.072414 0.784545 0.409532
O O12 0.711262 0.417027 0.324820
O O13 0.431720 0.282943 0.500000
#
# Coordination Sequence:
#
# PCOD8302984 Si02
#       7
#     8   8   4   8   8   8   4
#     4  11  24  41  62  88 114 143 185 234 282 335
#     4  11  24  39  54  77 111 149 187 227 275 332
#     4   7  12  26  50  79 108 136 172 223 276 325
#     4   9  17  32  56  83 108 138 180 228 277 330
#     4  11  24  41  62  90 122 157 200 245 288 340
#     4  11  24  41  62  90 122 155 192 233 280 337
#     4  11  24  41  62  90 122 157 200 247 296 350
#
# _framework density 22.906414000000002
#
# number of rings (size 3 to 8) (size 9 to 14) (size 15 to 20)
#    0.000    1.667    0.000    5.500    0.000   15.333 
#    0.000    0.833    0.000    4.000    0.000    0.000 
#    0.000    0.000    0.000    0.000    0.000    0.000 
#
# Total GULP energy -595283.293592 kJ/mol
# GULP energy per Si atom -12401.735283 kJ/mol
# Density = 2.285428 g / cm^3
# Si number density = 22.906414 Si / 1000 Ang^3
#
#
#
# Elastic Constant Matrix: (Units=GPa)
#
#
# Indices 1 2 3 4 5 6 
#
# 1 25.6551 -5.9199 11.9766 0.0000 0.0000 -0.5615
# 2 -5.9199 25.6551 11.9766 0.0000 0.0000 0.5615
# 3 11.9766 11.9766 141.1405 0.0000 0.0000 0.0000
# 4 0.0000 0.0000 0.0000 152.8215 0.0000 0.0000
# 5 0.0000 0.0000 0.0000 0.0000 152.8215 0.0000
# 6 -0.5615 0.5615 0.0000 0.0000 0.0000 33.6313
#
#
#
# Elastic Compliance Matrix: (Units=1/GPa)
#
#
# Indices 1 2 3 4 5 6 
#
# 1 0.044089 0.012400 -0.004793 0.000000 0.000000 0.000529
# 2 0.012400 0.044089 -0.004793 0.000000 0.000000 -0.000529
# 3 -0.004793 -0.004793 0.007899 0.000000 0.000000 0.000000
# 4 0.000000 0.000000 0.000000 0.006544 0.000000 0.000000
# 5 0.000000 0.000000 0.000000 0.000000 0.006544 0.000000
# 6 0.000529 -0.000529 0.000000 0.000000 0.000000 0.029752
#
#
# Mechanical properties :
#
#
# Convention : Reuss Voigt Hill
#
# Bulk Modulus (GPa) = 9.83258 25.39080 17.61169
# Shear Modulus (GPa) = 29.90588 79.48267 54.69428
#
# Velocity S-wave (km/s) = 3.61718 5.89697 4.89174
# Velocity P-wave (km/s) = 4.66339 7.58118 6.29370
#
# Compressibility (1/GPa) = 0.10170271
#
# Stress axis : x y z
#
# Youngs Moduli (GPa) = 22.68130 22.68130 126.60411
#
# Poissons Ratio (x) = -0.28124 0.60687
# Poissons Ratio (y) = -0.28124 0.60687
# Poissons Ratio (z) = 0.10872 0.10872
#
# Static dielectric constant tensor:
#      x y z
#    x 4.042570 0.000000 0.000000 
#    y 0.000000 4.042570 0.000000 
#    z 0.000000 0.000000 4.375720 
# 
# 
# High freq. dielectric constant tensor:
#      x y z
#    x 1.902520 0.000000 0.000000 
#    y 0.000000 1.902520 0.000000 
#    z 0.000000 0.000000 1.923030 
# 
# From -- ./inp_files/3490.got.cif
#   From: 2010.03.12/outbox.cif.g09.slc.cpg/sg83_2_cif.got.tgz:3490.got - 2010.04.08 20:05:18.
