data_PCOD8302131
_publ_section_title
;
Structure prediction by ZEFSAII (Michael W. Deem and Ramdas Pophale) SiO2 
 PCOD8302131
Probable space group: I 4
;
_chemical_formula_sum "Si O2"
_cell_formula_units_Z 36
_cell_length_a 7.959538
_cell_length_b 7.959538
_cell_length_c 24.471705
_cell_angle_alpha 90.000000
_cell_angle_beta 90.000000
_cell_angle_gamma 90.000000
_cell_volume 1550.386398
_symmetry_space_group_name_H-M "I 4"
_symmetry_group_IT_number 79
_symmetry_cell_setting 'tetragonal'
loop_
_space_group_symop_operation_xyz
x,y,z
-y,x,z
-x,-y,z
y,-x,z
1/2+x,1/2+y,1/2+z
1/2-y,1/2+x,1/2+z
1/2-x,1/2-y,1/2+z
1/2+y,1/2-x,1/2+z
loop_
_atom_site_type_symbol
_atom_site_label
_atom_site_fract_x
_atom_site_fract_y
_atom_site_fract_z
Si Si1 0.411285 0.763398 0.281810
Si Si2 0.000000 0.500000 0.871392
Si Si3 0.260883 0.903681 0.175264
Si Si4 0.096319 0.739117 0.567520
Si Si5 0.588715 0.763398 0.460974
O O1 0.289678 0.605211 0.284920
O O2 0.379941 0.864182 0.226304
O O3 0.378888 0.885761 0.333237
O O4 0.121112 0.385761 0.909547
O O5 0.368308 0.868308 0.121392
O O6 0.097715 0.787073 0.176597
O O7 0.135818 0.620059 0.516480
O O8 0.902285 0.787073 0.566187
O O9 0.394789 0.710322 0.457863
#
# Coordination Sequence:
#
# PCOD8302131 Si02
#       5
#     8   4   8   8   8
#     4  11  24  43  68  98 132 175 225 277 342 415
#     4  12  24  42  66  94 128 170 220 280 336 398
#     4  11  24  42  66  99 137 177 224 280 344 412
#     4  11  24  42  66  99 137 177 224 280 344 412
#     4  11  24  43  68  98 132 175 225 277 342 415
#
# _framework density 23.220016000000001
#
# number of rings (size 3 to 8) (size 9 to 14) (size 15 to 20)
#    0.000    0.889    0.000    6.667    0.000    9.778 
#    0.000    0.000    0.000    2.667    0.000    0.000 
#    0.000    0.000    0.000    0.000    0.000    0.000 
#
# Total GULP energy -223302.979800 kJ/mol
# GULP energy per Si atom -12405.721100 kJ/mol
# Density = 2.316717 g / cm^3
# Si number density = 23.220016 Si / 1000 Ang^3
#
#
#
# Elastic Constant Matrix: (Units=GPa)
#
#
# Indices 1 2 3 4 5 6 
#
# 1 109.0575 32.7019 62.8846 0.0000 0.0000 0.0000
# 2 32.7019 109.0576 62.8846 0.0000 0.0000 0.0000
# 3 62.8846 62.8846 229.8133 0.0000 0.0000 0.0000
# 4 0.0000 0.0000 0.0000 50.6747 0.0000 0.0000
# 5 0.0000 0.0000 0.0000 0.0000 50.6747 0.0000
# 6 0.0000 0.0000 0.0000 0.0000 0.0000 37.9305
#
#
#
# Elastic Compliance Matrix: (Units=1/GPa)
#
#
# Indices 1 2 3 4 5 6 
#
# 1 0.011206 -0.001890 -0.002549 0.000000 0.000000 0.000000
# 2 -0.001890 0.011206 -0.002549 0.000000 0.000000 0.000000
# 3 -0.002549 -0.002549 0.005746 0.000000 0.000000 0.000000
# 4 0.000000 0.000000 0.000000 0.019734 0.000000 0.000000
# 5 0.000000 0.000000 0.000000 0.000000 0.019734 0.000000
# 6 0.000000 0.000000 0.000000 0.000000 0.000000 0.026364
#
#
# Mechanical properties :
#
#
# Convention : Reuss Voigt Hill
#
# Bulk Modulus (GPa) = 70.51428 84.98563 77.74995
# Shear Modulus (GPa) = 44.36767 47.15313 45.76040
#
# Velocity S-wave (km/s) = 4.37596 4.51123 4.44411
# Velocity P-wave (km/s) = 7.48103 7.98840 7.73887
#
# Compressibility (1/GPa) = 0.01418152
#
# Stress axis : x y z
#
# Youngs Moduli (GPa) = 89.23638 89.23640 174.02198
#
# Poissons Ratio (x) = 0.16869 0.44360
# Poissons Ratio (y) = 0.16869 0.44360
# Poissons Ratio (z) = 0.22747 0.22747
#
# Static dielectric constant tensor:
#      x y z
#    x 4.241190 0.000000 0.000000 
#    y 0.000000 4.241190 0.000000 
#    z 0.000000 0.000000 4.356850 
# 
# 
# High freq. dielectric constant tensor:
#      x y z
#    x 1.926240 0.000000 0.000000 
#    y 0.000000 1.926240 0.000000 
#    z 0.000000 0.000000 1.934340 
# 
# From -- ./inp_files/1723.got.cif
#   From: 2010.03.12/outbox.cif.g09.slc.cpg/sg79_cif.got.tgz:1723.got - 2010.04.16 16:38:49.
