data_PCOD8302940
_publ_section_title
;
Structure prediction by ZEFSAII (Michael W. Deem and Ramdas Pophale) SiO2 
 PCOD8302940
Probable space group: P 4/M
;
_chemical_formula_sum "Si O2"
_cell_formula_units_Z 48
_cell_length_a 8.574451
_cell_length_b 8.574451
_cell_length_c 31.272459
_cell_angle_alpha 90.000000
_cell_angle_beta 90.000000
_cell_angle_gamma 90.000000
_cell_volume 2299.189024
_symmetry_space_group_name_H-M "P 4/M"
_symmetry_group_IT_number 83
_symmetry_cell_setting 'tetragonal'
loop_
_space_group_symop_operation_xyz
x,y,z
-y,x,z
-x,-y,z
y,-x,z
-x,-y,-z
y,-x,-z
x,y,-z
-y,x,-z
loop_
_atom_site_type_symbol
_atom_site_label
_atom_site_fract_x
_atom_site_fract_y
_atom_site_fract_z
Si Si1 0.892064 0.231180 0.548842
Si Si2 0.756170 0.913282 0.882091
Si Si3 0.738614 0.402948 0.377203
Si Si4 0.584826 0.741005 0.048205
Si Si5 0.239075 0.092533 0.789999
Si Si6 0.098208 0.759835 0.697674
O O1 0.867738 0.284160 0.500000
O O2 0.829191 0.368656 0.578768
O O3 0.073484 0.202800 0.558501
O O4 0.631577 0.876184 0.918848
O O5 0.673528 0.877811 0.835433
O O6 0.907629 0.804472 0.886869
O O7 0.701093 0.584157 0.375098
O O8 0.851169 0.363994 0.337674
O O9 0.407008 0.695143 0.056104
O O10 0.607781 0.804174 0.000000
O O11 0.323181 0.128362 0.744511
O O12 0.086946 0.196644 0.790047
O O13 0.916709 0.800696 0.692281
#
# Coordination Sequence:
#
# PCOD8302940 Si02
#       6
#     8   8   8   8   8   8
#     4   9  19  37  60  83 103 125 161 208 251 293
#     4   9  17  30  50  76 102 124 151 194 247 298
#     4  11  24  37  48  70 107 143 170 200 242 290
#     4   9  19  35  50  64  89 128 169 203 237 283
#     4   7  12  26  48  73  99 124 152 193 244 292
#     4   9  17  32  56  79  96 123 167 210 244 285
#
# _framework density 20.876927999999999
#
# number of rings (size 3 to 8) (size 9 to 14) (size 15 to 20)
#    0.000    3.000    0.000    4.000    0.000    6.000 
#    0.000    6.667    0.000    8.000    0.000    0.000 
#    0.000    0.000    0.000    0.000    0.000    0.000 
#
# Total GULP energy -594759.452424 kJ/mol
# GULP energy per Si atom -12390.821926 kJ/mol
# Density = 2.082941 g / cm^3
# Si number density = 20.876928 Si / 1000 Ang^3
#
#
#
# Elastic Constant Matrix: (Units=GPa)
#
#
# Indices 1 2 3 4 5 6 
#
# 1 14.6152 -6.1282 10.2129 0.0000 0.0000 1.2179
# 2 -6.1282 14.6152 10.2129 0.0000 0.0000 -1.2179
# 3 10.2129 10.2129 139.7989 0.0000 0.0000 0.0000
# 4 0.0000 0.0000 0.0000 -3.7473 0.0000 0.0000
# 5 0.0000 0.0000 0.0000 0.0000 -3.7473 0.0000
# 6 1.2179 -1.2179 0.0000 0.0000 0.0000 29.4929
#
#
#
# Elastic Compliance Matrix: (Units=1/GPa)
#
#
# Indices 1 2 3 4 5 6 
#
# 1 0.095703 0.047260 -0.010444 0.000000 0.000000 -0.002000
# 2 0.047260 0.095703 -0.010444 0.000000 0.000000 0.002000
# 3 -0.010444 -0.010444 0.008679 0.000000 0.000000 0.000000
# 4 0.000000 0.000000 0.000000 -0.266860 0.000000 0.000000
# 5 0.000000 0.000000 0.000000 0.000000 -0.266860 0.000000
# 6 -0.002000 0.002000 0.000000 0.000000 0.000000 0.034072
#
#
# Mechanical properties :
#
#
# Convention : Reuss Voigt Hill
#
# Bulk Modulus (GPa) = 3.95522 21.95829 12.95676
# Shear Modulus (GPa) = -18.65459 14.71512 -1.96974
#
# Velocity S-wave (km/s) = -2.99247 2.65778 -0.97239
# Velocity P-wave (km/s) = 3.16879 4.46757 2.22688
#
# Compressibility (1/GPa) = 0.25283031
#
# Stress axis : x y z
#
# Youngs Moduli (GPa) = 10.44895 10.44895 115.21908
#
# Poissons Ratio (x) = -0.49382 1.20337
# Poissons Ratio (y) = -0.49382 1.20337
# Poissons Ratio (z) = 0.10913 0.10913
#
# Static dielectric constant tensor:
#      x y z
#    x 3.407560 0.000000 0.000000 
#    y 0.000000 3.407560 0.000000 
#    z 0.000000 0.000000 4.229330 
# 
# 
# High freq. dielectric constant tensor:
#      x y z
#    x 1.789110 0.000000 0.000000 
#    y 0.000000 1.789110 0.000000 
#    z 0.000000 0.000000 1.840830 
# 
# From -- ./inp_files/3413.got.cif
#   From: 2010.03.12/outbox.cif.g09.slc.cpg/sg83_2_cif.got.tgz:3413.got - 2010.04.08 20:05:18.
