data_PCOD8302665
_publ_section_title
;
Structure prediction by ZEFSAII (Michael W. Deem and Ramdas Pophale) SiO2 
 PCOD8302665
Probable space group: P 4/M
;
_chemical_formula_sum "Si O2"
_cell_formula_units_Z 44
_cell_length_a 15.801520
_cell_length_b 15.801520
_cell_length_c 10.816497
_cell_angle_alpha 90.000000
_cell_angle_beta 90.000000
_cell_angle_gamma 90.000000
_cell_volume 2700.749874
_symmetry_space_group_name_H-M "P 4/M"
_symmetry_group_IT_number 83
_symmetry_cell_setting 'tetragonal'
loop_
_space_group_symop_operation_xyz
x,y,z
-y,x,z
-x,-y,z
y,-x,z
-x,-y,-z
y,-x,-z
x,y,-z
-y,x,-z
loop_
_atom_site_type_symbol
_atom_site_label
_atom_site_fract_x
_atom_site_fract_y
_atom_site_fract_z
Si Si1 0.180798 0.153460 0.143250
Si Si2 0.022923 0.140463 0.500000
Si Si3 0.557525 0.619752 0.852651
Si Si4 0.644838 0.783012 0.142747
Si Si5 0.591284 0.967084 0.143720
Si Si6 0.768371 0.017815 0.246682
O O1 0.261655 0.203308 0.200331
O O2 0.096991 0.206869 0.162395
O O3 0.175121 0.061652 0.205208
O O4 0.198096 0.136932 0.000000
O O5 0.096117 0.069135 0.500000
O O6 0.035993 0.204743 0.386651
O O7 0.460840 0.611561 0.806404
O O8 0.598331 0.703870 0.792082
O O9 0.556892 0.623875 0.000000
O O10 0.587944 0.866249 0.160564
O O11 0.655504 0.759926 0.000000
O O12 0.500000 0.000000 0.189688
O O13 0.667543 0.004160 0.227817
O O14 0.607655 0.991661 0.000000
#
# Coordination Sequence:
#
# PCOD8302665 Si02
#       6
#     8   4   8   8   8   8
#     4  10  19  30  46  70  98 126 160 204 250 304
#     4  11  22  38  53  72  98 134 173 216 260 301
#     4   8  13  21  34  54  81 114 152 190 224 265
#     4   8  15  26  39  59  89 123 156 189 232 287
#     4   9  18  32  49  71 100 132 164 202 251 311
#     4  11  20  34  50  71  98 128 169 206 256 299
#
# _framework density 16.291772000000002
#
# number of rings (size 3 to 8) (size 9 to 14) (size 15 to 20)
#    0.000    2.636    1.818    3.273    0.000    1.818 
#    0.000    6.818    0.000    0.000    0.000    0.000 
#    0.000    0.000    0.000    0.000    0.000   39.818 
#
# Total GULP energy -545326.760679 kJ/mol
# GULP energy per Si atom -12393.790015 kJ/mol
# Density = 1.625469 g / cm^3
# Si number density = 16.291772 Si / 1000 Ang^3
#
#
#
# Elastic Constant Matrix: (Units=GPa)
#
#
# Indices 1 2 3 4 5 6 
#
# 1 112.0882 57.4885 9.5345 0.0000 0.0000 -11.8070
# 2 57.4885 112.0882 9.5345 0.0000 0.0000 11.8070
# 3 9.5345 9.5345 34.9601 0.0000 0.0000 0.0000
# 4 0.0000 0.0000 0.0000 12.0484 0.0000 0.0000
# 5 0.0000 0.0000 0.0000 0.0000 12.0484 0.0000
# 6 -11.8070 11.8070 0.0000 0.0000 0.0000 28.1684
#
#
#
# Elastic Compliance Matrix: (Units=1/GPa)
#
#
# Indices 1 2 3 4 5 6 
#
# 1 0.014227 -0.008143 -0.001659 0.000000 0.000000 0.009377
# 2 -0.008143 0.014227 -0.001659 0.000000 0.000000 -0.009377
# 3 -0.001659 -0.001659 0.029509 0.000000 0.000000 0.000000
# 4 0.000000 0.000000 0.000000 0.082999 0.000000 0.000000
# 5 0.000000 0.000000 0.000000 0.000000 0.082999 0.000000
# 6 0.009377 -0.009377 0.000000 0.000000 0.000000 0.043361
#
#
# Mechanical properties :
#
#
# Convention : Reuss Voigt Hill
#
# Bulk Modulus (GPa) = 28.53908 45.80570 37.17239
# Shear Modulus (GPa) = 16.56041 22.62498 19.59269
#
# Velocity S-wave (km/s) = 3.19170 3.73062 3.47163
# Velocity P-wave (km/s) = 5.58015 6.83620 6.23986
#
# Compressibility (1/GPa) = 0.03503968
#
# Stress axis : x y z
#
# Youngs Moduli (GPa) = 70.28865 70.28865 33.88791
#
# Poissons Ratio (x) = 0.57239 0.05623
# Poissons Ratio (y) = 0.57239 0.05623
# Poissons Ratio (z) = 0.11662 0.11662
#
# Static dielectric constant tensor:
#      x y z
#    x 3.250610 0.000000 0.000000 
#    y 0.000000 3.250610 0.000000 
#    z 0.000000 0.000000 2.596480 
# 
# 
# High freq. dielectric constant tensor:
#      x y z
#    x 1.633470 0.000000 0.000000 
#    y 0.000000 1.633470 0.000000 
#    z 0.000000 0.000000 1.566590 
# 
# From -- ./inp_files/1736.got.cif
#   From: 2010.03.12/outbox.cif.g09.slc.cpg/sg83_1_cif.got.tgz:1736.got - 2010.04.08 20:05:18.
