data_PCOD8302107
_publ_section_title
;
Structure prediction by ZEFSAII (Michael W. Deem and Ramdas Pophale) SiO2 
 PCOD8302107
Probable space group: I 4
;
_chemical_formula_sum "Si O2"
_cell_formula_units_Z 60
_cell_length_a 13.850215
_cell_length_b 13.850215
_cell_length_c 14.738621
_cell_angle_alpha 90.000000
_cell_angle_beta 90.000000
_cell_angle_gamma 90.000000
_cell_volume 2827.286903
_symmetry_space_group_name_H-M "I 4"
_symmetry_group_IT_number 79
_symmetry_cell_setting 'tetragonal'
loop_
_space_group_symop_operation_xyz
x,y,z
-y,x,z
-x,-y,z
y,-x,z
1/2+x,1/2+y,1/2+z
1/2-y,1/2+x,1/2+z
1/2-x,1/2-y,1/2+z
1/2+y,1/2-x,1/2+z
loop_
_atom_site_type_symbol
_atom_site_label
_atom_site_fract_x
_atom_site_fract_y
_atom_site_fract_z
Si Si1 0.123198 0.669424 0.386030
Si Si2 0.936613 0.786716 0.147222
Si Si3 0.000000 0.500000 0.453482
Si Si4 0.727786 0.222891 0.704356
Si Si5 0.018899 0.846881 0.329931
Si Si6 0.390478 0.393917 0.273640
Si Si7 0.166349 0.411475 0.554837
Si Si8 0.840691 0.828300 0.967551
O O1 0.073430 0.564240 0.393716
O O2 0.164578 0.683817 0.286447
O O3 0.039047 0.751515 0.390773
O O4 0.211671 0.678454 0.458032
O O5 0.839035 0.763442 0.202559
O O6 0.905410 0.849363 0.058228
O O7 0.014055 0.833216 0.218782
O O8 0.990749 0.691732 0.109958
O O9 0.059694 0.425028 0.515312
O O10 0.836009 0.186920 0.715715
O O11 0.684363 0.174074 0.615267
O O12 0.917065 0.893047 0.356735
O O13 0.498027 0.365778 0.245511
O O14 0.392165 0.371348 0.380599
O O15 0.242173 0.390264 0.474030
#
# Coordination Sequence:
#
# PCOD8302107 Si02
#       8
#     8   8   4   8   8   8   8   8
#     4  11  23  43  59  97 135 177 217 275 341 406
#     4  11  19  42  64  96 127 168 222 275 335 398
#     4  12  28  40  66  98 132 180 240 276 334 420
#     4  10  23  41  66  93 134 174 214 278 346 390
#     4  11  22  38  65  98 132 171 219 265 334 401
#     4  10  22  40  64  96 125 171 220 267 332 409
#     4  11  23  42  64  98 127 175 225 281 337 396
#     4  10  22  40  66  91 136 168 215 280 345 388
#
# _framework density 21.221758000000001
#
# number of rings (size 3 to 8) (size 9 to 14) (size 15 to 20)
#    0.000    1.333    4.000    1.600    3.733    1.600 
#    0.000    1.333    0.000    0.000    0.000    0.000 
#    0.000    0.000    0.000    0.000    0.000    0.000 
#
# Total GULP energy -371779.483421 kJ/mol
# GULP energy per Si atom -12392.649447 kJ/mol
# Density = 2.117346 g / cm^3
# Si number density = 21.221758 Si / 1000 Ang^3
#
#
#
# Elastic Constant Matrix: (Units=GPa)
#
#
# Indices 1 2 3 4 5 6 
#
# 1 -63.8327 200.1348 16.1749 0.0000 0.0000 57.3468
# 2 200.1348 -63.8325 16.1750 0.0001 0.0000 -57.3468
# 3 16.1749 16.1750 36.9844 0.0000 0.0000 0.0000
# 4 0.0000 0.0001 0.0000 26.6997 0.0000 0.0000
# 5 0.0000 0.0000 0.0000 0.0000 26.6996 0.0000
# 6 57.3468 -57.3468 0.0000 0.0000 0.0000 14.3578
#
#
#
# Elastic Compliance Matrix: (Units=1/GPa)
#
#
# Indices 1 2 3 4 5 6 
#
# 1 0.003401 0.004786 -0.003580 0.000000 0.000000 0.005531
# 2 0.004786 0.003401 -0.003580 0.000000 0.000000 -0.005532
# 3 -0.003580 -0.003580 0.030170 0.000000 0.000000 0.000000
# 4 0.000000 0.000000 0.000000 0.037454 0.000000 0.000000
# 5 0.000000 0.000000 0.000000 0.000000 0.037454 0.000000
# 6 0.005531 -0.005532 0.000000 0.000000 0.000000 0.025461
#
#
# Mechanical properties :
#
#
# Convention : Reuss Voigt Hill
#
# Bulk Modulus (GPa) = 31.03497 41.58762 36.31130
# Shear Modulus (GPa) = 32.71593 -7.99293 12.36150
#
# Velocity S-wave (km/s) = 3.93061 -1.94282 2.41610
# Velocity P-wave (km/s) = 5.93763 3.82184 4.99309
#
# Compressibility (1/GPa) = 0.03222172
#
# Stress axis : x y z
#
# Youngs Moduli (GPa) = 294.05429 294.05403 33.14544
#
# Poissons Ratio (x) = -1.40724 0.11867
# Poissons Ratio (y) = -1.40724 0.11867
# Poissons Ratio (z) = 1.05280 1.05279
#
# Static dielectric constant tensor:
#      x y z
#    x 3.999310 0.000000 0.000000 
#    y 0.000000 3.999310 0.000000 
#    z 0.000000 0.000000 3.769880 
# 
# 
# High freq. dielectric constant tensor:
#      x y z
#    x 1.833890 0.000000 0.000000 
#    y 0.000000 1.833890 0.000000 
#    z 0.000000 0.000000 1.812390 
# 
# From -- ./inp_files/1455.got.cif
#   From: 2010.03.12/outbox.cif.g09.slc.cpg/sg79_cif.got.tgz:1455.got - 2010.04.16 16:38:49.
