data_PCOD8302093
_publ_section_title
;
Structure prediction by ZEFSAII (Michael W. Deem and Ramdas Pophale) SiO2 
 PCOD8302093
Probable space group: I 4
;
_chemical_formula_sum "Si O2"
_cell_formula_units_Z 52
_cell_length_a 16.511681
_cell_length_b 16.511681
_cell_length_c 8.451460
_cell_angle_alpha 90.000000
_cell_angle_beta 90.000000
_cell_angle_gamma 90.000000
_cell_volume 2304.168948
_symmetry_space_group_name_H-M "I 4"
_symmetry_group_IT_number 79
_symmetry_cell_setting 'tetragonal'
loop_
_space_group_symop_operation_xyz
x,y,z
-y,x,z
-x,-y,z
y,-x,z
1/2+x,1/2+y,1/2+z
1/2-y,1/2+x,1/2+z
1/2-x,1/2-y,1/2+z
1/2+y,1/2-x,1/2+z
loop_
_atom_site_type_symbol
_atom_site_label
_atom_site_fract_x
_atom_site_fract_y
_atom_site_fract_z
Si Si1 0.454808 0.375793 0.157230
Si Si2 0.500000 0.000000 0.138423
Si Si3 0.733169 0.564126 0.724010
Si Si4 0.424567 0.889853 0.888399
Si Si5 0.216298 0.300986 0.523569
Si Si6 0.749097 0.365954 0.339746
Si Si7 0.306364 0.602955 0.832363
O O1 0.547844 0.396832 0.174722
O O2 0.433614 0.317805 0.304331
O O3 0.443611 0.335422 0.987578
O O4 0.424408 0.029597 0.237187
O O5 0.530559 0.077440 0.041629
O O6 0.792505 0.569536 0.877224
O O7 0.779181 0.602175 0.567670
O O8 0.712146 0.468549 0.703068
O O9 0.656640 0.621257 0.762084
O O10 0.330345 0.914527 0.884991
O O11 0.308021 0.274210 0.485461
O O12 0.190205 0.255833 0.683627
O O13 0.155256 0.274625 0.380604
#
# Coordination Sequence:
#
# PCOD8302093 Si02
#       7
#     8   4   8   8   8   8   8
#     4  10  21  39  65  94 133 175 226 271 336 409
#     4  10  24  44  66  98 134 168 236 292 344 426
#     4  11  24  40  71  99 136 180 227 282 350 406
#     4  10  23  45  66  98 131 177 223 285 355 408
#     4  10  21  44  65 100 133 175 232 279 341 413
#     4  10  22  43  68  95 132 177 228 275 343 413
#     4  11  21  41  68 101 133 176 230 281 330 423
#
# _framework density 22.567789000000001
#
# number of rings (size 3 to 8) (size 9 to 14) (size 15 to 20)
#    0.000    1.692    4.615    0.000    6.462    1.538 
#    8.308    0.000    0.000    0.000    0.000    0.000 
#    0.000    0.000    0.000    0.000    0.000    0.000 
#
# Total GULP energy -322250.030192 kJ/mol
# GULP energy per Si atom -12394.231930 kJ/mol
# Density = 2.251642 g / cm^3
# Si number density = 22.567789 Si / 1000 Ang^3
#
#
#
# Elastic Constant Matrix: (Units=GPa)
#
#
# Indices 1 2 3 4 5 6 
#
# 1 83.8007 74.4110 13.5665 0.0000 0.0000 -60.5483
# 2 74.4110 83.8007 13.5665 0.0000 0.0000 60.5483
# 3 13.5665 13.5665 43.4352 0.0000 0.0000 0.0000
# 4 0.0000 0.0000 0.0000 -3.1363 0.0000 0.0000
# 5 0.0000 0.0000 0.0000 0.0000 -3.1363 0.0000
# 6 -60.5483 60.5483 0.0000 0.0000 0.0000 -22.2269
#
#
#
# Elastic Compliance Matrix: (Units=1/GPa)
#
#
# Indices 1 2 3 4 5 6 
#
# 1 0.004813 0.001865 -0.002086 0.000000 0.000000 -0.008029
# 2 0.001865 0.004813 -0.002086 0.000000 0.000000 0.008029
# 3 -0.002086 -0.002086 0.024326 0.000000 0.000000 0.000000
# 4 0.000000 0.000000 0.000000 -0.318850 0.000000 0.000000
# 5 0.000000 0.000000 0.000000 0.000000 -0.318850 0.000000
# 6 -0.008029 0.008029 0.000000 0.000000 0.000000 -0.001245
#
#
# Mechanical properties :
#
#
# Convention : Reuss Voigt Hill
#
# Bulk Modulus (GPa) = 34.08442 46.01386 40.04914
# Shear Modulus (GPa) = -8.46594 1.59962 -3.43316
#
# Velocity S-wave (km/s) = -1.93894 0.84282 -1.23473
# Velocity P-wave (km/s) = 3.18171 4.62391 3.96887
#
# Compressibility (1/GPa) = 0.02933892
#
# Stress axis : x y z
#
# Youngs Moduli (GPa) = 207.77287 207.77287 41.10851
#
# Poissons Ratio (x) = -0.38759 0.08575
# Poissons Ratio (y) = -0.38759 0.08575
# Poissons Ratio (z) = 0.43340 0.43340
#
# Static dielectric constant tensor:
#      x y z
#    x 4.235950 0.000000 0.000000 
#    y 0.000000 4.235950 0.000000 
#    z 0.000000 0.000000 3.906940 
# 
# 
# High freq. dielectric constant tensor:
#      x y z
#    x 1.893680 0.000000 0.000000 
#    y 0.000000 1.893680 0.000000 
#    z 0.000000 0.000000 1.870510 
# 
# From -- ./inp_files/679.got.cif
#   From: 2010.03.12/outbox.cif.g09.slc.cpg/sg79_cif.got.tgz:679.got - 2010.04.16 16:38:49.
