data_PCOD8302662
_publ_section_title
;
Structure prediction by ZEFSAII (Michael W. Deem and Ramdas Pophale) SiO2 
 PCOD8302662
Probable space group: P 4/M
;
_chemical_formula_sum "Si O2"
_cell_formula_units_Z 52
_cell_length_a 17.097330
_cell_length_b 17.097330
_cell_length_c 10.980730
_cell_angle_alpha 90.000000
_cell_angle_beta 90.000000
_cell_angle_gamma 90.000000
_cell_volume 3209.872643
_symmetry_space_group_name_H-M "P 4/M"
_symmetry_group_IT_number 83
_symmetry_cell_setting 'tetragonal'
loop_
_space_group_symop_operation_xyz
x,y,z
-y,x,z
-x,-y,z
y,-x,z
-x,-y,-z
y,-x,-z
x,y,-z
-y,x,-z
loop_
_atom_site_type_symbol
_atom_site_label
_atom_site_fract_x
_atom_site_fract_y
_atom_site_fract_z
Si Si1 0.357667 0.911499 0.358372
Si Si2 0.499015 0.624245 0.355203
Si Si3 0.373951 0.085878 0.358866
Si Si4 0.080329 0.799263 0.641073
Si Si5 0.114240 0.936893 0.000000
Si Si6 0.495726 0.800333 0.644793
Si Si7 0.808316 0.080980 0.251921
O O1 0.331502 0.903836 0.500000
O O2 0.414575 0.841578 0.318688
O O3 0.284025 0.907364 0.268411
O O4 0.400166 0.995548 0.339203
O O5 0.421822 0.576906 0.310822
O O6 0.498407 0.628050 0.500000
O O7 0.498471 0.712269 0.300746
O O8 0.373130 0.106837 0.500000
O O9 0.286952 0.099013 0.304759
O O10 0.434367 0.147083 0.297349
O O11 0.059125 0.790946 0.500000
O O12 0.153115 0.855039 0.660748
O O13 0.004973 0.835862 0.707198
O O14 0.164422 0.906773 0.114053
O O15 0.030327 0.894912 0.000000
O O16 0.502485 0.797808 0.500000
#
# Coordination Sequence:
#
# PCOD8302662 Si02
#       7
#     8   8   8   8   4   8   8
#     4   9  17  28  43  66  93 118 149 190 234 283
#     4   8  14  23  33  49  78 116 154 185 212 250
#     4   8  15  26  39  59  89 121 149 180 222 276
#     4  10  19  30  45  68  97 124 151 191 243 288
#     4  11  22  38  52  66  85 121 171 208 225 279
#     4   9  15  24  41  62  87 123 157 184 220 272
#     4  11  20  33  47  66  91 121 158 200 238 273
#
# _framework density 16.200021
#
# number of rings (size 3 to 8) (size 9 to 14) (size 15 to 20)
#    0.000    2.692    1.538    3.231    0.000    3.385 
#    0.000    5.385    0.000    0.000    0.000    9.692 
#    0.000    0.000    0.000    0.000    0.000    5.385 
#
# Total GULP energy -644501.359817 kJ/mol
# GULP energy per Si atom -12394.256920 kJ/mol
# Density = 1.616315 g / cm^3
# Si number density = 16.200021 Si / 1000 Ang^3
#
#
#
# Elastic Constant Matrix: (Units=GPa)
#
#
# Indices 1 2 3 4 5 6 
#
# 1 108.3257 63.3619 12.0732 0.0000 0.0000 2.4571
# 2 63.3619 108.3257 12.0732 0.0000 0.0000 -2.4571
# 3 12.0732 12.0732 29.2775 0.0000 0.0000 0.0000
# 4 0.0000 0.0000 0.0000 8.2207 0.0000 0.0000
# 5 0.0000 0.0000 0.0000 0.0000 8.2207 0.0000
# 6 2.4571 -2.4571 0.0000 0.0000 0.0000 23.5801
#
#
#
# Elastic Compliance Matrix: (Units=1/GPa)
#
#
# Indices 1 2 3 4 5 6 
#
# 1 0.014340 -0.008157 -0.002550 0.000000 0.000000 -0.002344
# 2 -0.008157 0.014340 -0.002550 0.000000 0.000000 0.002344
# 3 -0.002550 -0.002550 0.036259 0.000000 0.000000 0.000000
# 4 0.000000 0.000000 0.000000 0.121645 0.000000 0.000000
# 5 0.000000 0.000000 0.000000 0.000000 0.121645 0.000000
# 6 -0.002344 0.002344 0.000000 0.000000 0.000000 0.042897
#
#
# Mechanical properties :
#
#
# Convention : Reuss Voigt Hill
#
# Bulk Modulus (GPa) = 26.02399 46.77171 36.39785
# Shear Modulus (GPa) = 12.80589 18.56568 15.68578
#
# Velocity S-wave (km/s) = 2.81461 3.38898 3.11506
# Velocity P-wave (km/s) = 5.16350 6.65189 5.95438
#
# Compressibility (1/GPa) = 0.03842609
#
# Stress axis : x y z
#
# Youngs Moduli (GPa) = 69.73641 69.73641 27.57953
#
# Poissons Ratio (x) = 0.56881 0.07032
# Poissons Ratio (y) = 0.56881 0.07032
# Poissons Ratio (z) = 0.17781 0.17781
#
# Static dielectric constant tensor:
#      x y z
#    x 3.240770 0.000000 0.000000 
#    y 0.000000 3.240770 0.000000 
#    z 0.000000 0.000000 2.461750 
# 
# 
# High freq. dielectric constant tensor:
#      x y z
#    x 1.630390 0.000000 0.000000 
#    y 0.000000 1.630390 0.000000 
#    z 0.000000 0.000000 1.547940 
# 
# From -- ./inp_files/954.got.cif
#   From: 2010.03.12/outbox.cif.g09.slc.cpg/sg83_1_cif.got.tgz:954.got - 2010.04.08 20:05:18.
