data_PCOD8302888
_publ_section_title
;
Structure prediction by ZEFSAII (Michael W. Deem and Ramdas Pophale) SiO2 
 PCOD8302888
Probable space group: P 4/M
;
_chemical_formula_sum "Si O2"
_cell_formula_units_Z 32
_cell_length_a 11.742241
_cell_length_b 11.742241
_cell_length_c 11.556236
_cell_angle_alpha 90.000000
_cell_angle_beta 90.000000
_cell_angle_gamma 90.000000
_cell_volume 1593.376405
_symmetry_space_group_name_H-M "P 4/M"
_symmetry_group_IT_number 83
_symmetry_cell_setting 'tetragonal'
loop_
_space_group_symop_operation_xyz
x,y,z
-y,x,z
-x,-y,z
y,-x,z
-x,-y,-z
y,-x,-z
x,y,-z
-y,x,-z
loop_
_atom_site_type_symbol
_atom_site_label
_atom_site_fract_x
_atom_site_fract_y
_atom_site_fract_z
Si Si1 0.082433 0.830832 0.000000
Si Si2 0.834995 0.371537 0.872430
Si Si3 0.277401 0.208459 0.500000
Si Si4 0.601586 0.657212 0.698341
Si Si5 0.500000 0.000000 0.699588
Si Si6 0.337410 0.950531 0.500000
O O1 0.150847 0.947817 0.000000
O O2 0.117411 0.758097 0.885670
O O3 0.704779 0.369451 0.826448
O O4 0.908375 0.441389 0.781456
O O5 0.836740 0.430573 0.000000
O O6 0.344251 0.253561 0.610639
O O7 0.277709 0.072718 0.500000
O O8 0.145777 0.242126 0.500000
O O9 0.466176 0.654871 0.679318
O O10 0.411973 0.934199 0.616198
#
# Coordination Sequence:
#
# PCOD8302888 Si02
#       6
#     4   8   4   8   4   4
#     4   9  22  43  62  91 128 173 224 269 324 394
#     4  10  23  41  66  96 128 177 220 273 334 396
#     4  12  24  46  64 104 130 181 220 279 342 401
#     4  11  24  43  68  97 136 177 223 281 340 401
#     4  11  21  46  64 100 129 175 220 286 322 403
#     4  11  26  41  72  94 138 171 228 276 339 406
#
# _framework density 20.083141000000001
#
# number of rings (size 3 to 8) (size 9 to 14) (size 15 to 20)
#    0.750    0.625    2.500    2.625    3.500    6.250 
#    0.000    1.250    0.000    0.000    0.000    0.000 
#    0.000    0.000    0.000    0.000    0.000    0.000 
#
# Total GULP energy -396721.277350 kJ/mol
# GULP energy per Si atom -12397.539917 kJ/mol
# Density = 2.003743 g / cm^3
# Si number density = 20.083141 Si / 1000 Ang^3
#
#
#
# Elastic Constant Matrix: (Units=GPa)
#
#
# Indices 1 2 3 4 5 6 
#
# 1 134.3054 71.8248 53.1703 0.0000 0.0000 -6.1665
# 2 71.8248 134.3054 53.1703 0.0000 0.0000 6.1665
# 3 53.1703 53.1703 136.6111 0.0000 0.0000 0.0000
# 4 0.0000 0.0000 0.0000 73.0454 0.0000 0.0000
# 5 0.0000 0.0000 0.0000 0.0000 73.0454 0.0000
# 6 -6.1665 6.1665 0.0000 0.0000 0.0000 27.6900
#
#
#
# Elastic Compliance Matrix: (Units=1/GPa)
#
#
# Indices 1 2 3 4 5 6 
#
# 1 0.011405 -0.005335 -0.002363 0.000000 0.000000 0.003728
# 2 -0.005335 0.011405 -0.002363 0.000000 0.000000 -0.003728
# 3 -0.002363 -0.002363 0.009159 0.000000 0.000000 0.000000
# 4 0.000000 0.000000 0.000000 0.013690 0.000000 0.000000
# 5 0.000000 0.000000 0.000000 0.000000 0.013690 0.000000
# 6 0.003728 -0.003728 0.000000 0.000000 0.000000 0.037775
#
#
# Mechanical properties :
#
#
# Convention : Reuss Voigt Hill
#
# Bulk Modulus (GPa) = 84.39425 84.61698 84.50562
# Shear Modulus (GPa) = 41.25563 49.89325 45.57444
#
# Velocity S-wave (km/s) = 4.53729 4.98972 4.76887
# Velocity P-wave (km/s) = 8.34044 8.68454 8.51423
#
# Compressibility (1/GPa) = 0.01184915
#
# Stress axis : x y z
#
# Youngs Moduli (GPa) = 87.67705 87.67705 109.18105
#
# Poissons Ratio (x) = 0.46779 0.25795
# Poissons Ratio (y) = 0.46779 0.25795
# Poissons Ratio (z) = 0.20714 0.20714
#
# Static dielectric constant tensor:
#      x y z
#    x 3.652360 0.000000 0.000000 
#    y 0.000000 3.652360 0.000000 
#    z 0.000000 0.000000 3.772010 
# 
# 
# High freq. dielectric constant tensor:
#      x y z
#    x 1.785880 0.000000 0.000000 
#    y 0.000000 1.785880 0.000000 
#    z 0.000000 0.000000 1.789250 
# 
# From -- ./inp_files/1598.got.cif
#   From: 2010.03.12/outbox.cif.g09.slc.cpg/sg83_1_cif.got.tgz:1598.got - 2010.04.08 20:05:18.
