data_PCOD8302084
_publ_section_title
;
Structure prediction by ZEFSAII (Michael W. Deem and Ramdas Pophale) SiO2 
 PCOD8302084
Probable space group: I 4
;
_chemical_formula_sum "Si O2"
_cell_formula_units_Z 60
_cell_length_a 11.618472
_cell_length_b 11.618472
_cell_length_c 20.895224
_cell_angle_alpha 90.000000
_cell_angle_beta 90.000000
_cell_angle_gamma 90.000000
_cell_volume 2820.623128
_symmetry_space_group_name_H-M "I 4"
_symmetry_group_IT_number 79
_symmetry_cell_setting 'tetragonal'
loop_
_space_group_symop_operation_xyz
x,y,z
-y,x,z
-x,-y,z
y,-x,z
1/2+x,1/2+y,1/2+z
1/2-y,1/2+x,1/2+z
1/2-x,1/2-y,1/2+z
1/2+y,1/2-x,1/2+z
loop_
_atom_site_type_symbol
_atom_site_label
_atom_site_fract_x
_atom_site_fract_y
_atom_site_fract_z
Si Si1 0.322404 0.001068 0.008260
Si Si2 0.088850 0.711879 0.582875
Si Si3 0.823903 0.924257 0.218891
Si Si4 0.314399 0.826588 0.613905
Si Si5 0.814403 0.628777 0.844030
Si Si6 0.840717 0.908608 0.454954
Si Si7 0.500000 0.000000 0.399702
Si Si8 0.561217 0.675055 0.399931
O O1 0.392196 0.915651 0.054958
O O2 0.297751 0.119937 0.046855
O O3 0.212971 0.936357 0.976077
O O4 0.394045 0.033551 0.945040
O O5 0.196890 0.753060 0.625885
O O6 0.096201 0.809825 0.529096
O O7 0.964864 0.710017 0.619191
O O8 0.721078 0.897056 0.169670
O O9 0.776188 0.889440 0.288193
O O10 0.940633 0.851157 0.210147
O O11 0.752768 0.653325 0.911734
O O12 0.901899 0.736409 0.843143
O O13 0.891783 0.515383 0.852419
O O14 0.957818 0.845704 0.437628
O O15 0.429691 0.645284 0.387635
#
# Coordination Sequence:
#
# PCOD8302084 Si02
#       8
#     8   8   8   8   8   8   4   8
#     4  11  20  39  64  97 136 177 218 277 331 403
#     4  12  22  38  66 100 139 174 223 282 346 408
#     4  11  27  52  73  95 130 178 239 286 330 403
#     4  12  25  43  67  97 140 182 230 285 339 406
#     4  11  23  42  66  98 132 176 220 284 334 399
#     4  11  21  35  62  98 137 173 212 270 347 407
#     4  10  20  36  62 104 134 164 214 272 342 402
#     4  10  22  38  61  96 136 175 217 268 339 413
#
# _framework density 21.271894
#
# number of rings (size 3 to 8) (size 9 to 14) (size 15 to 20)
#    0.000    0.933    5.333    2.400    0.000    4.533 
#    7.200    1.333    0.000    0.000    0.000    0.000 
#    0.000    0.000    0.000    0.000    0.000    0.000 
#
# Total GULP energy -371700.554772 kJ/mol
# GULP energy per Si atom -12390.018492 kJ/mol
# Density = 2.122348 g / cm^3
# Si number density = 21.271894 Si / 1000 Ang^3
#
#
#
# Elastic Constant Matrix: (Units=GPa)
#
#
# Indices 1 2 3 4 5 6 
#
# 1 101.6343 48.5798 32.6087 0.0000 0.0000 -12.5880
# 2 48.5798 101.6343 32.6087 0.0000 0.0000 12.5880
# 3 32.6087 32.6087 67.6845 0.0000 0.0000 0.0000
# 4 0.0000 0.0000 0.0000 33.6959 0.0000 0.0000
# 5 0.0000 0.0000 0.0000 0.0000 33.6959 0.0000
# 6 -12.5880 12.5880 0.0000 0.0000 0.0000 28.3725
#
#
#
# Elastic Compliance Matrix: (Units=1/GPa)
#
#
# Indices 1 2 3 4 5 6 
#
# 1 0.016146 -0.007729 -0.004056 0.000000 0.000000 0.010593
# 2 -0.007729 0.016146 -0.004056 0.000000 0.000000 -0.010593
# 3 -0.004056 -0.004056 0.018682 0.000000 0.000000 0.000000
# 4 0.000000 0.000000 0.000000 0.029677 0.000000 0.000000
# 5 0.000000 0.000000 0.000000 0.000000 0.029677 0.000000
# 6 0.010593 -0.010593 0.000000 0.000000 0.000000 0.044644
#
#
# Mechanical properties :
#
#
# Convention : Reuss Voigt Hill
#
# Bulk Modulus (GPa) = 51.82468 55.39417 53.60943
# Shear Modulus (GPa) = 25.89530 29.62993 27.76262
#
# Velocity S-wave (km/s) = 3.49284 3.73623 3.61658
# Velocity P-wave (km/s) = 6.37828 6.68656 6.53424
#
# Compressibility (1/GPa) = 0.01929582
#
# Stress axis : x y z
#
# Youngs Moduli (GPa) = 61.93300 61.93300 53.52701
#
# Poissons Ratio (x) = 0.47865 0.21708
# Poissons Ratio (y) = 0.47865 0.21708
# Poissons Ratio (z) = 0.25117 0.25117
#
# Static dielectric constant tensor:
#      x y z
#    x 4.158710 0.000000 0.000000 
#    y 0.000000 4.158710 0.000000 
#    z 0.000000 0.000000 3.465270 
# 
# 
# High freq. dielectric constant tensor:
#      x y z
#    x 1.849050 0.000000 0.000000 
#    y 0.000000 1.849050 0.000000 
#    z 0.000000 0.000000 1.790770 
# 
# From -- ./inp_files/1861.got.cif
#   From: 2010.03.12/outbox.cif.g09.slc.cpg/sg79_cif.got.tgz:1861.got - 2010.04.16 16:38:49.
