data_PCOD8302127
_publ_section_title
;
Structure prediction by ZEFSAII (Michael W. Deem and Ramdas Pophale) SiO2 
 PCOD8302127
Probable space group: I 4
;
_chemical_formula_sum "Si O2"
_cell_formula_units_Z 44
_cell_length_a 8.130641
_cell_length_b 8.130641
_cell_length_c 29.357279
_cell_angle_alpha 90.000000
_cell_angle_beta 90.000000
_cell_angle_gamma 90.000000
_cell_volume 1940.731127
_symmetry_space_group_name_H-M "I 4"
_symmetry_group_IT_number 79
_symmetry_cell_setting 'tetragonal'
loop_
_space_group_symop_operation_xyz
x,y,z
-y,x,z
-x,-y,z
y,-x,z
1/2+x,1/2+y,1/2+z
1/2-y,1/2+x,1/2+z
1/2-x,1/2-y,1/2+z
1/2+y,1/2-x,1/2+z
loop_
_atom_site_type_symbol
_atom_site_label
_atom_site_fract_x
_atom_site_fract_y
_atom_site_fract_z
Si Si1 0.106160 0.248088 0.427400
Si Si2 0.000000 0.500000 0.685589
Si Si3 0.417733 0.240409 0.758959
Si Si4 0.742507 0.916579 0.113728
Si Si5 0.753918 0.592160 0.342979
Si Si6 0.250711 0.603335 0.030145
O O1 0.168275 0.388034 0.393134
O O2 0.131575 0.313738 0.478763
O O3 0.915744 0.210950 0.418572
O O4 0.884697 0.384719 0.717313
O O5 0.889921 0.619296 0.653416
O O6 0.606432 0.295967 0.755389
O O7 0.390128 0.145595 0.806293
O O8 0.660435 0.891919 0.064307
O O9 0.894920 0.795320 0.119411
O O10 0.596363 0.707936 0.336288
O O11 0.289547 0.413142 0.038766
#
# Coordination Sequence:
#
# PCOD8302127 Si02
#       6
#     8   4   8   8   8   8
#     4   9  19  37  62  91 124 167 216 262 315 382
#     4  12  24  42  66  90 120 156 204 260 318 384
#     4  11  24  43  68  95 124 162 209 261 321 393
#     4  11  24  41  63  93 128 166 210 261 321 392
#     4  11  24  40  59  90 132 172 214 266 321 378
#     4   9  19  38  63  92 128 169 215 267 323 385
#
# _framework density 22.671866999999999
#
# number of rings (size 3 to 8) (size 9 to 14) (size 15 to 20)
#    0.000    1.636    0.000    5.455    0.000    6.545 
#    0.000    5.455    0.000    2.182    0.000    0.000 
#    0.000    0.000    0.000    0.000    0.000    0.000 
#
# Total GULP energy -272868.473672 kJ/mol
# GULP energy per Si atom -12403.112440 kJ/mol
# Density = 2.262027 g / cm^3
# Si number density = 22.671867 Si / 1000 Ang^3
#
#
#
# Elastic Constant Matrix: (Units=GPa)
#
#
# Indices 1 2 3 4 5 6 
#
# 1 92.4986 34.5276 66.9502 0.0000 0.0000 -1.1130
# 2 34.5276 92.4986 66.9502 0.0000 0.0000 1.1130
# 3 66.9502 66.9502 190.6219 0.0000 0.0000 0.0000
# 4 0.0000 0.0000 0.0000 44.1163 0.0000 0.0000
# 5 0.0000 0.0000 0.0000 0.0000 44.1163 0.0000
# 6 -1.1130 1.1130 0.0000 0.0000 0.0000 35.1862
#
#
#
# Elastic Compliance Matrix: (Units=1/GPa)
#
#
# Indices 1 2 3 4 5 6 
#
# 1 0.014886 -0.002385 -0.004390 0.000000 0.000000 0.000546
# 2 -0.002385 0.014886 -0.004390 0.000000 0.000000 -0.000546
# 3 -0.004390 -0.004390 0.008330 0.000000 0.000000 0.000000
# 4 0.000000 0.000000 0.000000 0.022667 0.000000 0.000000
# 5 0.000000 0.000000 0.000000 0.000000 0.022667 0.000000
# 6 0.000546 -0.000546 0.000000 0.000000 0.000000 0.028455
#
#
# Mechanical properties :
#
#
# Convention : Reuss Voigt Hill
#
# Bulk Modulus (GPa) = 63.41486 79.16392 71.28939
# Shear Modulus (GPa) = 35.84759 38.49649 37.17204
#
# Velocity S-wave (km/s) = 3.98068 4.12513 4.05355
# Velocity P-wave (km/s) = 7.01136 7.59487 7.30894
#
# Compressibility (1/GPa) = 0.01576917
#
# Stress axis : x y z
#
# Youngs Moduli (GPa) = 67.17866 67.17866 120.04851
#
# Poissons Ratio (x) = 0.16024 0.52706
# Poissons Ratio (y) = 0.16024 0.52706
# Poissons Ratio (z) = 0.29494 0.29494
#
# Static dielectric constant tensor:
#      x y z
#    x 3.990690 0.000000 0.000000 
#    y 0.000000 3.990690 0.000000 
#    z 0.000000 0.000000 4.188890 
# 
# 
# High freq. dielectric constant tensor:
#      x y z
#    x 1.889870 0.000000 0.000000 
#    y 0.000000 1.889870 0.000000 
#    z 0.000000 0.000000 1.906860 
# 
# From -- ./inp_files/2099.got.cif
#   From: 2010.03.12/outbox.cif.g09.slc.cpg/sg79_cif.got.tgz:2099.got - 2010.04.16 16:38:49.
