data_PCOD8302152
_publ_section_title
;
Structure prediction by ZEFSAII (Michael W. Deem and Ramdas Pophale) SiO2 
 PCOD8302152
Probable space group: I 41
;
_chemical_formula_sum "Si O2"
_cell_formula_units_Z 48
_cell_length_a 16.303551
_cell_length_b 16.303551
_cell_length_c 8.188726
_cell_angle_alpha 90.000000
_cell_angle_beta 90.000000
_cell_angle_gamma 90.000000
_cell_volume 2176.610662
_symmetry_space_group_name_H-M "I 41"
_symmetry_group_IT_number 80
_symmetry_cell_setting 'tetragonal'
loop_
_space_group_symop_operation_xyz
x,y,z
-y,1/2+x,1/4+z
-x,-y,z
y,1/2-x,1/4+z
1/2+x,1/2+y,1/2+z
1/2-y,x,3/4+z
1/2-x,1/2-y,1/2+z
1/2+y,-x,3/4+z
loop_
_atom_site_type_symbol
_atom_site_label
_atom_site_fract_x
_atom_site_fract_y
_atom_site_fract_z
Si Si1 0.418214 0.606005 0.802750
Si Si2 0.000000 0.000000 0.047971
Si Si3 0.517740 0.750126 0.371665
Si Si4 0.160455 0.732808 0.984857
Si Si5 0.500000 0.500000 0.041791
Si Si6 0.418773 0.736787 0.049852
Si Si7 0.587011 0.905760 0.543133
O O1 0.476603 0.580998 0.651941
O O2 0.324777 0.617392 0.743583
O O3 0.423702 0.530873 0.933257
O O4 0.452329 0.689287 0.889034
O O5 0.079363 0.019846 0.935802
O O6 0.435637 0.743432 0.483427
O O7 0.489075 0.757008 0.182898
O O8 0.573739 0.820920 0.449175
O O9 0.580652 0.674265 0.378956
O O10 0.212614 0.810306 0.917199
O O11 0.178596 0.654014 0.869273
O O12 0.524724 0.577108 0.153920
#
# Coordination Sequence:
#
# PCOD8302152 Si02
#       7
#     8   4   8   8   4   8   8
#     4  11  21  39  61  98 142 184 223 274 347 433
#     4  10  28  40  62 102 142 184 226 298 358 430
#     4  11  23  40  72  95 130 183 241 300 348 417
#     4  10  21  36  56 101 140 176 212 263 346 426
#     4  10  18  36  68  92 132 170 238 272 330 440
#     4  11  19  36  66  99 137 181 225 275 345 433
#     4  11  23  43  66  97 130 181 239 293 359 414
#
# _framework density 22.052636
#
# number of rings (size 3 to 8) (size 9 to 14) (size 15 to 20)
#    0.000    1.333    6.667    0.000    7.000    2.667 
#    0.000    0.000    3.667    0.000    0.000    0.000 
#    0.000    0.000    0.000    0.000    0.000    0.000 
#
# Total GULP energy -297375.273057 kJ/mol
# GULP energy per Si atom -12390.636377 kJ/mol
# Density = 2.200244 g / cm^3
# Si number density = 22.052636 Si / 1000 Ang^3
#
#
#
# Elastic Constant Matrix: (Units=GPa)
#
#
# Indices 1 2 3 4 5 6 
#
# 1 117.2563 61.0660 47.6705 0.0000 0.0000 1.5731
# 2 61.0660 117.2563 47.6705 0.0000 0.0000 -1.5731
# 3 47.6705 47.6705 90.1848 0.0000 0.0000 0.0000
# 4 0.0000 0.0000 0.0000 30.4252 0.0000 0.0000
# 5 0.0000 0.0000 0.0000 0.0000 30.4252 0.0000
# 6 1.5731 -1.5731 0.0000 0.0000 0.0000 34.7014
#
#
#
# Elastic Compliance Matrix: (Units=1/GPa)
#
#
# Indices 1 2 3 4 5 6 
#
# 1 0.012829 -0.005012 -0.004132 0.000000 0.000000 -0.000809
# 2 -0.005012 0.012829 -0.004132 0.000000 0.000000 0.000809
# 3 -0.004132 -0.004132 0.015457 0.000000 0.000000 0.000000
# 4 0.000000 0.000000 0.000000 0.032868 0.000000 0.000000
# 5 0.000000 0.000000 0.000000 0.000000 0.032868 0.000000
# 6 -0.000809 0.000809 0.000000 0.000000 0.000000 0.028891
#
#
# Mechanical properties :
#
#
# Convention : Reuss Voigt Hill
#
# Bulk Modulus (GPa) = 68.66862 70.83459 69.75161
# Shear Modulus (GPa) = 29.91356 30.32969 30.12163
#
# Velocity S-wave (km/s) = 3.68701 3.71257 3.69981
# Velocity P-wave (km/s) = 7.02364 7.11112 7.06751
#
# Compressibility (1/GPa) = 0.01456269
#
# Stress axis : x y z
#
# Youngs Moduli (GPa) = 77.94545 77.94545 64.69749
#
# Poissons Ratio (x) = 0.39070 0.26733
# Poissons Ratio (y) = 0.39070 0.26733
# Poissons Ratio (z) = 0.32207 0.32207
#
# Static dielectric constant tensor:
#      x y z
#    x 3.747770 0.000000 0.000000 
#    y 0.000000 3.747770 0.000000 
#    z 0.000000 0.000000 4.100230 
# 
# 
# High freq. dielectric constant tensor:
#      x y z
#    x 1.845980 0.000000 0.000000 
#    y 0.000000 1.845980 0.000000 
#    z 0.000000 0.000000 1.876930 
# 
# From -- ./inp_files/691.got.cif
#   From: 2010.03.12/outbox.cif.g09.slc.cpg/sg80_cif.got.tgz:691.got - 2010.04.08 20:00:04.
