data_PCOD8302856
_publ_section_title
;
Structure prediction by ZEFSAII (Michael W. Deem and Ramdas Pophale) SiO2 
 PCOD8302856
Probable space group: P 4/M
;
_chemical_formula_sum "Si O2"
_cell_formula_units_Z 40
_cell_length_a 8.370972
_cell_length_b 8.370972
_cell_length_c 26.762987
_cell_angle_alpha 90.000000
_cell_angle_beta 90.000000
_cell_angle_gamma 90.000000
_cell_volume 1875.367397
_symmetry_space_group_name_H-M "P 4/M"
_symmetry_group_IT_number 83
_symmetry_cell_setting 'tetragonal'
loop_
_space_group_symop_operation_xyz
x,y,z
-y,x,z
-x,-y,z
y,-x,z
-x,-y,-z
y,-x,-z
x,y,-z
-y,x,-z
loop_
_atom_site_type_symbol
_atom_site_label
_atom_site_fract_x
_atom_site_fract_y
_atom_site_fract_z
Si Si1 0.926299 0.749368 0.658868
Si Si2 0.756214 0.095284 0.943184
Si Si3 0.082825 0.249451 0.771015
Si Si4 0.581618 0.249060 0.143497
Si Si5 0.000000 0.500000 0.417820
Si Si6 0.436401 0.241581 0.500000
O O1 0.900160 0.681749 0.714823
O O2 0.894945 0.615752 0.617407
O O3 0.107279 0.804937 0.650785
O O4 0.613639 0.150354 0.907179
O O5 0.911712 0.202414 0.932499
O O6 0.697609 0.118279 0.000000
O O7 0.134369 0.387375 0.809166
O O8 0.901497 0.197541 0.780232
O O9 0.699209 0.399578 0.145143
O O10 0.129880 0.592098 0.451716
O O11 0.617549 0.307716 0.500000
#
# Coordination Sequence:
#
# PCOD8302856 Si02
#       6
#     8   8   8   8   4   4
#     4   9  19  35  55  82 111 138 179 233 280 325
#     4   9  19  37  60  83 105 134 179 231 278 328
#     4   9  19  36  57  79 104 137 178 225 275 328
#     4  11  24  37  50  76 113 147 180 221 269 325
#     4  11  20  34  60  84 108 150 191 228 276 324
#     4  10  22  38  54  80 118 154 190 228 270 326
#
# _framework density 21.329153000000002
#
# number of rings (size 3 to 8) (size 9 to 14) (size 15 to 20)
#    0.000    2.300    0.000    4.200    0.000    8.800 
#    0.000    3.000    0.000    7.200    0.000    0.000 
#    0.000    0.000    0.000    0.000    0.000    0.000 
#
# Total GULP energy -496039.234134 kJ/mol
# GULP energy per Si atom -12400.980853 kJ/mol
# Density = 2.128061 g / cm^3
# Si number density = 21.329153 Si / 1000 Ang^3
#
#
#
# Elastic Constant Matrix: (Units=GPa)
#
#
# Indices 1 2 3 4 5 6 
#
# 1 47.2323 -1.4089 30.9943 0.0000 0.0000 -5.1970
# 2 -1.4089 47.2323 30.9943 0.0000 0.0000 5.1970
# 3 30.9943 30.9943 148.8466 0.0000 0.0000 0.0000
# 4 0.0000 0.0000 0.0000 16.1631 0.0000 0.0000
# 5 0.0000 0.0000 0.0000 0.0000 16.1631 0.0000
# 6 -5.1970 5.1970 0.0000 0.0000 0.0000 39.1631
#
#
#
# Elastic Compliance Matrix: (Units=1/GPa)
#
#
# Indices 1 2 3 4 5 6 
#
# 1 0.025770 0.004611 -0.006326 0.000000 0.000000 0.002808
# 2 0.004611 0.025770 -0.006326 0.000000 0.000000 -0.002808
# 3 -0.006326 -0.006326 0.009353 0.000000 0.000000 0.000000
# 4 0.000000 0.000000 0.000000 0.061869 0.000000 0.000000
# 5 0.000000 0.000000 0.000000 0.000000 0.061869 0.000000
# 6 0.002808 -0.002808 0.000000 0.000000 0.000000 0.026279
#
#
# Mechanical properties :
#
#
# Convention : Reuss Voigt Hill
#
# Bulk Modulus (GPa) = 22.31658 40.49673 31.40665
# Shear Modulus (GPa) = 20.66718 26.47997 23.57358
#
# Velocity S-wave (km/s) = 3.11620 3.52730 3.32810
# Velocity P-wave (km/s) = 4.84079 5.96799 5.43370
#
# Compressibility (1/GPa) = 0.04480974
#
# Stress axis : x y z
#
# Youngs Moduli (GPa) = 38.80523 38.80523 106.91853
#
# Poissons Ratio (x) = -0.17893 0.67638
# Poissons Ratio (y) = -0.17893 0.67638
# Poissons Ratio (z) = 0.24549 0.24549
#
# Static dielectric constant tensor:
#      x y z
#    x 3.630830 0.000000 0.000000 
#    y 0.000000 3.630830 0.000000 
#    z 0.000000 0.000000 3.932020 
# 
# 
# High freq. dielectric constant tensor:
#      x y z
#    x 1.825980 0.000000 0.000000 
#    y 0.000000 1.825980 0.000000 
#    z 0.000000 0.000000 1.849170 
# 
# From -- ./inp_files/3249.got.cif
#   From: 2010.03.12/outbox.cif.g09.slc.cpg/sg83_2_cif.got.tgz:3249.got - 2010.04.08 20:05:18.
