data_PCOD8302602
_publ_section_title
;
Structure prediction by ZEFSAII (Michael W. Deem and Ramdas Pophale) SiO2 
 PCOD8302602
Probable space group: I -4 
;
_chemical_formula_sum "Si O2"
_cell_formula_units_Z 24
_cell_length_a 11.996033
_cell_length_b 11.996033
_cell_length_c 7.382265
_cell_angle_alpha 90.000000
_cell_angle_beta 90.000000
_cell_angle_gamma 90.000000
_cell_volume 1062.343425
_symmetry_space_group_name_H-M "I -4 "
_symmetry_group_IT_number 82
_symmetry_cell_setting 'tetragonal'
loop_
_space_group_symop_operation_xyz
x,y,z
y,-x,-z
-x,-y,z
-y,x,-z
1/2+x,1/2+y,1/2+z
1/2+y,1/2-x,1/2-z
1/2-x,1/2-y,1/2+z
1/2-y,1/2+x,1/2-z
loop_
_atom_site_type_symbol
_atom_site_label
_atom_site_fract_x
_atom_site_fract_y
_atom_site_fract_z
Si Si1 0.729188 0.908131 0.865925
Si Si2 0.770823 0.408160 0.634055
Si Si3 0.500003 0.174500 0.999997
O O1 0.791056 0.791034 0.898787
O O2 0.749075 0.946163 0.658883
O O3 0.597321 0.898195 0.906210
O O4 0.781627 0.999988 0.999991
O O5 0.750933 0.446195 0.841093
O O6 0.902690 0.398236 0.593752
#
# Coordination Sequence:
#
# PCOD8302602 Si02
#       3
#     8   8   8
#     4  12  27  46  73 109 145 188 241 299 358 423
#     4  12  27  46  73 109 145 188 241 299 358 423
#     4  12  25  44  76 105 142 187 242 292 349 428
#
# _framework density 22.591563000000001
#
# number of rings (size 3 to 8) (size 9 to 14) (size 15 to 20)
#    0.000    0.000    6.667    3.000    0.000    3.333 
#    0.000    0.000    0.000    9.000    0.000    0.000 
#    0.000    0.000    0.000    0.000    0.000    0.000 
#
# Total GULP energy -148800.333485 kJ/mol
# GULP energy per Si atom -12400.027790 kJ/mol
# Density = 2.254014 g / cm^3
# Si number density = 22.591563 Si / 1000 Ang^3
#
#
#
# Elastic Constant Matrix: (Units=GPa)
#
#
# Indices 1 2 3 4 5 6 
#
# 1 106.6879 71.7256 45.9034 0.0000 0.0000 -0.0006
# 2 71.7256 106.6879 45.9034 0.0000 0.0000 0.0006
# 3 45.9034 45.9034 179.3002 0.0000 0.0000 0.0000
# 4 0.0000 0.0000 0.0000 29.0158 0.0000 0.0000
# 5 0.0000 0.0000 0.0000 0.0000 29.0158 0.0000
# 6 -0.0006 0.0006 0.0000 0.0000 0.0000 26.1611
#
#
#
# Elastic Compliance Matrix: (Units=1/GPa)
#
#
# Indices 1 2 3 4 5 6 
#
# 1 0.017529 -0.011073 -0.001653 0.000000 0.000000 0.000001
# 2 -0.011073 0.017529 -0.001653 0.000000 0.000000 -0.000001
# 3 -0.001653 -0.001653 0.006423 0.000000 0.000000 0.000000
# 4 0.000000 0.000000 0.000000 0.034464 0.000000 0.000000
# 5 0.000000 0.000000 0.000000 0.000000 0.034464 0.000000
# 6 0.000001 -0.000001 0.000000 0.000000 0.000000 0.038225
#
#
# Mechanical properties :
#
#
# Convention : Reuss Voigt Hill
#
# Bulk Modulus (GPa) = 78.59453 79.97121 79.28287
# Shear Modulus (GPa) = 27.52813 32.11478 29.82146
#
# Velocity S-wave (km/s) = 3.49451 3.77442 3.63716
# Velocity P-wave (km/s) = 7.15171 7.38042 7.26696
#
# Compressibility (1/GPa) = 0.01272353
#
# Stress axis : x y z
#
# Youngs Moduli (GPa) = 57.04899 57.04899 155.67954
#
# Poissons Ratio (x) = 0.63173 0.25729
# Poissons Ratio (y) = 0.63173 0.25729
# Poissons Ratio (z) = 0.09428 0.09428
#
# Static dielectric constant tensor:
#      x y z
#    x 3.752400 0.000000 0.000000 
#    y 0.000000 3.752400 0.000000 
#    z 0.000000 0.000000 4.691420 
# 
# 
# High freq. dielectric constant tensor:
#      x y z
#    x 1.869140 0.000000 0.000000 
#    y 0.000000 1.869140 0.000000 
#    z 0.000000 0.000000 1.922350 
# 
# From -- ./inp_files/576.got.cif
#   From: 2010.03.12/outbox.cif.g09.slc.cpg/sg82_1_cif.got.tgz:576.got - 2010.04.08 20:02:50.
