data_PCOD8302880
_publ_section_title
;
Structure prediction by ZEFSAII (Michael W. Deem and Ramdas Pophale) SiO2 
 PCOD8302880
Probable space group: P 4/M
;
_chemical_formula_sum "Si O2"
_cell_formula_units_Z 40
_cell_length_a 14.777156
_cell_length_b 14.777156
_cell_length_c 9.027611
_cell_angle_alpha 90.000000
_cell_angle_beta 90.000000
_cell_angle_gamma 90.000000
_cell_volume 1971.308313
_symmetry_space_group_name_H-M "P 4/M"
_symmetry_group_IT_number 83
_symmetry_cell_setting 'tetragonal'
loop_
_space_group_symop_operation_xyz
x,y,z
-y,x,z
-x,-y,z
y,-x,z
-x,-y,-z
y,-x,-z
x,y,-z
-y,x,-z
loop_
_atom_site_type_symbol
_atom_site_label
_atom_site_fract_x
_atom_site_fract_y
_atom_site_fract_z
Si Si1 0.556480 0.911743 0.166476
Si Si2 0.857454 0.946832 0.500000
Si Si3 0.869831 0.250800 0.763786
Si Si4 0.500743 0.261906 0.676463
Si Si5 0.679282 0.328127 0.820188
Si Si6 0.113076 0.097109 0.000000
O O1 0.665015 0.928773 0.172581
O O2 0.530284 0.840215 0.292186
O O3 0.500000 0.000000 0.205432
O O4 0.532639 0.877323 0.000000
O O5 0.788557 0.924640 0.628712
O O6 0.947665 0.885250 0.500000
O O7 0.767446 0.285322 0.741027
O O8 0.859684 0.162482 0.862598
O O9 0.506855 0.279933 0.500000
O O10 0.595491 0.272269 0.759585
O O11 0.430249 0.330014 0.756633
O O12 0.686423 0.327157 0.000000
O O13 0.010174 0.126040 0.000000
#
# Coordination Sequence:
#
# PCOD8302880 Si02
#       6
#     8   4   8   8   8   4
#     4  10  22  42  64  93 130 169 217 270 323 385
#     4  11  26  44  61  88 130 173 213 266 324 382
#     4  11  22  42  64  91 127 170 214 262 320 381
#     4  11  24  40  66  97 131 167 213 268 322 385
#     4  11  23  44  67  95 130 171 213 263 323 387
#     4  11  22  38  63  94 124 161 217 270 314 372
#
# _framework density 20.291093
#
# number of rings (size 3 to 8) (size 9 to 14) (size 15 to 20)
#    0.000    1.200    2.000    4.800    7.000    5.600 
#    0.000    2.000    0.000    0.000    0.000    0.000 
#    0.000    0.000    0.000    0.000    0.000    0.000 
#
# Total GULP energy -495647.413770 kJ/mol
# GULP energy per Si atom -12391.185344 kJ/mol
# Density = 2.024491 g / cm^3
# Si number density = 20.291093 Si / 1000 Ang^3
#
#
#
# Elastic Constant Matrix: (Units=GPa)
#
#
# Indices 1 2 3 4 5 6 
#
# 1 90.3140 42.7870 20.9611 0.0000 0.0000 11.6897
# 2 42.7870 90.3140 20.9611 0.0000 0.0000 -11.6897
# 3 20.9611 20.9611 97.6530 0.0000 0.0000 0.0000
# 4 0.0000 0.0000 0.0000 31.1052 0.0000 0.0000
# 5 0.0000 0.0000 0.0000 0.0000 31.1052 0.0000
# 6 11.6897 -11.6897 0.0000 0.0000 0.0000 31.0650
#
#
#
# Elastic Compliance Matrix: (Units=1/GPa)
#
#
# Indices 1 2 3 4 5 6 
#
# 1 0.016939 -0.008881 -0.001730 0.000000 0.000000 -0.009716
# 2 -0.008881 0.016939 -0.001730 0.000000 0.000000 0.009716
# 3 -0.001730 -0.001730 0.010983 0.000000 0.000000 0.000000
# 4 0.000000 0.000000 0.000000 0.032149 0.000000 0.000000
# 5 0.000000 0.000000 0.000000 0.000000 0.032149 0.000000
# 6 -0.009716 0.009716 0.000000 0.000000 0.000000 0.039503
#
#
# Mechanical properties :
#
#
# Convention : Reuss Voigt Hill
#
# Bulk Modulus (GPa) = 49.55368 49.74437 49.64903
# Shear Modulus (GPa) = 27.76709 31.55988 29.66349
#
# Velocity S-wave (km/s) = 3.70325 3.94808 3.82762
# Velocity P-wave (km/s) = 6.53910 6.73437 6.63745
#
# Compressibility (1/GPa) = 0.02018014
#
# Stress axis : x y z
#
# Youngs Moduli (GPa) = 59.03517 59.03517 91.05101
#
# Poissons Ratio (x) = 0.52430 0.15748
# Poissons Ratio (y) = 0.52430 0.15748
# Poissons Ratio (z) = 0.10211 0.10211
#
# Static dielectric constant tensor:
#      x y z
#    x 3.783170 0.000000 0.000000 
#    y 0.000000 3.783170 0.000000 
#    z 0.000000 0.000000 3.634070 
# 
# 
# High freq. dielectric constant tensor:
#      x y z
#    x 1.797080 0.000000 0.000000 
#    y 0.000000 1.797080 0.000000 
#    z 0.000000 0.000000 1.798930 
# 
# From -- ./inp_files/753.got.cif
#   From: 2010.03.12/outbox.cif.g09.slc.cpg/sg83_1_cif.got.tgz:753.got - 2010.04.08 20:05:18.
