data_PCOD8302269
_publ_section_title
;
Structure prediction by ZEFSAII (Michael W. Deem and Ramdas Pophale) SiO2 
 PCOD8302269
Probable space group: P -4
;
_chemical_formula_sum "Si O2"
_cell_formula_units_Z 14
_cell_length_a 9.442196
_cell_length_b 9.442196
_cell_length_c 8.106775
_cell_angle_alpha 90.000000
_cell_angle_beta 90.000000
_cell_angle_gamma 90.000000
_cell_volume 722.760055
_symmetry_space_group_name_H-M "P -4"
_symmetry_group_IT_number 81
_symmetry_cell_setting 'tetragonal'
loop_
_space_group_symop_operation_xyz
x,y,z
y,-x,-z
-x,-y,z
-y,x,-z
loop_
_atom_site_type_symbol
_atom_site_label
_atom_site_fract_x
_atom_site_fract_y
_atom_site_fract_z
Si Si1 0.000000 0.500000 0.818522
Si Si2 0.854091 0.619803 0.524695
Si Si3 0.863181 0.333087 0.381051
Si Si4 0.222216 0.051558 0.970059
O O1 0.866931 0.541859 0.702113
O O2 0.953076 0.365688 0.925737
O O3 0.838673 0.503540 0.377456
O O4 0.725097 0.726500 0.523764
O O5 0.999381 0.705546 0.490277
O O6 0.879308 0.262915 0.203668
O O7 0.105417 0.155215 0.053306
#
# Coordination Sequence:
#
# PCOD8302269 Si02
#       4
#     2   4   4   4
#     4  10  20  42  56  94 126 156 206 260 322 370
#     4  10  23  39  66  86 124 162 211 263 302 376
#     4  10  22  40  60  94 117 167 202 257 310 365
#     4  11  23  38  66  94 126 163 208 263 319 376
#
# _framework density 19.370187999999999
#
# number of rings (size 3 to 8) (size 9 to 14) (size 15 to 20)
#    0.000    2.000    2.857    1.714    8.000    1.143 
#    0.000    0.000    0.000    0.857    0.000    0.000 
#    0.000    0.000    0.000    0.000    0.000    0.000 
#
# Total GULP energy -173515.988096 kJ/mol
# GULP energy per Si atom -12393.999150 kJ/mol
# Density = 1.932610 g / cm^3
# Si number density = 19.370188 Si / 1000 Ang^3
#
#
#
# Elastic Constant Matrix: (Units=GPa)
#
#
# Indices 1 2 3 4 5 6 
#
# 1 110.7141 57.7642 31.9447 0.0000 0.0000 3.7480
# 2 57.7642 110.7141 31.9447 0.0000 0.0000 -3.7480
# 3 31.9447 31.9447 68.8664 0.0000 0.0000 0.0000
# 4 0.0000 0.0000 0.0000 29.9364 0.0000 0.0000
# 5 0.0000 0.0000 0.0000 0.0000 29.9364 0.0000
# 6 3.7480 -3.7480 0.0000 0.0000 0.0000 38.8544
#
#
#
# Elastic Compliance Matrix: (Units=1/GPa)
#
#
# Indices 1 2 3 4 5 6 
#
# 1 0.013175 -0.005972 -0.003341 0.000000 0.000000 -0.001847
# 2 -0.005972 0.013175 -0.003341 0.000000 0.000000 0.001847
# 3 -0.003341 -0.003341 0.017620 0.000000 0.000000 0.000000
# 4 0.000000 0.000000 0.000000 0.033404 0.000000 0.000000
# 5 0.000000 0.000000 0.000000 0.000000 0.033404 0.000000
# 6 -0.001847 0.001847 0.000000 0.000000 0.000000 0.026093
#
#
# Mechanical properties :
#
#
# Convention : Reuss Voigt Hill
#
# Bulk Modulus (GPa) = 53.58655 59.28911 56.43783
# Shear Modulus (GPa) = 29.69105 30.98818 30.33961
#
# Velocity S-wave (km/s) = 3.91937 4.00407 3.96195
# Velocity P-wave (km/s) = 6.94309 7.21469 7.08019
#
# Compressibility (1/GPa) = 0.01866140
#
# Stress axis : x y z
#
# Youngs Moduli (GPa) = 75.90220 75.90220 56.75250
#
# Poissons Ratio (x) = 0.45332 0.18961
# Poissons Ratio (y) = 0.45332 0.18961
# Poissons Ratio (z) = 0.25359 0.25359
#
# Static dielectric constant tensor:
#      x y z
#    x 3.575780 0.000000 0.000000 
#    y 0.000000 3.575780 0.000000 
#    z 0.000000 0.000000 3.548490 
# 
# 
# High freq. dielectric constant tensor:
#      x y z
#    x 1.752370 0.000000 0.000000 
#    y 0.000000 1.752370 0.000000 
#    z 0.000000 0.000000 1.748370 
# 
# From -- ./inp_files/462.got.cif
#   From: 2010.03.12/outbox.cif.g09.slc.cpg/sg81_cif.got.tgz:462.got - 2010.04.08 20:01:38.
