data_PCOD8302400
_publ_section_title
;
Structure prediction by ZEFSAII (Michael W. Deem and Ramdas Pophale) SiO2 
 PCOD8302400
Probable space group: I -4 
;
_chemical_formula_sum "Si O2"
_cell_formula_units_Z 24
_cell_length_a 7.633276
_cell_length_b 7.633276
_cell_length_c 19.174956
_cell_angle_alpha 90.000000
_cell_angle_beta 90.000000
_cell_angle_gamma 90.000000
_cell_volume 1117.265292
_symmetry_space_group_name_H-M "I -4 "
_symmetry_group_IT_number 82
_symmetry_cell_setting 'tetragonal'
loop_
_space_group_symop_operation_xyz
x,y,z
y,-x,-z
-x,-y,z
-y,x,-z
1/2+x,1/2+y,1/2+z
1/2+y,1/2-x,1/2-z
1/2-x,1/2-y,1/2+z
1/2-y,1/2+x,1/2-z
loop_
_atom_site_type_symbol
_atom_site_label
_atom_site_fract_x
_atom_site_fract_y
_atom_site_fract_z
Si Si1 0.500000 0.500000 0.663610
Si Si2 0.745683 0.231417 0.086217
Si Si3 0.500000 0.000000 0.991197
Si Si4 0.241300 0.114678 0.266824
O O1 0.350517 0.564802 0.612670
O O2 0.580455 0.653944 0.713776
O O3 0.649213 0.316993 0.153360
O O4 0.882111 0.368722 0.054127
O O5 0.602683 0.149033 0.034423
O O6 0.407517 0.225557 0.243110
#
# Coordination Sequence:
#
# PCOD8302400 Si02
#       4
#     4   8   4   8
#     4  10  20  39  64  87 120 162 208 262 312 362
#     4  11  24  41  62  91 126 165 210 250 310 370
#     4  12  26  42  64  90 130 172 204 250 300 380
#     4   9  19  37  63  89 117 155 204 264 316 359
#
# _framework density 21.481024000000001
#
# number of rings (size 3 to 8) (size 9 to 14) (size 15 to 20)
#    0.000    1.667    0.000    6.000    0.000    8.667 
#    0.000    0.000    0.000    0.000    0.000    0.000 
#    0.000    0.000    0.000    0.000    0.000    0.000 
#
# Total GULP energy -148671.625578 kJ/mol
# GULP energy per Si atom -12389.302131 kJ/mol
# Density = 2.143213 g / cm^3
# Si number density = 21.481024 Si / 1000 Ang^3
#
#
#
# Elastic Constant Matrix: (Units=GPa)
#
#
# Indices 1 2 3 4 5 6 
#
# 1 78.3464 17.1687 45.7556 0.0000 0.0000 -0.6595
# 2 17.1687 78.3464 45.7556 0.0000 0.0000 0.6595
# 3 45.7556 45.7556 142.4500 0.0000 0.0000 0.0000
# 4 0.0000 0.0000 0.0000 41.7187 0.0000 0.0000
# 5 0.0000 0.0000 0.0000 0.0000 41.7187 0.0000
# 6 -0.6595 0.6595 0.0000 0.0000 0.0000 43.2036
#
#
#
# Elastic Compliance Matrix: (Units=1/GPa)
#
#
# Indices 1 2 3 4 5 6 
#
# 1 0.015737 -0.000614 -0.004858 0.000000 0.000000 0.000250
# 2 -0.000614 0.015737 -0.004858 0.000000 0.000000 -0.000250
# 3 -0.004858 -0.004858 0.010141 0.000000 0.000000 0.000000
# 4 0.000000 0.000000 0.000000 0.023970 0.000000 0.000000
# 5 0.000000 0.000000 0.000000 0.000000 0.023970 0.000000
# 6 0.000250 -0.000250 0.000000 0.000000 0.000000 0.023154
#
#
# Mechanical properties :
#
#
# Convention : Reuss Voigt Hill
#
# Bulk Modulus (GPa) = 47.71698 57.38920 52.55309
# Shear Modulus (GPa) = 35.62421 38.02572 36.82496
#
# Velocity S-wave (km/s) = 4.07677 4.21194 4.14490
# Velocity P-wave (km/s) = 6.66497 7.10128 6.88658
#
# Compressibility (1/GPa) = 0.02095690
#
# Stress axis : x y z
#
# Youngs Moduli (GPa) = 63.54265 63.54264 98.61241
#
# Poissons Ratio (x) = 0.03900 0.47904
# Poissons Ratio (y) = 0.03900 0.47904
# Poissons Ratio (z) = 0.30868 0.30868
#
# Static dielectric constant tensor:
#      x y z
#    x 4.003870 0.000000 0.000000 
#    y 0.000000 4.003870 0.000000 
#    z 0.000000 0.000000 4.336830 
# 
# 
# High freq. dielectric constant tensor:
#      x y z
#    x 1.839990 0.000000 0.000000 
#    y 0.000000 1.839990 0.000000 
#    z 0.000000 0.000000 1.862480 
# 
# From -- ./inp_files/2029.got.cif
#   From: 2010.03.12/outbox.cif.g09.slc.cpg/sg82_2_cif.got.tgz:2029.got - 2010.04.08 20:02:50.
