data_PCOD8302657
_publ_section_title
;
Structure prediction by ZEFSAII (Michael W. Deem and Ramdas Pophale) SiO2 
 PCOD8302657
Probable space group: P 4/M
;
_chemical_formula_sum "Si O2"
_cell_formula_units_Z 48
_cell_length_a 14.993233
_cell_length_b 14.993233
_cell_length_c 13.645970
_cell_angle_alpha 90.000000
_cell_angle_beta 90.000000
_cell_angle_gamma 90.000000
_cell_volume 3067.573607
_symmetry_space_group_name_H-M "P 4/M"
_symmetry_group_IT_number 83
_symmetry_cell_setting 'tetragonal'
loop_
_space_group_symop_operation_xyz
x,y,z
-y,x,z
-x,-y,z
y,-x,z
-x,-y,-z
y,-x,-z
x,y,-z
-y,x,-z
loop_
_atom_site_type_symbol
_atom_site_label
_atom_site_fract_x
_atom_site_fract_y
_atom_site_fract_z
Si Si1 0.880285 0.929945 0.883463
Si Si2 0.110291 0.690337 0.113446
Si Si3 0.557573 0.635008 0.389754
Si Si4 0.276114 0.603569 0.801705
Si Si5 0.056599 0.419229 0.113084
Si Si6 0.742855 0.584488 0.884633
O O1 0.791825 0.878356 0.848719
O O2 0.967853 0.879758 0.843956
O O3 0.879703 0.934568 0.000000
O O4 0.173061 0.628018 0.178992
O O5 0.005261 0.667795 0.126099
O O6 0.139079 0.678218 0.000000
O O7 0.453925 0.614618 0.371803
O O8 0.572704 0.670688 0.500000
O O9 0.589666 0.710646 0.314462
O O10 0.338881 0.682641 0.838312
O O11 0.298410 0.511784 0.858098
O O12 0.155618 0.406329 0.158602
O O13 0.000000 0.500000 0.162017
O O14 0.073148 0.443863 0.000000
O O15 0.741364 0.599096 0.000000
#
# Coordination Sequence:
#
# PCOD8302657 Si02
#       6
#     8   8   8   8   8   8
#     4   8  15  27  41  59  87 123 161 202 242 268
#     4  10  19  29  44  66  95 129 167 198 226 278
#     4   9  18  35  54  69  87 117 159 207 248 287
#     4  12  21  32  47  71  96 126 163 198 241 283
#     4   9  17  31  44  56  85 131 168 190 214 259
#     4  11  22  32  44  67 102 136 162 190 228 281
#
# _framework density 15.647546999999999
#
# number of rings (size 3 to 8) (size 9 to 14) (size 15 to 20)
#    0.000    2.167    3.333    2.500    2.333    0.333 
#    0.000    0.833    0.000    0.000    0.000    3.500 
#    0.000    0.000    0.000    1.833    0.000    0.167 
#
# Total GULP energy -594902.112299 kJ/mol
# GULP energy per Si atom -12393.794006 kJ/mol
# Density = 1.561193 g / cm^3
# Si number density = 15.647547 Si / 1000 Ang^3
#
#
#
# Elastic Constant Matrix: (Units=GPa)
#
#
# Indices 1 2 3 4 5 6 
#
# 1 69.9448 26.4372 24.0029 0.0000 0.0000 2.5721
# 2 26.4372 69.9448 24.0029 0.0000 0.0000 -2.5721
# 3 24.0029 24.0029 61.4994 0.0000 0.0000 0.0000
# 4 0.0000 0.0000 0.0000 10.1485 0.0000 0.0000
# 5 0.0000 0.0000 0.0000 0.0000 10.1485 0.0000
# 6 2.5721 -2.5721 0.0000 0.0000 0.0000 23.1503
#
#
#
# Elastic Compliance Matrix: (Units=1/GPa)
#
#
# Indices 1 2 3 4 5 6 
#
# 1 0.018085 -0.005206 -0.005027 0.000000 0.000000 -0.002588
# 2 -0.005206 0.018085 -0.005027 0.000000 0.000000 0.002588
# 3 -0.005027 -0.005027 0.020184 0.000000 0.000000 0.000000
# 4 0.000000 0.000000 0.000000 0.098537 0.000000 0.000000
# 5 0.000000 0.000000 0.000000 0.000000 0.098537 0.000000
# 6 -0.002588 0.002588 0.000000 0.000000 0.000000 0.043771
#
#
# Mechanical properties :
#
#
# Convention : Reuss Voigt Hill
#
# Bulk Modulus (GPa) = 38.70623 38.91945 38.81284
# Shear Modulus (GPa) = 14.86642 17.15252 16.00947
#
# Velocity S-wave (km/s) = 3.08568 3.31445 3.20211
# Velocity P-wave (km/s) = 6.12252 6.29079 6.20722
#
# Compressibility (1/GPa) = 0.02583563
#
# Stress axis : x y z
#
# Youngs Moduli (GPa) = 55.29528 55.29528 49.54414
#
# Poissons Ratio (x) = 0.28785 0.24904
# Poissons Ratio (y) = 0.28785 0.24904
# Poissons Ratio (z) = 0.27795 0.27795
#
# Static dielectric constant tensor:
#      x y z
#    x 3.148050 0.000000 0.000000 
#    y 0.000000 3.148050 0.000000 
#    z 0.000000 0.000000 2.561440 
# 
# 
# High freq. dielectric constant tensor:
#      x y z
#    x 1.608210 0.000000 0.000000 
#    y 0.000000 1.608210 0.000000 
#    z 0.000000 0.000000 1.529470 
# 
# From -- ./inp_files/1805.got.cif
#   From: 2010.03.12/outbox.cif.g09.slc.cpg/sg83_1_cif.got.tgz:1805.got - 2010.04.08 20:05:18.
