data_PCOD8302361
_publ_section_title
;
Structure prediction by ZEFSAII (Michael W. Deem and Ramdas Pophale) SiO2 
 PCOD8302361
Probable space group: I -4 
;
_chemical_formula_sum "Si O2"
_cell_formula_units_Z 56
_cell_length_a 13.356788
_cell_length_b 13.356788
_cell_length_c 16.973463
_cell_angle_alpha 90.000000
_cell_angle_beta 90.000000
_cell_angle_gamma 90.000000
_cell_volume 3028.130055
_symmetry_space_group_name_H-M "I -4 "
_symmetry_group_IT_number 82
_symmetry_cell_setting 'tetragonal'
loop_
_space_group_symop_operation_xyz
x,y,z
y,-x,-z
-x,-y,z
-y,x,-z
1/2+x,1/2+y,1/2+z
1/2+y,1/2-x,1/2-z
1/2-x,1/2-y,1/2+z
1/2-y,1/2+x,1/2-z
loop_
_atom_site_type_symbol
_atom_site_label
_atom_site_fract_x
_atom_site_fract_y
_atom_site_fract_z
Si Si1 0.391015 0.711581 0.926724
Si Si2 0.381235 0.597469 0.509862
Si Si3 0.236630 0.615880 0.370558
Si Si4 0.108434 0.880631 0.740776
Si Si5 0.114850 0.888994 0.270042
Si Si6 0.623716 0.710619 0.921504
Si Si7 0.111749 0.743299 0.142431
O O1 0.360854 0.815354 0.883277
O O2 0.369926 0.623714 0.863674
O O3 0.508244 0.714753 0.947537
O O4 0.326954 0.689412 0.004878
O O5 0.482515 0.620606 0.461060
O O6 0.288690 0.621740 0.455007
O O7 0.381860 0.660545 0.588015
O O8 0.310866 0.661695 0.303626
O O9 0.202820 0.502367 0.349346
O O10 0.137762 0.854470 0.651344
O O11 0.996091 0.835823 0.754218
O O12 0.106560 0.998855 0.752784
O O13 0.155960 0.789937 0.224130
O O14 0.654425 0.821796 0.893036
#
# Coordination Sequence:
#
# PCOD8302361 Si02
#       7
#     8   8   8   8   8   8   8
#     4  11  22  36  53  76 108 145 185 224 268 322
#     4   9  16  28  50  78 105 132 166 216 271 316
#     4  10  19  33  53  78 108 138 174 222 276 328
#     4   9  18  33  54  78 102 132 173 221 268 314
#     4   9  18  33  54  78 102 132 173 221 268 314
#     4  11  22  36  53  76 108 145 185 224 268 322
#     4  10  19  33  53  78 108 138 174 222 276 328
#
# _framework density 18.493261
#
# number of rings (size 3 to 8) (size 9 to 14) (size 15 to 20)
#    0.000    2.143    1.429    2.571    0.000    5.429 
#    0.000    0.000    0.000    5.143    0.000    0.000 
#    0.000    4.571    0.000    0.000    0.000    0.000 
#
# Total GULP energy -346976.592464 kJ/mol
# GULP energy per Si atom -12392.021159 kJ/mol
# Density = 1.845117 g / cm^3
# Si number density = 18.493261 Si / 1000 Ang^3
#
#
#
# Elastic Constant Matrix: (Units=GPa)
#
#
# Indices 1 2 3 4 5 6 
#
# 1 71.9233 34.1403 26.2175 0.0000 0.0000 -1.1478
# 2 34.1403 71.9233 26.2175 0.0000 0.0000 1.1478
# 3 26.2175 26.2175 73.3112 0.0000 0.0000 0.0000
# 4 0.0000 0.0000 0.0000 23.5140 0.0000 0.0000
# 5 0.0000 0.0000 0.0000 0.0000 23.5140 0.0000
# 6 -1.1478 1.1478 0.0000 0.0000 0.0000 23.9401
#
#
#
# Elastic Compliance Matrix: (Units=1/GPa)
#
#
# Indices 1 2 3 4 5 6 
#
# 1 0.018999 -0.007546 -0.004096 0.000000 0.000000 0.001273
# 2 -0.007546 0.018999 -0.004096 0.000000 0.000000 -0.001273
# 3 -0.004096 -0.004096 0.016570 0.000000 0.000000 0.000000
# 4 0.000000 0.000000 0.000000 0.042528 0.000000 0.000000
# 5 0.000000 0.000000 0.000000 0.000000 0.042528 0.000000
# 6 0.001273 -0.001273 0.000000 0.000000 0.000000 0.041893
#
#
# Mechanical properties :
#
#
# Convention : Reuss Voigt Hill
#
# Bulk Modulus (GPa) = 43.30342 43.36762 43.33552
# Shear Modulus (GPa) = 22.65639 22.89913 22.77776
#
# Velocity S-wave (km/s) = 3.50396 3.52268 3.51334
# Velocity P-wave (km/s) = 6.31165 6.32828 6.31997
#
# Compressibility (1/GPa) = 0.02309286
#
# Stress axis : x y z
#
# Youngs Moduli (GPa) = 52.63515 52.63515 60.34996
#
# Poissons Ratio (x) = 0.39716 0.24719
# Poissons Ratio (y) = 0.39716 0.24719
# Poissons Ratio (z) = 0.21559 0.21559
#
# Static dielectric constant tensor:
#      x y z
#    x 3.327190 0.000000 0.000000 
#    y 0.000000 3.327190 0.000000 
#    z 0.000000 0.000000 3.453680 
# 
# 
# High freq. dielectric constant tensor:
#      x y z
#    x 1.697990 0.000000 0.000000 
#    y 0.000000 1.697990 0.000000 
#    z 0.000000 0.000000 1.731620 
# 
# From -- ./inp_files/2317.got.cif
#   From: 2010.03.12/outbox.cif.g09.slc.cpg/sg82_2_cif.got.tgz:2317.got - 2010.04.08 20:02:50.
