data_PCOD8302325
_publ_section_title
;
Structure prediction by ZEFSAII (Michael W. Deem and Ramdas Pophale) SiO2 
 PCOD8302325
Probable space group: P -4
;
_chemical_formula_sum "Si O2"
_cell_formula_units_Z 16
_cell_length_a 5.145308
_cell_length_b 5.145308
_cell_length_c 24.525498
_cell_angle_alpha 90.000000
_cell_angle_beta 90.000000
_cell_angle_gamma 90.000000
_cell_volume 649.292802
_symmetry_space_group_name_H-M "P -4"
_symmetry_group_IT_number 81
_symmetry_cell_setting 'tetragonal'
loop_
_space_group_symop_operation_xyz
x,y,z
y,-x,-z
-x,-y,z
-y,x,-z
loop_
_atom_site_type_symbol
_atom_site_label
_atom_site_fract_x
_atom_site_fract_y
_atom_site_fract_z
Si Si1 0.745613 0.172928 0.583361
Si Si2 0.153210 0.753146 0.699553
Si Si3 0.500000 0.500000 0.140648
Si Si4 0.000000 0.500000 0.929202
Si Si5 0.000000 0.500000 0.209042
Si Si6 0.000000 0.000000 0.000000
Si Si7 0.500000 0.500000 0.500000
O O1 0.699770 0.313226 0.643253
O O2 0.737860 0.401640 0.538497
O O3 0.500000 0.000000 0.571244
O O4 0.000000 0.000000 0.575798
O O5 0.000000 0.500000 0.720332
O O6 0.297082 0.855796 0.752572
O O7 0.000000 0.000000 0.677820
O O8 0.414820 0.250628 0.105787
O O9 0.756479 0.398429 0.173457
O O10 0.078567 0.250335 0.964642
#
# Coordination Sequence:
#
# PCOD8302325 Si02
#       7
#     4   4   2   2   2   1   1
#     4  11  29  52  75 112 149 195 257 326 395 493
#     4  11  26  48  77 105 148 202 264 311 388 483
#     4  12  28  44  76 112 172 190 270 318 400 442
#     4  12  26  49  74 122 148 219 258 330 374 458
#     4  12  26  47  74 112 154 217 242 334 386 472
#     4  12  24  48  84 100 164 204 280 308 388 442
#     4  12  32  46  84 104 160 186 256 324 432 458
#
# _framework density 24.642195999999998
#
# number of rings (size 3 to 8) (size 9 to 14) (size 15 to 20)
#    0.000    0.500    1.250    4.500   15.750    1.000 
#    0.000    0.000    0.000    0.000    0.000    0.000 
#    0.000    0.000    0.000    0.000    0.000    0.000 
#
# Total GULP energy -198245.214274 kJ/mol
# GULP energy per Si atom -12390.325892 kJ/mol
# Density = 2.458611 g / cm^3
# Si number density = 24.642196 Si / 1000 Ang^3
#
#
#
# Elastic Constant Matrix: (Units=GPa)
#
#
# Indices 1 2 3 4 5 6 
#
# 1 153.6515 37.5418 53.4210 0.0000 0.0000 -7.4925
# 2 37.5418 153.6515 53.4210 0.0000 0.0000 7.4925
# 3 53.4210 53.4210 144.9292 0.0000 0.0000 0.0000
# 4 0.0000 0.0000 0.0000 54.9487 0.0000 0.0000
# 5 0.0000 0.0000 0.0000 0.0000 54.9487 0.0000
# 6 -7.4925 7.4925 0.0000 0.0000 0.0000 45.9013
#
#
#
# Elastic Compliance Matrix: (Units=1/GPa)
#
#
# Indices 1 2 3 4 5 6 
#
# 1 0.007693 -0.001105 -0.002428 0.000000 0.000000 0.001436
# 2 -0.001105 0.007693 -0.002428 0.000000 0.000000 -0.001436
# 3 -0.002428 -0.002428 0.008690 0.000000 0.000000 0.000000
# 4 0.000000 0.000000 0.000000 0.018199 0.000000 0.000000
# 5 0.000000 0.000000 0.000000 0.000000 0.018199 0.000000
# 6 0.001436 -0.001436 0.000000 0.000000 0.000000 0.022255
#
#
# Mechanical properties :
#
#
# Convention : Reuss Voigt Hill
#
# Bulk Modulus (GPa) = 82.29076 82.33333 82.31205
# Shear Modulus (GPa) = 50.65822 51.68296 51.17059
#
# Velocity S-wave (km/s) = 4.53896 4.58464 4.56185
# Velocity P-wave (km/s) = 7.80617 7.84278 7.82450
#
# Compressibility (1/GPa) = 0.01215203
#
# Stress axis : x y z
#
# Youngs Moduli (GPa) = 129.99672 129.99672 115.07672
#
# Poissons Ratio (x) = 0.14370 0.27941
# Poissons Ratio (y) = 0.14370 0.27941
# Poissons Ratio (z) = 0.31563 0.31563
#
# Static dielectric constant tensor:
#      x y z
#    x 3.581920 0.000000 0.000000 
#    y 0.000000 3.581920 0.000000 
#    z 0.000000 0.000000 4.868230 
# 
# 
# High freq. dielectric constant tensor:
#      x y z
#    x 1.982750 0.000000 0.000000 
#    y 0.000000 1.982750 0.000000 
#    z 0.000000 0.000000 2.005190 
# 
# From -- ./inp_files/1859.got.cif
#   From: 2010.03.12/outbox.cif.g09.slc.cpg/sg81_cif.got.tgz:1859.got - 2010.04.08 20:01:38.
