data_PCOD8302912
_publ_section_title
;
Structure prediction by ZEFSAII (Michael W. Deem and Ramdas Pophale) SiO2 
 PCOD8302912
Probable space group: P 4/M
;
_chemical_formula_sum "Si O2"
_cell_formula_units_Z 24
_cell_length_a 9.910358
_cell_length_b 9.910358
_cell_length_c 13.373977
_cell_angle_alpha 90.000000
_cell_angle_beta 90.000000
_cell_angle_gamma 90.000000
_cell_volume 1313.527768
_symmetry_space_group_name_H-M "P 4/M"
_symmetry_group_IT_number 83
_symmetry_cell_setting 'tetragonal'
loop_
_space_group_symop_operation_xyz
x,y,z
-y,x,z
-x,-y,z
y,-x,z
-x,-y,-z
y,-x,-z
x,y,-z
-y,x,-z
loop_
_atom_site_type_symbol
_atom_site_label
_atom_site_fract_x
_atom_site_fract_y
_atom_site_fract_z
Si Si1 0.092955 0.798411 0.112283
Si Si2 0.854832 0.635561 0.384627
Si Si3 0.143981 0.655453 0.691889
O O1 0.145868 0.687339 0.189918
O O2 0.935212 0.824466 0.129975
O O3 0.117671 0.744047 0.000000
O O4 0.856137 0.592757 0.500000
O O5 0.824613 0.502427 0.319551
O O6 0.739832 0.744142 0.366210
O O7 0.999939 0.696303 0.355027
#
# Coordination Sequence:
#
# PCOD8302912 Si02
#       3
#     8   8   8
#     4   9  17  33  58  87 114 145 187 239 290 337
#     4  11  23  38  57  82 117 152 194 239 281 337
#     4  11  21  38  57  84 115 151 190 233 287 335
#
# _framework density 18.271408000000001
#
# number of rings (size 3 to 8) (size 9 to 14) (size 15 to 20)
#    0.000    1.667    3.333    5.000    0.000    1.333 
#    0.000    8.333    0.000    0.000    0.000    2.333 
#    0.000    0.000    0.000    0.000    0.000    0.000 
#
# Total GULP energy -297669.494985 kJ/mol
# GULP energy per Si atom -12402.895624 kJ/mol
# Density = 1.822982 g / cm^3
# Si number density = 18.271408 Si / 1000 Ang^3
#
#
#
# Elastic Constant Matrix: (Units=GPa)
#
#
# Indices 1 2 3 4 5 6 
#
# 1 65.8354 56.7018 33.0195 0.0000 0.0000 1.6458
# 2 56.7018 65.8354 33.0195 0.0000 0.0000 -1.6458
# 3 33.0195 33.0195 143.9633 0.0000 0.0000 0.0000
# 4 0.0000 0.0000 0.0000 30.6671 0.0000 0.0000
# 5 0.0000 0.0000 0.0000 0.0000 30.6671 0.0000
# 6 1.6458 -1.6458 0.0000 0.0000 0.0000 30.7958
#
#
#
# Elastic Compliance Matrix: (Units=1/GPa)
#
#
# Indices 1 2 3 4 5 6 
#
# 1 0.060474 -0.051162 -0.002136 0.000000 0.000000 -0.005966
# 2 -0.051162 0.060474 -0.002136 0.000000 0.000000 0.005966
# 3 -0.002136 -0.002136 0.007926 0.000000 0.000000 0.000000
# 4 0.000000 0.000000 0.000000 0.032608 0.000000 0.000000
# 5 0.000000 0.000000 0.000000 0.000000 0.032608 0.000000
# 6 -0.005966 0.005966 0.000000 0.000000 0.000000 0.033110
#
#
# Mechanical properties :
#
#
# Convention : Reuss Voigt Hill
#
# Bulk Modulus (GPa) = 55.53545 57.90173 56.71859
# Shear Modulus (GPa) = 14.53202 28.61891 21.57547
#
# Velocity S-wave (km/s) = 2.82324 3.96197 3.44005
# Velocity P-wave (km/s) = 6.41002 7.25867 6.84750
#
# Compressibility (1/GPa) = 0.01800651
#
# Stress axis : x y z
#
# Youngs Moduli (GPa) = 16.53616 16.53616 126.16806
#
# Poissons Ratio (x) = 0.84602 0.26947
# Poissons Ratio (y) = 0.84602 0.26947
# Poissons Ratio (z) = 0.03532 0.03532
#
# Static dielectric constant tensor:
#      x y z
#    x 3.203870 0.000000 0.000000 
#    y 0.000000 3.203870 0.000000 
#    z 0.000000 0.000000 3.513950 
# 
# 
# High freq. dielectric constant tensor:
#      x y z
#    x 1.695720 0.000000 0.000000 
#    y 0.000000 1.695720 0.000000 
#    z 0.000000 0.000000 1.722320 
# 
# From -- ./inp_files/1425.got.cif
#   From: 2010.03.12/outbox.cif.g09.slc.cpg/sg83_1_cif.got.tgz:1425.got - 2010.04.08 20:05:18.
