data_PCOD8302115
_publ_section_title
;
Structure prediction by ZEFSAII (Michael W. Deem and Ramdas Pophale) SiO2 
 PCOD8302115
Probable space group: I 4
;
_chemical_formula_sum "Si O2"
_cell_formula_units_Z 60
_cell_length_a 11.235910
_cell_length_b 11.235910
_cell_length_c 21.209608
_cell_angle_alpha 90.000000
_cell_angle_beta 90.000000
_cell_angle_gamma 90.000000
_cell_volume 2677.621247
_symmetry_space_group_name_H-M "I 4"
_symmetry_group_IT_number 79
_symmetry_cell_setting 'tetragonal'
loop_
_space_group_symop_operation_xyz
x,y,z
-y,x,z
-x,-y,z
y,-x,z
1/2+x,1/2+y,1/2+z
1/2-y,1/2+x,1/2+z
1/2-x,1/2-y,1/2+z
1/2+y,1/2-x,1/2+z
loop_
_atom_site_type_symbol
_atom_site_label
_atom_site_fract_x
_atom_site_fract_y
_atom_site_fract_z
Si Si1 0.000000 0.500000 0.952370
Si Si2 0.202342 0.695593 0.818742
Si Si3 0.912293 0.178222 0.702370
Si Si4 0.070915 0.826985 0.916764
Si Si5 0.938831 0.288577 0.042177
Si Si6 0.788577 0.561169 0.862564
Si Si7 0.326985 0.429085 0.987977
Si Si8 0.297658 0.804407 0.085999
O O1 0.907122 0.565446 0.905661
O O2 0.934554 0.407122 0.999080
O O3 0.121115 0.741926 0.762285
O O4 0.128506 0.711905 0.883985
O O5 0.324524 0.771719 0.817536
O O6 0.222084 0.553316 0.816593
O O7 0.878885 0.258074 0.642456
O O8 0.053508 0.157260 0.702370
O O9 0.936627 0.847571 0.893667
O O10 0.070548 0.819654 0.992395
O O11 0.824524 0.271719 0.087205
O O12 0.053316 0.277916 0.088147
O O13 0.680346 0.570548 0.912346
O O14 0.436627 0.347571 0.011074
O O15 0.211905 0.371494 0.020756
#
# Coordination Sequence:
#
# PCOD8302115 Si02
#       8
#     4   8   8   8   8   8   8   8
#     4  12  24  36  64 114 144 176 220 292 358 412
#     4  12  26  44  68 102 140 187 231 282 339 409
#     4  11  28  54  76  95 128 182 240 285 332 416
#     4  11  21  39  66  98 137 182 223 277 341 402
#     4  12  24  40  66 103 147 178 224 281 352 411
#     4  12  24  40  66 103 147 178 224 281 352 411
#     4  11  21  39  66  98 137 182 223 277 341 402
#     4  12  26  44  68 102 140 187 231 282 339 409
#
# _framework density 22.407948000000001
#
# number of rings (size 3 to 8) (size 9 to 14) (size 15 to 20)
#    0.000    0.400    5.333    4.000    3.733    3.733 
#    0.000    1.333    0.000    1.600    0.000    0.000 
#    0.000    0.000    0.000    0.000    0.000    0.000 
#
# Total GULP energy -371974.935084 kJ/mol
# GULP energy per Si atom -12399.164503 kJ/mol
# Density = 2.235695 g / cm^3
# Si number density = 22.407948 Si / 1000 Ang^3
#
#
#
# Elastic Constant Matrix: (Units=GPa)
#
#
# Indices 1 2 3 4 5 6 
#
# 1 95.5587 17.4004 30.0798 0.0000 0.0000 6.4164
# 2 17.4004 95.5587 30.0798 0.0000 0.0000 -6.4164
# 3 30.0798 30.0798 81.3778 0.0000 0.0000 0.0000
# 4 0.0000 0.0000 0.0000 35.7417 0.0000 0.0000
# 5 0.0000 0.0000 0.0000 0.0000 35.7417 0.0000
# 6 6.4164 -6.4164 0.0000 0.0000 0.0000 23.7781
#
#
#
# Elastic Compliance Matrix: (Units=1/GPa)
#
#
# Indices 1 2 3 4 5 6 
#
# 1 0.012205 -0.001183 -0.004074 0.000000 0.000000 -0.003613
# 2 -0.001183 0.012205 -0.004074 0.000000 0.000000 0.003613
# 3 -0.004074 -0.004074 0.015300 0.000000 0.000000 0.000000
# 4 0.000000 0.000000 0.000000 0.027979 0.000000 0.000000
# 5 0.000000 0.000000 0.000000 0.000000 0.027979 0.000000
# 6 -0.003613 0.003613 0.000000 0.000000 0.000000 0.044005
#
#
# Mechanical properties :
#
#
# Convention : Reuss Voigt Hill
#
# Bulk Modulus (GPa) = 47.50957 47.51279 47.51118
# Shear Modulus (GPa) = 30.23861 32.04797 31.14329
#
# Velocity S-wave (km/s) = 3.67748 3.78591 3.73209
# Velocity P-wave (km/s) = 6.26737 6.35298 6.31032
#
# Compressibility (1/GPa) = 0.02104839
#
# Stress axis : x y z
#
# Youngs Moduli (GPa) = 81.93238 81.93238 65.35794
#
# Poissons Ratio (x) = 0.09689 0.26629
# Poissons Ratio (y) = 0.09689 0.26629
# Poissons Ratio (z) = 0.33382 0.33382
#
# Static dielectric constant tensor:
#      x y z
#    x 4.117950 0.000000 0.000000 
#    y 0.000000 4.117950 0.000000 
#    z 0.000000 0.000000 3.634310 
# 
# 
# High freq. dielectric constant tensor:
#      x y z
#    x 1.896930 0.000000 0.000000 
#    y 0.000000 1.896930 0.000000 
#    z 0.000000 0.000000 1.840680 
# 
# From -- ./inp_files/1868.got.cif
#   From: 2010.03.12/outbox.cif.g09.slc.cpg/sg79_cif.got.tgz:1868.got - 2010.04.16 16:38:49.
