data_PCOD8302920
_publ_section_title
;
Structure prediction by ZEFSAII (Michael W. Deem and Ramdas Pophale) SiO2 
 PCOD8302920
Probable space group: P 4/M
;
_chemical_formula_sum "Si O2"
_cell_formula_units_Z 60
_cell_length_a 11.367679
_cell_length_b 11.367679
_cell_length_c 21.441693
_cell_angle_alpha 90.000000
_cell_angle_beta 90.000000
_cell_angle_gamma 90.000000
_cell_volume 2770.784035
_symmetry_space_group_name_H-M "P 4/M"
_symmetry_group_IT_number 83
_symmetry_cell_setting 'tetragonal'
loop_
_space_group_symop_operation_xyz
x,y,z
-y,x,z
-x,-y,z
y,-x,z
-x,-y,-z
y,-x,-z
x,y,-z
-y,x,-z
loop_
_atom_site_type_symbol
_atom_site_label
_atom_site_fract_x
_atom_site_fract_y
_atom_site_fract_z
Si Si1 0.688551 0.505256 0.752513
Si Si2 0.160793 0.263051 0.070881
Si Si3 0.559709 0.318120 0.427188
Si Si4 0.110317 0.421115 0.334110
Si Si5 0.025924 0.190944 0.732883
Si Si6 0.479873 0.203547 0.119030
Si Si7 0.057504 0.725102 0.863692
Si Si8 0.323621 0.576877 0.000000
O O1 0.612849 0.619539 0.732054
O O2 0.816418 0.514270 0.720939
O O3 0.701528 0.499893 0.826891
O O4 0.172791 0.398163 0.088622
O O5 0.212877 0.182213 0.125705
O O6 0.019759 0.244788 0.074941
O O7 0.207501 0.240342 0.000000
O O8 0.646142 0.426022 0.409175
O O9 0.569428 0.291181 0.500000
O O10 0.597894 0.199841 0.391528
O O11 0.054188 0.298232 0.312767
O O12 0.000000 0.500000 0.355106
O O13 0.900371 0.131040 0.719802
O O14 0.017981 0.234013 0.804137
O O15 0.413803 0.087267 0.144631
O O16 0.392622 0.256117 0.064499
O O17 0.346627 0.439207 0.000000
#
# Coordination Sequence:
#
# PCOD8302920 Si02
#       8
#     8   8   8   8   8   8   8   4
#     4  11  24  42  64  95 134 176 225 289 360 427
#     4  12  26  42  64  92 119 157 210 282 350 427
#     4   9  20  43  76 114 159 205 241 283 341 399
#     4  12  26  39  72 109 145 186 238 297 344 400
#     4  11  26  49  70  93 134 189 237 287 349 419
#     4  12  25  39  64  90 124 160 211 274 356 434
#     4  12  25  45  68  87 122 167 220 280 348 427
#     4  11  22  38  57  82 122 166 207 253 336 448
#
# _framework density 21.654520000000002
#
# number of rings (size 3 to 8) (size 9 to 14) (size 15 to 20)
#    0.000    0.733    2.000    6.000    7.467    3.200 
#    0.000    0.667    0.000    0.000    0.000    0.933 
#    0.000    0.000    0.000    0.000    0.000    0.000 
#
# Total GULP energy -743804.937890 kJ/mol
# GULP energy per Si atom -12396.748965 kJ/mol
# Density = 2.160523 g / cm^3
# Si number density = 21.654520 Si / 1000 Ang^3
#
#
#
# Elastic Constant Matrix: (Units=GPa)
#
#
# Indices 1 2 3 4 5 6 
#
# 1 110.5015 49.1315 42.5503 0.0000 0.0000 -1.5173
# 2 49.1315 110.5015 42.5503 0.0000 0.0000 1.5173
# 3 42.5503 42.5503 100.3335 0.0000 0.0000 0.0000
# 4 0.0000 0.0000 0.0000 33.1453 0.0000 0.0000
# 5 0.0000 0.0000 0.0000 0.0000 33.1453 0.0000
# 6 -1.5173 1.5173 0.0000 0.0000 0.0000 23.7297
#
#
#
# Elastic Compliance Matrix: (Units=1/GPa)
#
#
# Indices 1 2 3 4 5 6 
#
# 1 0.012220 -0.004126 -0.003433 0.000000 0.000000 0.001045
# 2 -0.004126 0.012220 -0.003433 0.000000 0.000000 -0.001045
# 3 -0.003433 -0.003433 0.012878 0.000000 0.000000 0.000000
# 4 0.000000 0.000000 0.000000 0.030170 0.000000 0.000000
# 5 0.000000 0.000000 0.000000 0.000000 0.030170 0.000000
# 6 0.001045 -0.001045 0.000000 0.000000 0.000000 0.042275
#
#
# Mechanical properties :
#
#
# Convention : Reuss Voigt Hill
#
# Bulk Modulus (GPa) = 65.20549 65.53343 65.36946
# Shear Modulus (GPa) = 29.93487 30.47766 30.20627
#
# Velocity S-wave (km/s) = 3.72208 3.75567 3.73891
# Velocity P-wave (km/s) = 6.97488 7.00968 6.99230
#
# Compressibility (1/GPa) = 0.01533613
#
# Stress axis : x y z
#
# Youngs Moduli (GPa) = 81.83082 81.83082 77.64986
#
# Poissons Ratio (x) = 0.33763 0.26655
# Poissons Ratio (y) = 0.33763 0.26655
# Poissons Ratio (z) = 0.28090 0.28090
#
# Static dielectric constant tensor:
#      x y z
#    x 4.130350 0.000000 0.000000 
#    y 0.000000 4.130350 0.000000 
#    z 0.000000 0.000000 3.836000 
# 
# 
# High freq. dielectric constant tensor:
#      x y z
#    x 1.863890 0.000000 0.000000 
#    y 0.000000 1.863890 0.000000 
#    z 0.000000 0.000000 1.826600 
# 
# From -- ./inp_files/3042.got.cif
#   From: 2010.03.12/outbox.cif.g09.slc.cpg/sg83_2_cif.got.tgz:3042.got - 2010.04.08 20:05:18.
