data_PCOD8302404
_publ_section_title
;
Structure prediction by ZEFSAII (Michael W. Deem and Ramdas Pophale) SiO2 
 PCOD8302404
Probable space group: I -4 
;
_chemical_formula_sum "Si O2"
_cell_formula_units_Z 48
_cell_length_a 10.490367
_cell_length_b 10.490367
_cell_length_c 22.495642
_cell_angle_alpha 90.000000
_cell_angle_beta 90.000000
_cell_angle_gamma 90.000000
_cell_volume 2475.595907
_symmetry_space_group_name_H-M "I -4 "
_symmetry_group_IT_number 82
_symmetry_cell_setting 'tetragonal'
loop_
_space_group_symop_operation_xyz
x,y,z
y,-x,-z
-x,-y,z
-y,x,-z
1/2+x,1/2+y,1/2+z
1/2+y,1/2-x,1/2-z
1/2-x,1/2-y,1/2+z
1/2-y,1/2+x,1/2-z
loop_
_atom_site_type_symbol
_atom_site_label
_atom_site_fract_x
_atom_site_fract_y
_atom_site_fract_z
Si Si1 0.755459 0.801646 0.629875
Si Si2 0.697089 0.551934 0.011525
Si Si3 0.560397 0.305163 0.513962
Si Si4 0.568186 0.879203 0.069937
Si Si5 0.494288 0.652988 0.639785
Si Si6 0.934982 0.300897 0.252687
O O1 0.749250 0.897038 0.573849
O O2 0.878028 0.709907 0.622334
O O3 0.634420 0.711571 0.636044
O O4 0.771229 0.887076 0.688427
O O5 0.643374 0.408560 0.017676
O O6 0.812702 0.547409 0.965379
O O7 0.412540 0.346606 0.511895
O O8 0.585536 0.177258 0.477843
O O9 0.588200 0.291557 0.584526
O O10 0.500000 0.000000 0.100134
O O11 0.500000 0.500000 0.637115
O O12 0.425417 0.698694 0.699728
O O13 0.846501 0.420781 0.236394
#
# Coordination Sequence:
#
# PCOD8302404 Si02
#       6
#     8   8   8   8   8   8
#     4  10  20  40  59  84 121 153 200 250 289 359
#     4   9  20  38  57  85 124 158 199 245 297 356
#     4  11  20  36  58  89 118 152 189 246 307 358
#     4  11  22  33  58  91 125 156 193 241 306 370
#     4  11  20  37  61  87 121 150 195 250 306 358
#     4   9  21  39  62  89 114 154 206 253 295 347
#
# _framework density 19.389271999999998
#
# number of rings (size 3 to 8) (size 9 to 14) (size 15 to 20)
#    0.000    1.833    3.333    1.000    4.667    0.000 
#    6.000    0.000    7.333    0.000    0.000    0.000 
#    0.000    0.000    0.000    0.000    0.000    0.000 
#
# Total GULP energy -297530.313805 kJ/mol
# GULP energy per Si atom -12397.096409 kJ/mol
# Density = 1.934514 g / cm^3
# Si number density = 19.389272 Si / 1000 Ang^3
#
#
#
# Elastic Constant Matrix: (Units=GPa)
#
#
# Indices 1 2 3 4 5 6 
#
# 1 77.8686 27.0642 47.1569 0.0000 0.0000 -1.3091
# 2 27.0642 77.8686 47.1569 0.0000 0.0000 1.3091
# 3 47.1569 47.1569 137.2807 0.0000 0.0000 0.0000
# 4 0.0000 0.0000 0.0000 30.0134 0.0000 0.0000
# 5 0.0000 0.0000 0.0000 0.0000 30.0134 0.0000
# 6 -1.3091 1.3091 0.0000 0.0000 0.0000 18.3624
#
#
#
# Elastic Compliance Matrix: (Units=1/GPa)
#
#
# Indices 1 2 3 4 5 6 
#
# 1 0.016771 -0.002985 -0.004736 0.000000 0.000000 0.001408
# 2 -0.002985 0.016771 -0.004736 0.000000 0.000000 -0.001408
# 3 -0.004736 -0.004736 0.010538 0.000000 0.000000 0.000000
# 4 0.000000 0.000000 0.000000 0.033318 0.000000 0.000000
# 5 0.000000 0.000000 0.000000 0.000000 0.033318 0.000000
# 6 0.001408 -0.001408 0.000000 0.000000 0.000000 0.054660
#
#
# Mechanical properties :
#
#
# Convention : Reuss Voigt Hill
#
# Bulk Modulus (GPa) = 52.17099 59.53043 55.85071
# Shear Modulus (GPa) = 25.42219 27.12051 26.27135
#
# Velocity S-wave (km/s) = 3.62490 3.74403 3.68495
# Velocity P-wave (km/s) = 6.66974 7.03276 6.85366
#
# Compressibility (1/GPa) = 0.01916774
#
# Stress axis : x y z
#
# Youngs Moduli (GPa) = 59.62616 59.62616 94.89597
#
# Poissons Ratio (x) = 0.17797 0.44940
# Poissons Ratio (y) = 0.17797 0.44940
# Poissons Ratio (z) = 0.28237 0.28237
#
# Static dielectric constant tensor:
#      x y z
#    x 3.656770 0.000000 0.000000 
#    y 0.000000 3.656770 0.000000 
#    z 0.000000 0.000000 3.630890 
# 
# 
# High freq. dielectric constant tensor:
#      x y z
#    x 1.757190 0.000000 0.000000 
#    y 0.000000 1.757190 0.000000 
#    z 0.000000 0.000000 1.741380 
# 
# From -- ./inp_files/3060.got.cif
#   From: 2010.03.12/outbox.cif.g09.slc.cpg/sg82_2_cif.got.tgz:3060.got - 2010.04.08 20:02:50.
