data_PCOD8302634
_publ_section_title
;
Structure prediction by ZEFSAII (Michael W. Deem and Ramdas Pophale) SiO2 
 PCOD8302634
Probable space group: P 4/M
;
_chemical_formula_sum "Si O2"
_cell_formula_units_Z 48
_cell_length_a 16.688138
_cell_length_b 16.688138
_cell_length_c 8.613567
_cell_angle_alpha 90.000000
_cell_angle_beta 90.000000
_cell_angle_gamma 90.000000
_cell_volume 2398.826297
_symmetry_space_group_name_H-M "P 4/M"
_symmetry_group_IT_number 83
_symmetry_cell_setting 'tetragonal'
loop_
_space_group_symop_operation_xyz
x,y,z
-y,x,z
-x,-y,z
y,-x,z
-x,-y,-z
y,-x,-z
x,y,-z
-y,x,-z
loop_
_atom_site_type_symbol
_atom_site_label
_atom_site_fract_x
_atom_site_fract_y
_atom_site_fract_z
Si Si1 0.336757 0.754384 0.183428
Si Si2 0.770740 0.960104 0.817194
Si Si3 0.461366 0.886464 0.180717
Si Si4 0.607801 0.957057 0.320151
Si Si5 0.595645 0.583911 0.184870
Si Si6 0.194061 0.862664 0.817329
O O1 0.413247 0.807744 0.229128
O O2 0.355718 0.664922 0.249821
O O3 0.256530 0.796730 0.253578
O O4 0.326367 0.749613 0.000000
O O5 0.791682 0.048120 0.750288
O O6 0.694502 0.924897 0.726662
O O7 0.841238 0.897616 0.777555
O O8 0.753267 0.961809 0.000000
O O9 0.543506 0.888402 0.278376
O O10 0.407893 0.963899 0.218409
O O11 0.482750 0.886439 0.000000
O O12 0.601739 0.979022 0.500000
O O13 0.507783 0.612126 0.242380
O O14 0.598965 0.583795 0.000000
O O15 0.208634 0.866003 0.000000
#
# Coordination Sequence:
#
# PCOD8302634 Si02
#       6
#     8   8   8   8   8   8
#     4   9  16  27  46  74 102 130 169 215 259 308
#     4  10  19  35  55  76 104 137 176 222 271 320
#     4  10  18  31  53  77 103 133 169 212 262 318
#     4  11  21  33  50  75 106 138 172 209 257 319
#     4   8  14  24  38  61  98 138 169 201 246 299
#     4   9  18  31  51  77 103 132 173 223 272 322
#
# _framework density 20.009785999999998
#
# number of rings (size 3 to 8) (size 9 to 14) (size 15 to 20)
#    0.000    2.500    1.667    3.500    0.000    1.667 
#    0.000    7.500    0.000    0.000    0.000    1.167 
#    0.000    0.000    0.000    9.167    0.000    8.333 
#
# Total GULP energy -594890.945014 kJ/mol
# GULP energy per Si atom -12393.561354 kJ/mol
# Density = 1.996424 g / cm^3
# Si number density = 20.009786 Si / 1000 Ang^3
#
#
#
# Elastic Constant Matrix: (Units=GPa)
#
#
# Indices 1 2 3 4 5 6 
#
# 1 117.0649 71.2981 13.7160 0.0000 0.0000 1.0132
# 2 71.2981 117.0649 13.7160 0.0000 0.0000 -1.0132
# 3 13.7160 13.7160 17.7619 0.0000 0.0000 0.0000
# 4 0.0000 0.0000 0.0000 3.3893 0.0000 0.0000
# 5 0.0000 0.0000 0.0000 0.0000 3.3893 0.0000
# 6 1.0132 -1.0132 0.0000 0.0000 0.0000 19.1609
#
#
#
# Elastic Compliance Matrix: (Units=1/GPa)
#
#
# Indices 1 2 3 4 5 6 
#
# 1 0.013941 -0.007960 -0.004619 0.000000 0.000000 -0.001158
# 2 -0.007960 0.013941 -0.004619 0.000000 0.000000 0.001158
# 3 -0.004619 -0.004619 0.063434 0.000000 0.000000 0.000000
# 4 0.000000 0.000000 0.000000 0.295043 0.000000 0.000000
# 5 0.000000 0.000000 0.000000 0.000000 0.295043 0.000000
# 6 -0.001158 0.001158 0.000000 0.000000 0.000000 0.052312
#
#
# Mechanical properties :
#
#
# Convention : Reuss Voigt Hill
#
# Bulk Modulus (GPa) = 17.56822 49.92799 33.74811
# Shear Modulus (GPa) = 6.35256 15.39869 10.87562
#
# Velocity S-wave (km/s) = 1.78371 2.77710 2.33387
# Velocity P-wave (km/s) = 3.61124 5.94045 4.91579
#
# Compressibility (1/GPa) = 0.05692097
#
# Stress axis : x y z
#
# Youngs Moduli (GPa) = 71.72892 71.72892 15.76440
#
# Poissons Ratio (x) = 0.57095 0.07282
# Poissons Ratio (y) = 0.57095 0.07282
# Poissons Ratio (z) = 0.33132 0.33132
#
# Static dielectric constant tensor:
#      x y z
#    x 3.812690 0.000000 0.000000 
#    y 0.000000 3.812690 0.000000 
#    z 0.000000 0.000000 3.006140 
# 
# 
# High freq. dielectric constant tensor:
#      x y z
#    x 1.781700 0.000000 0.000000 
#    y 0.000000 1.781700 0.000000 
#    z 0.000000 0.000000 1.717770 
# 
# From -- ./inp_files/926.got.cif
#   From: 2010.03.12/outbox.cif.g09.slc.cpg/sg83_1_cif.got.tgz:926.got - 2010.04.08 20:05:18.
