data_PCOD8302118
_publ_section_title
;
Structure prediction by ZEFSAII (Michael W. Deem and Ramdas Pophale) SiO2 
 PCOD8302118
Probable space group: I 4
;
_chemical_formula_sum "Si O2"
_cell_formula_units_Z 56
_cell_length_a 13.831587
_cell_length_b 13.831587
_cell_length_c 13.309912
_cell_angle_alpha 90.000000
_cell_angle_beta 90.000000
_cell_angle_gamma 90.000000
_cell_volume 2546.356518
_symmetry_space_group_name_H-M "I 4"
_symmetry_group_IT_number 79
_symmetry_cell_setting 'tetragonal'
loop_
_space_group_symop_operation_xyz
x,y,z
-y,x,z
-x,-y,z
y,-x,z
1/2+x,1/2+y,1/2+z
1/2-y,1/2+x,1/2+z
1/2-x,1/2-y,1/2+z
1/2+y,1/2-x,1/2+z
loop_
_atom_site_type_symbol
_atom_site_label
_atom_site_fract_x
_atom_site_fract_y
_atom_site_fract_z
Si Si1 0.848504 0.959810 0.666690
Si Si2 0.161388 0.796595 0.495288
Si Si3 0.763567 0.812253 0.163140
Si Si4 0.650348 0.887662 0.337692
Si Si5 0.399380 0.235205 0.826714
Si Si6 0.047173 0.709487 0.843019
Si Si7 0.960575 0.153923 0.028134
O O1 0.821605 0.940765 0.549696
O O2 0.753667 0.941081 0.732260
O O3 0.932690 0.883071 0.690618
O O4 0.241739 0.780253 0.580038
O O5 0.151810 0.693880 0.441020
O O6 0.184023 0.881842 0.413820
O O7 0.681213 0.817943 0.247259
O O8 0.861965 0.773803 0.218077
O O9 0.775434 0.920056 0.114859
O O10 0.534846 0.874740 0.347369
O O11 0.696111 0.992304 0.315456
O O12 0.339149 0.146841 0.870962
O O13 0.034493 0.797275 0.919598
O O14 0.068222 0.116894 0.041041
#
# Coordination Sequence:
#
# PCOD8302118 Si02
#       7
#     8   8   8   8   8   8   8
#     4  11  23  39  66  98 128 168 224 281 331 386
#     4  11  22  43  67  91 128 178 222 273 331 393
#     4  11  22  43  67  91 128 178 222 273 331 393
#     4  11  26  40  65  96 133 174 217 275 329 404
#     4  11  24  44  65  96 133 182 221 266 337 402
#     4  12  23  41  64  94 138 170 220 270 334 399
#     4  11  23  39  66  98 128 168 224 281 331 386
#
# _framework density 21.992207000000001
#
# number of rings (size 3 to 8) (size 9 to 14) (size 15 to 20)
#    0.000    0.857    2.857    4.714    4.000    1.143 
#    0.000    0.000    6.286    6.857    0.000    0.000 
#    0.000    0.000    0.000    0.000    0.000    0.000 
#
# Total GULP energy -347031.945470 kJ/mol
# GULP energy per Si atom -12393.998053 kJ/mol
# Density = 2.194215 g / cm^3
# Si number density = 21.992207 Si / 1000 Ang^3
#
#
#
# Elastic Constant Matrix: (Units=GPa)
#
#
# Indices 1 2 3 4 5 6 
#
# 1 96.6892 -18.6756 19.7058 0.0000 0.0000 -51.3231
# 2 -18.6756 96.6892 19.7058 0.0000 0.0000 51.3231
# 3 19.7058 19.7058 93.4489 0.0000 0.0000 0.0000
# 4 0.0000 0.0000 0.0000 26.7249 0.0000 0.0000
# 5 0.0000 0.0000 0.0000 0.0000 26.7249 0.0000
# 6 -51.3231 51.3231 0.0000 0.0000 0.0000 97.6536
#
#
#
# Elastic Compliance Matrix: (Units=1/GPa)
#
#
# Indices 1 2 3 4 5 6 
#
# 1 0.015314 -0.000968 -0.003025 0.000000 0.000000 0.008557
# 2 -0.000968 0.015314 -0.003025 0.000000 0.000000 -0.008557
# 3 -0.003025 -0.003025 0.011977 0.000000 0.000000 0.000000
# 4 0.000000 0.000000 0.000000 0.037418 0.000000 0.000000
# 5 0.000000 0.000000 0.000000 0.000000 0.037418 0.000000
# 6 0.008557 -0.008557 0.000000 0.000000 0.000000 0.019235
#
#
# Mechanical properties :
#
#
# Convention : Reuss Voigt Hill
#
# Bulk Modulus (GPa) = 35.00304 36.47772 35.74038
# Shear Modulus (GPa) = 31.20388 47.96012 39.58200
#
# Velocity S-wave (km/s) = 3.77086 4.67495 4.24703
# Velocity P-wave (km/s) = 5.90846 6.76482 6.35109
#
# Compressibility (1/GPa) = 0.02856895
#
# Stress axis : x y z
#
# Youngs Moduli (GPa) = 65.29856 65.29856 83.49378
#
# Poissons Ratio (x) = 0.06319 0.25259
# Poissons Ratio (y) = 0.06319 0.25259
# Poissons Ratio (z) = 0.19755 0.19755
#
# Static dielectric constant tensor:
#      x y z
#    x 3.977320 0.000000 0.000000 
#    y 0.000000 3.977320 0.000000 
#    z 0.000000 0.000000 4.019220 
# 
# 
# High freq. dielectric constant tensor:
#      x y z
#    x 1.863690 0.000000 0.000000 
#    y 0.000000 1.863690 0.000000 
#    z 0.000000 0.000000 1.875690 
# 
# From -- ./inp_files/1142.got.cif
#   From: 2010.03.12/outbox.cif.g09.slc.cpg/sg79_cif.got.tgz:1142.got - 2010.04.16 16:38:49.
