data_PCOD8302779
_publ_section_title
;
Structure prediction by ZEFSAII (Michael W. Deem and Ramdas Pophale) SiO2 
 PCOD8302779
Probable space group: P 4/M
;
_chemical_formula_sum "Si O2"
_cell_formula_units_Z 52
_cell_length_a 14.818149
_cell_length_b 14.818149
_cell_length_c 12.143763
_cell_angle_alpha 90.000000
_cell_angle_beta 90.000000
_cell_angle_gamma 90.000000
_cell_volume 2666.497603
_symmetry_space_group_name_H-M "P 4/M"
_symmetry_group_IT_number 83
_symmetry_cell_setting 'tetragonal'
loop_
_space_group_symop_operation_xyz
x,y,z
-y,x,z
-x,-y,z
y,-x,z
-x,-y,-z
y,-x,-z
x,y,-z
-y,x,-z
loop_
_atom_site_type_symbol
_atom_site_label
_atom_site_fract_x
_atom_site_fract_y
_atom_site_fract_z
Si Si1 0.309739 0.424103 0.875997
Si Si2 0.602026 0.997311 0.870463
Si Si3 0.415364 0.294495 0.266588
Si Si4 0.356437 0.533005 0.500000
Si Si5 0.275122 0.145687 0.233314
Si Si6 0.156216 0.280030 0.120317
Si Si7 0.952832 0.136437 0.629629
O O1 0.258223 0.508491 0.818784
O O2 0.387396 0.390456 0.790455
O O3 0.243151 0.341766 0.890403
O O4 0.345262 0.449797 0.000000
O O5 0.654434 0.904514 0.846827
O O6 0.500000 0.000000 0.819625
O O7 0.663448 0.077524 0.817577
O O8 0.592887 0.012926 0.000000
O O9 0.456169 0.300271 0.388444
O O10 0.331700 0.227475 0.284907
O O11 0.392087 0.432547 0.500000
O O12 0.186067 0.186335 0.175293
O O13 0.233337 0.077208 0.322270
O O14 0.119365 0.253347 0.000000
O O15 0.948656 0.146362 0.500000
O O16 0.054901 0.113460 0.667367
#
# Coordination Sequence:
#
# PCOD8302779 Si02
#       7
#     8   8   8   4   8   8   8
#     4  10  20  35  53  79 111 140 182 232 281 330
#     4  10  20  35  56  81 113 153 187 220 275 342
#     4  11  22  35  53  80 104 148 182 231 279 329
#     4  11  22  40  58  70 107 144 197 231 278 341
#     4  11  21  33  57  82 111 141 187 229 274 327
#     4   9  19  34  52  79 114 146 180 225 274 333
#     4   9  19  37  59  82 107 137 178 229 281 329
#
# _framework density 19.501237
#
# number of rings (size 3 to 8) (size 9 to 14) (size 15 to 20)
#    0.000    1.923    1.538    3.231    1.077    3.385 
#    0.000    0.769    0.000    0.462    0.000    6.462 
#    0.000    0.000    0.000    0.000    0.000    0.000 
#
# Total GULP energy -644318.257443 kJ/mol
# GULP energy per Si atom -12390.735720 kJ/mol
# Density = 1.945685 g / cm^3
# Si number density = 19.501237 Si / 1000 Ang^3
#
#
#
# Elastic Constant Matrix: (Units=GPa)
#
#
# Indices 1 2 3 4 5 6 
#
# 1 80.0708 26.2893 21.6278 0.0000 0.0000 0.1153
# 2 26.2893 80.0708 21.6278 0.0000 0.0000 -0.1153
# 3 21.6278 21.6278 84.5441 0.0000 0.0000 0.0000
# 4 0.0000 0.0000 0.0000 20.5878 0.0000 0.0000
# 5 0.0000 0.0000 0.0000 0.0000 20.5878 0.0000
# 6 0.1153 -0.1153 0.0000 0.0000 0.0000 34.1184
#
#
#
# Elastic Compliance Matrix: (Units=1/GPa)
#
#
# Indices 1 2 3 4 5 6 
#
# 1 0.014544 -0.004050 -0.002684 0.000000 0.000000 -0.000063
# 2 -0.004050 0.014544 -0.002684 0.000000 0.000000 0.000063
# 3 -0.002684 -0.002684 0.013202 0.000000 0.000000 0.000000
# 4 0.000000 0.000000 0.000000 0.048572 0.000000 0.000000
# 5 0.000000 0.000000 0.000000 0.000000 0.048572 0.000000
# 6 -0.000063 0.000063 0.000000 0.000000 0.000000 0.029310
#
#
# Mechanical properties :
#
#
# Convention : Reuss Voigt Hill
#
# Bulk Modulus (GPa) = 42.64167 42.64171 42.64169
# Shear Modulus (GPa) = 25.58857 26.73485 26.16171
#
# Velocity S-wave (km/s) = 3.62629 3.70663 3.66668
# Velocity P-wave (km/s) = 6.28068 6.34290 6.31187
#
# Compressibility (1/GPa) = 0.02345124
#
# Stress axis : x y z
#
# Youngs Moduli (GPa) = 68.75731 68.75731 75.74833
#
# Poissons Ratio (x) = 0.27848 0.20334
# Poissons Ratio (y) = 0.27848 0.20334
# Poissons Ratio (z) = 0.18458 0.18458
#
# Static dielectric constant tensor:
#      x y z
#    x 3.555500 0.000000 0.000000 
#    y 0.000000 3.555500 0.000000 
#    z 0.000000 0.000000 3.467780 
# 
# 
# High freq. dielectric constant tensor:
#      x y z
#    x 1.758220 0.000000 0.000000 
#    y 0.000000 1.758220 0.000000 
#    z 0.000000 0.000000 1.737790 
# 
# From -- ./inp_files/1950.got.cif
#   From: 2010.03.12/outbox.cif.g09.slc.cpg/sg83_1_cif.got.tgz:1950.got - 2010.04.08 20:05:18.
