data_PCOD8302484
_publ_section_title
;
Structure prediction by ZEFSAII (Michael W. Deem and Ramdas Pophale) SiO2 
 PCOD8302484
Probable space group: I -4 
;
_chemical_formula_sum "Si O2"
_cell_formula_units_Z 52
_cell_length_a 16.805205
_cell_length_b 16.805205
_cell_length_c 8.325006
_cell_angle_alpha 90.000000
_cell_angle_beta 90.000000
_cell_angle_gamma 90.000000
_cell_volume 2351.105863
_symmetry_space_group_name_H-M "I -4 "
_symmetry_group_IT_number 82
_symmetry_cell_setting 'tetragonal'
loop_
_space_group_symop_operation_xyz
x,y,z
y,-x,-z
-x,-y,z
-y,x,-z
1/2+x,1/2+y,1/2+z
1/2+y,1/2-x,1/2-z
1/2-x,1/2-y,1/2+z
1/2-y,1/2+x,1/2-z
loop_
_atom_site_type_symbol
_atom_site_label
_atom_site_fract_x
_atom_site_fract_y
_atom_site_fract_z
Si Si1 0.500000 0.000000 0.250000
Si Si2 0.454938 0.255626 0.702301
Si Si3 0.834695 0.486636 0.620969
Si Si4 0.584907 0.358589 0.840359
Si Si5 0.428005 0.395406 0.485213
Si Si6 0.229170 0.819343 0.563907
Si Si7 0.682496 0.839170 0.224132
Si Si8 0.500000 0.500000 0.000000
O O1 0.500786 0.928858 0.377714
O O2 0.476632 0.191929 0.564348
O O3 0.534663 0.278075 0.803271
O O4 0.412718 0.331786 0.622247
O O5 0.385733 0.228495 0.823349
O O6 0.816705 0.407981 0.725763
O O7 0.798308 0.566084 0.705782
O O8 0.630067 0.383555 0.677181
O O9 0.650316 0.351465 0.976719
O O10 0.521467 0.426357 0.885741
O O11 0.396427 0.478275 0.554234
O O12 0.201594 0.739117 0.647464
O O13 0.299503 0.796596 0.444638
#
# Coordination Sequence:
#
# PCOD8302484 Si02
#       8
#     2   8   8   8   8   8   8   2
#     4   8  20  48  76 106 116 172 230 316 356 424
#     4  11  23  38  67  98 137 178 224 271 344 412
#     4  10  23  48  76  97 131 180 233 291 368 417
#     4  11  23  36  63  96 146 179 229 260 333 406
#     4   9  19  34  56  90 137 182 213 253 307 397
#     4  12  27  43  68 106 142 183 230 292 339 425
#     4  11  27  47  75  99 143 180 238 294 364 413
#     4  12  20  40  58 108 140 196 214 276 304 452
#
# _framework density 22.117252000000001
#
# number of rings (size 3 to 8) (size 9 to 14) (size 15 to 20)
#    0.000    1.385    1.538    3.692    8.615    0.000 
#    0.000    0.000    0.000    0.000    0.000    0.000 
#    0.000    0.000    0.000    0.000    0.000    0.000 
#
# Total GULP energy -322329.139377 kJ/mol
# GULP energy per Si atom -12397.274591 kJ/mol
# Density = 2.206691 g / cm^3
# Si number density = 22.117252 Si / 1000 Ang^3
#
#
#
# Elastic Constant Matrix: (Units=GPa)
#
#
# Indices 1 2 3 4 5 6 
#
# 1 86.9850 35.9179 44.9495 0.0000 0.0000 1.3495
# 2 35.9179 86.9850 44.9495 0.0000 0.0000 -1.3495
# 3 44.9495 44.9495 103.4818 0.0000 0.0000 0.0000
# 4 0.0000 0.0000 0.0000 42.7302 0.0000 0.0000
# 5 0.0000 0.0000 0.0000 0.0000 42.7302 0.0000
# 6 1.3495 -1.3495 0.0000 0.0000 0.0000 22.6640
#
#
#
# Elastic Compliance Matrix: (Units=1/GPa)
#
#
# Indices 1 2 3 4 5 6 
#
# 1 0.015785 -0.003859 -0.005180 0.000000 0.000000 -0.001170
# 2 -0.003859 0.015785 -0.005180 0.000000 0.000000 0.001170
# 3 -0.005180 -0.005180 0.014164 0.000000 0.000000 0.000000
# 4 0.000000 0.000000 0.000000 0.023403 0.000000 0.000000
# 5 0.000000 0.000000 0.000000 0.000000 0.023403 0.000000
# 6 -0.001170 0.001170 0.000000 0.000000 0.000000 0.044262
#
#
# Mechanical properties :
#
#
# Convention : Reuss Voigt Hill
#
# Bulk Modulus (GPa) = 57.82226 58.78729 58.30478
# Shear Modulus (GPa) = 29.23903 31.73386 30.48645
#
# Velocity S-wave (km/s) = 3.63988 3.79199 3.71671
# Velocity P-wave (km/s) = 6.62308 6.76829 6.69608
#
# Compressibility (1/GPa) = 0.01729438
#
# Stress axis : x y z
#
# Youngs Moduli (GPa) = 63.35235 63.35235 70.60296
#
# Poissons Ratio (x) = 0.24449 0.36573
# Poissons Ratio (y) = 0.24449 0.36573
# Poissons Ratio (z) = 0.32817 0.32817
#
# Static dielectric constant tensor:
#      x y z
#    x 4.049070 0.000000 0.000000 
#    y 0.000000 4.049070 0.000000 
#    z 0.000000 0.000000 4.083980 
# 
# 
# High freq. dielectric constant tensor:
#      x y z
#    x 1.869210 0.000000 0.000000 
#    y 0.000000 1.869210 0.000000 
#    z 0.000000 0.000000 1.872710 
# 
# From -- ./inp_files/1181.got.cif
#   From: 2010.03.12/outbox.cif.g09.slc.cpg/sg82_1_cif.got.tgz:1181.got - 2010.04.08 20:02:50.
