data_PCOD8302382
_publ_section_title
;
Structure prediction by ZEFSAII (Michael W. Deem and Ramdas Pophale) SiO2 
 PCOD8302382
Probable space group: I -4 
;
_chemical_formula_sum "Si O2"
_cell_formula_units_Z 46
_cell_length_a 8.962456
_cell_length_b 8.962456
_cell_length_c 30.467445
_cell_angle_alpha 90.000000
_cell_angle_beta 90.000000
_cell_angle_gamma 90.000000
_cell_volume 2447.316335
_symmetry_space_group_name_H-M "I -4 "
_symmetry_group_IT_number 82
_symmetry_cell_setting 'tetragonal'
loop_
_space_group_symop_operation_xyz
x,y,z
y,-x,-z
-x,-y,z
-y,x,-z
1/2+x,1/2+y,1/2+z
1/2+y,1/2-x,1/2-z
1/2-x,1/2-y,1/2+z
1/2-y,1/2+x,1/2-z
loop_
_atom_site_type_symbol
_atom_site_label
_atom_site_fract_x
_atom_site_fract_y
_atom_site_fract_z
Si Si1 0.544372 0.285907 0.484355
Si Si2 0.948978 0.785979 0.515065
Si Si3 0.779990 0.334259 0.682160
Si Si4 0.427010 0.216045 0.759772
Si Si5 0.500000 0.500000 0.293924
Si Si6 0.000000 0.500000 0.750000
Si Si7 0.883080 0.375521 0.587264
O O1 0.422949 0.337219 0.521425
O O2 0.634144 0.136938 0.499343
O O3 0.451334 0.253478 0.439868
O O4 0.075556 0.832994 0.479139
O O5 0.038796 0.757353 0.559989
O O6 0.732003 0.168252 0.696075
O O7 0.634505 0.438150 0.676737
O O8 0.894391 0.402516 0.718000
O O9 0.838734 0.307767 0.633552
O O10 0.593509 0.157753 0.771094
O O11 0.429190 0.373152 0.736113
O O12 0.000000 0.500000 0.599508
#
# Coordination Sequence:
#
# PCOD8302382 Si02
#       7
#     8   8   8   8   4   2   8
#     4  10  20  36  62  89 117 154 204 247 312 373
#     4  10  20  38  63  82 119 158 206 242 312 373
#     4  11  21  37  61  87 124 153 209 250 302 366
#     4   9  19  36  59  84 118 161 202 244 305 364
#     4  10  20  34  60  88 113 164 199 246 302 366
#     4  12  20  36  60  88 112 164 200 240 304 364
#     4  10  21  37  60  93 119 158 202 265 295 359
#
# _framework density 18.796099999999999
#
# number of rings (size 3 to 8) (size 9 to 14) (size 15 to 20)
#    0.000    1.913    4.348    0.000    0.000    1.391 
#    0.000    1.739    7.652    6.261    0.000    0.000 
#    0.000    0.000    0.000    0.000    0.000    0.000 
#
# Total GULP energy -284925.590955 kJ/mol
# GULP energy per Si atom -12388.069172 kJ/mol
# Density = 1.875332 g / cm^3
# Si number density = 18.796100 Si / 1000 Ang^3
#
#
#
# Elastic Constant Matrix: (Units=GPa)
#
#
# Indices 1 2 3 4 5 6 
#
# 1 116.9278 57.9068 64.9774 0.0000 0.0000 -3.2386
# 2 57.9068 116.9277 64.9774 0.0000 0.0000 3.2386
# 3 64.9774 64.9774 113.7861 0.0000 0.0000 0.0000
# 4 0.0000 0.0000 0.0000 22.1349 0.0000 0.0000
# 5 0.0000 0.0000 0.0000 0.0000 22.1349 0.0000
# 6 -3.2386 3.2386 0.0000 0.0000 0.0000 47.0862
#
#
#
# Elastic Compliance Matrix: (Units=1/GPa)
#
#
# Indices 1 2 3 4 5 6 
#
# 1 0.013505 -0.003567 -0.005675 0.000000 0.000000 0.001174
# 2 -0.003567 0.013505 -0.005675 0.000000 0.000000 -0.001174
# 3 -0.005675 -0.005675 0.015270 0.000000 0.000000 0.000000
# 4 0.000000 0.000000 0.000000 0.045177 0.000000 0.000000
# 5 0.000000 0.000000 0.000000 0.000000 0.045177 0.000000
# 6 0.001174 -0.001174 0.000000 0.000000 0.000000 0.021399
#
#
# Mechanical properties :
#
#
# Convention : Reuss Voigt Hill
#
# Bulk Modulus (GPa) = 80.34982 80.37389 80.36185
# Shear Modulus (GPa) = 26.59336 28.92320 27.75828
#
# Velocity S-wave (km/s) = 3.76551 3.92699 3.84710
# Velocity P-wave (km/s) = 7.85788 7.96338 7.91081
#
# Compressibility (1/GPa) = 0.01244558
#
# Stress axis : x y z
#
# Youngs Moduli (GPa) = 74.04665 74.04662 65.48824
#
# Poissons Ratio (x) = 0.26413 0.37165
# Poissons Ratio (y) = 0.26413 0.37165
# Poissons Ratio (z) = 0.42022 0.42022
#
# Static dielectric constant tensor:
#      x y z
#    x 3.799950 0.000000 0.000000 
#    y 0.000000 3.799950 0.000000 
#    z 0.000000 0.000000 3.014950 
# 
# 
# High freq. dielectric constant tensor:
#      x y z
#    x 1.750140 0.000000 0.000000 
#    y 0.000000 1.750140 0.000000 
#    z 0.000000 0.000000 1.675710 
# 
# From -- ./inp_files/3979.got.cif
#   From: 2010.03.12/outbox.cif.g09.slc.cpg/sg82_2_cif.got.tgz:3979.got - 2010.04.08 20:02:50.
