data_PCOD8302173
_publ_section_title
;
Structure prediction by ZEFSAII (Michael W. Deem and Ramdas Pophale) SiO2 
 PCOD8302173
Probable space group: I 41
;
_chemical_formula_sum "Si O2"
_cell_formula_units_Z 52
_cell_length_a 19.455704
_cell_length_b 19.455704
_cell_length_c 6.594156
_cell_angle_alpha 90.000000
_cell_angle_beta 90.000000
_cell_angle_gamma 90.000000
_cell_volume 2496.049063
_symmetry_space_group_name_H-M "I 41"
_symmetry_group_IT_number 80
_symmetry_cell_setting 'tetragonal'
loop_
_space_group_symop_operation_xyz
x,y,z
-y,1/2+x,1/4+z
-x,-y,z
y,1/2-x,1/4+z
1/2+x,1/2+y,1/2+z
1/2-y,x,3/4+z
1/2-x,1/2-y,1/2+z
1/2+y,-x,3/4+z
loop_
_atom_site_type_symbol
_atom_site_label
_atom_site_fract_x
_atom_site_fract_y
_atom_site_fract_z
Si Si1 0.814121 0.479333 0.863340
Si Si2 0.388836 0.075524 0.062761
Si Si3 0.726922 0.935389 0.744032
Si Si4 0.293989 0.331401 0.996118
Si Si5 0.500000 0.500000 0.613254
Si Si6 0.059137 0.743290 0.231238
Si Si7 0.903791 0.123488 0.961872
O O1 0.867521 0.515171 0.713660
O O2 0.754480 0.447164 0.722594
O O3 0.783520 0.534276 0.019538
O O4 0.850453 0.418101 0.984864
O O5 0.384200 0.148150 0.172765
O O6 0.344504 0.076452 0.857104
O O7 0.466776 0.060016 0.999836
O O8 0.762620 0.862151 0.704728
O O9 0.774555 0.984834 0.881953
O O10 0.241983 0.324908 0.807526
O O11 0.457891 0.560189 0.494593
O O12 0.085629 0.813471 0.120510
O O13 0.105932 0.676547 0.207476
#
# Coordination Sequence:
#
# PCOD8302173 Si02
#       7
#     8   8   8   8   4   8   8
#     4  10  20  46  66  92 141 176 221 289 351 400
#     4  11  24  43  65  99 138 174 243 289 328 432
#     4  10  22  43  62  96 141 175 226 290 333 412
#     4  12  25  40  67 101 139 193 231 278 360 425
#     4  12  24  44  70 102 132 180 240 286 346 414
#     4  10  24  45  69 101 138 179 229 296 350 424
#     4  11  25  45  70 104 140 180 234 291 349 426
#
# _framework density 20.832923999999998
#
# number of rings (size 3 to 8) (size 9 to 14) (size 15 to 20)
#    0.000    1.231    6.154    0.923    2.154    6.769 
#    2.769    0.000    0.000    0.000    0.000    0.000 
#    0.000    0.000    0.000    0.000    0.000    0.000 
#
# Total GULP energy -322246.797506 kJ/mol
# GULP energy per Si atom -12394.107596 kJ/mol
# Density = 2.078551 g / cm^3
# Si number density = 20.832924 Si / 1000 Ang^3
#
#
#
# Elastic Constant Matrix: (Units=GPa)
#
#
# Indices 1 2 3 4 5 6 
#
# 1 100.7285 36.6047 38.2913 0.0000 0.0000 13.0047
# 2 36.6047 100.7285 38.2913 0.0000 0.0000 -13.0047
# 3 38.2913 38.2913 126.4989 0.0000 0.0000 0.0000
# 4 0.0000 0.0000 0.0000 26.7046 0.0000 0.0000
# 5 0.0000 0.0000 0.0000 0.0000 26.7046 0.0000
# 6 13.0047 -13.0047 0.0000 0.0000 0.0000 32.8719
#
#
#
# Elastic Compliance Matrix: (Units=1/GPa)
#
#
# Indices 1 2 3 4 5 6 
#
# 1 0.013668 -0.004908 -0.002652 0.000000 0.000000 -0.007349
# 2 -0.004908 0.013668 -0.002652 0.000000 0.000000 0.007349
# 3 -0.002652 -0.002652 0.009511 0.000000 0.000000 0.000000
# 4 0.000000 0.000000 0.000000 0.037447 0.000000 0.000000
# 5 0.000000 0.000000 0.000000 0.000000 0.037447 0.000000
# 6 -0.007349 0.007349 0.000000 0.000000 0.000000 0.036236
#
#
# Mechanical properties :
#
#
# Convention : Reuss Voigt Hill
#
# Bulk Modulus (GPa) = 60.88587 61.59226 61.23907
# Shear Modulus (GPa) = 28.75666 31.57413 30.16539
#
# Velocity S-wave (km/s) = 3.71933 3.89728 3.80934
# Velocity P-wave (km/s) = 6.90897 7.06263 6.98622
#
# Compressibility (1/GPa) = 0.01642417
#
# Stress axis : x y z
#
# Youngs Moduli (GPa) = 73.16382 73.16382 105.14610
#
# Poissons Ratio (x) = 0.35906 0.27882
# Poissons Ratio (y) = 0.35906 0.27882
# Poissons Ratio (z) = 0.19401 0.19401
#
# Static dielectric constant tensor:
#      x y z
#    x 3.808660 0.000000 0.000000 
#    y 0.000000 3.808660 0.000000 
#    z 0.000000 0.000000 3.907550 
# 
# 
# High freq. dielectric constant tensor:
#      x y z
#    x 1.811510 0.000000 0.000000 
#    y 0.000000 1.811510 0.000000 
#    z 0.000000 0.000000 1.825410 
# 
# From -- ./inp_files/335.got.cif
#   From: 2010.03.12/outbox.cif.g09.slc.cpg/sg80_cif.got.tgz:335.got - 2010.04.08 20:00:04.
