data_PCOD8302183
_publ_section_title
;
Structure prediction by ZEFSAII (Michael W. Deem and Ramdas Pophale) SiO2 
 PCOD8302183
Probable space group: I 41
;
_chemical_formula_sum "Si O2"
_cell_formula_units_Z 40
_cell_length_a 11.051320
_cell_length_b 11.051320
_cell_length_c 14.981073
_cell_angle_alpha 90.000000
_cell_angle_beta 90.000000
_cell_angle_gamma 90.000000
_cell_volume 1829.663520
_symmetry_space_group_name_H-M "I 41"
_symmetry_group_IT_number 80
_symmetry_cell_setting 'tetragonal'
loop_
_space_group_symop_operation_xyz
x,y,z
-y,1/2+x,1/4+z
-x,-y,z
y,1/2-x,1/4+z
1/2+x,1/2+y,1/2+z
1/2-y,x,3/4+z
1/2-x,1/2-y,1/2+z
1/2+y,-x,3/4+z
loop_
_atom_site_type_symbol
_atom_site_label
_atom_site_fract_x
_atom_site_fract_y
_atom_site_fract_z
Si Si1 0.394332 0.311985 0.622810
Si Si2 0.457904 0.361270 0.434076
Si Si3 0.159407 0.927924 0.410314
Si Si4 0.573528 0.118392 0.363416
Si Si5 0.940305 0.844079 0.317189
O O1 0.483802 0.323519 0.537763
O O2 0.354426 0.177328 0.646803
O O3 0.284200 0.385438 0.583228
O O4 0.444573 0.376086 0.711637
O O5 0.500000 0.500000 0.415322
O O6 0.523127 0.253226 0.380760
O O7 0.296853 0.887189 0.410013
O O8 0.103484 0.916564 0.507988
O O9 0.079177 0.840600 0.348244
O O10 0.142472 0.062783 0.372167
O O11 0.500000 0.000000 0.400229
#
# Coordination Sequence:
#
# PCOD8302183 Si02
#       5
#     8   8   8   8   8
#     4  10  24  45  73  97 142 189 237 291 366 438
#     4  11  28  46  72 107 144 196 237 299 372 437
#     4  11  25  42  71 108 136 186 237 304 356 429
#     4  12  27  47  74 105 148 185 247 298 371 441
#     4  10  21  44  71 103 137 180 243 290 363 430
#
# _framework density 21.861944999999999
#
# number of rings (size 3 to 8) (size 9 to 14) (size 15 to 20)
#    0.000    1.200    2.000    2.400   14.000    3.200 
#    0.000    0.000    0.000    0.000    0.000    0.000 
#    0.000    0.000    0.000    0.000    0.000    0.000 
#
# Total GULP energy -247825.387546 kJ/mol
# GULP energy per Si atom -12391.269377 kJ/mol
# Density = 2.181219 g / cm^3
# Si number density = 21.861945 Si / 1000 Ang^3
#
#
#
# Elastic Constant Matrix: (Units=GPa)
#
#
# Indices 1 2 3 4 5 6 
#
# 1 56.1101 85.5261 14.5195 0.0000 0.0000 -133.3156
# 2 85.5261 56.1101 14.5195 0.0000 0.0000 133.3156
# 3 14.5195 14.5195 103.4615 0.0000 0.0000 0.0000
# 4 0.0000 0.0000 0.0000 26.9625 0.0000 0.0000
# 5 0.0000 0.0000 0.0000 0.0000 26.9625 0.0000
# 6 -133.3156 133.3156 0.0000 0.0000 0.0000 -265.7671
#
#
#
# Elastic Compliance Matrix: (Units=1/GPa)
#
#
# Indices 1 2 3 4 5 6 
#
# 1 0.008427 -0.001158 -0.001020 0.000000 0.000000 -0.004808
# 2 -0.001158 0.008427 -0.001020 0.000000 0.000000 0.004808
# 3 -0.001020 -0.001020 0.009952 0.000000 0.000000 0.000000
# 4 0.000000 0.000000 0.000000 0.037089 0.000000 0.000000
# 5 0.000000 0.000000 0.000000 0.000000 0.037089 0.000000
# 6 -0.004808 0.004808 0.000000 0.000000 0.000000 0.001061
#
#
# Mechanical properties :
#
#
# Convention : Reuss Voigt Hill
#
# Bulk Modulus (GPa) = 48.99546 49.42354 49.20950
# Shear Modulus (GPa) = 43.38654 -35.62731 3.87962
#
# Velocity S-wave (km/s) = 4.45968 -4.04127 1.33359
# Velocity P-wave (km/s) = 6.99845 0.93827 4.99293
#
# Compressibility (1/GPa) = 0.02041005
#
# Stress axis : x y z
#
# Youngs Moduli (GPa) = 118.66479 118.66480 100.48465
#
# Poissons Ratio (x) = 0.13737 0.10251
# Poissons Ratio (y) = 0.13737 0.10251
# Poissons Ratio (z) = 0.12106 0.12106
#
# Static dielectric constant tensor:
#      x y z
#    x 3.995620 0.000000 0.000000 
#    y 0.000000 3.995620 0.000000 
#    z 0.000000 0.000000 4.405280 
# 
# 
# High freq. dielectric constant tensor:
#      x y z
#    x 1.859500 0.000000 0.000000 
#    y 0.000000 1.859500 0.000000 
#    z 0.000000 0.000000 1.878930 
# 
# From -- ./inp_files/1258.got.cif
#   From: 2010.03.12/outbox.cif.g09.slc.cpg/sg80_cif.got.tgz:1258.got - 2010.04.08 20:00:04.
