data_PCOD8302518
_publ_section_title
;
Structure prediction by ZEFSAII (Michael W. Deem and Ramdas Pophale) SiO2 
 PCOD8302518
Probable space group: I -4 
;
_chemical_formula_sum "Si O2"
_cell_formula_units_Z 40
_cell_length_a 13.743397
_cell_length_b 13.743397
_cell_length_c 10.615765
_cell_angle_alpha 90.000000
_cell_angle_beta 90.000000
_cell_angle_gamma 90.000000
_cell_volume 2005.115896
_symmetry_space_group_name_H-M "I -4 "
_symmetry_group_IT_number 82
_symmetry_cell_setting 'tetragonal'
loop_
_space_group_symop_operation_xyz
x,y,z
y,-x,-z
-x,-y,z
-y,x,-z
1/2+x,1/2+y,1/2+z
1/2+y,1/2-x,1/2-z
1/2-x,1/2-y,1/2+z
1/2-y,1/2+x,1/2-z
loop_
_atom_site_type_symbol
_atom_site_label
_atom_site_fract_x
_atom_site_fract_y
_atom_site_fract_z
Si Si1 0.954616 0.850331 0.001747
Si Si2 0.262103 0.602114 0.756280
Si Si3 0.255058 0.589394 0.246614
Si Si4 0.756732 0.614087 0.844165
Si Si5 0.735784 0.887670 0.633591
O O1 0.909534 0.791911 0.887699
O O2 0.963105 0.783960 0.124005
O O3 0.060734 0.885069 0.960669
O O4 0.241027 0.501116 0.824433
O O5 0.163592 0.666495 0.752149
O O6 0.347769 0.656858 0.831898
O O7 0.343441 0.650016 0.185665
O O8 0.162764 0.658079 0.273380
O O9 0.227794 0.503783 0.150143
O O10 0.785246 0.637176 0.988291
#
# Coordination Sequence:
#
# PCOD8302518 Si02
#       5
#     8   8   8   8   8
#     4  11  20  38  66  91 123 160 206 257 297 360
#     4  11  23  41  64  91 123 162 203 250 306 363
#     4  11  23  41  64  91 123 162 203 250 306 363
#     4  11  24  42  63  90 124 161 204 253 306 363
#     4  11  24  42  63  90 124 161 204 253 306 363
#
# _framework density 19.948972999999999
#
# number of rings (size 3 to 8) (size 9 to 14) (size 15 to 20)
#    0.000    1.000    6.000    1.200    0.000    1.600 
#    3.600    4.000    0.000    0.000    0.000    0.000 
#    0.000    0.000    0.000    0.000    0.000    0.000 
#
# Total GULP energy -248093.662348 kJ/mol
# GULP energy per Si atom -12404.683117 kJ/mol
# Density = 1.990357 g / cm^3
# Si number density = 19.948973 Si / 1000 Ang^3
#
#
#
# Elastic Constant Matrix: (Units=GPa)
#
#
# Indices 1 2 3 4 5 6 
#
# 1 89.3556 19.7089 17.3273 0.0000 0.0000 -3.5060
# 2 19.7089 89.3556 17.3273 0.0000 0.0000 3.5060
# 3 17.3273 17.3273 83.2143 0.0000 0.0000 0.0000
# 4 0.0000 0.0000 0.0000 30.8473 0.0000 0.0000
# 5 0.0000 0.0000 0.0000 0.0000 30.8473 0.0000
# 6 -3.5060 3.5060 0.0000 0.0000 0.0000 11.8015
#
#
#
# Elastic Compliance Matrix: (Units=1/GPa)
#
#
# Indices 1 2 3 4 5 6 
#
# 1 0.012310 -0.002491 -0.002044 0.000000 0.000000 0.004397
# 2 -0.002491 0.012310 -0.002044 0.000000 0.000000 -0.004397
# 3 -0.002044 -0.002044 0.012869 0.000000 0.000000 0.000000
# 4 0.000000 0.000000 0.000000 0.032418 0.000000 0.000000
# 5 0.000000 0.000000 0.000000 0.000000 0.032418 0.000000
# 6 0.004397 -0.004397 0.000000 0.000000 0.000000 0.087348
#
#
# Mechanical properties :
#
#
# Convention : Reuss Voigt Hill
#
# Bulk Modulus (GPa) = 41.10532 41.18361 41.14446
# Shear Modulus (GPa) = 23.70337 28.53669 26.12003
#
# Velocity S-wave (km/s) = 3.45077 3.78628 3.62241
# Velocity P-wave (km/s) = 6.04376 6.30903 6.17782
#
# Compressibility (1/GPa) = 0.02432775
#
# Stress axis : x y z
#
# Youngs Moduli (GPa) = 81.23681 81.23681 77.70864
#
# Poissons Ratio (x) = 0.20238 0.15887
# Poissons Ratio (y) = 0.20238 0.15887
# Poissons Ratio (z) = 0.16609 0.16609
#
# Static dielectric constant tensor:
#      x y z
#    x 3.539740 0.000000 0.000000 
#    y 0.000000 3.539740 0.000000 
#    z 0.000000 0.000000 3.537610 
# 
# 
# High freq. dielectric constant tensor:
#      x y z
#    x 1.776300 0.000000 0.000000 
#    y 0.000000 1.776300 0.000000 
#    z 0.000000 0.000000 1.784260 
# 
# From -- ./inp_files/941.got.cif
#   From: 2010.03.12/outbox.cif.g09.slc.cpg/sg82_1_cif.got.tgz:941.got - 2010.04.08 20:02:50.
