data_PCOD8302461
_publ_section_title
;
Structure prediction by ZEFSAII (Michael W. Deem and Ramdas Pophale) SiO2 
 PCOD8302461
Probable space group: I -4 
;
_chemical_formula_sum "Si O2"
_cell_formula_units_Z 48
_cell_length_a 9.229214
_cell_length_b 9.229214
_cell_length_c 29.348461
_cell_angle_alpha 90.000000
_cell_angle_beta 90.000000
_cell_angle_gamma 90.000000
_cell_volume 2499.854688
_symmetry_space_group_name_H-M "I -4 "
_symmetry_group_IT_number 82
_symmetry_cell_setting 'tetragonal'
loop_
_space_group_symop_operation_xyz
x,y,z
y,-x,-z
-x,-y,z
-y,x,-z
1/2+x,1/2+y,1/2+z
1/2+y,1/2-x,1/2-z
1/2-x,1/2-y,1/2+z
1/2-y,1/2+x,1/2-z
loop_
_atom_site_type_symbol
_atom_site_label
_atom_site_fract_x
_atom_site_fract_y
_atom_site_fract_z
Si Si1 0.169371 0.622797 0.265123
Si Si2 0.976917 0.755157 0.498710
Si Si3 0.116347 0.340229 0.771144
Si Si4 0.735074 0.467087 0.633135
Si Si5 0.270502 0.532766 0.363917
Si Si6 0.000000 0.500000 0.072908
Si Si7 0.500000 0.000000 0.431488
O O1 0.171258 0.496219 0.226734
O O2 0.240506 0.750291 0.237806
O O3 0.241372 0.570249 0.311379
O O4 0.966850 0.646644 0.455477
O O5 0.843321 0.870073 0.499290
O O6 0.960508 0.644945 0.540750
O O7 0.172508 0.506377 0.772182
O O8 0.027805 0.298657 0.816097
O O9 0.649396 0.611951 0.619868
O O10 0.629421 0.329388 0.630349
O O11 0.864291 0.449193 0.598002
O O12 0.132000 0.546991 0.395371
#
# Coordination Sequence:
#
# PCOD8302461 Si02
#       7
#     8   8   8   8   8   4   4
#     4  11  22  38  59  83 118 163 207 251 306 358
#     4  10  22  42  66  94 128 160 196 252 314 378
#     4  11  22  38  59  83 118 163 207 251 306 358
#     4  11  23  39  60  89 124 159 205 261 304 355
#     4  11  23  39  60  89 124 159 205 261 304 355
#     4  11  22  40  67  92 122 166 205 246 312 379
#     4  11  22  40  67  92 122 166 205 246 312 379
#
# _framework density 19.201117
#
# number of rings (size 3 to 8) (size 9 to 14) (size 15 to 20)
#    0.000    1.167    3.333    4.000    0.000    0.667 
#    0.000    0.000    0.000    8.000    0.000    0.000 
#    0.000    0.000    0.000    0.000    0.000    0.000 
#
# Total GULP energy -297392.683329 kJ/mol
# GULP energy per Si atom -12391.361805 kJ/mol
# Density = 1.915741 g / cm^3
# Si number density = 19.201117 Si / 1000 Ang^3
#
#
#
# Elastic Constant Matrix: (Units=GPa)
#
#
# Indices 1 2 3 4 5 6 
#
# 1 100.0176 30.1006 32.0378 0.0000 0.0000 -3.7176
# 2 30.1006 100.0176 32.0378 0.0000 0.0000 3.7176
# 3 32.0378 32.0378 89.3509 0.0000 0.0000 0.0000
# 4 0.0000 0.0000 0.0000 22.5695 0.0000 0.0000
# 5 0.0000 0.0000 0.0000 0.0000 22.5695 0.0000
# 6 -3.7176 3.7176 0.0000 0.0000 0.0000 32.8754
#
#
#
# Elastic Compliance Matrix: (Units=1/GPa)
#
#
# Indices 1 2 3 4 5 6 
#
# 1 0.011905 -0.002572 -0.003347 0.000000 0.000000 0.001637
# 2 -0.002572 0.011905 -0.003347 0.000000 0.000000 -0.001637
# 3 -0.003347 -0.003347 0.013592 0.000000 0.000000 0.000000
# 4 0.000000 0.000000 0.000000 0.044308 0.000000 0.000000
# 5 0.000000 0.000000 0.000000 0.000000 0.044308 0.000000
# 6 0.001637 -0.001637 0.000000 0.000000 0.000000 0.030788
#
#
# Mechanical properties :
#
#
# Convention : Reuss Voigt Hill
#
# Bulk Modulus (GPa) = 52.98831 53.08204 53.03518
# Shear Modulus (GPa) = 27.52920 28.61689 28.07304
#
# Velocity S-wave (km/s) = 3.79057 3.86473 3.82783
# Velocity P-wave (km/s) = 6.84210 6.90073 6.87148
#
# Compressibility (1/GPa) = 0.01887209
#
# Stress axis : x y z
#
# Youngs Moduli (GPa) = 83.99808 83.99807 73.57423
#
# Poissons Ratio (x) = 0.21602 0.24622
# Poissons Ratio (y) = 0.21602 0.24622
# Poissons Ratio (z) = 0.28110 0.28110
#
# Static dielectric constant tensor:
#      x y z
#    x 3.819740 0.000000 0.000000 
#    y 0.000000 3.819740 0.000000 
#    z 0.000000 0.000000 3.359330 
# 
# 
# High freq. dielectric constant tensor:
#      x y z
#    x 1.763430 0.000000 0.000000 
#    y 0.000000 1.763430 0.000000 
#    z 0.000000 0.000000 1.736130 
# 
# From -- ./inp_files/4075.got.cif
#   From: 2010.03.12/outbox.cif.g09.slc.cpg/sg82_3_cif.got.tgz:4075.got - 2010.04.08 20:02:50.
