data_PCOD8302916
_publ_section_title
;
Structure prediction by ZEFSAII (Michael W. Deem and Ramdas Pophale) SiO2 
 PCOD8302916
Probable space group: P 4/M
;
_chemical_formula_sum "Si O2"
_cell_formula_units_Z 52
_cell_length_a 14.805766
_cell_length_b 14.805766
_cell_length_c 13.024341
_cell_angle_alpha 90.000000
_cell_angle_beta 90.000000
_cell_angle_gamma 90.000000
_cell_volume 2855.074997
_symmetry_space_group_name_H-M "P 4/M"
_symmetry_group_IT_number 83
_symmetry_cell_setting 'tetragonal'
loop_
_space_group_symop_operation_xyz
x,y,z
-y,x,z
-x,-y,z
y,-x,z
-x,-y,-z
y,-x,-z
x,y,-z
-y,x,-z
loop_
_atom_site_type_symbol
_atom_site_label
_atom_site_fract_x
_atom_site_fract_y
_atom_site_fract_z
Si Si1 0.220710 0.878366 0.190850
Si Si2 0.628195 0.575232 0.500000
Si Si3 0.423841 0.628959 0.722987
Si Si4 0.749547 0.929392 0.882881
Si Si5 0.219065 0.395348 0.878659
Si Si6 0.081880 0.123979 0.615234
Si Si7 0.550088 0.912907 0.878983
O O1 0.154846 0.816222 0.124264
O O2 0.322434 0.852333 0.162894
O O3 0.195362 0.867541 0.310911
O O4 0.204870 0.983512 0.167729
O O5 0.531429 0.620683 0.500000
O O6 0.673484 0.601729 0.610297
O O7 0.378482 0.531447 0.734042
O O8 0.384231 0.688823 0.815234
O O9 0.651512 0.904843 0.832996
O O10 0.733157 0.954449 0.000000
O O11 0.177292 0.493436 0.853689
O O12 0.238090 0.381664 0.000000
O O13 0.102725 0.155946 0.500000
O O14 0.974832 0.122745 0.635045
O O15 0.500000 0.000000 0.830253
O O16 0.554918 0.925730 0.000000
#
# Coordination Sequence:
#
# PCOD8302916 Si02
#       7
#     8   4   8   8   8   8   8
#     4  12  22  36  55  83 112 147 189 231 285 336
#     4   7  12  30  58  80 101 134 176 225 286 349
#     4   9  19  36  58  82 108 139 181 237 295 336
#     4  11  22  35  54  81 114 148 184 229 276 333
#     4  11  23  36  53  81 115 151 193 229 271 343
#     4   9  18  36  59  81 107 142 184 231 288 348
#     4   9  18  36  55  69  98 149 191 216 254 316
#
# _framework density 18.213183000000001
#
# number of rings (size 3 to 8) (size 9 to 14) (size 15 to 20)
#    0.000    2.077    3.077    2.769    2.154    0.923 
#    1.385    1.538    0.000    0.000    2.000    1.615 
#    0.000    0.000    0.000    0.000    0.000    0.000 
#
# Total GULP energy -644428.931919 kJ/mol
# GULP energy per Si atom -12392.864075 kJ/mol
# Density = 1.817173 g / cm^3
# Si number density = 18.213183 Si / 1000 Ang^3
#
#
#
# Elastic Constant Matrix: (Units=GPa)
#
#
# Indices 1 2 3 4 5 6 
#
# 1 63.0046 27.1570 24.8321 0.0000 0.0000 5.1863
# 2 27.1570 63.0046 24.8321 0.0000 0.0000 -5.1863
# 3 24.8321 24.8321 112.3060 0.0000 0.0000 0.0000
# 4 0.0000 0.0000 0.0000 23.6305 0.0000 0.0000
# 5 0.0000 0.0000 0.0000 0.0000 23.6305 0.0000
# 6 5.1863 -5.1863 0.0000 0.0000 0.0000 22.7586
#
#
#
# Elastic Compliance Matrix: (Units=1/GPa)
#
#
# Indices 1 2 3 4 5 6 
#
# 1 0.021247 -0.008618 -0.002793 0.000000 0.000000 -0.006806
# 2 -0.008618 0.021247 -0.002793 0.000000 0.000000 0.006806
# 3 -0.002793 -0.002793 0.010139 0.000000 0.000000 0.000000
# 4 0.000000 0.000000 0.000000 0.042318 0.000000 0.000000
# 5 0.000000 0.000000 0.000000 0.000000 0.042318 0.000000
# 6 -0.006806 0.006806 0.000000 0.000000 0.000000 0.047041
#
#
# Mechanical properties :
#
#
# Convention : Reuss Voigt Hill
#
# Bulk Modulus (GPa) = 41.27463 43.55084 42.41273
# Shear Modulus (GPa) = 22.64564 24.77018 23.70791
#
# Velocity S-wave (km/s) = 3.52996 3.69184 3.61181
# Velocity P-wave (km/s) = 6.27099 6.49126 6.38208
#
# Compressibility (1/GPa) = 0.02422796
#
# Stress axis : x y z
#
# Youngs Moduli (GPa) = 47.06490 47.06490 98.62759
#
# Poissons Ratio (x) = 0.40560 0.27542
# Poissons Ratio (y) = 0.40560 0.27542
# Poissons Ratio (z) = 0.13143 0.13143
#
# Static dielectric constant tensor:
#      x y z
#    x 3.243340 0.000000 0.000000 
#    y 0.000000 3.243340 0.000000 
#    z 0.000000 0.000000 3.394820 
# 
# 
# High freq. dielectric constant tensor:
#      x y z
#    x 1.694390 0.000000 0.000000 
#    y 0.000000 1.694390 0.000000 
#    z 0.000000 0.000000 1.695200 
# 
# From -- ./inp_files/1926.got.cif
#   From: 2010.03.12/outbox.cif.g09.slc.cpg/sg83_1_cif.got.tgz:1926.got - 2010.04.08 20:05:18.
