data_PCOD8302413
_publ_section_title
;
Structure prediction by ZEFSAII (Michael W. Deem and Ramdas Pophale) SiO2 
 PCOD8302413
Probable space group: I -4 
;
_chemical_formula_sum "Si O2"
_cell_formula_units_Z 44
_cell_length_a 15.028013
_cell_length_b 15.028013
_cell_length_c 10.272215
_cell_angle_alpha 90.000000
_cell_angle_beta 90.000000
_cell_angle_gamma 90.000000
_cell_volume 2319.889103
_symmetry_space_group_name_H-M "I -4 "
_symmetry_group_IT_number 82
_symmetry_cell_setting 'tetragonal'
loop_
_space_group_symop_operation_xyz
x,y,z
y,-x,-z
-x,-y,z
-y,x,-z
1/2+x,1/2+y,1/2+z
1/2+y,1/2-x,1/2-z
1/2-x,1/2-y,1/2+z
1/2-y,1/2+x,1/2-z
loop_
_atom_site_type_symbol
_atom_site_label
_atom_site_fract_x
_atom_site_fract_y
_atom_site_fract_z
Si Si1 0.229959 0.959792 0.565340
Si Si2 0.199606 0.218185 0.163185
Si Si3 0.500000 0.500000 0.294031
Si Si4 0.073663 0.840054 0.650395
Si Si5 0.698227 0.502298 0.344703
Si Si6 0.671963 0.205279 0.587724
O O1 0.150133 0.887510 0.564824
O O2 0.321990 0.902441 0.572309
O O3 0.230439 0.020358 0.437223
O O4 0.216349 0.021642 0.691807
O O5 0.210254 0.119775 0.227889
O O6 0.233346 0.288785 0.271516
O O7 0.096366 0.233541 0.124048
O O8 0.255329 0.229216 0.032144
O O9 0.504856 0.413320 0.202900
O O10 0.591819 0.509555 0.377930
O O11 0.755988 0.572436 0.426923
#
# Coordination Sequence:
#
# PCOD8302413 Si02
#       6
#     8   8   4   8   8   8
#     4   9  18  31  55  80 106 150 179 234 282 337
#     4   9  22  35  53  84 109 150 186 229 292 339
#     4   8  16  27  51  82 110 150 160 234 290 334
#     4   9  16  29  48  83 108 133 192 216 284 338
#     4   9  19  33  50  78 118 139 187 223 286 350
#     4  10  21  36  53  81 115 149 189 228 286 347
#
# _framework density 18.966422999999999
#
# number of rings (size 3 to 8) (size 9 to 14) (size 15 to 20)
#    0.000    3.636    0.000    2.182    7.636    3.636 
#    0.000    0.909    0.000    8.727    0.000    0.000 
#    0.000    0.000    0.000    0.000    0.000    0.000 
#
# Total GULP energy -272537.662085 kJ/mol
# GULP energy per Si atom -12388.075549 kJ/mol
# Density = 1.892325 g / cm^3
# Si number density = 18.966423 Si / 1000 Ang^3
#
#
#
# Elastic Constant Matrix: (Units=GPa)
#
#
# Indices 1 2 3 4 5 6 
#
# 1 51.6083 29.3479 21.7115 0.0000 0.0000 -2.1738
# 2 29.3479 51.6083 21.7115 0.0000 0.0000 2.1738
# 3 21.7115 21.7115 59.8177 0.0000 0.0000 0.0000
# 4 0.0000 0.0000 0.0000 27.2400 0.0000 0.0000
# 5 0.0000 0.0000 0.0000 0.0000 27.2400 0.0000
# 6 -2.1738 2.1738 0.0000 0.0000 0.0000 34.1717
#
#
#
# Elastic Compliance Matrix: (Units=1/GPa)
#
#
# Indices 1 2 3 4 5 6 
#
# 1 0.030413 -0.015075 -0.005567 0.000000 0.000000 0.002894
# 2 -0.015075 0.030413 -0.005567 0.000000 0.000000 -0.002894
# 3 -0.005567 -0.005567 0.020759 0.000000 0.000000 0.000000
# 4 0.000000 0.000000 0.000000 0.036711 0.000000 0.000000
# 5 0.000000 0.000000 0.000000 0.000000 0.036711 0.000000
# 6 0.002894 -0.002894 0.000000 0.000000 0.000000 0.029632
#
#
# Mechanical properties :
#
#
# Convention : Reuss Voigt Hill
#
# Bulk Modulus (GPa) = 34.28557 34.28621 34.28589
# Shear Modulus (GPa) = 20.26098 23.74790 22.00444
#
# Velocity S-wave (km/s) = 3.27196 3.54234 3.40983
# Velocity P-wave (km/s) = 5.69127 5.90318 5.79819
#
# Compressibility (1/GPa) = 0.02916679
#
# Stress axis : x y z
#
# Youngs Moduli (GPa) = 32.88043 32.88043 48.17219
#
# Poissons Ratio (x) = 0.49566 0.26819
# Poissons Ratio (y) = 0.49566 0.26819
# Poissons Ratio (z) = 0.18305 0.18305
#
# Static dielectric constant tensor:
#      x y z
#    x 3.304450 0.000000 0.000000 
#    y 0.000000 3.304450 0.000000 
#    z 0.000000 0.000000 3.325520 
# 
# 
# High freq. dielectric constant tensor:
#      x y z
#    x 1.710890 0.000000 0.000000 
#    y 0.000000 1.710890 0.000000 
#    z 0.000000 0.000000 1.732120 
# 
# From -- ./inp_files/1690.got.cif
#   From: 2010.03.12/outbox.cif.g09.slc.cpg/sg82_1_cif.got.tgz:1690.got - 2010.04.08 20:02:50.
