data_PCOD8302644
_publ_section_title
;
Structure prediction by ZEFSAII (Michael W. Deem and Ramdas Pophale) SiO2 
 PCOD8302644
Probable space group: P 4/M
;
_chemical_formula_sum "Si O2"
_cell_formula_units_Z 64
_cell_length_a 18.123063
_cell_length_b 18.123063
_cell_length_c 13.869062
_cell_angle_alpha 90.000000
_cell_angle_beta 90.000000
_cell_angle_gamma 90.000000
_cell_volume 4555.229790
_symmetry_space_group_name_H-M "P 4/M"
_symmetry_group_IT_number 83
_symmetry_cell_setting 'tetragonal'
loop_
_space_group_symop_operation_xyz
x,y,z
-y,x,z
-x,-y,z
y,-x,z
-x,-y,-z
y,-x,-z
x,y,-z
-y,x,-z
loop_
_atom_site_type_symbol
_atom_site_label
_atom_site_fract_x
_atom_site_fract_y
_atom_site_fract_z
Si Si1 0.771615 0.566904 0.384577
Si Si2 0.324164 0.132488 0.612042
Si Si3 0.896988 0.827899 0.612766
Si Si4 0.192881 0.051236 0.298557
Si Si5 0.383308 0.489474 0.385409
Si Si6 0.039560 0.885098 0.107757
Si Si7 0.270165 0.761564 0.612214
Si Si8 0.487201 0.082643 0.386844
O O1 0.773467 0.564225 0.500000
O O2 0.701374 0.518330 0.347626
O O3 0.757325 0.648806 0.341106
O O4 0.851753 0.539436 0.344919
O O5 0.304801 0.116025 0.500000
O O6 0.272730 0.083936 0.679932
O O7 0.310846 0.219804 0.633426
O O8 0.405992 0.109947 0.638523
O O9 0.914157 0.820673 0.500000
O O10 0.870893 0.910739 0.637031
O O11 0.833103 0.773167 0.649546
O O12 0.966321 0.805460 0.674907
O O13 0.177128 0.061397 0.184914
O O14 0.433779 0.420038 0.349298
O O15 0.382790 0.487681 0.500000
O O16 0.955198 0.908234 0.123664
O O17 0.050688 0.852997 0.000000
O O18 0.283461 0.770577 0.500000
O O19 0.500932 0.076584 0.500000
O O20 0.500000 0.000000 0.341950
#
# Coordination Sequence:
#
# PCOD8302644 Si02
#       8
#     8   8   8   8   8   8   8   8
#     4   9  16  24  38  50  63  93 130 166 201 238
#     4   9  18  29  39  53  79 107 132 166 205 239
#     4  10  19  27  36  53  78 105 137 166 196 231
#     4  11  18  28  41  56  75 104 131 164 202 238
#     4   8  14  22  32  49  68  83 108 155 207 245
#     4   9  17  30  44  58  76  98 127 166 208 248
#     4   8  16  27  36  49  68  98 133 163 198 235
#     4   9  18  28  37  51  69  99 139 171 200 232
#
# _framework density 14.049785
#
# number of rings (size 3 to 8) (size 9 to 14) (size 15 to 20)
#    0.000    2.875    1.250    2.625    3.500    0.250 
#    0.000    0.625    0.000    0.000    0.000    0.000 
#    0.000    0.500    0.000    0.375    0.000    0.000 
#
# Total GULP energy -792990.155393 kJ/mol
# GULP energy per Si atom -12390.471178 kJ/mol
# Density = 1.401781 g / cm^3
# Si number density = 14.049785 Si / 1000 Ang^3
#
#
#
# Elastic Constant Matrix: (Units=GPa)
#
#
# Indices 1 2 3 4 5 6 
#
# 1 94.3270 48.2202 13.6380 0.0000 0.0000 0.3904
# 2 48.2202 94.3270 13.6380 0.0000 0.0000 -0.3904
# 3 13.6380 13.6380 27.5531 0.0000 0.0000 0.0000
# 4 0.0000 0.0000 0.0000 5.4267 0.0000 0.0000
# 5 0.0000 0.0000 0.0000 0.0000 5.4267 0.0000
# 6 0.3904 -0.3904 0.0000 0.0000 0.0000 17.1432
#
#
#
# Elastic Compliance Matrix: (Units=1/GPa)
#
#
# Indices 1 2 3 4 5 6 
#
# 1 0.014723 -0.006974 -0.003836 0.000000 0.000000 -0.000494
# 2 -0.006974 0.014723 -0.003836 0.000000 0.000000 0.000494
# 3 -0.003836 -0.003836 0.040091 0.000000 0.000000 0.000000
# 4 0.000000 0.000000 0.000000 0.184276 0.000000 0.000000
# 5 0.000000 0.000000 0.000000 0.000000 0.184276 0.000000
# 6 -0.000494 0.000494 0.000000 0.000000 0.000000 0.058355
#
#
# Mechanical properties :
#
#
# Convention : Reuss Voigt Hill
#
# Bulk Modulus (GPa) = 24.84693 40.79994 32.82344
# Shear Modulus (GPa) = 9.27388 14.98004 12.12696
#
# Velocity S-wave (km/s) = 2.57198 3.26883 2.94112
# Velocity P-wave (km/s) = 5.15203 6.58404 5.91156
#
# Compressibility (1/GPa) = 0.04024642
#
# Stress axis : x y z
#
# Youngs Moduli (GPa) = 67.92031 67.92031 24.94354
#
# Poissons Ratio (x) = 0.47368 0.09567
# Poissons Ratio (y) = 0.47368 0.09567
# Poissons Ratio (z) = 0.26052 0.26052
#
# Static dielectric constant tensor:
#      x y z
#    x 2.944350 0.000000 0.000000 
#    y 0.000000 2.944350 0.000000 
#    z 0.000000 0.000000 2.231350 
# 
# 
# High freq. dielectric constant tensor:
#      x y z
#    x 1.542490 0.000000 0.000000 
#    y 0.000000 1.542490 0.000000 
#    z 0.000000 0.000000 1.452800 
# 
# From -- ./inp_files/2083.got.cif
#   From: 2010.03.12/outbox.cif.g09.slc.cpg/sg83_2_cif.got.tgz:2083.got - 2010.04.08 20:05:18.
