data_PCOD8302909
_publ_section_title
;
Structure prediction by ZEFSAII (Michael W. Deem and Ramdas Pophale) SiO2 
 PCOD8302909
Probable space group: P 4/M
;
_chemical_formula_sum "Si O2"
_cell_formula_units_Z 60
_cell_length_a 11.204575
_cell_length_b 11.204575
_cell_length_c 24.323988
_cell_angle_alpha 90.000000
_cell_angle_beta 90.000000
_cell_angle_gamma 90.000000
_cell_volume 3053.694286
_symmetry_space_group_name_H-M "P 4/M"
_symmetry_group_IT_number 83
_symmetry_cell_setting 'tetragonal'
loop_
_space_group_symop_operation_xyz
x,y,z
-y,x,z
-x,-y,z
y,-x,z
-x,-y,-z
y,-x,-z
x,y,-z
-y,x,-z
loop_
_atom_site_type_symbol
_atom_site_label
_atom_site_fract_x
_atom_site_fract_y
_atom_site_fract_z
Si Si1 0.578707 0.756296 0.812018
Si Si2 0.687897 0.519237 0.699778
Si Si3 0.584739 0.322849 0.000000
Si Si4 0.778676 0.632243 0.883119
Si Si5 0.361358 0.019953 0.753693
Si Si6 0.818624 0.068735 0.436308
Si Si7 0.924742 0.604245 0.641198
Si Si8 0.066825 0.185665 0.165959
O O1 0.491119 0.696177 0.766208
O O2 0.662817 0.668727 0.846909
O O3 0.493648 0.820521 0.857117
O O4 0.665096 0.849016 0.779042
O O5 0.605313 0.629317 0.680622
O O6 0.814084 0.540522 0.671172
O O7 0.656900 0.444649 0.000000
O O8 0.620355 0.249047 0.053237
O O9 0.886884 0.728109 0.882395
O O10 0.500000 0.000000 0.768611
O O11 0.340075 0.010584 0.688348
O O12 0.268899 0.923038 0.779317
O O13 0.785577 0.081614 0.500000
O O14 0.848575 0.931576 0.421990
O O15 0.705814 0.113806 0.401406
O O16 0.000000 0.500000 0.610240
O O17 0.929197 0.150030 0.162875
#
# Coordination Sequence:
#
# PCOD8302909 Si02
#       8
#     8   8   4   8   8   8   8   8
#     4  12  21  35  62  88 124 168 201 246 315 388
#     4  11  23  36  54  87 130 170 205 245 309 389
#     4  11  24  40  62  99 128 148 203 277 323 370
#     4  12  23  39  64  89 125 161 202 259 320 374
#     4  11  21  37  57  94 128 161 205 255 310 373
#     4   9  21  43  68  94 125 168 224 279 326 368
#     4  11  23  36  62  94 130 169 211 263 316 377
#     4  11  24  40  61  88 121 166 208 248 307 384
#
# _framework density 19.648330999999999
#
# number of rings (size 3 to 8) (size 9 to 14) (size 15 to 20)
#    0.000    1.000    8.000    0.400    1.867    1.600 
#    0.000    2.000    0.000    2.400    0.000    0.933 
#    0.000    0.000    0.000    0.000    0.000    0.000 
#
# Total GULP energy -743411.575698 kJ/mol
# GULP energy per Si atom -12390.192928 kJ/mol
# Density = 1.960361 g / cm^3
# Si number density = 19.648331 Si / 1000 Ang^3
#
#
#
# Elastic Constant Matrix: (Units=GPa)
#
#
# Indices 1 2 3 4 5 6 
#
# 1 86.7930 20.6138 37.3592 0.0000 0.0000 4.1009
# 2 20.6138 86.7930 37.3592 0.0000 0.0000 -4.1009
# 3 37.3592 37.3592 85.0350 0.0000 0.0000 0.0000
# 4 0.0000 0.0000 0.0000 26.7924 0.0000 0.0000
# 5 0.0000 0.0000 0.0000 0.0000 26.7924 0.0000
# 6 4.1009 -4.1009 0.0000 0.0000 0.0000 29.7315
#
#
#
# Elastic Compliance Matrix: (Units=1/GPa)
#
#
# Indices 1 2 3 4 5 6 
#
# 1 0.014391 -0.000982 -0.005891 0.000000 0.000000 -0.002120
# 2 -0.000982 0.014391 -0.005891 0.000000 0.000000 0.002120
# 3 -0.005891 -0.005891 0.016936 0.000000 0.000000 0.000000
# 4 0.000000 0.000000 0.000000 0.037324 0.000000 0.000000
# 5 0.000000 0.000000 0.000000 0.000000 0.037324 0.000000
# 6 -0.002120 0.002120 0.000000 0.000000 0.000000 0.034219
#
#
# Mechanical properties :
#
#
# Convention : Reuss Voigt Hill
#
# Bulk Modulus (GPa) = 49.53075 49.92060 49.72567
# Shear Modulus (GPa) = 26.76043 27.54919 27.15481
#
# Velocity S-wave (km/s) = 3.69449 3.74854 3.72162
# Velocity P-wave (km/s) = 6.59260 6.64813 6.62042
#
# Compressibility (1/GPa) = 0.02018948
#
# Stress axis : x y z
#
# Youngs Moduli (GPa) = 69.48862 69.48862 59.04572
#
# Poissons Ratio (x) = 0.06827 0.34783
# Poissons Ratio (y) = 0.06827 0.34783
# Poissons Ratio (z) = 0.40935 0.40935
#
# Static dielectric constant tensor:
#      x y z
#    x 3.645590 0.000000 0.000000 
#    y 0.000000 3.645590 0.000000 
#    z 0.000000 0.000000 3.295610 
# 
# 
# High freq. dielectric constant tensor:
#      x y z
#    x 1.771040 0.000000 0.000000 
#    y 0.000000 1.771040 0.000000 
#    z 0.000000 0.000000 1.732320 
# 
# From -- ./inp_files/3062.got.cif
#   From: 2010.03.12/outbox.cif.g09.slc.cpg/sg83_2_cif.got.tgz:3062.got - 2010.04.08 20:05:18.
