data_PCOD8302706
_publ_section_title
;
Structure prediction by ZEFSAII (Michael W. Deem and Ramdas Pophale) SiO2 
 PCOD8302706
Probable space group: P 4/M
;
_chemical_formula_sum "Si O2"
_cell_formula_units_Z 64
_cell_length_a 20.698045
_cell_length_b 20.698045
_cell_length_c 8.961019
_cell_angle_alpha 90.000000
_cell_angle_beta 90.000000
_cell_angle_gamma 90.000000
_cell_volume 3838.981788
_symmetry_space_group_name_H-M "P 4/M"
_symmetry_group_IT_number 83
_symmetry_cell_setting 'tetragonal'
loop_
_space_group_symop_operation_xyz
x,y,z
-y,x,z
-x,-y,z
y,-x,z
-x,-y,-z
y,-x,-z
x,y,-z
-y,x,-z
loop_
_atom_site_type_symbol
_atom_site_label
_atom_site_fract_x
_atom_site_fract_y
_atom_site_fract_z
Si Si1 0.181360 0.281227 0.828230
Si Si2 0.495522 0.742071 0.164798
Si Si3 0.811406 0.291263 0.171962
Si Si4 0.365101 0.059484 0.826271
Si Si5 0.384341 0.281646 0.335495
Si Si6 0.627697 0.274040 0.335573
Si Si7 0.359239 0.927357 0.676530
Si Si8 0.106895 0.493878 0.832546
O O1 0.215583 0.210525 0.797235
O O2 0.234538 0.335210 0.791452
O O3 0.118541 0.300055 0.731526
O O4 0.161010 0.287581 0.000000
O O5 0.561559 0.708352 0.211897
O O6 0.445946 0.721520 0.290390
O O7 0.507456 0.817872 0.166467
O O8 0.475332 0.718206 0.000000
O O9 0.886220 0.309480 0.200610
O O10 0.773516 0.334708 0.287979
O O11 0.793194 0.307891 0.000000
O O12 0.438519 0.076738 0.772179
O O13 0.341261 0.998591 0.731930
O O14 0.367948 0.041997 0.000000
O O15 0.411709 0.263315 0.500000
O O16 0.347279 0.349068 0.343381
O O17 0.634849 0.240966 0.500000
O O18 0.360866 0.925111 0.500000
O O19 0.430933 0.908149 0.733619
O O20 0.081640 0.479279 0.000000
#
# Coordination Sequence:
#
# PCOD8302706 Si02
#       8
#     8   8   8   8   8   8   8   8
#     4  10  19  33  53  73  96 128 166 206 247 288
#     4  11  20  32  52  73  95 125 164 205 246 293
#     4   9  18  34  54  74  95 125 167 209 246 289
#     4  10  20  36  53  70  98 133 170 208 246 289
#     4  10  20  32  49  72  99 125 154 199 253 302
#     4  10  20  33  49  72  97 124 157 200 253 299
#     4  12  24  34  47  71 104 138 172 205 241 291
#     4  10  20  34  50  69  96 134 172 207 244 283
#
# _framework density 16.671088000000001
#
# number of rings (size 3 to 8) (size 9 to 14) (size 15 to 20)
#    0.000    1.750    2.500    3.000    0.000    5.000 
#    0.000    0.000    0.000    0.375    0.000    2.625 
#    0.000    0.500    0.000    5.750    0.000    2.250 
#
# Total GULP energy -793044.456362 kJ/mol
# GULP energy per Si atom -12391.319631 kJ/mol
# Density = 1.663314 g / cm^3
# Si number density = 16.671088 Si / 1000 Ang^3
#
#
#
# Elastic Constant Matrix: (Units=GPa)
#
#
# Indices 1 2 3 4 5 6 
#
# 1 72.2262 41.9480 28.3913 0.0000 0.0000 2.0967
# 2 41.9480 72.2262 28.3913 0.0000 0.0000 -2.0967
# 3 28.3913 28.3913 67.3942 0.0000 0.0000 0.0000
# 4 0.0000 0.0000 0.0000 20.0312 0.0000 0.0000
# 5 0.0000 0.0000 0.0000 0.0000 20.0312 0.0000
# 6 2.0967 -2.0967 0.0000 0.0000 0.0000 15.1091
#
#
#
# Elastic Compliance Matrix: (Units=1/GPa)
#
#
# Indices 1 2 3 4 5 6 
#
# 1 0.022377 -0.011297 -0.004668 0.000000 0.000000 -0.004673
# 2 -0.011297 0.022377 -0.004668 0.000000 0.000000 0.004673
# 3 -0.004668 -0.004668 0.018771 0.000000 0.000000 0.000000
# 4 0.000000 0.000000 0.000000 0.049922 0.000000 0.000000
# 5 0.000000 0.000000 0.000000 0.000000 0.049922 0.000000
# 6 -0.004673 0.004673 0.000000 0.000000 0.000000 0.067482
#
#
# Mechanical properties :
#
#
# Convention : Reuss Voigt Hill
#
# Bulk Modulus (GPa) = 44.92368 45.47867 45.20117
# Shear Modulus (GPa) = 17.88674 18.57535 18.23104
#
# Velocity S-wave (km/s) = 3.27910 3.34162 3.31051
# Velocity P-wave (km/s) = 6.42979 6.49829 6.46413
#
# Compressibility (1/GPa) = 0.02225997
#
# Stress axis : x y z
#
# Youngs Moduli (GPa) = 44.68854 44.68854 53.27419
#
# Poissons Ratio (x) = 0.50485 0.24867
# Poissons Ratio (y) = 0.50485 0.24867
# Poissons Ratio (z) = 0.20859 0.20859
#
# Static dielectric constant tensor:
#      x y z
#    x 3.153050 0.000000 0.000000 
#    y 0.000000 3.153050 0.000000 
#    z 0.000000 0.000000 3.273570 
# 
# 
# High freq. dielectric constant tensor:
#      x y z
#    x 1.620460 0.000000 0.000000 
#    y 0.000000 1.620460 0.000000 
#    z 0.000000 0.000000 1.654400 
# 
# From -- ./inp_files/1291.got.cif
#   From: 2010.03.12/outbox.cif.g09.slc.cpg/sg83_1_cif.got.tgz:1291.got - 2010.04.08 20:05:18.
