data_PCOD8302670
_publ_section_title
;
Structure prediction by ZEFSAII (Michael W. Deem and Ramdas Pophale) SiO2 
 PCOD8302670
Probable space group: P 4/M
;
_chemical_formula_sum "Si O2"
_cell_formula_units_Z 52
_cell_length_a 18.271534
_cell_length_b 18.271534
_cell_length_c 7.891526
_cell_angle_alpha 90.000000
_cell_angle_beta 90.000000
_cell_angle_gamma 90.000000
_cell_volume 2634.577706
_symmetry_space_group_name_H-M "P 4/M"
_symmetry_group_IT_number 83
_symmetry_cell_setting 'tetragonal'
loop_
_space_group_symop_operation_xyz
x,y,z
-y,x,z
-x,-y,z
y,-x,z
-x,-y,-z
y,-x,-z
x,y,-z
-y,x,-z
loop_
_atom_site_type_symbol
_atom_site_label
_atom_site_fract_x
_atom_site_fract_y
_atom_site_fract_z
Si Si1 0.142762 0.182687 0.304487
Si Si2 0.071208 0.333296 0.302809
Si Si3 0.738261 0.284980 0.806522
Si Si4 0.045719 0.565525 0.194183
Si Si5 0.914250 0.087473 0.000000
Si Si6 0.793123 0.437766 0.799024
Si Si7 0.403910 0.781139 0.695498
O O1 0.129927 0.156369 0.500000
O O2 0.089149 0.249752 0.255356
O O3 0.225837 0.212609 0.293574
O O4 0.124994 0.118360 0.170842
O O5 0.057964 0.341646 0.500000
O O6 0.135991 0.387902 0.241415
O O7 0.996694 0.357364 0.210671
O O8 0.750285 0.366503 0.732159
O O9 0.651460 0.271555 0.794823
O O10 0.764535 0.281097 0.000000
O O11 0.125329 0.570395 0.278227
O O12 0.000000 0.500000 0.283602
O O13 0.058037 0.545618 0.000000
O O14 0.000977 0.102442 0.000000
O O15 0.757511 0.512586 0.728823
O O16 0.791075 0.441526 0.000000
O O17 0.383103 0.774242 0.500000
#
# Coordination Sequence:
#
# PCOD8302670 Si02
#       7
#     8   8   8   8   4   8   8
#     4  10  22  42  65  91 121 158 206 257 310 366
#     4   9  19  33  52  81 113 154 195 231 287 356
#     4  10  20  37  61  87 119 159 204 250 296 361
#     4  10  19  30  48  77 114 150 183 227 283 352
#     4  11  26  46  68  92 117 157 207 258 320 374
#     4  10  21  35  53  83 116 152 196 240 296 356
#     4  10  20  34  54  79 113 154 198 241 291 353
#
# _framework density 19.737508999999999
#
# number of rings (size 3 to 8) (size 9 to 14) (size 15 to 20)
#    0.000    2.077    2.308    1.846    1.077    4.615 
#    0.000    2.308    0.000    0.462    0.000    3.231 
#    0.000    0.000    0.000    0.000    0.000    0.000 
#
# Total GULP energy -644647.020750 kJ/mol
# GULP energy per Si atom -12397.058091 kJ/mol
# Density = 1.969259 g / cm^3
# Si number density = 19.737509 Si / 1000 Ang^3
#
#
#
# Elastic Constant Matrix: (Units=GPa)
#
#
# Indices 1 2 3 4 5 6 
#
# 1 106.3465 45.9034 21.6794 0.0000 0.0000 -7.2263
# 2 45.9034 106.3465 21.6794 0.0000 0.0000 7.2263
# 3 21.6794 21.6794 62.1768 0.0000 0.0000 0.0000
# 4 0.0000 0.0000 0.0000 17.9990 0.0000 0.0000
# 5 0.0000 0.0000 0.0000 0.0000 17.9990 0.0000
# 6 -7.2263 7.2263 0.0000 0.0000 0.0000 28.9734
#
#
#
# Elastic Compliance Matrix: (Units=1/GPa)
#
#
# Indices 1 2 3 4 5 6 
#
# 1 0.012443 -0.005151 -0.002543 0.000000 0.000000 0.004388
# 2 -0.005151 0.012443 -0.002543 0.000000 0.000000 -0.004388
# 3 -0.002543 -0.002543 0.017856 0.000000 0.000000 0.000000
# 4 0.000000 0.000000 0.000000 0.055559 0.000000 0.000000
# 5 0.000000 0.000000 0.000000 0.000000 0.055559 0.000000
# 6 0.004388 -0.004388 0.000000 0.000000 0.000000 0.036703
#
#
# Mechanical properties :
#
#
# Convention : Reuss Voigt Hill
#
# Bulk Modulus (GPa) = 44.90284 50.37712 47.63998
# Shear Modulus (GPa) = 22.88769 25.36813 24.12791
#
# Velocity S-wave (km/s) = 3.40899 3.58896 3.50013
# Velocity P-wave (km/s) = 6.18824 6.53859 6.36583
#
# Compressibility (1/GPa) = 0.02227031
#
# Stress axis : x y z
#
# Youngs Moduli (GPa) = 80.36647 80.36647 56.00277
#
# Poissons Ratio (x) = 0.41395 0.14239
# Poissons Ratio (y) = 0.41395 0.14239
# Poissons Ratio (z) = 0.20434 0.20434
#
# Static dielectric constant tensor:
#      x y z
#    x 3.587780 0.000000 0.000000 
#    y 0.000000 3.587780 0.000000 
#    z 0.000000 0.000000 3.441610 
# 
# 
# High freq. dielectric constant tensor:
#      x y z
#    x 1.755510 0.000000 0.000000 
#    y 0.000000 1.755510 0.000000 
#    z 0.000000 0.000000 1.765670 
# 
# From -- ./inp_files/1000.got.cif
#   From: 2010.03.12/outbox.cif.g09.slc.cpg/sg83_1_cif.got.tgz:1000.got - 2010.04.08 20:05:18.
