data_PCOD8302719
_publ_section_title
;
Structure prediction by ZEFSAII (Michael W. Deem and Ramdas Pophale) SiO2 
 PCOD8302719
Probable space group: P 4/M
;
_chemical_formula_sum "Si O2"
_cell_formula_units_Z 36
_cell_length_a 15.232106
_cell_length_b 15.232106
_cell_length_c 9.075106
_cell_angle_alpha 90.000000
_cell_angle_beta 90.000000
_cell_angle_gamma 90.000000
_cell_volume 2105.579352
_symmetry_space_group_name_H-M "P 4/M"
_symmetry_group_IT_number 83
_symmetry_cell_setting 'tetragonal'
loop_
_space_group_symop_operation_xyz
x,y,z
-y,x,z
-x,-y,z
y,-x,z
-x,-y,-z
y,-x,-z
x,y,-z
-y,x,-z
loop_
_atom_site_type_symbol
_atom_site_label
_atom_site_fract_x
_atom_site_fract_y
_atom_site_fract_z
Si Si1 0.626944 0.429221 0.500000
Si Si2 0.063364 0.573276 0.168662
Si Si3 0.231848 0.996632 0.828478
Si Si4 0.827182 0.834812 0.674825
Si Si5 0.637102 0.782265 0.338823
O O1 0.618237 0.533806 0.500000
O O2 0.681959 0.398887 0.354268
O O3 0.018539 0.666564 0.192110
O O4 0.160350 0.571747 0.239489
O O5 0.000000 0.500000 0.241575
O O6 0.078805 0.549151 0.000000
O O7 0.173345 0.066745 0.739626
O O8 0.218837 0.902393 0.756270
O O9 0.204323 0.996601 0.000000
O O10 0.843878 0.836998 0.500000
O O11 0.737156 0.784404 0.719955
O O12 0.638247 0.827970 0.500000
#
# Coordination Sequence:
#
# PCOD8302719 Si02
#       5
#     4   8   8   8   8
#     4   9  18  34  55  78 104 133 169 210 254 306
#     4   9  18  33  51  75 106 135 168 211 261 311
#     4  10  20  33  51  72 100 138 174 211 255 308
#     4  10  19  34  50  72 103 132 171 216 253 295
#     4   8  18  33  50  76 101 134 169 209 257 300
#
# _framework density 17.097432000000001
#
# number of rings (size 3 to 8) (size 9 to 14) (size 15 to 20)
#    0.667    2.111    0.000    1.333    0.000    4.444 
#    0.000    2.222    0.000    1.333    0.000    1.556 
#    0.000    0.000    0.000    0.000    0.000    0.000 
#
# Total GULP energy -446200.531832 kJ/mol
# GULP energy per Si atom -12394.459218 kJ/mol
# Density = 1.705852 g / cm^3
# Si number density = 17.097432 Si / 1000 Ang^3
#
#
#
# Elastic Constant Matrix: (Units=GPa)
#
#
# Indices 1 2 3 4 5 6 
#
# 1 99.4582 54.8493 35.5111 0.0000 0.0000 -11.2583
# 2 54.8493 99.4582 35.5111 0.0000 0.0000 11.2583
# 3 35.5111 35.5111 65.9867 0.0000 0.0000 0.0000
# 4 0.0000 0.0000 0.0000 24.5917 0.0000 0.0000
# 5 0.0000 0.0000 0.0000 0.0000 24.5917 0.0000
# 6 -11.2583 11.2583 0.0000 0.0000 0.0000 27.9756
#
#
#
# Elastic Compliance Matrix: (Units=1/GPa)
#
#
# Indices 1 2 3 4 5 6 
#
# 1 0.018373 -0.009759 -0.004636 0.000000 0.000000 0.011321
# 2 -0.009759 0.018373 -0.004636 0.000000 0.000000 -0.011321
# 3 -0.004636 -0.004636 0.020144 0.000000 0.000000 0.000000
# 4 0.000000 0.000000 0.000000 0.040664 0.000000 0.000000
# 5 0.000000 0.000000 0.000000 0.000000 0.040664 0.000000
# 6 0.011321 -0.011321 0.000000 0.000000 0.000000 0.044857
#
#
# Mechanical properties :
#
#
# Convention : Reuss Voigt Hill
#
# Bulk Modulus (GPa) = 53.10839 57.40514 55.25677
# Shear Modulus (GPa) = 21.98648 24.70056 23.34352
#
# Velocity S-wave (km/s) = 3.58991 3.80504 3.69904
# Velocity P-wave (km/s) = 6.95075 7.27685 7.11567
#
# Compressibility (1/GPa) = 0.01882942
#
# Stress axis : x y z
#
# Youngs Moduli (GPa) = 54.42812 54.42812 49.64218
#
# Poissons Ratio (x) = 0.53114 0.23013
# Poissons Ratio (y) = 0.53114 0.23013
# Poissons Ratio (z) = 0.25232 0.25232
#
# Static dielectric constant tensor:
#      x y z
#    x 3.130740 0.000000 0.000000 
#    y 0.000000 3.130740 0.000000 
#    z 0.000000 0.000000 3.182190 
# 
# 
# High freq. dielectric constant tensor:
#      x y z
#    x 1.655740 0.000000 0.000000 
#    y 0.000000 1.655740 0.000000 
#    z 0.000000 0.000000 1.651060 
# 
# From -- ./inp_files/539.got.cif
#   From: 2010.03.12/outbox.cif.g09.slc.cpg/sg83_1_cif.got.tgz:539.got - 2010.04.08 20:05:18.
