data_PCOD8302860
_publ_section_title
;
Structure prediction by ZEFSAII (Michael W. Deem and Ramdas Pophale) SiO2 
 PCOD8302860
Probable space group: P 4/M
;
_chemical_formula_sum "Si O2"
_cell_formula_units_Z 48
_cell_length_a 14.123476
_cell_length_b 14.123476
_cell_length_c 12.661149
_cell_angle_alpha 90.000000
_cell_angle_beta 90.000000
_cell_angle_gamma 90.000000
_cell_volume 2525.551985
_symmetry_space_group_name_H-M "P 4/M"
_symmetry_group_IT_number 83
_symmetry_cell_setting 'tetragonal'
loop_
_space_group_symop_operation_xyz
x,y,z
-y,x,z
-x,-y,z
y,-x,z
-x,-y,-z
y,-x,-z
x,y,-z
-y,x,-z
loop_
_atom_site_type_symbol
_atom_site_label
_atom_site_fract_x
_atom_site_fract_y
_atom_site_fract_z
Si Si1 0.457142 0.649510 0.000000
Si Si2 0.650293 0.219876 0.624825
Si Si3 0.129700 0.082592 0.500000
Si Si4 0.995230 0.610082 0.622427
Si Si5 0.250609 0.147067 0.306386
Si Si6 0.457200 0.651461 0.228874
Si Si7 0.086546 0.872349 0.878761
O O1 0.385722 0.563377 0.000000
O O2 0.442122 0.702462 0.887218
O O3 0.640296 0.235275 0.500000
O O4 0.651277 0.108007 0.652260
O O5 0.743287 0.272900 0.670141
O O6 0.561560 0.270076 0.681555
O O7 0.176789 0.115955 0.393819
O O8 0.028813 0.130432 0.500000
O O9 0.017433 0.630134 0.500000
O O10 0.000000 0.500000 0.648942
O O11 0.079119 0.658054 0.689741
O O12 0.205383 0.139496 0.190780
O O13 0.385081 0.563931 0.241958
O O14 0.975227 0.871134 0.852906
O O15 0.104893 0.845784 0.000000
#
# Coordination Sequence:
#
# PCOD8302860 Si02
#       7
#     4   8   4   8   8   8   8
#     4   7  12  30  58  84 107 137 177 236 293 337
#     4  11  23  36  56  84 115 150 194 234 282 347
#     4  11  20  30  53  84 110 131 171 240 296 318
#     4  10  22  39  57  78 113 157 190 227 286 349
#     4  12  21  36  57  78 111 145 194 237 274 338
#     4   9  19  36  60  87 114 142 185 243 293 337
#     4   9  18  33  55  83 113 144 179 227 287 342
#
# _framework density 19.005745999999998
#
# number of rings (size 3 to 8) (size 9 to 14) (size 15 to 20)
#    0.000    2.000    1.667    4.500    2.333    2.000 
#    1.500    0.833    1.833    0.500    0.000    0.000 
#    0.000    0.000    0.000    0.000    0.000    0.000 
#
# Total GULP energy -595001.559269 kJ/mol
# GULP energy per Si atom -12395.865818 kJ/mol
# Density = 1.896249 g / cm^3
# Si number density = 19.005746 Si / 1000 Ang^3
#
#
#
# Elastic Constant Matrix: (Units=GPa)
#
#
# Indices 1 2 3 4 5 6 
#
# 1 51.6601 7.0458 27.1741 0.0000 0.0000 3.6328
# 2 7.0458 51.6601 27.1741 0.0000 0.0000 -3.6328
# 3 27.1741 27.1741 100.0278 0.0000 0.0000 0.0000
# 4 0.0000 0.0000 0.0000 27.3310 0.0000 0.0000
# 5 0.0000 0.0000 0.0000 0.0000 27.3310 0.0000
# 6 3.6328 -3.6328 0.0000 0.0000 0.0000 30.4964
#
#
#
# Elastic Compliance Matrix: (Units=1/GPa)
#
#
# Indices 1 2 3 4 5 6 
#
# 1 0.022808 -0.000050 -0.006182 0.000000 0.000000 -0.002723
# 2 -0.000050 0.022808 -0.006182 0.000000 0.000000 0.002723
# 3 -0.006182 -0.006182 0.013356 0.000000 0.000000 0.000000
# 4 0.000000 0.000000 0.000000 0.036589 0.000000 0.000000
# 5 0.000000 0.000000 0.000000 0.000000 0.036589 0.000000
# 6 -0.002723 0.002723 0.000000 0.000000 0.000000 0.033439
#
#
# Mechanical properties :
#
#
# Convention : Reuss Voigt Hill
#
# Bulk Modulus (GPa) = 29.28965 36.23732 32.76348
# Shear Modulus (GPa) = 24.77715 26.49526 25.63620
#
# Velocity S-wave (km/s) = 3.61455 3.73777 3.67668
# Velocity P-wave (km/s) = 5.73274 6.14295 5.94139
#
# Compressibility (1/GPa) = 0.03414175
#
# Stress axis : x y z
#
# Youngs Moduli (GPa) = 43.84485 43.84485 74.87080
#
# Poissons Ratio (x) = 0.00220 0.46289
# Poissons Ratio (y) = 0.00220 0.46289
# Poissons Ratio (z) = 0.27107 0.27107
#
# Static dielectric constant tensor:
#      x y z
#    x 3.392730 0.000000 0.000000 
#    y 0.000000 3.392730 0.000000 
#    z 0.000000 0.000000 3.578760 
# 
# 
# High freq. dielectric constant tensor:
#      x y z
#    x 1.725950 0.000000 0.000000 
#    y 0.000000 1.725950 0.000000 
#    z 0.000000 0.000000 1.738310 
# 
# From -- ./inp_files/1892.got.cif
#   From: 2010.03.12/outbox.cif.g09.slc.cpg/sg83_1_cif.got.tgz:1892.got - 2010.04.08 20:05:18.
