data_PCOD8302651
_publ_section_title
;
Structure prediction by ZEFSAII (Michael W. Deem and Ramdas Pophale) SiO2 
 PCOD8302651
Probable space group: P 4/M
;
_chemical_formula_sum "Si O2"
_cell_formula_units_Z 64
_cell_length_a 20.342251
_cell_length_b 20.342251
_cell_length_c 10.216670
_cell_angle_alpha 90.000000
_cell_angle_beta 90.000000
_cell_angle_gamma 90.000000
_cell_volume 4227.731358
_symmetry_space_group_name_H-M "P 4/M"
_symmetry_group_IT_number 83
_symmetry_cell_setting 'tetragonal'
loop_
_space_group_symop_operation_xyz
x,y,z
-y,x,z
-x,-y,z
y,-x,z
-x,-y,-z
y,-x,-z
x,y,-z
-y,x,-z
loop_
_atom_site_type_symbol
_atom_site_label
_atom_site_fract_x
_atom_site_fract_y
_atom_site_fract_z
Si Si1 0.366479 0.234555 0.353950
Si Si2 0.080726 0.173385 0.844918
Si Si3 0.350062 0.733671 0.348317
Si Si4 0.521687 0.605297 0.142072
Si Si5 0.185100 0.275433 0.854219
Si Si6 0.839521 0.290360 0.854660
Si Si7 0.499509 0.705361 0.645955
Si Si8 0.179994 0.065625 0.844468
O O1 0.344058 0.213202 0.500000
O O2 0.331281 0.305323 0.322470
O O3 0.346073 0.178622 0.250642
O O4 0.446198 0.236680 0.350147
O O5 0.115988 0.242690 0.810744
O O6 0.121704 0.111595 0.786430
O O7 0.007438 0.173518 0.784148
O O8 0.077420 0.165859 0.000000
O O9 0.345529 0.755506 0.500000
O O10 0.327755 0.793653 0.255473
O O11 0.426310 0.723523 0.307829
O O12 0.449612 0.576261 0.155233
O O13 0.533768 0.654233 0.258710
O O14 0.528788 0.640260 0.000000
O O15 0.237619 0.217845 0.861986
O O16 0.179654 0.307968 0.000000
O O17 0.905118 0.251884 0.808196
O O18 0.848964 0.321854 0.000000
O O19 0.495533 0.675250 0.500000
O O20 0.173672 0.064034 0.000000
#
# Coordination Sequence:
#
# PCOD8302651 Si02
#       8
#     8   8   8   8   8   8   8   8
#     4   9  17  28  41  57  77 100 127 162 203 244
#     4   8  13  21  35  58  87 115 140 164 190 223
#     4   9  17  28  41  57  77 100 127 162 203 244
#     4   9  18  30  40  52  74 103 131 157 188 234
#     4   8  14  25  40  57  78 105 135 164 194 229
#     4   8  14  25  40  57  78 105 135 164 194 229
#     4  10  19  29  41  58  77  97 126 166 210 251
#     4   8  13  21  35  58  87 115 140 164 190 223
#
# _framework density 15.138142999999999
#
# number of rings (size 3 to 8) (size 9 to 14) (size 15 to 20)
#    0.000    3.375    0.000    2.625    0.000    2.750 
#    0.000    4.375    0.000    0.750    0.000    0.875 
#    0.000    7.000    0.000    9.750    0.000   10.000 
#
# Total GULP energy -792857.986677 kJ/mol
# GULP energy per Si atom -12388.406042 kJ/mol
# Density = 1.510369 g / cm^3
# Si number density = 15.138143 Si / 1000 Ang^3
#
#
#
# Elastic Constant Matrix: (Units=GPa)
#
#
# Indices 1 2 3 4 5 6 
#
# 1 53.6163 29.9601 25.9733 0.0000 0.0000 2.3724
# 2 29.9601 53.6163 25.9733 0.0000 0.0000 -2.3724
# 3 25.9733 25.9733 55.7453 0.0000 0.0000 0.0000
# 4 0.0000 0.0000 0.0000 10.4625 0.0000 0.0000
# 5 0.0000 0.0000 0.0000 0.0000 10.4625 0.0000
# 6 2.3724 -2.3724 0.0000 0.0000 0.0000 9.3168
#
#
#
# Elastic Compliance Matrix: (Units=1/GPa)
#
#
# Indices 1 2 3 4 5 6 
#
# 1 0.030695 -0.013852 -0.007847 0.000000 0.000000 -0.011343
# 2 -0.013852 0.030695 -0.007847 0.000000 0.000000 0.011343
# 3 -0.007847 -0.007847 0.025251 0.000000 0.000000 0.000000
# 4 0.000000 0.000000 0.000000 0.095579 0.000000 0.000000
# 5 0.000000 0.000000 0.000000 0.000000 0.095579 0.000000
# 6 -0.011343 0.011343 0.000000 0.000000 0.000000 0.113109
#
#
# Mechanical properties :
#
#
# Convention : Reuss Voigt Hill
#
# Bulk Modulus (GPa) = 36.30171 36.31012 36.30591
# Shear Modulus (GPa) = 10.88882 11.45311 11.17097
#
# Velocity S-wave (km/s) = 2.68488 2.75357 2.71944
# Velocity P-wave (km/s) = 5.80033 5.84358 5.82200
#
# Compressibility (1/GPa) = 0.02754691
#
# Stress axis : x y z
#
# Youngs Moduli (GPa) = 32.57851 32.57851 39.60173
#
# Poissons Ratio (x) = 0.45129 0.31077
# Poissons Ratio (y) = 0.45129 0.31077
# Poissons Ratio (z) = 0.25566 0.25566
#
# Static dielectric constant tensor:
#      x y z
#    x 2.923380 0.000000 0.000000 
#    y 0.000000 2.923380 0.000000 
#    z 0.000000 0.000000 2.955480 
# 
# 
# High freq. dielectric constant tensor:
#      x y z
#    x 1.555340 0.000000 0.000000 
#    y 0.000000 1.555340 0.000000 
#    z 0.000000 0.000000 1.565590 
# 
# From -- ./inp_files/2080.got.cif
#   From: 2010.03.12/outbox.cif.g09.slc.cpg/sg83_2_cif.got.tgz:2080.got - 2010.04.08 20:05:18.
