data_PCOD8302079
_publ_section_title
;
Structure prediction by ZEFSAII (Michael W. Deem and Ramdas Pophale) SiO2 
 PCOD8302079
Probable space group: I 4
;
_chemical_formula_sum "Si O2"
_cell_formula_units_Z 58
_cell_length_a 11.939366
_cell_length_b 11.939366
_cell_length_c 22.568013
_cell_angle_alpha 90.000000
_cell_angle_beta 90.000000
_cell_angle_gamma 90.000000
_cell_volume 3217.035509
_symmetry_space_group_name_H-M "I 4"
_symmetry_group_IT_number 79
_symmetry_cell_setting 'tetragonal'
loop_
_space_group_symop_operation_xyz
x,y,z
-y,x,z
-x,-y,z
y,-x,z
1/2+x,1/2+y,1/2+z
1/2-y,1/2+x,1/2+z
1/2-x,1/2-y,1/2+z
1/2+y,1/2-x,1/2+z
loop_
_atom_site_type_symbol
_atom_site_label
_atom_site_fract_x
_atom_site_fract_y
_atom_site_fract_z
Si Si1 0.805594 0.359403 0.239650
Si Si2 0.122191 0.310244 0.100666
Si Si3 0.180313 0.982511 0.418538
Si Si4 0.000000 0.000000 0.599467
Si Si5 0.872729 0.500948 0.826852
Si Si6 0.632568 0.200816 0.612413
Si Si7 0.615947 0.186888 0.230038
Si Si8 0.763524 0.998148 0.553971
O O1 0.874825 0.314754 0.183312
O O2 0.688880 0.295097 0.245845
O O3 0.771911 0.488557 0.232251
O O4 0.879290 0.341239 0.298458
O O5 0.180018 0.188685 0.096848
O O6 0.138700 0.362260 0.165456
O O7 0.175832 0.395087 0.053323
O O8 0.991550 0.297898 0.085497
O O9 0.207681 0.970073 0.487163
O O10 0.120255 0.098980 0.402289
O O11 0.293619 0.972409 0.381470
O O12 0.125693 0.048375 0.587496
O O13 0.856954 0.409406 0.776258
O O14 0.000000 0.500000 0.850485
O O15 0.707144 0.103006 0.585691
#
# Coordination Sequence:
#
# PCOD8302079 Si02
#       8
#     8   8   8   2   8   8   8   8
#     4  10  20  35  52  78 109 145 190 234 279 335
#     4  11  22  36  56  80 113 155 192 237 289 346
#     4  11  21  38  59  85 117 149 186 239 290 337
#     4  12  20  40  56  92 120 148 192 256 276 366
#     4  10  21  36  57  78 112 149 194 231 277 335
#     4  11  22  36  56  80 113 155 192 237 289 346
#     4  10  20  35  52  78 109 145 190 234 279 335
#     4  12  21  37  59  87 118 149 191 239 303 347
#
# _framework density 18.029022000000001
#
# number of rings (size 3 to 8) (size 9 to 14) (size 15 to 20)
#    0.000    1.241    5.517    1.241    0.000    1.655 
#    0.000    0.000    0.000    0.000    0.000    0.000 
#    0.000    6.621    0.000    0.000    0.000    0.000 
#
# Total GULP energy -359316.075257 kJ/mol
# GULP energy per Si atom -12390.209492 kJ/mol
# Density = 1.798799 g / cm^3
# Si number density = 18.029022 Si / 1000 Ang^3
#
#
#
# Elastic Constant Matrix: (Units=GPa)
#
#
# Indices 1 2 3 4 5 6 
#
# 1 77.5404 37.4548 8.8388 0.0000 0.0000 -6.3366
# 2 37.4548 77.5404 8.8388 0.0000 0.0000 6.3366
# 3 8.8388 8.8388 30.3405 0.0000 0.0000 0.0000
# 4 0.0000 0.0000 0.0000 18.5038 0.0000 0.0000
# 5 0.0000 0.0000 0.0000 0.0000 18.5038 0.0000
# 6 -6.3366 6.3366 0.0000 0.0000 0.0000 19.7933
#
#
#
# Elastic Compliance Matrix: (Units=1/GPa)
#
#
# Indices 1 2 3 4 5 6 
#
# 1 0.018430 -0.009326 -0.002652 0.000000 0.000000 0.008886
# 2 -0.009326 0.018430 -0.002652 0.000000 0.000000 -0.008886
# 3 -0.002652 -0.002652 0.034504 0.000000 0.000000 0.000000
# 4 0.000000 0.000000 0.000000 0.054043 0.000000 0.000000
# 5 0.000000 0.000000 0.000000 0.000000 0.054043 0.000000
# 6 0.008886 -0.008886 0.000000 0.000000 0.000000 0.056212
#
#
# Mechanical properties :
#
#
# Convention : Reuss Voigt Hill
#
# Bulk Modulus (GPa) = 23.75101 32.85403 28.30252
# Shear Modulus (GPa) = 17.92394 20.04611 18.98503
#
# Velocity S-wave (km/s) = 3.15647 3.33810 3.24856
# Velocity P-wave (km/s) = 5.14653 5.75497 5.45923
#
# Compressibility (1/GPa) = 0.04210348
#
# Stress axis : x y z
#
# Youngs Moduli (GPa) = 54.25991 54.25991 28.98174
#
# Poissons Ratio (x) = 0.50603 0.07686
# Poissons Ratio (y) = 0.50603 0.07686
# Poissons Ratio (z) = 0.14390 0.14390
#
# Static dielectric constant tensor:
#      x y z
#    x 3.541500 0.000000 0.000000 
#    y 0.000000 3.541500 0.000000 
#    z 0.000000 0.000000 3.088160 
# 
# 
# High freq. dielectric constant tensor:
#      x y z
#    x 1.710990 0.000000 0.000000 
#    y 0.000000 1.710990 0.000000 
#    z 0.000000 0.000000 1.666990 
# 
# From -- ./inp_files/1857.got.cif
#   From: 2010.03.12/outbox.cif.g09.slc.cpg/sg79_cif.got.tgz:1857.got - 2010.04.16 16:38:49.
