data_PCOD8302088
_publ_section_title
;
Structure prediction by ZEFSAII (Michael W. Deem and Ramdas Pophale) SiO2 
 PCOD8302088
Probable space group: I 4
;
_chemical_formula_sum "Si O2"
_cell_formula_units_Z 52
_cell_length_a 16.913113
_cell_length_b 16.913113
_cell_length_c 8.435079
_cell_angle_alpha 90.000000
_cell_angle_beta 90.000000
_cell_angle_gamma 90.000000
_cell_volume 2412.882954
_symmetry_space_group_name_H-M "I 4"
_symmetry_group_IT_number 79
_symmetry_cell_setting 'tetragonal'
loop_
_space_group_symop_operation_xyz
x,y,z
-y,x,z
-x,-y,z
y,-x,z
1/2+x,1/2+y,1/2+z
1/2-y,1/2+x,1/2+z
1/2-x,1/2-y,1/2+z
1/2+y,1/2-x,1/2+z
loop_
_atom_site_type_symbol
_atom_site_label
_atom_site_fract_x
_atom_site_fract_y
_atom_site_fract_z
Si Si1 0.131549 0.615495 0.520590
Si Si2 0.000000 0.500000 0.443252
Si Si3 0.701652 0.419841 0.381103
Si Si4 0.580157 0.298348 0.505401
Si Si5 0.754976 0.847639 0.309391
Si Si6 0.745024 0.347638 0.077112
Si Si7 0.615493 0.131550 0.365914
O O1 0.210420 0.576031 0.452174
O O2 0.106630 0.684508 0.398918
O O3 0.150991 0.650994 0.693252
O O4 0.058907 0.554893 0.544521
O O5 0.941093 0.554893 0.341982
O O6 0.656919 0.343079 0.443249
O O7 0.658851 0.499999 0.443252
O O8 0.702671 0.413201 0.188828
O O9 0.586799 0.297331 0.697676
O O10 0.576028 0.210419 0.434335
O O11 0.721448 0.778553 0.193251
O O12 0.813069 0.813070 0.443252
O O13 0.815492 0.393369 0.987583
#
# Coordination Sequence:
#
# PCOD8302088 Si02
#       7
#     8   4   8   8   8   8   8
#     4  11  23  39  64  94 136 177 214 264 328 407
#     4  12  26  36  60 102 148 172 208 252 334 408
#     4  11  24  43  66  93 128 169 230 277 335 394
#     4  11  24  43  66  93 128 169 230 277 335 394
#     4  10  20  39  65  94 127 173 224 269 326 397
#     4  10  20  39  65  94 127 173 224 269 326 397
#     4  11  23  39  64  94 136 177 214 264 328 407
#
# _framework density 21.550982000000001
#
# number of rings (size 3 to 8) (size 9 to 14) (size 15 to 20)
#    0.000    1.231    1.538    6.923    4.308    2.769 
#    0.000    0.000    0.000    0.000    0.000    6.462 
#    0.000    0.000    0.000    0.000    0.000    0.000 
#
# Total GULP energy -322187.354214 kJ/mol
# GULP energy per Si atom -12391.821316 kJ/mol
# Density = 2.150193 g / cm^3
# Si number density = 21.550982 Si / 1000 Ang^3
#
#
#
# Elastic Constant Matrix: (Units=GPa)
#
#
# Indices 1 2 3 4 5 6 
#
# 1 91.4516 59.5917 52.3935 0.0000 0.0000 0.0004
# 2 59.5917 91.4516 52.3935 0.0000 0.0000 -0.0004
# 3 52.3935 52.3935 190.7540 0.0000 0.0000 0.0000
# 4 0.0000 0.0000 0.0000 17.7052 0.0000 0.0000
# 5 0.0000 0.0000 0.0000 0.0000 17.7052 0.0000
# 6 0.0004 -0.0004 0.0000 0.0000 0.0000 31.3763
#
#
#
# Elastic Compliance Matrix: (Units=1/GPa)
#
#
# Indices 1 2 3 4 5 6 
#
# 1 0.019783 -0.011604 -0.002247 0.000000 0.000000 0.000000
# 2 -0.011604 0.019783 -0.002247 0.000000 0.000000 0.000000
# 3 -0.002247 -0.002247 0.006476 0.000000 0.000000 0.000000
# 4 0.000000 0.000000 0.000000 0.056481 0.000000 0.000000
# 5 0.000000 0.000000 0.000000 0.000000 0.056481 0.000000
# 6 0.000000 0.000000 0.000000 0.000000 0.000000 0.031871
#
#
# Mechanical properties :
#
#
# Convention : Reuss Voigt Hill
#
# Bulk Modulus (GPa) = 72.20926 78.04605 75.12766
# Shear Modulus (GPa) = 21.96009 27.30925 24.63467
#
# Velocity S-wave (km/s) = 3.19562 3.56363 3.38463
# Velocity P-wave (km/s) = 6.86986 7.29560 7.08593
#
# Compressibility (1/GPa) = 0.01384864
#
# Stress axis : x y z
#
# Youngs Moduli (GPa) = 50.54780 50.54780 154.40585
#
# Poissons Ratio (x) = 0.58656 0.34688
# Poissons Ratio (y) = 0.58656 0.34688
# Poissons Ratio (z) = 0.11356 0.11356
#
# Static dielectric constant tensor:
#      x y z
#    x 3.760310 0.000000 0.000000 
#    y 0.000000 3.760310 0.000000 
#    z 0.000000 0.000000 4.179150 
# 
# 
# High freq. dielectric constant tensor:
#      x y z
#    x 1.824830 0.000000 0.000000 
#    y 0.000000 1.824830 0.000000 
#    z 0.000000 0.000000 1.862700 
# 
# From -- ./inp_files/696.got.cif
#   From: 2010.03.12/outbox.cif.g09.slc.cpg/sg79_cif.got.tgz:696.got - 2010.04.16 16:38:49.
