data_PCOD8302869
_publ_section_title
;
Structure prediction by ZEFSAII (Michael W. Deem and Ramdas Pophale) SiO2 
 PCOD8302869
Probable space group: P 4/M
;
_chemical_formula_sum "Si O2"
_cell_formula_units_Z 48
_cell_length_a 8.273097
_cell_length_b 8.273097
_cell_length_c 32.585773
_cell_angle_alpha 90.000000
_cell_angle_beta 90.000000
_cell_angle_gamma 90.000000
_cell_volume 2230.305013
_symmetry_space_group_name_H-M "P 4/M"
_symmetry_group_IT_number 83
_symmetry_cell_setting 'tetragonal'
loop_
_space_group_symop_operation_xyz
x,y,z
-y,x,z
-x,-y,z
y,-x,z
-x,-y,-z
y,-x,-z
x,y,-z
-y,x,-z
loop_
_atom_site_type_symbol
_atom_site_label
_atom_site_fract_x
_atom_site_fract_y
_atom_site_fract_z
Si Si1 0.758394 0.570212 0.863561
Si Si2 0.084696 0.255904 0.791547
Si Si3 0.075112 0.257205 0.385329
Si Si4 0.754910 0.573161 0.454132
Si Si5 0.062022 0.740320 0.000000
Si Si6 0.918498 0.747328 0.702818
Si Si7 0.000000 0.500000 0.931464
O O1 0.612727 0.696691 0.863061
O O2 0.870767 0.606712 0.824308
O O3 0.867022 0.592591 0.904019
O O4 0.112221 0.341753 0.746470
O O5 0.899791 0.200276 0.797096
O O6 0.107010 0.386543 0.421101
O O7 0.107759 0.345705 0.340676
O O8 0.892951 0.196718 0.389614
O O9 0.607923 0.696136 0.447458
O O10 0.826456 0.595130 0.500000
O O11 0.879960 0.806460 0.000000
O O12 0.089339 0.632624 0.959561
O O13 0.101674 0.801704 0.702660
#
# Coordination Sequence:
#
# PCOD8302869 Si02
#       7
#     8   8   8   8   4   8   4
#     4  11  23  37  54  80 115 151 186 226 273 324
#     4   9  17  32  56  81 105 141 187 226 263 315
#     4   9  17  30  50  76 102 126 159 207 259 312
#     4   9  19  35  50  64  89 128 170 210 256 313
#     4  10  22  40  64  92 116 142 186 239 278 316
#     4   7  12  26  48  73 101 133 169 209 254 307
#     4  11  22  40  62  84 116 154 186 222 279 336
#
# _framework density 21.521722
#
# number of rings (size 3 to 8) (size 9 to 14) (size 15 to 20)
#    0.000    2.750    0.000    4.500    0.000    1.333 
#    0.000    5.833    0.000   12.000    0.000    0.000 
#    0.000    0.000    0.000    0.000    0.000    0.000 
#
# Total GULP energy -594736.997874 kJ/mol
# GULP energy per Si atom -12390.354122 kJ/mol
# Density = 2.147274 g / cm^3
# Si number density = 21.521722 Si / 1000 Ang^3
#
#
#
# Elastic Constant Matrix: (Units=GPa)
#
#
# Indices 1 2 3 4 5 6 
#
# 1 53.7347 15.5806 40.2454 0.0000 0.0000 -3.7007
# 2 15.5806 53.7347 40.2454 0.0000 0.0000 3.7007
# 3 40.2454 40.2454 195.3209 0.0000 0.0000 0.0000
# 4 0.0000 0.0000 0.0000 -305.1347 0.0000 0.0000
# 5 0.0000 0.0000 0.0000 0.0000 -305.1347 0.0000
# 6 -3.7007 3.7007 0.0000 0.0000 0.0000 32.4998
#
#
#
# Elastic Compliance Matrix: (Units=1/GPa)
#
#
# Indices 1 2 3 4 5 6 
#
# 1 0.022883 -0.003919 -0.003908 0.000000 0.000000 0.003052
# 2 -0.003919 0.022883 -0.003908 0.000000 0.000000 -0.003052
# 3 -0.003908 -0.003908 0.006730 0.000000 0.000000 0.000000
# 4 0.000000 0.000000 0.000000 -0.003277 0.000000 0.000000
# 5 0.000000 0.000000 0.000000 0.000000 -0.003277 0.000000
# 6 0.003052 -0.003052 0.000000 0.000000 0.000000 0.031464
#
#
# Mechanical properties :
#
#
# Convention : Reuss Voigt Hill
#
# Bulk Modulus (GPa) = 34.44881 54.99259 44.72070
# Shear Modulus (GPa) = 45.22860 -101.77265 -28.27203
#
# Velocity S-wave (km/s) = 4.58922 -6.88411 -3.62836
# Velocity P-wave (km/s) = 6.64248 6.13029 1.80861
#
# Compressibility (1/GPa) = 0.02902858
#
# Stress axis : x y z
#
# Youngs Moduli (GPa) = 43.70066 43.70066 148.58681
#
# Poissons Ratio (x) = 0.17124 0.58061
# Poissons Ratio (y) = 0.17124 0.58061
# Poissons Ratio (z) = 0.17076 0.17076
#
# Static dielectric constant tensor:
#      x y z
#    x 3.556910 0.000000 0.000000 
#    y 0.000000 3.556910 0.000000 
#    z 0.000000 0.000000 4.352980 
# 
# 
# High freq. dielectric constant tensor:
#      x y z
#    x 1.824500 0.000000 0.000000 
#    y 0.000000 1.824500 0.000000 
#    z 0.000000 0.000000 1.866920 
# 
# From -- ./inp_files/3482.got.cif
#   From: 2010.03.12/outbox.cif.g09.slc.cpg/sg83_2_cif.got.tgz:3482.got - 2010.04.08 20:05:18.
