data_PCOD8302070
_publ_section_title
;
Structure prediction by ZEFSAII (Michael W. Deem and Ramdas Pophale) SiO2 
 PCOD8302070
Probable space group: P 43
;
_chemical_formula_sum "Si O2"
_cell_formula_units_Z 28
_cell_length_a 9.201284
_cell_length_b 9.201284
_cell_length_c 14.713865
_cell_angle_alpha 90.000000
_cell_angle_beta 90.000000
_cell_angle_gamma 90.000000
_cell_volume 1245.729182
_symmetry_space_group_name_H-M "P 43"
_symmetry_group_IT_number 78
_symmetry_cell_setting 'tetragonal'
loop_
_space_group_symop_operation_xyz
x,y,z
-y,x,3/4+z
-x,-y,1/2+z
y,-x,1/4+z
loop_
_atom_site_type_symbol
_atom_site_label
_atom_site_fract_x
_atom_site_fract_y
_atom_site_fract_z
Si Si1 0.223651 0.868524 0.267540
Si Si2 0.631849 0.961873 0.444977
Si Si3 0.216329 0.199721 0.221226
Si Si4 0.292811 0.388360 0.683644
Si Si5 0.880260 0.460433 0.493031
Si Si6 0.656827 0.526652 0.984474
Si Si7 0.122359 0.420196 0.343975
O O1 0.096066 0.798988 0.204388
O O2 0.184278 0.844859 0.371412
O O3 0.381708 0.802177 0.242473
O O4 0.247777 0.039743 0.255774
O O5 0.574976 0.933559 0.344298
O O6 0.549793 0.866495 0.520860
O O7 0.601577 0.129183 0.473460
O O8 0.354465 0.310304 0.225682
O O9 0.093940 0.271580 0.287544
O O10 0.339136 0.226227 0.705892
O O11 0.415063 0.490742 0.730567
O O12 0.275897 0.411094 0.576495
O O13 0.012573 0.459498 0.423315
O O14 0.724072 0.601023 0.894902
#
# Coordination Sequence:
#
# PCOD8302070 Si02
#       7
#     4   4   4   4   4   4   4
#     4  12  27  49  76 110 153 202 253 312 387 464
#     4  12  27  50  75 110 155 199 252 316 380 464
#     4  12  27  48  78 110 150 205 252 309 387 459
#     4  12  29  46  75 111 150 196 251 318 378 449
#     4  12  28  47  76 114 148 198 252 316 384 450
#     4  12  25  46  76 110 146 193 258 312 376 446
#     4  12  25  50  76 105 152 197 256 313 370 464
#
# _framework density 22.476794000000002
#
# number of rings (size 3 to 8) (size 9 to 14) (size 15 to 20)
#    0.000    0.000    7.143    0.857   10.000    2.286 
#    0.000    0.000    0.000    0.000    0.000    0.000 
#    0.000    0.000    0.000    0.000    0.000    0.000 
#
# Total GULP energy -347060.623265 kJ/mol
# GULP energy per Si atom -12395.022259 kJ/mol
# Density = 2.242564 g / cm^3
# Si number density = 22.476794 Si / 1000 Ang^3
#
#
#
# Elastic Constant Matrix: (Units=GPa)
#
#
# Indices 1 2 3 4 5 6 
#
# 1 65.4550 30.8712 30.8310 0.0000 0.0000 -0.9177
# 2 30.8712 65.4550 30.8310 0.0000 0.0000 0.9177
# 3 30.8310 30.8310 134.9974 0.0000 0.0000 0.0000
# 4 0.0000 0.0000 0.0000 29.2618 0.0000 0.0000
# 5 0.0000 0.0000 0.0000 0.0000 29.2618 0.0000
# 6 -0.9177 0.9177 0.0000 0.0000 0.0000 28.1723
#
#
#
# Elastic Compliance Matrix: (Units=1/GPa)
#
#
# Indices 1 2 3 4 5 6 
#
# 1 0.020562 -0.008403 -0.002777 0.000000 0.000000 0.000944
# 2 -0.008403 0.020562 -0.002777 0.000000 0.000000 -0.000944
# 3 -0.002777 -0.002777 0.008676 0.000000 0.000000 0.000000
# 4 0.000000 0.000000 0.000000 0.034174 0.000000 0.000000
# 5 0.000000 0.000000 0.000000 0.000000 0.034174 0.000000
# 6 0.000944 -0.000944 0.000000 0.000000 0.000000 0.035557
#
#
# Mechanical properties :
#
#
# Convention : Reuss Voigt Hill
#
# Bulk Modulus (GPa) = 45.69061 50.10818 47.89940
# Shear Modulus (GPa) = 26.46687 28.89746 27.68216
#
# Velocity S-wave (km/s) = 3.43522 3.58950 3.51321
# Velocity P-wave (km/s) = 6.00886 6.28657 6.14928
#
# Compressibility (1/GPa) = 0.02188633
#
# Stress axis : x y z
#
# Youngs Moduli (GPa) = 48.63304 48.63304 115.26142
#
# Poissons Ratio (x) = 0.40867 0.32007
# Poissons Ratio (y) = 0.40867 0.32007
# Poissons Ratio (z) = 0.13505 0.13505
#
# Static dielectric constant tensor:
#      x y z
#    x 4.038200 0.000000 0.000000 
#    y 0.000000 4.038200 0.000000 
#    z 0.000000 0.000000 4.391530 
# 
# 
# High freq. dielectric constant tensor:
#      x y z
#    x 1.882500 0.000000 0.000000 
#    y 0.000000 1.882500 0.000000 
#    z 0.000000 0.000000 1.911370 
# 
# From -- ./inp_files/1119.got.cif
#   From: 2010.03.12/outbox.cif.g09.slc.cpg/sg78_cif.got.tgz:1119.got - 2010.04.16 16:37:20.
