data_PCOD8302536
_publ_section_title
;
Structure prediction by ZEFSAII (Michael W. Deem and Ramdas Pophale) SiO2 
 PCOD8302536
Probable space group: I -4 
;
_chemical_formula_sum "Si O2"
_cell_formula_units_Z 56
_cell_length_a 13.847009
_cell_length_b 13.847009
_cell_length_c 12.332757
_cell_angle_alpha 90.000000
_cell_angle_beta 90.000000
_cell_angle_gamma 90.000000
_cell_volume 2364.678612
_symmetry_space_group_name_H-M "I -4 "
_symmetry_group_IT_number 82
_symmetry_cell_setting 'tetragonal'
loop_
_space_group_symop_operation_xyz
x,y,z
y,-x,-z
-x,-y,z
-y,x,-z
1/2+x,1/2+y,1/2+z
1/2+y,1/2-x,1/2-z
1/2-x,1/2-y,1/2+z
1/2-y,1/2+x,1/2-z
loop_
_atom_site_type_symbol
_atom_site_label
_atom_site_fract_x
_atom_site_fract_y
_atom_site_fract_z
Si Si1 0.369442 0.933070 0.207887
Si Si2 0.877797 0.730269 0.223589
Si Si3 0.397640 0.473614 0.217814
Si Si4 0.693362 0.832827 0.950482
Si Si5 0.094641 0.897569 0.053821
Si Si6 0.609737 0.029265 0.969345
Si Si7 0.722156 0.330076 0.848416
O O1 0.452242 0.878726 0.275719
O O2 0.267185 0.901046 0.258090
O O3 0.380525 0.906112 0.079385
O O4 0.855895 0.672145 0.333276
O O5 0.924273 0.656381 0.138015
O O6 0.776098 0.764355 0.175670
O O7 0.939213 0.825444 0.252764
O O8 0.500000 0.500000 0.158206
O O9 0.434332 0.420411 0.325274
O O10 0.337505 0.394227 0.149717
O O11 0.810438 0.827967 0.945868
O O12 0.669048 0.935156 0.001454
O O13 0.646935 0.751654 0.027748
O O14 0.988385 0.863020 0.011675
O O15 0.500000 0.000000 0.943306
#
# Coordination Sequence:
#
# PCOD8302536 Si02
#       7
#     8   8   8   8   8   8   8
#     4  11  23  48  73 117 152 193 259 319 401 467
#     4  12  29  50  75 115 156 205 269 321 394 476
#     4  12  27  51  75 112 153 206 262 324 397 471
#     4  12  27  48  71 110 151 199 265 316 394 466
#     4  11  22  41  77 113 149 192 256 324 383 462
#     4  12  26  45  79 107 153 202 253 326 391 465
#     4  12  28  47  78 111 157 208 256 326 396 474
#
# _framework density 23.681864000000001
#
# number of rings (size 3 to 8) (size 9 to 14) (size 15 to 20)
#    0.000    0.286    7.143    0.857   10.000    0.000 
#    2.571    0.000    0.000    0.000    0.000    0.000 
#    0.000    0.000    0.000    0.000    0.000    0.000 
#
# Total GULP energy -347104.966079 kJ/mol
# GULP energy per Si atom -12396.605931 kJ/mol
# Density = 2.362796 g / cm^3
# Si number density = 23.681864 Si / 1000 Ang^3
#
#
#
# Elastic Constant Matrix: (Units=GPa)
#
#
# Indices 1 2 3 4 5 6 
#
# 1 108.2930 38.3144 38.4906 0.0000 0.0000 4.7777
# 2 38.3144 108.2930 38.4906 0.0000 0.0000 -4.7777
# 3 38.4906 38.4906 143.6004 0.0000 0.0000 0.0000
# 4 0.0000 0.0000 0.0000 10.0336 0.0000 0.0000
# 5 0.0000 0.0000 0.0000 0.0000 10.0336 0.0000
# 6 4.7777 -4.7777 0.0000 0.0000 0.0000 38.6873
#
#
#
# Elastic Compliance Matrix: (Units=1/GPa)
#
#
# Indices 1 2 3 4 5 6 
#
# 1 0.011237 -0.003299 -0.002128 0.000000 0.000000 -0.001795
# 2 -0.003299 0.011237 -0.002128 0.000000 0.000000 0.001795
# 3 -0.002128 -0.002128 0.008104 0.000000 0.000000 0.000000
# 4 0.000000 0.000000 0.000000 0.099665 0.000000 0.000000
# 5 0.000000 0.000000 0.000000 0.000000 0.099665 0.000000
# 6 -0.001795 0.001795 0.000000 0.000000 0.000000 0.026292
#
#
# Mechanical properties :
#
#
# Convention : Reuss Voigt Hill
#
# Bulk Modulus (GPa) = 64.64214 65.64196 65.14205
# Shear Modulus (GPa) = 18.08553 28.07695 23.08124
#
# Velocity S-wave (km/s) = 2.76649 3.44697 3.12531
# Velocity P-wave (km/s) = 6.12861 6.60459 6.37105
#
# Compressibility (1/GPa) = 0.01546978
#
# Stress axis : x y z
#
# Youngs Moduli (GPa) = 88.99416 88.99416 123.38956
#
# Poissons Ratio (x) = 0.29355 0.26254
# Poissons Ratio (y) = 0.29355 0.26254
# Poissons Ratio (z) = 0.18936 0.18936
#
# Static dielectric constant tensor:
#      x y z
#    x 4.275270 0.000000 0.000000 
#    y 0.000000 4.275270 0.000000 
#    z 0.000000 0.000000 4.315920 
# 
# 
# High freq. dielectric constant tensor:
#      x y z
#    x 1.935160 0.000000 0.000000 
#    y 0.000000 1.935160 0.000000 
#    z 0.000000 0.000000 1.944160 
# 
# From -- ./inp_files/1850.got.cif
#   From: 2010.03.12/outbox.cif.g09.slc.cpg/sg82_1_cif.got.tgz:1850.got - 2010.04.08 20:02:50.
