data_PCOD8302144
_publ_section_title
;
Structure prediction by ZEFSAII (Michael W. Deem and Ramdas Pophale) SiO2 
 PCOD8302144
Probable space group: I 41
;
_chemical_formula_sum "Si O2"
_cell_formula_units_Z 40
_cell_length_a 15.078337
_cell_length_b 15.078337
_cell_length_c 8.013346
_cell_angle_alpha 90.000000
_cell_angle_beta 90.000000
_cell_angle_gamma 90.000000
_cell_volume 1821.884270
_symmetry_space_group_name_H-M "I 41"
_symmetry_group_IT_number 80
_symmetry_cell_setting 'tetragonal'
loop_
_space_group_symop_operation_xyz
x,y,z
-y,1/2+x,1/4+z
-x,-y,z
y,1/2-x,1/4+z
1/2+x,1/2+y,1/2+z
1/2-y,x,3/4+z
1/2-x,1/2-y,1/2+z
1/2+y,-x,3/4+z
loop_
_atom_site_type_symbol
_atom_site_label
_atom_site_fract_x
_atom_site_fract_y
_atom_site_fract_z
Si Si1 0.227864 0.963485 0.673760
Si Si2 0.100939 0.496789 0.715634
Si Si3 0.671862 0.322406 0.899844
Si Si4 0.556525 0.417407 0.344332
Si Si5 0.345787 0.188914 0.282292
O O1 0.211113 0.898865 0.517868
O O2 0.332637 0.955020 0.717366
O O3 0.162140 0.938156 0.826721
O O4 0.205484 0.063612 0.628874
O O5 0.156583 0.569131 0.611916
O O6 0.143953 0.401647 0.676388
O O7 0.000000 0.500000 0.654035
O O8 0.107143 0.516507 0.913461
O O9 0.725104 0.319719 0.728649
O O10 0.500000 0.500000 0.419024
O O11 0.268104 0.178772 0.413381
#
# Coordination Sequence:
#
# PCOD8302144 Si02
#       5
#     8   8   8   8   8
#     4  11  17  31  55  85 107 134 191 236 265 312
#     4  10  18  32  57  83 102 141 191 235 257 314
#     4  11  20  34  56  87 111 139 181 229 281 323
#     4  10  17  29  51  84 106 137 182 239 269 309
#     4  12  22  36  57  84 111 146 187 227 273 330
#
# _framework density 21.955293000000001
#
# number of rings (size 3 to 8) (size 9 to 14) (size 15 to 20)
#    0.000    1.200   12.000    0.000    0.000    0.000 
#    0.000    2.000    0.000    0.000    0.000    0.000 
#    0.000    0.000    0.000    0.000    0.000    0.000 
#
# Total GULP energy -247983.242396 kJ/mol
# GULP energy per Si atom -12399.162120 kJ/mol
# Density = 2.190532 g / cm^3
# Si number density = 21.955293 Si / 1000 Ang^3
#
#
#
# Elastic Constant Matrix: (Units=GPa)
#
#
# Indices 1 2 3 4 5 6 
#
# 1 106.2192 150.7227 22.9470 0.0000 0.0000 -35.2852
# 2 150.7227 106.2192 22.9470 0.0000 0.0000 35.2852
# 3 22.9470 22.9470 14.0577 0.0000 0.0000 0.0000
# 4 0.0000 0.0000 0.0000 8.2656 0.0000 0.0000
# 5 0.0000 0.0000 0.0000 0.0000 8.2656 0.0000
# 6 -35.2852 35.2852 0.0000 0.0000 0.0000 4.2510
#
#
#
# Elastic Compliance Matrix: (Units=1/GPa)
#
#
# Indices 1 2 3 4 5 6 
#
# 1 0.001954 0.003540 -0.008968 0.000000 0.000000 -0.013170
# 2 0.003540 0.001954 -0.008968 0.000000 0.000000 0.013170
# 3 -0.008968 -0.008968 0.100411 0.000000 0.000000 0.000000
# 4 0.000000 0.000000 0.000000 0.120984 0.000000 0.000000
# 5 0.000000 0.000000 0.000000 0.000000 0.120984 0.000000
# 6 -0.013170 0.013170 0.000000 0.000000 0.000000 0.016610
#
#
# Mechanical properties :
#
#
# Convention : Reuss Voigt Hill
#
# Bulk Modulus (GPa) = 13.24003 68.85882 41.04943
# Shear Modulus (GPa) = 11.99437 6.14839 9.07138
#
# Velocity S-wave (km/s) = 2.33986 1.67526 2.03488
# Velocity P-wave (km/s) = 3.65287 5.93071 4.92528
#
# Compressibility (1/GPa) = 0.07552852
#
# Stress axis : x y z
#
# Youngs Moduli (GPa) = 511.89524 511.89524 9.95903
#
# Poissons Ratio (x) = -1.81219 0.08931
# Poissons Ratio (y) = -1.81219 0.08931
# Poissons Ratio (z) = 4.59044 4.59044
#
# Static dielectric constant tensor:
#      x y z
#    x 4.448360 0.000000 0.000000 
#    y 0.000000 4.448360 0.000000 
#    z 0.000000 0.000000 3.091080 
# 
# 
# High freq. dielectric constant tensor:
#      x y z
#    x 1.886370 0.000000 0.000000 
#    y 0.000000 1.886370 0.000000 
#    z 0.000000 0.000000 1.784820 
# 
# From -- ./inp_files/592.got.cif
#   From: 2010.03.12/outbox.cif.g09.slc.cpg/sg80_cif.got.tgz:592.got - 2010.04.08 20:00:04.
