data_PCOD8302840
_publ_section_title
;
Structure prediction by ZEFSAII (Michael W. Deem and Ramdas Pophale) SiO2 
 PCOD8302840
Probable space group: P 4/M
;
_chemical_formula_sum "Si O2"
_cell_formula_units_Z 40
_cell_length_a 14.792648
_cell_length_b 14.792648
_cell_length_c 8.930643
_cell_angle_alpha 90.000000
_cell_angle_beta 90.000000
_cell_angle_gamma 90.000000
_cell_volume 1954.225046
_symmetry_space_group_name_H-M "P 4/M"
_symmetry_group_IT_number 83
_symmetry_cell_setting 'tetragonal'
loop_
_space_group_symop_operation_xyz
x,y,z
-y,x,z
-x,-y,z
y,-x,z
-x,-y,-z
y,-x,-z
x,y,-z
-y,x,-z
loop_
_atom_site_type_symbol
_atom_site_label
_atom_site_fract_x
_atom_site_fract_y
_atom_site_fract_z
Si Si1 0.948574 0.411606 0.323175
Si Si2 0.299651 0.906336 0.172375
Si Si3 0.076890 0.123938 0.673149
Si Si4 0.259020 0.577169 0.678568
Si Si5 0.610004 0.280236 0.175876
O O1 0.953806 0.406862 0.500000
O O2 0.844857 0.410231 0.269556
O O3 0.000000 0.500000 0.260960
O O4 0.002354 0.326266 0.258923
O O5 0.200844 0.875489 0.228450
O O6 0.368534 0.824923 0.204977
O O7 0.295668 0.930643 0.000000
O O8 0.091742 0.146903 0.500000
O O9 0.970931 0.122081 0.713154
O O10 0.267449 0.570583 0.500000
O O11 0.315044 0.661226 0.739876
O O12 0.300601 0.487147 0.752240
O O13 0.609780 0.303939 0.000000
#
# Coordination Sequence:
#
# PCOD8302840 Si02
#       5
#     8   8   8   8   8
#     4  10  21  40  65  92 122 157 201 252 304 355
#     4  11  24  38  59  91 126 163 203 250 308 376
#     4   9  20  39  60  83 116 161 210 256 304 359
#     4  11  24  43  69  97 124 163 214 263 308 370
#     4  11  25  44  64  92 131 167 205 258 322 381
#
# _framework density 20.468471000000001
#
# number of rings (size 3 to 8) (size 9 to 14) (size 15 to 20)
#    0.000    1.600    2.000    2.400    2.800    5.600 
#    0.000    3.000    0.000    0.000    0.000    0.000 
#    0.000    0.000    0.000    0.000    0.000    0.000 
#
# Total GULP energy -496157.974716 kJ/mol
# GULP energy per Si atom -12403.949368 kJ/mol
# Density = 2.042188 g / cm^3
# Si number density = 20.468471 Si / 1000 Ang^3
#
#
#
# Elastic Constant Matrix: (Units=GPa)
#
#
# Indices 1 2 3 4 5 6 
#
# 1 86.9800 26.4627 39.2962 0.0000 0.0000 -6.6445
# 2 26.4627 86.9800 39.2962 0.0000 0.0000 6.6445
# 3 39.2962 39.2962 51.7311 0.0000 0.0000 0.0000
# 4 0.0000 0.0000 0.0000 28.4822 0.0000 0.0000
# 5 0.0000 0.0000 0.0000 0.0000 28.4822 0.0000
# 6 -6.6445 6.6445 0.0000 0.0000 0.0000 35.1981
#
#
#
# Elastic Compliance Matrix: (Units=1/GPa)
#
#
# Indices 1 2 3 4 5 6 
#
# 1 0.017923 0.000684 -0.014135 0.000000 0.000000 0.003254
# 2 0.000684 0.017923 -0.014135 0.000000 0.000000 -0.003254
# 3 -0.014135 -0.014135 0.040805 0.000000 0.000000 0.000000
# 4 0.000000 0.000000 0.000000 0.035110 0.000000 0.000000
# 5 0.000000 0.000000 0.000000 0.000000 0.035110 0.000000
# 6 0.003254 -0.003254 0.000000 0.000000 0.000000 0.029639
#
#
# Mechanical properties :
#
#
# Convention : Reuss Voigt Hill
#
# Bulk Modulus (GPa) = 46.55274 48.42240 47.48757
# Shear Modulus (GPa) = 20.93451 26.47490 23.70471
#
# Velocity S-wave (km/s) = 3.20155 3.60036 3.40679
# Velocity P-wave (km/s) = 6.03817 6.40249 6.22300
#
# Compressibility (1/GPa) = 0.02148101
#
# Stress axis : x y z
#
# Youngs Moduli (GPa) = 55.79383 55.79383 24.50688
#
# Poissons Ratio (x) = -0.03818 0.34640
# Poissons Ratio (y) = -0.03818 0.34640
# Poissons Ratio (z) = 0.78863 0.78863
#
# Static dielectric constant tensor:
#      x y z
#    x 3.701010 0.000000 0.000000 
#    y 0.000000 3.701010 0.000000 
#    z 0.000000 0.000000 3.595450 
# 
# 
# High freq. dielectric constant tensor:
#      x y z
#    x 1.804550 0.000000 0.000000 
#    y 0.000000 1.804550 0.000000 
#    z 0.000000 0.000000 1.797780 
# 
# From -- ./inp_files/659.got.cif
#   From: 2010.03.12/outbox.cif.g09.slc.cpg/sg83_1_cif.got.tgz:659.got - 2010.04.08 20:05:18.
