data_PCOD8302579
_publ_section_title
;
Structure prediction by ZEFSAII (Michael W. Deem and Ramdas Pophale) SiO2 
 PCOD8302579
Probable space group: I -4 
;
_chemical_formula_sum "Si O2"
_cell_formula_units_Z 40
_cell_length_a 19.202260
_cell_length_b 19.202260
_cell_length_c 4.991493
_cell_angle_alpha 90.000000
_cell_angle_beta 90.000000
_cell_angle_gamma 90.000000
_cell_volume 1840.497187
_symmetry_space_group_name_H-M "I -4 "
_symmetry_group_IT_number 82
_symmetry_cell_setting 'tetragonal'
loop_
_space_group_symop_operation_xyz
x,y,z
y,-x,-z
-x,-y,z
-y,x,-z
1/2+x,1/2+y,1/2+z
1/2+y,1/2-x,1/2-z
1/2-x,1/2-y,1/2+z
1/2-y,1/2+x,1/2-z
loop_
_atom_site_type_symbol
_atom_site_label
_atom_site_fract_x
_atom_site_fract_y
_atom_site_fract_z
Si Si1 0.739836 0.703831 0.515017
Si Si2 0.892212 0.033943 0.453383
Si Si3 0.946793 0.657698 0.042473
Si Si4 0.393701 0.868903 0.453610
Si Si5 0.418460 0.315066 0.554235
O O1 0.756630 0.767613 0.713081
O O2 0.792955 0.640666 0.554712
O O3 0.664038 0.672992 0.571189
O O4 0.828474 0.048114 0.655027
O O5 0.954217 0.085236 0.535398
O O6 0.869484 0.048605 0.151507
O O7 0.918043 0.647044 0.340332
O O8 0.936451 0.737561 0.958300
O O9 0.026897 0.636917 0.040920
O O10 0.903407 0.609773 0.838670
#
# Coordination Sequence:
#
# PCOD8302579 Si02
#       5
#     8   8   8   8   8
#     4  12  23  45  69  98 136 172 221 281 346 385
#     4  11  26  44  65  99 142 182 223 272 343 414
#     4  12  27  46  70 102 138 177 239 278 348 405
#     4  12  26  47  70 104 136 183 225 291 339 415
#     4  12  24  45  70 101 134 180 231 284 333 414
#
# _framework density 21.733257999999999
#
# number of rings (size 3 to 8) (size 9 to 14) (size 15 to 20)
#    0.000    0.200    4.000    4.800    5.600    4.000 
#    0.000    0.000    0.000    0.000    0.000    0.000 
#    0.000    0.000    0.000    0.000    0.000    0.000 
#
# Total GULP energy -248230.895459 kJ/mol
# GULP energy per Si atom -12411.544773 kJ/mol
# Density = 2.168379 g / cm^3
# Si number density = 21.733258 Si / 1000 Ang^3
#
#
#
# Elastic Constant Matrix: (Units=GPa)
#
#
# Indices 1 2 3 4 5 6 
#
# 1 92.3203 22.7782 8.7889 0.0000 0.0000 -6.1533
# 2 22.7782 92.3203 8.7889 0.0000 0.0000 6.1533
# 3 8.7889 8.7889 84.8685 0.0000 0.0000 0.0000
# 4 0.0000 0.0000 0.0000 34.3729 0.0000 0.0000
# 5 0.0000 0.0000 0.0000 0.0000 34.3729 0.0000
# 6 -6.1533 6.1533 0.0000 0.0000 0.0000 27.5964
#
#
#
# Elastic Compliance Matrix: (Units=1/GPa)
#
#
# Indices 1 2 3 4 5 6 
#
# 1 0.011899 -0.003071 -0.000914 0.000000 0.000000 0.003338
# 2 -0.003071 0.011899 -0.000914 0.000000 0.000000 -0.003338
# 3 -0.000914 -0.000914 0.011972 0.000000 0.000000 0.000000
# 4 0.000000 0.000000 0.000000 0.029093 0.000000 0.000000
# 5 0.000000 0.000000 0.000000 0.000000 0.029093 0.000000
# 6 0.003338 -0.003338 0.000000 0.000000 0.000000 0.037725
#
#
# Mechanical properties :
#
#
# Convention : Reuss Voigt Hill
#
# Bulk Modulus (GPa) = 38.50428 38.91344 38.70886
# Shear Modulus (GPa) = 33.30273 34.54530 33.92402
#
# Velocity S-wave (km/s) = 3.91876 3.99120 3.95514
# Velocity P-wave (km/s) = 6.18310 6.25967 6.22150
#
# Compressibility (1/GPa) = 0.02597114
#
# Stress axis : x y z
#
# Youngs Moduli (GPa) = 84.03950 84.03950 83.52627
#
# Poissons Ratio (x) = 0.25811 0.07636
# Poissons Ratio (y) = 0.25811 0.07636
# Poissons Ratio (z) = 0.07683 0.07683
#
# Static dielectric constant tensor:
#      x y z
#    x 3.912830 0.000000 0.000000 
#    y 0.000000 3.912830 0.000000 
#    z 0.000000 0.000000 3.956450 
# 
# 
# High freq. dielectric constant tensor:
#      x y z
#    x 1.861050 0.000000 0.000000 
#    y 0.000000 1.861050 0.000000 
#    z 0.000000 0.000000 1.868680 
# 
# From -- ./inp_files/201.got.cif
#   From: 2010.03.12/outbox.cif.g09.slc.cpg/sg82_1_cif.got.tgz:201.got - 2010.04.08 20:02:50.
