data_PCOD8302757
_publ_section_title
;
Structure prediction by ZEFSAII (Michael W. Deem and Ramdas Pophale) SiO2 
 PCOD8302757
Probable space group: P 4/M
;
_chemical_formula_sum "Si O2"
_cell_formula_units_Z 56
_cell_length_a 18.436840
_cell_length_b 18.436840
_cell_length_c 9.231091
_cell_angle_alpha 90.000000
_cell_angle_beta 90.000000
_cell_angle_gamma 90.000000
_cell_volume 3137.805398
_symmetry_space_group_name_H-M "P 4/M"
_symmetry_group_IT_number 83
_symmetry_cell_setting 'tetragonal'
loop_
_space_group_symop_operation_xyz
x,y,z
-y,x,z
-x,-y,z
y,-x,z
-x,-y,-z
y,-x,-z
x,y,-z
-y,x,-z
loop_
_atom_site_type_symbol
_atom_site_label
_atom_site_fract_x
_atom_site_fract_y
_atom_site_fract_z
Si Si1 0.405575 0.567846 0.670506
Si Si2 0.970357 0.286295 0.337038
Si Si3 0.370220 0.831846 0.833248
Si Si4 0.242320 0.166144 0.170762
Si Si5 0.684959 0.319254 0.835366
Si Si6 0.562762 0.051990 0.665800
Si Si7 0.771166 0.118692 0.331178
O O1 0.400348 0.483773 0.718576
O O2 0.396647 0.574611 0.500000
O O3 0.340104 0.612249 0.742176
O O4 0.938899 0.279112 0.500000
O O5 0.906402 0.282560 0.220783
O O6 0.008887 0.362917 0.316507
O O7 0.031318 0.223433 0.310304
O O8 0.375647 0.744607 0.821312
O O9 0.438550 0.874592 0.763868
O O10 0.303004 0.855208 0.737639
O O11 0.359170 0.855198 0.000000
O O12 0.290070 0.236243 0.216794
O O13 0.163306 0.165786 0.249187
O O14 0.229448 0.165565 0.000000
O O15 0.691135 0.345840 0.000000
O O16 0.548545 0.075029 0.500000
O O17 0.500000 0.000000 0.724660
O O18 0.771922 0.138965 0.500000
#
# Coordination Sequence:
#
# PCOD8302757 Si02
#       7
#     8   8   8   8   8   8   8
#     4   9  19  36  55  74  95 122 163 211 256 304
#     4   9  18  32  51  75 101 132 169 207 251 299
#     4   9  17  30  48  71  98 128 166 205 245 297
#     4  10  20  33  51  77 107 135 168 210 251 298
#     4   9  19  34  50  73 102 130 164 204 247 301
#     4   9  18  33  50  70 100 136 174 211 247 299
#     4   9  17  31  52  74  98 131 170 208 246 293
#
# _framework density 17.846868000000001
#
# number of rings (size 3 to 8) (size 9 to 14) (size 15 to 20)
#    0.000    2.857    0.000    3.429    0.000    7.143 
#    2.571    0.714    0.000    0.429    0.000    3.000 
#    0.000    0.000    0.000    0.000    0.000    0.000 
#
# Total GULP energy -693988.628193 kJ/mol
# GULP energy per Si atom -12392.654075 kJ/mol
# Density = 1.780625 g / cm^3
# Si number density = 17.846868 Si / 1000 Ang^3
#
#
#
# Elastic Constant Matrix: (Units=GPa)
#
#
# Indices 1 2 3 4 5 6 
#
# 1 51.3602 16.5773 30.2474 0.0000 0.0000 4.6855
# 2 16.5773 51.3602 30.2474 0.0000 0.0000 -4.6855
# 3 30.2474 30.2474 81.6058 0.0000 0.0000 0.0000
# 4 0.0000 0.0000 0.0000 26.8780 0.0000 0.0000
# 5 0.0000 0.0000 0.0000 0.0000 26.8780 0.0000
# 6 4.6855 -4.6855 0.0000 0.0000 0.0000 16.6050
#
#
#
# Elastic Compliance Matrix: (Units=1/GPa)
#
#
# Indices 1 2 3 4 5 6 
#
# 1 0.026543 -0.004572 -0.008144 0.000000 0.000000 -0.008780
# 2 -0.004572 0.026543 -0.008144 0.000000 0.000000 0.008780
# 3 -0.008144 -0.008144 0.018291 0.000000 0.000000 0.000000
# 4 0.000000 0.000000 0.000000 0.037205 0.000000 0.000000
# 5 0.000000 0.000000 0.000000 0.000000 0.037205 0.000000
# 6 -0.008780 0.008780 0.000000 0.000000 0.000000 0.065178
#
#
# Mechanical properties :
#
#
# Convention : Reuss Voigt Hill
#
# Bulk Modulus (GPa) = 33.71732 37.60784 35.66258
# Shear Modulus (GPa) = 19.04258 21.22247 20.13253
#
# Velocity S-wave (km/s) = 3.27004 3.45214 3.36232
# Velocity P-wave (km/s) = 5.76117 6.08341 5.92448
#
# Compressibility (1/GPa) = 0.02965835
#
# Stress axis : x y z
#
# Youngs Moduli (GPa) = 37.67475 37.67475 54.67197
#
# Poissons Ratio (x) = 0.17225 0.44522
# Poissons Ratio (y) = 0.17225 0.44522
# Poissons Ratio (z) = 0.30681 0.30681
#
# Static dielectric constant tensor:
#      x y z
#    x 3.463130 0.000000 0.000000 
#    y 0.000000 3.463130 0.000000 
#    z 0.000000 0.000000 3.375630 
# 
# 
# High freq. dielectric constant tensor:
#      x y z
#    x 1.673540 0.000000 0.000000 
#    y 0.000000 1.673540 0.000000 
#    z 0.000000 0.000000 1.695840 
# 
# From -- ./inp_files/1199.got.cif
#   From: 2010.03.12/outbox.cif.g09.slc.cpg/sg83_1_cif.got.tgz:1199.got - 2010.04.08 20:05:18.
