data_PCOD8302095
_publ_section_title
;
Structure prediction by ZEFSAII (Michael W. Deem and Ramdas Pophale) SiO2 
 PCOD8302095
Probable space group: I 4
;
_chemical_formula_sum "Si O2"
_cell_formula_units_Z 40
_cell_length_a 19.009676
_cell_length_b 19.009676
_cell_length_c 5.086243
_cell_angle_alpha 90.000000
_cell_angle_beta 90.000000
_cell_angle_gamma 90.000000
_cell_volume 1838.004350
_symmetry_space_group_name_H-M "I 4"
_symmetry_group_IT_number 79
_symmetry_cell_setting 'tetragonal'
loop_
_space_group_symop_operation_xyz
x,y,z
-y,x,z
-x,-y,z
y,-x,z
1/2+x,1/2+y,1/2+z
1/2-y,1/2+x,1/2+z
1/2-x,1/2-y,1/2+z
1/2+y,1/2-x,1/2+z
loop_
_atom_site_type_symbol
_atom_site_label
_atom_site_fract_x
_atom_site_fract_y
_atom_site_fract_z
Si Si1 0.945539 0.102650 0.929840
Si Si2 0.064850 0.744659 0.110729
Si Si3 0.837824 0.133227 0.538299
Si Si4 0.741056 0.408717 0.541854
Si Si5 0.212339 0.353548 0.102428
O O1 0.920677 0.124451 0.630642
O O2 0.028412 0.093868 0.977104
O O3 0.922662 0.169436 0.115158
O O4 0.086087 0.708343 0.382534
O O5 0.984429 0.723561 0.068483
O O6 0.112128 0.709317 0.887852
O O7 0.822162 0.100405 0.253805
O O8 0.812931 0.214354 0.549316
O O9 0.791428 0.092607 0.753118
O O10 0.799845 0.350897 0.583976
#
# Coordination Sequence:
#
# PCOD8302095 Si02
#       5
#     8   8   8   8   8
#     4  10  21  40  61  94 138 178 210 251 308 388
#     4  11  24  42  63  96 127 170 217 259 322 390
#     4  11  22  39  63  95 124 170 219 256 315 376
#     4  12  23  42  67  91 127 168 214 275 321 371
#     4  11  24  41  65  94 127 164 217 273 321 372
#
# _framework density 21.762732
#
# number of rings (size 3 to 8) (size 9 to 14) (size 15 to 20)
#    0.000    1.000    2.000    6.000    2.800    0.000 
#    0.000    0.000    0.000    3.600    0.000    0.000 
#    0.000    0.000    0.000    0.000    0.000    0.000 
#
# Total GULP energy -247890.245627 kJ/mol
# GULP energy per Si atom -12394.512281 kJ/mol
# Density = 2.171320 g / cm^3
# Si number density = 21.762732 Si / 1000 Ang^3
#
#
#
# Elastic Constant Matrix: (Units=GPa)
#
#
# Indices 1 2 3 4 5 6 
#
# 1 86.5869 45.2848 17.1032 0.0000 0.0000 5.3130
# 2 45.2848 86.5869 17.1032 0.0000 0.0000 -5.3130
# 3 17.1032 17.1032 47.8889 0.0000 0.0000 0.0000
# 4 0.0000 0.0000 0.0000 22.3737 0.0000 0.0000
# 5 0.0000 0.0000 0.0000 0.0000 22.3737 0.0000
# 6 5.3130 -5.3130 0.0000 0.0000 0.0000 41.7044
#
#
#
# Elastic Compliance Matrix: (Units=1/GPa)
#
#
# Indices 1 2 3 4 5 6 
#
# 1 0.016695 -0.008337 -0.002985 0.000000 0.000000 -0.003189
# 2 -0.008337 0.016695 -0.002985 0.000000 0.000000 0.003189
# 3 -0.002985 -0.002985 0.023014 0.000000 0.000000 0.000000
# 4 0.000000 0.000000 0.000000 0.044695 0.000000 0.000000
# 5 0.000000 0.000000 0.000000 0.000000 0.044695 0.000000
# 6 -0.003189 0.003189 0.000000 0.000000 0.000000 0.024791
#
#
# Mechanical properties :
#
#
# Convention : Reuss Voigt Hill
#
# Bulk Modulus (GPa) = 35.98511 42.22723 39.10617
# Shear Modulus (GPa) = 23.98520 26.72846 25.35683
#
# Velocity S-wave (km/s) = 3.32342 3.50834 3.41713
# Velocity P-wave (km/s) = 5.59446 5.98806 5.79460
#
# Compressibility (1/GPa) = 0.02778927
#
# Stress axis : x y z
#
# Youngs Moduli (GPa) = 59.89879 59.89879 43.45248
#
# Poissons Ratio (x) = 0.49940 0.12970
# Poissons Ratio (y) = 0.49940 0.12970
# Poissons Ratio (z) = 0.17878 0.17878
#
# Static dielectric constant tensor:
#      x y z
#    x 3.882760 0.000000 0.000000 
#    y 0.000000 3.882760 0.000000 
#    z 0.000000 0.000000 4.087940 
# 
# 
# High freq. dielectric constant tensor:
#      x y z
#    x 1.843670 0.000000 0.000000 
#    y 0.000000 1.843670 0.000000 
#    z 0.000000 0.000000 1.870960 
# 
# From -- ./inp_files/144.got.cif
#   From: 2010.03.12/outbox.cif.g09.slc.cpg/sg79_cif.got.tgz:144.got - 2010.04.16 16:38:49.
