data_PCOD8302273
_publ_section_title
;
Structure prediction by ZEFSAII (Michael W. Deem and Ramdas Pophale) SiO2 
 PCOD8302273
Probable space group: P -4
;
_chemical_formula_sum "Si O2"
_cell_formula_units_Z 17
_cell_length_a 11.555841
_cell_length_b 11.555841
_cell_length_c 5.247629
_cell_angle_alpha 90.000000
_cell_angle_beta 90.000000
_cell_angle_gamma 90.000000
_cell_volume 700.755054
_symmetry_space_group_name_H-M "P -4"
_symmetry_group_IT_number 81
_symmetry_cell_setting 'tetragonal'
loop_
_space_group_symop_operation_xyz
x,y,z
y,-x,-z
-x,-y,z
-y,x,-z
loop_
_atom_site_type_symbol
_atom_site_label
_atom_site_fract_x
_atom_site_fract_y
_atom_site_fract_z
Si Si1 0.056876 0.772619 0.200845
Si Si2 0.814586 0.829766 0.299939
Si Si3 0.500000 0.500000 0.500000
Si Si4 0.473454 0.134255 0.801159
Si Si5 0.256131 0.552752 0.698919
O O1 0.104422 0.846907 0.438670
O O2 0.141377 0.663949 0.205363
O O3 0.920454 0.739449 0.246048
O O4 0.074265 0.829542 0.923920
O O5 0.690777 0.766458 0.298010
O O6 0.392607 0.529470 0.683777
O O7 0.513842 0.192910 0.536747
O O8 0.500000 0.000000 0.829204
O O9 0.512531 0.207522 0.049307
#
# Coordination Sequence:
#
# PCOD8302273 Si02
#       5
#     4   4   1   4   4
#     4  10  21  36  61  88 132 164 215 270 330 398
#     4  10  21  39  58  96 126 171 217 270 331 403
#     4  12  28  50  72 106 148 186 236 298 372 430
#     4  10  22  44  68  95 127 177 233 283 341 411
#     4  10  25  43  66 101 134 176 230 284 354 419
#
# _framework density 24.259544999999999
#
# number of rings (size 3 to 8) (size 9 to 14) (size 15 to 20)
#    0.000    1.882    0.000    2.118    3.294    5.647 
#    8.471    0.000    0.000    0.000    0.000    0.000 
#    0.000    0.000    0.000    0.000    0.000    0.000 
#
# Total GULP energy -210629.689441 kJ/mol
# GULP energy per Si atom -12389.981732 kJ/mol
# Density = 2.420433 g / cm^3
# Si number density = 24.259545 Si / 1000 Ang^3
#
#
#
# Elastic Constant Matrix: (Units=GPa)
#
#
# Indices 1 2 3 4 5 6 
#
# 1 88.4513 28.6037 52.5167 0.0000 0.0000 -5.0483
# 2 28.6037 88.4513 52.5167 0.0000 0.0000 5.0483
# 3 52.5167 52.5167 228.2010 0.0000 0.0000 0.0000
# 4 0.0000 0.0000 0.0000 24.9071 0.0000 0.0000
# 5 0.0000 0.0000 0.0000 0.0000 24.9071 0.0000
# 6 -5.0483 5.0483 0.0000 0.0000 0.0000 33.4080
#
#
#
# Elastic Compliance Matrix: (Units=1/GPa)
#
#
# Indices 1 2 3 4 5 6 
#
# 1 0.013956 -0.003190 -0.002478 0.000000 0.000000 0.002591
# 2 -0.003190 0.013956 -0.002478 0.000000 0.000000 -0.002591
# 3 -0.002478 -0.002478 0.005522 0.000000 0.000000 0.000000
# 4 0.000000 0.000000 0.000000 0.040149 0.000000 0.000000
# 5 0.000000 0.000000 0.000000 0.000000 0.040149 0.000000
# 6 0.002591 -0.002591 0.000000 0.000000 0.000000 0.030716
#
#
# Mechanical properties :
#
#
# Convention : Reuss Voigt Hill
#
# Bulk Modulus (GPa) = 58.32866 74.70864 66.51865
# Shear Modulus (GPa) = 30.03821 34.74221 32.39021
#
# Velocity S-wave (km/s) = 3.52263 3.78842 3.65794
# Velocity P-wave (km/s) = 6.37503 7.07097 6.73200
#
# Compressibility (1/GPa) = 0.01714423
#
# Stress axis : x y z
#
# Youngs Moduli (GPa) = 71.65268 71.65268 181.07780
#
# Poissons Ratio (x) = 0.22857 0.44865
# Poissons Ratio (y) = 0.22857 0.44865
# Poissons Ratio (z) = 0.17753 0.17753
#
# Static dielectric constant tensor:
#      x y z
#    x 4.144710 0.000000 0.000000 
#    y 0.000000 4.144710 0.000000 
#    z 0.000000 0.000000 4.927790 
# 
# 
# High freq. dielectric constant tensor:
#      x y z
#    x 1.948740 0.000000 0.000000 
#    y 0.000000 1.948740 0.000000 
#    z 0.000000 0.000000 1.982940 
# 
# From -- ./inp_files/116.got.cif
#   From: 2010.03.12/outbox.cif.g09.slc.cpg/sg81_cif.got.tgz:116.got - 2010.04.08 20:01:38.
