data_PCOD8302938
_publ_section_title
;
Structure prediction by ZEFSAII (Michael W. Deem and Ramdas Pophale) SiO2 
 PCOD8302938
Probable space group: P 4/M
;
_chemical_formula_sum "Si O2"
_cell_formula_units_Z 48
_cell_length_a 8.557767
_cell_length_b 8.557767
_cell_length_c 31.299595
_cell_angle_alpha 90.000000
_cell_angle_beta 90.000000
_cell_angle_gamma 90.000000
_cell_volume 2292.237609
_symmetry_space_group_name_H-M "P 4/M"
_symmetry_group_IT_number 83
_symmetry_cell_setting 'tetragonal'
loop_
_space_group_symop_operation_xyz
x,y,z
-y,x,z
-x,-y,z
y,-x,z
-x,-y,-z
y,-x,-z
x,y,-z
-y,x,-z
loop_
_atom_site_type_symbol
_atom_site_label
_atom_site_fract_x
_atom_site_fract_y
_atom_site_fract_z
Si Si1 0.083917 0.756979 0.000000
Si Si2 0.395959 0.265437 0.500000
Si Si3 0.738203 0.395157 0.407666
Si Si4 0.754658 0.916928 0.091955
Si Si5 0.904288 0.240081 0.331776
Si Si6 0.739539 0.411221 0.838394
Si Si7 0.597766 0.736939 0.741585
O O1 0.113804 0.669411 0.045404
O O2 0.905737 0.806391 0.000000
O O3 0.577579 0.298890 0.500000
O O4 0.359393 0.181669 0.454541
O O5 0.701764 0.578235 0.402057
O O6 0.864513 0.343938 0.372979
O O7 0.632850 0.877768 0.129232
O O8 0.904535 0.805414 0.096520
O O9 0.872266 0.341781 0.289460
O O10 0.085737 0.200907 0.332177
O O11 0.696970 0.589991 0.846726
O O12 0.797708 0.383258 0.790038
O O13 0.417380 0.699583 0.732663
#
# Coordination Sequence:
#
# PCOD8302938 Si02
#       7
#     4   4   8   8   8   8   8
#     4   7  12  26  46  67  94 128 164 201 238 277
#     4   7  12  26  50  79 104 124 156 205 248 281
#     4   9  17  32  56  81 102 128 165 206 246 289
#     4   9  17  30  50  74  98 127 165 205 242 283
#     4  11  24  37  48  70 105 137 164 199 244 292
#     4   9  19  35  52  72 100 129 157 195 245 298
#     4   9  19  37  58  75  92 122 165 206 244 291
#
# _framework density 20.940238999999998
#
# number of rings (size 3 to 8) (size 9 to 14) (size 15 to 20)
#    0.000    3.000    0.000    4.000    0.000    6.000 
#    0.000    6.667    0.000    8.000    0.000    0.000 
#    0.000    0.000    0.000    0.000    0.000    0.000 
#
# Total GULP energy -594752.619378 kJ/mol
# GULP energy per Si atom -12390.679570 kJ/mol
# Density = 2.089258 g / cm^3
# Si number density = 20.940239 Si / 1000 Ang^3
#
#
#
# Elastic Constant Matrix: (Units=GPa)
#
#
# Indices 1 2 3 4 5 6 
#
# 1 15.0365 -6.2471 10.3669 0.0000 0.0000 -2.2867
# 2 -6.2471 15.0365 10.3669 0.0000 0.0000 2.2867
# 3 10.3669 10.3669 142.8876 0.0000 0.0000 0.0000
# 4 0.0000 0.0000 0.0000 -8.8946 0.0000 0.0000
# 5 0.0000 0.0000 0.0000 0.0000 -8.8946 0.0000
# 6 -2.2867 2.2867 0.0000 0.0000 0.0000 29.7252
#
#
#
# Elastic Compliance Matrix: (Units=1/GPa)
#
#
# Indices 1 2 3 4 5 6 
#
# 1 0.092520 0.044746 -0.009959 0.000000 0.000000 0.003675
# 2 0.044746 0.092520 -0.009959 0.000000 0.000000 -0.003675
# 3 -0.009959 -0.009959 0.008444 0.000000 0.000000 0.000000
# 4 0.000000 0.000000 0.000000 -0.112428 0.000000 0.000000
# 5 0.000000 0.000000 0.000000 0.000000 -0.112428 0.000000
# 6 0.003675 -0.003675 0.000000 0.000000 0.000000 0.034207
#
#
# Mechanical properties :
#
#
# Convention : Reuss Voigt Hill
#
# Bulk Modulus (GPa) = 4.11286 22.43710 13.27498
# Shear Modulus (GPa) = 146.08520 12.95213 79.51867
#
# Velocity S-wave (km/s) = 8.36148 2.48972 6.16900
# Velocity P-wave (km/s) = 9.75641 4.35925 7.55614
#
# Compressibility (1/GPa) = 0.24313994
#
# Stress axis : x y z
#
# Youngs Moduli (GPa) = 10.80845 10.80845 118.43270
#
# Poissons Ratio (x) = -0.48363 1.17947
# Poissons Ratio (y) = -0.48363 1.17947
# Poissons Ratio (z) = 0.10764 0.10764
#
# Static dielectric constant tensor:
#      x y z
#    x 3.412890 0.000000 0.000000 
#    y 0.000000 3.412890 0.000000 
#    z 0.000000 0.000000 4.247450 
# 
# 
# High freq. dielectric constant tensor:
#      x y z
#    x 1.792000 0.000000 0.000000 
#    y 0.000000 1.792000 0.000000 
#    z 0.000000 0.000000 1.843620 
# 
# From -- ./inp_files/3481.got.cif
#   From: 2010.03.12/outbox.cif.g09.slc.cpg/sg83_2_cif.got.tgz:3481.got - 2010.04.08 20:05:18.
