data_PCOD8302212
_publ_section_title
;
Structure prediction by ZEFSAII (Michael W. Deem and Ramdas Pophale) SiO2 
 PCOD8302212
Probable space group: I 41
;
_chemical_formula_sum "Si O2"
_cell_formula_units_Z 36
_cell_length_a 10.892032
_cell_length_b 10.892032
_cell_length_c 14.799388
_cell_angle_alpha 90.000000
_cell_angle_beta 90.000000
_cell_angle_gamma 90.000000
_cell_volume 1755.745539
_symmetry_space_group_name_H-M "I 41"
_symmetry_group_IT_number 80
_symmetry_cell_setting 'tetragonal'
loop_
_space_group_symop_operation_xyz
x,y,z
-y,1/2+x,1/4+z
-x,-y,z
y,1/2-x,1/4+z
1/2+x,1/2+y,1/2+z
1/2-y,x,3/4+z
1/2-x,1/2-y,1/2+z
1/2+y,-x,3/4+z
loop_
_atom_site_type_symbol
_atom_site_label
_atom_site_fract_x
_atom_site_fract_y
_atom_site_fract_z
Si Si1 0.433608 0.879338 0.621890
Si Si2 0.000000 0.000000 0.524684
Si Si3 0.113009 0.657187 0.918192
Si Si4 0.620662 0.066392 0.927478
Si Si5 0.386991 0.657187 0.881176
O O1 0.428975 0.891836 0.514399
O O2 0.302643 0.879319 0.670155
O O3 0.499427 0.750000 0.649684
O O4 0.500000 0.000000 0.660855
O O5 0.116451 0.987621 0.592382
O O6 0.012379 0.883549 0.456986
O O7 0.250000 0.602936 0.899684
O O8 0.620681 0.197357 0.879213
O O9 0.500000 0.000000 0.888513
O O10 0.608164 0.071025 0.034968
#
# Coordination Sequence:
#
# PCOD8302212 Si02
#       5
#     8   4   8   8   8
#     4  11  23  40  64  92 128 170 210 257 321 387
#     4  12  20  36  68  92 112 160 222 252 308 368
#     4  11  21  39  64  89 122 167 211 259 318 380
#     4  11  23  40  64  92 128 170 210 257 321 387
#     4  11  21  39  64  89 122 167 211 259 318 380
#
# _framework density 20.504109
#
# number of rings (size 3 to 8) (size 9 to 14) (size 15 to 20)
#    0.000    0.889    6.667    4.000    0.000    3.556 
#    0.000    6.667    0.000    0.000    0.000    0.000 
#    0.000    0.000    0.000    0.000    0.000    0.000 
#
# Total GULP energy -223038.856773 kJ/mol
# GULP energy per Si atom -12391.047598 kJ/mol
# Density = 2.045744 g / cm^3
# Si number density = 20.504109 Si / 1000 Ang^3
#
#
#
# Elastic Constant Matrix: (Units=GPa)
#
#
# Indices 1 2 3 4 5 6 
#
# 1 97.4270 57.8569 14.5361 0.0000 0.0000 0.0000
# 2 57.8569 97.4269 14.5361 0.0000 0.0000 0.0000
# 3 14.5361 14.5361 55.4814 0.0000 0.0000 0.0000
# 4 0.0000 0.0000 0.0000 30.2552 0.0000 0.0000
# 5 0.0000 0.0000 0.0000 0.0000 30.2552 0.0000
# 6 0.0000 0.0000 0.0000 0.0000 0.0000 25.0729
#
#
#
# Elastic Compliance Matrix: (Units=1/GPa)
#
#
# Indices 1 2 3 4 5 6 
#
# 1 0.016022 -0.009250 -0.001774 0.000000 0.000000 0.000000
# 2 -0.009250 0.016022 -0.001774 0.000000 0.000000 0.000000
# 3 -0.001774 -0.001774 0.018954 0.000000 0.000000 0.000000
# 4 0.000000 0.000000 0.000000 0.033052 0.000000 0.000000
# 5 0.000000 0.000000 0.000000 0.000000 0.033052 0.000000
# 6 0.000000 0.000000 0.000000 0.000000 0.000000 0.039884
#
#
# Mechanical properties :
#
#
# Convention : Reuss Voigt Hill
#
# Bulk Modulus (GPa) = 39.36894 47.13260 43.25077
# Shear Modulus (GPa) = 26.17127 28.01039 27.09083
#
# Velocity S-wave (km/s) = 3.57654 3.70007 3.63883
# Velocity P-wave (km/s) = 6.02476 6.42579 6.22850
#
# Compressibility (1/GPa) = 0.02540073
#
# Stress axis : x y z
#
# Youngs Moduli (GPa) = 62.41487 62.41487 52.75996
#
# Poissons Ratio (x) = 0.57733 0.09361
# Poissons Ratio (y) = 0.57733 0.09361
# Poissons Ratio (z) = 0.11074 0.11074
#
# Static dielectric constant tensor:
#      x y z
#    x 3.793010 0.000000 0.000000 
#    y 0.000000 3.793010 0.000000 
#    z 0.000000 0.000000 3.798680 
# 
# 
# High freq. dielectric constant tensor:
#      x y z
#    x 1.779560 0.000000 0.000000 
#    y 0.000000 1.779560 0.000000 
#    z 0.000000 0.000000 1.827220 
# 
# From -- ./inp_files/1212.got.cif
#   From: 2010.03.12/outbox.cif.g09.slc.cpg/sg80_cif.got.tgz:1212.got - 2010.04.08 20:00:04.
