data_PCOD8302676
_publ_section_title
;
Structure prediction by ZEFSAII (Michael W. Deem and Ramdas Pophale) SiO2 
 PCOD8302676
Probable space group: P 4/M
;
_chemical_formula_sum "Si O2"
_cell_formula_units_Z 48
_cell_length_a 15.371531
_cell_length_b 15.371531
_cell_length_c 13.304067
_cell_angle_alpha 90.000000
_cell_angle_beta 90.000000
_cell_angle_gamma 90.000000
_cell_volume 3143.537705
_symmetry_space_group_name_H-M "P 4/M"
_symmetry_group_IT_number 83
_symmetry_cell_setting 'tetragonal'
loop_
_space_group_symop_operation_xyz
x,y,z
-y,x,z
-x,-y,z
y,-x,z
-x,-y,-z
y,-x,-z
x,y,-z
-y,x,-z
loop_
_atom_site_type_symbol
_atom_site_label
_atom_site_fract_x
_atom_site_fract_y
_atom_site_fract_z
Si Si1 0.672561 0.699514 0.880549
Si Si2 0.747323 0.517909 0.118419
Si Si3 0.817164 0.832561 0.803090
Si Si4 0.067322 0.430322 0.119936
Si Si5 0.243517 0.986168 0.116131
Si Si6 0.098075 0.104253 0.614255
O O1 0.683784 0.597567 0.853893
O O2 0.575910 0.719057 0.838643
O O3 0.743520 0.760113 0.824906
O O4 0.683561 0.715944 0.000000
O O5 0.840131 0.542613 0.164952
O O6 0.753504 0.506992 0.000000
O O7 0.903606 0.819245 0.869926
O O8 0.844929 0.832615 0.685764
O O9 0.784770 0.928707 0.825802
O O10 0.041132 0.336595 0.161529
O O11 0.000000 0.500000 0.161682
O O12 0.070616 0.428319 0.000000
O O13 0.249772 0.011114 0.000000
O O14 0.121383 0.128911 0.500000
O O15 0.996368 0.120542 0.635474
#
# Coordination Sequence:
#
# PCOD8302676 Si02
#       6
#     8   8   8   8   8   8
#     4  10  19  31  46  67  98 128 163 201 234 279
#     4   9  17  29  44  62  90 130 165 199 232 266
#     4  12  20  31  46  68  94 126 161 193 237 278
#     4   9  16  28  42  57  83 125 169 195 220 263
#     4  11  21  29  41  64  99 132 158 190 227 276
#     4   9  18  34  51  66  86 117 160 205 239 279
#
# _framework density 15.269420999999999
#
# number of rings (size 3 to 8) (size 9 to 14) (size 15 to 20)
#    0.000    2.000    3.333    3.000    0.000    3.333 
#    0.000    2.500    0.000    0.000    0.000    1.167 
#    0.000    5.333    0.000    1.500    0.000    0.167 
#
# Total GULP energy -594963.420921 kJ/mol
# GULP energy per Si atom -12395.071269 kJ/mol
# Density = 1.523467 g / cm^3
# Si number density = 15.269421 Si / 1000 Ang^3
#
#
#
# Elastic Constant Matrix: (Units=GPa)
#
#
# Indices 1 2 3 4 5 6 
#
# 1 99.3177 39.7031 21.3554 0.0000 0.0000 -1.0053
# 2 39.7031 99.3177 21.3554 0.0000 0.0000 1.0053
# 3 21.3554 21.3554 49.3548 0.0000 0.0000 0.0000
# 4 0.0000 0.0000 0.0000 10.6089 0.0000 0.0000
# 5 0.0000 0.0000 0.0000 0.0000 10.6089 0.0000
# 6 -1.0053 1.0053 0.0000 0.0000 0.0000 29.5992
#
#
#
# Elastic Compliance Matrix: (Units=1/GPa)
#
#
# Indices 1 2 3 4 5 6 
#
# 1 0.012545 -0.004249 -0.003590 0.000000 0.000000 0.000570
# 2 -0.004249 0.012545 -0.003590 0.000000 0.000000 -0.000570
# 3 -0.003590 -0.003590 0.023368 0.000000 0.000000 0.000000
# 4 0.000000 0.000000 0.000000 0.094260 0.000000 0.000000
# 5 0.000000 0.000000 0.000000 0.000000 0.094260 0.000000
# 6 0.000570 -0.000570 0.000000 0.000000 0.000000 0.033823
#
#
# Mechanical properties :
#
#
# Convention : Reuss Voigt Hill
#
# Bulk Modulus (GPa) = 39.06036 45.86867 42.46452
# Shear Modulus (GPa) = 16.54583 21.20184 18.87383
#
# Velocity S-wave (km/s) = 3.29537 3.73032 3.51957
# Velocity P-wave (km/s) = 6.33369 6.97557 6.66236
#
# Compressibility (1/GPa) = 0.02560140
#
# Stress axis : x y z
#
# Youngs Moduli (GPa) = 79.71417 79.71417 42.79388
#
# Poissons Ratio (x) = 0.33869 0.15361
# Poissons Ratio (y) = 0.33869 0.15361
# Poissons Ratio (z) = 0.28614 0.28614
#
# Static dielectric constant tensor:
#      x y z
#    x 3.081260 0.000000 0.000000 
#    y 0.000000 3.081260 0.000000 
#    z 0.000000 0.000000 2.500680 
# 
# 
# High freq. dielectric constant tensor:
#      x y z
#    x 1.594010 0.000000 0.000000 
#    y 0.000000 1.594010 0.000000 
#    z 0.000000 0.000000 1.520680 
# 
# From -- ./inp_files/1846.got.cif
#   From: 2010.03.12/outbox.cif.g09.slc.cpg/sg83_1_cif.got.tgz:1846.got - 2010.04.08 20:05:18.
