data_PCOD8302258
_publ_section_title
;
Structure prediction by ZEFSAII (Michael W. Deem and Ramdas Pophale) SiO2 
 PCOD8302258
Probable space group: P -4
;
_chemical_formula_sum "Si O2"
_cell_formula_units_Z 32
_cell_length_a 11.619335
_cell_length_b 11.619335
_cell_length_c 11.604652
_cell_angle_alpha 90.000000
_cell_angle_beta 90.000000
_cell_angle_gamma 90.000000
_cell_volume 1566.731833
_symmetry_space_group_name_H-M "P -4"
_symmetry_group_IT_number 81
_symmetry_cell_setting 'tetragonal'
loop_
_space_group_symop_operation_xyz
x,y,z
y,-x,-z
-x,-y,z
-y,x,-z
loop_
_atom_site_type_symbol
_atom_site_label
_atom_site_fract_x
_atom_site_fract_y
_atom_site_fract_z
Si Si1 0.886405 0.716192 0.078378
Si Si2 0.149226 0.719263 0.059002
Si Si3 0.827064 0.297722 0.519996
Si Si4 0.267057 0.646447 0.280971
Si Si5 0.228329 0.485399 0.673663
Si Si6 0.504109 0.129556 0.082111
Si Si7 0.088513 0.332229 0.509165
Si Si8 0.115922 0.442366 0.273738
O O1 0.854141 0.674536 0.206572
O O2 0.018866 0.750146 0.087516
O O3 0.809885 0.823993 0.042345
O O4 0.851263 0.623950 0.981330
O O5 0.230988 0.728004 0.172745
O O6 0.162116 0.591316 0.010982
O O7 0.817667 0.324758 0.385923
O O8 0.763106 0.397539 0.597481
O O9 0.768179 0.173225 0.537098
O O10 0.962934 0.286154 0.546240
O O11 0.401823 0.657787 0.319504
O O12 0.232398 0.515505 0.253633
O O13 0.205930 0.516811 0.805389
O O14 0.132347 0.399662 0.621784
O O15 0.500000 0.000000 0.126453
O O16 0.084905 0.424265 0.406793
O O17 0.000000 0.500000 0.216298
#
# Coordination Sequence:
#
# PCOD8302258 Si02
#       8
#     4   4   4   4   4   4   4   4
#     4  11  22  37  63  90 123 167 212 269 322 401
#     4  11  22  39  60  93 124 165 218 265 329 386
#     4  11  23  40  63  98 125 175 212 265 329 393
#     4  11  21  39  66  90 123 164 226 273 318 389
#     4  11  22  39  63  93 127 166 214 271 328 384
#     4  10  20  35  59  86 117 159 208 257 307 388
#     4  11  23  39  67  92 132 166 219 268 322 399
#     4  12  19  40  68  91 119 169 229 261 319 408
#
# _framework density 20.424681
#
# number of rings (size 3 to 8) (size 9 to 14) (size 15 to 20)
#    0.000    1.000    6.250    1.500    1.750    0.500 
#    0.000    0.625    0.000    4.875    0.000    0.000 
#    0.000    0.000    0.000    0.000    0.000    0.000 
#
# Total GULP energy -396549.569205 kJ/mol
# GULP energy per Si atom -12392.174038 kJ/mol
# Density = 2.037819 g / cm^3
# Si number density = 20.424681 Si / 1000 Ang^3
#
#
#
# Elastic Constant Matrix: (Units=GPa)
#
#
# Indices 1 2 3 4 5 6 
#
# 1 83.0839 52.9629 11.8485 0.0000 0.0000 0.0585
# 2 52.9629 83.0839 11.8485 0.0000 0.0000 -0.0585
# 3 11.8485 11.8485 77.2901 0.0000 0.0000 0.0000
# 4 0.0000 0.0000 0.0000 9.3882 0.0000 0.0000
# 5 0.0000 0.0000 0.0000 0.0000 9.3882 0.0000
# 6 0.0585 -0.0585 0.0000 0.0000 0.0000 33.9331
#
#
#
# Elastic Compliance Matrix: (Units=1/GPa)
#
#
# Indices 1 2 3 4 5 6 
#
# 1 0.020376 -0.012824 -0.001158 0.000000 0.000000 -0.000057
# 2 -0.012824 0.020376 -0.001158 0.000000 0.000000 0.000057
# 3 -0.001158 -0.001158 0.013293 0.000000 0.000000 0.000000
# 4 0.000000 0.000000 0.000000 0.106517 0.000000 0.000000
# 5 0.000000 0.000000 0.000000 0.000000 0.106517 0.000000
# 6 -0.000057 0.000057 0.000000 0.000000 0.000000 0.029470
#
#
# Mechanical properties :
#
#
# Convention : Reuss Voigt Hill
#
# Bulk Modulus (GPa) = 42.07610 44.08641 43.08125
# Shear Modulus (GPa) = 14.93652 21.66174 18.29913
#
# Velocity S-wave (km/s) = 2.70718 3.26017 2.99646
# Velocity P-wave (km/s) = 5.51517 5.98359 5.75415
#
# Compressibility (1/GPa) = 0.02376646
#
# Stress axis : x y z
#
# Youngs Moduli (GPa) = 49.07767 49.07767 75.22626
#
# Poissons Ratio (x) = 0.62936 0.08709
# Poissons Ratio (y) = 0.62936 0.08709
# Poissons Ratio (z) = 0.05682 0.05682
#
# Static dielectric constant tensor:
#      x y z
#    x 3.743810 0.000000 0.000000 
#    y 0.000000 3.743810 0.000000 
#    z 0.000000 0.000000 3.733970 
# 
# 
# High freq. dielectric constant tensor:
#      x y z
#    x 1.782250 0.000000 0.000000 
#    y 0.000000 1.782250 0.000000 
#    z 0.000000 0.000000 1.814790 
# 
# From -- ./inp_files/1440.got.cif
#   From: 2010.03.12/outbox.cif.g09.slc.cpg/sg81_cif.got.tgz:1440.got - 2010.04.08 20:01:38.
