data_PCOD8302500
_publ_section_title
;
Structure prediction by ZEFSAII (Michael W. Deem and Ramdas Pophale) SiO2 
 PCOD8302500
Probable space group: I -4 
;
_chemical_formula_sum "Si O2"
_cell_formula_units_Z 52
_cell_length_a 18.046485
_cell_length_b 18.046485
_cell_length_c 6.841015
_cell_angle_alpha 90.000000
_cell_angle_beta 90.000000
_cell_angle_gamma 90.000000
_cell_volume 2227.951807
_symmetry_space_group_name_H-M "I -4 "
_symmetry_group_IT_number 82
_symmetry_cell_setting 'tetragonal'
loop_
_space_group_symop_operation_xyz
x,y,z
y,-x,-z
-x,-y,z
-y,x,-z
1/2+x,1/2+y,1/2+z
1/2+y,1/2-x,1/2-z
1/2-x,1/2-y,1/2+z
1/2-y,1/2+x,1/2-z
loop_
_atom_site_type_symbol
_atom_site_label
_atom_site_fract_x
_atom_site_fract_y
_atom_site_fract_z
Si Si1 0.049005 0.328699 0.846211
Si Si2 0.096741 0.608648 0.017940
Si Si3 0.205030 0.856471 0.040715
Si Si4 0.321130 0.143562 0.595134
Si Si5 0.070340 0.113244 0.267568
Si Si6 0.413729 0.669991 0.869966
Si Si7 0.500000 0.000000 0.750000
Si Si8 0.500000 0.500000 0.500000
O O1 0.073114 0.342289 0.623535
O O2 0.065553 0.241823 0.887867
O O3 0.102564 0.380182 0.985039
O O4 0.963964 0.345706 0.893022
O O5 0.136868 0.663522 0.171602
O O6 0.061718 0.537707 0.118202
O O7 0.272286 0.801009 0.978035
O O8 0.160814 0.868429 0.841938
O O9 0.151870 0.826550 0.210019
O O10 0.252077 0.090648 0.533359
O O11 0.102035 0.095884 0.480945
O O12 0.059584 0.038499 0.141672
O O13 0.993617 0.158540 0.274450
#
# Coordination Sequence:
#
# PCOD8302500 Si02
#       8
#     8   8   8   8   8   8   2   2
#     4  10  25  41  67 101 140 194 242 294 364 439
#     4  12  22  43  66 100 145 189 249 298 367 437
#     4  10  26  47  69 108 141 192 236 303 366 448
#     4  10  27  45  70 107 149 188 243 309 369 447
#     4  12  26  48  77 109 150 188 254 308 379 450
#     4  12  27  46  80 108 147 199 243 309 384 452
#     4  12  20  38  68  92 134 192 228 310 344 428
#     4  12  24  54  72 116 146 192 252 334 376 456
#
# _framework density 23.339822999999999
#
# number of rings (size 3 to 8) (size 9 to 14) (size 15 to 20)
#    0.923    0.000    3.077    2.769    4.308    2.462 
#    0.000    0.000    0.000    0.000    0.000    0.000 
#    0.000    0.000    0.000    0.000    0.000    0.000 
#
# Total GULP energy -322272.031044 kJ/mol
# GULP energy per Si atom -12395.078117 kJ/mol
# Density = 2.328670 g / cm^3
# Si number density = 23.339823 Si / 1000 Ang^3
#
#
#
# Elastic Constant Matrix: (Units=GPa)
#
#
# Indices 1 2 3 4 5 6 
#
# 1 71.8970 -10.4098 25.7491 0.0000 0.0000 -0.1400
# 2 -10.4098 71.8970 25.7491 0.0000 0.0000 0.1400
# 3 25.7491 25.7491 105.6003 0.0000 0.0000 0.0000
# 4 0.0000 0.0000 0.0000 39.5681 0.0000 0.0000
# 5 0.0000 0.0000 0.0000 0.0000 39.5681 0.0000
# 6 -0.1400 0.1400 0.0000 0.0000 0.0000 31.3228
#
#
#
# Elastic Compliance Matrix: (Units=1/GPa)
#
#
# Indices 1 2 3 4 5 6 
#
# 1 0.016294 0.004144 -0.004983 0.000000 0.000000 0.000054
# 2 0.004144 0.016294 -0.004983 0.000000 0.000000 -0.000054
# 3 -0.004983 -0.004983 0.011900 0.000000 0.000000 0.000000
# 4 0.000000 0.000000 0.000000 0.025273 0.000000 0.000000
# 5 0.000000 0.000000 0.000000 0.000000 0.025273 0.000000
# 6 0.000054 -0.000054 0.000000 0.000000 0.000000 0.031926
#
#
# Mechanical properties :
#
#
# Convention : Reuss Voigt Hill
#
# Bulk Modulus (GPa) = 30.44961 36.84125 33.64543
# Shear Modulus (GPa) = 33.43321 35.97886 34.70603
#
# Velocity S-wave (km/s) = 3.78888 3.93048 3.86033
# Velocity P-wave (km/s) = 5.67586 6.03467 5.85801
#
# Compressibility (1/GPa) = 0.03284114
#
# Stress axis : x y z
#
# Youngs Moduli (GPa) = 61.37386 61.37386 84.03433
#
# Poissons Ratio (x) = -0.25432 0.41877
# Poissons Ratio (y) = -0.25432 0.41877
# Poissons Ratio (z) = 0.30585 0.30585
#
# Static dielectric constant tensor:
#      x y z
#    x 4.029890 0.000000 0.000000 
#    y 0.000000 4.029890 0.000000 
#    z 0.000000 0.000000 4.168880 
# 
# 
# High freq. dielectric constant tensor:
#      x y z
#    x 1.914820 0.000000 0.000000 
#    y 0.000000 1.914820 0.000000 
#    z 0.000000 0.000000 1.930850 
# 
# From -- ./inp_files/414.got.cif
#   From: 2010.03.12/outbox.cif.g09.slc.cpg/sg82_1_cif.got.tgz:414.got - 2010.04.08 20:02:50.
