data_PCOD8302100
_publ_section_title
;
Structure prediction by ZEFSAII (Michael W. Deem and Ramdas Pophale) SiO2 
 PCOD8302100
Probable space group: I 4
;
_chemical_formula_sum "Si O2"
_cell_formula_units_Z 64
_cell_length_a 11.326747
_cell_length_b 11.326747
_cell_length_c 27.495897
_cell_angle_alpha 90.000000
_cell_angle_beta 90.000000
_cell_angle_gamma 90.000000
_cell_volume 3527.591539
_symmetry_space_group_name_H-M "I 4"
_symmetry_group_IT_number 79
_symmetry_cell_setting 'tetragonal'
loop_
_space_group_symop_operation_xyz
x,y,z
-y,x,z
-x,-y,z
y,-x,z
1/2+x,1/2+y,1/2+z
1/2-y,1/2+x,1/2+z
1/2-x,1/2-y,1/2+z
1/2+y,1/2-x,1/2+z
loop_
_atom_site_type_symbol
_atom_site_label
_atom_site_fract_x
_atom_site_fract_y
_atom_site_fract_z
Si Si1 0.177826 0.525829 0.308410
Si Si2 0.812119 0.962780 0.518035
Si Si3 0.677826 0.025829 0.340440
Si Si4 0.818757 0.058053 0.896295
Si Si5 0.620663 0.928973 0.709655
Si Si6 0.428973 0.879337 0.939195
Si Si7 0.818757 0.058053 0.252555
Si Si8 0.687881 0.537220 0.130815
O O1 0.128459 0.420158 0.342635
O O2 0.292935 0.570222 0.337800
O O3 0.201049 0.482355 0.253590
O O4 0.079842 0.628460 0.306214
O O5 0.693680 0.938853 0.488389
O O6 0.778119 0.956084 0.574425
O O7 0.908687 0.863592 0.505148
O O8 0.792935 0.070222 0.311050
O O9 0.701048 0.982355 0.395260
O O10 0.707429 0.094118 0.928723
O O11 0.924359 0.146013 0.909274
O O12 0.594118 0.792571 0.720127
O O13 0.693680 0.938853 0.660460
O O14 0.500000 0.000000 0.703779
O O15 0.500000 0.000000 0.945071
O O16 0.924359 0.146013 0.239576
O O17 0.591313 0.636408 0.143701
#
# Coordination Sequence:
#
# PCOD8302100 Si02
#       8
#     8   8   8   8   8   8   8   8
#     4   9  16  33  49  76 109 145 186 229 270 312
#     4   9  21  41  62  87 115 141 183 246 299 337
#     4   9  16  33  49  76 109 145 186 229 270 312
#     4  10  22  36  52  79 119 158 190 230 279 334
#     4  11  21  34  60  86 113 148 197 232 281 345
#     4  11  21  34  60  86 113 148 197 232 281 345
#     4  10  22  36  52  79 119 158 190 230 279 334
#     4   9  21  41  62  87 115 141 183 246 299 337
#
# _framework density 18.142690000000002
#
# number of rings (size 3 to 8) (size 9 to 14) (size 15 to 20)
#    0.000    2.250    5.000    0.750    3.500    6.500 
#    0.000    2.500    0.000    0.000    0.000    1.750 
#    0.000    0.000    0.000    0.000    0.000    0.000 
#
# Total GULP energy -396699.686479 kJ/mol
# GULP energy per Si atom -12396.865202 kJ/mol
# Density = 1.810140 g / cm^3
# Si number density = 18.142690 Si / 1000 Ang^3
#
#
#
# Elastic Constant Matrix: (Units=GPa)
#
#
# Indices 1 2 3 4 5 6 
#
# 1 83.0143 27.9318 55.6540 0.0000 0.0000 0.0270
# 2 27.9318 83.0143 55.6540 0.0000 0.0000 -0.0270
# 3 55.6540 55.6540 98.7716 0.0000 0.0000 0.0000
# 4 0.0000 0.0000 0.0000 25.4503 0.0000 0.0000
# 5 0.0000 0.0000 0.0000 0.0000 25.4503 0.0000
# 6 0.0270 -0.0270 0.0000 0.0000 0.0000 13.4042
#
#
#
# Elastic Compliance Matrix: (Units=1/GPa)
#
#
# Indices 1 2 3 4 5 6 
#
# 1 0.019445 0.001290 -0.011683 0.000000 0.000000 -0.000037
# 2 0.001290 0.019445 -0.011683 0.000000 0.000000 0.000037
# 3 -0.011683 -0.011683 0.023290 0.000000 0.000000 0.000000
# 4 0.000000 0.000000 0.000000 0.039292 0.000000 0.000000
# 5 0.000000 0.000000 0.000000 0.000000 0.039292 0.000000
# 6 -0.000037 0.000037 0.000000 0.000000 0.000000 0.074604
#
#
# Mechanical properties :
#
#
# Convention : Reuss Voigt Hill
#
# Bulk Modulus (GPa) = 55.47232 60.36445 57.91839
# Shear Modulus (GPa) = 18.83028 21.23166 20.03097
#
# Velocity S-wave (km/s) = 3.22514 3.42462 3.32637
# Velocity P-wave (km/s) = 6.67163 6.99869 6.83711
#
# Compressibility (1/GPa) = 0.01802701
#
# Stress axis : x y z
#
# Youngs Moduli (GPa) = 51.42796 51.42796 42.93597
#
# Poissons Ratio (x) = -0.06634 0.50163
# Poissons Ratio (y) = -0.06634 0.50163
# Poissons Ratio (z) = 0.60084 0.60084
#
# Static dielectric constant tensor:
#      x y z
#    x 3.310240 0.000000 0.000000 
#    y 0.000000 3.310240 0.000000 
#    z 0.000000 0.000000 3.147510 
# 
# 
# High freq. dielectric constant tensor:
#      x y z
#    x 1.702090 0.000000 0.000000 
#    y 0.000000 1.702090 0.000000 
#    z 0.000000 0.000000 1.678800 
# 
# From -- ./inp_files/2069.got.cif
#   From: 2010.03.12/outbox.cif.g09.slc.cpg/sg79_cif.got.tgz:2069.got - 2010.04.16 16:38:49.
