data_PCOD8302594
_publ_section_title
;
Structure prediction by ZEFSAII (Michael W. Deem and Ramdas Pophale) SiO2 
 PCOD8302594
Probable space group: I -4 
;
_chemical_formula_sum "Si O2"
_cell_formula_units_Z 46
_cell_length_a 13.086734
_cell_length_b 13.086734
_cell_length_c 13.240870
_cell_angle_alpha 90.000000
_cell_angle_beta 90.000000
_cell_angle_gamma 90.000000
_cell_volume 2267.665912
_symmetry_space_group_name_H-M "I -4 "
_symmetry_group_IT_number 82
_symmetry_cell_setting 'tetragonal'
loop_
_space_group_symop_operation_xyz
x,y,z
y,-x,-z
-x,-y,z
-y,x,-z
1/2+x,1/2+y,1/2+z
1/2+y,1/2-x,1/2-z
1/2-x,1/2-y,1/2+z
1/2-y,1/2+x,1/2-z
loop_
_atom_site_type_symbol
_atom_site_label
_atom_site_fract_x
_atom_site_fract_y
_atom_site_fract_z
Si Si1 0.500000 0.500000 0.000000
Si Si2 0.573802 0.095534 0.103572
Si Si3 0.431950 0.646371 0.829742
Si Si4 0.894057 0.869287 0.166675
Si Si5 0.500000 0.500000 0.500000
Si Si6 0.500000 0.000000 0.750000
Si Si7 0.634064 0.862010 0.618964
Si Si8 0.244350 0.525466 0.755327
O O1 0.445967 0.586812 0.934011
O O2 0.510791 0.195589 0.138457
O O3 0.655948 0.074703 0.189421
O O4 0.500000 0.000000 0.089253
O O5 0.631023 0.117869 0.000077
O O6 0.528610 0.622567 0.759894
O O7 0.425218 0.766185 0.850174
O O8 0.329158 0.610987 0.774689
O O9 0.855620 0.755692 0.146998
O O10 0.792825 0.931590 0.194043
O O11 0.947758 0.912607 0.066880
O O12 0.461655 0.091355 0.678778
#
# Coordination Sequence:
#
# PCOD8302594 Si02
#       8
#     2   8   8   8   2   2   8   8
#     4  12  22  48  68 102 136 176 218 288 332 402
#     4  12  25  45  71  98 139 174 226 279 338 396
#     4  12  25  45  71  98 139 174 226 279 338 396
#     4  12  25  45  71  98 139 174 226 279 338 396
#     4  12  22  48  68 102 136 176 218 288 332 402
#     4  12  24  48  64  86 160 168 228 268 332 394
#     4  12  27  45  67 101 127 192 219 274 329 415
#     4  12  22  48  68 102 136 176 218 288 332 402
#
# _framework density 20.285176
#
# number of rings (size 3 to 8) (size 9 to 14) (size 15 to 20)
#    0.000    0.000    7.826    3.130    0.000    0.000 
#    0.000    0.000    0.000    0.000    0.000    0.000 
#    0.000    0.000    0.000    0.000    0.000    0.000 
#
# Total GULP energy -285397.359421 kJ/mol
# GULP energy per Si atom -12408.580844 kJ/mol
# Density = 2.023901 g / cm^3
# Si number density = 20.285176 Si / 1000 Ang^3
#
#
#
# Elastic Constant Matrix: (Units=GPa)
#
#
# Indices 1 2 3 4 5 6 
#
# 1 72.8828 0.2209 11.3853 0.0000 0.0000 -0.1100
# 2 0.2209 72.8828 11.3853 0.0000 0.0000 0.1100
# 3 11.3853 11.3853 86.2558 0.0000 0.0000 0.0000
# 4 0.0000 0.0000 0.0000 9.8638 0.0000 0.0000
# 5 0.0000 0.0000 0.0000 0.0000 9.8638 0.0000
# 6 -0.1100 0.1100 0.0000 0.0000 0.0000 31.9966
#
#
#
# Elastic Compliance Matrix: (Units=1/GPa)
#
#
# Indices 1 2 3 4 5 6 
#
# 1 0.014014 0.000252 -0.001883 0.000000 0.000000 0.000047
# 2 0.000252 0.014014 -0.001883 0.000000 0.000000 -0.000047
# 3 -0.001883 -0.001883 0.012091 0.000000 0.000000 0.000000
# 4 0.000000 0.000000 0.000000 0.101380 0.000000 0.000000
# 5 0.000000 0.000000 0.000000 0.000000 0.101380 0.000000
# 6 0.000047 -0.000047 0.000000 0.000000 0.000000 0.031254
#
#
# Mechanical properties :
#
#
# Convention : Reuss Voigt Hill
#
# Bulk Modulus (GPa) = 30.22063 30.88936 30.55500
# Shear Modulus (GPa) = 17.11205 24.28020 20.69613
#
# Velocity S-wave (km/s) = 2.90759 3.46344 3.19761
# Velocity P-wave (km/s) = 5.11882 5.59057 5.35989
#
# Compressibility (1/GPa) = 0.03308998
#
# Stress axis : x y z
#
# Youngs Moduli (GPa) = 71.35666 71.35667 82.70952
#
# Poissons Ratio (x) = -0.01795 0.15574
# Poissons Ratio (y) = -0.01795 0.15574
# Poissons Ratio (z) = 0.13436 0.13436
#
# Static dielectric constant tensor:
#      x y z
#    x 3.837790 0.000000 0.000000 
#    y 0.000000 3.837790 0.000000 
#    z 0.000000 0.000000 3.793810 
# 
# 
# High freq. dielectric constant tensor:
#      x y z
#    x 1.803730 0.000000 0.000000 
#    y 0.000000 1.803730 0.000000 
#    z 0.000000 0.000000 1.803450 
# 
# From -- ./inp_files/1752.got.cif
#   From: 2010.03.12/outbox.cif.g09.slc.cpg/sg82_1_cif.got.tgz:1752.got - 2010.04.08 20:02:50.
