data_PCOD8302563
_publ_section_title
;
Structure prediction by ZEFSAII (Michael W. Deem and Ramdas Pophale) SiO2 
 PCOD8302563
Probable space group: I -4 
;
_chemical_formula_sum "Si O2"
_cell_formula_units_Z 40
_cell_length_a 16.001544
_cell_length_b 16.001544
_cell_length_c 6.651588
_cell_angle_alpha 90.000000
_cell_angle_beta 90.000000
_cell_angle_gamma 90.000000
_cell_volume 1703.135186
_symmetry_space_group_name_H-M "I -4 "
_symmetry_group_IT_number 82
_symmetry_cell_setting 'tetragonal'
loop_
_space_group_symop_operation_xyz
x,y,z
y,-x,-z
-x,-y,z
-y,x,-z
1/2+x,1/2+y,1/2+z
1/2+y,1/2-x,1/2-z
1/2-x,1/2-y,1/2+z
1/2-y,1/2+x,1/2-z
loop_
_atom_site_type_symbol
_atom_site_label
_atom_site_fract_x
_atom_site_fract_y
_atom_site_fract_z
Si Si1 0.109481 0.067304 0.432039
Si Si2 0.219426 0.044738 0.061403
Si Si3 0.053833 0.612060 0.701652
Si Si4 0.288411 0.319601 0.218405
Si Si5 0.624677 0.787657 0.510818
O O1 0.136840 0.044091 0.203787
O O2 0.174957 0.133429 0.524700
O O3 0.016844 0.107648 0.431577
O O4 0.297012 0.058868 0.206577
O O5 0.232789 0.957685 0.936956
O O6 0.213832 0.119146 0.906812
O O7 0.088836 0.541427 0.858649
O O8 0.113126 0.605475 0.505107
O O9 0.345985 0.242635 0.288022
O O10 0.197637 0.278335 0.175553
#
# Coordination Sequence:
#
# PCOD8302563 Si02
#       5
#     8   8   8   8   8
#     4  11  25  46  73 104 142 192 243 308 379 443
#     4  11  24  44  67 105 138 188 243 298 368 452
#     4   9  19  39  66  93 130 174 225 289 359 429
#     4  12  26  42  68 102 142 188 241 305 370 441
#     4  11  24  43  67  99 139 185 241 304 365 449
#
# _framework density 23.486097999999998
#
# number of rings (size 3 to 8) (size 9 to 14) (size 15 to 20)
#    0.000    1.200    4.000    1.200    2.800    1.600 
#    0.000    2.000    0.000    0.000    0.000    0.000 
#    0.000    0.000    0.000    0.000    0.000    0.000 
#
# Total GULP energy -247890.817349 kJ/mol
# GULP energy per Si atom -12394.540867 kJ/mol
# Density = 2.343264 g / cm^3
# Si number density = 23.486098 Si / 1000 Ang^3
#
#
#
# Elastic Constant Matrix: (Units=GPa)
#
#
# Indices 1 2 3 4 5 6 
#
# 1 97.0128 13.3723 20.4468 0.0000 0.0000 2.6766
# 2 13.3723 97.0128 20.4468 0.0000 0.0000 -2.6766
# 3 20.4468 20.4468 48.1621 0.0000 0.0000 0.0000
# 4 0.0000 0.0000 0.0000 36.8162 0.0000 0.0000
# 5 0.0000 0.0000 0.0000 0.0000 36.8162 0.0000
# 6 2.6766 -2.6766 0.0000 0.0000 0.0000 33.1896
#
#
#
# Elastic Compliance Matrix: (Units=1/GPa)
#
#
# Indices 1 2 3 4 5 6 
#
# 1 0.011384 -0.000634 -0.004564 0.000000 0.000000 -0.000969
# 2 -0.000634 0.011384 -0.004564 0.000000 0.000000 0.000969
# 3 -0.004564 -0.004564 0.024638 0.000000 0.000000 0.000000
# 4 0.000000 0.000000 0.000000 0.027162 0.000000 0.000000
# 5 0.000000 0.000000 0.000000 0.000000 0.027162 0.000000
# 6 -0.000969 0.000969 0.000000 0.000000 0.000000 0.030286
#
#
# Mechanical properties :
#
#
# Convention : Reuss Voigt Hill
#
# Bulk Modulus (GPa) = 35.86424 38.96885 37.41655
# Shear Modulus (GPa) = 31.08800 33.89253 32.49026
#
# Velocity S-wave (km/s) = 3.64218 3.80292 3.72342
# Velocity P-wave (km/s) = 5.74377 5.99260 5.86951
#
# Compressibility (1/GPa) = 0.02788292
#
# Stress axis : x y z
#
# Youngs Moduli (GPa) = 87.84307 87.84307 40.58727
#
# Poissons Ratio (x) = 0.05570 0.18523
# Poissons Ratio (y) = 0.05570 0.18523
# Poissons Ratio (z) = 0.40090 0.40090
#
# Static dielectric constant tensor:
#      x y z
#    x 4.594000 0.000000 0.000000 
#    y 0.000000 4.594000 0.000000 
#    z 0.000000 0.000000 3.654190 
# 
# 
# High freq. dielectric constant tensor:
#      x y z
#    x 1.951500 0.000000 0.000000 
#    y 0.000000 1.951500 0.000000 
#    z 0.000000 0.000000 1.877310 
# 
# From -- ./inp_files/223.got.cif
#   From: 2010.03.12/outbox.cif.g09.slc.cpg/sg82_1_cif.got.tgz:223.got - 2010.04.08 20:02:50.
