data_PCOD8302578
_publ_section_title
;
Structure prediction by ZEFSAII (Michael W. Deem and Ramdas Pophale) SiO2 
 PCOD8302578
Probable space group: I -4 
;
_chemical_formula_sum "Si O2"
_cell_formula_units_Z 56
_cell_length_a 11.075629
_cell_length_b 11.075629
_cell_length_c 20.795565
_cell_angle_alpha 90.000000
_cell_angle_beta 90.000000
_cell_angle_gamma 90.000000
_cell_volume 2550.982762
_symmetry_space_group_name_H-M "I -4 "
_symmetry_group_IT_number 82
_symmetry_cell_setting 'tetragonal'
loop_
_space_group_symop_operation_xyz
x,y,z
y,-x,-z
-x,-y,z
-y,x,-z
1/2+x,1/2+y,1/2+z
1/2+y,1/2-x,1/2-z
1/2-x,1/2-y,1/2+z
1/2-y,1/2+x,1/2-z
loop_
_atom_site_type_symbol
_atom_site_label
_atom_site_fract_x
_atom_site_fract_y
_atom_site_fract_z
Si Si1 0.690944 0.493586 0.512191
Si Si2 0.872579 0.937792 0.261240
Si Si3 0.302345 0.014378 0.146964
Si Si4 0.906530 0.606955 0.083987
Si Si5 0.519505 0.304129 0.998611
Si Si6 0.922689 0.670000 0.227009
Si Si7 0.986158 0.308081 0.633006
O O1 0.603626 0.378792 0.521896
O O2 0.730897 0.540525 0.581592
O O3 0.805545 0.459288 0.469907
O O4 0.788306 0.989554 0.205766
O O5 0.882937 0.794195 0.258862
O O6 0.818115 0.975493 0.329908
O O7 0.000000 0.000000 0.252892
O O8 0.398962 0.119512 0.159336
O O9 0.365247 0.884479 0.143574
O O10 0.775884 0.555887 0.062997
O O11 0.889635 0.675355 0.151499
O O12 0.000000 0.500000 0.095390
O O13 0.396497 0.374210 0.982485
O O14 0.496580 0.214474 0.057627
O O15 0.849126 0.565558 0.263546
#
# Coordination Sequence:
#
# PCOD8302578 Si02
#       7
#     8   8   8   8   8   8   8
#     4  11  26  43  72 109 146 187 238 302 361 429
#     4  12  30  45  79 106 141 191 247 303 360 433
#     4  11  25  49  72 107 142 188 247 299 372 424
#     4  12  25  46  77 104 145 190 237 297 366 429
#     4  11  28  46  73 108 146 191 240 298 360 434
#     4  11  27  50  71 107 146 193 239 291 364 438
#     4  11  26  49  74 104 144 190 244 297 370 429
#
# _framework density 21.952324999999998
#
# number of rings (size 3 to 8) (size 9 to 14) (size 15 to 20)
#    0.000    0.714    2.857    2.571   18.000    1.143 
#    0.000    0.000    0.000    0.000    0.000    0.000 
#    0.000    0.000    0.000    0.000    0.000    0.000 
#
# Total GULP energy -347464.706349 kJ/mol
# GULP energy per Si atom -12409.453798 kJ/mol
# Density = 2.190236 g / cm^3
# Si number density = 21.952325 Si / 1000 Ang^3
#
#
#
# Elastic Constant Matrix: (Units=GPa)
#
#
# Indices 1 2 3 4 5 6 
#
# 1 88.6151 17.2880 11.4945 0.0000 0.0000 5.7530
# 2 17.2880 88.6151 11.4945 0.0000 0.0000 -5.7530
# 3 11.4945 11.4945 89.7042 0.0000 0.0000 0.0000
# 4 0.0000 0.0000 0.0000 39.1186 0.0000 0.0000
# 5 0.0000 0.0000 0.0000 0.0000 39.1186 0.0000
# 6 5.7530 -5.7530 0.0000 0.0000 0.0000 27.2158
#
#
#
# Elastic Compliance Matrix: (Units=1/GPa)
#
#
# Indices 1 2 3 4 5 6 
#
# 1 0.012114 -0.002401 -0.001245 0.000000 0.000000 -0.003068
# 2 -0.002401 0.012114 -0.001245 0.000000 0.000000 0.003068
# 3 -0.001245 -0.001245 0.011467 0.000000 0.000000 0.000000
# 4 0.000000 0.000000 0.000000 0.025563 0.000000 0.000000
# 5 0.000000 0.000000 0.000000 0.000000 0.025563 0.000000
# 6 -0.003068 0.003068 0.000000 0.000000 0.000000 0.038040
#
#
# Mechanical properties :
#
#
# Convention : Reuss Voigt Hill
#
# Bulk Modulus (GPa) = 38.58928 38.60983 38.59956
# Shear Modulus (GPa) = 34.89678 36.20111 35.54894
#
# Velocity S-wave (km/s) = 3.99138 4.06529 4.02851
# Velocity P-wave (km/s) = 6.23365 6.29775 6.26578
#
# Compressibility (1/GPa) = 0.02591393
#
# Stress axis : x y z
#
# Youngs Moduli (GPa) = 82.55044 82.55044 87.20905
#
# Poissons Ratio (x) = 0.19821 0.10854
# Poissons Ratio (y) = 0.19821 0.10854
# Poissons Ratio (z) = 0.10274 0.10274
#
# Static dielectric constant tensor:
#      x y z
#    x 4.068910 0.000000 0.000000 
#    y 0.000000 4.068910 0.000000 
#    z 0.000000 0.000000 3.967070 
# 
# 
# High freq. dielectric constant tensor:
#      x y z
#    x 1.874800 0.000000 0.000000 
#    y 0.000000 1.874800 0.000000 
#    z 0.000000 0.000000 1.868290 
# 
# From -- ./inp_files/3152.got.cif
#   From: 2010.03.12/outbox.cif.g09.slc.cpg/sg82_2_cif.got.tgz:3152.got - 2010.04.08 20:02:50.
