data_PCOD8302352
_publ_section_title
;
Structure prediction by ZEFSAII (Michael W. Deem and Ramdas Pophale) SiO2 
 PCOD8302352
Probable space group: I -4 
;
_chemical_formula_sum "Si O2"
_cell_formula_units_Z 64
_cell_length_a 14.502273
_cell_length_b 14.502273
_cell_length_c 17.687069
_cell_angle_alpha 90.000000
_cell_angle_beta 90.000000
_cell_angle_gamma 90.000000
_cell_volume 3719.872227
_symmetry_space_group_name_H-M "I -4 "
_symmetry_group_IT_number 82
_symmetry_cell_setting 'tetragonal'
loop_
_space_group_symop_operation_xyz
x,y,z
y,-x,-z
-x,-y,z
-y,x,-z
1/2+x,1/2+y,1/2+z
1/2+y,1/2-x,1/2-z
1/2-x,1/2-y,1/2+z
1/2-y,1/2+x,1/2-z
loop_
_atom_site_type_symbol
_atom_site_label
_atom_site_fract_x
_atom_site_fract_y
_atom_site_fract_z
Si Si1 0.097920 0.846870 0.574787
Si Si2 0.354926 0.617649 0.909517
Si Si3 0.461537 0.140527 0.731970
Si Si4 0.674865 0.906729 0.317755
Si Si5 0.159379 0.622009 0.838641
Si Si6 0.078078 0.423628 0.080187
Si Si7 0.516245 0.892196 0.421843
Si Si8 0.995901 0.764741 0.362559
O O1 0.118597 0.827392 0.486698
O O2 0.115995 0.761285 0.629533
O O3 0.991121 0.877608 0.584016
O O4 0.172687 0.923264 0.594191
O O5 0.252732 0.641471 0.882849
O O6 0.418304 0.666870 0.846507
O O7 0.566319 0.105464 0.729442
O O8 0.427572 0.154335 0.645866
O O9 0.455784 0.233574 0.781276
O O10 0.685124 0.858678 0.235615
O O11 0.586914 0.860523 0.357611
O O12 0.656207 0.016056 0.310772
O O13 0.082547 0.650847 0.900980
O O14 0.176810 0.475850 0.084730
O O15 0.000000 0.500000 0.095125
O O16 0.059854 0.366783 0.003279
O O17 0.500000 0.000000 0.423862
#
# Coordination Sequence:
#
# PCOD8302352 Si02
#       8
#     8   8   8   8   8   8   8   8
#     4  11  23  36  55  76 112 148 186 226 268 319
#     4  11  23  37  54  79 110 150 187 225 264 328
#     4   9  16  31  49  73 109 141 172 222 271 327
#     4  10  19  35  53  79 108 144 176 220 278 324
#     4  10  20  34  55  80 110 141 182 219 277 327
#     4  10  18  32  53  80 108 140 182 224 278 333
#     4   9  18  28  53  78 104 139 175 222 270 327
#     4  11  21  33  54  77 105 148 186 219 274 321
#
# _framework density 17.204891
#
# number of rings (size 3 to 8) (size 9 to 14) (size 15 to 20)
#    0.000    1.875    5.000    1.125    5.250    2.000 
#    0.000    0.000    0.000    0.000    0.000    0.000 
#    0.000    0.000    4.250    0.000    0.000    0.000 
#
# Total GULP energy -396453.941921 kJ/mol
# GULP energy per Si atom -12389.185685 kJ/mol
# Density = 1.716573 g / cm^3
# Si number density = 17.204891 Si / 1000 Ang^3
#
#
#
# Elastic Constant Matrix: (Units=GPa)
#
#
# Indices 1 2 3 4 5 6 
#
# 1 70.7719 24.6996 26.3728 0.0000 0.0000 1.6490
# 2 24.6996 70.7719 26.3728 0.0000 0.0000 -1.6490
# 3 26.3728 26.3728 103.5205 0.0000 0.0000 0.0000
# 4 0.0000 0.0000 0.0000 26.2555 0.0000 0.0000
# 5 0.0000 0.0000 0.0000 0.0000 26.2555 0.0000
# 6 1.6490 -1.6490 0.0000 0.0000 0.0000 15.5260
#
#
#
# Elastic Compliance Matrix: (Units=1/GPa)
#
#
# Indices 1 2 3 4 5 6 
#
# 1 0.017031 -0.004841 -0.003106 0.000000 0.000000 -0.002323
# 2 -0.004841 0.017031 -0.003106 0.000000 0.000000 0.002323
# 3 -0.003106 -0.003106 0.011242 0.000000 0.000000 0.000000
# 4 0.000000 0.000000 0.000000 0.038087 0.000000 0.000000
# 5 0.000000 0.000000 0.000000 0.000000 0.038087 0.000000
# 6 -0.002323 0.002323 0.000000 0.000000 0.000000 0.064902
#
#
# Mechanical properties :
#
#
# Convention : Reuss Voigt Hill
#
# Bulk Modulus (GPa) = 43.10298 44.43941 43.77119
# Shear Modulus (GPa) = 23.12494 24.78197 23.95346
#
# Velocity S-wave (km/s) = 3.67016 3.79938 3.73533
# Velocity P-wave (km/s) = 6.56256 6.71808 6.64078
#
# Compressibility (1/GPa) = 0.02320025
#
# Stress axis : x y z
#
# Youngs Moduli (GPa) = 58.71752 58.71752 88.95016
#
# Poissons Ratio (x) = 0.28423 0.27624
# Poissons Ratio (y) = 0.28423 0.27624
# Poissons Ratio (z) = 0.18235 0.18235
#
# Static dielectric constant tensor:
#      x y z
#    x 3.138900 0.000000 0.000000 
#    y 0.000000 3.138900 0.000000 
#    z 0.000000 0.000000 3.623660 
# 
# 
# High freq. dielectric constant tensor:
#      x y z
#    x 1.642710 0.000000 0.000000 
#    y 0.000000 1.642710 0.000000 
#    z 0.000000 0.000000 1.672080 
# 
# From -- ./inp_files/2724.got.cif
#   From: 2010.03.12/outbox.cif.g09.slc.cpg/sg82_2_cif.got.tgz:2724.got - 2010.04.08 20:02:50.
