data_PCOD8302043
_publ_section_title
;
Structure prediction by ZEFSAII (Michael W. Deem and Ramdas Pophale) SiO2 
 PCOD8302043
Probable space group: P 43
;
_chemical_formula_sum "Si O2"
_cell_formula_units_Z 32
_cell_length_a 12.265415
_cell_length_b 12.265415
_cell_length_c 10.443907
_cell_angle_alpha 90.000000
_cell_angle_beta 90.000000
_cell_angle_gamma 90.000000
_cell_volume 1571.185600
_symmetry_space_group_name_H-M "P 43"
_symmetry_group_IT_number 78
_symmetry_cell_setting 'tetragonal'
loop_
_space_group_symop_operation_xyz
x,y,z
-y,x,3/4+z
-x,-y,1/2+z
y,-x,1/4+z
loop_
_atom_site_type_symbol
_atom_site_label
_atom_site_fract_x
_atom_site_fract_y
_atom_site_fract_z
Si Si1 0.114543 0.359562 0.971560
Si Si2 0.291097 0.708861 0.901492
Si Si3 0.081194 0.786871 0.028387
Si Si4 0.226408 0.216576 0.178789
Si Si5 0.500786 0.226043 0.525653
Si Si6 0.125338 0.316944 0.431000
Si Si7 0.555829 0.884922 0.764134
Si Si8 0.191546 0.999690 0.049628
O O1 0.161150 0.467188 0.904160
O O2 0.087419 0.274497 0.859521
O O3 0.200774 0.305634 0.069360
O O4 0.003576 0.393679 0.041112
O O5 0.295929 0.604448 0.809922
O O6 0.286943 0.815321 0.812847
O O7 0.188635 0.718000 0.995224
O O8 0.399065 0.696818 0.986973
O O9 0.050456 0.754734 0.173251
O O10 0.089139 0.920107 0.018093
O O11 0.990430 0.743780 0.930496
O O12 0.188948 0.267735 0.311586
O O13 0.355861 0.192043 0.191689
O O14 0.164541 0.101399 0.144864
O O15 0.472223 0.150003 0.406777
O O16 0.113396 0.448566 0.423496
#
# Coordination Sequence:
#
# PCOD8302043 Si02
#       8
#     4   4   4   4   4   4   4   4
#     4  11  23  42  66  97 135 178 227 279 343 408
#     4  11  23  43  69  97 129 178 229 287 343 407
#     4  12  22  42  65  98 135 182 224 273 345 410
#     4  11  24  44  65 101 139 175 228 288 353 409
#     4  11  22  45  67  96 135 174 234 284 337 413
#     4  11  24  44  68  99 129 182 233 271 349 418
#     4  10  24  43  70  94 137 179 226 295 330 413
#     4  11  22  41  62  96 143 174 217 283 334 412
#
# _framework density 20.366785
#
# number of rings (size 3 to 8) (size 9 to 14) (size 15 to 20)
#    0.000    1.000    5.000    1.500    3.500    1.000 
#    4.500    2.500    0.000    0.000    0.000    0.000 
#    0.000    0.000    0.000    0.000    0.000    0.000 
#
# Total GULP energy -396718.772952 kJ/mol
# GULP energy per Si atom -12397.461655 kJ/mol
# Density = 2.032043 g / cm^3
# Si number density = 20.366785 Si / 1000 Ang^3
#
#
#
# Elastic Constant Matrix: (Units=GPa)
#
#
# Indices 1 2 3 4 5 6 
#
# 1 120.2821 58.2747 39.5792 0.0000 0.0000 5.1598
# 2 58.2747 120.2821 39.5792 0.0000 0.0000 -5.1598
# 3 39.5792 39.5792 89.2052 0.0000 0.0000 0.0000
# 4 0.0000 0.0000 0.0000 36.0061 0.0000 0.0000
# 5 0.0000 0.0000 0.0000 0.0000 36.0061 0.0000
# 6 5.1598 -5.1598 0.0000 0.0000 0.0000 7.1781
#
#
#
# Elastic Compliance Matrix: (Units=1/GPa)
#
#
# Indices 1 2 3 4 5 6 
#
# 1 0.012645 -0.005673 -0.003093 0.000000 0.000000 -0.013168
# 2 -0.005673 0.012645 -0.003093 0.000000 0.000000 0.013168
# 3 -0.003093 -0.003093 0.013955 0.000000 0.000000 0.000000
# 4 0.000000 0.000000 0.000000 0.027773 0.000000 0.000000
# 5 0.000000 0.000000 0.000000 0.000000 0.027773 0.000000
# 6 -0.013168 0.013168 0.000000 0.000000 0.000000 0.158245
#
#
# Mechanical properties :
#
#
# Convention : Reuss Voigt Hill
#
# Bulk Modulus (GPa) = 64.41047 67.18171 65.79609
# Shear Modulus (GPa) = 17.73480 28.66045 23.19763
#
# Velocity S-wave (km/s) = 2.95408 3.75536 3.37856
# Velocity P-wave (km/s) = 6.58251 7.20147 6.89893
#
# Compressibility (1/GPa) = 0.01552543
#
# Stress axis : x y z
#
# Youngs Moduli (GPa) = 79.08137 79.08137 71.65888
#
# Poissons Ratio (x) = 0.44866 0.22166
# Poissons Ratio (y) = 0.44866 0.22166
# Poissons Ratio (z) = 0.24462 0.24462
#
# Static dielectric constant tensor:
#      x y z
#    x 3.825850 0.000000 0.000000 
#    y 0.000000 3.825850 0.000000 
#    z 0.000000 0.000000 3.699750 
# 
# 
# High freq. dielectric constant tensor:
#      x y z
#    x 1.792530 0.000000 0.000000 
#    y 0.000000 1.792530 0.000000 
#    z 0.000000 0.000000 1.800940 
# 
# From -- ./inp_files/1001.got.cif
#   From: 2010.03.12/outbox.cif.g09.slc.cpg/sg78_cif.got.tgz:1001.got - 2010.04.16 16:37:20.
