data_PCOD8302033
_publ_section_title
;
Structure prediction by ZEFSAII (Michael W. Deem and Ramdas Pophale) SiO2 
 PCOD8302033
Probable space group: P 43
;
_chemical_formula_sum "Si O2"
_cell_formula_units_Z 28
_cell_length_a 15.502125
_cell_length_b 15.502125
_cell_length_c 5.021075
_cell_angle_alpha 90.000000
_cell_angle_beta 90.000000
_cell_angle_gamma 90.000000
_cell_volume 1206.644055
_symmetry_space_group_name_H-M "P 43"
_symmetry_group_IT_number 78
_symmetry_cell_setting 'tetragonal'
loop_
_space_group_symop_operation_xyz
x,y,z
-y,x,3/4+z
-x,-y,1/2+z
y,-x,1/4+z
loop_
_atom_site_type_symbol
_atom_site_label
_atom_site_fract_x
_atom_site_fract_y
_atom_site_fract_z
Si Si1 0.559992 0.616513 0.812790
Si Si2 0.022319 0.280565 0.827738
Si Si3 0.240207 0.870977 0.588263
Si Si4 0.780557 0.522357 0.149194
Si Si5 0.370924 0.740223 0.388665
Si Si6 0.462151 0.037858 0.238483
Si Si7 0.059995 0.883502 0.413956
O O1 0.464884 0.592966 0.721246
O O2 0.545290 0.704373 0.984452
O O3 0.635971 0.637991 0.598077
O O4 0.099747 0.284925 0.613331
O O5 0.056515 0.259436 0.120375
O O6 0.972749 0.370554 0.843770
O O7 0.954659 0.204396 0.742458
O O8 0.280465 0.780507 0.488461
O O9 0.135951 0.862096 0.628805
O O10 0.784943 0.599777 0.363618
O O11 0.870535 0.472766 0.133132
O O12 0.759430 0.556567 0.856572
O O13 0.471561 0.971583 0.488506
O O14 0.964868 0.907040 0.505333
#
# Coordination Sequence:
#
# PCOD8302033 Si02
#       7
#     4   4   4   4   4   4   4
#     4  10  22  41  69  98 137 177 229 288 356 420
#     4  11  24  41  66  97 133 179 229 283 347 410
#     4  11  23  41  66  96 134 175 222 281 346 415
#     4  11  24  41  66  97 133 179 229 283 347 410
#     4  11  23  41  66  96 134 175 222 281 346 415
#     4  12  24  42  68  96 138 182 236 286 338 420
#     4  10  22  41  69  98 137 177 229 288 356 420
#
# _framework density 23.204855999999999
#
# number of rings (size 3 to 8) (size 9 to 14) (size 15 to 20)
#    0.000    1.143    0.000    6.857    2.000    6.857 
#    0.000    0.000    0.000    0.000    0.000    0.000 
#    0.000    0.000    0.000    0.000    0.000    0.000 
#
# Total GULP energy -346883.479228 kJ/mol
# GULP energy per Si atom -12388.695687 kJ/mol
# Density = 2.315204 g / cm^3
# Si number density = 23.204856 Si / 1000 Ang^3
#
#
#
# Elastic Constant Matrix: (Units=GPa)
#
#
# Indices 1 2 3 4 5 6 
#
# 1 140.7974 73.0523 31.5757 0.0000 0.0000 0.0040
# 2 73.0523 140.7974 31.5757 0.0000 0.0000 -0.0040
# 3 31.5757 31.5757 96.0179 0.0000 0.0000 0.0000
# 4 0.0000 0.0000 0.0000 27.6094 0.0000 0.0000
# 5 0.0000 0.0000 0.0000 0.0000 27.6094 0.0000
# 6 0.0040 -0.0040 0.0000 0.0000 0.0000 41.2517
#
#
#
# Elastic Compliance Matrix: (Units=1/GPa)
#
#
# Indices 1 2 3 4 5 6 
#
# 1 0.009970 -0.004791 -0.001703 0.000000 0.000000 -0.000001
# 2 -0.004791 0.009970 -0.001703 0.000000 0.000000 0.000001
# 3 -0.001703 -0.001703 0.011535 0.000000 0.000000 0.000000
# 4 0.000000 0.000000 0.000000 0.036220 0.000000 0.000000
# 5 0.000000 0.000000 0.000000 0.000000 0.036220 0.000000
# 6 -0.000001 0.000001 0.000000 0.000000 0.000000 0.024241
#
#
# Mechanical properties :
#
#
# Convention : Reuss Voigt Hill
#
# Bulk Modulus (GPa) = 66.31076 72.22444 69.26760
# Shear Modulus (GPa) = 33.42753 35.38805 34.40779
#
# Velocity S-wave (km/s) = 3.79956 3.90940 3.85487
# Velocity P-wave (km/s) = 6.92006 7.18123 7.05185
#
# Compressibility (1/GPa) = 0.01508051
#
# Stress axis : x y z
#
# Youngs Moduli (GPa) = 100.29910 100.29910 86.69336
#
# Poissons Ratio (x) = 0.48054 0.14765
# Poissons Ratio (y) = 0.48054 0.14765
# Poissons Ratio (z) = 0.17083 0.17083
#
# Static dielectric constant tensor:
#      x y z
#    x 5.008200 0.000000 0.000000 
#    y 0.000000 5.008200 0.000000 
#    z 0.000000 0.000000 4.139240 
# 
# 
# High freq. dielectric constant tensor:
#      x y z
#    x 1.928580 0.000000 0.000000 
#    y 0.000000 1.928580 0.000000 
#    z 0.000000 0.000000 1.893530 
# 
# From -- ./inp_files/267.got.cif
#   From: 2010.03.12/outbox.cif.g09.slc.cpg/sg78_cif.got.tgz:267.got - 2010.04.16 16:37:20.
