data_PCOD8302772
_publ_section_title
;
Structure prediction by ZEFSAII (Michael W. Deem and Ramdas Pophale) SiO2 
 PCOD8302772
Probable space group: P 4/M
;
_chemical_formula_sum "Si O2"
_cell_formula_units_Z 40
_cell_length_a 14.099278
_cell_length_b 14.099278
_cell_length_c 10.239677
_cell_angle_alpha 90.000000
_cell_angle_beta 90.000000
_cell_angle_gamma 90.000000
_cell_volume 2035.541706
_symmetry_space_group_name_H-M "P 4/M"
_symmetry_group_IT_number 83
_symmetry_cell_setting 'tetragonal'
loop_
_space_group_symop_operation_xyz
x,y,z
-y,x,z
-x,-y,z
y,-x,z
-x,-y,-z
y,-x,-z
x,y,-z
-y,x,-z
loop_
_atom_site_type_symbol
_atom_site_label
_atom_site_fract_x
_atom_site_fract_y
_atom_site_fract_z
Si Si1 0.507835 0.894881 0.347193
Si Si2 0.149684 0.042409 0.148243
Si Si3 0.394435 0.613895 0.858103
Si Si4 0.244945 0.345894 0.647969
Si Si5 0.277568 0.136673 0.647447
O O1 0.489786 0.902501 0.500000
O O2 0.419193 0.832353 0.292398
O O3 0.610760 0.849425 0.315903
O O4 0.500000 0.000000 0.284412
O O5 0.233226 0.062952 0.250572
O O6 0.064064 0.115066 0.172359
O O7 0.187758 0.053826 0.000000
O O8 0.368197 0.505215 0.846299
O O9 0.344334 0.663266 0.738132
O O10 0.359246 0.652387 0.000000
O O11 0.272395 0.375532 0.500000
O O12 0.216970 0.234657 0.651853
O O13 0.271488 0.094167 0.500000
#
# Coordination Sequence:
#
# PCOD8302772 Si02
#       5
#     8   8   8   8   8
#     4   9  19  35  53  76 115 154 179 223 293 345
#     4   9  20  39  60  82 112 149 185 229 290 347
#     4   9  18  32  50  73 102 137 177 223 277 329
#     4  10  20  34  53  79 108 142 188 232 272 332
#     4  10  21  34  57  88 111 145 196 237 279 337
#
# _framework density 19.650790000000001
#
# number of rings (size 3 to 8) (size 9 to 14) (size 15 to 20)
#    0.000    2.600    0.000    2.400    2.800    4.000 
#    0.000    3.000    0.000    1.200    0.000    0.000 
#    0.000    0.000    0.000    0.000    0.000    0.000 
#
# Total GULP energy -495668.722417 kJ/mol
# GULP energy per Si atom -12391.718060 kJ/mol
# Density = 1.960606 g / cm^3
# Si number density = 19.650790 Si / 1000 Ang^3
#
#
#
# Elastic Constant Matrix: (Units=GPa)
#
#
# Indices 1 2 3 4 5 6 
#
# 1 62.4535 19.2621 21.7483 0.0000 0.0000 10.9311
# 2 19.2621 62.4535 21.7483 0.0000 0.0000 -10.9311
# 3 21.7483 21.7483 80.7279 0.0000 0.0000 0.0000
# 4 0.0000 0.0000 0.0000 21.4827 0.0000 0.0000
# 5 0.0000 0.0000 0.0000 0.0000 21.4827 0.0000
# 6 10.9311 -10.9311 0.0000 0.0000 0.0000 32.4740
#
#
#
# Elastic Compliance Matrix: (Units=1/GPa)
#
#
# Indices 1 2 3 4 5 6 
#
# 1 0.021097 -0.006811 -0.003849 0.000000 0.000000 -0.009394
# 2 -0.006811 0.021097 -0.003849 0.000000 0.000000 0.009394
# 3 -0.003849 -0.003849 0.014461 0.000000 0.000000 0.000000
# 4 0.000000 0.000000 0.000000 0.046549 0.000000 0.000000
# 5 0.000000 0.000000 0.000000 0.000000 0.046549 0.000000
# 6 -0.009394 0.009394 0.000000 0.000000 0.000000 0.037118
#
#
# Mechanical properties :
#
#
# Convention : Reuss Voigt Hill
#
# Bulk Modulus (GPa) = 36.18144 36.79470 36.48807
# Shear Modulus (GPa) = 22.21228 24.61295 23.41261
#
# Velocity S-wave (km/s) = 3.36572 3.54293 3.45546
# Velocity P-wave (km/s) = 5.79277 5.95831 5.87612
#
# Compressibility (1/GPa) = 0.02763848
#
# Stress axis : x y z
#
# Youngs Moduli (GPa) = 47.40011 47.40011 69.15145
#
# Poissons Ratio (x) = 0.32283 0.26615
# Poissons Ratio (y) = 0.32283 0.26615
# Poissons Ratio (z) = 0.18243 0.18243
#
# Static dielectric constant tensor:
#      x y z
#    x 3.500850 0.000000 0.000000 
#    y 0.000000 3.500850 0.000000 
#    z 0.000000 0.000000 3.498810 
# 
# 
# High freq. dielectric constant tensor:
#      x y z
#    x 1.757230 0.000000 0.000000 
#    y 0.000000 1.757230 0.000000 
#    z 0.000000 0.000000 1.749160 
# 
# From -- ./inp_files/641.got.cif
#   From: 2010.03.12/outbox.cif.g09.slc.cpg/sg83_1_cif.got.tgz:641.got - 2010.04.08 20:05:18.
