data_PCOD8302145
_publ_section_title
;
Structure prediction by ZEFSAII (Michael W. Deem and Ramdas Pophale) SiO2 
 PCOD8302145
Probable space group: I 41
;
_chemical_formula_sum "Si O2"
_cell_formula_units_Z 48
_cell_length_a 13.216668
_cell_length_b 13.216668
_cell_length_c 15.532612
_cell_angle_alpha 90.000000
_cell_angle_beta 90.000000
_cell_angle_gamma 90.000000
_cell_volume 2713.241526
_symmetry_space_group_name_H-M "I 41"
_symmetry_group_IT_number 80
_symmetry_cell_setting 'tetragonal'
loop_
_space_group_symop_operation_xyz
x,y,z
-y,1/2+x,1/4+z
-x,-y,z
y,1/2-x,1/4+z
1/2+x,1/2+y,1/2+z
1/2-y,x,3/4+z
1/2-x,1/2-y,1/2+z
1/2+y,-x,3/4+z
loop_
_atom_site_type_symbol
_atom_site_label
_atom_site_fract_x
_atom_site_fract_y
_atom_site_fract_z
Si Si1 0.634557 0.065742 0.641700
Si Si2 0.670246 0.193552 0.484923
Si Si3 0.193552 0.670245 0.602788
Si Si4 0.138232 0.428943 0.387057
Si Si5 0.434258 0.865444 0.946012
Si Si6 0.861768 0.928943 0.950654
O O1 0.621704 0.106973 0.544231
O O2 0.745874 0.085205 0.680897
O O3 0.550399 0.121732 0.701643
O O4 0.618003 0.945287 0.636086
O O5 0.725547 0.274454 0.543855
O O6 0.750000 0.142989 0.418855
O O7 0.106972 0.621703 0.543481
O O8 0.254127 0.585205 0.656816
O O9 0.121732 0.550398 0.386069
O O10 0.118390 0.381609 0.293856
O O11 0.250000 0.400022 0.418856
O O12 0.054713 0.381997 0.451626
#
# Coordination Sequence:
#
# PCOD8302145 Si02
#       6
#     8   8   8   8   8   8
#     4  10  18  30  50  75 101 128 162 210 261 310
#     4   9  16  28  49  76 101 124 156 205 258 303
#     4   9  16  28  49  76 101 124 156 205 258 303
#     4  11  21  33  49  73 101 133 170 211 257 309
#     4  10  18  30  50  75 101 128 162 210 261 310
#     4  11  21  33  49  73 101 133 170 211 257 309
#
# _framework density 17.691015
#
# number of rings (size 3 to 8) (size 9 to 14) (size 15 to 20)
#    0.000    2.000    0.000    9.000    0.000    0.000 
#    0.000    1.667    0.000    0.000    0.000   32.667 
#    0.000    0.000    0.000    0.000    0.000    0.000 
#
# Total GULP energy -297497.842010 kJ/mol
# GULP energy per Si atom -12395.743417 kJ/mol
# Density = 1.765075 g / cm^3
# Si number density = 17.691015 Si / 1000 Ang^3
#
#
#
# Elastic Constant Matrix: (Units=GPa)
#
#
# Indices 1 2 3 4 5 6 
#
# 1 114.1777 48.4835 54.7283 0.0000 0.0000 0.0001
# 2 48.4835 114.1777 54.7283 0.0000 0.0000 -0.0001
# 3 54.7283 54.7283 98.4784 0.0000 0.0000 0.0000
# 4 0.0000 0.0000 0.0000 31.2117 0.0000 0.0000
# 5 0.0000 0.0000 0.0000 0.0000 31.2117 0.0000
# 6 0.0001 -0.0001 0.0000 0.0000 0.0000 16.9231
#
#
#
# Elastic Compliance Matrix: (Units=1/GPa)
#
#
# Indices 1 2 3 4 5 6 
#
# 1 0.012521 -0.002701 -0.005457 0.000000 0.000000 0.000000
# 2 -0.002701 0.012521 -0.005457 0.000000 0.000000 0.000000
# 3 -0.005457 -0.005457 0.016220 0.000000 0.000000 0.000000
# 4 0.000000 0.000000 0.000000 0.032039 0.000000 0.000000
# 5 0.000000 0.000000 0.000000 0.000000 0.032039 0.000000
# 6 0.000000 0.000000 0.000000 0.000000 0.000000 0.059091
#
#
# Mechanical properties :
#
#
# Convention : Reuss Voigt Hill
#
# Bulk Modulus (GPa) = 71.27149 71.41266 71.34208
# Shear Modulus (GPa) = 25.46599 27.12889 26.29744
#
# Velocity S-wave (km/s) = 3.79817 3.92022 3.85968
# Velocity P-wave (km/s) = 7.72069 7.80673 7.76383
#
# Compressibility (1/GPa) = 0.01403086
#
# Stress axis : x y z
#
# Youngs Moduli (GPa) = 79.86535 79.86535 61.65111
#
# Poissons Ratio (x) = 0.21571 0.33646
# Poissons Ratio (y) = 0.21571 0.33646
# Poissons Ratio (z) = 0.43586 0.43586
#
# Static dielectric constant tensor:
#      x y z
#    x 3.257030 0.000000 0.000000 
#    y 0.000000 3.257030 0.000000 
#    z 0.000000 0.000000 3.579940 
# 
# 
# High freq. dielectric constant tensor:
#      x y z
#    x 1.663310 0.000000 0.000000 
#    y 0.000000 1.663310 0.000000 
#    z 0.000000 0.000000 1.681490 
# 
# From -- ./inp_files/1292.got.cif
#   From: 2010.03.12/outbox.cif.g09.slc.cpg/sg80_cif.got.tgz:1292.got - 2010.04.08 20:00:04.
