data_PCOD8302216
_publ_section_title
;
Structure prediction by ZEFSAII (Michael W. Deem and Ramdas Pophale) SiO2 
 PCOD8302216
Probable space group: I 41
;
_chemical_formula_sum "Si O2"
_cell_formula_units_Z 60
_cell_length_a 17.956655
_cell_length_b 17.956655
_cell_length_c 8.618083
_cell_angle_alpha 90.000000
_cell_angle_beta 90.000000
_cell_angle_gamma 90.000000
_cell_volume 2778.827254
_symmetry_space_group_name_H-M "I 41"
_symmetry_group_IT_number 80
_symmetry_cell_setting 'tetragonal'
loop_
_space_group_symop_operation_xyz
x,y,z
-y,1/2+x,1/4+z
-x,-y,z
y,1/2-x,1/4+z
1/2+x,1/2+y,1/2+z
1/2-y,x,3/4+z
1/2-x,1/2-y,1/2+z
1/2+y,-x,3/4+z
loop_
_atom_site_type_symbol
_atom_site_label
_atom_site_fract_x
_atom_site_fract_y
_atom_site_fract_z
Si Si1 0.540271 0.725492 0.001170
Si Si2 0.000000 0.500000 0.482613
Si Si3 0.969835 0.594248 0.008846
Si Si4 0.987551 0.259173 0.176841
Si Si5 0.915323 0.626193 0.674967
Si Si6 0.126702 0.495757 0.249028
Si Si7 0.336275 0.770908 0.537302
Si Si8 0.928667 0.132185 0.712941
O O1 0.576869 0.790783 0.104599
O O2 0.480987 0.675734 0.094248
O O3 0.496398 0.763794 0.861023
O O4 0.602218 0.671425 0.923787
O O5 0.969747 0.568261 0.586189
O O6 0.934298 0.472121 0.369066
O O7 0.906681 0.559920 0.119912
O O8 0.000275 0.659706 0.114186
O O9 0.935762 0.629099 0.855010
O O10 0.044063 0.545015 0.963797
O O11 0.905027 0.233090 0.128111
O O12 0.040363 0.194712 0.098215
O O13 0.161277 0.561458 0.140653
O O14 0.283165 0.793998 0.675506
O O15 0.359611 0.841513 0.426555
#
# Coordination Sequence:
#
# PCOD8302216 Si02
#       8
#     8   4   8   8   8   8   8   8
#     4  12  27  47  72 104 143 180 238 296 351 425
#     4  12  24  42  74 110 136 180 234 296 350 412
#     4  11  24  43  74  99 140 182 235 294 357 417
#     4  11  26  45  68 101 137 189 237 292 355 420
#     4  12  27  46  72 107 141 184 235 293 357 421
#     4  12  21  42  72 103 137 174 233 293 348 416
#     4  11  26  44  63  95 141 189 233 280 352 425
#     4  11  23  44  68 101 135 184 231 295 351 417
#
# _framework density 21.591840999999999
#
# number of rings (size 3 to 8) (size 9 to 14) (size 15 to 20)
#    0.000    0.533    5.333    2.400    5.600    0.000 
#    0.000    1.333    0.000    0.000    0.000    0.000 
#    0.000    0.000    0.000    0.000    0.000    0.000 
#
# Total GULP energy -371756.278686 kJ/mol
# GULP energy per Si atom -12391.875956 kJ/mol
# Density = 2.154270 g / cm^3
# Si number density = 21.591841 Si / 1000 Ang^3
#
#
#
# Elastic Constant Matrix: (Units=GPa)
#
#
# Indices 1 2 3 4 5 6 
#
# 1 65.9382 41.7726 46.2657 0.0000 0.0000 4.5220
# 2 41.7726 65.9382 46.2657 0.0000 0.0000 -4.5220
# 3 46.2657 46.2657 131.9823 0.0000 0.0000 0.0000
# 4 0.0000 0.0000 0.0000 36.3463 0.0000 0.0000
# 5 0.0000 0.0000 0.0000 0.0000 36.3463 0.0000
# 6 4.5220 -4.5220 0.0000 0.0000 0.0000 21.2227
#
#
#
# Elastic Compliance Matrix: (Units=1/GPa)
#
#
# Indices 1 2 3 4 5 6 
#
# 1 0.029126 -0.015841 -0.004657 0.000000 0.000000 -0.009581
# 2 -0.015841 0.029126 -0.004657 0.000000 0.000000 0.009581
# 3 -0.004657 -0.004657 0.010842 0.000000 0.000000 0.000000
# 4 0.000000 0.000000 0.000000 0.027513 0.000000 0.000000
# 5 0.000000 0.000000 0.000000 0.000000 0.027513 0.000000
# 6 -0.009581 0.009581 0.000000 0.000000 0.000000 0.051202
#
#
# Mechanical properties :
#
#
# Convention : Reuss Voigt Hill
#
# Bulk Modulus (GPa) = 53.23804 59.16295 56.20049
# Shear Modulus (GPa) = 21.56172 27.42007 24.49090
#
# Velocity S-wave (km/s) = 3.16350 3.56747 3.37154
# Velocity P-wave (km/s) = 6.16877 6.66552 6.42195
#
# Compressibility (1/GPa) = 0.01878356
#
# Stress axis : x y z
#
# Youngs Moduli (GPa) = 34.33385 34.33385 92.23676
#
# Poissons Ratio (x) = 0.54388 0.42954
# Poissons Ratio (y) = 0.54388 0.42954
# Poissons Ratio (z) = 0.15989 0.15989
#
# Static dielectric constant tensor:
#      x y z
#    x 4.071750 0.000000 0.000000 
#    y 0.000000 4.071750 0.000000 
#    z 0.000000 0.000000 4.105150 
# 
# 
# High freq. dielectric constant tensor:
#      x y z
#    x 1.845980 0.000000 0.000000 
#    y 0.000000 1.845980 0.000000 
#    z 0.000000 0.000000 1.868950 
# 
# From -- ./inp_files/743.got.cif
#   From: 2010.03.12/outbox.cif.g09.slc.cpg/sg80_cif.got.tgz:743.got - 2010.04.08 20:00:04.
