data_PCOD8302567
_publ_section_title
;
Structure prediction by ZEFSAII (Michael W. Deem and Ramdas Pophale) SiO2 
 PCOD8302567
Probable space group: I -4 
;
_chemical_formula_sum "Si O2"
_cell_formula_units_Z 34
_cell_length_a 11.435155
_cell_length_b 11.435155
_cell_length_c 11.060776
_cell_angle_alpha 90.000000
_cell_angle_beta 90.000000
_cell_angle_gamma 90.000000
_cell_volume 1446.337707
_symmetry_space_group_name_H-M "I -4 "
_symmetry_group_IT_number 82
_symmetry_cell_setting 'tetragonal'
loop_
_space_group_symop_operation_xyz
x,y,z
y,-x,-z
-x,-y,z
-y,x,-z
1/2+x,1/2+y,1/2+z
1/2+y,1/2-x,1/2-z
1/2-x,1/2-y,1/2+z
1/2-y,1/2+x,1/2-z
loop_
_atom_site_type_symbol
_atom_site_label
_atom_site_fract_x
_atom_site_fract_y
_atom_site_fract_z
Si Si1 0.344350 0.508089 0.071768
Si Si2 0.333798 0.387761 0.315515
Si Si3 0.596427 0.100261 0.549080
Si Si4 0.000000 0.000000 0.000000
Si Si5 0.116118 0.361377 0.717543
O O1 0.383103 0.460628 0.202311
O O2 0.209321 0.528578 0.085833
O O3 0.413930 0.626033 0.034642
O O4 0.204296 0.430024 0.356319
O O5 0.426567 0.406941 0.422040
O O6 0.325543 0.250719 0.280163
O O7 0.617595 0.161308 0.418827
O O8 0.500000 0.000000 0.549060
O O9 0.152008 0.475313 0.794207
#
# Coordination Sequence:
#
# PCOD8302567 Si02
#       5
#     8   8   8   2   8
#     4  11  26  48  77 109 149 207 259 311 394 471
#     4  12  29  47  79 117 159 203 262 337 391 470
#     4  12  28  48  76 115 155 202 262 327 388 463
#     4  12  28  48  74 116 164 200 268 330 412 444
#     4  11  24  47  78 109 151 210 264 312 392 479
#
# _framework density 23.507650000000002
#
# number of rings (size 3 to 8) (size 9 to 14) (size 15 to 20)
#    0.000    0.471    4.706    2.824    6.588    1.882 
#    0.000    0.000    0.000    0.000    0.000    0.000 
#    0.000    0.000    0.000    0.000    0.000    0.000 
#
# Total GULP energy -210782.109857 kJ/mol
# GULP energy per Si atom -12398.947639 kJ/mol
# Density = 2.345415 g / cm^3
# Si number density = 23.507650 Si / 1000 Ang^3
#
#
#
# Elastic Constant Matrix: (Units=GPa)
#
#
# Indices 1 2 3 4 5 6 
#
# 1 77.6449 46.4242 41.7967 0.0000 0.0000 -9.8022
# 2 46.4242 77.6449 41.7967 0.0000 0.0000 9.8022
# 3 41.7967 41.7967 138.7433 0.0000 0.0000 0.0000
# 4 0.0000 0.0000 0.0000 37.4292 0.0000 0.0000
# 5 0.0000 0.0000 0.0000 0.0000 37.4292 0.0000
# 6 -9.8022 9.8022 0.0000 0.0000 0.0000 34.6047
#
#
#
# Elastic Compliance Matrix: (Units=1/GPa)
#
#
# Indices 1 2 3 4 5 6 
#
# 1 0.024536 -0.014424 -0.003046 0.000000 0.000000 0.011036
# 2 -0.014424 0.024536 -0.003046 0.000000 0.000000 -0.011036
# 3 -0.003046 -0.003046 0.009043 0.000000 0.000000 0.000000
# 4 0.000000 0.000000 0.000000 0.026717 0.000000 0.000000
# 5 0.000000 0.000000 0.000000 0.000000 0.026717 0.000000
# 6 0.011036 -0.011036 0.000000 0.000000 0.000000 0.035150
#
#
# Mechanical properties :
#
#
# Convention : Reuss Voigt Hill
#
# Bulk Modulus (GPa) = 58.53946 61.56313 60.05130
# Shear Modulus (GPa) = 25.84963 32.82702 29.33833
#
# Velocity S-wave (km/s) = 3.31966 3.74095 3.53658
# Velocity P-wave (km/s) = 6.29681 6.70112 6.50211
#
# Compressibility (1/GPa) = 0.01708250
#
# Stress axis : x y z
#
# Youngs Moduli (GPa) = 40.75618 40.75618 110.58221
#
# Poissons Ratio (x) = 0.58785 0.33688
# Poissons Ratio (y) = 0.58785 0.33688
# Poissons Ratio (z) = 0.12416 0.12416
#
# Static dielectric constant tensor:
#      x y z
#    x 4.139600 0.000000 0.000000 
#    y 0.000000 4.139600 0.000000 
#    z 0.000000 0.000000 4.476700 
# 
# 
# High freq. dielectric constant tensor:
#      x y z
#    x 1.928520 0.000000 0.000000 
#    y 0.000000 1.928520 0.000000 
#    z 0.000000 0.000000 1.944110 
# 
# From -- ./inp_files/1557.got.cif
#   From: 2010.03.12/outbox.cif.g09.slc.cpg/sg82_1_cif.got.tgz:1557.got - 2010.04.08 20:02:50.
