data_PCOD8302717
_publ_section_title
;
Structure prediction by ZEFSAII (Michael W. Deem and Ramdas Pophale) SiO2 
 PCOD8302717
Probable space group: P 4/M
;
_chemical_formula_sum "Si O2"
_cell_formula_units_Z 56
_cell_length_a 11.233357
_cell_length_b 11.233357
_cell_length_c 22.120695
_cell_angle_alpha 90.000000
_cell_angle_beta 90.000000
_cell_angle_gamma 90.000000
_cell_volume 2791.373107
_symmetry_space_group_name_H-M "P 4/M"
_symmetry_group_IT_number 83
_symmetry_cell_setting 'tetragonal'
loop_
_space_group_symop_operation_xyz
x,y,z
-y,x,z
-x,-y,z
y,-x,z
-x,-y,-z
y,-x,-z
x,y,-z
-y,x,-z
loop_
_atom_site_type_symbol
_atom_site_label
_atom_site_fract_x
_atom_site_fract_y
_atom_site_fract_z
Si Si1 0.186022 0.936376 0.857905
Si Si2 0.645556 0.212887 0.929469
Si Si3 0.319820 0.571599 0.570228
Si Si4 0.564394 0.883849 0.659401
Si Si5 0.576047 0.764389 0.140694
Si Si6 0.638495 0.967603 0.776106
Si Si7 0.519396 0.312311 0.262069
O O1 0.266337 0.897466 0.914870
O O2 0.073148 0.852047 0.858944
O O3 0.271042 0.927002 0.797466
O O4 0.512352 0.176933 0.908706
O O5 0.678809 0.333989 0.894464
O O6 0.649188 0.238385 0.000000
O O7 0.347696 0.433909 0.586555
O O8 0.289700 0.584894 0.500000
O O9 0.202483 0.613577 0.606877
O O10 0.667512 0.927393 0.706669
O O11 0.469687 0.812449 0.702334
O O12 0.500000 0.000000 0.630557
O O13 0.656981 0.860076 0.176160
O O14 0.488952 0.699544 0.189593
O O15 0.500000 0.000000 0.779768
O O16 0.628441 0.394129 0.282912
#
# Coordination Sequence:
#
# PCOD8302717 Si02
#       7
#     8   8   8   8   8   8   8
#     4  11  24  44  66  85 109 149 200 254 305 358
#     4  12  25  40  61  87 118 153 192 242 306 385
#     4   9  18  36  61  90 129 170 208 250 292 342
#     4  10  21  32  52  88 122 160 199 241 295 351
#     4  11  21  38  59  85 119 149 189 238 310 374
#     4  10  20  39  62  85 118 151 193 250 307 364
#     4  10  19  33  58  84 113 153 198 248 299 363
#
# _framework density 20.061810999999999
#
# number of rings (size 3 to 8) (size 9 to 14) (size 15 to 20)
#    0.000    1.571    4.286    1.714    0.000    2.286 
#    5.143    2.143    0.000    0.000    0.000    0.000 
#    0.000    0.000    0.000   10.143    0.000    0.000 
#
# Total GULP energy -693773.651338 kJ/mol
# GULP energy per Si atom -12388.815202 kJ/mol
# Density = 2.001615 g / cm^3
# Si number density = 20.061811 Si / 1000 Ang^3
#
#
#
# Elastic Constant Matrix: (Units=GPa)
#
#
# Indices 1 2 3 4 5 6 
#
# 1 76.7640 14.2500 19.0419 0.0000 0.0000 3.6618
# 2 14.2500 76.7640 19.0419 0.0000 0.0000 -3.6618
# 3 19.0419 19.0419 89.8323 0.0000 0.0000 0.0000
# 4 0.0000 0.0000 0.0000 26.5529 0.0000 0.0000
# 5 0.0000 0.0000 0.0000 0.0000 26.5529 0.0000
# 6 3.6618 -3.6618 0.0000 0.0000 0.0000 16.3548
#
#
#
# Elastic Compliance Matrix: (Units=1/GPa)
#
#
# Indices 1 2 3 4 5 6 
#
# 1 0.014242 -0.002185 -0.002556 0.000000 0.000000 -0.003678
# 2 -0.002185 0.014242 -0.002556 0.000000 0.000000 0.003678
# 3 -0.002556 -0.002556 0.012215 0.000000 0.000000 0.000000
# 4 0.000000 0.000000 0.000000 0.037661 0.000000 0.000000
# 5 0.000000 0.000000 0.000000 0.000000 0.037661 0.000000
# 6 -0.003678 0.003678 0.000000 0.000000 0.000000 0.062791
#
#
# Mechanical properties :
#
#
# Convention : Reuss Voigt Hill
#
# Bulk Modulus (GPa) = 38.30536 38.66980 38.48758
# Shear Modulus (GPa) = 24.73935 26.62721 25.68328
#
# Velocity S-wave (km/s) = 3.51544 3.64711 3.58188
# Velocity P-wave (km/s) = 5.96765 6.08707 6.02766
#
# Compressibility (1/GPa) = 0.02610601
#
# Stress axis : x y z
#
# Youngs Moduli (GPa) = 70.21479 70.21479 81.86441
#
# Poissons Ratio (x) = 0.15344 0.20922
# Poissons Ratio (y) = 0.15344 0.20922
# Poissons Ratio (z) = 0.17945 0.17945
#
# Static dielectric constant tensor:
#      x y z
#    x 3.642260 0.000000 0.000000 
#    y 0.000000 3.642260 0.000000 
#    z 0.000000 0.000000 3.697180 
# 
# 
# High freq. dielectric constant tensor:
#      x y z
#    x 1.773010 0.000000 0.000000 
#    y 0.000000 1.773010 0.000000 
#    z 0.000000 0.000000 1.770970 
# 
# From -- ./inp_files/2993.got.cif
#   From: 2010.03.12/outbox.cif.g09.slc.cpg/sg83_2_cif.got.tgz:2993.got - 2010.04.08 20:05:18.
