data_PCOD8302586
_publ_section_title
;
Structure prediction by ZEFSAII (Michael W. Deem and Ramdas Pophale) SiO2 
 PCOD8302586
Probable space group: I -4 
;
_chemical_formula_sum "Si O2"
_cell_formula_units_Z 20
_cell_length_a 5.265183
_cell_length_b 5.265183
_cell_length_c 27.531574
_cell_angle_alpha 90.000000
_cell_angle_beta 90.000000
_cell_angle_gamma 90.000000
_cell_volume 763.234480
_symmetry_space_group_name_H-M "I -4 "
_symmetry_group_IT_number 82
_symmetry_cell_setting 'tetragonal'
loop_
_space_group_symop_operation_xyz
x,y,z
y,-x,-z
-x,-y,z
-y,x,-z
1/2+x,1/2+y,1/2+z
1/2+y,1/2-x,1/2-z
1/2-x,1/2-y,1/2+z
1/2-y,1/2+x,1/2-z
loop_
_atom_site_type_symbol
_atom_site_label
_atom_site_fract_x
_atom_site_fract_y
_atom_site_fract_z
Si Si1 0.251308 0.166366 0.323422
Si Si2 0.500000 0.500000 0.000000
Si Si3 0.241446 0.843666 0.069008
Si Si4 0.500000 0.000000 0.750000
O O1 0.261700 0.305170 0.375487
O O2 0.226913 0.385713 0.282984
O O3 0.500000 0.000000 0.312460
O O4 0.000000 0.000000 0.321788
O O5 0.270732 0.599146 0.034255
O O6 0.500000 0.000000 0.065275
O O7 0.000000 0.000000 0.050223
#
# Coordination Sequence:
#
# PCOD8302586 Si02
#       4
#     8   2   8   2
#     4  11  29  55  81 125 170 227 282 352 424 503
#     4  12  28  52  84 128 168 224 292 340 436 498
#     4  11  29  53  85 120 174 224 284 351 426 505
#     4  12  32  48  92 120 176 216 296 336 436 498
#
# _framework density 26.204263999999998
#
# number of rings (size 3 to 8) (size 9 to 14) (size 15 to 20)
#    0.000    0.800    2.000    0.000   22.400    0.000 
#    0.000    0.000    0.000    0.000    0.000    0.000 
#    0.000    0.000    0.000    0.000    0.000    0.000 
#
# Total GULP energy -124083.108129 kJ/mol
# GULP energy per Si atom -12408.310813 kJ/mol
# Density = 2.614462 g / cm^3
# Si number density = 26.204264 Si / 1000 Ang^3
#
#
#
# Elastic Constant Matrix: (Units=GPa)
#
#
# Indices 1 2 3 4 5 6 
#
# 1 158.5182 64.2781 66.6357 0.0000 0.0000 -8.6397
# 2 64.2781 158.5182 66.6357 0.0000 0.0000 8.6397
# 3 66.6357 66.6357 203.5145 0.0000 0.0000 0.0000
# 4 0.0000 0.0000 0.0000 -1.9295 0.0000 0.0000
# 5 0.0000 0.0000 0.0000 0.0000 -1.9295 0.0000
# 6 -8.6397 8.6397 0.0000 0.0000 0.0000 60.8277
#
#
#
# Elastic Compliance Matrix: (Units=1/GPa)
#
#
# Indices 1 2 3 4 5 6 
#
# 1 0.008238 -0.002657 -0.001828 0.000000 0.000000 0.001547
# 2 -0.002657 0.008238 -0.001828 0.000000 0.000000 -0.001547
# 3 -0.001828 -0.001828 0.006110 0.000000 0.000000 0.000000
# 4 0.000000 0.000000 0.000000 -0.518268 -0.000007 0.000000
# 5 0.000000 0.000000 0.000000 -0.000007 -0.518268 0.000000
# 6 0.001547 -0.001547 0.000000 0.000000 0.000000 0.016879
#
#
# Mechanical properties :
#
#
# Convention : Reuss Voigt Hill
#
# Bulk Modulus (GPa) = 100.36720 101.73889 101.05305
# Shear Modulus (GPa) = -5.09619 32.92716 13.91549
#
# Velocity S-wave (km/s) = -1.39607 3.54864 2.30693
# Velocity P-wave (km/s) = 5.98217 7.46325 6.76337
#
# Compressibility (1/GPa) = 0.00996341
#
# Stress axis : x y z
#
# Youngs Moduli (GPa) = 121.38474 121.38474 163.65455
#
# Poissons Ratio (x) = 0.32248 0.29909
# Poissons Ratio (y) = 0.32248 0.29909
# Poissons Ratio (z) = 0.22184 0.22184
#
# Static dielectric constant tensor:
#      x y z
#    x 4.000430 0.000000 0.000000 
#    y 0.000000 4.000430 0.000000 
#    z 0.000000 0.000000 5.380910 
# 
# 
# High freq. dielectric constant tensor:
#      x y z
#    x 2.049500 0.000000 0.000000 
#    y 0.000000 2.049500 0.000000 
#    z 0.000000 0.000000 2.077690 
# 
# From -- ./inp_files/3580.got.cif
#   From: 2010.03.12/outbox.cif.g09.slc.cpg/sg82_2_cif.got.tgz:3580.got - 2010.04.08 20:02:50.
