data_PCOD8302569
_publ_section_title
;
Structure prediction by ZEFSAII (Michael W. Deem and Ramdas Pophale) SiO2 
 PCOD8302569
Probable space group: I -4 
;
_chemical_formula_sum "Si O2"
_cell_formula_units_Z 34
_cell_length_a 11.440206
_cell_length_b 11.440206
_cell_length_c 10.988109
_cell_angle_alpha 90.000000
_cell_angle_beta 90.000000
_cell_angle_gamma 90.000000
_cell_volume 1438.105173
_symmetry_space_group_name_H-M "I -4 "
_symmetry_group_IT_number 82
_symmetry_cell_setting 'tetragonal'
loop_
_space_group_symop_operation_xyz
x,y,z
y,-x,-z
-x,-y,z
-y,x,-z
1/2+x,1/2+y,1/2+z
1/2+y,1/2-x,1/2-z
1/2-x,1/2-y,1/2+z
1/2-y,1/2+x,1/2-z
loop_
_atom_site_type_symbol
_atom_site_label
_atom_site_fract_x
_atom_site_fract_y
_atom_site_fract_z
Si Si1 0.173856 0.978016 0.452271
Si Si2 0.665026 0.045203 0.804183
Si Si3 0.590762 0.329674 0.305683
Si Si4 0.923508 0.394944 0.949739
Si Si5 0.500000 0.500000 0.500000
O O1 0.169767 0.007940 0.310252
O O2 0.132019 0.088272 0.531325
O O3 0.301709 0.945199 0.500625
O O4 0.640643 0.938506 0.710515
O O5 0.788318 0.105255 0.774870
O O6 0.665192 0.995469 0.941147
O O7 0.610031 0.195509 0.343536
O O8 0.522407 0.388601 0.416249
O O9 0.000000 0.500000 0.893071
#
# Coordination Sequence:
#
# PCOD8302569 Si02
#       5
#     8   8   8   8   2
#     4  11  28  50  76 112 155 206 259 322 391 462
#     4  11  24  48  79 112 154 209 261 310 386 472
#     4  12  28  48  81 114 159 201 264 331 389 467
#     4  12  28  50  77 115 156 203 262 319 392 464
#     4  12  24  48  78 120 152 204 264 326 404 452
#
# _framework density 23.642219999999998
#
# number of rings (size 3 to 8) (size 9 to 14) (size 15 to 20)
#    0.000    0.471    4.706    2.824    6.588    3.765 
#    0.000    0.000    0.000    0.000    0.000    0.000 
#    0.000    0.000    0.000    0.000    0.000    0.000 
#
# Total GULP energy -210885.362573 kJ/mol
# GULP energy per Si atom -12405.021328 kJ/mol
# Density = 2.358841 g / cm^3
# Si number density = 23.642220 Si / 1000 Ang^3
#
#
#
# Elastic Constant Matrix: (Units=GPa)
#
#
# Indices 1 2 3 4 5 6 
#
# 1 105.5100 48.8569 31.3761 0.0000 0.0000 -2.9497
# 2 48.8569 105.5100 31.3761 0.0000 0.0000 2.9497
# 3 31.3761 31.3761 110.9356 0.0000 0.0000 0.0000
# 4 0.0000 0.0000 0.0000 34.7972 0.0000 0.0000
# 5 0.0000 0.0000 0.0000 0.0000 34.7972 0.0000
# 6 -2.9497 2.9497 0.0000 0.0000 0.0000 37.9798
#
#
#
# Elastic Compliance Matrix: (Units=1/GPa)
#
#
# Indices 1 2 3 4 5 6 
#
# 1 0.012557 -0.005238 -0.002070 0.000000 0.000000 0.001382
# 2 -0.005238 0.012557 -0.002070 0.000000 0.000000 -0.001382
# 3 -0.002070 -0.002070 0.010185 0.000000 0.000000 0.000000
# 4 0.000000 0.000000 0.000000 0.028738 0.000000 0.000000
# 5 0.000000 0.000000 0.000000 0.000000 0.028738 0.000000
# 6 0.001382 -0.001382 0.000000 0.000000 0.000000 0.026544
#
#
# Mechanical properties :
#
#
# Convention : Reuss Voigt Hill
#
# Bulk Modulus (GPa) = 60.44607 60.57488 60.51047
# Shear Modulus (GPa) = 34.82101 35.53794 35.17947
#
# Velocity S-wave (km/s) = 3.84191 3.88126 3.86164
# Velocity P-wave (km/s) = 6.73074 6.76481 6.74780
#
# Compressibility (1/GPa) = 0.01654367
#
# Stress axis : x y z
#
# Youngs Moduli (GPa) = 79.63421 79.63421 98.18075
#
# Poissons Ratio (x) = 0.41711 0.20326
# Poissons Ratio (y) = 0.41711 0.20326
# Poissons Ratio (z) = 0.16486 0.16486
#
# Static dielectric constant tensor:
#      x y z
#    x 4.344070 0.000000 0.000000 
#    y 0.000000 4.344070 0.000000 
#    z 0.000000 0.000000 4.095990 
# 
# 
# High freq. dielectric constant tensor:
#      x y z
#    x 1.941730 0.000000 0.000000 
#    y 0.000000 1.941730 0.000000 
#    z 0.000000 0.000000 1.944930 
# 
# From -- ./inp_files/1583.got.cif
#   From: 2010.03.12/outbox.cif.g09.slc.cpg/sg82_1_cif.got.tgz:1583.got - 2010.04.08 20:02:50.
