data_PCOD8302582
_publ_section_title
;
Structure prediction by ZEFSAII (Michael W. Deem and Ramdas Pophale) SiO2 
 PCOD8302582
Probable space group: I -4 
;
_chemical_formula_sum "Si O2"
_cell_formula_units_Z 28
_cell_length_a 10.709398
_cell_length_b 10.709398
_cell_length_c 10.195529
_cell_angle_alpha 90.000000
_cell_angle_beta 90.000000
_cell_angle_gamma 90.000000
_cell_volume 1169.337512
_symmetry_space_group_name_H-M "I -4 "
_symmetry_group_IT_number 82
_symmetry_cell_setting 'tetragonal'
loop_
_space_group_symop_operation_xyz
x,y,z
y,-x,-z
-x,-y,z
-y,x,-z
1/2+x,1/2+y,1/2+z
1/2+y,1/2-x,1/2-z
1/2-x,1/2-y,1/2+z
1/2-y,1/2+x,1/2-z
loop_
_atom_site_type_symbol
_atom_site_label
_atom_site_fract_x
_atom_site_fract_y
_atom_site_fract_z
Si Si1 0.930015 0.254504 0.094538
Si Si2 0.819439 0.546411 0.691536
Si Si3 0.000000 0.000000 0.500000
Si Si4 0.000000 0.000000 0.000000
Si Si5 0.697922 0.394056 0.188470
O O1 0.926144 0.103267 0.085537
O O2 0.788854 0.298859 0.114884
O O3 0.020340 0.284253 0.217060
O O4 0.981704 0.322624 0.963964
O O5 0.848110 0.422200 0.773981
O O6 0.682185 0.597473 0.725428
O O7 0.124430 0.979616 0.585328
#
# Coordination Sequence:
#
# PCOD8302582 Si02
#       5
#     8   8   2   2   8
#     4  12  27  47  77 112 156 202 264 316 399 450
#     4  11  26  48  77 110 155 206 259 323 385 468
#     4  12  30  52  74 120 156 214 264 322 388 452
#     4  12  22  48  76 106 152 206 248 316 386 468
#     4  12  29  46  80 112 158 200 263 327 385 469
#
# _framework density 23.945184999999999
#
# number of rings (size 3 to 8) (size 9 to 14) (size 15 to 20)
#    0.000    0.286    2.857    4.286    8.000    5.143 
#    0.000    0.000    0.000    0.000    0.000    0.000 
#    0.000    0.000    0.000    0.000    0.000    0.000 
#
# Total GULP energy -173695.954397 kJ/mol
# GULP energy per Si atom -12406.853885 kJ/mol
# Density = 2.389068 g / cm^3
# Si number density = 23.945185 Si / 1000 Ang^3
#
#
#
# Elastic Constant Matrix: (Units=GPa)
#
#
# Indices 1 2 3 4 5 6 
#
# 1 113.6789 34.2856 55.8688 0.0000 0.0000 -9.0163
# 2 34.2856 113.6789 55.8688 0.0000 0.0000 9.0163
# 3 55.8688 55.8688 163.2056 0.0000 0.0000 0.0000
# 4 0.0000 0.0000 0.0000 38.8427 0.0000 0.0000
# 5 0.0000 0.0000 0.0000 0.0000 38.8427 0.0000
# 6 -9.0163 9.0163 0.0000 0.0000 0.0000 60.3234
#
#
#
# Elastic Compliance Matrix: (Units=1/GPa)
#
#
# Indices 1 2 3 4 5 6 
#
# 1 0.011076 -0.001962 -0.003120 0.000000 0.000000 0.001949
# 2 -0.001962 0.011076 -0.003120 0.000000 0.000000 -0.001949
# 3 -0.003120 -0.003120 0.008263 0.000000 0.000000 0.000000
# 4 0.000000 0.000000 0.000000 0.025745 0.000000 0.000000
# 5 0.000000 0.000000 0.000000 0.000000 0.025745 0.000000
# 6 0.001949 -0.001949 0.000000 0.000000 0.000000 0.017160
#
#
# Mechanical properties :
#
#
# Convention : Reuss Voigt Hill
#
# Bulk Modulus (GPa) = 71.36690 75.84553 73.60622
# Shear Modulus (GPa) = 41.61799 43.90447 42.76123
#
# Velocity S-wave (km/s) = 4.17352 4.28663 4.23045
# Velocity P-wave (km/s) = 7.28652 7.49958 7.39382
#
# Compressibility (1/GPa) = 0.01401210
#
# Stress axis : x y z
#
# Youngs Moduli (GPa) = 90.28242 90.28242 121.01551
#
# Poissons Ratio (x) = 0.17711 0.37758
# Poissons Ratio (y) = 0.17711 0.37758
# Poissons Ratio (z) = 0.28169 0.28169
#
# Static dielectric constant tensor:
#      x y z
#    x 4.200080 0.000000 0.000000 
#    y 0.000000 4.200080 0.000000 
#    z 0.000000 0.000000 4.392010 
# 
# 
# High freq. dielectric constant tensor:
#      x y z
#    x 1.951240 0.000000 0.000000 
#    y 0.000000 1.951240 0.000000 
#    z 0.000000 0.000000 1.956890 
# 
# From -- ./inp_files/641.got.cif
#   From: 2010.03.12/outbox.cif.g09.slc.cpg/sg82_1_cif.got.tgz:641.got - 2010.04.08 20:02:50.
