data_PCOD8302171
_publ_section_title
;
Structure prediction by ZEFSAII (Michael W. Deem and Ramdas Pophale) SiO2 
 PCOD8302171
Probable space group: I 41
;
_chemical_formula_sum "Si O2"
_cell_formula_units_Z 60
_cell_length_a 17.346367
_cell_length_b 17.346367
_cell_length_c 9.170367
_cell_angle_alpha 90.000000
_cell_angle_beta 90.000000
_cell_angle_gamma 90.000000
_cell_volume 2759.330858
_symmetry_space_group_name_H-M "I 41"
_symmetry_group_IT_number 80
_symmetry_cell_setting 'tetragonal'
loop_
_space_group_symop_operation_xyz
x,y,z
-y,1/2+x,1/4+z
-x,-y,z
y,1/2-x,1/4+z
1/2+x,1/2+y,1/2+z
1/2-y,x,3/4+z
1/2-x,1/2-y,1/2+z
1/2+y,-x,3/4+z
loop_
_atom_site_type_symbol
_atom_site_label
_atom_site_fract_x
_atom_site_fract_y
_atom_site_fract_z
Si Si1 0.991749 0.721912 0.605940
Si Si2 0.401609 0.910535 0.059965
Si Si3 0.467423 0.875568 0.626382
Si Si4 0.972398 0.105042 0.620638
Si Si5 0.755199 0.161353 0.973290
Si Si6 0.850781 0.924889 0.636944
Si Si7 0.000000 0.500000 0.353069
Si Si8 0.239756 0.327410 0.779719
O O1 0.974209 0.692395 0.766681
O O2 0.913839 0.729143 0.512126
O O3 0.047330 0.664292 0.517211
O O4 0.033015 0.803048 0.625364
O O5 0.422379 0.929034 0.226051
O O6 0.312315 0.889583 0.044553
O O7 0.425257 0.983152 0.956386
O O8 0.426856 0.933604 0.514857
O O9 0.400410 0.820144 0.682676
O O10 0.536011 0.829774 0.542636
O O11 0.509390 0.923772 0.754392
O O12 0.057879 0.071097 0.611648
O O13 0.723768 0.208946 0.834501
O O14 0.823369 0.836740 0.630499
O O15 0.225932 0.300498 0.614714
#
# Coordination Sequence:
#
# PCOD8302171 Si02
#       8
#     8   8   8   8   8   8   4   8
#     4  10  22  39  70  98 128 178 230 289 337 431
#     4  12  25  47  67 105 140 187 238 298 364 433
#     4  12  25  46  67 100 140 192 238 303 362 441
#     4  11  23  40  72  96 131 183 239 284 357 434
#     4  12  30  48  69 106 150 195 244 303 380 454
#     4  10  20  41  68  99 126 171 241 278 345 414
#     4  12  26  46  70 100 150 178 242 312 354 426
#     4   9  20  42  64  98 131 167 219 276 338 410
#
# _framework density 21.744399999999999
#
# number of rings (size 3 to 8) (size 9 to 14) (size 15 to 20)
#    0.000    1.067    4.000    1.600    5.600    0.000 
#    4.800    1.333    0.000    0.000    0.000    0.000 
#    0.000    0.000    0.000    0.000    0.000    0.000 
#
# Total GULP energy -371977.099995 kJ/mol
# GULP energy per Si atom -12399.236666 kJ/mol
# Density = 2.169491 g / cm^3
# Si number density = 21.744400 Si / 1000 Ang^3
#
#
#
# Elastic Constant Matrix: (Units=GPa)
#
#
# Indices 1 2 3 4 5 6 
#
# 1 78.7410 51.6295 30.9714 0.0000 0.0000 -0.0950
# 2 51.6295 78.7410 30.9714 0.0000 0.0000 0.0950
# 3 30.9714 30.9714 60.3704 0.0000 0.0000 0.0000
# 4 0.0000 0.0000 0.0000 38.1331 0.0000 0.0000
# 5 0.0000 0.0000 0.0000 0.0000 38.1331 0.0000
# 6 -0.0950 0.0950 0.0000 0.0000 0.0000 44.9091
#
#
#
# Elastic Compliance Matrix: (Units=1/GPa)
#
#
# Indices 1 2 3 4 5 6 
#
# 1 0.023514 -0.013371 -0.005203 0.000000 0.000000 0.000078
# 2 -0.013371 0.023514 -0.005203 0.000000 0.000000 -0.000078
# 3 -0.005203 -0.005203 0.021903 0.000000 0.000000 0.000000
# 4 0.000000 0.000000 0.000000 0.026224 0.000000 0.000000
# 5 0.000000 0.000000 0.000000 0.000000 0.026224 0.000000
# 6 0.000078 -0.000078 0.000000 0.000000 0.000000 0.022268
#
#
# Mechanical properties :
#
#
# Convention : Reuss Voigt Hill
#
# Bulk Modulus (GPa) = 46.78352 49.44413 48.11382
# Shear Modulus (GPa) = 25.21070 31.18703 28.19887
#
# Velocity S-wave (km/s) = 3.40871 3.79127 3.60506
# Velocity P-wave (km/s) = 6.08722 6.47712 6.28520
#
# Compressibility (1/GPa) = 0.02137505
#
# Stress axis : x y z
#
# Youngs Moduli (GPa) = 42.52779 42.52779 45.65492
#
# Poissons Ratio (x) = 0.56865 0.23756
# Poissons Ratio (y) = 0.56865 0.23756
# Poissons Ratio (z) = 0.22129 0.22129
#
# Static dielectric constant tensor:
#      x y z
#    x 4.099880 0.000000 0.000000 
#    y 0.000000 4.099880 0.000000 
#    z 0.000000 0.000000 3.931260 
# 
# 
# High freq. dielectric constant tensor:
#      x y z
#    x 1.859410 0.000000 0.000000 
#    y 0.000000 1.859410 0.000000 
#    z 0.000000 0.000000 1.855450 
# 
# From -- ./inp_files/745.got.cif
#   From: 2010.03.12/outbox.cif.g09.slc.cpg/sg80_cif.got.tgz:745.got - 2010.04.08 20:00:04.
