data_PCOD8302554
_publ_section_title
;
Structure prediction by ZEFSAII (Michael W. Deem and Ramdas Pophale) SiO2 
 PCOD8302554
Probable space group: I -4 
;
_chemical_formula_sum "Si O2"
_cell_formula_units_Z 18
_cell_length_a 8.137557
_cell_length_b 8.137557
_cell_length_c 9.793457
_cell_angle_alpha 90.000000
_cell_angle_beta 90.000000
_cell_angle_gamma 90.000000
_cell_volume 648.521096
_symmetry_space_group_name_H-M "I -4 "
_symmetry_group_IT_number 82
_symmetry_cell_setting 'tetragonal'
loop_
_space_group_symop_operation_xyz
x,y,z
y,-x,-z
-x,-y,z
-y,x,-z
1/2+x,1/2+y,1/2+z
1/2+y,1/2-x,1/2-z
1/2-x,1/2-y,1/2+z
1/2-y,1/2+x,1/2-z
loop_
_atom_site_type_symbol
_atom_site_label
_atom_site_fract_x
_atom_site_fract_y
_atom_site_fract_z
Si Si1 0.500000 0.500000 0.000000
Si Si2 0.668535 0.904581 0.596571
Si Si3 0.322640 0.817810 0.200566
O O1 0.332065 0.522355 0.088580
O O2 0.676610 0.789873 0.730802
O O3 0.660982 0.790021 0.460718
O O4 0.500000 0.000000 0.607602
O O5 0.515728 0.776682 0.217545
#
# Coordination Sequence:
#
# PCOD8302554 Si02
#       3
#     2   8   8
#     4  12  24  52  76 118 176 220 288 386 412 552
#     4  12  25  52  86 125 177 240 296 374 465 532
#     4  11  23  53  83 124 182 232 301 381 442 553
#
# _framework density 27.755458000000001
#
# number of rings (size 3 to 8) (size 9 to 14) (size 15 to 20)
#    0.000    0.444    8.889    0.000    0.000    0.000 
#   24.000    0.000    0.000   12.000    0.000    0.000 
#    0.000    0.000    0.000    0.000    0.000    0.000 
#
# Total GULP energy -111666.523530 kJ/mol
# GULP energy per Si atom -12407.391503 kJ/mol
# Density = 2.769229 g / cm^3
# Si number density = 27.755458 Si / 1000 Ang^3
#
#
#
# Elastic Constant Matrix: (Units=GPa)
#
#
# Indices 1 2 3 4 5 6 
#
# 1 175.0413 89.0681 73.5894 0.0000 0.0000 0.9603
# 2 89.0681 175.0414 73.5897 0.0001 0.0000 -0.9603
# 3 73.5894 73.5897 212.7120 0.0002 0.0000 0.0000
# 4 0.0000 0.0001 0.0002 46.0639 0.0000 0.0000
# 5 0.0000 0.0000 0.0000 0.0000 46.0637 0.0000
# 6 0.9603 -0.9603 0.0000 0.0000 0.0000 69.7006
#
#
#
# Elastic Compliance Matrix: (Units=1/GPa)
#
#
# Indices 1 2 3 4 5 6 
#
# 1 0.008163 -0.003472 -0.001623 0.000000 0.000000 -0.000160
# 2 -0.003472 0.008163 -0.001623 0.000000 0.000000 0.000160
# 3 -0.001623 -0.001623 0.005824 0.000000 0.000000 0.000000
# 4 0.000000 0.000000 0.000000 0.021709 0.000000 0.000000
# 5 0.000000 0.000000 0.000000 0.000000 0.021709 0.000000
# 6 -0.000160 0.000160 0.000000 0.000000 0.000000 0.014352
#
#
# Mechanical properties :
#
#
# Convention : Reuss Voigt Hill
#
# Bulk Modulus (GPa) = 114.75517 115.03212 114.89365
# Shear Modulus (GPa) = 51.94291 54.13547 53.03919
#
# Velocity S-wave (km/s) = 4.33072 4.42117 4.37618
# Velocity P-wave (km/s) = 8.15118 8.22175 8.18654
#
# Compressibility (1/GPa) = 0.00871420
#
# Stress axis : x y z
#
# Youngs Moduli (GPa) = 122.50607 122.50602 171.70305
#
# Poissons Ratio (x) = 0.42537 0.27863
# Poissons Ratio (y) = 0.42537 0.27863
# Poissons Ratio (z) = 0.19880 0.19880
#
# Static dielectric constant tensor:
#      x y z
#    x 5.037940 0.000000 0.000000 
#    y 0.000000 5.037940 0.000000 
#    z 0.000000 0.000000 5.756380 
# 
# 
# High freq. dielectric constant tensor:
#      x y z
#    x 2.130200 0.000000 0.000000 
#    y 0.000000 2.130200 0.000000 
#    z 0.000000 0.000000 2.150010 
# 
# From -- ./inp_files/1286.got.cif
#   From: 2010.03.12/outbox.cif.g09.slc.cpg/sg82_1_cif.got.tgz:1286.got - 2010.04.08 20:02:50.
