data_PCOD8302052
_publ_section_title
;
Structure prediction by ZEFSAII (Michael W. Deem and Ramdas Pophale) SiO2 
 PCOD8302052
Probable space group: P 43
;
_chemical_formula_sum "Si O2"
_cell_formula_units_Z 32
_cell_length_a 8.248530
_cell_length_b 8.248530
_cell_length_c 22.024073
_cell_angle_alpha 90.000000
_cell_angle_beta 90.000000
_cell_angle_gamma 90.000000
_cell_volume 1498.479322
_symmetry_space_group_name_H-M "P 43"
_symmetry_group_IT_number 78
_symmetry_cell_setting 'tetragonal'
loop_
_space_group_symop_operation_xyz
x,y,z
-y,x,3/4+z
-x,-y,1/2+z
y,-x,1/4+z
loop_
_atom_site_type_symbol
_atom_site_label
_atom_site_fract_x
_atom_site_fract_y
_atom_site_fract_z
Si Si1 0.291710 0.159310 0.509890
Si Si2 0.648280 0.834403 0.344626
Si Si3 0.798961 0.133417 0.383867
Si Si4 0.198579 0.308424 0.277849
Si Si5 0.329501 0.899604 0.663731
Si Si6 0.716331 0.620342 0.238479
Si Si7 0.345764 0.622812 0.214071
Si Si8 0.978591 0.594864 0.505613
O O1 0.194400 0.230842 0.566061
O O2 0.250958 0.265887 0.451611
O O3 0.479279 0.189160 0.523110
O O4 0.256949 0.971324 0.497971
O O5 0.734887 0.768553 0.284648
O O6 0.598992 0.694904 0.392506
O O7 0.779925 0.940284 0.381378
O O8 0.497413 0.941689 0.319323
O O9 0.654790 0.198742 0.425128
O O10 0.971799 0.183181 0.410116
O O11 0.169386 0.364941 0.347236
O O12 0.256483 0.475978 0.248238
O O13 0.303900 0.143960 0.268451
O O14 0.481816 0.985901 0.696623
O O15 0.531360 0.580394 0.224882
O O16 0.308992 0.808750 0.238463
#
# Coordination Sequence:
#
# PCOD8302052 Si02
#       8
#     4   4   4   4   4   4   4   4
#     4  11  24  42  68 100 136 183 238 285 366 430
#     4  11  24  43  72 100 142 184 248 294 369 444
#     4  11  21  42  67  97 134 180 234 284 355 430
#     4  11  28  45  70 105 148 190 237 307 369 438
#     4  11  24  47  67 100 140 185 241 299 362 440
#     4  11  23  41  72  98 139 182 236 298 356 437
#     4  11  25  46  71 108 139 192 243 300 369 441
#     4  11  25  50  71 106 146 188 245 303 368 446
#
# _framework density 21.354982
#
# number of rings (size 3 to 8) (size 9 to 14) (size 15 to 20)
#    0.000    1.000    3.750    2.250    7.000    4.000 
#    4.500    0.000    0.000    0.000    0.000    0.000 
#    0.000    0.000    0.000    0.000    0.000    0.000 
#
# Total GULP energy -396507.861054 kJ/mol
# GULP energy per Si atom -12390.870658 kJ/mol
# Density = 2.130638 g / cm^3
# Si number density = 21.354982 Si / 1000 Ang^3
#
#
#
# Elastic Constant Matrix: (Units=GPa)
#
#
# Indices 1 2 3 4 5 6 
#
# 1 83.6576 25.6385 37.2565 0.0000 0.0000 -6.2515
# 2 25.6385 83.6576 37.2565 0.0000 0.0000 6.2515
# 3 37.2565 37.2565 91.1781 0.0000 0.0000 0.0000
# 4 0.0000 0.0000 0.0000 21.1819 0.0000 0.0000
# 5 0.0000 0.0000 0.0000 0.0000 21.1819 0.0000
# 6 -6.2515 6.2515 0.0000 0.0000 0.0000 35.2290
#
#
#
# Elastic Compliance Matrix: (Units=1/GPa)
#
#
# Indices 1 2 3 4 5 6 
#
# 1 0.015302 -0.002619 -0.005182 0.000000 0.000000 0.003180
# 2 -0.002619 0.015302 -0.005182 0.000000 0.000000 -0.003180
# 3 -0.005182 -0.005182 0.015203 0.000000 0.000000 0.000000
# 4 0.000000 0.000000 0.000000 0.047210 0.000000 0.000000
# 5 0.000000 0.000000 0.000000 0.000000 0.047210 0.000000
# 6 0.003180 -0.003180 0.000000 0.000000 0.000000 0.029514
#
#
# Mechanical properties :
#
#
# Convention : Reuss Voigt Hill
#
# Bulk Modulus (GPa) = 50.40667 50.97736 50.69201
# Shear Modulus (GPa) = 24.71324 26.07470 25.39397
#
# Velocity S-wave (km/s) = 3.40554 3.49809 3.45213
# Velocity P-wave (km/s) = 6.25452 6.34340 6.29912
#
# Compressibility (1/GPa) = 0.01983865
#
# Stress axis : x y z
#
# Youngs Moduli (GPa) = 65.35213 65.35213 65.77831
#
# Poissons Ratio (x) = 0.17117 0.34088
# Poissons Ratio (y) = 0.17117 0.34088
# Poissons Ratio (z) = 0.33867 0.33867
#
# Static dielectric constant tensor:
#      x y z
#    x 3.942160 0.000000 0.000000 
#    y 0.000000 3.942160 0.000000 
#    z 0.000000 0.000000 4.095850 
# 
# 
# High freq. dielectric constant tensor:
#      x y z
#    x 1.839740 0.000000 0.000000 
#    y 0.000000 1.839740 0.000000 
#    z 0.000000 0.000000 1.850850 
# 
# From -- ./inp_files/1450.got.cif
#   From: 2010.03.12/outbox.cif.g09.slc.cpg/sg78_cif.got.tgz:1450.got - 2010.04.16 16:37:20.
