data_PCOD8302740
_publ_section_title
;
Structure prediction by ZEFSAII (Michael W. Deem and Ramdas Pophale) SiO2 
 PCOD8302740
Probable space group: P 4/M
;
_chemical_formula_sum "Si O2"
_cell_formula_units_Z 40
_cell_length_a 15.006870
_cell_length_b 15.006870
_cell_length_c 8.963032
_cell_angle_alpha 90.000000
_cell_angle_beta 90.000000
_cell_angle_gamma 90.000000
_cell_volume 2018.529904
_symmetry_space_group_name_H-M "P 4/M"
_symmetry_group_IT_number 83
_symmetry_cell_setting 'tetragonal'
loop_
_space_group_symop_operation_xyz
x,y,z
-y,x,z
-x,-y,z
y,-x,z
-x,-y,-z
y,-x,-z
x,y,-z
-y,x,-z
loop_
_atom_site_type_symbol
_atom_site_label
_atom_site_fract_x
_atom_site_fract_y
_atom_site_fract_z
Si Si1 0.579473 0.250770 0.324267
Si Si2 0.873940 0.928675 0.671020
Si Si3 0.619245 0.732343 0.323485
Si Si4 0.408092 0.951284 0.675587
Si Si5 0.699202 0.901802 0.175441
O O1 0.590688 0.247312 0.500000
O O2 0.482948 0.291325 0.282846
O O3 0.655129 0.316428 0.258231
O O4 0.590224 0.150085 0.263016
O O5 0.845555 0.912633 0.500000
O O6 0.801557 0.884740 0.779354
O O7 0.966680 0.880836 0.704784
O O8 0.631073 0.744802 0.500000
O O9 0.638876 0.825769 0.246793
O O10 0.388680 0.954508 0.500000
O O11 0.500000 0.000000 0.715223
O O12 0.329354 0.002240 0.760509
O O13 0.687751 0.899693 0.000000
#
# Coordination Sequence:
#
# PCOD8302740 Si02
#       5
#     8   8   8   8   8
#     4   9  19  35  62  91 115 148 192 249 300 344
#     4   9  20  40  63  84 109 149 198 241 285 344
#     4  10  20  39  61  87 117 151 200 248 298 356
#     4  10  19  37  61  84 112 150 195 238 285 340
#     4  12  25  37  54  86 122 157 191 237 294 349
#
# _framework density 19.816403000000001
#
# number of rings (size 3 to 8) (size 9 to 14) (size 15 to 20)
#    0.000    2.000    2.000    2.400    2.800    1.600 
#    0.000    4.000    0.000    0.000    0.000    1.400 
#    0.000    0.000    0.000    0.000    0.000    0.000 
#
# Total GULP energy -496051.963761 kJ/mol
# GULP energy per Si atom -12401.299094 kJ/mol
# Density = 1.977130 g / cm^3
# Si number density = 19.816403 Si / 1000 Ang^3
#
#
#
# Elastic Constant Matrix: (Units=GPa)
#
#
# Indices 1 2 3 4 5 6 
#
# 1 108.8854 47.0322 26.7120 0.0000 0.0000 6.3833
# 2 47.0322 108.8854 26.7120 0.0000 0.0000 -6.3833
# 3 26.7120 26.7120 54.6937 0.0000 0.0000 0.0000
# 4 0.0000 0.0000 0.0000 4.6060 0.0000 0.0000
# 5 0.0000 0.0000 0.0000 0.0000 4.6060 0.0000
# 6 6.3833 -6.3833 0.0000 0.0000 0.0000 35.4995
#
#
#
# Elastic Compliance Matrix: (Units=1/GPa)
#
#
# Indices 1 2 3 4 5 6 
#
# 1 0.012247 -0.004544 -0.003762 0.000000 0.000000 -0.003019
# 2 -0.004544 0.012247 -0.003762 0.000000 0.000000 0.003019
# 3 -0.003762 -0.003762 0.021958 0.000000 0.000000 0.000000
# 4 0.000000 0.000000 0.000000 0.217106 0.000000 0.000000
# 5 0.000000 0.000000 0.000000 0.000000 0.217106 0.000000
# 6 -0.003019 0.003019 0.000000 0.000000 0.000000 0.029255
#
#
# Mechanical properties :
#
#
# Convention : Reuss Voigt Hill
#
# Bulk Modulus (GPa) = 44.81124 52.59747 48.70435
# Shear Modulus (GPa) = 9.23374 20.40953 14.82164
#
# Velocity S-wave (km/s) = 2.16096 3.21274 2.73783
# Velocity P-wave (km/s) = 5.37482 6.35313 5.88434
#
# Compressibility (1/GPa) = 0.02231583
#
# Stress axis : x y z
#
# Youngs Moduli (GPa) = 81.65565 81.65565 45.54106
#
# Poissons Ratio (x) = 0.37104 0.17132
# Poissons Ratio (y) = 0.37104 0.17132
# Poissons Ratio (z) = 0.30718 0.30718
#
# Static dielectric constant tensor:
#      x y z
#    x 3.763760 0.000000 0.000000 
#    y 0.000000 3.763760 0.000000 
#    z 0.000000 0.000000 3.159250 
# 
# 
# High freq. dielectric constant tensor:
#      x y z
#    x 1.780700 0.000000 0.000000 
#    y 0.000000 1.780700 0.000000 
#    z 0.000000 0.000000 1.727180 
# 
# From -- ./inp_files/656.got.cif
#   From: 2010.03.12/outbox.cif.g09.slc.cpg/sg83_1_cif.got.tgz:656.got - 2010.04.08 20:05:18.
