data_PCOD8302009
_publ_section_title
;
Structure prediction by ZEFSAII (Michael W. Deem and Ramdas Pophale) SiO2 
 PCOD8302009
Probable space group: P 43
;
_chemical_formula_sum "Si O2"
_cell_formula_units_Z 24
_cell_length_a 9.376636
_cell_length_b 9.376636
_cell_length_c 13.486514
_cell_angle_alpha 90.000000
_cell_angle_beta 90.000000
_cell_angle_gamma 90.000000
_cell_volume 1185.751879
_symmetry_space_group_name_H-M "P 43"
_symmetry_group_IT_number 78
_symmetry_cell_setting 'tetragonal'
loop_
_space_group_symop_operation_xyz
x,y,z
-y,x,3/4+z
-x,-y,1/2+z
y,-x,1/4+z
loop_
_atom_site_type_symbol
_atom_site_label
_atom_site_fract_x
_atom_site_fract_y
_atom_site_fract_z
Si Si1 0.514935 0.844817 0.006030
Si Si2 0.064270 0.251224 0.480334
Si Si3 0.251224 0.064270 0.356637
Si Si4 0.485065 0.844817 0.580940
Si Si5 0.742037 0.242785 0.926909
Si Si6 0.742037 0.757215 0.160062
O O1 0.602891 0.760917 0.090326
O O2 0.464094 0.000000 0.043485
O O3 0.381672 0.744248 0.979356
O O4 0.611169 0.865850 0.908770
O O5 0.134149 0.388831 0.428200
O O6 0.115456 0.242870 0.593191
O O7 0.893798 0.258315 0.481626
O O8 0.111602 0.111602 0.418486
O O9 0.258315 0.893798 0.355343
O O10 0.242870 0.115456 0.243780
O O11 0.618328 0.744249 0.607615
O O12 0.397109 0.760917 0.496644
#
# Coordination Sequence:
#
# PCOD8302009 Si02
#       6
#     4   4   4   4   4   4
#     4   9  19  34  57  83 111 147 184 225 275 328
#     4   9  18  33  55  81 107 142 186 225 272 331
#     4   9  18  33  55  81 107 142 186 225 272 331
#     4   9  19  34  57  83 111 147 184 225 275 328
#     4  10  19  35  58  82 110 145 183 228 276 325
#     4  10  19  35  58  82 110 145 183 228 276 325
#
# _framework density 20.240321999999999
#
# number of rings (size 3 to 8) (size 9 to 14) (size 15 to 20)
#    0.000    2.667    0.000    4.000    0.000    2.667 
#    0.000    0.000    0.000   80.000    0.000    0.000 
#    0.000    0.000    0.000    0.000    0.000    0.000 
#
# Total GULP energy -297620.763781 kJ/mol
# GULP energy per Si atom -12400.865158 kJ/mol
# Density = 2.019425 g / cm^3
# Si number density = 20.240322 Si / 1000 Ang^3
#
#
#
# Elastic Constant Matrix: (Units=GPa)
#
#
# Indices 1 2 3 4 5 6 
#
# 1 122.0500 72.7593 40.5531 0.0000 0.0000 0.0002
# 2 72.7593 122.0500 40.5531 0.0000 0.0000 -0.0002
# 3 40.5531 40.5531 67.9930 0.0000 0.0000 0.0000
# 4 0.0000 0.0000 0.0000 23.2123 0.0000 0.0000
# 5 0.0000 0.0000 0.0000 0.0000 23.2123 0.0000
# 6 0.0002 -0.0002 0.0000 0.0000 0.0000 20.1487
#
#
#
# Elastic Compliance Matrix: (Units=1/GPa)
#
#
# Indices 1 2 3 4 5 6 
#
# 1 0.013558 -0.006729 -0.004073 0.000000 0.000000 0.000000
# 2 -0.006729 0.013558 -0.004073 0.000000 0.000000 0.000000
# 3 -0.004073 -0.004073 0.019566 0.000000 0.000000 0.000000
# 4 0.000000 0.000000 0.000000 0.043081 0.000000 0.000000
# 5 0.000000 0.000000 0.000000 0.000000 0.043081 0.000000
# 6 0.000000 0.000000 0.000000 0.000000 0.000000 0.049631
#
#
# Mechanical properties :
#
#
# Convention : Reuss Voigt Hill
#
# Bulk Modulus (GPa) = 59.06031 68.86932 63.96482
# Shear Modulus (GPa) = 22.94951 23.86317 23.40634
#
# Velocity S-wave (km/s) = 3.37092 3.43737 3.40431
# Velocity P-wave (km/s) = 6.66286 7.06071 6.86467
#
# Compressibility (1/GPa) = 0.01693184
#
# Stress axis : x y z
#
# Youngs Moduli (GPa) = 73.75507 73.75507 51.10924
#
# Poissons Ratio (x) = 0.49633 0.20817
# Poissons Ratio (y) = 0.49633 0.20817
# Poissons Ratio (z) = 0.30040 0.30040
#
# Static dielectric constant tensor:
#      x y z
#    x 3.571630 0.000000 0.000000 
#    y 0.000000 3.571630 0.000000 
#    z 0.000000 0.000000 3.460490 
# 
# 
# High freq. dielectric constant tensor:
#      x y z
#    x 1.780610 0.000000 0.000000 
#    y 0.000000 1.780610 0.000000 
#    z 0.000000 0.000000 1.774200 
# 
# From -- ./inp_files/1041.got.cif
#   From: 2010.03.12/outbox.cif.g09.slc.cpg/sg78_cif.got.tgz:1041.got - 2010.04.16 16:37:20.
