data_PCOD8302532
_publ_section_title
;
Structure prediction by ZEFSAII (Michael W. Deem and Ramdas Pophale) SiO2 
 PCOD8302532
Probable space group: I -4 
;
_chemical_formula_sum "Si O2"
_cell_formula_units_Z 48
_cell_length_a 10.762841
_cell_length_b 10.762841
_cell_length_c 19.968824
_cell_angle_alpha 90.000000
_cell_angle_beta 90.000000
_cell_angle_gamma 90.000000
_cell_volume 2313.163539
_symmetry_space_group_name_H-M "I -4 "
_symmetry_group_IT_number 82
_symmetry_cell_setting 'tetragonal'
loop_
_space_group_symop_operation_xyz
x,y,z
y,-x,-z
-x,-y,z
-y,x,-z
1/2+x,1/2+y,1/2+z
1/2+y,1/2-x,1/2-z
1/2-x,1/2-y,1/2+z
1/2-y,1/2+x,1/2-z
loop_
_atom_site_type_symbol
_atom_site_label
_atom_site_fract_x
_atom_site_fract_y
_atom_site_fract_z
Si Si1 0.643256 0.500790 0.920192
Si Si2 0.993785 0.638493 0.472393
Si Si3 0.856754 0.643443 0.250317
Si Si4 0.144457 0.863427 0.001556
Si Si5 0.218564 0.262457 0.386630
Si Si6 0.293123 0.766430 0.886482
O O1 0.500000 0.500000 0.945268
O O2 0.666899 0.623223 0.875719
O O3 0.668319 0.377405 0.877563
O O4 0.740764 0.509207 0.980900
O O5 0.865762 0.650013 0.433334
O O6 0.000000 0.500000 0.506432
O O7 0.101747 0.646100 0.417866
O O8 0.832714 0.500110 0.230620
O O9 0.769538 0.678327 0.313272
O O10 0.817843 0.731287 0.188121
O O11 0.176766 0.775956 0.937358
O O12 0.231998 0.844059 0.068093
O O13 0.003732 0.836011 0.022377
#
# Coordination Sequence:
#
# PCOD8302532 Si02
#       6
#     8   8   8   8   8   8
#     4  12  24  40  64  98 130 167 204 272 315 384
#     4  12  22  36  64  96 120 157 206 260 309 370
#     4  11  22  40  62  88 121 160 210 266 313 374
#     4  11  24  42  63  92 128 164 209 262 318 377
#     4  12  24  39  65  92 126 161 212 255 324 371
#     4  12  24  39  65  92 126 161 212 255 324 371
#
# _framework density 20.750803000000001
#
# number of rings (size 3 to 8) (size 9 to 14) (size 15 to 20)
#    0.000    0.333    6.667    3.000    2.333    0.000 
#    3.000    0.000    0.000    0.000    0.000    0.000 
#    0.000    0.000    0.000    0.000    0.000    0.000 
#
# Total GULP energy -297485.257318 kJ/mol
# GULP energy per Si atom -12395.219055 kJ/mol
# Density = 2.070357 g / cm^3
# Si number density = 20.750803 Si / 1000 Ang^3
#
#
#
# Elastic Constant Matrix: (Units=GPa)
#
#
# Indices 1 2 3 4 5 6 
#
# 1 105.5144 26.1280 27.4726 0.0000 0.0000 1.0676
# 2 26.1280 105.5144 27.4726 0.0000 0.0000 -1.0676
# 3 27.4726 27.4726 137.9489 0.0000 0.0000 0.0000
# 4 0.0000 0.0000 0.0000 28.3813 0.0000 0.0000
# 5 0.0000 0.0000 0.0000 0.0000 28.3813 0.0000
# 6 1.0676 -1.0676 0.0000 0.0000 0.0000 25.9777
#
#
#
# Elastic Compliance Matrix: (Units=1/GPa)
#
#
# Indices 1 2 3 4 5 6 
#
# 1 0.010448 -0.002163 -0.001650 0.000000 0.000000 -0.000518
# 2 -0.002163 0.010448 -0.001650 0.000000 0.000000 0.000518
# 3 -0.001650 -0.001650 0.007906 0.000000 0.000000 0.000000
# 4 0.000000 0.000000 0.000000 0.035234 0.000000 0.000000
# 5 0.000000 0.000000 0.000000 0.000000 0.035234 0.000000
# 6 -0.000518 0.000518 0.000000 0.000000 0.000000 0.038537
#
#
# Mechanical properties :
#
#
# Convention : Reuss Voigt Hill
#
# Bulk Modulus (GPa) = 55.93971 56.79158 56.36565
# Shear Modulus (GPa) = 32.32230 34.40838 33.36534
#
# Velocity S-wave (km/s) = 3.95098 4.07648 4.01422
# Velocity P-wave (km/s) = 6.91592 7.04164 6.97907
#
# Compressibility (1/GPa) = 0.01787639
#
# Stress axis : x y z
#
# Youngs Moduli (GPa) = 95.71415 95.71415 126.48232
#
# Poissons Ratio (x) = 0.20701 0.20869
# Poissons Ratio (y) = 0.20701 0.20869
# Poissons Ratio (z) = 0.15792 0.15792
#
# Static dielectric constant tensor:
#      x y z
#    x 3.945650 0.000000 0.000000 
#    y 0.000000 3.945650 0.000000 
#    z 0.000000 0.000000 3.447410 
# 
# 
# High freq. dielectric constant tensor:
#      x y z
#    x 1.814290 0.000000 0.000000 
#    y 0.000000 1.814290 0.000000 
#    z 0.000000 0.000000 1.783330 
# 
# From -- ./inp_files/2634.got.cif
#   From: 2010.03.12/outbox.cif.g09.slc.cpg/sg82_2_cif.got.tgz:2634.got - 2010.04.08 20:02:50.
