data_PCOD8302340
_publ_section_title
;
Structure prediction by ZEFSAII (Michael W. Deem and Ramdas Pophale) SiO2 
 PCOD8302340
Probable space group: I -4 
;
_chemical_formula_sum "Si O2"
_cell_formula_units_Z 36
_cell_length_a 7.475940
_cell_length_b 7.475940
_cell_length_c 26.821479
_cell_angle_alpha 90.000000
_cell_angle_beta 90.000000
_cell_angle_gamma 90.000000
_cell_volume 1499.043848
_symmetry_space_group_name_H-M "I -4 "
_symmetry_group_IT_number 82
_symmetry_cell_setting 'tetragonal'
loop_
_space_group_symop_operation_xyz
x,y,z
y,-x,-z
-x,-y,z
-y,x,-z
1/2+x,1/2+y,1/2+z
1/2+y,1/2-x,1/2-z
1/2-x,1/2-y,1/2+z
1/2-y,1/2+x,1/2-z
loop_
_atom_site_type_symbol
_atom_site_label
_atom_site_fract_x
_atom_site_fract_y
_atom_site_fract_z
Si Si1 0.230914 0.109891 0.083159
Si Si2 0.000000 0.500000 0.750000
Si Si3 0.500000 0.000000 0.750000
Si Si4 0.000000 0.000000 0.337754
Si Si5 0.377790 0.733845 0.079789
Si Si6 0.000000 0.000000 0.500000
Si Si7 0.000000 0.000000 0.000000
Si Si8 0.728042 0.273652 0.307119
O O1 0.420548 0.196083 0.073693
O O2 0.160301 0.177266 0.136922
O O3 0.237529 0.893010 0.083008
O O4 0.098897 0.146816 0.036236
O O5 0.177521 0.445956 0.717752
O O6 0.555436 0.820360 0.719302
O O7 0.883007 0.861487 0.370393
O O8 0.125754 0.882471 0.303647
O O9 0.349438 0.602091 0.032968
#
# Coordination Sequence:
#
# PCOD8302340 Si02
#       8
#     8   2   2   4   8   2   2   8
#     4  10  22  39  57  85 126 171 216 264 320 399
#     4  12  24  44  76  98 128 188 228 256 332 418
#     4  12  28  44  68 106 136 168 220 288 348 378
#     4   9  18  37  63  90 124 170 211 263 330 391
#     4   9  18  34  57  84 120 165 213 259 318 382
#     4  10  16  28  56  88 118 156 212 276 308 362
#     4  12  24  36  58  88 122 168 214 264 332 382
#     4  11  24  43  67  98 133 171 220 277 331 400
#
# _framework density 24.015305999999999
#
# number of rings (size 3 to 8) (size 9 to 14) (size 15 to 20)
#    0.000    1.778    0.000    5.333    0.000    3.556 
#    0.000    4.444    0.000    0.000    0.000    0.000 
#    0.000    0.000    0.000    0.000    0.000    0.000 
#
# Total GULP energy -223022.999337 kJ/mol
# GULP energy per Si atom -12390.166630 kJ/mol
# Density = 2.396065 g / cm^3
# Si number density = 24.015306 Si / 1000 Ang^3
#
#
#
# Elastic Constant Matrix: (Units=GPa)
#
#
# Indices 1 2 3 4 5 6 
#
# 1 68.7188 7.4734 36.5270 0.0000 0.0000 4.3163
# 2 7.4734 68.7189 36.5270 0.0000 0.0000 -4.3163
# 3 36.5270 36.5270 143.5201 0.0000 0.0000 0.0000
# 4 0.0000 0.0000 0.0000 30.7761 0.0000 0.0000
# 5 0.0000 0.0000 0.0000 0.0000 30.7761 0.0000
# 6 4.3163 -4.3163 0.0000 0.0000 0.0000 43.6927
#
#
#
# Elastic Compliance Matrix: (Units=1/GPa)
#
#
# Indices 1 2 3 4 5 6 
#
# 1 0.016960 0.000401 -0.004419 0.000000 0.000000 -0.001636
# 2 0.000401 0.016960 -0.004419 0.000000 0.000000 0.001636
# 3 -0.004419 -0.004419 0.009217 0.000000 0.000000 0.000000
# 4 0.000000 0.000000 0.000000 0.032493 0.000000 0.000000
# 5 0.000000 0.000000 0.000000 0.000000 0.032493 0.000000
# 6 -0.001636 0.001636 0.000000 0.000000 0.000000 0.023210
#
#
# Mechanical properties :
#
#
# Convention : Reuss Voigt Hill
#
# Bulk Modulus (GPa) = 38.07343 49.11249 43.59296
# Shear Modulus (GPa) = 31.85558 34.41104 33.13331
#
# Velocity S-wave (km/s) = 3.64602 3.78945 3.71843
# Velocity P-wave (km/s) = 5.79766 6.29614 6.05204
#
# Compressibility (1/GPa) = 0.02626504
#
# Stress axis : x y z
#
# Youngs Moduli (GPa) = 58.96300 58.96301 108.49769
#
# Poissons Ratio (x) = -0.02367 0.47941
# Poissons Ratio (y) = -0.02367 0.47941
# Poissons Ratio (z) = 0.26053 0.26053
#
# Static dielectric constant tensor:
#      x y z
#    x 4.255340 0.000000 0.000000 
#    y 0.000000 4.255340 0.000000 
#    z 0.000000 0.000000 4.380870 
# 
# 
# High freq. dielectric constant tensor:
#      x y z
#    x 1.937210 0.000000 0.000000 
#    y 0.000000 1.937210 0.000000 
#    z 0.000000 0.000000 1.962390 
# 
# From -- ./inp_files/3679.got.cif
#   From: 2010.03.12/outbox.cif.g09.slc.cpg/sg82_2_cif.got.tgz:3679.got - 2010.04.08 20:02:50.
