data_PCOD8302349
_publ_section_title
;
Structure prediction by ZEFSAII (Michael W. Deem and Ramdas Pophale) SiO2 
 PCOD8302349
Probable space group: I -4 
;
_chemical_formula_sum "Si O2"
_cell_formula_units_Z 52
_cell_length_a 16.224671
_cell_length_b 16.224671
_cell_length_c 9.658578
_cell_angle_alpha 90.000000
_cell_angle_beta 90.000000
_cell_angle_gamma 90.000000
_cell_volume 2542.523581
_symmetry_space_group_name_H-M "I -4 "
_symmetry_group_IT_number 82
_symmetry_cell_setting 'tetragonal'
loop_
_space_group_symop_operation_xyz
x,y,z
y,-x,-z
-x,-y,z
-y,x,-z
1/2+x,1/2+y,1/2+z
1/2+y,1/2-x,1/2-z
1/2-x,1/2-y,1/2+z
1/2-y,1/2+x,1/2-z
loop_
_atom_site_type_symbol
_atom_site_label
_atom_site_fract_x
_atom_site_fract_y
_atom_site_fract_z
Si Si1 0.000000 0.500000 0.075614
Si Si2 0.527561 0.838211 0.075030
Si Si3 0.315904 0.301311 0.295703
Si Si4 0.166349 0.718537 0.927147
Si Si5 0.981084 0.727327 0.863497
Si Si6 0.771022 0.560521 0.160840
Si Si7 0.343948 0.935357 0.849997
O O1 0.921062 0.512816 0.980293
O O2 0.002810 0.582134 0.168640
O O3 0.622936 0.838297 0.029587
O O4 0.512762 0.837850 0.238259
O O5 0.472976 0.766683 0.997636
O O6 0.276195 0.226236 0.206090
O O7 0.271307 0.298886 0.444828
O O8 0.415616 0.296430 0.312307
O O9 0.307728 0.387952 0.212333
O O10 0.074797 0.755904 0.894937
O O11 0.936782 0.686429 0.992888
O O12 0.843758 0.627704 0.189231
O O13 0.776563 0.474949 0.247979
#
# Coordination Sequence:
#
# PCOD8302349 Si02
#       7
#     4   8   8   8   8   8   8
#     4  10  18  28  50  82 124 160 186 230 318 380
#     4  10  23  33  59  91 131 163 197 258 313 400
#     4  11  24  40  64  89 127 175 209 267 313 396
#     4  11  23  43  60  96 126 163 220 254 333 385
#     4  11  24  38  57  89 125 163 211 261 322 378
#     4  11  21  37  58  92 126 166 211 247 325 377
#     4  11  20  33  55  86 126 164 202 258 306 395
#
# _framework density 20.452120000000001
#
# number of rings (size 3 to 8) (size 9 to 14) (size 15 to 20)
#    0.000    1.231    3.077    3.692   10.769    1.231 
#    0.000    0.000    0.000    0.462    0.000    0.000 
#    0.000    0.000    0.000    0.000    0.000    0.000 
#
# Total GULP energy -322099.969315 kJ/mol
# GULP energy per Si atom -12388.460358 kJ/mol
# Density = 2.040557 g / cm^3
# Si number density = 20.452120 Si / 1000 Ang^3
#
#
#
# Elastic Constant Matrix: (Units=GPa)
#
#
# Indices 1 2 3 4 5 6 
#
# 1 74.0883 29.5694 26.7647 0.0000 0.0000 0.5023
# 2 29.5694 74.0883 26.7647 0.0000 0.0000 -0.5023
# 3 26.7647 26.7647 109.2473 0.0000 0.0000 0.0000
# 4 0.0000 0.0000 0.0000 26.6758 0.0000 0.0000
# 5 0.0000 0.0000 0.0000 0.0000 26.6758 0.0000
# 6 0.5023 -0.5023 0.0000 0.0000 0.0000 27.2454
#
#
#
# Elastic Compliance Matrix: (Units=1/GPa)
#
#
# Indices 1 2 3 4 5 6 
#
# 1 0.016758 -0.005714 -0.002706 0.000000 0.000000 -0.000414
# 2 -0.005714 0.016758 -0.002706 0.000000 0.000000 0.000414
# 3 -0.002706 -0.002706 0.010479 0.000000 0.000000 0.000000
# 4 0.000000 0.000000 0.000000 0.037487 0.000000 0.000000
# 5 0.000000 0.000000 0.000000 0.000000 0.037487 0.000000
# 6 -0.000414 0.000414 0.000000 0.000000 0.000000 0.036719
#
#
# Mechanical properties :
#
#
# Convention : Reuss Voigt Hill
#
# Bulk Modulus (GPa) = 45.98759 47.06909 46.52834
# Shear Modulus (GPa) = 26.99970 27.74108 27.37039
#
# Velocity S-wave (km/s) = 3.63732 3.68692 3.66220
# Velocity P-wave (km/s) = 6.33833 6.41784 6.37821
#
# Compressibility (1/GPa) = 0.02174499
#
# Stress axis : x y z
#
# Youngs Moduli (GPa) = 59.67275 59.67275 95.42586
#
# Poissons Ratio (x) = 0.34095 0.25820
# Poissons Ratio (y) = 0.34095 0.25820
# Poissons Ratio (z) = 0.16146 0.16146
#
# Static dielectric constant tensor:
#      x y z
#    x 3.653590 0.000000 0.000000 
#    y 0.000000 3.653590 0.000000 
#    z 0.000000 0.000000 3.956010 
# 
# 
# High freq. dielectric constant tensor:
#      x y z
#    x 1.771410 0.000000 0.000000 
#    y 0.000000 1.771410 0.000000 
#    z 0.000000 0.000000 1.826940 
# 
# From -- ./inp_files/1094.got.cif
#   From: 2010.03.12/outbox.cif.g09.slc.cpg/sg82_1_cif.got.tgz:1094.got - 2010.04.08 20:02:50.
