data_PCOD8302535
_publ_section_title
;
Structure prediction by ZEFSAII (Michael W. Deem and Ramdas Pophale) SiO2 
 PCOD8302535
Probable space group: I -4 
;
_chemical_formula_sum "Si O2"
_cell_formula_units_Z 56
_cell_length_a 14.519787
_cell_length_b 14.519787
_cell_length_c 12.826169
_cell_angle_alpha 90.000000
_cell_angle_beta 90.000000
_cell_angle_gamma 90.000000
_cell_volume 2704.067005
_symmetry_space_group_name_H-M "I -4 "
_symmetry_group_IT_number 82
_symmetry_cell_setting 'tetragonal'
loop_
_space_group_symop_operation_xyz
x,y,z
y,-x,-z
-x,-y,z
-y,x,-z
1/2+x,1/2+y,1/2+z
1/2+y,1/2-x,1/2-z
1/2-x,1/2-y,1/2+z
1/2-y,1/2+x,1/2-z
loop_
_atom_site_type_symbol
_atom_site_label
_atom_site_fract_x
_atom_site_fract_y
_atom_site_fract_z
Si Si1 0.678278 0.671701 0.717383
Si Si2 0.921210 0.570938 0.617355
Si Si3 0.906851 0.124836 1.000000
Si Si4 0.570938 0.078790 0.617355
Si Si5 0.178279 0.171702 0.782618
Si Si6 0.267867 0.004039 0.273678
Si Si7 0.767867 0.504040 0.226322
O O1 0.682578 0.633038 0.598863
O O2 0.749999 0.750000 0.750001
O O3 0.697813 0.587692 0.799581
O O4 0.575864 0.707768 0.725605
O O5 0.887468 0.558267 0.500000
O O6 0.964036 0.673515 0.630276
O O7 0.835277 0.552059 0.690166
O O8 0.000000 0.500000 0.648002
O O9 0.866962 0.182579 0.098862
O O10 0.018417 0.127372 1.000000
O O11 0.552058 0.164723 0.690166
O O12 0.500000 0.000000 0.648003
O O13 0.673515 0.035964 0.630276
O O14 0.075866 0.207770 0.774397
O O15 0.197814 0.087694 0.700419
#
# Coordination Sequence:
#
# PCOD8302535 Si02
#       7
#     8   8   8   8   8   8   8
#     4  12  25  41  68  99 142 176 225 288 345 412
#     4  11  22  41  66  91 129 176 230 289 342 406
#     4  11  24  44  72 102 134 181 234 288 352 409
#     4  11  22  41  66  91 129 176 230 289 342 406
#     4  12  25  41  68  99 142 176 225 288 345 412
#     4  12  23  43  62 101 134 177 228 281 347 410
#     4  12  23  43  62 101 134 177 228 281 347 410
#
# _framework density 20.709547000000001
#
# number of rings (size 3 to 8) (size 9 to 14) (size 15 to 20)
#    0.000    0.429    8.571    0.000    4.000    0.571 
#    2.571    0.000    0.000    0.000    0.000    2.000 
#    0.000    0.000    0.000    0.000    0.000    0.000 
#
# Total GULP energy -346955.718802 kJ/mol
# GULP energy per Si atom -12391.275672 kJ/mol
# Density = 2.066241 g / cm^3
# Si number density = 20.709547 Si / 1000 Ang^3
#
#
#
# Elastic Constant Matrix: (Units=GPa)
#
#
# Indices 1 2 3 4 5 6 
#
# 1 98.5247 42.6009 23.1635 0.0000 0.0000 10.6524
# 2 42.6009 98.5247 23.1635 0.0000 0.0000 -10.6524
# 3 23.1635 23.1635 51.0307 0.0000 0.0000 0.0000
# 4 0.0000 0.0000 0.0000 10.7646 0.0000 0.0000
# 5 0.0000 0.0000 0.0000 0.0000 10.7646 0.0000
# 6 10.6524 -10.6524 0.0000 0.0000 0.0000 48.9931
#
#
#
# Elastic Compliance Matrix: (Units=1/GPa)
#
#
# Indices 1 2 3 4 5 6 
#
# 1 0.013911 -0.005585 -0.003780 0.000000 0.000000 -0.004239
# 2 -0.005585 0.013911 -0.003780 0.000000 0.000000 0.004239
# 3 -0.003780 -0.003780 0.023027 0.000000 0.000000 0.000000
# 4 0.000000 0.000000 0.000000 0.092897 0.000000 0.000000
# 5 0.000000 0.000000 0.000000 0.000000 0.092897 0.000000
# 6 -0.004239 0.004239 0.000000 0.000000 0.000000 0.022254
#
#
# Mechanical properties :
#
#
# Convention : Reuss Voigt Hill
#
# Bulk Modulus (GPa) = 40.71298 47.32624 44.01961
# Shear Modulus (GPa) = 17.04306 24.71459 20.87882
#
# Velocity S-wave (km/s) = 2.87183 3.45830 3.17862
# Velocity P-wave (km/s) = 5.54060 6.23285 5.89689
#
# Compressibility (1/GPa) = 0.02456219
#
# Stress axis : x y z
#
# Youngs Moduli (GPa) = 71.88311 71.88311 43.42686
#
# Poissons Ratio (x) = 0.40146 0.16413
# Poissons Ratio (y) = 0.40146 0.16413
# Poissons Ratio (z) = 0.27169 0.27169
#
# Static dielectric constant tensor:
#      x y z
#    x 4.297780 0.000000 0.000000 
#    y 0.000000 4.297780 0.000000 
#    z 0.000000 0.000000 3.418380 
# 
# 
# High freq. dielectric constant tensor:
#      x y z
#    x 1.828550 0.000000 0.000000 
#    y 0.000000 1.828550 0.000000 
#    z 0.000000 0.000000 1.778870 
# 
# From -- ./inp_files/2302.got.cif
#   From: 2010.03.12/outbox.cif.g09.slc.cpg/sg82_2_cif.got.tgz:2302.got - 2010.04.08 20:02:50.
