data_PCOD8302842
_publ_section_title
;
Structure prediction by ZEFSAII (Michael W. Deem and Ramdas Pophale) SiO2 
 PCOD8302842
Probable space group: P 4/M
;
_chemical_formula_sum "Si O2"
_cell_formula_units_Z 32
_cell_length_a 14.243423
_cell_length_b 14.243423
_cell_length_c 7.532640
_cell_angle_alpha 90.000000
_cell_angle_beta 90.000000
_cell_angle_gamma 90.000000
_cell_volume 1528.185084
_symmetry_space_group_name_H-M "P 4/M"
_symmetry_group_IT_number 83
_symmetry_cell_setting 'tetragonal'
loop_
_space_group_symop_operation_xyz
x,y,z
-y,x,z
-x,-y,z
y,-x,z
-x,-y,-z
y,-x,-z
x,y,-z
-y,x,-z
loop_
_atom_site_type_symbol
_atom_site_label
_atom_site_fract_x
_atom_site_fract_y
_atom_site_fract_z
Si Si1 0.590658 0.936840 0.204749
Si Si2 0.778269 0.411520 0.500000
Si Si3 0.119582 0.913690 0.290086
Si Si4 0.879205 0.685667 0.803780
Si Si5 0.250942 0.379856 0.500000
O O1 0.599652 0.844817 0.327364
O O2 0.500000 0.000000 0.249812
O O3 0.675078 0.010126 0.245333
O O4 0.590094 0.902776 0.000000
O O5 0.694541 0.335423 0.500000
O O6 0.721103 0.510203 0.500000
O O7 0.129745 0.907692 0.500000
O O8 0.203613 0.855108 0.202185
O O9 0.021472 0.871920 0.226019
O O10 0.812088 0.630216 0.673879
O O11 0.859974 0.644707 0.000000
#
# Coordination Sequence:
#
# PCOD8302842 Si02
#       5
#     8   4   8   8   4
#     4  10  21  40  68  98 127 160 205 259 321 386
#     4  12  26  44  70  94 128 172 212 269 331 381
#     4   9  19  34  53  82 128 177 213 243 291 372
#     4  11  23  38  62  95 127 162 211 263 313 380
#     4  12  27  45  65  92 126 166 219 274 327 381
#
# _framework density 20.939872000000001
#
# number of rings (size 3 to 8) (size 9 to 14) (size 15 to 20)
#    0.000    1.500    3.750    1.875    3.500    2.250 
#    0.000    1.250    0.000    0.000    0.000    3.500 
#    0.000    0.000    0.000    0.000    0.000    0.000 
#
# Total GULP energy -396588.090595 kJ/mol
# GULP energy per Si atom -12393.377831 kJ/mol
# Density = 2.089221 g / cm^3
# Si number density = 20.939872 Si / 1000 Ang^3
#
#
#
# Elastic Constant Matrix: (Units=GPa)
#
#
# Indices 1 2 3 4 5 6 
#
# 1 97.4337 30.4458 49.4960 0.0000 0.0000 -5.0653
# 2 30.4458 97.4337 49.4960 0.0000 0.0000 5.0653
# 3 49.4960 49.4960 115.6822 0.0000 0.0000 0.0000
# 4 0.0000 0.0000 0.0000 7.9213 0.0000 0.0000
# 5 0.0000 0.0000 0.0000 0.0000 7.9213 0.0000
# 6 -5.0653 5.0653 0.0000 0.0000 0.0000 34.4685
#
#
#
# Elastic Compliance Matrix: (Units=1/GPa)
#
#
# Indices 1 2 3 4 5 6 
#
# 1 0.013480 -0.001787 -0.005003 0.000000 0.000000 0.002244
# 2 -0.001787 0.013480 -0.005003 0.000000 0.000000 -0.002244
# 3 -0.005003 -0.005003 0.012925 0.000000 0.000000 0.000000
# 4 0.000000 0.000000 0.000000 0.126242 0.000000 0.000000
# 5 0.000000 0.000000 0.000000 0.000000 0.126242 0.000000
# 6 0.002244 -0.002244 0.000000 0.000000 0.000000 0.029671
#
#
# Mechanical properties :
#
#
# Convention : Reuss Voigt Hill
#
# Bulk Modulus (GPa) = 61.35233 63.26945 62.31089
# Shear Modulus (GPa) = 14.24258 22.13634 18.18946
#
# Velocity S-wave (km/s) = 2.61083 3.25489 2.95049
# Velocity P-wave (km/s) = 6.20092 6.66380 6.43652
#
# Compressibility (1/GPa) = 0.01629930
#
# Stress axis : x y z
#
# Youngs Moduli (GPa) = 74.18426 74.18426 77.36723
#
# Poissons Ratio (x) = 0.13260 0.38705
# Poissons Ratio (y) = 0.13260 0.38705
# Poissons Ratio (z) = 0.37113 0.37113
#
# Static dielectric constant tensor:
#      x y z
#    x 3.866790 0.000000 0.000000 
#    y 0.000000 3.866790 0.000000 
#    z 0.000000 0.000000 3.762110 
# 
# 
# High freq. dielectric constant tensor:
#      x y z
#    x 1.806980 0.000000 0.000000 
#    y 0.000000 1.806980 0.000000 
#    z 0.000000 0.000000 1.825440 
# 
# From -- ./inp_files/469.got.cif
#   From: 2010.03.12/outbox.cif.g09.slc.cpg/sg83_1_cif.got.tgz:469.got - 2010.04.08 20:05:18.
