data_PCOD8302967
_publ_section_title
;
Structure prediction by ZEFSAII (Michael W. Deem and Ramdas Pophale) SiO2 
 PCOD8302967
Probable space group: P 4/M
;
_chemical_formula_sum "Si O2"
_cell_formula_units_Z 48
_cell_length_a 8.241952
_cell_length_b 8.241952
_cell_length_c 31.836324
_cell_angle_alpha 90.000000
_cell_angle_beta 90.000000
_cell_angle_gamma 90.000000
_cell_volume 2162.634255
_symmetry_space_group_name_H-M "P 4/M"
_symmetry_group_IT_number 83
_symmetry_cell_setting 'tetragonal'
loop_
_space_group_symop_operation_xyz
x,y,z
-y,x,z
-x,-y,z
y,-x,z
-x,-y,-z
y,-x,-z
x,y,-z
-y,x,-z
loop_
_atom_site_type_symbol
_atom_site_label
_atom_site_fract_x
_atom_site_fract_y
_atom_site_fract_z
Si Si1 0.902375 0.751958 0.625046
Si Si2 0.084443 0.746825 0.926725
Si Si3 0.580731 0.243892 0.701295
Si Si4 0.000000 0.500000 0.767963
Si Si5 0.739900 0.615063 0.452387
Si Si6 0.080428 0.746869 0.167614
Si Si7 0.424168 0.243158 0.000000
O O1 0.848291 0.613616 0.657685
O O2 0.878883 0.681702 0.578234
O O3 0.089543 0.792514 0.631975
O O4 0.105161 0.678228 0.879473
O O5 0.900218 0.799324 0.934490
O O6 0.133960 0.605381 0.958744
O O7 0.701893 0.394487 0.704204
O O8 0.611111 0.117751 0.739242
O O9 0.884784 0.390231 0.797788
O O10 0.574260 0.711612 0.443733
O O11 0.799775 0.642701 0.500000
O O12 0.895108 0.799532 0.174528
O O13 0.607457 0.300499 0.000000
#
# Coordination Sequence:
#
# PCOD8302967 Si02
#       7
#     8   8   8   4   8   8   4
#     4  11  24  40  59  86 120 157 200 251 301 347
#     4   9  19  37  60  85 113 149 194 236 277 335
#     4  11  24  41  61  87 119 155 196 242 294 356
#     4  12  22  38  64  91 117 150 192 240 296 352
#     4   9  19  37  61  89 121 158 199 242 292 352
#     4   9  20  38  60  88 120 152 190 237 287 343
#     4  11  24  37  52  82 120 153 190 237 286 334
#
# _framework density 22.195153000000001
#
# number of rings (size 3 to 8) (size 9 to 14) (size 15 to 20)
#    0.000    1.917    0.000    5.000    0.000    8.667 
#    0.000    4.167    0.000    2.000    0.000    0.000 
#    0.000    0.000    0.000    0.000    0.000    0.000 
#
# Total GULP energy -595317.429486 kJ/mol
# GULP energy per Si atom -12402.446448 kJ/mol
# Density = 2.214464 g / cm^3
# Si number density = 22.195153 Si / 1000 Ang^3
#
#
#
# Elastic Constant Matrix: (Units=GPa)
#
#
# Indices 1 2 3 4 5 6 
#
# 1 65.3362 23.0790 50.4638 0.0000 0.0000 -3.0569
# 2 23.0790 65.3362 50.4638 0.0000 0.0000 3.0569
# 3 50.4638 50.4638 169.1001 0.0000 0.0000 0.0000
# 4 0.0000 0.0000 0.0000 28.3091 0.0000 0.0000
# 5 0.0000 0.0000 0.0000 0.0000 28.3091 0.0000
# 6 -3.0569 3.0569 0.0000 0.0000 0.0000 32.7348
#
#
#
# Elastic Compliance Matrix: (Units=1/GPa)
#
#
# Indices 1 2 3 4 5 6 
#
# 1 0.020571 -0.003417 -0.005119 0.000000 0.000000 0.002240
# 2 -0.003417 0.020571 -0.005119 0.000000 0.000000 -0.002240
# 3 -0.005119 -0.005119 0.008969 0.000000 0.000000 0.000000
# 4 0.000000 0.000000 0.000000 0.035324 0.000000 0.000000
# 5 0.000000 0.000000 0.000000 0.000000 0.035324 0.000000
# 6 0.002240 -0.002240 0.000000 0.000000 0.000000 0.030967
#
#
# Mechanical properties :
#
#
# Convention : Reuss Voigt Hill
#
# Bulk Modulus (GPa) = 43.85932 60.86509 52.36221
# Shear Modulus (GPa) = 26.78971 29.58832 28.18902
#
# Velocity S-wave (km/s) = 3.47797 3.65512 3.56765
# Velocity P-wave (km/s) = 5.99433 6.73019 6.37289
#
# Compressibility (1/GPa) = 0.02280017
#
# Stress axis : x y z
#
# Youngs Moduli (GPa) = 48.61141 48.61141 111.49473
#
# Poissons Ratio (x) = 0.16613 0.57076
# Poissons Ratio (y) = 0.16613 0.57076
# Poissons Ratio (z) = 0.24885 0.24885
#
# Static dielectric constant tensor:
#      x y z
#    x 3.821880 0.000000 0.000000 
#    y 0.000000 3.821880 0.000000 
#    z 0.000000 0.000000 4.056570 
# 
# 
# High freq. dielectric constant tensor:
#      x y z
#    x 1.866570 0.000000 0.000000 
#    y 0.000000 1.866570 0.000000 
#    z 0.000000 0.000000 1.884720 
# 
# From -- ./inp_files/3474.got.cif
#   From: 2010.03.12/outbox.cif.g09.slc.cpg/sg83_2_cif.got.tgz:3474.got - 2010.04.08 20:05:18.
