data_PCOD8302255
_publ_section_title
;
Structure prediction by ZEFSAII (Michael W. Deem and Ramdas Pophale) SiO2 
 PCOD8302255
Probable space group: P -4
;
_chemical_formula_sum "Si O2"
_cell_formula_units_Z 23
_cell_length_a 13.465317
_cell_length_b 13.465317
_cell_length_c 6.639892
_cell_angle_alpha 90.000000
_cell_angle_beta 90.000000
_cell_angle_gamma 90.000000
_cell_volume 1203.910437
_symmetry_space_group_name_H-M "P -4"
_symmetry_group_IT_number 81
_symmetry_cell_setting 'tetragonal'
loop_
_space_group_symop_operation_xyz
x,y,z
y,-x,-z
-x,-y,z
-y,x,-z
loop_
_atom_site_type_symbol
_atom_site_label
_atom_site_fract_x
_atom_site_fract_y
_atom_site_fract_z
Si Si1 0.300511 0.019043 0.132996
Si Si2 0.000000 0.000000 0.500000
Si Si3 0.175615 0.710528 0.201587
Si Si4 0.832706 0.864392 0.405560
Si Si5 0.889091 0.505648 0.280888
Si Si6 0.500000 0.000000 0.337721
Si Si7 0.697571 0.180950 0.922168
O O1 0.235482 0.045903 0.326588
O O2 0.413945 0.039333 0.193973
O O3 0.268789 0.082628 0.941351
O O4 0.280328 0.906473 0.077884
O O5 0.092647 0.945704 0.611120
O O6 0.168613 0.792399 0.376738
O O7 0.170495 0.597981 0.282024
O O8 0.275396 0.723558 0.062259
O O9 0.826116 0.767094 0.270707
O O10 0.908776 0.536149 0.515622
O O11 0.821679 0.584766 0.159992
O O12 0.000000 0.500000 0.177756
#
# Coordination Sequence:
#
# PCOD8302255 Si02
#       7
#     4   1   4   4   4   2   4
#     4  11  20  37  58  87 118 165 203 253 306 365
#     4  12  24  32  54  68 124 166 204 232 310 336
#     4  11  22  40  61  87 126 158 212 255 313 376
#     4  11  24  40  51  83 124 171 205 258 300 374
#     4  10  20  39  63  87 121 158 207 266 310 360
#     4  10  20  34  68  88 122 158 210 268 310 358
#     4  11  24  36  63  90 122 160 215 252 316 372
#
# _framework density 19.104410000000001
#
# number of rings (size 3 to 8) (size 9 to 14) (size 15 to 20)
#    0.522    0.696    3.478    3.130    4.870    1.391 
#    0.000    3.478    0.000    0.522    0.000    0.000 
#    0.000    0.000    0.000    0.000    0.000    0.000 
#
# Total GULP energy -284969.136910 kJ/mol
# GULP energy per Si atom -12389.962474 kJ/mol
# Density = 1.906093 g / cm^3
# Si number density = 19.104410 Si / 1000 Ang^3
#
#
#
# Elastic Constant Matrix: (Units=GPa)
#
#
# Indices 1 2 3 4 5 6 
#
# 1 78.7422 29.2511 31.2291 0.0000 0.0000 1.0331
# 2 29.2511 78.7422 31.2291 0.0000 0.0000 -1.0331
# 3 31.2291 31.2291 100.8110 0.0000 0.0000 0.0000
# 4 0.0000 0.0000 0.0000 29.9314 0.0000 0.0000
# 5 0.0000 0.0000 0.0000 0.0000 29.9314 0.0000
# 6 1.0331 -1.0331 0.0000 0.0000 0.0000 26.8689
#
#
#
# Elastic Compliance Matrix: (Units=1/GPa)
#
#
# Indices 1 2 3 4 5 6 
#
# 1 0.015760 -0.004479 -0.003495 0.000000 0.000000 -0.000778
# 2 -0.004479 0.015760 -0.003495 0.000000 0.000000 0.000778
# 3 -0.003495 -0.003495 0.012085 0.000000 0.000000 0.000000
# 4 0.000000 0.000000 0.000000 0.033410 0.000000 0.000000
# 5 0.000000 0.000000 0.000000 0.000000 0.033410 0.000000
# 6 -0.000778 0.000778 0.000000 0.000000 0.000000 0.037278
#
#
# Mechanical properties :
#
#
# Convention : Reuss Voigt Hill
#
# Bulk Modulus (GPa) = 48.38360 49.07932 48.73146
# Shear Modulus (GPa) = 28.16492 28.45207 28.30849
#
# Velocity S-wave (km/s) = 3.84378 3.86332 3.85356
# Velocity P-wave (km/s) = 6.71419 6.75619 6.73523
#
# Compressibility (1/GPa) = 0.02066816
#
# Stress axis : x y z
#
# Youngs Moduli (GPa) = 63.45367 63.45367 82.74957
#
# Poissons Ratio (x) = 0.28418 0.28918
# Poissons Ratio (y) = 0.28418 0.28918
# Poissons Ratio (z) = 0.22174 0.22174
#
# Static dielectric constant tensor:
#      x y z
#    x 3.369270 0.000000 0.000000 
#    y 0.000000 3.369270 0.000000 
#    z 0.000000 0.000000 3.639420 
# 
# 
# High freq. dielectric constant tensor:
#      x y z
#    x 1.720510 0.000000 0.000000 
#    y 0.000000 1.720510 0.000000 
#    z 0.000000 0.000000 1.762740 
# 
# From -- ./inp_files/299.got.cif
#   From: 2010.03.12/outbox.cif.g09.slc.cpg/sg81_cif.got.tgz:299.got - 2010.04.08 20:01:38.
