data_PCOD8302549
_publ_section_title
;
Structure prediction by ZEFSAII (Michael W. Deem and Ramdas Pophale) SiO2 
 PCOD8302549
Probable space group: I -4 
;
_chemical_formula_sum "Si O2"
_cell_formula_units_Z 56
_cell_length_a 15.462318
_cell_length_b 15.462318
_cell_length_c 11.234324
_cell_angle_alpha 90.000000
_cell_angle_beta 90.000000
_cell_angle_gamma 90.000000
_cell_volume 2685.939007
_symmetry_space_group_name_H-M "I -4 "
_symmetry_group_IT_number 82
_symmetry_cell_setting 'tetragonal'
loop_
_space_group_symop_operation_xyz
x,y,z
y,-x,-z
-x,-y,z
-y,x,-z
1/2+x,1/2+y,1/2+z
1/2+y,1/2-x,1/2-z
1/2-x,1/2-y,1/2+z
1/2-y,1/2+x,1/2-z
loop_
_atom_site_type_symbol
_atom_site_label
_atom_site_fract_x
_atom_site_fract_y
_atom_site_fract_z
Si Si1 0.120104 0.567481 0.283543
Si Si2 0.447464 0.370477 0.026541
Si Si3 0.208224 0.131979 0.033248
Si Si4 0.169317 0.258884 0.390471
Si Si5 0.451334 0.246402 0.502895
Si Si6 0.956132 0.732471 0.721141
Si Si7 0.638149 0.205375 0.235729
O O1 0.112406 0.474626 0.216585
O O2 0.186189 0.630444 0.216958
O O3 0.158777 0.559471 0.417761
O O4 0.448539 0.328161 0.159825
O O5 0.390175 0.457244 0.025171
O O6 0.406262 0.302502 0.936281
O O7 0.217022 0.114523 0.173730
O O8 0.206141 0.041214 0.962120
O O9 0.295412 0.180619 0.993951
O O10 0.121063 0.183173 0.020879
O O11 0.257034 0.208070 0.354958
O O12 0.451218 0.224030 0.364186
O O13 0.874634 0.673577 0.686071
O O14 0.044878 0.687505 0.673208
#
# Coordination Sequence:
#
# PCOD8302549 Si02
#       7
#     8   8   8   8   8   8   8
#     4  11  25  44  68 102 138 179 238 304 358 423
#     4  11  25  44  68 102 138 179 238 304 358 423
#     4  11  23  41  65  97 131 178 228 286 348 423
#     4  12  22  40  72  96 128 180 238 284 358 426
#     4  11  24  42  66  96 136 175 226 282 356 427
#     4  11  24  42  66  96 136 175 226 282 356 427
#     4  11  23  41  65  97 131 178 228 286 348 423
#
# _framework density 20.849319999999999
#
# number of rings (size 3 to 8) (size 9 to 14) (size 15 to 20)
#    0.000    0.857    7.143    0.000    0.000    5.143 
#    0.000    0.000    0.000    0.000    0.000    0.000 
#    0.000    0.000    0.000    0.000    0.000    0.000 
#
# Total GULP energy -346937.627031 kJ/mol
# GULP energy per Si atom -12390.629537 kJ/mol
# Density = 2.080187 g / cm^3
# Si number density = 20.849320 Si / 1000 Ang^3
#
#
#
# Elastic Constant Matrix: (Units=GPa)
#
#
# Indices 1 2 3 4 5 6 
#
# 1 120.6689 56.8419 34.0895 0.0000 0.0000 -0.8392
# 2 56.8419 120.6689 34.0895 0.0000 0.0000 0.8392
# 3 34.0895 34.0895 82.7545 0.0000 0.0000 0.0000
# 4 0.0000 0.0000 0.0000 28.2603 0.0000 0.0000
# 5 0.0000 0.0000 0.0000 0.0000 28.2603 0.0000
# 6 -0.8392 0.8392 0.0000 0.0000 0.0000 29.2716
#
#
#
# Elastic Compliance Matrix: (Units=1/GPa)
#
#
# Indices 1 2 3 4 5 6 
#
# 1 0.011186 -0.004493 -0.002757 0.000000 0.000000 0.000450
# 2 -0.004493 0.011186 -0.002757 0.000000 0.000000 -0.000450
# 3 -0.002757 -0.002757 0.014355 0.000000 0.000000 0.000000
# 4 0.000000 0.000000 0.000000 0.035385 0.000000 0.000000
# 5 0.000000 0.000000 0.000000 0.000000 0.035385 0.000000
# 6 0.000450 -0.000450 0.000000 0.000000 0.000000 0.034189
#
#
# Mechanical properties :
#
#
# Convention : Reuss Voigt Hill
#
# Bulk Modulus (GPa) = 59.83509 63.79268 61.81388
# Shear Modulus (GPa) = 29.89163 30.42985 30.16074
#
# Velocity S-wave (km/s) = 3.79053 3.82450 3.80755
# Velocity P-wave (km/s) = 6.92233 7.08279 7.00302
#
# Compressibility (1/GPa) = 0.01671260
#
# Stress axis : x y z
#
# Youngs Moduli (GPa) = 89.39962 89.39962 69.66130
#
# Poissons Ratio (x) = 0.40171 0.19204
# Poissons Ratio (y) = 0.40171 0.19204
# Poissons Ratio (z) = 0.24646 0.24646
#
# Static dielectric constant tensor:
#      x y z
#    x 4.072180 0.000000 0.000000 
#    y 0.000000 4.072180 0.000000 
#    z 0.000000 0.000000 3.789210 
# 
# 
# High freq. dielectric constant tensor:
#      x y z
#    x 1.825030 0.000000 0.000000 
#    y 0.000000 1.825030 0.000000 
#    z 0.000000 0.000000 1.810470 
# 
# From -- ./inp_files/1843.got.cif
#   From: 2010.03.12/outbox.cif.g09.slc.cpg/sg82_1_cif.got.tgz:1843.got - 2010.04.08 20:02:50.
