data_PCOD8302390
_publ_section_title
;
Structure prediction by ZEFSAII (Michael W. Deem and Ramdas Pophale) SiO2 
 PCOD8302390
Probable space group: I -4 
;
_chemical_formula_sum "Si O2"
_cell_formula_units_Z 44
_cell_length_a 9.042759
_cell_length_b 9.042759
_cell_length_c 28.191758
_cell_angle_alpha 90.000000
_cell_angle_beta 90.000000
_cell_angle_gamma 90.000000
_cell_volume 2305.282067
_symmetry_space_group_name_H-M "I -4 "
_symmetry_group_IT_number 82
_symmetry_cell_setting 'tetragonal'
loop_
_space_group_symop_operation_xyz
x,y,z
y,-x,-z
-x,-y,z
-y,x,-z
1/2+x,1/2+y,1/2+z
1/2+y,1/2-x,1/2-z
1/2-x,1/2-y,1/2+z
1/2-y,1/2+x,1/2-z
loop_
_atom_site_type_symbol
_atom_site_label
_atom_site_fract_x
_atom_site_fract_y
_atom_site_fract_z
Si Si1 0.619078 0.205764 0.759965
Si Si2 0.500000 0.000000 0.930267
Si Si3 0.604315 0.365220 0.670902
Si Si4 0.690304 0.167809 0.863183
Si Si5 0.478576 0.832980 0.393506
Si Si6 0.757752 0.986015 0.002870
O O1 0.446337 0.200376 0.749961
O O2 0.682061 0.319578 0.720766
O O3 0.644279 0.251473 0.814539
O O4 0.448966 0.857872 0.898412
O O5 0.639023 0.948572 0.962177
O O6 0.500000 0.500000 0.683600
O O7 0.501412 0.240347 0.647089
O O8 0.731995 0.405379 0.634302
O O9 0.812833 0.272408 0.886471
O O10 0.518857 0.827936 0.448673
O O11 0.500000 0.000000 0.375133
O O12 0.867918 0.848953 0.011377
#
# Coordination Sequence:
#
# PCOD8302390 Si02
#       6
#     8   4   8   8   8   8
#     4   9  17  34  58  83 110 143 197 253 295 348
#     4  12  20  36  67  90 118 155 208 260 304 354
#     4   9  19  36  59  84 116 154 203 246 290 360
#     4  10  20  36  61  89 114 155 204 248 302 362
#     4  11  22  39  54  86 125 157 199 248 304 371
#     4  11  23  38  63  89 117 156 205 251 303 365
#
# _framework density 19.086603
#
# number of rings (size 3 to 8) (size 9 to 14) (size 15 to 20)
#    0.000    1.818    2.727    3.273    5.091    0.000 
#    9.818    0.000    0.000    4.909    0.000    0.000 
#    0.000    0.000    0.000    0.000    0.000    0.000 
#
# Total GULP energy -272727.295905 kJ/mol
# GULP energy per Si atom -12396.695268 kJ/mol
# Density = 1.904316 g / cm^3
# Si number density = 19.086603 Si / 1000 Ang^3
#
#
#
# Elastic Constant Matrix: (Units=GPa)
#
#
# Indices 1 2 3 4 5 6 
#
# 1 82.6517 28.0722 42.7903 0.0000 0.0000 0.9779
# 2 28.0722 82.6517 42.7903 0.0000 0.0000 -0.9779
# 3 42.7903 42.7903 143.9845 0.0000 0.0000 0.0000
# 4 0.0000 0.0000 0.0000 30.9975 0.0000 0.0000
# 5 0.0000 0.0000 0.0000 0.0000 30.9975 0.0000
# 6 0.9779 -0.9779 0.0000 0.0000 0.0000 22.9578
#
#
#
# Elastic Compliance Matrix: (Units=1/GPa)
#
#
# Indices 1 2 3 4 5 6 
#
# 1 0.015037 -0.003313 -0.003484 0.000000 0.000000 -0.000782
# 2 -0.003313 0.015037 -0.003484 0.000000 0.000000 0.000782
# 3 -0.003484 -0.003484 0.009016 0.000000 0.000000 0.000000
# 4 0.000000 0.000000 0.000000 0.032261 0.000000 0.000000
# 5 0.000000 0.000000 0.000000 0.000000 0.032261 0.000000
# 6 -0.000782 0.000782 0.000000 0.000000 0.000000 0.043625
#
#
# Mechanical properties :
#
#
# Convention : Reuss Voigt Hill
#
# Bulk Modulus (GPa) = 53.97272 59.62149 56.79710
# Shear Modulus (GPa) = 28.73963 30.03289 29.38626
#
# Velocity S-wave (km/s) = 3.88461 3.97105 3.92807
# Velocity P-wave (km/s) = 6.96128 7.23400 7.09895
#
# Compressibility (1/GPa) = 0.01852788
#
# Stress axis : x y z
#
# Youngs Moduli (GPa) = 66.50139 66.50137 110.91118
#
# Poissons Ratio (x) = 0.22030 0.38646
# Poissons Ratio (y) = 0.22030 0.38646
# Poissons Ratio (z) = 0.23172 0.23172
#
# Static dielectric constant tensor:
#      x y z
#    x 3.440750 0.000000 0.000000 
#    y 0.000000 3.440750 0.000000 
#    z 0.000000 0.000000 3.739360 
# 
# 
# High freq. dielectric constant tensor:
#      x y z
#    x 1.720970 0.000000 0.000000 
#    y 0.000000 1.720970 0.000000 
#    z 0.000000 0.000000 1.766810 
# 
# From -- ./inp_files/3930.got.cif
#   From: 2010.03.12/outbox.cif.g09.slc.cpg/sg82_2_cif.got.tgz:3930.got - 2010.04.08 20:02:50.
