data_PCOD8302122
_publ_section_title
;
Structure prediction by ZEFSAII (Michael W. Deem and Ramdas Pophale) SiO2 
 PCOD8302122
Probable space group: I 4
;
_chemical_formula_sum "Si O2"
_cell_formula_units_Z 48
_cell_length_a 8.710726
_cell_length_b 8.710726
_cell_length_c 32.674657
_cell_angle_alpha 90.000000
_cell_angle_beta 90.000000
_cell_angle_gamma 90.000000
_cell_volume 2479.246697
_symmetry_space_group_name_H-M "I 4"
_symmetry_group_IT_number 79
_symmetry_cell_setting 'tetragonal'
loop_
_space_group_symop_operation_xyz
x,y,z
-y,x,z
-x,-y,z
y,-x,z
1/2+x,1/2+y,1/2+z
1/2-y,1/2+x,1/2+z
1/2-x,1/2-y,1/2+z
1/2+y,1/2-x,1/2+z
loop_
_atom_site_type_symbol
_atom_site_label
_atom_site_fract_x
_atom_site_fract_y
_atom_site_fract_z
Si Si1 0.500000 0.000000 0.179140
Si Si2 0.000000 0.500000 0.898084
Si Si3 0.249833 0.060354 0.963957
Si Si4 0.436303 0.259227 0.120053
Si Si5 0.470396 0.249787 0.742676
Si Si6 0.760391 0.081050 0.526150
Si Si7 0.250270 0.013620 0.332585
O O1 0.591590 0.880917 0.150507
O O2 0.374720 0.926348 0.208818
O O3 0.064053 0.644777 0.923696
O O4 0.134146 0.447821 0.868523
O O5 0.111445 0.182990 0.965863
O O6 0.363900 0.110867 0.000831
O O7 0.608059 0.315385 0.129117
O O8 0.412191 0.208617 0.073250
O O9 0.632122 0.332873 0.736819
O O10 0.490105 0.173183 0.787730
O O11 0.905761 0.191280 0.516002
O O12 0.158443 0.857928 0.337661
#
# Coordination Sequence:
#
# PCOD8302122 Si02
#       7
#     4   4   8   8   8   8   8
#     4  12  19  29  54  82 106 142 176 211 269 326
#     4  12  21  35  56  80 106 138 176 217 267 330
#     4  11  24  38  54  81 114 142 172 222 282 330
#     4   9  20  36  53  78 110 141 179 224 262 305
#     4   9  19  35  52  75 107 138 174 220 264 310
#     4   9  19  38  60  78 102 143 189 225 262 317
#     4   9  19  36  56  76 101 137 180 221 259 309
#
# _framework density 19.360717999999999
#
# number of rings (size 3 to 8) (size 9 to 14) (size 15 to 20)
#    0.000    2.167    0.000    5.500    0.000    3.333 
#    0.000    1.667    0.000    2.000    0.000   14.000 
#    0.000    0.000    0.000    0.000    0.000    0.000 
#
# Total GULP energy -297336.923262 kJ/mol
# GULP energy per Si atom -12389.038469 kJ/mol
# Density = 1.931665 g / cm^3
# Si number density = 19.360718 Si / 1000 Ang^3
#
#
#
# Elastic Constant Matrix: (Units=GPa)
#
#
# Indices 1 2 3 4 5 6 
#
# 1 75.2886 32.5750 57.3328 0.0000 0.0000 -3.6017
# 2 32.5750 75.2887 57.3328 0.0000 0.0000 3.6017
# 3 57.3328 57.3328 134.2676 0.0000 0.0000 0.0000
# 4 0.0000 0.0000 0.0000 33.7634 0.0000 0.0000
# 5 0.0000 0.0000 0.0000 0.0000 33.7634 0.0000
# 6 -3.6017 3.6017 0.0000 0.0000 0.0000 32.0717
#
#
#
# Elastic Compliance Matrix: (Units=1/GPa)
#
#
# Indices 1 2 3 4 5 6 
#
# 1 0.020421 -0.003443 -0.007250 0.000000 0.000000 0.002680
# 2 -0.003443 0.020421 -0.007250 0.000000 0.000000 -0.002680
# 3 -0.007250 -0.007250 0.013639 0.000000 0.000000 0.000000
# 4 0.000000 0.000000 0.000000 0.029618 0.000000 0.000000
# 5 0.000000 0.000000 0.000000 0.000000 0.029618 0.000000
# 6 0.002680 -0.002680 0.000000 0.000000 0.000000 0.031782
#
#
# Mechanical properties :
#
#
# Convention : Reuss Voigt Hill
#
# Bulk Modulus (GPa) = 53.77451 64.36956 59.07203
# Shear Modulus (GPa) = 26.65517 29.09333 27.87425
#
# Velocity S-wave (km/s) = 3.71450 3.88067 3.79850
# Velocity P-wave (km/s) = 6.79942 7.30747 7.05802
#
# Compressibility (1/GPa) = 0.01859617
#
# Stress axis : x y z
#
# Youngs Moduli (GPa) = 48.97003 48.97003 73.31937
#
# Poissons Ratio (x) = 0.16860 0.53153
# Poissons Ratio (y) = 0.16860 0.53153
# Poissons Ratio (z) = 0.35501 0.35501
#
# Static dielectric constant tensor:
#      x y z
#    x 3.613330 0.000000 0.000000 
#    y 0.000000 3.613330 0.000000 
#    z 0.000000 0.000000 3.617920 
# 
# 
# High freq. dielectric constant tensor:
#      x y z
#    x 1.748520 0.000000 0.000000 
#    y 0.000000 1.748520 0.000000 
#    z 0.000000 0.000000 1.762680 
# 
# From -- ./inp_files/2149.got.cif
#   From: 2010.03.12/outbox.cif.g09.slc.cpg/sg79_cif.got.tgz:2149.got - 2010.04.16 16:38:49.
