data_PCOD8302359
_publ_section_title
;
Structure prediction by ZEFSAII (Michael W. Deem and Ramdas Pophale) SiO2 
 PCOD8302359
Probable space group: I -4 
;
_chemical_formula_sum "Si O2"
_cell_formula_units_Z 64
_cell_length_a 23.878452
_cell_length_b 23.878452
_cell_length_c 6.116424
_cell_angle_alpha 90.000000
_cell_angle_beta 90.000000
_cell_angle_gamma 90.000000
_cell_volume 3487.465511
_symmetry_space_group_name_H-M "I -4 "
_symmetry_group_IT_number 82
_symmetry_cell_setting 'tetragonal'
loop_
_space_group_symop_operation_xyz
x,y,z
y,-x,-z
-x,-y,z
-y,x,-z
1/2+x,1/2+y,1/2+z
1/2+y,1/2-x,1/2-z
1/2-x,1/2-y,1/2+z
1/2-y,1/2+x,1/2-z
loop_
_atom_site_type_symbol
_atom_site_label
_atom_site_fract_x
_atom_site_fract_y
_atom_site_fract_z
Si Si1 0.161151 0.350548 0.464506
Si Si2 0.730801 0.200469 0.889053
Si Si3 0.766631 0.595449 0.825084
Si Si4 0.088670 0.499668 0.815887
Si Si5 0.881340 0.741587 0.733713
Si Si6 0.507629 0.792810 0.419871
Si Si7 0.188275 0.187443 0.455861
Si Si8 0.155102 0.453912 0.192753
O O1 0.194332 0.322781 0.266191
O O2 0.203770 0.360943 0.663732
O O3 0.113177 0.307441 0.548652
O O4 0.133811 0.408599 0.374606
O O5 0.788984 0.177305 0.787774
O O6 0.720497 0.166901 0.108198
O O7 0.731668 0.265900 0.950548
O O8 0.753053 0.541039 0.679087
O O9 0.710620 0.623646 0.933438
O O10 0.807709 0.578434 0.018096
O O11 0.055731 0.448699 0.697011
O O12 0.146887 0.510685 0.695577
O O13 0.102474 0.483234 0.069689
O O14 0.937818 0.744715 0.874606
O O15 0.865658 0.801617 0.614879
O O16 0.499093 0.805689 0.678178
#
# Coordination Sequence:
#
# PCOD8302359 Si02
#       8
#     8   8   8   8   8   8   8   8
#     4  10  19  32  57  78 106 140 178 233 279 354
#     4  11  19  30  53  83 113 135 175 229 290 338
#     4  10  20  38  54  77 105 144 191 222 278 343
#     4  10  24  42  56  72  96 134 206 267 294 328
#     4  11  23  34  52  85 118 142 186 235 290 358
#     4  10  25  38  55  77 111 148 188 238 292 349
#     4  11  19  32  55  83 110 142 183 232 280 350
#     4  10  21  38  58  72  98 145 186 238 300 342
#
# _framework density 18.351437000000001
#
# number of rings (size 3 to 8) (size 9 to 14) (size 15 to 20)
#    0.000    1.625    3.750    0.750    7.000    5.000 
#    0.000    1.250    0.000    0.000    0.000    0.000 
#    0.000    0.500    0.000    0.500    0.000    0.000 
#
# Total GULP energy -396419.223614 kJ/mol
# GULP energy per Si atom -12388.100738 kJ/mol
# Density = 1.830967 g / cm^3
# Si number density = 18.351437 Si / 1000 Ang^3
#
#
#
# Elastic Constant Matrix: (Units=GPa)
#
#
# Indices 1 2 3 4 5 6 
#
# 1 65.8957 33.0223 29.2606 0.0000 0.0000 -1.2535
# 2 33.0223 65.8957 29.2606 0.0000 0.0000 1.2535
# 3 29.2606 29.2606 89.2585 0.0000 0.0000 0.0000
# 4 0.0000 0.0000 0.0000 23.6620 0.0000 0.0000
# 5 0.0000 0.0000 0.0000 0.0000 23.6620 0.0000
# 6 -1.2535 1.2535 0.0000 0.0000 0.0000 27.0727
#
#
#
# Elastic Compliance Matrix: (Units=1/GPa)
#
#
# Indices 1 2 3 4 5 6 
#
# 1 0.021535 -0.008993 -0.004111 0.000000 0.000000 0.001413
# 2 -0.008993 0.021535 -0.004111 0.000000 0.000000 -0.001413
# 3 -0.004111 -0.004111 0.013899 0.000000 0.000000 0.000000
# 4 0.000000 0.000000 0.000000 0.042262 0.000000 0.000000
# 5 0.000000 0.000000 0.000000 0.000000 0.042262 0.000000
# 6 0.001413 -0.001413 0.000000 0.000000 0.000000 0.037068
#
#
# Mechanical properties :
#
#
# Convention : Reuss Voigt Hill
#
# Bulk Modulus (GPa) = 44.37181 44.90412 44.63796
# Shear Modulus (GPa) = 22.67530 23.51309 23.09419
#
# Velocity S-wave (km/s) = 3.51894 3.58336 3.55130
# Velocity P-wave (km/s) = 6.38295 6.45312 6.41813
#
# Compressibility (1/GPa) = 0.02253683
#
# Stress axis : x y z
#
# Youngs Moduli (GPa) = 46.43681 46.43681 71.94752
#
# Poissons Ratio (x) = 0.41760 0.29581
# Poissons Ratio (y) = 0.41760 0.29581
# Poissons Ratio (z) = 0.19092 0.19092
#
# Static dielectric constant tensor:
#      x y z
#    x 3.224080 0.000000 0.000000 
#    y 0.000000 3.224080 0.000000 
#    z 0.000000 0.000000 3.862860 
# 
# 
# High freq. dielectric constant tensor:
#      x y z
#    x 1.671990 0.000000 0.000000 
#    y 0.000000 1.671990 0.000000 
#    z 0.000000 0.000000 1.740950 
# 
# From -- ./inp_files/476.got.cif
#   From: 2010.03.12/outbox.cif.g09.slc.cpg/sg82_1_cif.got.tgz:476.got - 2010.04.08 20:02:50.
