data_PCOD8302048
_publ_section_title
;
Structure prediction by ZEFSAII (Michael W. Deem and Ramdas Pophale) SiO2 
 PCOD8302048
Probable space group: P 43
;
_chemical_formula_sum "Si O2"
_cell_formula_units_Z 28
_cell_length_a 11.655206
_cell_length_b 11.655206
_cell_length_c 8.475185
_cell_angle_alpha 90.000000
_cell_angle_beta 90.000000
_cell_angle_gamma 90.000000
_cell_volume 1151.301564
_symmetry_space_group_name_H-M "P 43"
_symmetry_group_IT_number 78
_symmetry_cell_setting 'tetragonal'
loop_
_space_group_symop_operation_xyz
x,y,z
-y,x,3/4+z
-x,-y,1/2+z
y,-x,1/4+z
loop_
_atom_site_type_symbol
_atom_site_label
_atom_site_fract_x
_atom_site_fract_y
_atom_site_fract_z
Si Si1 0.794936 0.622073 0.342470
Si Si2 0.659195 0.795914 0.526751
Si Si3 0.755272 0.178146 0.298113
Si Si4 0.484232 0.795547 0.792960
Si Si5 0.101327 0.080948 0.055562
Si Si6 0.946007 0.524171 0.606509
Si Si7 0.001113 0.258520 0.292116
O O1 0.693971 0.674089 0.450679
O O2 0.847790 0.723730 0.231407
O O3 0.747908 0.518791 0.226041
O O4 0.899715 0.581114 0.447585
O O5 0.594811 0.761427 0.691281
O O6 0.766895 0.877788 0.560115
O O7 0.574578 0.859514 0.408774
O O8 0.641360 0.238980 0.217736
O O9 0.783175 0.059888 0.205242
O O10 0.863090 0.263644 0.301619
O O11 0.472376 0.933024 0.809892
O O12 0.028327 0.170411 0.155097
O O13 0.084078 0.953662 0.129954
O O14 0.954884 0.615384 0.747495
#
# Coordination Sequence:
#
# PCOD8302048 Si02
#       7
#     4   4   4   4   4   4   4
#     4  10  26  46  74 120 153 209 280 336 412 462
#     4  12  26  48  79 111 168 212 278 336 404 493
#     4  10  26  44  70 115 164 215 263 324 411 494
#     4  10  25  45  70 111 158 212 272 335 389 488
#     4  12  28  48  72 117 174 221 258 323 420 513
#     4  12  24  45  80 112 156 221 281 333 400 494
#     4  12  23  48  73 112 167 220 258 335 426 492
#
# _framework density 24.3203
#
# number of rings (size 3 to 8) (size 9 to 14) (size 15 to 20)
#    0.857    0.000    4.286    1.714    4.000    2.286 
#    0.000    1.429    0.000    1.714    0.000    0.000 
#    0.000    0.000    0.000    0.000    0.000    0.000 
#
# Total GULP energy -346911.369903 kJ/mol
# GULP energy per Si atom -12389.691782 kJ/mol
# Density = 2.426495 g / cm^3
# Si number density = 24.320300 Si / 1000 Ang^3
#
#
#
# Elastic Constant Matrix: (Units=GPa)
#
#
# Indices 1 2 3 4 5 6 
#
# 1 103.3207 31.0964 48.7372 0.0000 0.0000 8.8827
# 2 31.0964 103.3207 48.7372 0.0000 0.0000 -8.8827
# 3 48.7372 48.7372 129.7265 0.0000 0.0000 0.0000
# 4 0.0000 0.0000 0.0000 43.3631 0.0000 0.0000
# 5 0.0000 0.0000 0.0000 0.0000 43.3631 0.0000
# 6 8.8827 -8.8827 0.0000 0.0000 0.0000 29.6887
#
#
#
# Elastic Compliance Matrix: (Units=1/GPa)
#
#
# Indices 1 2 3 4 5 6 
#
# 1 0.012585 -0.002360 -0.003842 0.000000 0.000000 -0.004472
# 2 -0.002360 0.012585 -0.003842 0.000000 0.000000 0.004472
# 3 -0.003842 -0.003842 0.010595 0.000000 0.000000 0.000000
# 4 0.000000 0.000000 0.000000 0.023061 0.000000 0.000000
# 5 0.000000 0.000000 0.000000 0.000000 0.023061 0.000000
# 6 -0.004472 0.004472 0.000000 0.000000 0.000000 0.036359
#
#
# Mechanical properties :
#
#
# Convention : Reuss Voigt Hill
#
# Bulk Modulus (GPa) = 63.77816 65.94552 64.86184
# Shear Modulus (GPa) = 34.82865 37.13611 35.98238
#
# Velocity S-wave (km/s) = 3.78839 3.91187 3.85063
# Velocity P-wave (km/s) = 6.73922 6.89768 6.81891
#
# Compressibility (1/GPa) = 0.01567935
#
# Stress axis : x y z
#
# Youngs Moduli (GPa) = 79.45661 79.45661 94.38401
#
# Poissons Ratio (x) = 0.18753 0.36258
# Poissons Ratio (y) = 0.18753 0.36258
# Poissons Ratio (z) = 0.30524 0.30524
#
# Static dielectric constant tensor:
#      x y z
#    x 4.308050 0.000000 0.000000 
#    y 0.000000 4.308050 0.000000 
#    z 0.000000 0.000000 4.702170 
# 
# 
# High freq. dielectric constant tensor:
#      x y z
#    x 1.951180 0.000000 0.000000 
#    y 0.000000 1.951180 0.000000 
#    z 0.000000 0.000000 1.982740 
# 
# From -- ./inp_files/648.got.cif
#   From: 2010.03.12/outbox.cif.g09.slc.cpg/sg78_cif.got.tgz:648.got - 2010.04.16 16:37:20.
