data_PCOD8302598
_publ_section_title
;
Structure prediction by ZEFSAII (Michael W. Deem and Ramdas Pophale) SiO2 
 PCOD8302598
Probable space group: I -4 
;
_chemical_formula_sum "Si O2"
_cell_formula_units_Z 28
_cell_length_a 13.432274
_cell_length_b 13.432274
_cell_length_c 6.876381
_cell_angle_alpha 90.000000
_cell_angle_beta 90.000000
_cell_angle_gamma 90.000000
_cell_volume 1240.677814
_symmetry_space_group_name_H-M "I -4 "
_symmetry_group_IT_number 82
_symmetry_cell_setting 'tetragonal'
loop_
_space_group_symop_operation_xyz
x,y,z
y,-x,-z
-x,-y,z
-y,x,-z
1/2+x,1/2+y,1/2+z
1/2+y,1/2-x,1/2-z
1/2-x,1/2-y,1/2+z
1/2-y,1/2+x,1/2-z
loop_
_atom_site_type_symbol
_atom_site_label
_atom_site_fract_x
_atom_site_fract_y
_atom_site_fract_z
Si Si1 0.000000 0.000000 0.000000
Si Si2 0.174982 0.827245 0.599410
Si Si3 0.320094 0.888863 0.938430
Si Si4 0.961347 0.826240 0.766360
Si Si5 0.500000 0.000000 0.750000
O O1 0.927361 0.072299 0.124380
O O2 0.261551 0.862304 0.742773
O O3 0.171148 0.709720 0.567335
O O4 0.198337 0.882466 0.398920
O O5 0.068619 0.856064 0.683855
O O6 0.427790 0.933690 0.885438
O O7 0.263305 0.967679 0.076740
#
# Coordination Sequence:
#
# PCOD8302598 Si02
#       5
#     2   8   8   8   2
#     4  12  24  42  68 112 146 180 252 314 388 440
#     4  12  26  48  78 110 151 204 256 321 383 463
#     4  12  28  50  76 110 158 203 261 312 392 470
#     4  12  26  45  76 110 149 194 256 321 384 457
#     4  12  32  48  78 116 160 214 252 320 406 472
#
# _framework density 22.568311000000001
#
# number of rings (size 3 to 8) (size 9 to 14) (size 15 to 20)
#    0.000    0.000    5.714    3.429    8.000    2.286 
#    0.000    1.429    0.000    0.000    0.000    0.000 
#    0.000    0.000    0.000    0.000    0.000    0.000 
#
# Total GULP energy -173635.796208 kJ/mol
# GULP energy per Si atom -12402.556872 kJ/mol
# Density = 2.251694 g / cm^3
# Si number density = 22.568311 Si / 1000 Ang^3
#
#
#
# Elastic Constant Matrix: (Units=GPa)
#
#
# Indices 1 2 3 4 5 6 
#
# 1 110.5673 28.0786 48.6127 0.0000 0.0000 9.9869
# 2 28.0786 110.5673 48.6127 0.0000 0.0000 -9.9869
# 3 48.6127 48.6127 129.9734 0.0000 0.0000 0.0000
# 4 0.0000 0.0000 0.0000 31.2361 0.0000 0.0000
# 5 0.0000 0.0000 0.0000 0.0000 31.2361 0.0000
# 6 9.9869 -9.9869 0.0000 0.0000 0.0000 37.5896
#
#
#
# Elastic Compliance Matrix: (Units=1/GPa)
#
#
# Indices 1 2 3 4 5 6 
#
# 1 0.011367 -0.001590 -0.003657 0.000000 0.000000 -0.003442
# 2 -0.001590 0.011367 -0.003657 0.000000 0.000000 0.003442
# 3 -0.003657 -0.003657 0.010429 0.000000 0.000000 0.000000
# 4 0.000000 0.000000 0.000000 0.032014 0.000000 0.000000
# 5 0.000000 0.000000 0.000000 0.000000 0.032014 0.000000
# 6 -0.003442 0.003442 0.000000 0.000000 0.000000 0.028432
#
#
# Mechanical properties :
#
#
# Convention : Reuss Voigt Hill
#
# Bulk Modulus (GPa) = 65.12083 66.85733 65.98908
# Shear Modulus (GPa) = 33.65906 35.06598 34.36252
#
# Velocity S-wave (km/s) = 3.86609 3.94607 3.90628
# Velocity P-wave (km/s) = 6.98903 7.10286 7.04618
#
# Compressibility (1/GPa) = 0.01535607
#
# Stress axis : x y z
#
# Youngs Moduli (GPa) = 87.97664 87.97664 95.88383
#
# Poissons Ratio (x) = 0.13986 0.35062
# Poissons Ratio (y) = 0.13986 0.35062
# Poissons Ratio (z) = 0.32171 0.32171
#
# Static dielectric constant tensor:
#      x y z
#    x 4.030890 0.000000 0.000000 
#    y 0.000000 4.030890 0.000000 
#    z 0.000000 0.000000 4.269050 
# 
# 
# High freq. dielectric constant tensor:
#      x y z
#    x 1.892730 0.000000 0.000000 
#    y 0.000000 1.892730 0.000000 
#    z 0.000000 0.000000 1.910670 
# 
# From -- ./inp_files/118.got.cif
#   From: 2010.03.12/outbox.cif.g09.slc.cpg/sg82_1_cif.got.tgz:118.got - 2010.04.08 20:02:50.
