data_PCOD8302076
_publ_section_title
;
Structure prediction by ZEFSAII (Michael W. Deem and Ramdas Pophale) SiO2 
 PCOD8302076
Probable space group: I 4
;
_chemical_formula_sum "Si O2"
_cell_formula_units_Z 56
_cell_length_a 14.401635
_cell_length_b 14.401635
_cell_length_c 11.934140
_cell_angle_alpha 90.000000
_cell_angle_beta 90.000000
_cell_angle_gamma 90.000000
_cell_volume 2475.225257
_symmetry_space_group_name_H-M "I 4"
_symmetry_group_IT_number 79
_symmetry_cell_setting 'tetragonal'
loop_
_space_group_symop_operation_xyz
x,y,z
-y,x,z
-x,-y,z
y,-x,z
1/2+x,1/2+y,1/2+z
1/2-y,1/2+x,1/2+z
1/2-x,1/2-y,1/2+z
1/2+y,1/2-x,1/2+z
loop_
_atom_site_type_symbol
_atom_site_label
_atom_site_fract_x
_atom_site_fract_y
_atom_site_fract_z
Si Si1 0.180456 0.586790 0.882920
Si Si2 0.625386 0.420360 0.934317
Si Si3 0.889634 0.106190 0.870237
Si Si4 0.808272 0.840073 0.645685
Si Si5 0.749169 0.851326 0.039710
Si Si6 0.368638 0.019349 0.161918
Si Si7 0.029285 0.643518 0.592051
O O1 0.288076 0.618701 0.861826
O O2 0.133168 0.544185 0.773548
O O3 0.130364 0.676631 0.936129
O O4 0.182095 0.504582 0.973563
O O5 0.625684 0.528769 0.902696
O O6 0.639003 0.396973 0.066395
O O7 0.831199 0.153880 0.771015
O O8 0.997943 0.129691 0.862311
O O9 0.854753 0.147372 0.989303
O O10 0.761663 0.745049 0.604471
O O11 0.729693 0.919390 0.650027
O O12 0.730259 0.935921 0.127575
O O13 0.442898 0.105004 0.168315
O O14 0.402285 0.944138 0.069462
#
# Coordination Sequence:
#
# PCOD8302076 Si02
#       7
#     8   8   8   8   8   8   8
#     4  10  21  42  63  96 135 174 227 276 351 405
#     4  10  19  36  63  94 129 165 220 285 328 392
#     4  11  26  45  70 102 141 189 226 279 352 419
#     4  11  22  41  69 101 130 178 234 291 339 403
#     4  10  25  44  66 103 136 174 238 284 338 422
#     4  10  23  41  64  97 137 179 220 280 354 415
#     4  10  22  39  64  98 130 174 223 292 342 403
#
# _framework density 22.624205
#
# number of rings (size 3 to 8) (size 9 to 14) (size 15 to 20)
#    0.000    1.714    1.429    1.714    6.000    8.000 
#    2.571    0.000    0.000    1.714    0.000    0.000 
#    0.000    0.000    0.000    0.000    0.000    0.000 
#
# Total GULP energy -346954.065602 kJ/mol
# GULP energy per Si atom -12391.216629 kJ/mol
# Density = 2.257271 g / cm^3
# Si number density = 22.624205 Si / 1000 Ang^3
#
#
#
# Elastic Constant Matrix: (Units=GPa)
#
#
# Indices 1 2 3 4 5 6 
#
# 1 76.1475 31.1286 29.0966 0.0000 0.0000 2.3846
# 2 31.1286 76.1475 29.0966 0.0000 0.0000 -2.3846
# 3 29.0966 29.0966 67.6182 0.0000 0.0000 0.0000
# 4 0.0000 0.0000 0.0000 32.0558 0.0000 0.0000
# 5 0.0000 0.0000 0.0000 0.0000 32.0558 0.0000
# 6 2.3846 -2.3846 0.0000 0.0000 0.0000 32.7398
#
#
#
# Elastic Compliance Matrix: (Units=1/GPa)
#
#
# Indices 1 2 3 4 5 6 
#
# 1 0.017273 -0.005113 -0.005233 0.000000 0.000000 -0.001630
# 2 -0.005113 0.017273 -0.005233 0.000000 0.000000 0.001630
# 3 -0.005233 -0.005233 0.019292 0.000000 0.000000 0.000000
# 4 0.000000 0.000000 0.000000 0.031196 0.000000 0.000000
# 5 0.000000 0.000000 0.000000 0.000000 0.031196 0.000000
# 6 -0.001630 0.001630 0.000000 0.000000 0.000000 0.030781
#
#
# Mechanical properties :
#
#
# Convention : Reuss Voigt Hill
#
# Bulk Modulus (GPa) = 44.08759 44.28411 44.18585
# Shear Modulus (GPa) = 26.92120 28.07638 27.49879
#
# Velocity S-wave (km/s) = 3.45328 3.52659 3.49013
# Velocity P-wave (km/s) = 5.95226 6.01654 5.98448
#
# Compressibility (1/GPa) = 0.02268212
#
# Stress axis : x y z
#
# Youngs Moduli (GPa) = 57.89407 57.89407 51.83443
#
# Poissons Ratio (x) = 0.29599 0.27123
# Poissons Ratio (y) = 0.29599 0.27123
# Poissons Ratio (z) = 0.30294 0.30294
#
# Static dielectric constant tensor:
#      x y z
#    x 4.252450 0.000000 0.000000 
#    y 0.000000 4.252450 0.000000 
#    z 0.000000 0.000000 3.752070 
# 
# 
# High freq. dielectric constant tensor:
#      x y z
#    x 1.898760 0.000000 0.000000 
#    y 0.000000 1.898760 0.000000 
#    z 0.000000 0.000000 1.856150 
# 
# From -- ./inp_files/1165.got.cif
#   From: 2010.03.12/outbox.cif.g09.slc.cpg/sg79_cif.got.tgz:1165.got - 2010.04.16 16:38:49.
