data_PCOD8302344
_publ_section_title
;
Structure prediction by ZEFSAII (Michael W. Deem and Ramdas Pophale) SiO2 
 PCOD8302344
Probable space group: I -4 
;
_chemical_formula_sum "Si O2"
_cell_formula_units_Z 64
_cell_length_a 15.160523
_cell_length_b 15.160523
_cell_length_c 16.674245
_cell_angle_alpha 90.000000
_cell_angle_beta 90.000000
_cell_angle_gamma 90.000000
_cell_volume 3832.432776
_symmetry_space_group_name_H-M "I -4 "
_symmetry_group_IT_number 82
_symmetry_cell_setting 'tetragonal'
loop_
_space_group_symop_operation_xyz
x,y,z
y,-x,-z
-x,-y,z
-y,x,-z
1/2+x,1/2+y,1/2+z
1/2+y,1/2-x,1/2-z
1/2-x,1/2-y,1/2+z
1/2-y,1/2+x,1/2-z
loop_
_atom_site_type_symbol
_atom_site_label
_atom_site_fract_x
_atom_site_fract_y
_atom_site_fract_z
Si Si1 0.850644 0.688056 0.901798
Si Si2 0.131441 0.062296 0.994807
Si Si3 0.061158 0.628264 0.734793
Si Si4 0.401779 0.086231 0.982360
Si Si5 0.240324 0.351860 0.375579
Si Si6 0.572924 0.125618 0.763707
Si Si7 0.454025 0.775435 0.384398
Si Si8 0.610009 0.905045 0.556993
O O1 0.846170 0.596739 0.852576
O O2 0.773779 0.751495 0.869446
O O3 0.941211 0.739253 0.885016
O O4 0.844538 0.665924 0.997207
O O5 0.192317 0.089911 0.070870
O O6 0.181532 0.086856 0.912386
O O7 0.042067 0.115969 0.005701
O O8 0.111362 0.542863 0.769554
O O9 0.080774 0.711360 0.794012
O O10 0.340460 0.155936 0.937287
O O11 0.499855 0.123793 0.984323
O O12 0.391202 0.994998 0.932084
O O13 0.368478 0.067679 0.071986
O O14 0.206032 0.391387 0.291151
O O15 0.466702 0.117575 0.762342
O O16 0.600940 0.151689 0.854528
#
# Coordination Sequence:
#
# PCOD8302344 Si02
#       8
#     8   8   8   8   8   8   8   8
#     4  10  20  32  48  73 106 130 172 217 252 298
#     4  10  20  35  53  71 102 144 176 208 256 311
#     4   9  17  32  51  74 103 137 169 210 266 316
#     4   9  16  29  52  74  97 130 167 199 257 318
#     4  11  20  33  48  76 109 129 168 222 248 304
#     4  11  19  33  53  77 105 137 168 206 267 324
#     4   9  17  31  50  73  99 133 172 211 254 304
#     4  10  17  32  52  72 100 138 163 203 259 326
#
# _framework density 16.699573999999998
#
# number of rings (size 3 to 8) (size 9 to 14) (size 15 to 20)
#    0.000    2.125    3.750    1.500    0.000    3.000 
#    6.750    0.000    0.000    0.000    0.000    0.000 
#    0.000    0.500    0.000    0.125    0.000    0.000 
#
# Total GULP energy -396607.088285 kJ/mol
# GULP energy per Si atom -12393.971509 kJ/mol
# Density = 1.666156 g / cm^3
# Si number density = 16.699574 Si / 1000 Ang^3
#
#
#
# Elastic Constant Matrix: (Units=GPa)
#
#
# Indices 1 2 3 4 5 6 
#
# 1 68.0685 30.1018 36.8204 0.0000 0.0000 0.3667
# 2 30.1018 68.0685 36.8204 0.0000 0.0000 -0.3667
# 3 36.8204 36.8204 105.7763 0.0000 0.0000 0.0000
# 4 0.0000 0.0000 0.0000 19.2041 0.0000 0.0000
# 5 0.0000 0.0000 0.0000 0.0000 19.2041 0.0000
# 6 0.3667 -0.3667 0.0000 0.0000 0.0000 21.3735
#
#
#
# Elastic Compliance Matrix: (Units=1/GPa)
#
#
# Indices 1 2 3 4 5 6 
#
# 1 0.020067 -0.006281 -0.004799 0.000000 0.000000 -0.000452
# 2 -0.006281 0.020067 -0.004799 0.000000 0.000000 0.000452
# 3 -0.004799 -0.004799 0.012795 0.000000 0.000000 0.000000
# 4 0.000000 0.000000 0.000000 0.052072 0.000000 0.000000
# 5 0.000000 0.000000 0.000000 0.000000 0.052072 0.000000
# 6 -0.000452 0.000452 0.000000 0.000000 0.000000 0.046802
#
#
# Mechanical properties :
#
#
# Convention : Reuss Voigt Hill
#
# Bulk Modulus (GPa) = 47.23309 49.93316 48.58313
# Shear Modulus (GPa) = 20.60241 21.16771 20.88506
#
# Velocity S-wave (km/s) = 3.51623 3.56414 3.54027
# Velocity P-wave (km/s) = 6.69556 6.84860 6.77251
#
# Compressibility (1/GPa) = 0.02117160
#
# Stress axis : x y z
#
# Youngs Moduli (GPa) = 49.83324 49.83324 78.15605
#
# Poissons Ratio (x) = 0.31299 0.37507
# Poissons Ratio (y) = 0.31299 0.37507
# Poissons Ratio (z) = 0.23915 0.23915
#
# Static dielectric constant tensor:
#      x y z
#    x 2.980890 0.000000 0.000000 
#    y 0.000000 2.980890 0.000000 
#    z 0.000000 0.000000 3.192940 
# 
# 
# High freq. dielectric constant tensor:
#      x y z
#    x 1.620500 0.000000 0.000000 
#    y 0.000000 1.620500 0.000000 
#    z 0.000000 0.000000 1.647210 
# 
# From -- ./inp_files/2725.got.cif
#   From: 2010.03.12/outbox.cif.g09.slc.cpg/sg82_2_cif.got.tgz:2725.got - 2010.04.08 20:02:50.
