data_PCOD8302750
_publ_section_title
;
Structure prediction by ZEFSAII (Michael W. Deem and Ramdas Pophale) SiO2 
 PCOD8302750
Probable space group: P 4/M
;
_chemical_formula_sum "Si O2"
_cell_formula_units_Z 44
_cell_length_a 15.598425
_cell_length_b 15.598425
_cell_length_c 10.021465
_cell_angle_alpha 90.000000
_cell_angle_beta 90.000000
_cell_angle_gamma 90.000000
_cell_volume 2438.331292
_symmetry_space_group_name_H-M "P 4/M"
_symmetry_group_IT_number 83
_symmetry_cell_setting 'tetragonal'
loop_
_space_group_symop_operation_xyz
x,y,z
-y,x,z
-x,-y,z
y,-x,z
-x,-y,-z
y,-x,-z
x,y,-z
-y,x,-z
loop_
_atom_site_type_symbol
_atom_site_label
_atom_site_fract_x
_atom_site_fract_y
_atom_site_fract_z
Si Si1 0.737668 0.474066 0.646148
Si Si2 0.682851 0.639602 0.248006
Si Si3 0.368458 0.451404 0.000000
Si Si4 0.121524 0.941510 0.158093
Si Si5 0.701592 0.142239 0.161379
Si Si6 0.913684 0.550654 0.655285
O O1 0.731374 0.432152 0.500000
O O2 0.690071 0.406416 0.742300
O O3 0.696751 0.570318 0.634076
O O4 0.836541 0.484857 0.689023
O O5 0.761002 0.704684 0.220859
O O6 0.686939 0.571633 0.127436
O O7 0.450407 0.390621 0.000000
O O8 0.209200 0.899425 0.208426
O O9 0.039702 0.886604 0.210282
O O10 0.120570 0.941476 0.000000
O O11 0.628390 0.089458 0.239170
O O12 0.688610 0.139954 0.000000
O O13 0.907611 0.582027 0.500000
O O14 0.000000 0.500000 0.682584
#
# Coordination Sequence:
#
# PCOD8302750 Si02
#       6
#     8   8   4   8   8   8
#     4  10  21  35  52  73  99 134 176 216 252 305
#     4  11  20  33  49  73 104 136 169 215 261 304
#     4  11  20  32  48  66  98 143 176 202 264 315
#     4   8  15  30  51  76 108 139 167 208 262 318
#     4  10  20  32  54  82 106 133 174 218 262 310
#     4   9  20  39  57  74 103 142 177 212 261 314
#
# _framework density 18.045127999999998
#
# number of rings (size 3 to 8) (size 9 to 14) (size 15 to 20)
#    0.000    2.273    2.727    1.091    0.000    2.909 
#    0.000    0.909    0.000    1.091    0.000    1.273 
#    0.000    0.000    0.000    0.000    0.000    0.000 
#
# Total GULP energy -545145.867613 kJ/mol
# GULP energy per Si atom -12389.678809 kJ/mol
# Density = 1.800406 g / cm^3
# Si number density = 18.045128 Si / 1000 Ang^3
#
#
#
# Elastic Constant Matrix: (Units=GPa)
#
#
# Indices 1 2 3 4 5 6 
#
# 1 121.8663 68.0368 27.3871 0.0000 0.0000 -10.7697
# 2 68.0368 121.8663 27.3871 0.0000 0.0000 10.7697
# 3 27.3871 27.3871 52.1084 0.0000 0.0000 0.0000
# 4 0.0000 0.0000 0.0000 11.8050 0.0000 0.0000
# 5 0.0000 0.0000 0.0000 0.0000 11.8050 0.0000
# 6 -10.7697 10.7697 0.0000 0.0000 0.0000 35.6887
#
#
#
# Elastic Compliance Matrix: (Units=1/GPa)
#
#
# Indices 1 2 3 4 5 6 
#
# 1 0.013668 -0.007461 -0.003262 0.000000 0.000000 0.006376
# 2 -0.007461 0.013668 -0.003262 0.000000 0.000000 -0.006376
# 3 -0.003262 -0.003262 0.022620 0.000000 0.000000 0.000000
# 4 0.000000 0.000000 0.000000 0.084710 0.000000 0.000000
# 5 0.000000 0.000000 0.000000 0.000000 0.084710 0.000000
# 6 0.006376 -0.006376 0.000000 0.000000 0.000000 0.031868
#
#
# Mechanical properties :
#
#
# Convention : Reuss Voigt Hill
#
# Bulk Modulus (GPa) = 45.48615 60.16259 52.82437
# Shear Modulus (GPa) = 17.44950 23.39508 20.42229
#
# Velocity S-wave (km/s) = 3.11302 3.60457 3.36778
# Velocity P-wave (km/s) = 6.17923 7.12294 6.66780
#
# Compressibility (1/GPa) = 0.02198472
#
# Stress axis : x y z
#
# Youngs Moduli (GPa) = 73.16582 73.16582 44.20910
#
# Poissons Ratio (x) = 0.54588 0.14422
# Poissons Ratio (y) = 0.54588 0.14422
# Poissons Ratio (z) = 0.23868 0.23868
#
# Static dielectric constant tensor:
#      x y z
#    x 3.334170 0.000000 0.000000 
#    y 0.000000 3.334170 0.000000 
#    z 0.000000 0.000000 3.259050 
# 
# 
# High freq. dielectric constant tensor:
#      x y z
#    x 1.696440 0.000000 0.000000 
#    y 0.000000 1.696440 0.000000 
#    z 0.000000 0.000000 1.686590 
# 
# From -- ./inp_files/1706.got.cif
#   From: 2010.03.12/outbox.cif.g09.slc.cpg/sg83_1_cif.got.tgz:1706.got - 2010.04.08 20:05:18.
