data_PCOD8302218
_publ_section_title
;
Structure prediction by ZEFSAII (Michael W. Deem and Ramdas Pophale) SiO2 
 PCOD8302218
Probable space group: I 41
;
_chemical_formula_sum "Si O2"
_cell_formula_units_Z 36
_cell_length_a 16.855170
_cell_length_b 16.855170
_cell_length_c 6.106449
_cell_angle_alpha 90.000000
_cell_angle_beta 90.000000
_cell_angle_gamma 90.000000
_cell_volume 1734.822350
_symmetry_space_group_name_H-M "I 41"
_symmetry_group_IT_number 80
_symmetry_cell_setting 'tetragonal'
loop_
_space_group_symop_operation_xyz
x,y,z
-y,1/2+x,1/4+z
-x,-y,z
y,1/2-x,1/4+z
1/2+x,1/2+y,1/2+z
1/2-y,x,3/4+z
1/2-x,1/2-y,1/2+z
1/2+y,-x,3/4+z
loop_
_atom_site_type_symbol
_atom_site_label
_atom_site_fract_x
_atom_site_fract_y
_atom_site_fract_z
Si Si1 0.000000 0.500000 0.682030
Si Si2 0.061420 0.864825 0.128051
Si Si3 0.705113 0.466896 0.597498
Si Si4 0.033104 0.205113 0.766564
Si Si5 0.061419 0.364825 0.986011
O O1 0.079077 0.507064 0.532894
O O2 0.007064 0.420924 0.831168
O O3 0.999999 0.750000 0.557030
O O4 0.152423 0.890358 0.151676
O O5 0.027238 0.860088 0.877947
O O6 0.772663 0.438967 0.435583
O O7 0.639912 0.527237 0.486115
O O8 0.061033 0.272664 0.928477
O O9 0.109642 0.152423 0.712390
#
# Coordination Sequence:
#
# PCOD8302218 Si02
#       5
#     4   8   8   8   8
#     4  12  20  42  72  96 134 180 240 286 328 428
#     4  11  24  41  67  97 132 176 225 281 344 408
#     4  11  24  44  66  98 135 174 227 283 344 414
#     4  11  24  44  66  98 135 174 227 283 344 414
#     4  11  24  41  67  97 132 176 225 281 344 408
#
# _framework density 20.751405999999999
#
# number of rings (size 3 to 8) (size 9 to 14) (size 15 to 20)
#    0.000    0.889    4.444    2.667    0.000    0.000 
#    8.000    0.000    0.000    0.000    0.000    0.000 
#    0.000    0.000    0.000    0.000    0.000    0.000 
#
# Total GULP energy -223018.684364 kJ/mol
# GULP energy per Si atom -12389.926909 kJ/mol
# Density = 2.070417 g / cm^3
# Si number density = 20.751406 Si / 1000 Ang^3
#
#
#
# Elastic Constant Matrix: (Units=GPa)
#
#
# Indices 1 2 3 4 5 6 
#
# 1 132.2804 53.8345 50.6795 0.0000 0.0000 8.4380
# 2 53.8345 132.2804 50.6795 0.0000 0.0000 -8.4380
# 3 50.6795 50.6795 115.6767 0.0000 0.0000 0.0000
# 4 0.0000 0.0000 0.0000 42.1549 0.0000 0.0000
# 5 0.0000 0.0000 0.0000 0.0000 42.1549 0.0000
# 6 8.4380 -8.4380 0.0000 0.0000 0.0000 46.8670
#
#
#
# Elastic Compliance Matrix: (Units=1/GPa)
#
#
# Indices 1 2 3 4 5 6 
#
# 1 0.010159 -0.003102 -0.003092 0.000000 0.000000 -0.002388
# 2 -0.003102 0.010159 -0.003092 0.000000 0.000000 0.002388
# 3 -0.003092 -0.003092 0.011354 0.000000 0.000000 0.000000
# 4 0.000000 0.000000 0.000000 0.023722 0.000000 0.000000
# 5 0.000000 0.000000 0.000000 0.000000 0.023722 0.000000
# 6 -0.002388 0.002388 0.000000 0.000000 0.000000 0.022197
#
#
# Mechanical properties :
#
#
# Convention : Reuss Voigt Hill
#
# Bulk Modulus (GPa) = 76.33205 76.73604 76.53405
# Shear Modulus (GPa) = 40.24126 41.23831 40.73978
#
# Velocity S-wave (km/s) = 4.40842 4.46270 4.43564
# Velocity P-wave (km/s) = 7.92314 7.97579 7.94951
#
# Compressibility (1/GPa) = 0.01310066
#
# Stress axis : x y z
#
# Youngs Moduli (GPa) = 98.43474 98.43474 88.07649
#
# Poissons Ratio (x) = 0.30537 0.27230
# Poissons Ratio (y) = 0.30537 0.27230
# Poissons Ratio (z) = 0.30433 0.30433
#
# Static dielectric constant tensor:
#      x y z
#    x 4.074410 0.000000 0.000000 
#    y 0.000000 4.074410 0.000000 
#    z 0.000000 0.000000 4.131710 
# 
# 
# High freq. dielectric constant tensor:
#      x y z
#    x 1.811870 0.000000 0.000000 
#    y 0.000000 1.811870 0.000000 
#    z 0.000000 0.000000 1.826070 
# 
# From -- ./inp_files/574.got.cif
#   From: 2010.03.12/outbox.cif.g09.slc.cpg/sg80_cif.got.tgz:574.got - 2010.04.08 20:00:04.
