data_PCOD8302897
_publ_section_title
;
Structure prediction by ZEFSAII (Michael W. Deem and Ramdas Pophale) SiO2 
 PCOD8302897
Probable space group: P 4/M
;
_chemical_formula_sum "Si O2"
_cell_formula_units_Z 44
_cell_length_a 15.287606
_cell_length_b 15.287606
_cell_length_c 12.267418
_cell_angle_alpha 90.000000
_cell_angle_beta 90.000000
_cell_angle_gamma 90.000000
_cell_volume 2867.029267
_symmetry_space_group_name_H-M "P 4/M"
_symmetry_group_IT_number 83
_symmetry_cell_setting 'tetragonal'
loop_
_space_group_symop_operation_xyz
x,y,z
-y,x,z
-x,-y,z
y,-x,z
-x,-y,-z
y,-x,-z
x,y,-z
-y,x,-z
loop_
_atom_site_type_symbol
_atom_site_label
_atom_site_fract_x
_atom_site_fract_y
_atom_site_fract_z
Si Si1 0.070329 0.127400 0.000000
Si Si2 0.744869 0.491747 0.872515
Si Si3 0.310538 0.322678 0.129134
Si Si4 0.064974 0.126015 0.372715
Si Si5 0.565150 0.074159 0.870351
Si Si6 0.873597 0.749129 0.805611
O O1 0.100629 0.179278 0.894214
O O2 0.966057 0.117680 0.000000
O O3 0.682313 0.573611 0.845453
O O4 0.715091 0.400142 0.819602
O O5 0.839418 0.517351 0.828133
O O6 0.747722 0.473771 0.000000
O O7 0.228601 0.276166 0.186818
O O8 0.298142 0.307815 0.000000
O O9 0.074816 0.144948 0.500000
O O10 0.107286 0.208460 0.311392
O O11 0.963022 0.115681 0.340830
O O12 0.661849 0.067027 0.818848
O O13 0.500000 0.000000 0.828524
O O14 0.577669 0.073745 0.000000
#
# Coordination Sequence:
#
# PCOD8302897 Si02
#       6
#     4   8   8   8   8   8
#     4  11  22  30  39  64  96 117 139 178 226 266
#     4   8  15  25  39  56  86 121 154 186 215 259
#     4   9  16  28  41  63  91 120 151 187 224 267
#     4   9  19  35  51  66  86 116 155 193 227 266
#     4   9  17  29  41  61  93 127 155 176 212 276
#     4  11  18  31  46  66  92 119 150 186 222 267
#
# _framework density 15.346897
#
# number of rings (size 3 to 8) (size 9 to 14) (size 15 to 20)
#    0.000    2.636    1.818    2.727    0.000    4.727 
#    0.000    1.818    0.000    0.545    0.000    5.091 
#    0.000    0.000    0.000    6.545    0.000    0.727 
#
# Total GULP energy -545335.343898 kJ/mol
# GULP energy per Si atom -12393.985089 kJ/mol
# Density = 1.531197 g / cm^3
# Si number density = 15.346897 Si / 1000 Ang^3
#
#
#
# Elastic Constant Matrix: (Units=GPa)
#
#
# Indices 1 2 3 4 5 6 
#
# 1 105.8054 60.0746 31.8880 0.0000 0.0000 -8.9113
# 2 60.0746 105.8054 31.8880 0.0000 0.0000 8.9113
# 3 31.8880 31.8880 42.6013 0.0000 0.0000 0.0000
# 4 0.0000 0.0000 0.0000 17.3137 0.0000 0.0000
# 5 0.0000 0.0000 0.0000 0.0000 17.3137 0.0000
# 6 -8.9113 8.9113 0.0000 0.0000 0.0000 27.7009
#
#
#
# Elastic Compliance Matrix: (Units=1/GPa)
#
#
# Indices 1 2 3 4 5 6 
#
# 1 0.016733 -0.008269 -0.006336 0.000000 0.000000 0.008043
# 2 -0.008269 0.016733 -0.006336 0.000000 0.000000 -0.008043
# 3 -0.006336 -0.006336 0.032958 0.000000 0.000000 0.000000
# 4 0.000000 0.000000 0.000000 0.057758 0.000000 0.000000
# 5 0.000000 0.000000 0.000000 0.000000 0.057758 0.000000
# 6 0.008043 -0.008043 0.000000 0.000000 0.000000 0.041275
#
#
# Mechanical properties :
#
#
# Convention : Reuss Voigt Hill
#
# Bulk Modulus (GPa) = 40.74305 55.76812 48.25559
# Shear Modulus (GPa) = 18.29650 21.15644 19.72647
#
# Velocity S-wave (km/s) = 3.45656 3.71691 3.58910
# Velocity P-wave (km/s) = 6.52197 7.40526 6.97761
#
# Compressibility (1/GPa) = 0.02454407
#
# Stress axis : x y z
#
# Youngs Moduli (GPa) = 59.76204 59.76204 30.34130
#
# Poissons Ratio (x) = 0.49415 0.19224
# Poissons Ratio (y) = 0.49415 0.19224
# Poissons Ratio (z) = 0.37864 0.37864
#
# Static dielectric constant tensor:
#      x y z
#    x 3.130350 0.000000 0.000000 
#    y 0.000000 3.130350 0.000000 
#    z 0.000000 0.000000 2.510310 
# 
# 
# High freq. dielectric constant tensor:
#      x y z
#    x 1.597260 0.000000 0.000000 
#    y 0.000000 1.597260 0.000000 
#    z 0.000000 0.000000 1.528860 
# 
# From -- ./inp_files/1702.got.cif
#   From: 2010.03.12/outbox.cif.g09.slc.cpg/sg83_1_cif.got.tgz:1702.got - 2010.04.08 20:05:18.
