data_PCOD8302773
_publ_section_title
;
Structure prediction by ZEFSAII (Michael W. Deem and Ramdas Pophale) SiO2 
 PCOD8302773
Probable space group: P 4/M
;
_chemical_formula_sum "Si O2"
_cell_formula_units_Z 56
_cell_length_a 15.764503
_cell_length_b 15.764503
_cell_length_c 12.771934
_cell_angle_alpha 90.000000
_cell_angle_beta 90.000000
_cell_angle_gamma 90.000000
_cell_volume 3174.075352
_symmetry_space_group_name_H-M "P 4/M"
_symmetry_group_IT_number 83
_symmetry_cell_setting 'tetragonal'
loop_
_space_group_symop_operation_xyz
x,y,z
-y,x,z
-x,-y,z
y,-x,z
-x,-y,-z
y,-x,-z
x,y,-z
-y,x,-z
loop_
_atom_site_type_symbol
_atom_site_label
_atom_site_fract_x
_atom_site_fract_y
_atom_site_fract_z
Si Si1 0.120370 0.703219 0.875532
Si Si2 0.579159 0.386617 0.119317
Si Si3 0.877555 0.950997 0.124438
Si Si4 0.305367 0.287181 0.746106
Si Si5 0.979271 0.403987 0.279791
Si Si6 0.439658 0.190308 0.380985
Si Si7 0.843704 0.632133 0.624976
O O1 0.083585 0.790698 0.830779
O O2 0.216211 0.701896 0.835437
O O3 0.056958 0.633401 0.828569
O O4 0.120200 0.693435 0.000000
O O5 0.616445 0.479581 0.141657
O O6 0.623752 0.320440 0.196144
O O7 0.597469 0.360230 0.000000
O O8 0.953489 0.891377 0.165521
O O9 0.876138 0.949961 0.000000
O O10 0.387190 0.263042 0.677690
O O11 0.220533 0.298880 0.675791
O O12 0.903244 0.399337 0.364466
O O13 0.000000 0.500000 0.252449
O O14 0.062151 0.355876 0.325315
O O15 0.431175 0.215535 0.500000
O O16 0.538218 0.190539 0.347296
O O17 0.849043 0.646193 0.500000
#
# Coordination Sequence:
#
# PCOD8302773 Si02
#       7
#     8   8   8   8   8   8   8
#     4  10  21  33  49  75 107 136 167 206 248 302
#     4   9  18  33  51  69  95 136 179 211 244 299
#     4   8  15  29  48  67  90 124 161 195 230 277
#     4  11  20  31  49  77 106 130 164 211 266 305
#     4   9  19  35  53  73  99 135 175 211 252 301
#     4   9  18  34  53  72 100 134 167 211 262 310
#     4  10  20  34  54  77  99 129 173 216 256 307
#
# _framework density 17.642934
#
# number of rings (size 3 to 8) (size 9 to 14) (size 15 to 20)
#    0.000    2.571    0.000    3.000    2.000    2.000 
#    0.000    0.714    0.000    0.857    0.000    6.000 
#    0.000    1.143    0.000    0.000    0.000    0.000 
#
# Total GULP energy -694125.874841 kJ/mol
# GULP energy per Si atom -12395.104908 kJ/mol
# Density = 1.760278 g / cm^3
# Si number density = 17.642934 Si / 1000 Ang^3
#
#
#
# Elastic Constant Matrix: (Units=GPa)
#
#
# Indices 1 2 3 4 5 6 
#
# 1 60.5959 21.7246 36.0687 0.0000 0.0000 1.5401
# 2 21.7246 60.5959 36.0687 0.0000 0.0000 -1.5401
# 3 36.0687 36.0687 81.5881 0.0000 0.0000 0.0000
# 4 0.0000 0.0000 0.0000 17.8895 0.0000 0.0000
# 5 0.0000 0.0000 0.0000 0.0000 17.8895 0.0000
# 6 1.5401 -1.5401 0.0000 0.0000 0.0000 26.9178
#
#
#
# Elastic Compliance Matrix: (Units=1/GPa)
#
#
# Indices 1 2 3 4 5 6 
#
# 1 0.022836 -0.003007 -0.008766 0.000000 0.000000 -0.001479
# 2 -0.003007 0.022836 -0.008766 0.000000 0.000000 0.001479
# 3 -0.008766 -0.008766 0.020008 0.000000 0.000000 0.000000
# 4 0.000000 0.000000 0.000000 0.055899 0.000000 0.000000
# 5 0.000000 0.000000 0.000000 0.000000 0.055899 0.000000
# 6 -0.001479 0.001479 0.000000 0.000000 0.000000 0.037319
#
#
# Mechanical properties :
#
#
# Convention : Reuss Voigt Hill
#
# Bulk Modulus (GPa) = 40.64806 43.38934 42.01870
# Shear Modulus (GPa) = 18.93395 19.80057 19.36726
#
# Velocity S-wave (km/s) = 3.27949 3.35370 3.31680
# Velocity P-wave (km/s) = 6.11795 6.29626 6.20775
#
# Compressibility (1/GPa) = 0.02460142
#
# Stress axis : x y z
#
# Youngs Moduli (GPa) = 43.78991 43.78991 49.98109
#
# Poissons Ratio (x) = 0.13167 0.43815
# Poissons Ratio (y) = 0.13167 0.43815
# Poissons Ratio (z) = 0.38388 0.38388
#
# Static dielectric constant tensor:
#      x y z
#    x 3.344880 0.000000 0.000000 
#    y 0.000000 3.344880 0.000000 
#    z 0.000000 0.000000 3.049870 
# 
# 
# High freq. dielectric constant tensor:
#      x y z
#    x 1.682090 0.000000 0.000000 
#    y 0.000000 1.682090 0.000000 
#    z 0.000000 0.000000 1.667730 
# 
# From -- ./inp_files/1947.got.cif
#   From: 2010.03.12/outbox.cif.g09.slc.cpg/sg83_1_cif.got.tgz:1947.got - 2010.04.08 20:05:18.
