data_PCOD8302496
_publ_section_title
;
Structure prediction by ZEFSAII (Michael W. Deem and Ramdas Pophale) SiO2 
 PCOD8302496
Probable space group: I -4 
;
_chemical_formula_sum "Si O2"
_cell_formula_units_Z 32
_cell_length_a 8.258164
_cell_length_b 8.258164
_cell_length_c 18.678778
_cell_angle_alpha 90.000000
_cell_angle_beta 90.000000
_cell_angle_gamma 90.000000
_cell_volume 1273.841716
_symmetry_space_group_name_H-M "I -4 "
_symmetry_group_IT_number 82
_symmetry_cell_setting 'tetragonal'
loop_
_space_group_symop_operation_xyz
x,y,z
y,-x,-z
-x,-y,z
-y,x,-z
1/2+x,1/2+y,1/2+z
1/2+y,1/2-x,1/2-z
1/2-x,1/2-y,1/2+z
1/2-y,1/2+x,1/2-z
loop_
_atom_site_type_symbol
_atom_site_label
_atom_site_fract_x
_atom_site_fract_y
_atom_site_fract_z
Si Si1 0.871970 0.774045 0.019004
Si Si2 0.405969 0.658311 0.090179
Si Si3 0.893334 0.699516 0.715416
Si Si4 0.432385 0.837049 0.840243
O O1 0.766714 0.643256 0.976531
O O2 0.874841 0.704042 0.099236
O O3 0.050930 0.785614 0.984743
O O4 0.500000 0.500000 0.062515
O O5 0.519179 0.771966 0.139436
O O6 0.252147 0.594399 0.133548
O O7 0.800854 0.525192 0.719490
O O8 0.764006 0.845085 0.723695
O O9 0.500000 0.000000 0.806152
#
# Coordination Sequence:
#
# PCOD8302496 Si02
#       4
#     8   8   8   8
#     4  11  25  43  75 119 162 206 252 327 401 475
#     4  10  24  45  73 112 154 207 263 320 395 463
#     4  10  25  48  77 108 145 208 264 316 384 472
#     4  11  24  47  74 115 157 203 263 328 395 467
#
# _framework density 25.120861000000001
#
# number of rings (size 3 to 8) (size 9 to 14) (size 15 to 20)
#    0.000    1.500    2.500    0.000   14.000    0.000 
#   13.500    0.000    0.000    0.000    0.000    0.000 
#    0.000    0.000    0.000    0.000    0.000    0.000 
#
# Total GULP energy -198310.879296 kJ/mol
# GULP energy per Si atom -12394.429956 kJ/mol
# Density = 2.506368 g / cm^3
# Si number density = 25.120861 Si / 1000 Ang^3
#
#
#
# Elastic Constant Matrix: (Units=GPa)
#
#
# Indices 1 2 3 4 5 6 
#
# 1 149.3604 68.5755 52.0452 0.0000 0.0000 -14.6173
# 2 68.5755 149.3604 52.0452 0.0000 0.0000 14.6173
# 3 52.0452 52.0452 90.5264 0.0000 0.0000 0.0000
# 4 0.0000 0.0000 0.0000 38.7885 0.0000 0.0000
# 5 0.0000 0.0000 0.0000 0.0000 38.7885 0.0000
# 6 -14.6173 14.6173 0.0000 0.0000 0.0000 59.3730
#
#
#
# Elastic Compliance Matrix: (Units=1/GPa)
#
#
# Indices 1 2 3 4 5 6 
#
# 1 0.009957 -0.003632 -0.003637 0.000000 0.000000 0.003346
# 2 -0.003632 0.009957 -0.003637 0.000000 0.000000 -0.003346
# 3 -0.003637 -0.003637 0.015228 0.000000 0.000000 0.000000
# 4 0.000000 0.000000 0.000000 0.025781 0.000000 0.000000
# 5 0.000000 0.000000 0.000000 0.000000 0.025781 0.000000
# 6 0.003346 -0.003346 0.000000 0.000000 0.000000 0.018490
#
#
# Mechanical properties :
#
#
# Convention : Reuss Voigt Hill
#
# Bulk Modulus (GPa) = 75.00501 81.61989 78.31245
# Shear Modulus (GPa) = 38.03766 41.82876 39.93321
#
# Velocity S-wave (km/s) = 3.89548 4.08499 3.99136
# Velocity P-wave (km/s) = 7.08205 7.40344 7.24453
#
# Compressibility (1/GPa) = 0.01333244
#
# Stress axis : x y z
#
# Youngs Moduli (GPa) = 100.42836 100.42836 65.66865
#
# Poissons Ratio (x) = 0.36475 0.23881
# Poissons Ratio (y) = 0.36475 0.23881
# Poissons Ratio (z) = 0.36522 0.36522
#
# Static dielectric constant tensor:
#      x y z
#    x 5.000310 0.000000 0.000000 
#    y 0.000000 5.000310 0.000000 
#    z 0.000000 0.000000 4.138360 
# 
# 
# High freq. dielectric constant tensor:
#      x y z
#    x 2.015800 0.000000 0.000000 
#    y 0.000000 2.015800 0.000000 
#    z 0.000000 0.000000 1.982030 
# 
# From -- ./inp_files/2874.got.cif
#   From: 2010.03.12/outbox.cif.g09.slc.cpg/sg82_2_cif.got.tgz:2874.got - 2010.04.08 20:02:50.
