data_PCOD8302244
_publ_section_title
;
Structure prediction by ZEFSAII (Michael W. Deem and Ramdas Pophale) SiO2 
 PCOD8302244
Probable space group: P -4
;
_chemical_formula_sum "Si O2"
_cell_formula_units_Z 24
_cell_length_a 11.279960
_cell_length_b 11.279960
_cell_length_c 8.422248
_cell_angle_alpha 90.000000
_cell_angle_beta 90.000000
_cell_angle_gamma 90.000000
_cell_volume 1071.625760
_symmetry_space_group_name_H-M "P -4"
_symmetry_group_IT_number 81
_symmetry_cell_setting 'tetragonal'
loop_
_space_group_symop_operation_xyz
x,y,z
y,-x,-z
-x,-y,z
-y,x,-z
loop_
_atom_site_type_symbol
_atom_site_label
_atom_site_fract_x
_atom_site_fract_y
_atom_site_fract_z
Si Si1 0.799436 0.767257 0.203522
Si Si2 0.184573 0.045775 0.715072
Si Si3 0.389168 0.812612 0.499795
Si Si4 0.766451 0.377846 0.344151
Si Si5 0.391127 0.349932 0.974572
Si Si6 0.993665 0.771744 0.634249
O O1 0.820983 0.659404 0.321642
O O2 0.935897 0.807736 0.157897
O O3 0.738761 0.878297 0.294908
O O4 0.715214 0.725291 0.058822
O O5 0.305314 0.119368 0.711009
O O6 0.074610 0.134842 0.750760
O O7 0.166892 0.992085 0.538995
O O8 0.339534 0.694752 0.421642
O O9 0.529798 0.808003 0.521368
O O10 0.351540 0.921619 0.385721
O O11 0.712856 0.434149 0.185913
O O12 0.350684 0.484460 0.928871
#
# Coordination Sequence:
#
# PCOD8302244 Si02
#       6
#     4   4   4   4   4   4
#     4  11  21  41  67  99 129 178 219 269 350 411
#     4  10  20  36  67  97 133 167 218 285 338 400
#     4  10  23  38  68  98 127 171 224 291 331 395
#     4  11  23  43  64  99 134 171 233 282 342 406
#     4  11  26  46  66  89 139 188 226 278 345 414
#     4  10  18  36  67 104 130 165 217 278 347 399
#
# _framework density 22.395879999999998
#
# number of rings (size 3 to 8) (size 9 to 14) (size 15 to 20)
#    0.000    1.500    6.667    0.500    2.333    3.000 
#    6.000    0.000    0.000    0.000    0.000    0.000 
#    0.000    0.000    0.000    0.000    0.000    0.000 
#
# Total GULP energy -297323.208750 kJ/mol
# GULP energy per Si atom -12388.467031 kJ/mol
# Density = 2.234491 g / cm^3
# Si number density = 22.395880 Si / 1000 Ang^3
#
#
#
# Elastic Constant Matrix: (Units=GPa)
#
#
# Indices 1 2 3 4 5 6 
#
# 1 113.9326 42.2227 17.6434 0.0000 0.0000 2.1271
# 2 42.2227 113.9326 17.6434 0.0000 0.0000 -2.1271
# 3 17.6434 17.6434 35.4654 0.0000 0.0000 0.0000
# 4 0.0000 0.0000 0.0000 26.5869 0.0000 0.0000
# 5 0.0000 0.0000 0.0000 0.0000 26.5869 0.0000
# 6 2.1271 -2.1271 0.0000 0.0000 0.0000 18.6051
#
#
#
# Elastic Compliance Matrix: (Units=1/GPa)
#
#
# Indices 1 2 3 4 5 6 
#
# 1 0.010628 -0.003413 -0.003589 0.000000 0.000000 -0.001605
# 2 -0.003413 0.010628 -0.003589 0.000000 0.000000 0.001605
# 3 -0.003589 -0.003589 0.031768 0.000000 0.000000 0.000000
# 4 0.000000 0.000000 0.000000 0.037613 0.000000 0.000000
# 5 0.000000 0.000000 0.000000 0.000000 0.037613 0.000000
# 6 -0.001605 0.001605 0.000000 0.000000 0.000000 0.054116
#
#
# Mechanical properties :
#
#
# Convention : Reuss Voigt Hill
#
# Bulk Modulus (GPa) = 31.40662 46.48328 38.94495
# Shear Modulus (GPa) = 23.34705 26.74386 25.04545
#
# Velocity S-wave (km/s) = 3.23223 3.45938 3.34774
# Velocity P-wave (km/s) = 5.28995 6.06274 5.68948
#
# Compressibility (1/GPa) = 0.03184043
#
# Stress axis : x y z
#
# Youngs Moduli (GPa) = 94.09432 94.09432 31.47847
#
# Poissons Ratio (x) = 0.32111 0.11299
# Poissons Ratio (y) = 0.32111 0.11299
# Poissons Ratio (z) = 0.33773 0.33773
#
# Static dielectric constant tensor:
#      x y z
#    x 4.165890 0.000000 0.000000 
#    y 0.000000 4.165890 0.000000 
#    z 0.000000 0.000000 3.574770 
# 
# 
# High freq. dielectric constant tensor:
#      x y z
#    x 1.891780 0.000000 0.000000 
#    y 0.000000 1.891780 0.000000 
#    z 0.000000 0.000000 1.833210 
# 
# From -- ./inp_files/851.got.cif
#   From: 2010.03.12/outbox.cif.g09.slc.cpg/sg81_cif.got.tgz:851.got - 2010.04.08 20:01:38.
