data_PCOD8302018
_publ_section_title
;
Structure prediction by ZEFSAII (Michael W. Deem and Ramdas Pophale) SiO2 
 PCOD8302018
Probable space group: P 43
;
_chemical_formula_sum "Si O2"
_cell_formula_units_Z 32
_cell_length_a 12.910689
_cell_length_b 12.910689
_cell_length_c 10.026851
_cell_angle_alpha 90.000000
_cell_angle_beta 90.000000
_cell_angle_gamma 90.000000
_cell_volume 1671.334587
_symmetry_space_group_name_H-M "P 43"
_symmetry_group_IT_number 78
_symmetry_cell_setting 'tetragonal'
loop_
_space_group_symop_operation_xyz
x,y,z
-y,x,3/4+z
-x,-y,1/2+z
y,-x,1/4+z
loop_
_atom_site_type_symbol
_atom_site_label
_atom_site_fract_x
_atom_site_fract_y
_atom_site_fract_z
Si Si1 0.201100 0.115776 0.675620
Si Si2 0.216265 0.878163 0.678226
Si Si3 0.608176 0.284034 0.757946
Si Si4 0.631731 0.717079 0.246016
Si Si5 0.296343 0.607509 0.479157
Si Si6 0.907297 0.991172 0.542988
Si Si7 0.288268 0.374143 0.485939
Si Si8 0.203888 0.799860 0.388692
O O1 0.180282 0.127661 0.516216
O O2 0.298862 0.180563 0.727752
O O3 0.096474 0.152837 0.752695
O O4 0.222720 0.998033 0.716362
O O5 0.321831 0.823799 0.725086
O O6 0.201179 0.871202 0.519825
O O7 0.489288 0.247750 0.740885
O O8 0.655278 0.339175 0.628469
O O9 0.608482 0.368521 0.877881
O O10 0.687177 0.189716 0.804006
O O11 0.655615 0.638485 0.126780
O O12 0.259588 0.492033 0.462482
O O13 0.330515 0.631303 0.628820
O O14 0.198120 0.680173 0.437929
O O15 0.826729 0.895652 0.549123
O O16 0.995360 0.966576 0.433153
#
# Coordination Sequence:
#
# PCOD8302018 Si02
#       8
#     4   4   4   4   4   4   4   4
#     4  11  23  40  64  90 127 162 210 255 328 366
#     4  10  22  39  61  91 120 166 199 265 311 380
#     4  10  22  39  63  90 128 161 203 260 311 372
#     4  11  23  39  64  92 129 162 207 262 310 376
#     4   9  20  37  60  86 124 162 203 257 307 375
#     4  12  23  38  64  94 121 164 213 268 317 377
#     4  10  20  38  60  90 124 160 213 248 312 378
#     4   9  23  38  60  91 127 153 216 255 320 368
#
# _framework density 19.146376
#
# number of rings (size 3 to 8) (size 9 to 14) (size 15 to 20)
#    0.750    1.000    1.250    3.000    1.750    3.000 
#    0.000    2.500    5.500    0.000    0.000    0.000 
#    0.000    0.000    0.000    0.000    0.000    0.000 
#
# Total GULP energy -396506.156100 kJ/mol
# GULP energy per Si atom -12390.817378 kJ/mol
# Density = 1.910280 g / cm^3
# Si number density = 19.146376 Si / 1000 Ang^3
#
#
#
# Elastic Constant Matrix: (Units=GPa)
#
#
# Indices 1 2 3 4 5 6 
#
# 1 105.5499 73.4127 32.8617 0.0000 0.0000 -3.4360
# 2 73.4127 105.5499 32.8617 0.0000 0.0000 3.4360
# 3 32.8617 32.8617 105.1976 0.0000 0.0000 0.0000
# 4 0.0000 0.0000 0.0000 20.9544 0.0000 0.0000
# 5 0.0000 0.0000 0.0000 0.0000 20.9544 0.0000
# 6 -3.4360 3.4360 0.0000 0.0000 0.0000 12.4076
#
#
#
# Elastic Compliance Matrix: (Units=1/GPa)
#
#
# Indices 1 2 3 4 5 6 
#
# 1 0.019694 -0.013382 -0.001972 0.000000 0.000000 0.009159
# 2 -0.013382 0.019694 -0.001972 0.000000 0.000000 -0.009159
# 3 -0.001972 -0.001972 0.010738 0.000000 0.000000 0.000000
# 4 0.000000 0.000000 0.000000 0.047723 0.000000 0.000000
# 5 0.000000 0.000000 0.000000 0.000000 0.047723 0.000000
# 6 0.009159 -0.009159 0.000000 0.000000 0.000000 0.085669
#
#
# Mechanical properties :
#
#
# Convention : Reuss Voigt Hill
#
# Bulk Modulus (GPa) = 64.62174 66.06330 65.34252
# Shear Modulus (GPa) = 18.44695 22.67404 20.56049
#
# Velocity S-wave (km/s) = 3.10735 3.44502 3.28053
# Velocity P-wave (km/s) = 6.83366 7.09954 6.96787
#
# Compressibility (1/GPa) = 0.01547467
#
# Stress axis : x y z
#
# Youngs Moduli (GPa) = 50.77807 50.77807 93.12927
#
# Poissons Ratio (x) = 0.67950 0.18362
# Poissons Ratio (y) = 0.67950 0.18362
# Poissons Ratio (z) = 0.10012 0.10012
#
# Static dielectric constant tensor:
#      x y z
#    x 3.353630 0.000000 0.000000 
#    y 0.000000 3.353630 0.000000 
#    z 0.000000 0.000000 3.808590 
# 
# 
# High freq. dielectric constant tensor:
#      x y z
#    x 1.726860 0.000000 0.000000 
#    y 0.000000 1.726860 0.000000 
#    z 0.000000 0.000000 1.770270 
# 
# From -- ./inp_files/981.got.cif
#   From: 2010.03.12/outbox.cif.g09.slc.cpg/sg78_cif.got.tgz:981.got - 2010.04.16 16:37:20.
