data_PCOD8302530
_publ_section_title
;
Structure prediction by ZEFSAII (Michael W. Deem and Ramdas Pophale) SiO2 
 PCOD8302530
Probable space group: I -4 
;
_chemical_formula_sum "Si O2"
_cell_formula_units_Z 40
_cell_length_a 10.378227
_cell_length_b 10.378227
_cell_length_c 17.028927
_cell_angle_alpha 90.000000
_cell_angle_beta 90.000000
_cell_angle_gamma 90.000000
_cell_volume 1834.144784
_symmetry_space_group_name_H-M "I -4 "
_symmetry_group_IT_number 82
_symmetry_cell_setting 'tetragonal'
loop_
_space_group_symop_operation_xyz
x,y,z
y,-x,-z
-x,-y,z
-y,x,-z
1/2+x,1/2+y,1/2+z
1/2+y,1/2-x,1/2-z
1/2-x,1/2-y,1/2+z
1/2-y,1/2+x,1/2-z
loop_
_atom_site_type_symbol
_atom_site_label
_atom_site_fract_x
_atom_site_fract_y
_atom_site_fract_z
Si Si1 0.014527 0.155692 0.309146
Si Si2 0.944349 0.804160 0.479378
Si Si3 0.198478 0.944428 0.987841
Si Si4 0.749714 0.195663 0.828535
Si Si5 0.382517 0.072948 0.092983
O O1 0.879991 0.232047 0.303954
O O2 0.090071 0.202322 0.387187
O O3 0.098448 0.202366 0.236931
O O4 0.000000 0.000000 0.308688
O O5 0.925116 0.670321 0.523487
O O6 0.093012 0.850172 0.479839
O O7 0.260723 0.884684 0.909546
O O8 0.088533 0.855157 0.026203
O O9 0.306746 0.954356 0.053662
O O10 0.858725 0.304159 0.838324
O O11 0.500000 0.000000 0.134409
#
# Coordination Sequence:
#
# PCOD8302530 Si02
#       5
#     8   8   8   8   8
#     4  12  26  48  70 102 145 187 234 307 354 425
#     4  11  21  45  73  96 132 180 242 292 346 413
#     4   9  21  42  70 105 141 184 230 292 347 414
#     4  11  26  47  68 105 142 188 236 286 375 416
#     4  11  23  40  74 106 136 182 242 289 353 432
#
# _framework density 21.808530000000001
#
# number of rings (size 3 to 8) (size 9 to 14) (size 15 to 20)
#    0.000    1.200    4.000    1.200   11.200    0.400 
#    7.200    0.000    0.000    0.000    0.000    0.000 
#    0.000    0.000    0.000    0.000    0.000    0.000 
#
# Total GULP energy -247944.900606 kJ/mol
# GULP energy per Si atom -12397.245030 kJ/mol
# Density = 2.175889 g / cm^3
# Si number density = 21.808530 Si / 1000 Ang^3
#
#
#
# Elastic Constant Matrix: (Units=GPa)
#
#
# Indices 1 2 3 4 5 6 
#
# 1 118.2060 64.1650 58.0137 0.0000 0.0000 -7.2520
# 2 64.1650 118.2060 58.0137 0.0000 0.0000 7.2520
# 3 58.0137 58.0137 100.2057 0.0000 0.0000 0.0000
# 4 0.0000 0.0000 0.0000 33.5228 0.0000 0.0000
# 5 0.0000 0.0000 0.0000 0.0000 33.5228 0.0000
# 6 -7.2520 7.2520 0.0000 0.0000 0.0000 26.4130
#
#
#
# Elastic Compliance Matrix: (Units=1/GPa)
#
#
# Indices 1 2 3 4 5 6 
#
# 1 0.014329 -0.005648 -0.005026 0.000000 0.000000 0.005485
# 2 -0.005648 0.014329 -0.005026 0.000000 0.000000 -0.005485
# 3 -0.005026 -0.005026 0.015799 0.000000 0.000000 0.000000
# 4 0.000000 0.000000 0.000000 0.029830 0.000000 0.000000
# 5 0.000000 0.000000 0.000000 0.000000 0.029830 0.000000
# 6 0.005485 -0.005485 0.000000 0.000000 0.000000 0.040872
#
#
# Mechanical properties :
#
#
# Convention : Reuss Voigt Hill
#
# Bulk Modulus (GPa) = 76.58474 77.44471 77.01473
# Shear Modulus (GPa) = 27.66408 29.12007 28.39207
#
# Velocity S-wave (km/s) = 3.56546 3.65809 3.61207
# Velocity P-wave (km/s) = 7.22102 7.30961 7.26545
#
# Compressibility (1/GPa) = 0.01305743
#
# Stress axis : x y z
#
# Youngs Moduli (GPa) = 69.79033 69.79033 63.29636
#
# Poissons Ratio (x) = 0.39417 0.31811
# Poissons Ratio (y) = 0.39417 0.31811
# Poissons Ratio (z) = 0.35075 0.35075
#
# Static dielectric constant tensor:
#      x y z
#    x 4.190290 0.000000 0.000000 
#    y 0.000000 4.190290 0.000000 
#    z 0.000000 0.000000 3.820150 
# 
# 
# High freq. dielectric constant tensor:
#      x y z
#    x 1.870190 0.000000 0.000000 
#    y 0.000000 1.870190 0.000000 
#    z 0.000000 0.000000 1.842950 
# 
# From -- ./inp_files/2188.got.cif
#   From: 2010.03.12/outbox.cif.g09.slc.cpg/sg82_2_cif.got.tgz:2188.got - 2010.04.08 20:02:50.
