data_PCOD8302654
_publ_section_title
;
Structure prediction by ZEFSAII (Michael W. Deem and Ramdas Pophale) SiO2 
 PCOD8302654
Probable space group: P 4/M
;
_chemical_formula_sum "Si O2"
_cell_formula_units_Z 48
_cell_length_a 14.563297
_cell_length_b 14.563297
_cell_length_c 15.867488
_cell_angle_alpha 90.000000
_cell_angle_beta 90.000000
_cell_angle_gamma 90.000000
_cell_volume 3365.329493
_symmetry_space_group_name_H-M "P 4/M"
_symmetry_group_IT_number 83
_symmetry_cell_setting 'tetragonal'
loop_
_space_group_symop_operation_xyz
x,y,z
-y,x,z
-x,-y,z
y,-x,z
-x,-y,-z
y,-x,-z
x,y,-z
-y,x,-z
loop_
_atom_site_type_symbol
_atom_site_label
_atom_site_fract_x
_atom_site_fract_y
_atom_site_fract_z
Si Si1 0.132730 0.943299 0.099967
Si Si2 0.622449 0.746167 0.842465
Si Si3 0.701035 0.177861 0.900217
Si Si4 0.638184 0.435295 0.317903
Si Si5 0.359296 0.550923 0.000000
Si Si6 0.436023 0.363338 0.500000
Si Si7 0.894128 0.501290 0.900781
O O1 0.229970 0.902573 0.130610
O O2 0.047710 0.880255 0.133103
O O3 0.130586 0.943407 0.000000
O O4 0.730575 0.736479 0.855038
O O5 0.597751 0.709605 0.750883
O O6 0.584499 0.850037 0.850169
O O7 0.566198 0.694603 0.914630
O O8 0.598171 0.151184 0.872828
O O9 0.706839 0.193967 0.000000
O O10 0.619687 0.543341 0.307069
O O11 0.685053 0.413344 0.410136
O O12 0.382543 0.444932 0.000000
O O13 0.543118 0.380971 0.500000
O O14 0.000000 0.500000 0.875724
O O15 0.880537 0.485440 0.000000
#
# Coordination Sequence:
#
# PCOD8302654 Si02
#       7
#     8   8   8   8   4   4   8
#     4   8  15  27  43  59  73  93 137 190 232 261
#     4  12  20  29  42  58  85 113 149 174 209 249
#     4  10  19  29  43  57  80 112 147 182 215 255
#     4   9  16  26  42  62  85 110 139 173 211 249
#     4  11  20  28  39  54  82 113 145 176 198 230
#     4   7  12  24  40  60  83 106 132 171 215 250
#     4  10  21  33  42  56  82 116 151 184 216 253
#
# _framework density 14.263090999999999
#
# number of rings (size 3 to 8) (size 9 to 14) (size 15 to 20)
#    0.000    2.333    1.667    4.500    2.333    1.333 
#    0.000    0.000    0.000    0.000    0.000    0.583 
#    0.000    0.000    0.000    0.000    0.000    2.500 
#
# Total GULP energy -594797.844034 kJ/mol
# GULP energy per Si atom -12391.621751 kJ/mol
# Density = 1.423063 g / cm^3
# Si number density = 14.263091 Si / 1000 Ang^3
#
#
#
# Elastic Constant Matrix: (Units=GPa)
#
#
# Indices 1 2 3 4 5 6 
#
# 1 71.1453 26.9005 17.4909 0.0000 0.0000 -1.5337
# 2 26.9005 71.1453 17.4909 0.0000 0.0000 1.5337
# 3 17.4909 17.4909 72.1104 0.0000 0.0000 0.0000
# 4 0.0000 0.0000 0.0000 14.8653 0.0000 0.0000
# 5 0.0000 0.0000 0.0000 0.0000 14.8653 0.0000
# 6 -1.5337 1.5337 0.0000 0.0000 0.0000 25.0928
#
#
#
# Elastic Compliance Matrix: (Units=1/GPa)
#
#
# Indices 1 2 3 4 5 6 
#
# 1 0.016932 -0.005766 -0.002708 0.000000 0.000000 0.001387
# 2 -0.005766 0.016932 -0.002708 0.000000 0.000000 -0.001387
# 3 -0.002708 -0.002708 0.015181 0.000000 0.000000 0.000000
# 4 0.000000 0.000000 0.000000 0.067271 0.000000 0.000000
# 5 0.000000 0.000000 0.000000 0.000000 0.067271 0.000000
# 6 0.001387 -0.001387 0.000000 0.000000 0.000000 0.040022
#
#
# Mechanical properties :
#
#
# Convention : Reuss Voigt Hill
#
# Bulk Modulus (GPa) = 37.48197 37.57394 37.52795
# Shear Modulus (GPa) = 19.61813 21.13260 20.37537
#
# Velocity S-wave (km/s) = 3.71273 3.85337 3.78370
# Velocity P-wave (km/s) = 6.68694 6.79696 6.74217
#
# Compressibility (1/GPa) = 0.02667950
#
# Stress axis : x y z
#
# Youngs Moduli (GPa) = 59.06101 59.06101 65.86981
#
# Poissons Ratio (x) = 0.34055 0.17839
# Poissons Ratio (y) = 0.34055 0.17839
# Poissons Ratio (z) = 0.15995 0.15995
#
# Static dielectric constant tensor:
#      x y z
#    x 2.861840 0.000000 0.000000 
#    y 0.000000 2.861840 0.000000 
#    z 0.000000 0.000000 2.763530 
# 
# 
# High freq. dielectric constant tensor:
#      x y z
#    x 1.539870 0.000000 0.000000 
#    y 0.000000 1.539870 0.000000 
#    z 0.000000 0.000000 1.496690 
# 
# From -- ./inp_files/2371.got.cif
#   From: 2010.03.12/outbox.cif.g09.slc.cpg/sg83_2_cif.got.tgz:2371.got - 2010.04.08 20:05:18.
