data_PCOD8302191
_publ_section_title
;
Structure prediction by ZEFSAII (Michael W. Deem and Ramdas Pophale) SiO2 
 PCOD8302191
Probable space group: I 41
;
_chemical_formula_sum "Si O2"
_cell_formula_units_Z 40
_cell_length_a 7.940910
_cell_length_b 7.940910
_cell_length_c 25.874461
_cell_angle_alpha 90.000000
_cell_angle_beta 90.000000
_cell_angle_gamma 90.000000
_cell_volume 1631.593098
_symmetry_space_group_name_H-M "I 41"
_symmetry_group_IT_number 80
_symmetry_cell_setting 'tetragonal'
loop_
_space_group_symop_operation_xyz
x,y,z
-y,1/2+x,1/4+z
-x,-y,z
y,1/2-x,1/4+z
1/2+x,1/2+y,1/2+z
1/2-y,x,3/4+z
1/2-x,1/2-y,1/2+z
1/2+y,-x,3/4+z
loop_
_atom_site_type_symbol
_atom_site_label
_atom_site_fract_x
_atom_site_fract_y
_atom_site_fract_z
Si Si1 0.500000 0.000000 0.197201
Si Si2 0.184228 0.920418 0.262437
Si Si3 0.500000 0.000000 0.503346
Si Si4 0.536538 0.188393 0.682180
Si Si5 0.828644 0.813039 0.666668
Si Si6 0.255916 0.602260 0.089705
O O1 0.668178 0.981008 0.232019
O O2 0.478940 0.171777 0.162847
O O3 0.149811 0.756570 0.228122
O O4 0.258811 0.888888 0.319663
O O5 0.000000 0.000000 0.268755
O O6 0.435430 0.149139 0.466005
O O7 0.657626 0.051890 0.537895
O O8 0.354731 0.277943 0.672221
O O9 0.633510 0.200413 0.628159
O O10 0.500000 0.000000 0.697912
O O11 0.836662 0.934868 0.615957
#
# Coordination Sequence:
#
# PCOD8302191 Si02
#       6
#     4   8   4   8   8   8
#     4  12  26  47  76 114 166 214 261 348 406 480
#     4  12  26  51  80 115 161 208 272 341 412 489
#     4  12  22  45  82 112 152 224 263 342 418 482
#     4  10  22  47  76 109 153 206 269 330 403 495
#     4  11  24  45  79 114 159 215 270 338 413 494
#     4  11  23  46  79 113 155 213 275 333 416 491
#
# _framework density 24.515916000000001
#
# number of rings (size 3 to 8) (size 9 to 14) (size 15 to 20)
#    0.000    0.800    7.000    2.400    0.000    0.800 
#    1.800    5.000    0.000    0.000    0.000    0.000 
#    0.000    0.000    0.000    0.000    0.000    0.000 
#
# Total GULP energy -247779.757695 kJ/mol
# GULP energy per Si atom -12388.987885 kJ/mol
# Density = 2.446012 g / cm^3
# Si number density = 24.515916 Si / 1000 Ang^3
#
#
#
# Elastic Constant Matrix: (Units=GPa)
#
#
# Indices 1 2 3 4 5 6 
#
# 1 130.7403 60.5941 66.5239 0.0000 0.0000 -1.1482
# 2 60.5941 130.7403 66.5239 0.0000 0.0000 1.1482
# 3 66.5239 66.5239 148.9304 0.0000 0.0000 0.0000
# 4 0.0000 0.0000 0.0000 40.2756 0.0000 0.0000
# 5 0.0000 0.0000 0.0000 0.0000 40.2756 0.0000
# 6 -1.1482 1.1482 0.0000 0.0000 0.0000 48.9306
#
#
#
# Elastic Compliance Matrix: (Units=1/GPa)
#
#
# Indices 1 2 3 4 5 6 
#
# 1 0.010924 -0.003343 -0.003386 0.000000 0.000000 0.000335
# 2 -0.003343 0.010924 -0.003386 0.000000 0.000000 -0.000335
# 3 -0.003386 -0.003386 0.009740 0.000000 0.000000 0.000000
# 4 0.000000 0.000000 0.000000 0.024829 0.000000 0.000000
# 5 0.000000 0.000000 0.000000 0.000000 0.024829 0.000000
# 6 0.000335 -0.000335 0.000000 0.000000 0.000000 0.020453
#
#
# Mechanical properties :
#
#
# Convention : Reuss Voigt Hill
#
# Bulk Modulus (GPa) = 88.05327 88.63276 88.34301
# Shear Modulus (GPa) = 39.77242 40.34764 40.06003
#
# Velocity S-wave (km/s) = 4.03216 4.06121 4.04671
# Velocity P-wave (km/s) = 7.59424 7.63039 7.61234
#
# Compressibility (1/GPa) = 0.01135676
#
# Stress axis : x y z
#
# Youngs Moduli (GPa) = 91.54108 91.54107 102.67175
#
# Poissons Ratio (x) = 0.30601 0.34768
# Poissons Ratio (y) = 0.30601 0.34768
# Poissons Ratio (z) = 0.30999 0.30999
#
# Static dielectric constant tensor:
#      x y z
#    x 5.002300 0.000000 0.000000 
#    y 0.000000 5.002300 0.000000 
#    z 0.000000 0.000000 4.339730 
# 
# 
# High freq. dielectric constant tensor:
#      x y z
#    x 1.981120 0.000000 0.000000 
#    y 0.000000 1.981120 0.000000 
#    z 0.000000 0.000000 1.974690 
# 
# From -- ./inp_files/2028.got.cif
#   From: 2010.03.12/outbox.cif.g09.slc.cpg/sg80_cif.got.tgz:2028.got - 2010.04.08 20:00:04.
