data_PCOD8302994
_publ_section_title
;
Structure prediction by ZEFSAII (Michael W. Deem and Ramdas Pophale) SiO2 
 PCOD8302994
Probable space group: P 4/M
;
_chemical_formula_sum "Si O2"
_cell_formula_units_Z 36
_cell_length_a 8.515984
_cell_length_b 8.515984
_cell_length_c 22.891417
_cell_angle_alpha 90.000000
_cell_angle_beta 90.000000
_cell_angle_gamma 90.000000
_cell_volume 1660.130966
_symmetry_space_group_name_H-M "P 4/M"
_symmetry_group_IT_number 83
_symmetry_cell_setting 'tetragonal'
loop_
_space_group_symop_operation_xyz
x,y,z
-y,x,z
-x,-y,z
y,-x,z
-x,-y,-z
y,-x,-z
x,y,-z
-y,x,-z
loop_
_atom_site_type_symbol
_atom_site_label
_atom_site_fract_x
_atom_site_fract_y
_atom_site_fract_z
Si Si1 0.273169 0.623503 0.717101
Si Si2 0.778715 0.869332 0.174410
Si Si3 0.716174 0.360521 0.066303
Si Si4 0.884384 0.231778 0.391526
Si Si5 0.266023 0.611922 0.500000
O O1 0.290238 0.438447 0.708201
O O2 0.206229 0.653874 0.781532
O O3 0.149883 0.689006 0.670503
O O4 0.719958 0.841900 0.108550
O O5 0.945812 0.788146 0.185260
O O6 0.712829 0.545855 0.078318
O O7 0.769580 0.327212 0.000000
O O8 0.832296 0.347508 0.442678
O O9 0.069164 0.207687 0.397105
O O10 0.293186 0.427296 0.500000
#
# Coordination Sequence:
#
# PCOD8302994 Si02
#       5
#     8   8   8   8   4
#     4  11  24  41  62  88 116 149 193 241 288 343
#     4  11  24  39  56  83 118 153 191 236 286 342
#     4   9  19  37  60  85 113 147 190 238 286 340
#     4  11  24  41  62  90 122 155 194 239 288 343
#     4  11  24  41  62  90 122 157 200 243 284 338
#
# _framework density 21.685034000000002
#
# number of rings (size 3 to 8) (size 9 to 14) (size 15 to 20)
#    0.000    1.444    0.000    5.333    0.000   16.889 
#    0.000    3.333    0.000    0.000    0.000    0.000 
#    0.000    0.000    0.000    0.000    0.000    0.000 
#
# Total GULP energy -446675.688690 kJ/mol
# GULP energy per Si atom -12407.658019 kJ/mol
# Density = 2.163568 g / cm^3
# Si number density = 21.685034 Si / 1000 Ang^3
#
#
#
# Elastic Constant Matrix: (Units=GPa)
#
#
# Indices 1 2 3 4 5 6 
#
# 1 12.4325 -0.6055 10.7921 0.0000 0.0000 0.5078
# 2 -0.6055 12.4325 10.7921 0.0000 0.0000 -0.5078
# 3 10.7921 10.7921 111.3985 0.0000 0.0000 0.0000
# 4 0.0000 0.0000 0.0000 18.5962 0.0000 0.0000
# 5 0.0000 0.0000 0.0000 0.0000 18.5962 0.0000
# 6 0.5078 -0.5078 0.0000 0.0000 0.0000 34.9934
#
#
#
# Elastic Compliance Matrix: (Units=1/GPa)
#
#
# Indices 1 2 3 4 5 6 
#
# 1 0.089748 0.012963 -0.009950 0.000000 0.000000 -0.001114
# 2 0.012963 0.089748 -0.009950 0.000000 0.000000 0.001114
# 3 -0.009950 -0.009950 0.010905 0.000000 0.000000 0.000000
# 4 0.000000 0.000000 0.000000 0.053775 0.000000 0.000000
# 5 0.000000 0.000000 0.000000 0.000000 0.053775 0.000000
# 6 -0.001114 0.001114 0.000000 0.000000 0.000000 0.028609
#
#
# Mechanical properties :
#
#
# Convention : Reuss Voigt Hill
#
# Bulk Modulus (GPa) = 5.66491 19.80233 12.73362
# Shear Modulus (GPa) = 12.52261 22.12281 17.32271
#
# Velocity S-wave (km/s) = 2.40568 3.19750 2.82943
# Velocity P-wave (km/s) = 3.21472 4.77322 4.06928
#
# Compressibility (1/GPa) = 0.17652534
#
# Stress axis : x y z
#
# Youngs Moduli (GPa) = 11.14226 11.14226 91.70326
#
# Poissons Ratio (x) = -0.14443 0.91249
# Poissons Ratio (y) = -0.14443 0.91249
# Poissons Ratio (z) = 0.11087 0.11087
#
# Static dielectric constant tensor:
#      x y z
#    x 3.888850 0.000000 0.000000 
#    y 0.000000 3.888850 0.000000 
#    z 0.000000 0.000000 3.939740 
# 
# 
# High freq. dielectric constant tensor:
#      x y z
#    x 1.855760 0.000000 0.000000 
#    y 0.000000 1.855760 0.000000 
#    z 0.000000 0.000000 1.863420 
# 
# From -- ./inp_files/2852.got.cif
#   From: 2010.03.12/outbox.cif.g09.slc.cpg/sg83_2_cif.got.tgz:2852.got - 2010.04.08 20:05:18.
