data_PCOD8302129
_publ_section_title
;
Structure prediction by ZEFSAII (Michael W. Deem and Ramdas Pophale) SiO2 
 PCOD8302129
Probable space group: I 4
;
_chemical_formula_sum "Si O2"
_cell_formula_units_Z 36
_cell_length_a 8.224259
_cell_length_b 8.224259
_cell_length_c 24.135056
_cell_angle_alpha 90.000000
_cell_angle_beta 90.000000
_cell_angle_gamma 90.000000
_cell_volume 1632.457443
_symmetry_space_group_name_H-M "I 4"
_symmetry_group_IT_number 79
_symmetry_cell_setting 'tetragonal'
loop_
_space_group_symop_operation_xyz
x,y,z
-y,x,z
-x,-y,z
y,-x,z
1/2+x,1/2+y,1/2+z
1/2-y,1/2+x,1/2+z
1/2-x,1/2-y,1/2+z
1/2+y,1/2-x,1/2+z
loop_
_atom_site_type_symbol
_atom_site_label
_atom_site_fract_x
_atom_site_fract_y
_atom_site_fract_z
Si Si1 0.572220 0.758429 0.259020
Si Si2 0.000000 0.500000 0.668395
Si Si3 0.758428 0.427779 0.577771
Si Si4 0.748471 0.911550 0.481220
Si Si5 0.248470 0.411554 0.855572
O O1 0.387965 0.698793 0.257176
O O2 0.601451 0.874435 0.206336
O O3 0.602272 0.860295 0.315153
O O4 0.125563 0.601452 0.630454
O O5 0.698793 0.612033 0.579617
O O6 0.860286 0.397726 0.521637
O O7 0.686336 0.889144 0.418396
O O8 0.903049 0.796929 0.492565
O O9 0.403046 0.296930 0.844227
#
# Coordination Sequence:
#
# PCOD8302129 Si02
#       5
#     8   4   8   8   8
#     4  11  24  40  61  90 119 152 198 248 296 346
#     4  12  24  44  62  80 116 164 200 242 296 356
#     4  11  24  40  61  90 119 152 198 248 296 346
#     4   9  19  38  64  92 122 157 194 234 290 358
#     4   9  19  38  64  92 122 157 194 234 290 358
#
# _framework density 22.05264
#
# number of rings (size 3 to 8) (size 9 to 14) (size 15 to 20)
#    0.000    1.778    0.000    5.333    0.000    1.778 
#    0.000   12.222    0.000    0.000    0.000    0.000 
#    0.000    0.000    0.000    0.000    0.000    0.000 
#
# Total GULP energy -223264.043363 kJ/mol
# GULP energy per Si atom -12403.557965 kJ/mol
# Density = 2.200245 g / cm^3
# Si number density = 22.052640 Si / 1000 Ang^3
#
#
#
# Elastic Constant Matrix: (Units=GPa)
#
#
# Indices 1 2 3 4 5 6 
#
# 1 95.2065 44.4689 75.5425 0.0000 0.0000 10.1669
# 2 44.4689 95.2065 75.5425 0.0000 0.0000 -10.1669
# 3 75.5425 75.5425 193.2499 0.0000 0.0000 0.0000
# 4 0.0000 0.0000 0.0000 43.1930 0.0000 0.0000
# 5 0.0000 0.0000 0.0000 0.0000 43.1930 0.0000
# 6 10.1669 -10.1669 0.0000 0.0000 0.0000 41.4117
#
#
#
# Elastic Compliance Matrix: (Units=1/GPa)
#
#
# Indices 1 2 3 4 5 6 
#
# 1 0.017132 -0.004728 -0.004849 0.000000 0.000000 -0.005367
# 2 -0.004728 0.017132 -0.004849 0.000000 0.000000 0.005367
# 3 -0.004849 -0.004849 0.008966 0.000000 0.000000 0.000000
# 4 0.000000 0.000000 0.000000 0.023152 0.000000 0.000000
# 5 0.000000 0.000000 0.000000 0.000000 0.023152 0.000000
# 6 -0.005367 0.005367 0.000000 0.000000 0.000000 0.026783
#
#
# Mechanical properties :
#
#
# Convention : Reuss Voigt Hill
#
# Bulk Modulus (GPa) = 69.54716 86.08563 77.81639
# Shear Modulus (GPa) = 33.34188 38.10015 35.72101
#
# Velocity S-wave (km/s) = 3.89256 4.16106 4.02905
# Velocity P-wave (km/s) = 7.19778 7.88715 7.55034
#
# Compressibility (1/GPa) = 0.01437873
#
# Stress axis : x y z
#
# Youngs Moduli (GPa) = 58.36920 58.36921 111.53676
#
# Poissons Ratio (x) = 0.27596 0.54084
# Poissons Ratio (y) = 0.27596 0.54084
# Poissons Ratio (z) = 0.28303 0.28303
#
# Static dielectric constant tensor:
#      x y z
#    x 3.836760 0.000000 0.000000 
#    y 0.000000 3.836760 0.000000 
#    z 0.000000 0.000000 3.981000 
# 
# 
# High freq. dielectric constant tensor:
#      x y z
#    x 1.868970 0.000000 0.000000 
#    y 0.000000 1.868970 0.000000 
#    z 0.000000 0.000000 1.873220 
# 
# From -- ./inp_files/1715.got.cif
#   From: 2010.03.12/outbox.cif.g09.slc.cpg/sg79_cif.got.tgz:1715.got - 2010.04.16 16:38:49.
