data_PCOD8302004
_publ_section_title
;
Structure prediction by ZEFSAII (Michael W. Deem and Ramdas Pophale) SiO2 
 PCOD8302004
Probable space group: P 43
;
_chemical_formula_sum "Si O2"
_cell_formula_units_Z 28
_cell_length_a 12.709805
_cell_length_b 12.709805
_cell_length_c 8.958157
_cell_angle_alpha 90.000000
_cell_angle_beta 90.000000
_cell_angle_gamma 90.000000
_cell_volume 1447.093006
_symmetry_space_group_name_H-M "P 43"
_symmetry_group_IT_number 78
_symmetry_cell_setting 'tetragonal'
loop_
_space_group_symop_operation_xyz
x,y,z
-y,x,3/4+z
-x,-y,1/2+z
y,-x,1/4+z
loop_
_atom_site_type_symbol
_atom_site_label
_atom_site_fract_x
_atom_site_fract_y
_atom_site_fract_z
Si Si1 0.235824 0.166766 0.085900
Si Si2 0.518681 0.992552 0.743573
Si Si3 0.858403 0.465083 0.721258
Si Si4 0.821045 0.605782 0.137725
Si Si5 0.728745 0.063662 0.643589
Si Si6 0.382673 0.509011 0.684213
Si Si7 0.340356 0.735481 0.573802
O O1 0.227388 0.236981 0.234817
O O2 0.209126 0.044422 0.112628
O O3 0.352993 0.185939 0.021890
O O4 0.150346 0.197457 0.964298
O O5 0.452862 0.094324 0.802871
O O6 0.638935 0.029807 0.761324
O O7 0.498264 0.959987 0.571568
O O8 0.495674 0.890173 0.843270
O O9 0.768646 0.553439 0.734763
O O10 0.888413 0.683043 0.240537
O O11 0.718896 0.562015 0.224081
O O12 0.788085 0.667101 0.986977
O O13 0.462430 0.439650 0.586723
O O14 0.345678 0.609584 0.588238
#
# Coordination Sequence:
#
# PCOD8302004 Si02
#       7
#     4   4   4   4   4   4   4
#     4  11  22  41  63  90 121 163 200 260 302 367
#     4  10  17  37  60  88 113 151 199 256 295 350
#     4  10  20  35  63  90 118 154 197 251 304 360
#     4  10  21  39  59  89 121 157 207 253 292 362
#     4  11  23  41  62  88 124 157 212 254 310 361
#     4  10  21  37  54  84 125 161 190 236 299 370
#     4  10  20  38  61  89 124 159 199 238 310 368
#
# _framework density 19.349138
#
# number of rings (size 3 to 8) (size 9 to 14) (size 15 to 20)
#    0.000    1.714    4.286    3.429    0.000    2.286 
#    5.143    2.857    0.000    0.000    0.000    0.000 
#    0.000    0.000    0.000    0.000    0.000    0.000 
#
# Total GULP energy -347008.009417 kJ/mol
# GULP energy per Si atom -12393.143193 kJ/mol
# Density = 1.930510 g / cm^3
# Si number density = 19.349138 Si / 1000 Ang^3
#
#
#
# Elastic Constant Matrix: (Units=GPa)
#
#
# Indices 1 2 3 4 5 6 
#
# 1 105.0978 45.0744 46.8513 0.0000 0.0000 6.1522
# 2 45.0744 105.0978 46.8513 0.0000 0.0000 -6.1522
# 3 46.8513 46.8513 60.9969 0.0000 0.0000 0.0000
# 4 0.0000 0.0000 0.0000 30.2954 0.0000 0.0000
# 5 0.0000 0.0000 0.0000 0.0000 30.2954 0.0000
# 6 6.1522 -6.1522 0.0000 0.0000 0.0000 30.2038
#
#
#
# Elastic Compliance Matrix: (Units=1/GPa)
#
#
# Indices 1 2 3 4 5 6 
#
# 1 0.015087 -0.002299 -0.009822 0.000000 0.000000 -0.003541
# 2 -0.002299 0.015087 -0.009822 0.000000 0.000000 0.003541
# 3 -0.009822 -0.009822 0.031483 0.000000 0.000000 0.000000
# 4 0.000000 0.000000 0.000000 0.033008 0.000000 0.000000
# 5 0.000000 0.000000 0.000000 0.000000 0.033008 0.000000
# 6 -0.003541 0.003541 0.000000 0.000000 0.000000 0.034551
#
#
# Mechanical properties :
#
#
# Convention : Reuss Voigt Hill
#
# Bulk Modulus (GPa) = 56.27542 60.97182 58.62362
# Shear Modulus (GPa) = 23.58105 26.98664 25.28384
#
# Velocity S-wave (km/s) = 3.49479 3.73865 3.61878
# Velocity P-wave (km/s) = 6.74034 7.08636 6.91551
#
# Compressibility (1/GPa) = 0.01776975
#
# Stress axis : x y z
#
# Youngs Moduli (GPa) = 66.28251 66.28251 31.76326
#
# Poissons Ratio (x) = 0.15240 0.31198
# Poissons Ratio (y) = 0.15240 0.31198
# Poissons Ratio (z) = 0.65104 0.65104
#
# Static dielectric constant tensor:
#      x y z
#    x 3.579890 0.000000 0.000000 
#    y 0.000000 3.579890 0.000000 
#    z 0.000000 0.000000 3.554780 
# 
# 
# High freq. dielectric constant tensor:
#      x y z
#    x 1.747440 0.000000 0.000000 
#    y 0.000000 1.747440 0.000000 
#    z 0.000000 0.000000 1.747990 
# 
# From -- ./inp_files/625.got.cif
#   From: 2010.03.12/outbox.cif.g09.slc.cpg/sg78_cif.got.tgz:625.got - 2010.04.16 16:37:20.
