data_PCOD8302163
_publ_section_title
;
Structure prediction by ZEFSAII (Michael W. Deem and Ramdas Pophale) SiO2 
 PCOD8302163
Probable space group: I 41
;
_chemical_formula_sum "Si O2"
_cell_formula_units_Z 52
_cell_length_a 17.134462
_cell_length_b 17.134462
_cell_length_c 9.504946
_cell_angle_alpha 90.000000
_cell_angle_beta 90.000000
_cell_angle_gamma 90.000000
_cell_volume 2790.555081
_symmetry_space_group_name_H-M "I 41"
_symmetry_group_IT_number 80
_symmetry_cell_setting 'tetragonal'
loop_
_space_group_symop_operation_xyz
x,y,z
-y,1/2+x,1/4+z
-x,-y,z
y,1/2-x,1/4+z
1/2+x,1/2+y,1/2+z
1/2-y,x,3/4+z
1/2-x,1/2-y,1/2+z
1/2+y,-x,3/4+z
loop_
_atom_site_type_symbol
_atom_site_label
_atom_site_fract_x
_atom_site_fract_y
_atom_site_fract_z
Si Si1 0.081863 0.776353 0.291700
Si Si2 0.168175 0.568408 0.981361
Si Si3 0.427879 0.126867 0.119196
Si Si4 0.122913 0.597628 0.286747
Si Si5 0.788210 0.554546 0.760348
Si Si6 0.339972 0.598835 0.985578
Si Si7 0.000000 0.000000 0.189140
O O1 0.121537 0.691556 0.285806
O O2 0.068280 0.804335 0.131435
O O3 0.137126 0.840706 0.363947
O O4 0.003137 0.773757 0.380458
O O5 0.184759 0.486373 0.905207
O O6 0.248788 0.613731 0.004517
O O7 0.111617 0.618667 0.883627
O O8 0.129199 0.558694 0.133177
O O9 0.404423 0.204185 0.031454
O O10 0.356389 0.116021 0.227065
O O11 0.510812 0.139983 0.193014
O O12 0.435318 0.046549 0.030611
O O13 0.041923 0.565649 0.347311
#
# Coordination Sequence:
#
# PCOD8302163 Si02
#       7
#     8   8   8   8   8   8   4
#     4  11  20  35  57  89 119 163 202 238 280 373
#     4  10  22  35  52  89 123 161 190 247 294 363
#     4  11  20  40  68  89 108 156 207 252 297 364
#     4  12  23  34  55  87 127 156 198 244 306 345
#     4  10  21  39  67  84 113 151 211 248 299 359
#     4  10  20  37  58  82 119 161 205 231 299 357
#     4  12  20  36  60  86 112 158 196 242 292 364
#
# _framework density 18.634285999999999
#
# number of rings (size 3 to 8) (size 9 to 14) (size 15 to 20)
#    0.000    1.231    4.615    3.692    0.000    4.923 
#    0.000    0.000    6.769    0.000    0.000    0.000 
#    0.000    0.000    0.000    0.000    0.000    0.000 
#
# Total GULP energy -322362.369547 kJ/mol
# GULP energy per Si atom -12398.552675 kJ/mol
# Density = 1.859187 g / cm^3
# Si number density = 18.634286 Si / 1000 Ang^3
#
#
#
# Elastic Constant Matrix: (Units=GPa)
#
#
# Indices 1 2 3 4 5 6 
#
# 1 93.7507 36.3773 31.7737 0.0000 0.0000 -1.0666
# 2 36.3773 93.7507 31.7737 0.0000 0.0000 1.0666
# 3 31.7737 31.7737 121.4903 0.0000 0.0000 0.0000
# 4 0.0000 0.0000 0.0000 16.2064 0.0000 0.0000
# 5 0.0000 0.0000 0.0000 0.0000 16.2064 0.0000
# 6 -1.0666 1.0666 0.0000 0.0000 0.0000 19.9080
#
#
#
# Elastic Compliance Matrix: (Units=1/GPa)
#
#
# Indices 1 2 3 4 5 6 
#
# 1 0.013137 -0.004327 -0.002304 0.000000 0.000000 0.000936
# 2 -0.004327 0.013137 -0.002304 0.000000 0.000000 -0.000936
# 3 -0.002304 -0.002304 0.009436 0.000000 0.000000 0.000000
# 4 0.000000 0.000000 0.000000 0.061704 0.000000 0.000000
# 5 0.000000 0.000000 0.000000 0.000000 0.061704 0.000000
# 6 0.000936 -0.000936 0.000000 0.000000 0.000000 0.050331
#
#
# Mechanical properties :
#
#
# Convention : Reuss Voigt Hill
#
# Bulk Modulus (GPa) = 56.05437 56.53788 56.29613
# Shear Modulus (GPa) = 21.43459 24.40194 22.91826
#
# Velocity S-wave (km/s) = 3.39525 3.62265 3.51079
# Velocity P-wave (km/s) = 6.74662 6.92133 6.83453
#
# Compressibility (1/GPa) = 0.01783982
#
# Stress axis : x y z
#
# Youngs Moduli (GPa) = 76.11968 76.11968 105.97371
#
# Poissons Ratio (x) = 0.32939 0.24417
# Poissons Ratio (y) = 0.32939 0.24417
# Poissons Ratio (z) = 0.17539 0.17539
#
# Static dielectric constant tensor:
#      x y z
#    x 3.407720 0.000000 0.000000 
#    y 0.000000 3.407720 0.000000 
#    z 0.000000 0.000000 3.518430 
# 
# 
# High freq. dielectric constant tensor:
#      x y z
#    x 1.716650 0.000000 0.000000 
#    y 0.000000 1.716650 0.000000 
#    z 0.000000 0.000000 1.723020 
# 
# From -- ./inp_files/697.got.cif
#   From: 2010.03.12/outbox.cif.g09.slc.cpg/sg80_cif.got.tgz:697.got - 2010.04.08 20:00:04.
