data_PCOD8302942
_publ_section_title
;
Structure prediction by ZEFSAII (Michael W. Deem and Ramdas Pophale) SiO2 
 PCOD8302942
Probable space group: P 4/M
;
_chemical_formula_sum "Si O2"
_cell_formula_units_Z 40
_cell_length_a 8.503665
_cell_length_b 8.503665
_cell_length_c 25.844246
_cell_angle_alpha 90.000000
_cell_angle_beta 90.000000
_cell_angle_gamma 90.000000
_cell_volume 1868.857346
_symmetry_space_group_name_H-M "P 4/M"
_symmetry_group_IT_number 83
_symmetry_cell_setting 'tetragonal'
loop_
_space_group_symop_operation_xyz
x,y,z
-y,x,z
-x,-y,z
y,-x,z
-x,-y,-z
y,-x,-z
x,y,-z
-y,x,-z
loop_
_atom_site_type_symbol
_atom_site_label
_atom_site_fract_x
_atom_site_fract_y
_atom_site_fract_z
Si Si1 0.600060 0.737217 0.089060
Si Si2 0.397989 0.263428 0.793371
Si Si3 0.241964 0.094022 0.703506
Si Si4 0.399131 0.258591 0.611701
Si Si5 0.600455 0.738047 0.500000
Si Si6 0.242804 0.090755 0.000000
O O1 0.418330 0.701562 0.078236
O O2 0.625544 0.794549 0.147837
O O3 0.655402 0.874987 0.051159
O O4 0.580043 0.297851 0.782408
O O5 0.338719 0.126205 0.755894
O O6 0.350631 0.132566 0.654445
O O7 0.088012 0.201473 0.701996
O O8 0.582486 0.298469 0.618201
O O9 0.364166 0.176673 0.555029
O O10 0.418283 0.700886 0.500000
O O11 0.090485 0.200388 0.000000
#
# Coordination Sequence:
#
# PCOD8302942 Si02
#       6
#     8   8   8   8   4   4
#     4   9  19  37  60  83 105 131 169 217 263 307
#     4   9  19  37  60  83 103 127 167 218 266 309
#     4  11  24  37  48  70 107 145 176 208 251 304
#     4   9  17  32  56  81 102 128 167 214 260 307
#     4   7  12  26  50  79 104 124 156 209 264 305
#     4  11  24  37  50  76 114 149 178 209 248 298
#
# _framework density 21.403455999999998
#
# number of rings (size 3 to 8) (size 9 to 14) (size 15 to 20)
#    0.000    2.600    0.000    4.200    0.000    8.800 
#    0.000    7.000    0.000    4.800    0.000    0.000 
#    0.000    0.000    0.000    0.000    0.000    0.000 
#
# Total GULP energy -495870.504279 kJ/mol
# GULP energy per Si atom -12396.762607 kJ/mol
# Density = 2.135474 g / cm^3
# Si number density = 21.403456 Si / 1000 Ang^3
#
#
#
# Elastic Constant Matrix: (Units=GPa)
#
#
# Indices 1 2 3 4 5 6 
#
# 1 15.2978 -9.1092 8.6529 0.0000 0.0000 -3.0151
# 2 -9.1092 15.2978 8.6529 0.0000 0.0000 3.0151
# 3 8.6529 8.6529 135.6264 0.0000 0.0000 0.0000
# 4 0.0000 0.0000 0.0000 -0.7575 0.0000 0.0000
# 5 0.0000 0.0000 0.0000 0.0000 -0.7575 0.0000
# 6 -3.0151 3.0151 0.0000 0.0000 0.0000 32.0881
#
#
#
# Elastic Compliance Matrix: (Units=1/GPa)
#
#
# Indices 1 2 3 4 5 6 
#
# 1 0.119311 0.077365 -0.012548 0.000000 0.000000 0.003941
# 2 0.077365 0.119311 -0.012548 0.000000 0.000000 -0.003941
# 3 -0.012548 -0.012548 0.008974 0.000000 0.000000 0.000000
# 4 0.000000 0.000000 0.000000 -1.320177 0.000000 0.000000
# 5 0.000000 0.000000 0.000000 0.000000 -1.320177 0.000000
# 6 0.003941 -0.003941 0.000000 0.000000 0.000000 0.031905
#
#
# Mechanical properties :
#
#
# Convention : Reuss Voigt Hill
#
# Bulk Modulus (GPa) = 2.83982 20.29060 11.56521
# Shear Modulus (GPa) = -2.12946 16.64965 7.26009
#
# Velocity S-wave (km/s) = -0.99854 2.79210 1.84374
# Velocity P-wave (km/s) = 0.01595 4.46039 3.15399
#
# Compressibility (1/GPa) = 0.35213478
#
# Stress axis : x y z
#
# Youngs Moduli (GPa) = 8.38147 8.38147 111.42932
#
# Poissons Ratio (x) = -0.64843 1.39820
# Poissons Ratio (y) = -0.64843 1.39820
# Poissons Ratio (z) = 0.10517 0.10517
#
# Static dielectric constant tensor:
#      x y z
#    x 3.557900 0.000000 0.000000 
#    y 0.000000 3.557900 0.000000 
#    z 0.000000 0.000000 4.151070 
# 
# 
# High freq. dielectric constant tensor:
#      x y z
#    x 1.820000 0.000000 0.000000 
#    y 0.000000 1.820000 0.000000 
#    z 0.000000 0.000000 1.859230 
# 
# From -- ./inp_files/3253.got.cif
#   From: 2010.03.12/outbox.cif.g09.slc.cpg/sg83_2_cif.got.tgz:3253.got - 2010.04.08 20:05:18.
