data_PCOD8302448
_publ_section_title
;
Structure prediction by ZEFSAII (Michael W. Deem and Ramdas Pophale) SiO2 
 PCOD8302448
Probable space group: I -4 
;
_chemical_formula_sum "Si O2"
_cell_formula_units_Z 56
_cell_length_a 13.877054
_cell_length_b 13.877054
_cell_length_c 15.834138
_cell_angle_alpha 90.000000
_cell_angle_beta 90.000000
_cell_angle_gamma 90.000000
_cell_volume 3049.221562
_symmetry_space_group_name_H-M "I -4 "
_symmetry_group_IT_number 82
_symmetry_cell_setting 'tetragonal'
loop_
_space_group_symop_operation_xyz
x,y,z
y,-x,-z
-x,-y,z
-y,x,-z
1/2+x,1/2+y,1/2+z
1/2+y,1/2-x,1/2-z
1/2-x,1/2-y,1/2+z
1/2-y,1/2+x,1/2-z
loop_
_atom_site_type_symbol
_atom_site_label
_atom_site_fract_x
_atom_site_fract_y
_atom_site_fract_z
Si Si1 0.914958 0.072083 0.724489
Si Si2 0.246828 0.971193 0.975023
Si Si3 0.590906 0.387465 0.035495
Si Si4 0.522099 0.216782 0.808163
Si Si5 0.168932 0.113599 0.109077
Si Si6 0.097779 0.440346 0.357834
Si Si7 0.272455 0.191060 0.559696
O O1 0.931378 0.122669 0.634274
O O2 0.914543 0.157527 0.793092
O O3 0.818069 0.009870 0.729000
O O4 0.000000 0.000000 0.746521
O O5 0.150449 0.936567 0.924303
O O6 0.310429 0.874371 0.991509
O O7 0.315434 0.043889 0.923687
O O8 0.210445 0.021109 0.060292
O O9 0.494390 0.368595 0.981535
O O10 0.669617 0.310555 0.007323
O O11 0.538243 0.139125 0.734742
O O12 0.434240 0.172180 0.863952
O O13 0.618618 0.226880 0.862028
O O14 0.244297 0.202282 0.099026
O O15 0.000000 0.500000 0.377355
#
# Coordination Sequence:
#
# PCOD8302448 Si02
#       7
#     8   8   8   8   8   8   8
#     4  12  24  39  64  91 128 172 210 273 325 381
#     4  10  23  38  57  89 127 175 210 253 324 392
#     4  11  21  42  64  94 126 166 219 273 336 396
#     4  12  19  35  62  93 131 150 208 273 340 386
#     4  10  24  40  55  91 126 172 220 243 324 390
#     4  12  19  34  60 100 127 154 203 276 344 378
#     4  10  22  39  58  93 127 167 211 267 325 388
#
# _framework density 18.365342999999999
#
# number of rings (size 3 to 8) (size 9 to 14) (size 15 to 20)
#    0.857    0.143    7.143    0.857    4.000    0.000 
#    0.000    1.429    0.000    0.000    0.000    0.000 
#    0.000    0.000    0.000    0.000    0.000    0.000 
#
# Total GULP energy -347027.570742 kJ/mol
# GULP energy per Si atom -12393.841812 kJ/mol
# Density = 1.832354 g / cm^3
# Si number density = 18.365343 Si / 1000 Ang^3
#
#
#
# Elastic Constant Matrix: (Units=GPa)
#
#
# Indices 1 2 3 4 5 6 
#
# 1 72.6056 20.1886 30.4568 0.0000 0.0000 9.2006
# 2 20.1886 72.6056 30.4568 0.0000 0.0000 -9.2006
# 3 30.4568 30.4568 107.0853 0.0000 0.0000 0.0000
# 4 0.0000 0.0000 0.0000 32.7087 0.0000 0.0000
# 5 0.0000 0.0000 0.0000 0.0000 32.7087 0.0000
# 6 9.2006 -9.2006 0.0000 0.0000 0.0000 37.2866
#
#
#
# Elastic Compliance Matrix: (Units=1/GPa)
#
#
# Indices 1 2 3 4 5 6 
#
# 1 0.017069 -0.003818 -0.003769 0.000000 0.000000 -0.005154
# 2 -0.003818 0.017069 -0.003769 0.000000 0.000000 0.005154
# 3 -0.003769 -0.003769 0.011482 0.000000 0.000000 0.000000
# 4 0.000000 0.000000 0.000000 0.030573 0.000000 0.000000
# 5 0.000000 0.000000 0.000000 0.000000 0.030573 0.000000
# 6 -0.005154 0.005154 0.000000 0.000000 0.000000 0.029363
#
#
# Mechanical properties :
#
#
# Convention : Reuss Voigt Hill
#
# Bulk Modulus (GPa) = 43.65220 46.05566 44.85393
# Shear Modulus (GPa) = 30.03447 31.95377 30.99412
#
# Velocity S-wave (km/s) = 4.04838 4.17573 4.11255
# Velocity P-wave (km/s) = 6.75817 6.95564 6.85762
#
# Compressibility (1/GPa) = 0.02290835
#
# Stress axis : x y z
#
# Youngs Moduli (GPa) = 58.58662 58.58663 87.09235
#
# Poissons Ratio (x) = 0.22370 0.32822
# Poissons Ratio (y) = 0.22370 0.32822
# Poissons Ratio (z) = 0.22079 0.22079
#
# Static dielectric constant tensor:
#      x y z
#    x 3.394150 0.000000 0.000000 
#    y 0.000000 3.394150 0.000000 
#    z 0.000000 0.000000 3.201350 
# 
# 
# High freq. dielectric constant tensor:
#      x y z
#    x 1.708680 0.000000 0.000000 
#    y 0.000000 1.708680 0.000000 
#    z 0.000000 0.000000 1.698400 
# 
# From -- ./inp_files/2309.got.cif
#   From: 2010.03.12/outbox.cif.g09.slc.cpg/sg82_2_cif.got.tgz:2309.got - 2010.04.08 20:02:50.
