data_PCOD8302559
_publ_section_title
;
Structure prediction by ZEFSAII (Michael W. Deem and Ramdas Pophale) SiO2 
 PCOD8302559
Probable space group: I -4 
;
_chemical_formula_sum "Si O2"
_cell_formula_units_Z 60
_cell_length_a 14.058716
_cell_length_b 14.058716
_cell_length_c 14.003694
_cell_angle_alpha 90.000000
_cell_angle_beta 90.000000
_cell_angle_gamma 90.000000
_cell_volume 2767.795048
_symmetry_space_group_name_H-M "I -4 "
_symmetry_group_IT_number 82
_symmetry_cell_setting 'tetragonal'
loop_
_space_group_symop_operation_xyz
x,y,z
y,-x,-z
-x,-y,z
-y,x,-z
1/2+x,1/2+y,1/2+z
1/2+y,1/2-x,1/2-z
1/2-x,1/2-y,1/2+z
1/2-y,1/2+x,1/2-z
loop_
_atom_site_type_symbol
_atom_site_label
_atom_site_fract_x
_atom_site_fract_y
_atom_site_fract_z
Si Si1 0.000000 0.000000 0.202049
Si Si2 0.336372 0.757182 0.128910
Si Si3 0.849472 0.521524 0.749711
Si Si4 0.128625 0.069665 0.510239
Si Si5 0.299428 0.830069 0.766343
Si Si6 0.521892 0.288688 0.794673
Si Si7 0.193617 0.026313 0.090632
Si Si8 0.858971 0.773224 0.031931
O O1 0.996464 0.101771 0.259414
O O2 0.093017 0.003184 0.137939
O O3 0.439242 0.799888 0.154398
O O4 0.286429 0.736863 0.230429
O O5 0.353880 0.663100 0.067070
O O6 0.272064 0.825794 0.066566
O O7 0.899788 0.425492 0.784290
O O8 0.777343 0.499893 0.664000
O O9 0.202662 0.056853 0.596198
O O10 0.028491 0.111160 0.547514
O O11 0.396149 0.772885 0.739924
O O12 0.298158 0.851390 0.879228
O O13 0.280251 0.929971 0.711935
O O14 0.202676 0.135251 0.059597
O O15 0.200544 0.968223 0.991002
#
# Coordination Sequence:
#
# PCOD8302559 Si02
#       8
#     4   8   8   8   8   8   8   8
#     4  12  24  45  79 108 144 188 250 315 375 436
#     4  12  24  45  70 107 145 191 255 304 375 447
#     4  11  25  46  71 101 146 198 248 304 370 438
#     4  11  24  41  69 105 144 186 247 308 369 436
#     4  12  27  48  73 108 153 199 248 311 376 449
#     4  12  26  47  73 108 150 199 248 308 375 449
#     4  12  25  44  71 108 143 187 249 307 372 445
#     4  12  25  44  71 109 145 192 244 309 382 443
#
# _framework density 21.677907000000001
#
# number of rings (size 3 to 8) (size 9 to 14) (size 15 to 20)
#    0.000    0.267    6.667    2.400    3.733    1.333 
#    0.000    0.000    2.933    0.000    0.000    0.000 
#    0.000    0.000    0.000    0.000    0.000    0.000 
#
# Total GULP energy -371821.084792 kJ/mol
# GULP energy per Si atom -12394.036160 kJ/mol
# Density = 2.162857 g / cm^3
# Si number density = 21.677907 Si / 1000 Ang^3
#
#
#
# Elastic Constant Matrix: (Units=GPa)
#
#
# Indices 1 2 3 4 5 6 
#
# 1 100.8203 40.8627 26.7866 0.0000 0.0000 1.8329
# 2 40.8627 100.8203 26.7866 0.0000 0.0000 -1.8329
# 3 26.7866 26.7866 94.5072 0.0000 0.0000 0.0000
# 4 0.0000 0.0000 0.0000 37.2189 0.0000 0.0000
# 5 0.0000 0.0000 0.0000 0.0000 37.2189 0.0000
# 6 1.8329 -1.8329 0.0000 0.0000 0.0000 36.7941
#
#
#
# Elastic Compliance Matrix: (Units=1/GPa)
#
#
# Indices 1 2 3 4 5 6 
#
# 1 0.012317 -0.004412 -0.002241 0.000000 0.000000 -0.000833
# 2 -0.004412 0.012317 -0.002241 0.000000 0.000000 0.000833
# 3 -0.002241 -0.002241 0.011851 0.000000 0.000000 0.000000
# 4 0.000000 0.000000 0.000000 0.026868 0.000000 0.000000
# 5 0.000000 0.000000 0.000000 0.000000 0.026868 0.000000
# 6 -0.000833 0.000833 0.000000 0.000000 0.000000 0.027261
#
#
# Mechanical properties :
#
#
# Convention : Reuss Voigt Hill
#
# Bulk Modulus (GPa) = 53.47780 53.89105 53.68443
# Shear Modulus (GPa) = 35.33489 35.69383 35.51436
#
# Velocity S-wave (km/s) = 4.04170 4.06218 4.05195
# Velocity P-wave (km/s) = 6.81933 6.84949 6.83443
#
# Compressibility (1/GPa) = 0.01869935
#
# Stress axis : x y z
#
# Youngs Moduli (GPa) = 81.18649 81.18648 84.37863
#
# Poissons Ratio (x) = 0.35820 0.18906
# Poissons Ratio (y) = 0.35820 0.18906
# Poissons Ratio (z) = 0.18191 0.18191
#
# Static dielectric constant tensor:
#      x y z
#    x 4.091890 0.000000 0.000000 
#    y 0.000000 4.091890 0.000000 
#    z 0.000000 0.000000 3.825000 
# 
# 
# High freq. dielectric constant tensor:
#      x y z
#    x 1.858350 0.000000 0.000000 
#    y 0.000000 1.858350 0.000000 
#    z 0.000000 0.000000 1.846650 
# 
# From -- ./inp_files/2349.got.cif
#   From: 2010.03.12/outbox.cif.g09.slc.cpg/sg82_2_cif.got.tgz:2349.got - 2010.04.08 20:02:50.
