data_PCOD8302521
_publ_section_title
;
Structure prediction by ZEFSAII (Michael W. Deem and Ramdas Pophale) SiO2 
 PCOD8302521
Probable space group: I -4 
;
_chemical_formula_sum "Si O2"
_cell_formula_units_Z 40
_cell_length_a 11.519019
_cell_length_b 11.519019
_cell_length_c 15.109498
_cell_angle_alpha 90.000000
_cell_angle_beta 90.000000
_cell_angle_gamma 90.000000
_cell_volume 2004.846029
_symmetry_space_group_name_H-M "I -4 "
_symmetry_group_IT_number 82
_symmetry_cell_setting 'tetragonal'
loop_
_space_group_symop_operation_xyz
x,y,z
y,-x,-z
-x,-y,z
-y,x,-z
1/2+x,1/2+y,1/2+z
1/2+y,1/2-x,1/2-z
1/2-x,1/2-y,1/2+z
1/2-y,1/2+x,1/2-z
loop_
_atom_site_type_symbol
_atom_site_label
_atom_site_fract_x
_atom_site_fract_y
_atom_site_fract_z
Si Si1 0.245955 0.637916 0.454543
Si Si2 0.990253 0.138994 0.893435
Si Si3 0.084341 0.900894 0.277733
Si Si4 0.386230 0.640721 0.969251
Si Si5 0.831194 0.485296 0.288650
O O1 0.356884 0.680412 0.397147
O O2 0.290418 0.556887 0.532344
O O3 0.180342 0.744850 0.503031
O O4 0.160617 0.566919 0.388175
O O5 0.047059 0.169469 0.797813
O O6 0.000000 0.000000 0.908346
O O7 0.151035 0.859466 0.365216
O O8 0.003442 0.802155 0.235573
O O9 0.000000 0.000000 0.314570
O O10 0.525082 0.657305 0.981105
O O11 0.897958 0.608800 0.282213
#
# Coordination Sequence:
#
# PCOD8302521 Si02
#       5
#     8   8   8   8   8
#     4  12  21  42  65  95 130 167 220 280 333 392
#     4  11  21  39  65  95 122 170 222 270 327 396
#     4  11  20  40  65  86 127 169 216 265 319 410
#     4  11  25  44  63  94 131 178 218 268 349 410
#     4  11  23  38  63 101 129 163 221 281 337 384
#
# _framework density 19.951657000000001
#
# number of rings (size 3 to 8) (size 9 to 14) (size 15 to 20)
#    0.000    0.800   10.000    0.000    0.000    3.200 
#    3.600    0.000    0.000    0.000    0.000    0.000 
#    0.000    0.000    0.000    0.000    0.000    0.000 
#
# Total GULP energy -247903.286386 kJ/mol
# GULP energy per Si atom -12395.164319 kJ/mol
# Density = 1.990625 g / cm^3
# Si number density = 19.951657 Si / 1000 Ang^3
#
#
#
# Elastic Constant Matrix: (Units=GPa)
#
#
# Indices 1 2 3 4 5 6 
#
# 1 78.8518 33.4280 21.1234 0.0000 0.0000 -2.3614
# 2 33.4280 78.8519 21.1234 0.0000 0.0000 2.3614
# 3 21.1234 21.1234 116.8826 0.0000 0.0000 0.0000
# 4 0.0000 0.0000 0.0000 30.8297 0.0000 0.0000
# 5 0.0000 0.0000 0.0000 0.0000 30.8297 0.0000
# 6 -2.3614 2.3614 0.0000 0.0000 0.0000 37.1598
#
#
#
# Elastic Compliance Matrix: (Units=1/GPa)
#
#
# Indices 1 2 3 4 5 6 
#
# 1 0.015859 -0.006303 -0.001727 0.000000 0.000000 0.001408
# 2 -0.006303 0.015859 -0.001727 0.000000 0.000000 -0.001408
# 3 -0.001727 -0.001727 0.009180 0.000000 0.000000 0.000000
# 4 0.000000 0.000000 0.000000 0.032436 0.000000 0.000000
# 5 0.000000 0.000000 0.000000 0.000000 0.032436 0.000000
# 6 0.001408 -0.001408 0.000000 0.000000 0.000000 0.027090
#
#
# Mechanical properties :
#
#
# Convention : Reuss Voigt Hill
#
# Bulk Modulus (GPa) = 46.76387 47.32618 47.04502
# Shear Modulus (GPa) = 31.34781 33.02460 32.18620
#
# Velocity S-wave (km/s) = 3.96812 4.07287 4.02084
# Velocity P-wave (km/s) = 6.66964 6.77418 6.72212
#
# Compressibility (1/GPa) = 0.02138403
#
# Stress axis : x y z
#
# Youngs Moduli (GPa) = 63.05687 63.05687 108.93462
#
# Poissons Ratio (x) = 0.39742 0.18813
# Poissons Ratio (y) = 0.39742 0.18813
# Poissons Ratio (z) = 0.10890 0.10890
#
# Static dielectric constant tensor:
#      x y z
#    x 3.583670 0.000000 0.000000 
#    y 0.000000 3.583670 0.000000 
#    z 0.000000 0.000000 3.785610 
# 
# 
# High freq. dielectric constant tensor:
#      x y z
#    x 1.764800 0.000000 0.000000 
#    y 0.000000 1.764800 0.000000 
#    z 0.000000 0.000000 1.784050 
# 
# From -- ./inp_files/2171.got.cif
#   From: 2010.03.12/outbox.cif.g09.slc.cpg/sg82_2_cif.got.tgz:2171.got - 2010.04.08 20:02:50.
