data_PCOD8302973
_publ_section_title
;
Structure prediction by ZEFSAII (Michael W. Deem and Ramdas Pophale) SiO2 
 PCOD8302973
Probable space group: P 4/M
;
_chemical_formula_sum "Si O2"
_cell_formula_units_Z 48
_cell_length_a 8.466991
_cell_length_b 8.466991
_cell_length_c 32.885890
_cell_angle_alpha 90.000000
_cell_angle_beta 90.000000
_cell_angle_gamma 90.000000
_cell_volume 2357.587369
_symmetry_space_group_name_H-M "P 4/M"
_symmetry_group_IT_number 83
_symmetry_cell_setting 'tetragonal'
loop_
_space_group_symop_operation_xyz
x,y,z
-y,x,z
-x,-y,z
y,-x,z
-x,-y,-z
y,-x,-z
x,y,-z
-y,x,-z
loop_
_atom_site_type_symbol
_atom_site_label
_atom_site_fract_x
_atom_site_fract_y
_atom_site_fract_z
Si Si1 0.902782 0.760727 0.046794
Si Si2 0.500000 0.000000 0.393086
Si Si3 0.249639 0.069179 0.668250
Si Si4 0.000000 0.500000 0.821298
Si Si5 0.569819 0.250737 0.545749
Si Si6 0.750388 0.931902 0.240425
Si Si7 0.751530 0.574034 0.115122
O O1 0.843640 0.612326 0.073286
O O2 0.084916 0.798130 0.056790
O O3 0.882781 0.711649 0.000000
O O4 0.386133 0.104276 0.364329
O O5 0.604657 0.113637 0.421828
O O6 0.317517 0.087670 0.713927
O O7 0.109156 0.191304 0.661373
O O8 0.102233 0.615813 0.792601
O O9 0.124070 0.400309 0.848387
O O10 0.691604 0.391363 0.552777
O O11 0.588906 0.184093 0.500000
O O12 0.890245 0.809304 0.233641
O O13 0.606022 0.694468 0.117558
#
# Coordination Sequence:
#
# PCOD8302973 Si02
#       7
#     8   4   8   4   8   8   8
#     4   9  19  38  63  87 110 140 180 221 257 301
#     4  12  18  28  52  79  96 127 170 208 252 310
#     4   9  19  34  50  74 106 131 158 206 262 310
#     4  12  21  36  57  79 102 137 179 222 253 296
#     4   9  19  34  48  66  97 134 171 211 251 295
#     4   9  19  36  56  76 100 134 173 209 253 310
#     4  11  24  38  53  80 115 145 174 215 269 318
#
# _framework density 20.359798999999999
#
# number of rings (size 3 to 8) (size 9 to 14) (size 15 to 20)
#    0.000    2.167    0.000    5.750    0.000    0.667 
#    0.000    4.583    0.000    0.000    0.000   21.000 
#    0.000    0.000    0.000    0.000    0.000    0.000 
#
# Total GULP energy -595175.822410 kJ/mol
# GULP energy per Si atom -12399.496300 kJ/mol
# Density = 2.031346 g / cm^3
# Si number density = 20.359799 Si / 1000 Ang^3
#
#
#
# Elastic Constant Matrix: (Units=GPa)
#
#
# Indices 1 2 3 4 5 6 
#
# 1 55.4908 2.1041 38.1268 0.0000 0.0000 -5.9137
# 2 2.1041 55.4908 38.1268 0.0000 0.0000 5.9137
# 3 38.1268 38.1268 133.3313 0.0000 0.0000 0.0000
# 4 0.0000 0.0000 0.0000 27.9803 0.0000 0.0000
# 5 0.0000 0.0000 0.0000 0.0000 27.9803 0.0000
# 6 -5.9137 5.9137 0.0000 0.0000 0.0000 25.5818
#
#
#
# Elastic Compliance Matrix: (Units=1/GPa)
#
#
# Indices 1 2 3 4 5 6 
#
# 1 0.023842 0.004099 -0.007990 0.000000 0.000000 0.004564
# 2 0.004099 0.023842 -0.007990 0.000000 0.000000 -0.004564
# 3 -0.007990 -0.007990 0.012070 0.000000 0.000000 0.000000
# 4 0.000000 0.000000 0.000000 0.035739 0.000000 0.000000
# 5 0.000000 0.000000 0.000000 0.000000 0.035739 0.000000
# 6 0.004564 -0.004564 0.000000 0.000000 0.000000 0.041200
#
#
# Mechanical properties :
#
#
# Convention : Reuss Voigt Hill
#
# Bulk Modulus (GPa) = 27.78391 44.55871 36.17131
# Shear Modulus (GPa) = 24.01649 27.37216 25.69432
#
# Velocity S-wave (km/s) = 3.43826 3.67061 3.55634
# Velocity P-wave (km/s) = 5.42570 6.31646 5.88795
#
# Compressibility (1/GPa) = 0.03599206
#
# Stress axis : x y z
#
# Youngs Moduli (GPa) = 41.94338 41.94338 82.85273
#
# Poissons Ratio (x) = -0.17194 0.66198
# Poissons Ratio (y) = -0.17194 0.66198
# Poissons Ratio (z) = 0.33512 0.33512
#
# Static dielectric constant tensor:
#      x y z
#    x 3.453700 0.000000 0.000000 
#    y 0.000000 3.453700 0.000000 
#    z 0.000000 0.000000 3.765930 
# 
# 
# High freq. dielectric constant tensor:
#      x y z
#    x 1.780440 0.000000 0.000000 
#    y 0.000000 1.780440 0.000000 
#    z 0.000000 0.000000 1.809600 
# 
# From -- ./inp_files/3444.got.cif
#   From: 2010.03.12/outbox.cif.g09.slc.cpg/sg83_2_cif.got.tgz:3444.got - 2010.04.08 20:05:18.
