data_PCOD8302177
_publ_section_title
;
Structure prediction by ZEFSAII (Michael W. Deem and Ramdas Pophale) SiO2 
 PCOD8302177
Probable space group: I 41
;
_chemical_formula_sum "Si O2"
_cell_formula_units_Z 48
_cell_length_a 8.851765
_cell_length_b 8.851765
_cell_length_c 30.207669
_cell_angle_alpha 90.000000
_cell_angle_beta 90.000000
_cell_angle_gamma 90.000000
_cell_volume 2366.883952
_symmetry_space_group_name_H-M "I 41"
_symmetry_group_IT_number 80
_symmetry_cell_setting 'tetragonal'
loop_
_space_group_symop_operation_xyz
x,y,z
-y,1/2+x,1/4+z
-x,-y,z
y,1/2-x,1/4+z
1/2+x,1/2+y,1/2+z
1/2-y,x,3/4+z
1/2-x,1/2-y,1/2+z
1/2+y,-x,3/4+z
loop_
_atom_site_type_symbol
_atom_site_label
_atom_site_fract_x
_atom_site_fract_y
_atom_site_fract_z
Si Si1 0.660651 0.687286 0.361610
Si Si2 0.658322 0.312210 0.929731
Si Si3 0.660651 0.187286 0.598662
Si Si4 0.309342 0.341343 0.941234
Si Si5 0.658322 0.812210 0.030541
Si Si6 0.658657 0.309342 0.769038
O O1 0.486452 0.709381 0.349616
O O2 0.709381 0.513548 0.360656
O O3 0.691360 0.753818 0.410202
O O4 0.760709 0.779786 0.327369
O O5 0.720214 0.260709 0.882903
O O6 0.478220 0.297421 0.926971
O O7 0.715616 0.480654 0.938546
O O8 0.723066 0.206931 0.968635
O O9 0.691360 0.253818 0.550070
O O10 0.276934 0.293069 0.991637
O O11 0.478220 0.797421 0.033301
O O12 0.715616 0.980654 0.021726
#
# Coordination Sequence:
#
# PCOD8302177 Si02
#       6
#     8   8   8   8   8   8
#     4  11  24  39  56  82 116 153 192 233 280 334
#     4  10  21  38  61  87 114 147 188 233 283 338
#     4  11  24  39  56  82 116 153 192 233 280 334
#     4  10  21  38  61  87 114 147 188 233 283 338
#     4  10  21  38  61  87 114 147 188 233 283 338
#     4  10  21  38  61  87 114 147 188 233 283 338
#
# _framework density 20.279826
#
# number of rings (size 3 to 8) (size 9 to 14) (size 15 to 20)
#    0.000    1.667    0.000    4.000    0.000   12.000 
#    0.000    0.000    0.000    0.000    0.000    0.000 
#    0.000    0.000    0.000    0.000    0.000    0.000 
#
# Total GULP energy -297780.511996 kJ/mol
# GULP energy per Si atom -12407.521333 kJ/mol
# Density = 2.023367 g / cm^3
# Si number density = 20.279826 Si / 1000 Ang^3
#
#
#
# Elastic Constant Matrix: (Units=GPa)
#
#
# Indices 1 2 3 4 5 6 
#
# 1 54.7881 12.3244 3.7440 0.0000 0.0000 1.4478
# 2 12.3244 54.7881 3.7440 0.0000 0.0000 -1.4478
# 3 3.7440 3.7440 68.4522 0.0000 0.0000 0.0000
# 4 0.0000 0.0000 0.0000 38.1577 0.0000 0.0000
# 5 0.0000 0.0000 0.0000 0.0000 38.1577 0.0000
# 6 1.4478 -1.4478 0.0000 0.0000 0.0000 28.0035
#
#
#
# Elastic Compliance Matrix: (Units=1/GPa)
#
#
# Indices 1 2 3 4 5 6 
#
# 1 0.019312 -0.004321 -0.000820 0.000000 0.000000 -0.001222
# 2 -0.004321 0.019312 -0.000820 0.000000 0.000000 0.001222
# 3 -0.000820 -0.000820 0.014698 0.000000 0.000000 0.000000
# 4 0.000000 0.000000 0.000000 0.026207 0.000000 0.000000
# 5 0.000000 0.000000 0.000000 0.000000 0.026207 0.000000
# 6 -0.001222 0.001222 0.000000 0.000000 0.000000 0.035836
#
#
# Mechanical properties :
#
#
# Convention : Reuss Voigt Hill
#
# Bulk Modulus (GPa) = 24.15332 24.18370 24.16851
# Shear Modulus (GPa) = 29.88731 31.41151 30.64941
#
# Velocity S-wave (km/s) = 3.84310 3.93988 3.89179
# Velocity P-wave (km/s) = 5.62392 5.71382 5.66905
#
# Compressibility (1/GPa) = 0.04140217
#
# Stress axis : x y z
#
# Youngs Moduli (GPa) = 51.78031 51.78035 68.03451
#
# Poissons Ratio (x) = 0.22372 0.05579
# Poissons Ratio (y) = 0.22372 0.05579
# Poissons Ratio (z) = 0.04246 0.04246
#
# Static dielectric constant tensor:
#      x y z
#    x 3.667070 0.000000 0.000000 
#    y 0.000000 3.667070 0.000000 
#    z 0.000000 0.000000 3.676170 
# 
# 
# High freq. dielectric constant tensor:
#      x y z
#    x 1.793920 0.000000 0.000000 
#    y 0.000000 1.793920 0.000000 
#    z 0.000000 0.000000 1.804820 
# 
# From -- ./inp_files/2596.got.cif
#   From: 2010.03.12/outbox.cif.g09.slc.cpg/sg80_cif.got.tgz:2596.got - 2010.04.08 20:00:04.
