data_PCOD8302837
_publ_section_title
;
Structure prediction by ZEFSAII (Michael W. Deem and Ramdas Pophale) SiO2 
 PCOD8302837
Probable space group: P 4/M
;
_chemical_formula_sum "Si O2"
_cell_formula_units_Z 36
_cell_length_a 14.985517
_cell_length_b 14.985517
_cell_length_c 7.501809
_cell_angle_alpha 90.000000
_cell_angle_beta 90.000000
_cell_angle_gamma 90.000000
_cell_volume 1684.649138
_symmetry_space_group_name_H-M "P 4/M"
_symmetry_group_IT_number 83
_symmetry_cell_setting 'tetragonal'
loop_
_space_group_symop_operation_xyz
x,y,z
-y,x,z
-x,-y,z
y,-x,z
-x,-y,-z
y,-x,-z
x,y,-z
-y,x,-z
loop_
_atom_site_type_symbol
_atom_site_label
_atom_site_fract_x
_atom_site_fract_y
_atom_site_fract_z
Si Si1 0.226688 0.126161 0.289417
Si Si2 0.913179 0.548543 0.710436
Si Si3 0.630087 0.431791 0.000000
Si Si4 0.252144 0.928102 0.287050
Si Si5 0.595652 0.770802 0.291210
O O1 0.218416 0.123874 0.500000
O O2 0.144863 0.183410 0.208783
O O3 0.320154 0.169667 0.233928
O O4 0.222842 0.025330 0.214834
O O5 0.925682 0.552291 0.500000
O O6 0.904848 0.648894 0.785899
O O7 0.824848 0.493555 0.760805
O O8 0.000000 0.500000 0.793612
O O9 0.619165 0.537425 0.000000
O O10 0.680460 0.402295 0.820662
O O11 0.252319 0.926486 0.500000
O O12 0.598865 0.746040 0.500000
#
# Coordination Sequence:
#
# PCOD8302837 Si02
#       5
#     8   8   4   8   8
#     4   9  17  29  50  82 119 160 205 245 296 358
#     4   9  15  28  53  83 115 150 194 252 305 341
#     4  11  28  48  61  86 126 155 190 249 307 366
#     4   9  16  26  45  80 120 158 200 248 298 355
#     4  10  21  39  65  90 116 158 205 247 298 360
#
# _framework density 21.369437000000001
#
# number of rings (size 3 to 8) (size 9 to 14) (size 15 to 20)
#    0.000    2.556    2.222    0.000    3.111    1.333 
#    0.000    3.889    0.000    1.333    0.000    0.000 
#    0.000    1.778    0.000    0.222    0.000    0.000 
#
# Total GULP energy -446344.277070 kJ/mol
# GULP energy per Si atom -12398.452141 kJ/mol
# Density = 2.132080 g / cm^3
# Si number density = 21.369437 Si / 1000 Ang^3
#
#
#
# Elastic Constant Matrix: (Units=GPa)
#
#
# Indices 1 2 3 4 5 6 
#
# 1 157.2372 93.5387 20.8700 0.0000 0.0000 -9.3229
# 2 93.5387 157.2372 20.8700 0.0000 0.0000 9.3229
# 3 20.8700 20.8700 52.0600 0.0000 0.0000 0.0000
# 4 0.0000 0.0000 0.0000 0.4664 0.0000 0.0000
# 5 0.0000 0.0000 0.0000 0.0000 0.4664 0.0000
# 6 -9.3229 9.3229 0.0000 0.0000 0.0000 37.4217
#
#
#
# Elastic Compliance Matrix: (Units=1/GPa)
#
#
# Indices 1 2 3 4 5 6 
#
# 1 0.010603 -0.006331 -0.001713 0.000000 0.000000 0.004219
# 2 -0.006331 0.010603 -0.001713 0.000000 0.000000 -0.004219
# 3 -0.001713 -0.001713 0.020582 0.000000 0.000000 0.000000
# 4 0.000000 0.000000 0.000000 2.143853 0.000000 0.000000
# 5 0.000000 0.000000 0.000000 0.000000 2.143853 0.000000
# 6 0.004219 -0.004219 0.000000 0.000000 0.000000 0.028825
#
#
# Mechanical properties :
#
#
# Convention : Reuss Voigt Hill
#
# Bulk Modulus (GPa) = 44.89153 70.78799 57.83976
# Shear Modulus (GPa) = 1.14018 23.08797 12.11407
#
# Velocity S-wave (km/s) = 0.73124 3.29054 2.38352
# Velocity P-wave (km/s) = 4.66540 6.90178 5.89069
#
# Compressibility (1/GPa) = 0.02227592
#
# Stress axis : x y z
#
# Youngs Moduli (GPa) = 94.31032 94.31032 48.58629
#
# Poissons Ratio (x) = 0.59704 0.08322
# Poissons Ratio (y) = 0.59704 0.08322
# Poissons Ratio (z) = 0.16154 0.16154
#
# Static dielectric constant tensor:
#      x y z
#    x 4.052270 0.000000 0.000000 
#    y 0.000000 4.052270 0.000000 
#    z 0.000000 0.000000 3.271880 
# 
# 
# High freq. dielectric constant tensor:
#      x y z
#    x 1.842610 0.000000 0.000000 
#    y 0.000000 1.842610 0.000000 
#    z 0.000000 0.000000 1.802660 
# 
# From -- ./inp_files/537.got.cif
#   From: 2010.03.12/outbox.cif.g09.slc.cpg/sg83_1_cif.got.tgz:537.got - 2010.04.08 20:05:18.
