data_PCOD8302810
_publ_section_title
;
Structure prediction by ZEFSAII (Michael W. Deem and Ramdas Pophale) SiO2 
 PCOD8302810
Probable space group: P 4/M
;
_chemical_formula_sum "Si O2"
_cell_formula_units_Z 48
_cell_length_a 15.025247
_cell_length_b 15.025247
_cell_length_c 10.704092
_cell_angle_alpha 90.000000
_cell_angle_beta 90.000000
_cell_angle_gamma 90.000000
_cell_volume 2416.534909
_symmetry_space_group_name_H-M "P 4/M"
_symmetry_group_IT_number 83
_symmetry_cell_setting 'tetragonal'
loop_
_space_group_symop_operation_xyz
x,y,z
-y,x,z
-x,-y,z
y,-x,z
-x,-y,-z
y,-x,-z
x,y,-z
-y,x,-z
loop_
_atom_site_type_symbol
_atom_site_label
_atom_site_fract_x
_atom_site_fract_y
_atom_site_fract_z
Si Si1 0.186307 0.575534 0.241788
Si Si2 0.095051 0.896006 0.148851
Si Si3 0.118450 0.397281 0.857379
Si Si4 0.603828 0.988186 0.363394
Si Si5 0.237987 0.760476 0.142702
Si Si6 0.487534 0.361770 0.647048
O O1 0.138507 0.502973 0.152294
O O2 0.115621 0.621225 0.334795
O O3 0.233160 0.656125 0.170909
O O4 0.259910 0.519419 0.314593
O O5 0.162778 0.822925 0.208984
O O6 0.994601 0.875182 0.195491
O O7 0.097309 0.895379 0.000000
O O8 0.205821 0.338102 0.828797
O O9 0.046846 0.363327 0.754581
O O10 0.083648 0.380013 0.000000
O O11 0.647547 0.012488 0.500000
O O12 0.500000 0.000000 0.377704
O O13 0.215502 0.772388 0.000000
O O14 0.579601 0.404382 0.698418
O O15 0.488146 0.366302 0.500000
#
# Coordination Sequence:
#
# PCOD8302810 Si02
#       6
#     8   8   8   8   8   8
#     4  11  20  33  54  79 112 148 184 228 285 341
#     4   8  15  29  49  72  99 133 175 229 280 321
#     4  10  22  38  55  80 115 150 189 233 282 337
#     4   9  20  37  56  78 108 148 189 231 281 338
#     4  10  21  33  51  81 111 146 190 232 277 338
#     4   9  18  33  54  79 106 140 186 238 282 325
#
# _framework density 19.863153000000001
#
# number of rings (size 3 to 8) (size 9 to 14) (size 15 to 20)
#    0.000    2.500    0.000    3.000    2.333    4.333 
#    0.000    1.667    0.000    0.000    0.000    7.000 
#    0.000    1.333    0.000    0.000    0.000    0.000 
#
# Total GULP energy -594632.095799 kJ/mol
# GULP energy per Si atom -12388.168662 kJ/mol
# Density = 1.981794 g / cm^3
# Si number density = 19.863153 Si / 1000 Ang^3
#
#
#
# Elastic Constant Matrix: (Units=GPa)
#
#
# Indices 1 2 3 4 5 6 
#
# 1 120.9932 -24.7494 32.9945 0.0000 0.0000 -31.7290
# 2 -24.7494 120.9932 32.9945 0.0000 0.0000 31.7290
# 3 32.9945 32.9945 78.9495 0.0000 0.0000 0.0000
# 4 0.0000 0.0000 0.0000 22.1785 0.0000 0.0000
# 5 0.0000 0.0000 0.0000 0.0000 22.1785 0.0000
# 6 -31.7290 31.7290 0.0000 0.0000 0.0000 50.8789
#
#
#
# Elastic Compliance Matrix: (Units=1/GPa)
#
#
# Indices 1 2 3 4 5 6 
#
# 1 0.011991 0.002572 -0.006086 0.000000 0.000000 0.005874
# 2 0.002572 0.011991 -0.006086 0.000000 0.000000 -0.005874
# 3 -0.006086 -0.006086 0.017753 0.000000 0.000000 0.000000
# 4 0.000000 0.000000 0.000000 0.045089 0.000000 0.000000
# 5 0.000000 0.000000 0.000000 0.000000 0.045089 0.000000
# 6 0.005874 -0.005874 0.000000 0.000000 0.000000 0.026981
#
#
# Mechanical properties :
#
#
# Convention : Reuss Voigt Hill
#
# Bulk Modulus (GPa) = 44.37553 44.82392 44.59972
# Shear Modulus (GPa) = 26.93876 37.69359 32.31618
#
# Velocity S-wave (km/s) = 3.68668 4.36094 4.03791
# Velocity P-wave (km/s) = 6.36485 6.92622 6.65146
#
# Compressibility (1/GPa) = 0.02253494
#
# Stress axis : x y z
#
# Youngs Moduli (GPa) = 83.39496 83.39496 56.32699
#
# Poissons Ratio (x) = -0.21451 0.34282
# Poissons Ratio (y) = -0.21451 0.34282
# Poissons Ratio (z) = 0.50757 0.50757
#
# Static dielectric constant tensor:
#      x y z
#    x 3.876560 0.000000 0.000000 
#    y 0.000000 3.876560 0.000000 
#    z 0.000000 0.000000 3.461610 
# 
# 
# High freq. dielectric constant tensor:
#      x y z
#    x 1.774990 0.000000 0.000000 
#    y 0.000000 1.774990 0.000000 
#    z 0.000000 0.000000 1.732450 
# 
# From -- ./inp_files/1847.got.cif
#   From: 2010.03.12/outbox.cif.g09.slc.cpg/sg83_1_cif.got.tgz:1847.got - 2010.04.08 20:05:18.
