data_PCOD8302422
_publ_section_title
;
Structure prediction by ZEFSAII (Michael W. Deem and Ramdas Pophale) SiO2 
 PCOD8302422
Probable space group: I -4 
;
_chemical_formula_sum "Si O2"
_cell_formula_units_Z 48
_cell_length_a 14.186187
_cell_length_b 14.186187
_cell_length_c 11.864409
_cell_angle_alpha 90.000000
_cell_angle_beta 90.000000
_cell_angle_gamma 90.000000
_cell_volume 2387.687415
_symmetry_space_group_name_H-M "I -4 "
_symmetry_group_IT_number 82
_symmetry_cell_setting 'tetragonal'
loop_
_space_group_symop_operation_xyz
x,y,z
y,-x,-z
-x,-y,z
-y,x,-z
1/2+x,1/2+y,1/2+z
1/2+y,1/2-x,1/2-z
1/2-x,1/2-y,1/2+z
1/2-y,1/2+x,1/2-z
loop_
_atom_site_type_symbol
_atom_site_label
_atom_site_fract_x
_atom_site_fract_y
_atom_site_fract_z
Si Si1 0.645264 0.555803 0.499970
Si Si2 0.340447 0.745844 0.319123
Si Si3 0.867119 0.665461 0.133027
Si Si4 0.759570 0.390661 0.989282
Si Si5 0.184396 0.419263 0.354999
Si Si6 0.107523 0.754428 0.566997
O O1 0.620638 0.446493 0.492107
O O2 0.710879 0.569275 0.609650
O O3 0.705964 0.590195 0.392066
O O4 0.268202 0.657805 0.316963
O O5 0.290364 0.835818 0.376169
O O6 0.375014 0.774627 0.195957
O O7 0.821984 0.591031 0.220304
O O8 0.977269 0.647313 0.116402
O O9 0.826177 0.654008 0.008635
O O10 0.842362 0.381244 0.082435
O O11 0.661210 0.351640 0.038969
O O12 0.737794 0.497533 0.957914
#
# Coordination Sequence:
#
# PCOD8302422 Si02
#       6
#     8   8   8   8   8   8
#     4  10  21  38  67  97 123 166 222 272 318 382
#     4  10  22  42  62  95 128 167 209 268 323 381
#     4  11  23  38  66  91 128 171 211 268 315 390
#     4  10  24  42  66  92 128 173 209 267 322 382
#     4  11  22  41  65  94 129 167 222 264 321 381
#     4  11  24  43  63  94 133 166 216 260 333 384
#
# _framework density 20.103135000000002
#
# number of rings (size 3 to 8) (size 9 to 14) (size 15 to 20)
#    0.000    1.500    3.333    1.000    0.000    8.000 
#    0.000    1.667    0.000    0.000    0.000    0.000 
#    0.000    0.000    0.000    0.000    0.000    0.000 
#
# Total GULP energy -297615.230000 kJ/mol
# GULP energy per Si atom -12400.634583 kJ/mol
# Density = 2.005738 g / cm^3
# Si number density = 20.103135 Si / 1000 Ang^3
#
#
#
# Elastic Constant Matrix: (Units=GPa)
#
#
# Indices 1 2 3 4 5 6 
#
# 1 120.2358 36.0520 46.2626 0.0000 0.0000 7.1788
# 2 36.0520 120.2358 46.2626 0.0000 0.0000 -7.1788
# 3 46.2626 46.2626 129.4618 0.0000 0.0000 0.0000
# 4 0.0000 0.0000 0.0000 25.4800 0.0000 0.0000
# 5 0.0000 0.0000 0.0000 0.0000 25.4800 0.0000
# 6 7.1788 -7.1788 0.0000 0.0000 0.0000 22.0861
#
#
#
# Elastic Compliance Matrix: (Units=1/GPa)
#
#
# Indices 1 2 3 4 5 6 
#
# 1 0.010346 -0.002230 -0.002900 0.000000 0.000000 -0.004088
# 2 -0.002230 0.010346 -0.002900 0.000000 0.000000 0.004088
# 3 -0.002900 -0.002900 0.009797 0.000000 0.000000 0.000000
# 4 0.000000 0.000000 0.000000 0.039246 0.000000 0.000000
# 5 0.000000 0.000000 0.000000 0.000000 0.039246 0.000000
# 6 -0.004088 0.004088 0.000000 0.000000 0.000000 0.047935
#
#
# Mechanical properties :
#
#
# Convention : Reuss Voigt Hill
#
# Bulk Modulus (GPa) = 69.31167 69.67642 69.49405
# Shear Modulus (GPa) = 28.12381 30.69964 29.41173
#
# Velocity S-wave (km/s) = 3.74435 3.91206 3.82912
# Velocity P-wave (km/s) = 7.29701 7.42566 7.36162
#
# Compressibility (1/GPa) = 0.01442758
#
# Stress axis : x y z
#
# Youngs Moduli (GPa) = 96.65949 96.65949 102.07351
#
# Poissons Ratio (x) = 0.21558 0.29601
# Poissons Ratio (y) = 0.21558 0.29601
# Poissons Ratio (z) = 0.28031 0.28031
#
# Static dielectric constant tensor:
#      x y z
#    x 3.633260 0.000000 0.000000 
#    y 0.000000 3.633260 0.000000 
#    z 0.000000 0.000000 3.776400 
# 
# 
# High freq. dielectric constant tensor:
#      x y z
#    x 1.783160 0.000000 0.000000 
#    y 0.000000 1.783160 0.000000 
#    z 0.000000 0.000000 1.790700 
# 
# From -- ./inp_files/1786.got.cif
#   From: 2010.03.12/outbox.cif.g09.slc.cpg/sg82_1_cif.got.tgz:1786.got - 2010.04.08 20:02:50.
