data_PCOD8302747
_publ_section_title
;
Structure prediction by ZEFSAII (Michael W. Deem and Ramdas Pophale) SiO2 
 PCOD8302747
Probable space group: P 4/M
;
_chemical_formula_sum "Si O2"
_cell_formula_units_Z 64
_cell_length_a 20.023977
_cell_length_b 20.023977
_cell_length_c 8.857414
_cell_angle_alpha 90.000000
_cell_angle_beta 90.000000
_cell_angle_gamma 90.000000
_cell_volume 3551.465661
_symmetry_space_group_name_H-M "P 4/M"
_symmetry_group_IT_number 83
_symmetry_cell_setting 'tetragonal'
loop_
_space_group_symop_operation_xyz
x,y,z
-y,x,z
-x,-y,z
y,-x,z
-x,-y,-z
y,-x,-z
x,y,-z
-y,x,-z
loop_
_atom_site_type_symbol
_atom_site_label
_atom_site_fract_x
_atom_site_fract_y
_atom_site_fract_z
Si Si1 0.986677 0.370788 0.322584
Si Si2 0.135318 0.553641 0.179704
Si Si3 0.040060 0.096792 0.677199
Si Si4 0.409597 0.864006 0.320539
Si Si5 0.222523 0.660481 0.331276
Si Si6 0.299601 0.773407 0.179726
Si Si7 0.752272 0.905797 0.665452
Si Si8 0.856779 0.827422 0.174215
O O1 0.976350 0.385862 0.500000
O O2 0.936766 0.418909 0.231815
O O3 0.968476 0.293619 0.284697
O O4 0.062942 0.382318 0.271936
O O5 0.145720 0.482098 0.252869
O O6 0.199192 0.596940 0.233460
O O7 0.135910 0.549534 0.000000
O O8 0.041449 0.102264 0.500000
O O9 0.071223 0.164262 0.746103
O O10 0.965047 0.085792 0.733746
O O11 0.410730 0.856757 0.500000
O O12 0.366056 0.804098 0.250831
O O13 0.246221 0.639074 0.500000
O O14 0.282818 0.700225 0.248033
O O15 0.158302 0.706072 0.346336
O O16 0.240800 0.823691 0.229490
O O17 0.306061 0.766859 0.000000
O O18 0.784591 0.920037 0.500000
O O19 0.810342 0.891157 0.784434
O O20 0.869824 0.826791 0.000000
#
# Coordination Sequence:
#
# PCOD8302747 Si02
#       8
#     8   8   8   8   8   8   8   8
#     4   9  19  34  50  70  99 137 179 216 250 297
#     4  11  21  33  52  77 104 136 173 213 257 302
#     4   9  19  35  51  64  79 105 146 195 244 296
#     4  11  22  35  51  73 104 140 175 211 252 300
#     4   9  17  33  55  74  94 127 170 208 243 290
#     4  10  21  36  51  73 104 132 161 202 251 297
#     4   8  15  29  48  68  90 122 165 205 239 284
#     4  10  20  32  48  70  94 120 151 194 250 305
#
# _framework density 18.02073
#
# number of rings (size 3 to 8) (size 9 to 14) (size 15 to 20)
#    0.000    2.375    0.000    4.125    0.000    8.500 
#    0.000    4.375    0.000    0.000    0.000    0.000 
#    0.000    0.500    0.000    5.000    0.000    3.000 
#
# Total GULP energy -793269.374047 kJ/mol
# GULP energy per Si atom -12394.833969 kJ/mol
# Density = 1.797971 g / cm^3
# Si number density = 18.020730 Si / 1000 Ang^3
#
#
#
# Elastic Constant Matrix: (Units=GPa)
#
#
# Indices 1 2 3 4 5 6 
#
# 1 62.5749 25.1367 12.8201 0.0000 0.0000 3.4181
# 2 25.1367 62.5749 12.8201 0.0000 0.0000 -3.4181
# 3 12.8201 12.8201 45.1314 0.0000 0.0000 0.0000
# 4 0.0000 0.0000 0.0000 13.5157 0.0000 0.0000
# 5 0.0000 0.0000 0.0000 0.0000 13.5157 0.0000
# 6 3.4181 -3.4181 0.0000 0.0000 0.0000 25.1243
#
#
#
# Elastic Compliance Matrix: (Units=1/GPa)
#
#
# Indices 1 2 3 4 5 6 
#
# 1 0.019912 -0.007479 -0.003532 0.000000 0.000000 -0.003727
# 2 -0.007479 0.019912 -0.003532 0.000000 0.000000 0.003727
# 3 -0.003532 -0.003532 0.024164 0.000000 0.000000 0.000000
# 4 0.000000 0.000000 0.000000 0.073988 0.000000 0.000000
# 5 0.000000 0.000000 0.000000 0.000000 0.073988 0.000000
# 6 -0.003727 0.003727 0.000000 0.000000 0.000000 0.040816
#
#
# Mechanical properties :
#
#
# Convention : Reuss Voigt Hill
#
# Bulk Modulus (GPa) = 28.65045 30.20390 29.42718
# Shear Modulus (GPa) = 17.03578 18.39812 17.71695
#
# Velocity S-wave (km/s) = 3.07798 3.19868 3.13891
# Velocity P-wave (km/s) = 5.34463 5.51717 5.43158
#
# Compressibility (1/GPa) = 0.03490347
#
# Stress axis : x y z
#
# Youngs Moduli (GPa) = 50.22022 50.22022 41.38381
#
# Poissons Ratio (x) = 0.37559 0.14616
# Poissons Ratio (y) = 0.37559 0.14616
# Poissons Ratio (z) = 0.17737 0.17737
#
# Static dielectric constant tensor:
#      x y z
#    x 3.382530 0.000000 0.000000 
#    y 0.000000 3.382530 0.000000 
#    z 0.000000 0.000000 3.348660 
# 
# 
# High freq. dielectric constant tensor:
#      x y z
#    x 1.678500 0.000000 0.000000 
#    y 0.000000 1.678500 0.000000 
#    z 0.000000 0.000000 1.701610 
# 
# From -- ./inp_files/1274.got.cif
#   From: 2010.03.12/outbox.cif.g09.slc.cpg/sg83_1_cif.got.tgz:1274.got - 2010.04.08 20:05:18.
