data_PCOD8302164
_publ_section_title
;
Structure prediction by ZEFSAII (Michael W. Deem and Ramdas Pophale) SiO2 
 PCOD8302164
Probable space group: I 41
;
_chemical_formula_sum "Si O2"
_cell_formula_units_Z 44
_cell_length_a 11.905572
_cell_length_b 11.905572
_cell_length_c 16.059047
_cell_angle_alpha 90.000000
_cell_angle_beta 90.000000
_cell_angle_gamma 90.000000
_cell_volume 2276.251792
_symmetry_space_group_name_H-M "I 41"
_symmetry_group_IT_number 80
_symmetry_cell_setting 'tetragonal'
loop_
_space_group_symop_operation_xyz
x,y,z
-y,1/2+x,1/4+z
-x,-y,z
y,1/2-x,1/4+z
1/2+x,1/2+y,1/2+z
1/2-y,x,3/4+z
1/2-x,1/2-y,1/2+z
1/2+y,-x,3/4+z
loop_
_atom_site_type_symbol
_atom_site_label
_atom_site_fract_x
_atom_site_fract_y
_atom_site_fract_z
Si Si1 0.000000 0.500000 0.950910
Si Si2 0.144904 0.104562 0.380457
Si Si3 0.811161 0.408181 0.058191
Si Si4 0.728819 0.223546 0.936044
Si Si5 0.880575 0.657641 0.822162
Si Si6 0.865029 0.403999 0.570729
O O1 0.081725 0.433766 0.889408
O O2 0.069686 0.581625 0.011643
O O3 0.251555 0.180523 0.351269
O O4 0.113467 0.121305 0.477478
O O5 0.036941 0.139862 0.328285
O O6 0.160935 0.973164 0.358792
O O7 0.818958 0.348898 0.148968
O O8 0.763158 0.534412 0.072996
O O9 0.734920 0.330001 0.999095
O O10 0.649402 0.255356 0.860602
O O11 0.656271 0.121643 0.974022
#
# Coordination Sequence:
#
# PCOD8302164 Si02
#       6
#     4   8   8   8   8   8
#     4  12  22  40  64  90 130 158 212 264 322 376
#     4  11  23  37  61  91 130 159 214 264 321 365
#     4  11  22  38  63  93 121 163 204 264 315 373
#     4  10  20  38  63  89 122 158 216 251 312 378
#     4  12  22  38  59  96 121 161 202 268 312 376
#     4  10  20  37  59  90 117 170 204 264 307 380
#
# _framework density 19.330024000000002
#
# number of rings (size 3 to 8) (size 9 to 14) (size 15 to 20)
#    0.000    1.091    5.455    2.182    2.545    0.000 
#    3.273    0.000    0.000    4.364    0.000    0.000 
#    0.000    0.000    0.000    0.000    0.000    0.000 
#
# Total GULP energy -272577.879262 kJ/mol
# GULP energy per Si atom -12389.903603 kJ/mol
# Density = 1.928603 g / cm^3
# Si number density = 19.330024 Si / 1000 Ang^3
#
#
#
# Elastic Constant Matrix: (Units=GPa)
#
#
# Indices 1 2 3 4 5 6 
#
# 1 92.0853 38.1857 44.0112 0.0000 0.0000 4.4971
# 2 38.1857 92.0853 44.0112 0.0000 0.0000 -4.4971
# 3 44.0112 44.0112 90.0275 0.0000 0.0000 0.0000
# 4 0.0000 0.0000 0.0000 31.5701 0.0000 0.0000
# 5 0.0000 0.0000 0.0000 0.0000 31.5701 0.0000
# 6 4.4971 -4.4971 0.0000 0.0000 0.0000 25.5257
#
#
#
# Elastic Compliance Matrix: (Units=1/GPa)
#
#
# Indices 1 2 3 4 5 6 
#
# 1 0.015289 -0.003826 -0.005604 0.000000 0.000000 -0.003368
# 2 -0.003826 0.015289 -0.005604 0.000000 0.000000 0.003368
# 3 -0.005604 -0.005604 0.016587 0.000000 0.000000 0.000000
# 4 0.000000 0.000000 0.000000 0.031676 0.000000 0.000000
# 5 0.000000 0.000000 0.000000 0.000000 0.031676 0.000000
# 6 -0.003368 0.003368 0.000000 0.000000 0.000000 0.040363
#
#
# Mechanical properties :
#
#
# Convention : Reuss Voigt Hill
#
# Bulk Modulus (GPa) = 58.48923 58.51272 58.50097
# Shear Modulus (GPa) = 26.78896 27.59920 27.19408
#
# Velocity S-wave (km/s) = 3.72677 3.78271 3.75484
# Velocity P-wave (km/s) = 6.98873 7.02955 7.00917
#
# Compressibility (1/GPa) = 0.01709717
#
# Stress axis : x y z
#
# Youngs Moduli (GPa) = 65.40736 65.40736 60.28968
#
# Poissons Ratio (x) = 0.25026 0.33784
# Poissons Ratio (y) = 0.25026 0.33784
# Poissons Ratio (z) = 0.36652 0.36652
#
# Static dielectric constant tensor:
#      x y z
#    x 3.544530 0.000000 0.000000 
#    y 0.000000 3.544530 0.000000 
#    z 0.000000 0.000000 3.811380 
# 
# 
# High freq. dielectric constant tensor:
#      x y z
#    x 1.736590 0.000000 0.000000 
#    y 0.000000 1.736590 0.000000 
#    z 0.000000 0.000000 1.761190 
# 
# From -- ./inp_files/1494.got.cif
#   From: 2010.03.12/outbox.cif.g09.slc.cpg/sg80_cif.got.tgz:1494.got - 2010.04.08 20:00:04.
