data_PCOD8302061
_publ_section_title
;
Structure prediction by ZEFSAII (Michael W. Deem and Ramdas Pophale) SiO2 
 PCOD8302061
Probable space group: P 43
;
_chemical_formula_sum "Si O2"
_cell_formula_units_Z 24
_cell_length_a 9.718041
_cell_length_b 9.718041
_cell_length_c 11.211979
_cell_angle_alpha 90.000000
_cell_angle_beta 90.000000
_cell_angle_gamma 90.000000
_cell_volume 1058.862894
_symmetry_space_group_name_H-M "P 43"
_symmetry_group_IT_number 78
_symmetry_cell_setting 'tetragonal'
loop_
_space_group_symop_operation_xyz
x,y,z
-y,x,3/4+z
-x,-y,1/2+z
y,-x,1/4+z
loop_
_atom_site_type_symbol
_atom_site_label
_atom_site_fract_x
_atom_site_fract_y
_atom_site_fract_z
Si Si1 0.480818 0.149013 0.219960
Si Si2 0.795688 0.685257 0.761885
Si Si3 0.276649 0.909884 0.880313
Si Si4 0.568875 0.161726 0.757596
Si Si5 0.923524 0.997209 0.026020
Si Si6 0.717098 0.782052 0.338681
O O1 0.354148 0.248094 0.247813
O O2 0.559787 0.208024 0.104995
O O3 0.580001 0.154120 0.335819
O O4 0.435403 0.990110 0.197500
O O5 0.854862 0.627153 0.639356
O O6 0.903205 0.798425 0.804816
O O7 0.162416 0.877963 0.778931
O O8 0.292565 0.072083 0.904961
O O9 0.222856 0.847886 0.002980
O O10 0.420385 0.235548 0.759899
O O11 0.663013 0.267811 0.685325
O O12 0.027283 0.014556 0.142910
#
# Coordination Sequence:
#
# PCOD8302061 Si02
#       6
#     4   4   4   4   4   4
#     4  11  27  47  74 108 150 187 248 306 370 444
#     4  12  26  48  74 107 146 195 244 305 374 449
#     4  11  24  46  73 109 146 190 242 311 365 436
#     4  11  27  47  76 107 147 196 241 315 360 453
#     4  12  24  42  76 113 144 189 256 307 374 436
#     4  11  26  48  73 106 151 191 247 302 377 432
#
# _framework density 22.665825999999999
#
# number of rings (size 3 to 8) (size 9 to 14) (size 15 to 20)
#    0.000    0.667    3.333    3.000   11.667    1.333 
#    9.000    0.000    0.000    0.000    0.000    0.000 
#    0.000    0.000    0.000    0.000    0.000    0.000 
#
# Total GULP energy -297603.298090 kJ/mol
# GULP energy per Si atom -12400.137420 kJ/mol
# Density = 2.261424 g / cm^3
# Si number density = 22.665826 Si / 1000 Ang^3
#
#
#
# Elastic Constant Matrix: (Units=GPa)
#
#
# Indices 1 2 3 4 5 6 
#
# 1 126.9759 80.7471 52.3296 0.0000 0.0000 3.7817
# 2 80.7471 126.9759 52.3296 0.0000 0.0000 -3.7817
# 3 52.3296 52.3296 108.3827 0.0000 0.0000 0.0000
# 4 0.0000 0.0000 0.0000 29.8523 0.0000 0.0000
# 5 0.0000 0.0000 0.0000 0.0000 29.8523 0.0000
# 6 3.7817 -3.7817 0.0000 0.0000 0.0000 34.6652
#
#
#
# Elastic Compliance Matrix: (Units=1/GPa)
#
#
# Indices 1 2 3 4 5 6 
#
# 1 0.014193 -0.007831 -0.003072 0.000000 0.000000 -0.002403
# 2 -0.007831 0.014193 -0.003072 0.000000 0.000000 0.002403
# 3 -0.003072 -0.003072 0.012193 0.000000 0.000000 0.000000
# 4 0.000000 0.000000 0.000000 0.033498 0.000000 0.000000
# 5 0.000000 0.000000 0.000000 0.000000 0.033498 0.000000
# 6 -0.002403 0.002403 0.000000 0.000000 0.000000 0.029372
#
#
# Mechanical properties :
#
#
# Convention : Reuss Voigt Hill
#
# Bulk Modulus (GPa) = 79.17833 81.46077 80.31955
# Shear Modulus (GPa) = 29.56724 30.66919 30.11821
#
# Velocity S-wave (km/s) = 3.61568 3.68244 3.64922
# Velocity P-wave (km/s) = 7.24152 7.35517 7.29857
#
# Compressibility (1/GPa) = 0.01262972
#
# Stress axis : x y z
#
# Youngs Moduli (GPa) = 70.45642 70.45642 82.01694
#
# Poissons Ratio (x) = 0.55178 0.25192
# Poissons Ratio (y) = 0.55178 0.25192
# Poissons Ratio (z) = 0.21641 0.21641
#
# Static dielectric constant tensor:
#      x y z
#    x 4.194380 0.000000 0.000000 
#    y 0.000000 4.194380 0.000000 
#    z 0.000000 0.000000 4.080670 
# 
# 
# High freq. dielectric constant tensor:
#      x y z
#    x 1.894730 0.000000 0.000000 
#    y 0.000000 1.894730 0.000000 
#    z 0.000000 0.000000 1.903150 
# 
# From -- ./inp_files/854.got.cif
#   From: 2010.03.12/outbox.cif.g09.slc.cpg/sg78_cif.got.tgz:854.got - 2010.04.16 16:37:20.
