data_PCOD8303110
_publ_section_title
;
Structure prediction by ZEFSAII (Michael W. Deem and Ramdas Pophale) SiO2 
 PCOD8303110
Probable space group: P 42/M
;
_chemical_formula_sum "Si O2"
_cell_formula_units_Z 32
_cell_length_a 14.905515
_cell_length_b 14.905515
_cell_length_c 8.838608
_cell_angle_alpha 90.000000
_cell_angle_beta 90.000000
_cell_angle_gamma 90.000000
_cell_volume 1963.712230
_symmetry_space_group_name_H-M "P 42/M"
_symmetry_group_IT_number 84
_symmetry_cell_setting 'tetragonal'
loop_
_space_group_symop_operation_xyz
x,y,z
-y,x,1/2+z
-x,-y,z
y,-x,1/2+z
-x,-y,-z
y,-x,1/2-z
x,y,-z
-y,x,1/2-z
loop_
_atom_site_type_symbol
_atom_site_label
_atom_site_fract_x
_atom_site_fract_y
_atom_site_fract_z
Si Si1 0.465371 0.872313 0.671670
Si Si2 0.971786 0.680593 0.321452
Si Si3 0.797369 0.716023 0.171991
Si Si4 0.665348 0.845854 0.678715
O O1 0.473860 0.907963 0.500000
O O2 0.423707 0.954377 0.770969
O O3 0.393202 0.789852 0.678928
O O4 0.561446 0.838919 0.731760
O O5 0.971883 0.690715 0.500000
O O6 0.892847 0.742977 0.250192
O O7 0.067205 0.711377 0.254392
O O8 0.714621 0.757175 0.262916
O O9 0.796572 0.751340 0.000000
O O10 0.674941 0.852109 0.500000
#
# Coordination Sequence:
#
# PCOD8303110 Si02
#       4
#     8   8   8   8
#     4   8  18  33  48  70 102 128 158 202 246 286
#     4  10  19  31  48  74 101 127 162 201 241 290
#     4   9  19  34  47  70 100 129 162 203 243 288
#     4  11  19  31  52  74  98 132 161 198 251 290
#
# _framework density 16.295667000000002
#
# number of rings (size 3 to 8) (size 9 to 14) (size 15 to 20)
#    1.500    1.000    0.000    3.750    0.000    5.000 
#    0.000    0.000    0.000    1.500    0.000   10.500 
#    0.000    0.000    0.000    0.000    0.000    0.000 
#
# Total GULP energy -396444.242009 kJ/mol
# GULP energy per Si atom -12388.882563 kJ/mol
# Density = 1.625858 g / cm^3
# Si number density = 16.295667 Si / 1000 Ang^3
#
#
#
# Elastic Constant Matrix: (Units=GPa)
#
#
# Indices 1 2 3 4 5 6 
#
# 1 59.5541 40.1245 25.8947 0.0000 0.0000 -4.5181
# 2 40.1245 59.5541 25.8947 0.0000 0.0000 4.5181
# 3 25.8947 25.8947 103.9538 0.0000 0.0000 0.0000
# 4 0.0000 0.0000 0.0000 23.7850 0.0000 0.0000
# 5 0.0000 0.0000 0.0000 0.0000 23.7850 0.0000
# 6 -4.5181 4.5181 0.0000 0.0000 0.0000 23.8183
#
#
#
# Elastic Compliance Matrix: (Units=1/GPa)
#
#
# Indices 1 2 3 4 5 6 
#
# 1 0.033986 -0.022462 -0.002871 0.000000 0.000000 0.010708
# 2 -0.022462 0.033986 -0.002871 0.000000 0.000000 -0.010708
# 3 -0.002871 -0.002871 0.011050 0.000000 0.000000 0.000000
# 4 0.000000 0.000000 0.000000 0.042043 0.000000 0.000000
# 5 0.000000 0.000000 0.000000 0.000000 0.042043 0.000000
# 6 0.010708 -0.010708 0.000000 0.000000 0.000000 0.046047
#
#
# Mechanical properties :
#
#
# Convention : Reuss Voigt Hill
#
# Bulk Modulus (GPa) = 44.21852 45.21002 44.71427
# Shear Modulus (GPa) = 18.30838 23.02084 20.66461
#
# Velocity S-wave (km/s) = 3.35552 3.76266 3.56491
# Velocity P-wave (km/s) = 6.49667 6.83232 6.66661
#
# Compressibility (1/GPa) = 0.02261496
#
# Stress axis : x y z
#
# Youngs Moduli (GPa) = 29.42420 29.42420 90.49985
#
# Poissons Ratio (x) = 0.66093 0.25978
# Poissons Ratio (y) = 0.66093 0.25978
# Poissons Ratio (z) = 0.08446 0.08446
#
# Static dielectric constant tensor:
#      x y z
#    x 2.921360 0.000000 0.000000 
#    y 0.000000 2.921360 0.000000 
#    z 0.000000 0.000000 3.050370 
# 
# 
# High freq. dielectric constant tensor:
#      x y z
#    x 1.602450 0.000000 0.000000 
#    y 0.000000 1.602450 0.000000 
#    z 0.000000 0.000000 1.639010 
# 
# From -- ./inp_files/588.got.cif
#   From: 2010.03.12/outbox.cif.g09.slc.cpg/sg84_1_cif.got.tgz:588.got - 2010.04.08 20:07:29.
