data_PCOD8303670
_publ_section_title
;
Structure prediction by ZEFSAII (Michael W. Deem and Ramdas Pophale) SiO2 
 PCOD8303670
Probable space group: P 42/N
;
_chemical_formula_sum "Si O2"
_cell_formula_units_Z 40
_cell_length_a 8.451484
_cell_length_b 8.451484
_cell_length_c 24.331422
_cell_angle_alpha 90.000000
_cell_angle_beta 90.000000
_cell_angle_gamma 90.000000
_cell_volume 1737.934635
_symmetry_space_group_name_H-M "P 42/N"
_symmetry_group_IT_number 86
_space_group.IT_coordinate_system_code '2'
_symmetry_cell_setting 'tetragonal'
loop_
_space_group_symop_operation_xyz
x,y,z
-y,1/2+x,1/2+z
1/2-x,1/2-y,z
1/2+y,-x,1/2+z
-x,-y,-z
y,1/2-x,1/2-z
1/2+x,1/2+y,-z
1/2-y,x,1/2-z
loop_
_atom_site_type_symbol
_atom_site_label
_atom_site_fract_x
_atom_site_fract_y
_atom_site_fract_z
Si Si1 0.925645 0.813120 0.613628
Si Si2 0.513163 0.788980 0.729852
Si Si3 0.565865 0.816785 0.501561
Si Si4 0.978060 0.791146 0.274820
Si Si5 0.575613 0.314090 0.608721
O O1 0.750000 0.750000 0.620639
O O2 0.022664 0.756042 0.666848
O O3 0.009723 0.746996 0.558423
O O4 0.921422 0.999616 0.612457
O O5 0.644280 0.928354 0.732485
O O6 0.350757 0.848538 0.757297
O O7 0.750000 0.750000 0.504418
O O8 0.501296 0.733556 0.448159
O O9 0.500000 0.000000 0.500000
O O10 0.933460 0.645216 0.236165
O O11 0.975900 0.745848 0.339502
O O12 0.750000 0.250000 0.610832
#
# Coordination Sequence:
#
# PCOD8303670 Si02
#       5
#     8   8   8   8   8
#     4  11  22  42  69 108 139 186 239 300 359 446
#     4  11  21  40  70 100 138 179 240 283 356 434
#     4  11  27  47  75 106 147 197 249 313 379 447
#     4  11  28  43  64 102 145 183 234 295 369 438
#     4  12  26  45  75 102 143 194 245 302 376 451
#
# _framework density 23.015827000000002
#
# number of rings (size 3 to 8) (size 9 to 14) (size 15 to 20)
#    0.000    0.800    4.000    3.000   11.200    0.000 
#    0.000    2.000    0.000    0.000    0.000    0.000 
#    0.000    0.000    0.000    0.000    0.000    0.000 
#
# Total GULP energy -495522.539548 kJ/mol
# GULP energy per Si atom -12388.063489 kJ/mol
# Density = 2.296344 g / cm^3
# Si number density = 23.015827 Si / 1000 Ang^3
#
#
#
# Elastic Constant Matrix: (Units=GPa)
#
#
# Indices 1 2 3 4 5 6 
#
# 1 72.5035 35.9003 48.2201 0.0000 0.0000 -9.2329
# 2 35.9003 72.5035 48.2201 0.0000 0.0000 9.2329
# 3 48.2201 48.2201 235.8585 0.0000 0.0000 0.0000
# 4 0.0000 0.0000 0.0000 31.7128 0.0000 0.0000
# 5 0.0000 0.0000 0.0000 0.0000 31.7128 0.0000
# 6 -9.2329 9.2329 0.0000 0.0000 0.0000 56.2410
#
#
#
# Elastic Compliance Matrix: (Units=1/GPa)
#
#
# Indices 1 2 3 4 5 6 
#
# 1 0.020531 -0.009256 -0.002305 0.000000 0.000000 0.004890
# 2 -0.009256 0.020531 -0.002305 0.000000 0.000000 -0.004890
# 3 -0.002305 -0.002305 0.005182 0.000000 0.000000 0.000000
# 4 0.000000 0.000000 0.000000 0.031533 0.000000 0.000000
# 5 0.000000 0.000000 0.000000 0.000000 0.031533 0.000000
# 6 0.004890 -0.004890 0.000000 0.000000 0.000000 0.019386
#
#
# Mechanical properties :
#
#
# Convention : Reuss Voigt Hill
#
# Bulk Modulus (GPa) = 54.01712 71.72738 62.87225
# Shear Modulus (GPa) = 30.75023 40.50164 35.62594
#
# Velocity S-wave (km/s) = 3.65916 4.19946 3.93859
# Velocity P-wave (km/s) = 6.43220 7.39906 6.93250
#
# Compressibility (1/GPa) = 0.01851265
#
# Stress axis : x y z
#
# Youngs Moduli (GPa) = 48.70621 48.70621 192.96008
#
# Poissons Ratio (x) = 0.45081 0.44482
# Poissons Ratio (y) = 0.45081 0.44482
# Poissons Ratio (z) = 0.11228 0.11228
#
# Static dielectric constant tensor:
#      x y z
#    x 4.550880 0.000000 0.000000 
#    y 0.000000 4.550880 0.000000 
#    z 0.000000 0.000000 5.190380 
# 
# 
# High freq. dielectric constant tensor:
#      x y z
#    x 1.911640 0.000000 0.000000 
#    y 0.000000 1.911640 0.000000 
#    z 0.000000 0.000000 1.932830 
# 
# From -- ./inp_files/4494.got.cif
#   From: 2010.03.12/outbox.cif.g09.slc.cpg/sg86_3_cif.got.tgz:4494.got - 2010.04.08 20:12:58.
