data_PCOD8303726
_publ_section_title
;
Structure prediction by ZEFSAII (Michael W. Deem and Ramdas Pophale) SiO2 
 PCOD8303726
Probable space group: I 4/M
;
_chemical_formula_sum "Si O2"
_cell_formula_units_Z 112
_cell_length_a 15.392353
_cell_length_b 15.392353
_cell_length_c 32.529320
_cell_angle_alpha 90.000000
_cell_angle_beta 90.000000
_cell_angle_gamma 90.000000
_cell_volume 7706.993881
_symmetry_space_group_name_H-M "I 4/M"
_symmetry_group_IT_number 87
_symmetry_cell_setting 'tetragonal'
loop_
_space_group_symop_operation_xyz
x,y,z
-y,x,z
-x,-y,z
y,-x,z
-x,-y,-z
y,-x,-z
x,y,-z
-y,x,-z
1/2+x,1/2+y,1/2+z
1/2-y,1/2+x,1/2+z
1/2-x,1/2-y,1/2+z
1/2+y,1/2-x,1/2+z
1/2-x,1/2-y,1/2-z
1/2+y,1/2-x,1/2-z
1/2+x,1/2+y,1/2-z
1/2-y,1/2+x,1/2-z
loop_
_atom_site_type_symbol
_atom_site_label
_atom_site_fract_x
_atom_site_fract_y
_atom_site_fract_z
Si Si1 0.191040 0.545131 0.295119
Si Si2 0.128880 0.946070 0.765031
Si Si3 0.611868 0.684588 0.824239
Si Si4 0.132281 0.054373 0.454852
Si Si5 0.276205 0.446378 0.127106
Si Si6 0.460379 0.914244 0.849446
Si Si7 0.131958 0.611408 0.790440
O O1 0.291062 0.577189 0.295242
O O2 0.139725 0.572710 0.335981
O O3 0.147605 0.592703 0.256857
O O4 0.186793 0.440284 0.291896
O O5 0.149784 0.932785 0.717106
O O6 0.046662 0.888062 0.775174
O O7 0.693395 0.627349 0.840050
O O8 0.537448 0.680918 0.859195
O O9 0.644610 0.782552 0.814980
O O10 0.174249 0.071668 0.500000
O O11 0.197252 0.081436 0.418707
O O12 0.046535 0.111153 0.450307
O O13 0.172571 0.459041 0.123654
O O14 0.521876 0.902871 0.809831
O O15 0.500000 0.000000 0.873108
#
# Coordination Sequence:
#
# PCOD8303726 Si02
#       7
#    16  16  16  16  16  16  16
#     4  10  17  29  43  53  74 106 143 186 210 248
#     4  10  20  30  38  53  79 108 139 176 223 254
#     4  10  19  26  39  61  83 111 138 170 210 246
#     4   9  17  28  44  67  93 118 138 157 191 244
#     4  11  18  29  44  62  87 111 133 171 207 246
#     4   9  19  30  43  60  78 107 143 178 213 242
#     4   9  17  27  40  58  77 104 146 180 213 240
#
# _framework density 14.532256
#
# number of rings (size 3 to 8) (size 9 to 14) (size 15 to 20)
#    0.000    2.286    4.286    0.429    0.000    1.429 
#    0.000    2.857    0.000    0.429    0.000    0.000 
#    0.000    0.000    0.000    0.000    0.000    0.000 
#
# Total GULP energy -693922.613444 kJ/mol
# GULP energy per Si atom -12391.475240 kJ/mol
# Density = 1.449918 g / cm^3
# Si number density = 14.532256 Si / 1000 Ang^3
#
#
#
# Elastic Constant Matrix: (Units=GPa)
#
#
# Indices 1 2 3 4 5 6 
#
# 1 58.0174 23.0432 16.3642 0.0000 0.0000 -3.6671
# 2 23.0432 58.0174 16.3642 0.0000 0.0000 3.6671
# 3 16.3642 16.3642 45.6959 0.0000 0.0000 0.0000
# 4 0.0000 0.0000 0.0000 11.2535 0.0000 0.0000
# 5 0.0000 0.0000 0.0000 0.0000 11.2535 0.0000
# 6 -3.6671 3.6671 0.0000 0.0000 0.0000 14.2361
#
#
#
# Elastic Compliance Matrix: (Units=1/GPa)
#
#
# Indices 1 2 3 4 5 6 
#
# 1 0.022323 -0.007902 -0.005165 0.000000 0.000000 0.007786
# 2 -0.007902 0.022323 -0.005165 0.000000 0.000000 -0.007786
# 3 -0.005165 -0.005165 0.025583 0.000000 0.000000 0.000000
# 4 0.000000 0.000000 0.000000 0.088861 0.000000 0.000000
# 5 0.000000 0.000000 0.000000 0.000000 0.088861 0.000000
# 6 0.007786 -0.007786 0.000000 0.000000 0.000000 0.074255
#
#
# Mechanical properties :
#
#
# Convention : Reuss Voigt Hill
#
# Bulk Modulus (GPa) = 29.61394 30.36375 29.98884
# Shear Modulus (GPa) = 13.51626 14.41256 13.96441
#
# Velocity S-wave (km/s) = 3.05304 3.15264 3.10324
# Velocity P-wave (km/s) = 5.73153 5.84736 5.78973
#
# Compressibility (1/GPa) = 0.03376788
#
# Stress axis : x y z
#
# Youngs Moduli (GPa) = 44.79599 44.79599 39.08889
#
# Poissons Ratio (x) = 0.35397 0.20188
# Poissons Ratio (y) = 0.35397 0.20188
# Poissons Ratio (z) = 0.23135 0.23135
#
# Static dielectric constant tensor:
#      x y z
#    x 2.862590 0.000000 0.000000 
#    y 0.000000 2.862590 0.000000 
#    z 0.000000 0.000000 2.484800 
# 
# 
# High freq. dielectric constant tensor:
#      x y z
#    x 1.552680 0.000000 0.000000 
#    y 0.000000 1.552680 0.000000 
#    z 0.000000 0.000000 1.503170 
# 
# From -- ./inp_files/6714.got.cif
#   From: 2010.03.12/outbox.cif.g09.slc.cpg/sg87_4_cif.got.tgz:6714.got - 2010.04.08 20:16:13.
