data_PCOD8303727
_publ_section_title
;
Structure prediction by ZEFSAII (Michael W. Deem and Ramdas Pophale) SiO2 
 PCOD8303727
Probable space group: I 4/M
;
_chemical_formula_sum "Si O2"
_cell_formula_units_Z 104
_cell_length_a 15.310019
_cell_length_b 15.310019
_cell_length_c 26.901997
_cell_angle_alpha 90.000000
_cell_angle_beta 90.000000
_cell_angle_gamma 90.000000
_cell_volume 6305.738830
_symmetry_space_group_name_H-M "I 4/M"
_symmetry_group_IT_number 87
_symmetry_cell_setting 'tetragonal'
loop_
_space_group_symop_operation_xyz
x,y,z
-y,x,z
-x,-y,z
y,-x,z
-x,-y,-z
y,-x,-z
x,y,-z
-y,x,-z
1/2+x,1/2+y,1/2+z
1/2-y,1/2+x,1/2+z
1/2-x,1/2-y,1/2+z
1/2+y,1/2-x,1/2+z
1/2-x,1/2-y,1/2-z
1/2+y,1/2-x,1/2-z
1/2+x,1/2+y,1/2-z
1/2-y,1/2+x,1/2-z
loop_
_atom_site_type_symbol
_atom_site_label
_atom_site_fract_x
_atom_site_fract_y
_atom_site_fract_z
Si Si1 0.128593 0.055914 0.730114
Si Si2 0.555029 0.632849 0.500000
Si Si3 0.221470 0.948885 0.102058
Si Si4 0.612810 0.131460 0.298710
Si Si5 0.309972 0.047617 0.694779
Si Si6 0.683257 0.614245 0.338005
Si Si7 0.038275 0.412837 0.128601
O O1 0.209827 0.081166 0.694575
O O2 0.148229 0.068702 0.788249
O O3 0.045343 0.113110 0.717353
O O4 0.453101 0.612895 0.500000
O O5 0.579929 0.687555 0.548539
O O6 0.195765 0.875045 0.143106
O O7 0.325723 0.961730 0.095620
O O8 0.179426 0.040364 0.119275
O O9 0.593498 0.145003 0.241319
O O10 0.647577 0.218386 0.326889
O O11 0.522961 0.098668 0.323298
O O12 0.687545 0.057915 0.301473
O O13 0.361104 0.075201 0.645196
O O14 0.000000 0.500000 0.100270
#
# Coordination Sequence:
#
# PCOD8303727 Si02
#       7
#    16   8  16  16  16  16  16
#     4  10  20  30  41  61  93 130 161 199 235 270
#     4  11  22  34  53  76 100 126 155 191 233 286
#     4  11  20  34  49  71  95 122 159 193 238 286
#     4   9  17  27  43  67  92 126 162 201 227 264
#     4  10  17  29  45  63  90 124 168 197 231 269
#     4  10  19  29  45  66  96 127 158 194 233 280
#     4   9  19  32  49  68  94 124 157 197 239 272
#
# _framework density 16.492913000000001
#
# number of rings (size 3 to 8) (size 9 to 14) (size 15 to 20)
#    0.000    2.077    4.615    0.000    0.000    1.538 
#    0.000    3.462    0.000    0.000    0.000    0.000 
#    0.000    0.000    0.000    0.000    0.000    5.077 
#
# Total GULP energy -644475.701895 kJ/mol
# GULP energy per Si atom -12393.763498 kJ/mol
# Density = 1.645537 g / cm^3
# Si number density = 16.492913 Si / 1000 Ang^3
#
#
#
# Elastic Constant Matrix: (Units=GPa)
#
#
# Indices 1 2 3 4 5 6 
#
# 1 73.7129 23.4541 15.1023 0.0000 0.0000 2.5120
# 2 23.4541 73.7129 15.1023 0.0000 0.0000 -2.5120
# 3 15.1023 15.1023 38.5841 0.0000 0.0000 0.0000
# 4 0.0000 0.0000 0.0000 12.4635 0.0000 0.0000
# 5 0.0000 0.0000 0.0000 0.0000 12.4635 0.0000
# 6 2.5120 -2.5120 0.0000 0.0000 0.0000 7.1891
#
#
#
# Elastic Compliance Matrix: (Units=1/GPa)
#
#
# Indices 1 2 3 4 5 6 
#
# 1 0.016167 -0.004450 -0.004586 0.000000 0.000000 -0.007204
# 2 -0.004450 0.016167 -0.004586 0.000000 0.000000 0.007204
# 3 -0.004586 -0.004586 0.029508 0.000000 0.000000 0.000000
# 4 0.000000 0.000000 0.000000 0.080234 0.000000 0.000000
# 5 0.000000 0.000000 0.000000 0.000000 0.080234 0.000000
# 6 -0.007204 0.007204 0.000000 0.000000 0.000000 0.144134
#
#
# Mechanical properties :
#
#
# Convention : Reuss Voigt Hill
#
# Bulk Modulus (GPa) = 28.90422 32.59193 30.74807
# Shear Modulus (GPa) = 12.33894 15.24665 13.79279
#
# Velocity S-wave (km/s) = 2.73817 3.04375 2.89500
# Velocity P-wave (km/s) = 5.24977 5.67068 5.46428
#
# Compressibility (1/GPa) = 0.03459703
#
# Stress axis : x y z
#
# Youngs Moduli (GPa) = 61.85373 61.85373 33.88950
#
# Poissons Ratio (x) = 0.27525 0.15543
# Poissons Ratio (y) = 0.27525 0.15543
# Poissons Ratio (z) = 0.28368 0.28368
#
# Static dielectric constant tensor:
#      x y z
#    x 3.191460 0.000000 0.000000 
#    y 0.000000 3.191460 0.000000 
#    z 0.000000 0.000000 2.617670 
# 
# 
# High freq. dielectric constant tensor:
#      x y z
#    x 1.637850 0.000000 0.000000 
#    y 0.000000 1.637850 0.000000 
#    z 0.000000 0.000000 1.577170 
# 
# From -- ./inp_files/5883.got.cif
#   From: 2010.03.12/outbox.cif.g09.slc.cpg/sg87_3_cif.got.tgz:5883.got - 2010.04.08 20:16:13.
