data_PCOD8303826
_publ_section_title
;
Structure prediction by ZEFSAII (Michael W. Deem and Ramdas Pophale) SiO2 
 PCOD8303826
Probable space group: I 4/M
;
_chemical_formula_sum "Si O2"
_cell_formula_units_Z 48
_cell_length_a 11.228144
_cell_length_b 11.228144
_cell_length_c 18.272894
_cell_angle_alpha 90.000000
_cell_angle_beta 90.000000
_cell_angle_gamma 90.000000
_cell_volume 2303.685997
_symmetry_space_group_name_H-M "I 4/M"
_symmetry_group_IT_number 87
_symmetry_cell_setting 'tetragonal'
loop_
_space_group_symop_operation_xyz
x,y,z
-y,x,z
-x,-y,z
y,-x,z
-x,-y,-z
y,-x,-z
x,y,-z
-y,x,-z
1/2+x,1/2+y,1/2+z
1/2-y,1/2+x,1/2+z
1/2-x,1/2-y,1/2+z
1/2+y,1/2-x,1/2+z
1/2-x,1/2-y,1/2-z
1/2+y,1/2-x,1/2-z
1/2+x,1/2+y,1/2-z
1/2-y,1/2+x,1/2-z
loop_
_atom_site_type_symbol
_atom_site_label
_atom_site_fract_x
_atom_site_fract_y
_atom_site_fract_z
Si Si1 0.066082 0.375074 0.419180
Si Si2 0.182038 0.471380 0.226884
Si Si3 0.319788 0.435583 0.639338
O O1 0.047010 0.319307 0.500000
O O2 0.010011 0.288261 0.356826
O O3 0.206168 0.392709 0.406233
O O4 0.000000 0.500000 0.412293
O O5 0.082993 0.368009 0.226237
O O6 0.296870 0.426700 0.272335
O O7 0.428624 0.350417 0.618144
#
# Coordination Sequence:
#
# PCOD8303826 Si02
#       3
#    16  16  16
#     4  10  19  34  54  77 109 145 182 222 268 324
#     4   9  15  32  53  77 102 138 181 224 263 311
#     4  10  21  35  56  83 110 142 177 226 282 325
#
# _framework density 20.836175000000001
#
# number of rings (size 3 to 8) (size 9 to 14) (size 15 to 20)
#    0.000    2.333    6.667    0.000    0.000    6.667 
#    0.000    1.667    0.000    0.000    0.000    2.333 
#    0.000    0.000    0.000    0.000    0.000    0.000 
#
# Total GULP energy -297394.053080 kJ/mol
# GULP energy per Si atom -12391.418878 kJ/mol
# Density = 2.078875 g / cm^3
# Si number density = 20.836175 Si / 1000 Ang^3
#
#
#
# Elastic Constant Matrix: (Units=GPa)
#
#
# Indices 1 2 3 4 5 6 
#
# 1 30.1484 -23.7352 1.3048 0.0000 0.0000 -2.5789
# 2 -23.7352 30.1484 1.3048 0.0000 0.0000 2.5789
# 3 1.3048 1.3048 163.2819 0.0000 0.0000 0.0000
# 4 0.0000 0.0000 0.0000 12.3412 0.0000 0.0000
# 5 0.0000 0.0000 0.0000 0.0000 12.3412 0.0000
# 6 -2.5789 2.5789 0.0000 0.0000 0.0000 5.8362
#
#
#
# Elastic Compliance Matrix: (Units=1/GPa)
#
#
# Indices 1 2 3 4 5 6 
#
# 1 0.087907 0.068529 -0.001250 0.000000 0.000000 0.008563
# 2 0.068529 0.087907 -0.001250 0.000000 0.000000 -0.008563
# 3 -0.001250 -0.001250 0.006144 0.000000 0.000000 0.000000
# 4 0.000000 0.000000 0.000000 0.081029 0.000000 0.000000
# 5 0.000000 0.000000 0.000000 0.000000 0.081029 0.000000
# 6 0.008563 -0.008563 0.000000 0.000000 0.000000 0.178913
#
#
# Mechanical properties :
#
#
# Convention : Reuss Voigt Hill
#
# Bulk Modulus (GPa) = 3.18454 20.14751 11.66602
# Shear Modulus (GPa) = 10.08991 22.41735 16.25363
#
# Velocity S-wave (km/s) = 2.20295 3.28363 2.79600
# Velocity P-wave (km/s) = 2.82885 4.90579 4.00432
#
# Compressibility (1/GPa) = 0.31401707
#
# Stress axis : x y z
#
# Youngs Moduli (GPa) = 11.37561 11.37561 162.75094
#
# Poissons Ratio (x) = -0.77956 0.20346
# Poissons Ratio (y) = -0.77956 0.20346
# Poissons Ratio (z) = 0.01422 0.01422
#
# Static dielectric constant tensor:
#      x y z
#    x 3.515460 0.000000 0.000000 
#    y 0.000000 3.515460 0.000000 
#    z 0.000000 0.000000 4.093090 
# 
# 
# High freq. dielectric constant tensor:
#      x y z
#    x 1.786230 0.000000 0.000000 
#    y 0.000000 1.786230 0.000000 
#    z 0.000000 0.000000 1.814700 
# 
# From -- ./inp_files/4063.got.cif
#   From: 2010.03.12/outbox.cif.g09.slc.cpg/sg87_3_cif.got.tgz:4063.got - 2010.04.08 20:16:13.
