data_PCOD8303843
_publ_section_title
;
Structure prediction by ZEFSAII (Michael W. Deem and Ramdas Pophale) SiO2 
 PCOD8303843
Probable space group: I 4/M
;
_chemical_formula_sum "Si O2"
_cell_formula_units_Z 116
_cell_length_a 17.769275
_cell_length_b 17.769275
_cell_length_c 17.150382
_cell_angle_alpha 90.000000
_cell_angle_beta 90.000000
_cell_angle_gamma 90.000000
_cell_volume 5415.183964
_symmetry_space_group_name_H-M "I 4/M"
_symmetry_group_IT_number 87
_symmetry_cell_setting 'tetragonal'
loop_
_space_group_symop_operation_xyz
x,y,z
-y,x,z
-x,-y,z
y,-x,z
-x,-y,-z
y,-x,-z
x,y,-z
-y,x,-z
1/2+x,1/2+y,1/2+z
1/2-y,1/2+x,1/2+z
1/2-x,1/2-y,1/2+z
1/2+y,1/2-x,1/2+z
1/2-x,1/2-y,1/2-z
1/2+y,1/2-x,1/2-z
1/2+x,1/2+y,1/2-z
1/2-y,1/2+x,1/2-z
loop_
_atom_site_type_symbol
_atom_site_label
_atom_site_fract_x
_atom_site_fract_y
_atom_site_fract_z
Si Si1 0.854685 0.572312 0.676105
Si Si2 0.000000 0.000000 0.744293
Si Si3 0.098401 0.355160 0.174942
Si Si4 0.997344 0.629680 0.589816
Si Si5 0.699893 0.517424 0.908965
Si Si6 0.064148 0.796696 0.090948
Si Si7 0.188872 0.902373 0.157003
Si Si8 0.615410 0.396907 0.816029
O O1 0.848340 0.625070 0.752060
O O2 0.849131 0.486952 0.706327
O O3 0.785310 0.591207 0.619152
O O4 0.934387 0.582519 0.634422
O O5 0.963297 0.081837 0.727088
O O6 0.101816 0.418574 0.108942
O O7 0.121173 0.274700 0.137128
O O8 0.983075 0.614300 0.500000
O O9 0.989617 0.716881 0.611877
O O10 0.642631 0.451536 0.885155
O O11 0.681261 0.593835 0.860265
O O12 0.691297 0.535226 0.000000
O O13 0.130909 0.855711 0.104553
O O14 0.990271 0.826271 0.136709
O O15 0.044634 0.793039 0.000000
O O16 0.177887 0.885679 0.248830
#
# Coordination Sequence:
#
# PCOD8303843 Si02
#       8
#    16   4  16  16  16  16  16  16
#     4  11  23  42  70  98 126 170 217 275 333 390
#     4   8  16  28  53  84 113 144 196 250 300 360
#     4  11  24  41  67  96 130 165 222 275 328 396
#     4  11  24  41  63  94 131 169 215 271 333 393
#     4  10  21  37  59  90 131 169 211 266 326 395
#     4  11  25  45  68  97 136 174 223 272 331 394
#     4  11  25  42  68  97 130 178 219 277 326 385
#     4  10  19  35  60  90 123 164 213 260 317 389
#
# _framework density 21.421247999999999
#
# number of rings (size 3 to 8) (size 9 to 14) (size 15 to 20)
#    0.000    1.379    1.379    4.138    3.862    4.690 
#    2.483    2.759    0.000    0.000    0.000    0.000 
#    0.000    0.000    0.000    0.000    0.000    0.000 
#
# Total GULP energy -718520.201439 kJ/mol
# GULP energy per Si atom -12388.279335 kJ/mol
# Density = 2.137249 g / cm^3
# Si number density = 21.421248 Si / 1000 Ang^3
#
#
#
# Elastic Constant Matrix: (Units=GPa)
#
#
# Indices 1 2 3 4 5 6 
#
# 1 71.2764 19.4539 31.6039 0.0000 0.0000 3.9583
# 2 19.4539 71.2764 31.6039 0.0000 0.0000 -3.9583
# 3 31.6039 31.6039 87.5608 0.0000 0.0000 0.0000
# 4 0.0000 0.0000 0.0000 32.5580 0.0000 0.0000
# 5 0.0000 0.0000 0.0000 0.0000 32.5580 0.0000
# 6 3.9583 -3.9583 0.0000 0.0000 0.0000 26.6428
#
#
#
# Elastic Compliance Matrix: (Units=1/GPa)
#
#
# Indices 1 2 3 4 5 6 
#
# 1 0.017234 -0.002510 -0.005314 0.000000 0.000000 -0.002933
# 2 -0.002510 0.017234 -0.005314 0.000000 0.000000 0.002933
# 3 -0.005314 -0.005314 0.015257 0.000000 0.000000 0.000000
# 4 0.000000 0.000000 0.000000 0.030714 0.000000 0.000000
# 5 0.000000 0.000000 0.000000 0.000000 0.030714 0.000000
# 6 -0.002933 0.002933 0.000000 0.000000 0.000000 0.038405
#
#
# Mechanical properties :
#
#
# Convention : Reuss Voigt Hill
#
# Bulk Modulus (GPa) = 42.64890 43.93744 43.29317
# Shear Modulus (GPa) = 27.22508 28.18188 27.70348
#
# Velocity S-wave (km/s) = 3.56889 3.63106 3.60011
# Velocity P-wave (km/s) = 6.07746 6.17537 6.12661
#
# Compressibility (1/GPa) = 0.02344726
#
# Stress axis : x y z
#
# Youngs Moduli (GPa) = 58.02351 58.02351 65.54370
#
# Poissons Ratio (x) = 0.14566 0.34833
# Poissons Ratio (y) = 0.14566 0.34833
# Poissons Ratio (z) = 0.30836 0.30836
#
# Static dielectric constant tensor:
#      x y z
#    x 3.971780 0.000000 0.000000 
#    y 0.000000 3.971780 0.000000 
#    z 0.000000 0.000000 3.750850 
# 
# 
# High freq. dielectric constant tensor:
#      x y z
#    x 1.844520 0.000000 0.000000 
#    y 0.000000 1.844520 0.000000 
#    z 0.000000 0.000000 1.832790 
# 
# From -- ./inp_files/4590.got.cif
#   From: 2010.03.12/outbox.cif.g09.slc.cpg/sg87_3_cif.got.tgz:4590.got - 2010.04.08 20:16:13.
