data_PCOD8303845
_publ_section_title
;
Structure prediction by ZEFSAII (Michael W. Deem and Ramdas Pophale) SiO2 
 PCOD8303845
Probable space group: I 4/M
;
_chemical_formula_sum "Si O2"
_cell_formula_units_Z 80
_cell_length_a 12.001558
_cell_length_b 12.001558
_cell_length_c 27.774608
_cell_angle_alpha 90.000000
_cell_angle_beta 90.000000
_cell_angle_gamma 90.000000
_cell_volume 4000.582168
_symmetry_space_group_name_H-M "I 4/M"
_symmetry_group_IT_number 87
_symmetry_cell_setting 'tetragonal'
loop_
_space_group_symop_operation_xyz
x,y,z
-y,x,z
-x,-y,z
y,-x,z
-x,-y,-z
y,-x,-z
x,y,-z
-y,x,-z
1/2+x,1/2+y,1/2+z
1/2-y,1/2+x,1/2+z
1/2-x,1/2-y,1/2+z
1/2+y,1/2-x,1/2+z
1/2-x,1/2-y,1/2-z
1/2+y,1/2-x,1/2-z
1/2+x,1/2+y,1/2-z
1/2-y,1/2+x,1/2-z
loop_
_atom_site_type_symbol
_atom_site_label
_atom_site_fract_x
_atom_site_fract_y
_atom_site_fract_z
Si Si1 0.088697 0.403153 0.946965
Si Si2 0.983652 0.669616 0.849369
Si Si3 0.529414 0.678093 0.265251
Si Si4 0.819463 0.979622 0.410736
Si Si5 0.676160 0.021463 0.323275
O O1 0.060580 0.314718 0.904555
O O2 0.210379 0.458787 0.942943
O O3 0.000000 0.500000 0.939578
O O4 0.077296 0.347714 0.000000
O O5 0.967917 0.785144 0.821222
O O6 0.908680 0.580329 0.821494
O O7 0.112711 0.628799 0.846387
O O8 0.409073 0.626266 0.254792
O O9 0.548597 0.783498 0.230503
O O10 0.783635 0.986643 0.354886
O O11 0.878557 0.096782 0.422491
#
# Coordination Sequence:
#
# PCOD8303845 Si02
#       5
#    16  16  16  16  16
#     4  10  20  40  62  82 112 153 199 243 286 349
#     4  10  20  37  57  85 111 149 196 247 287 342
#     4  11  24  37  53  81 118 156 193 237 290 350
#     4  10  20  34  58  93 129 156 186 239 306 363
#     4  10  19  36  57  86 116 154 191 233 284 354
#
# _framework density 19.997088999999999
#
# number of rings (size 3 to 8) (size 9 to 14) (size 15 to 20)
#    0.000    1.800    4.000    2.400    0.000   10.400 
#    0.000    1.000    0.000    0.000    0.000    1.400 
#    0.000    0.000    0.000    0.000    0.000    0.000 
#
# Total GULP energy -495841.710341 kJ/mol
# GULP energy per Si atom -12396.042759 kJ/mol
# Density = 1.995157 g / cm^3
# Si number density = 19.997089 Si / 1000 Ang^3
#
#
#
# Elastic Constant Matrix: (Units=GPa)
#
#
# Indices 1 2 3 4 5 6 
#
# 1 88.9271 22.6468 35.2250 0.0000 0.0000 -1.9391
# 2 22.6468 88.9271 35.2250 0.0000 0.0000 1.9391
# 3 35.2250 35.2250 151.7312 0.0000 0.0000 0.0000
# 4 0.0000 0.0000 0.0000 14.3925 0.0000 0.0000
# 5 0.0000 0.0000 0.0000 0.0000 14.3925 0.0000
# 6 -1.9391 1.9391 0.0000 0.0000 0.0000 1.2644
#
#
#
# Elastic Compliance Matrix: (Units=1/GPa)
#
#
# Indices 1 2 3 4 5 6 
#
# 1 0.013538 -0.003036 -0.002438 0.000000 0.000000 0.025419
# 2 -0.003036 0.013538 -0.002438 0.000000 0.000000 -0.025419
# 3 -0.002438 -0.002438 0.007723 0.000000 0.000000 0.000000
# 4 0.000000 0.000000 0.000000 0.069481 0.000000 0.000000
# 5 0.000000 0.000000 0.000000 0.000000 0.069481 0.000000
# 6 0.025419 -0.025419 0.000000 0.000000 0.000000 0.868832
#
#
# Mechanical properties :
#
#
# Convention : Reuss Voigt Hill
#
# Bulk Modulus (GPa) = 52.70241 57.30878 55.00559
# Shear Modulus (GPa) = 4.69597 21.77578 13.23588
#
# Velocity S-wave (km/s) = 1.53409 3.30350 2.57551
# Velocity P-wave (km/s) = 5.43601 6.57812 6.03414
#
# Compressibility (1/GPa) = 0.01897447
#
# Stress axis : x y z
#
# Youngs Moduli (GPa) = 73.86369 73.86369 129.48947
#
# Poissons Ratio (x) = 0.22427 0.31571
# Poissons Ratio (y) = 0.22427 0.31571
# Poissons Ratio (z) = 0.18009 0.18009
#
# Static dielectric constant tensor:
#      x y z
#    x 3.561320 0.000000 0.000000 
#    y 0.000000 3.561320 0.000000 
#    z 0.000000 0.000000 3.714060 
# 
# 
# High freq. dielectric constant tensor:
#      x y z
#    x 1.766570 0.000000 0.000000 
#    y 0.000000 1.766570 0.000000 
#    z 0.000000 0.000000 1.779290 
# 
# From -- ./inp_files/6489.got.cif
#   From: 2010.03.12/outbox.cif.g09.slc.cpg/sg87_4_cif.got.tgz:6489.got - 2010.04.08 20:16:13.
