data_PCOD8303035
_publ_section_title
;
Structure prediction by ZEFSAII (Michael W. Deem and Ramdas Pophale) SiO2 
 PCOD8303035
Probable space group: P 4/M
;
_chemical_formula_sum "Si O2"
_cell_formula_units_Z 36
_cell_length_a 10.749670
_cell_length_b 10.749670
_cell_length_c 17.197359
_cell_angle_alpha 90.000000
_cell_angle_beta 90.000000
_cell_angle_gamma 90.000000
_cell_volume 1987.247786
_symmetry_space_group_name_H-M "P 4/M"
_symmetry_group_IT_number 83
_symmetry_cell_setting 'tetragonal'
loop_
_space_group_symop_operation_xyz
x,y,z
-y,x,z
-x,-y,z
y,-x,z
-x,-y,-z
y,-x,-z
x,y,-z
-y,x,-z
loop_
_atom_site_type_symbol
_atom_site_label
_atom_site_fract_x
_atom_site_fract_y
_atom_site_fract_z
Si Si1 0.307340 0.577140 0.668454
Si Si2 0.701705 0.520945 0.088056
Si Si3 0.951524 0.198873 0.088569
Si Si4 0.576184 0.689332 0.500000
Si Si5 0.884497 0.424155 0.200257
O O1 0.341252 0.431798 0.679386
O O2 0.243877 0.602974 0.582919
O O3 0.205497 0.620015 0.730646
O O4 0.609683 0.633792 0.105413
O O5 0.818373 0.526298 0.144773
O O6 0.748905 0.527478 0.000000
O O7 0.925196 0.306208 0.150093
O O8 0.089972 0.148198 0.102221
O O9 0.938061 0.249325 0.000000
O O10 0.432715 0.657882 0.500000
O O11 0.000000 0.500000 0.236231
#
# Coordination Sequence:
#
# PCOD8303035 Si02
#       5
#     8   8   8   4   8
#     4   9  18  34  57  81 109 137 163 204 260 317
#     4   9  19  35  52  70  97 133 167 209 270 323
#     4   9  21  41  57  67  90 138 189 226 256 287
#     4   7  12  28  55  82 102 133 170 194 240 319
#     4  12  24  31  48  81 107 131 168 215 260 306
#
# _framework density 18.115504999999999
#
# number of rings (size 3 to 8) (size 9 to 14) (size 15 to 20)
#    0.000    2.556    0.000    4.667    6.222    3.556 
#    0.000    0.556    0.000    0.000    0.000    0.000 
#    0.000    1.778    0.000    0.000    0.000    0.000 
#
# Total GULP energy -446114.451208 kJ/mol
# GULP energy per Si atom -12392.068089 kJ/mol
# Density = 1.807427 g / cm^3
# Si number density = 18.115505 Si / 1000 Ang^3
#
#
#
# Elastic Constant Matrix: (Units=GPa)
#
#
# Indices 1 2 3 4 5 6 
#
# 1 59.8531 12.8298 40.2251 0.0000 0.0000 2.9672
# 2 12.8298 59.8531 40.2251 0.0000 0.0000 -2.9672
# 3 40.2251 40.2251 118.5626 0.0000 0.0000 0.0000
# 4 0.0000 0.0000 0.0000 12.5263 0.0000 0.0000
# 5 0.0000 0.0000 0.0000 0.0000 12.5263 0.0000
# 6 2.9672 -2.9672 0.0000 0.0000 0.0000 13.2111
#
#
#
# Elastic Compliance Matrix: (Units=1/GPa)
#
#
# Indices 1 2 3 4 5 6 
#
# 1 0.021959 0.000073 -0.007475 0.000000 0.000000 -0.004916
# 2 0.000073 0.021959 -0.007475 0.000000 0.000000 0.004916
# 3 -0.007475 -0.007475 0.013506 0.000000 0.000000 0.000000
# 4 0.000000 0.000000 0.000000 0.079832 0.000000 0.000000
# 5 0.000000 0.000000 0.000000 0.000000 0.079832 0.000000
# 6 -0.004916 0.004916 0.000000 0.000000 0.000000 0.077902
#
#
# Mechanical properties :
#
#
# Convention : Reuss Voigt Hill
#
# Bulk Modulus (GPa) = 36.13891 47.20321 41.67106
# Shear Modulus (GPa) = 14.97146 17.31866 16.14506
#
# Velocity S-wave (km/s) = 2.87791 3.09530 2.98858
# Velocity P-wave (km/s) = 5.57097 6.23601 5.91285
#
# Compressibility (1/GPa) = 0.02767100
#
# Stress axis : x y z
#
# Youngs Moduli (GPa) = 45.53893 45.53893 74.03890
#
# Poissons Ratio (x) = -0.00332 0.55343
# Poissons Ratio (y) = -0.00332 0.55343
# Poissons Ratio (z) = 0.34040 0.34040
#
# Static dielectric constant tensor:
#      x y z
#    x 3.170240 0.000000 0.000000 
#    y 0.000000 3.170240 0.000000 
#    z 0.000000 0.000000 3.639800 
# 
# 
# High freq. dielectric constant tensor:
#      x y z
#    x 1.680770 0.000000 0.000000 
#    y 0.000000 1.680770 0.000000 
#    z 0.000000 0.000000 1.703130 
# 
# From -- ./inp_files/2568.got.cif
#   From: 2010.03.12/outbox.cif.g09.slc.cpg/sg83_2_cif.got.tgz:2568.got - 2010.04.08 20:05:18.
