data_PCOD8303689
_publ_section_title
;
Structure prediction by ZEFSAII (Michael W. Deem and Ramdas Pophale) SiO2 
 PCOD8303689
Probable space group: P 42/N
;
_chemical_formula_sum "Si O2"
_cell_formula_units_Z 34
_cell_length_a 13.151950
_cell_length_b 13.151950
_cell_length_c 9.264059
_cell_angle_alpha 90.000000
_cell_angle_beta 90.000000
_cell_angle_gamma 90.000000
_cell_volume 1602.439385
_symmetry_space_group_name_H-M "P 42/N"
_symmetry_group_IT_number 86
_space_group.IT_coordinate_system_code '2'
_symmetry_cell_setting 'tetragonal'
loop_
_space_group_symop_operation_xyz
x,y,z
-y,1/2+x,1/2+z
1/2-x,1/2-y,z
1/2+y,-x,1/2+z
-x,-y,-z
y,1/2-x,1/2-z
1/2+x,1/2+y,-z
1/2-y,x,1/2-z
loop_
_atom_site_type_symbol
_atom_site_label
_atom_site_fract_x
_atom_site_fract_y
_atom_site_fract_z
Si Si1 0.250000 0.250000 0.250000
Si Si2 0.632505 0.271009 0.386544
Si Si3 0.930105 0.062445 0.603212
Si Si4 0.543919 0.404641 0.917140
Si Si5 0.530798 0.730048 0.848249
O O1 0.295666 0.150909 0.331406
O O2 0.750000 0.250000 0.333049
O O3 0.628921 0.345962 0.523492
O O4 0.588363 0.164402 0.438343
O O5 0.553687 0.316232 0.265156
O O6 0.987620 0.101648 0.747436
O O7 0.850744 0.979627 0.660537
O O8 0.000000 0.000000 0.500000
O O9 0.500000 0.500000 0.000000
O O10 0.498267 0.304726 0.990981
#
# Coordination Sequence:
#
# PCOD8303689 Si02
#       5
#     2   8   8   8   8
#     4  12  24  48  68  94 152 192 240 282 372 436
#     4  11  23  42  70 100 140 175 237 303 357 425
#     4  11  24  42  65 101 140 181 232 293 355 424
#     4  11  24  39  64  99 136 179 234 285 355 420
#     4  11  24  42  69  98 131 194 230 290 356 424
#
# _framework density 21.217649000000002
#
# number of rings (size 3 to 8) (size 9 to 14) (size 15 to 20)
#    0.000    0.941    2.353    5.647    6.588    1.882 
#    0.000    0.000    0.000    1.412    0.000    0.000 
#    0.000    0.000    0.000    0.000    0.000    0.000 
#
# Total GULP energy -421215.714624 kJ/mol
# GULP energy per Si atom -12388.697489 kJ/mol
# Density = 2.116936 g / cm^3
# Si number density = 21.217649 Si / 1000 Ang^3
#
#
#
# Elastic Constant Matrix: (Units=GPa)
#
#
# Indices 1 2 3 4 5 6 
#
# 1 109.7843 21.6112 52.5339 0.0000 0.0000 -5.0392
# 2 21.6112 109.7843 52.5339 0.0000 0.0000 5.0392
# 3 52.5339 52.5339 152.8916 0.0000 0.0000 0.0000
# 4 0.0000 0.0000 0.0000 38.1605 0.0000 0.0000
# 5 0.0000 0.0000 0.0000 0.0000 38.1605 0.0000
# 6 -5.0392 5.0392 0.0000 0.0000 0.0000 34.3847
#
#
#
# Elastic Compliance Matrix: (Units=1/GPa)
#
#
# Indices 1 2 3 4 5 6 
#
# 1 0.011014 -0.000520 -0.003606 0.000000 0.000000 0.001690
# 2 -0.000520 0.011014 -0.003606 0.000000 0.000000 -0.001690
# 3 -0.003606 -0.003606 0.009018 0.000000 0.000000 0.000000
# 4 0.000000 0.000000 0.000000 0.026205 0.000000 0.000000
# 5 0.000000 0.000000 0.000000 0.000000 0.026205 0.000000
# 6 0.001690 -0.001690 0.000000 0.000000 0.000000 0.029578
#
#
# Mechanical properties :
#
#
# Convention : Reuss Voigt Hill
#
# Bulk Modulus (GPa) = 64.17125 69.53532 66.85329
# Shear Modulus (GPa) = 37.39905 38.52655 37.96280
#
# Velocity S-wave (km/s) = 4.20293 4.26582 4.23449
# Velocity P-wave (km/s) = 7.33913 7.55688 7.44880
#
# Compressibility (1/GPa) = 0.01558330
#
# Stress axis : x y z
#
# Youngs Moduli (GPa) = 90.79194 90.79194 110.88398
#
# Poissons Ratio (x) = 0.04724 0.39981
# Poissons Ratio (y) = 0.04724 0.39981
# Poissons Ratio (z) = 0.32737 0.32737
#
# Static dielectric constant tensor:
#      x y z
#    x 5.097540 0.000000 0.000000 
#    y 0.000000 5.097540 0.000000 
#    z 0.000000 0.000000 4.775720 
# 
# 
# High freq. dielectric constant tensor:
#      x y z
#    x 1.835920 0.000000 0.000000 
#    y 0.000000 1.835920 0.000000 
#    z 0.000000 0.000000 1.829890 
# 
# From -- ./inp_files/971.got.cif
#   From: 2010.03.12/outbox.cif.g09.slc.cpg/sg86_1_cif.got.tgz:971.got - 2010.04.08 20:12:58.
