data_PCOD8303600
_publ_section_title
;
Structure prediction by ZEFSAII (Michael W. Deem and Ramdas Pophale) SiO2 
 PCOD8303600
Probable space group: P 42/N
;
_chemical_formula_sum "Si O2"
_cell_formula_units_Z 48
_cell_length_a 12.793209
_cell_length_b 12.793209
_cell_length_c 13.091913
_cell_angle_alpha 90.000000
_cell_angle_beta 90.000000
_cell_angle_gamma 90.000000
_cell_volume 2142.703606
_symmetry_space_group_name_H-M "P 42/N"
_symmetry_group_IT_number 86
_space_group.IT_coordinate_system_code '2'
_symmetry_cell_setting 'tetragonal'
loop_
_space_group_symop_operation_xyz
x,y,z
-y,1/2+x,1/2+z
1/2-x,1/2-y,z
1/2+y,-x,1/2+z
-x,-y,-z
y,1/2-x,1/2-z
1/2+x,1/2+y,-z
1/2-y,x,1/2-z
loop_
_atom_site_type_symbol
_atom_site_label
_atom_site_fract_x
_atom_site_fract_y
_atom_site_fract_z
Si Si1 0.833465 0.988892 0.776624
Si Si2 0.801442 0.908880 0.243004
Si Si3 0.756681 0.127016 0.610652
Si Si4 0.630900 0.930253 0.891745
Si Si5 0.504294 0.131152 0.935514
Si Si6 0.473894 0.956538 0.390916
O O1 0.751018 0.962608 0.867777
O O2 0.838744 0.898869 0.689324
O O3 0.949987 0.000363 0.815695
O O4 0.806500 0.097800 0.720241
O O5 0.872142 0.813720 0.285752
O O6 0.791573 0.986799 0.340051
O O7 0.854064 0.961001 0.143169
O O8 0.750000 0.250000 0.601740
O O9 0.824381 0.088719 0.514624
O O10 0.646721 0.070326 0.608954
O O11 0.551024 0.027566 0.882463
O O12 0.607892 0.887088 0.006239
O O13 0.500000 0.000000 0.500000
#
# Coordination Sequence:
#
# PCOD8303600 Si02
#       6
#     8   8   8   8   8   8
#     4  11  22  46  67 105 138 183 232 294 351 428
#     4  11  25  45  68  96 138 187 233 291 365 433
#     4  11  26  46  73 108 141 188 240 290 370 431
#     4  10  22  41  71  96 138 181 233 290 361 419
#     4  10  22  45  67  99 137 186 232 289 361 437
#     4  12  27  45  69 106 144 181 241 303 352 434
#
# _framework density 22.401605
#
# number of rings (size 3 to 8) (size 9 to 14) (size 15 to 20)
#    0.000    1.167    3.333    1.000    7.000    0.333 
#    3.000    0.000    0.000    0.000    0.000    0.000 
#    0.000    0.000    0.000    0.000    0.000    0.000 
#
# Total GULP energy -594951.281135 kJ/mol
# GULP energy per Si atom -12394.818357 kJ/mol
# Density = 2.235062 g / cm^3
# Si number density = 22.401605 Si / 1000 Ang^3
#
#
#
# Elastic Constant Matrix: (Units=GPa)
#
#
# Indices 1 2 3 4 5 6 
#
# 1 88.5743 22.9183 38.1386 0.0000 0.0000 -0.1015
# 2 22.9183 88.5743 38.1386 0.0000 0.0000 0.1015
# 3 38.1386 38.1386 104.6889 0.0000 0.0000 0.0000
# 4 0.0000 0.0000 0.0000 51.8997 0.0000 0.0000
# 5 0.0000 0.0000 0.0000 0.0000 51.8997 0.0000
# 6 -0.1015 0.1015 0.0000 0.0000 0.0000 25.4171
#
#
#
# Elastic Compliance Matrix: (Units=1/GPa)
#
#
# Indices 1 2 3 4 5 6 
#
# 1 0.013589 -0.001642 -0.004352 0.000000 0.000000 0.000061
# 2 -0.001642 0.013589 -0.004352 0.000000 0.000000 -0.000061
# 3 -0.004352 -0.004352 0.012723 0.000000 0.000000 0.000000
# 4 0.000000 0.000000 0.000000 0.019268 0.000000 0.000000
# 5 0.000000 0.000000 0.000000 0.000000 0.019268 0.000000
# 6 0.000061 -0.000061 0.000000 0.000000 0.000000 0.039344
#
#
# Mechanical properties :
#
#
# Convention : Reuss Voigt Hill
#
# Bulk Modulus (GPa) = 52.06242 53.35875 52.71058
# Shear Modulus (GPa) = 34.51204 38.01944 36.26574
#
# Velocity S-wave (km/s) = 3.92931 4.12415 4.02791
# Velocity P-wave (km/s) = 6.62397 6.82268 6.72406
#
# Compressibility (1/GPa) = 0.01920771
#
# Stress axis : x y z
#
# Youngs Moduli (GPa) = 73.58927 73.58927 78.59652
#
# Poissons Ratio (x) = 0.12084 0.34207
# Poissons Ratio (y) = 0.12084 0.34207
# Poissons Ratio (z) = 0.32028 0.32028
#
# Static dielectric constant tensor:
#      x y z
#    x 4.733550 0.000000 0.000000 
#    y 0.000000 4.733550 0.000000 
#    z 0.000000 0.000000 4.552400 
# 
# 
# High freq. dielectric constant tensor:
#      x y z
#    x 1.878350 0.000000 0.000000 
#    y 0.000000 1.878350 0.000000 
#    z 0.000000 0.000000 1.894650 
# 
# From -- ./inp_files/2283.got.cif
#   From: 2010.03.12/outbox.cif.g09.slc.cpg/sg86_2_cif.got.tgz:2283.got - 2010.04.08 20:12:58.
