data_PCOD8303364
_publ_section_title
;
Structure prediction by ZEFSAII (Michael W. Deem and Ramdas Pophale) SiO2 
 PCOD8303364
Probable space group: P 42/M
;
_chemical_formula_sum "Si O2"
_cell_formula_units_Z 40
_cell_length_a 9.918062
_cell_length_b 9.918062
_cell_length_c 24.187341
_cell_angle_alpha 90.000000
_cell_angle_beta 90.000000
_cell_angle_gamma 90.000000
_cell_volume 2379.259243
_symmetry_space_group_name_H-M "P 42/M"
_symmetry_group_IT_number 84
_symmetry_cell_setting 'tetragonal'
loop_
_space_group_symop_operation_xyz
x,y,z
-y,x,1/2+z
-x,-y,z
y,-x,1/2+z
-x,-y,-z
y,-x,1/2-z
x,y,-z
-y,x,1/2-z
loop_
_atom_site_type_symbol
_atom_site_label
_atom_site_fract_x
_atom_site_fract_y
_atom_site_fract_z
Si Si1 0.925244 0.289013 0.380683
Si Si2 0.796813 0.577558 0.500000
Si Si3 0.212531 0.431657 0.380636
Si Si4 0.137836 0.852920 0.727821
Si Si5 0.061645 0.708541 0.500000
Si Si6 0.634433 0.343063 0.229752
O O1 0.825670 0.413549 0.368399
O O2 0.899801 0.173182 0.335973
O O3 0.893186 0.223693 0.441720
O O4 0.078838 0.340203 0.377719
O O5 0.715764 0.582844 0.441620
O O6 0.883390 0.442348 0.500000
O O7 0.899594 0.702954 0.500000
O O8 0.320570 0.384166 0.335677
O O9 0.259550 0.760644 0.746318
O O10 0.009003 0.820418 0.766554
O O11 0.495370 0.315821 0.262285
#
# Coordination Sequence:
#
# PCOD8303364 Si02
#       6
#     8   4   8   8   4   8
#     4   9  15  28  50  74 103 132 169 212 257 303
#     4   7  12  22  44  75  97 126 166 211 254 297
#     4   9  15  28  50  74 103 132 169 212 257 303
#     4  11  22  34  51  75 105 139 171 210 255 304
#     4   7  12  22  44  75  97 126 166 211 254 297
#     4  11  22  34  51  75 105 139 171 210 255 304
#
# _framework density 16.811955999999999
#
# number of rings (size 3 to 8) (size 9 to 14) (size 15 to 20)
#    0.000    2.600    4.000    2.400    0.000    0.800 
#    0.000    0.000    0.000    7.200    0.000    0.000 
#    0.000    3.200    0.000    0.000    0.000    0.000 
#
# Total GULP energy -495530.916146 kJ/mol
# GULP energy per Si atom -12388.272904 kJ/mol
# Density = 1.677369 g / cm^3
# Si number density = 16.811956 Si / 1000 Ang^3
#
#
#
# Elastic Constant Matrix: (Units=GPa)
#
#
# Indices 1 2 3 4 5 6 
#
# 1 57.7315 23.5827 33.6715 0.0000 0.0000 -7.9504
# 2 23.5827 57.7315 33.6715 0.0000 0.0000 7.9504
# 3 33.6715 33.6715 180.0115 0.0000 0.0000 0.0000
# 4 0.0000 0.0000 0.0000 22.6321 0.0000 0.0000
# 5 0.0000 0.0000 0.0000 0.0000 22.6321 0.0000
# 6 -7.9504 7.9504 0.0000 0.0000 0.0000 21.5537
#
#
#
# Elastic Compliance Matrix: (Units=1/GPa)
#
#
# Indices 1 2 3 4 5 6 
#
# 1 0.024954 -0.010402 -0.002722 0.000000 0.000000 0.013042
# 2 -0.010402 0.024954 -0.002722 0.000000 0.000000 -0.013042
# 3 -0.002722 -0.002722 0.006574 0.000000 0.000000 0.000000
# 4 0.000000 0.000000 0.000000 0.044185 0.000000 0.000000
# 5 0.000000 0.000000 0.000000 0.000000 0.044185 0.000000
# 6 0.013042 -0.013042 0.000000 0.000000 0.000000 0.056017
#
#
# Mechanical properties :
#
#
# Convention : Reuss Voigt Hill
#
# Bulk Modulus (GPa) = 40.33881 53.03620 46.68751
# Shear Modulus (GPa) = 20.76199 27.00015 23.88107
#
# Velocity S-wave (km/s) = 3.51800 4.01185 3.77302
# Velocity P-wave (km/s) = 6.36773 7.28527 6.84190
#
# Compressibility (1/GPa) = 0.02479002
#
# Stress axis : x y z
#
# Youngs Moduli (GPa) = 40.07327 40.07327 152.12534
#
# Poissons Ratio (x) = 0.41684 0.41409
# Poissons Ratio (y) = 0.41684 0.41409
# Poissons Ratio (z) = 0.10908 0.10908
#
# Static dielectric constant tensor:
#      x y z
#    x 2.889490 0.000000 0.000000 
#    y 0.000000 2.889490 0.000000 
#    z 0.000000 0.000000 3.701390 
# 
# 
# High freq. dielectric constant tensor:
#      x y z
#    x 1.613140 0.000000 0.000000 
#    y 0.000000 1.613140 0.000000 
#    z 0.000000 0.000000 1.671260 
# 
# From -- ./inp_files/5367.got.cif
#   From: 2010.03.12/outbox.cif.g09.slc.cpg/sg84_3_cif.got.tgz:5367.got - 2010.04.08 20:07:29.
