data_PCOD8303178
_publ_section_title
;
Structure prediction by ZEFSAII (Michael W. Deem and Ramdas Pophale) SiO2 
 PCOD8303178
Probable space group: P 42/M
;
_chemical_formula_sum "Si O2"
_cell_formula_units_Z 64
_cell_length_a 21.262563
_cell_length_b 21.262563
_cell_length_c 9.093436
_cell_angle_alpha 90.000000
_cell_angle_beta 90.000000
_cell_angle_gamma 90.000000
_cell_volume 4111.111365
_symmetry_space_group_name_H-M "P 42/M"
_symmetry_group_IT_number 84
_symmetry_cell_setting 'tetragonal'
loop_
_space_group_symop_operation_xyz
x,y,z
-y,x,1/2+z
-x,-y,z
y,-x,1/2+z
-x,-y,-z
y,-x,1/2-z
x,y,-z
-y,x,1/2-z
loop_
_atom_site_type_symbol
_atom_site_label
_atom_site_fract_x
_atom_site_fract_y
_atom_site_fract_z
Si Si1 0.333317 0.564135 0.330574
Si Si2 0.350836 0.247892 0.337380
Si Si3 0.162860 0.938062 0.332653
Si Si4 0.435938 0.670185 0.670823
Si Si5 0.828301 0.934970 0.171257
Si Si6 0.836201 0.741782 0.830559
Si Si7 0.157786 0.751310 0.828007
Si Si8 0.240665 0.349638 0.665671
O O1 0.326669 0.545875 0.500000
O O2 0.267602 0.595900 0.278912
O O3 0.348724 0.502553 0.237978
O O4 0.390085 0.611744 0.300513
O O5 0.381280 0.250391 0.500000
O O6 0.322189 0.178108 0.305824
O O7 0.292273 0.295154 0.329918
O O8 0.154612 0.961811 0.500000
O O9 0.108586 0.888161 0.293703
O O10 0.232635 0.907418 0.313175
O O11 0.155137 0.994847 0.220093
O O12 0.443330 0.684856 0.500000
O O13 0.410250 0.733237 0.748316
O O14 0.767072 0.911489 0.264771
O O15 0.811060 0.933773 0.000000
O O16 0.792535 0.796362 0.769983
O O17 0.822979 0.676859 0.742592
O O18 0.818835 0.729980 0.000000
O O19 0.162806 0.769466 0.000000
O O20 0.224232 0.369946 0.500000
#
# Coordination Sequence:
#
# PCOD8303178 Si02
#       8
#     8   8   8   8   8   8   8   8
#     4  10  20  31  44  62  84 114 149 183 216 251
#     4   8  15  27  43  62  82 106 135 170 215 261
#     4   9  19  32  43  59  85 116 148 182 217 255
#     4  10  20  32  45  61  85 117 149 183 219 255
#     4  10  20  31  44  62  84 114 150 185 218 255
#     4   9  16  27  43  63  85 108 138 175 217 261
#     4   9  16  27  44  63  83 108 137 174 220 263
#     4   9  16  27  44  64  84 107 138 176 218 261
#
# _framework density 15.567565999999999
#
# number of rings (size 3 to 8) (size 9 to 14) (size 15 to 20)
#    0.000    2.750    0.000    3.750    0.000    8.500 
#    0.000    2.500    0.000    0.000    0.000    0.000 
#    0.000    1.000    0.000   10.500    0.000    5.750 
#
# Total GULP energy -793219.707799 kJ/mol
# GULP energy per Si atom -12394.057934 kJ/mol
# Density = 1.553213 g / cm^3
# Si number density = 15.567566 Si / 1000 Ang^3
#
#
#
# Elastic Constant Matrix: (Units=GPa)
#
#
# Indices 1 2 3 4 5 6 
#
# 1 49.5898 47.6005 48.3121 0.0000 0.0000 -0.5948
# 2 47.6005 49.5898 48.3121 0.0000 0.0000 0.5948
# 3 48.3121 48.3121 115.5563 0.0000 0.0000 0.0000
# 4 0.0000 0.0000 0.0000 26.8033 0.0000 0.0000
# 5 0.0000 0.0000 0.0000 0.0000 26.8033 0.0000
# 6 -0.5948 0.5948 0.0000 0.0000 0.0000 12.9200
#
#
#
# Elastic Compliance Matrix: (Units=1/GPa)
#
#
# Indices 1 2 3 4 5 6 
#
# 1 0.267268 -0.249661 -0.007361 0.000000 0.000000 0.023799
# 2 -0.249661 0.267268 -0.007361 0.000000 0.000000 -0.023799
# 3 -0.007361 -0.007361 0.014809 0.000000 0.000000 0.000000
# 4 0.000000 0.000000 0.000000 0.037309 0.000000 0.000000
# 5 0.000000 0.000000 0.000000 0.000000 0.037309 0.000000
# 6 0.023799 -0.023799 0.000000 0.000000 0.000000 0.079591
#
#
# Mechanical properties :
#
#
# Convention : Reuss Voigt Hill
#
# Bulk Modulus (GPa) = 48.59396 55.90949 52.25173
# Shear Modulus (GPa) = 4.03492 18.00605 11.02049
#
# Velocity S-wave (km/s) = 1.61168 3.40463 2.66355
# Velocity P-wave (km/s) = 5.89457 7.17268 6.56481
#
# Compressibility (1/GPa) = 0.02057869
#
# Stress axis : x y z
#
# Youngs Moduli (GPa) = 3.74156 3.74156 67.52550
#
# Poissons Ratio (x) = 0.93412 0.49709
# Poissons Ratio (y) = 0.93412 0.49709
# Poissons Ratio (z) = 0.02754 0.02754
#
# Static dielectric constant tensor:
#      x y z
#    x 2.942030 0.000000 0.000000 
#    y 0.000000 2.942030 0.000000 
#    z 0.000000 0.000000 3.147290 
# 
# 
# High freq. dielectric constant tensor:
#      x y z
#    x 1.567080 0.000000 0.000000 
#    y 0.000000 1.567080 0.000000 
#    z 0.000000 0.000000 1.617090 
# 
# From -- ./inp_files/1362.got.cif
#   From: 2010.03.12/outbox.cif.g09.slc.cpg/sg84_1_cif.got.tgz:1362.got - 2010.04.08 20:07:29.
