data_PCOD8303193
_publ_section_title
;
Structure prediction by ZEFSAII (Michael W. Deem and Ramdas Pophale) SiO2 
 PCOD8303193
Probable space group: P 42/M
;
_chemical_formula_sum "Si O2"
_cell_formula_units_Z 40
_cell_length_a 15.815199
_cell_length_b 15.815199
_cell_length_c 9.020475
_cell_angle_alpha 90.000000
_cell_angle_beta 90.000000
_cell_angle_gamma 90.000000
_cell_volume 2256.205892
_symmetry_space_group_name_H-M "P 42/M"
_symmetry_group_IT_number 84
_symmetry_cell_setting 'tetragonal'
loop_
_space_group_symop_operation_xyz
x,y,z
-y,x,1/2+z
-x,-y,z
y,-x,1/2+z
-x,-y,-z
y,-x,1/2-z
x,y,-z
-y,x,1/2-z
loop_
_atom_site_type_symbol
_atom_site_label
_atom_site_fract_x
_atom_site_fract_y
_atom_site_fract_z
Si Si1 0.419796 0.051645 0.674886
Si Si2 0.009625 0.237524 0.174557
Si Si3 0.787096 0.363231 0.672731
Si Si4 0.180916 0.152290 0.825875
Si Si5 0.559828 0.608452 0.176368
O O1 0.425605 0.061841 0.500000
O O2 0.334913 0.002243 0.723813
O O3 0.500000 0.000000 0.736741
O O4 0.421399 0.145191 0.743217
O O5 0.101369 0.207113 0.229691
O O6 0.938987 0.178548 0.248907
O O7 0.999831 0.227922 0.000000
O O8 0.803660 0.375527 0.500000
O O9 0.797068 0.265393 0.720154
O O10 0.693950 0.392039 0.718221
O O11 0.176783 0.137012 0.000000
O O12 0.612513 0.533147 0.252082
O O13 0.553505 0.594095 0.000000
#
# Coordination Sequence:
#
# PCOD8303193 Si02
#       5
#     8   8   8   8   8
#     4   9  18  32  51  74  98 126 161 200 241 285
#     4   9  18  32  49  70  95 123 158 196 234 281
#     4   9  19  34  51  72  98 129 162 197 241 289
#     4   9  18  33  50  68  95 127 157 194 238 283
#     4  10  20  34  52  74 100 130 164 201 243 291
#
# _framework density 17.728878000000002
#
# number of rings (size 3 to 8) (size 9 to 14) (size 15 to 20)
#    0.000    2.800    0.000    1.200    0.000    4.800 
#    0.000    6.000    0.000    0.000    0.000    0.000 
#    0.000    0.000    0.000    0.000    0.000    0.000 
#
# Total GULP energy -496031.046976 kJ/mol
# GULP energy per Si atom -12400.776174 kJ/mol
# Density = 1.768853 g / cm^3
# Si number density = 17.728878 Si / 1000 Ang^3
#
#
#
# Elastic Constant Matrix: (Units=GPa)
#
#
# Indices 1 2 3 4 5 6 
#
# 1 131.5205 84.7312 38.5568 0.0000 0.0000 -13.1203
# 2 84.7312 131.5205 38.5568 0.0000 0.0000 13.1203
# 3 38.5568 38.5568 37.5859 0.0000 0.0000 0.0000
# 4 0.0000 0.0000 0.0000 27.5154 0.0000 0.0000
# 5 0.0000 0.0000 0.0000 0.0000 27.5154 0.0000
# 6 -13.1203 13.1203 0.0000 0.0000 0.0000 32.5369
#
#
#
# Elastic Compliance Matrix: (Units=1/GPa)
#
#
# Indices 1 2 3 4 5 6 
#
# 1 0.017455 -0.010163 -0.007480 0.000000 0.000000 0.011137
# 2 -0.010163 0.017455 -0.007480 0.000000 0.000000 -0.011137
# 3 -0.007480 -0.007480 0.041952 0.000000 0.000000 0.000000
# 4 0.000000 0.000000 0.000000 0.036343 0.000000 0.000000
# 5 0.000000 0.000000 0.000000 0.000000 0.036343 0.000000
# 6 0.011137 -0.011137 0.000000 0.000000 0.000000 0.039716
#
#
# Mechanical properties :
#
#
# Convention : Reuss Voigt Hill
#
# Bulk Modulus (GPa) = 37.57214 69.36851 53.47032
# Shear Modulus (GPa) = 20.13030 26.76571 23.44801
#
# Velocity S-wave (km/s) = 3.37330 3.88973 3.64069
# Velocity P-wave (km/s) = 6.03414 7.70621 6.92086
#
# Compressibility (1/GPa) = 0.02661546
#
# Stress axis : x y z
#
# Youngs Moduli (GPa) = 57.29078 57.29078 23.83683
#
# Poissons Ratio (x) = 0.58226 0.17830
# Poissons Ratio (y) = 0.58226 0.17830
# Poissons Ratio (z) = 0.42853 0.42853
#
# Static dielectric constant tensor:
#      x y z
#    x 3.409560 0.000000 0.000000 
#    y 0.000000 3.409560 0.000000 
#    z 0.000000 0.000000 3.206040 
# 
# 
# High freq. dielectric constant tensor:
#      x y z
#    x 1.687480 0.000000 0.000000 
#    y 0.000000 1.687480 0.000000 
#    z 0.000000 0.000000 1.680740 
# 
# From -- ./inp_files/738.got.cif
#   From: 2010.03.12/outbox.cif.g09.slc.cpg/sg84_1_cif.got.tgz:738.got - 2010.04.08 20:07:29.
