data_PCOD8303137
_publ_section_title
;
Structure prediction by ZEFSAII (Michael W. Deem and Ramdas Pophale) SiO2 
 PCOD8303137
Probable space group: P 42/M
;
_chemical_formula_sum "Si O2"
_cell_formula_units_Z 32
_cell_length_a 14.207576
_cell_length_b 14.207576
_cell_length_c 8.490425
_cell_angle_alpha 90.000000
_cell_angle_beta 90.000000
_cell_angle_gamma 90.000000
_cell_volume 1713.836571
_symmetry_space_group_name_H-M "P 42/M"
_symmetry_group_IT_number 84
_symmetry_cell_setting 'tetragonal'
loop_
_space_group_symop_operation_xyz
x,y,z
-y,x,1/2+z
-x,-y,z
y,-x,1/2+z
-x,-y,-z
y,-x,1/2-z
x,y,-z
-y,x,1/2-z
loop_
_atom_site_type_symbol
_atom_site_label
_atom_site_fract_x
_atom_site_fract_y
_atom_site_fract_z
Si Si1 0.497116 0.359074 0.682317
Si Si2 0.353981 0.002841 0.813796
Si Si3 0.996985 0.857272 0.686101
Si Si4 0.846852 0.502169 0.313584
O O1 0.411280 0.405032 0.778782
O O2 0.474213 0.371804 0.500000
O O3 0.506343 0.250231 0.722189
O O4 0.406949 0.907671 0.761129
O O5 0.248463 0.003538 0.746309
O O6 0.409622 0.095858 0.756998
O O7 0.352197 0.005693 0.000000
O O8 0.979422 0.860281 0.500000
O O9 0.909840 0.906229 0.773425
O O10 0.828474 0.501392 0.500000
#
# Coordination Sequence:
#
# PCOD8303137 Si02
#       4
#     8   8   8   8
#     4  11  22  37  55  78 105 137 173 215 260 310
#     4   8  17  33  55  77 104 139 173 206 253 308
#     4  10  19  33  50  73 100 133 171 210 252 298
#     4   9  17  35  57  78 104 137 171 209 254 308
#
# _framework density 18.671558000000001
#
# number of rings (size 3 to 8) (size 9 to 14) (size 15 to 20)
#    0.000    2.500    0.000    6.000    0.000    2.000 
#    0.000   12.500    0.000    0.000    0.000    0.000 
#    0.000    0.000    0.000    0.000    0.000    0.000 
#
# Total GULP energy -396770.400888 kJ/mol
# GULP energy per Si atom -12399.075028 kJ/mol
# Density = 1.862906 g / cm^3
# Si number density = 18.671558 Si / 1000 Ang^3
#
#
#
# Elastic Constant Matrix: (Units=GPa)
#
#
# Indices 1 2 3 4 5 6 
#
# 1 141.6968 46.9369 12.6071 0.0000 0.0000 0.1410
# 2 46.9369 141.6968 12.6071 0.0000 0.0000 -0.1410
# 3 12.6071 12.6071 45.2202 0.0000 0.0000 0.0000
# 4 0.0000 0.0000 0.0000 23.2530 0.0000 0.0000
# 5 0.0000 0.0000 0.0000 0.0000 23.2530 0.0000
# 6 0.1410 -0.1410 0.0000 0.0000 0.0000 12.8522
#
#
#
# Elastic Compliance Matrix: (Units=1/GPa)
#
#
# Indices 1 2 3 4 5 6 
#
# 1 0.008030 -0.002523 -0.001535 0.000000 0.000000 -0.000116
# 2 -0.002523 0.008030 -0.001535 0.000000 0.000000 0.000116
# 3 -0.001535 -0.001535 0.022970 0.000000 0.000000 0.000000
# 4 0.000000 0.000000 0.000000 0.043005 0.000000 0.000000
# 5 0.000000 0.000000 0.000000 0.000000 0.043005 0.000000
# 6 -0.000116 0.000116 0.000000 0.000000 0.000000 0.077810
#
#
# Mechanical properties :
#
#
# Convention : Reuss Voigt Hill
#
# Bulk Modulus (GPa) = 35.91662 52.54624 44.23143
# Shear Modulus (GPa) = 22.38950 28.96915 25.67933
#
# Velocity S-wave (km/s) = 3.46659 3.94320 3.71255
# Velocity P-wave (km/s) = 5.94145 6.99537 6.48984
#
# Compressibility (1/GPa) = 0.02784226
#
# Stress axis : x y z
#
# Youngs Moduli (GPa) = 124.53449 124.53449 43.53503
#
# Poissons Ratio (x) = 0.31425 0.06683
# Poissons Ratio (y) = 0.31425 0.06683
# Poissons Ratio (z) = 0.19118 0.19118
#
# Static dielectric constant tensor:
#      x y z
#    x 3.675990 0.000000 0.000000 
#    y 0.000000 3.675990 0.000000 
#    z 0.000000 0.000000 3.188110 
# 
# 
# High freq. dielectric constant tensor:
#      x y z
#    x 1.728730 0.000000 0.000000 
#    y 0.000000 1.728730 0.000000 
#    z 0.000000 0.000000 1.707500 
# 
# From -- ./inp_files/615.got.cif
#   From: 2010.03.12/outbox.cif.g09.slc.cpg/sg84_1_cif.got.tgz:615.got - 2010.04.08 20:07:29.
