data_PCOD8303595
_publ_section_title
;
Structure prediction by ZEFSAII (Michael W. Deem and Ramdas Pophale) SiO2 
 PCOD8303595
Probable space group: P 42/N
;
_chemical_formula_sum "Si O2"
_cell_formula_units_Z 40
_cell_length_a 8.880031
_cell_length_b 8.880031
_cell_length_c 23.395313
_cell_angle_alpha 90.000000
_cell_angle_beta 90.000000
_cell_angle_gamma 90.000000
_cell_volume 1844.836250
_symmetry_space_group_name_H-M "P 42/N"
_symmetry_group_IT_number 86
_space_group.IT_coordinate_system_code '2'
_symmetry_cell_setting 'tetragonal'
loop_
_space_group_symop_operation_xyz
x,y,z
-y,1/2+x,1/2+z
1/2-x,1/2-y,z
1/2+y,-x,1/2+z
-x,-y,-z
y,1/2-x,1/2-z
1/2+x,1/2+y,-z
1/2-y,x,1/2-z
loop_
_atom_site_type_symbol
_atom_site_label
_atom_site_fract_x
_atom_site_fract_y
_atom_site_fract_z
Si Si1 0.544333 0.770085 0.909712
Si Si2 0.750000 0.250000 0.843002
Si Si3 0.177885 0.440037 0.283386
Si Si4 0.515496 0.807825 0.243778
Si Si5 0.993348 0.284132 0.437839
Si Si6 0.750000 0.250000 0.032007
O O1 0.584162 0.765507 0.842539
O O2 0.573599 0.604482 0.935939
O O3 0.638215 0.900358 0.940523
O O4 0.374913 0.809789 0.924542
O O5 0.592673 0.229629 0.809098
O O6 0.721913 0.396447 0.880586
O O7 0.303763 0.438384 0.232256
O O8 0.089875 0.598571 0.287610
O O9 0.656976 0.917250 0.226449
O O10 0.889462 0.300226 0.493094
#
# Coordination Sequence:
#
# PCOD8303595 Si02
#       6
#     8   4   8   8   8   4
#     4  11  22  40  63  92 122 155 206 254 294 358
#     4  11  22  41  62  82 118 167 206 243 308 370
#     4  11  22  39  64  93 122 163 207 247 299 367
#     4  11  23  37  56  88 126 161 201 256 314 368
#     4  10  22  41  63  85 118 161 204 252 301 359
#     4  11  24  39  62  92 120 157 198 251 314 352
#
# _framework density 21.682138999999999
#
# number of rings (size 3 to 8) (size 9 to 14) (size 15 to 20)
#    0.000    1.200    0.000    8.400    0.000    4.000 
#    0.000    0.000    0.000    9.600    0.000    0.000 
#    0.000    0.000    0.000    0.000    0.000    0.000 
#
# Total GULP energy -495722.475327 kJ/mol
# GULP energy per Si atom -12393.061883 kJ/mol
# Density = 2.163279 g / cm^3
# Si number density = 21.682139 Si / 1000 Ang^3
#
#
#
# Elastic Constant Matrix: (Units=GPa)
#
#
# Indices 1 2 3 4 5 6 
#
# 1 89.2760 28.5987 30.2212 0.0000 0.0000 -3.7497
# 2 28.5987 89.2760 30.2212 0.0000 0.0000 3.7497
# 3 30.2212 30.2212 84.4019 0.0000 0.0000 0.0000
# 4 0.0000 0.0000 0.0000 8.1187 0.0000 0.0000
# 5 0.0000 0.0000 0.0000 0.0000 8.1187 0.0000
# 6 -3.7497 3.7497 0.0000 0.0000 0.0000 21.9026
#
#
#
# Elastic Compliance Matrix: (Units=1/GPa)
#
#
# Indices 1 2 3 4 5 6 
#
# 1 0.013614 -0.003223 -0.003721 0.000000 0.000000 0.002882
# 2 -0.003223 0.013614 -0.003721 0.000000 0.000000 -0.002882
# 3 -0.003721 -0.003721 0.014513 0.000000 0.000000 0.000000
# 4 0.000000 0.000000 0.000000 0.123172 0.000000 0.000000
# 5 0.000000 0.000000 0.000000 0.000000 0.123172 0.000000
# 6 0.002882 -0.002882 0.000000 0.000000 0.000000 0.046644
#
#
# Mechanical properties :
#
#
# Convention : Reuss Voigt Hill
#
# Bulk Modulus (GPa) = 48.98982 49.00400 48.99691
# Shear Modulus (GPa) = 13.77933 19.22219 16.50076
#
# Velocity S-wave (km/s) = 2.52368 2.98072 2.76167
# Velocity P-wave (km/s) = 5.57992 5.87336 5.72852
#
# Compressibility (1/GPa) = 0.02041240
#
# Stress axis : x y z
#
# Youngs Moduli (GPa) = 73.45277 73.45277 68.90545
#
# Poissons Ratio (x) = 0.23672 0.25638
# Poissons Ratio (y) = 0.23672 0.25638
# Poissons Ratio (z) = 0.27330 0.27330
#
# Static dielectric constant tensor:
#      x y z
#    x 4.124730 0.000000 0.000000 
#    y 0.000000 4.124730 0.000000 
#    z 0.000000 0.000000 3.554980 
# 
# 
# High freq. dielectric constant tensor:
#      x y z
#    x 1.866890 0.000000 0.000000 
#    y 0.000000 1.866890 0.000000 
#    z 0.000000 0.000000 1.825850 
# 
# From -- ./inp_files/4535.got.cif
#   From: 2010.03.12/outbox.cif.g09.slc.cpg/sg86_3_cif.got.tgz:4535.got - 2010.04.08 20:12:58.
