data_PCOD8303737
_publ_section_title
;
Structure prediction by ZEFSAII (Michael W. Deem and Ramdas Pophale) SiO2 
 PCOD8303737
Probable space group: I 4/M
;
_chemical_formula_sum "Si O2"
_cell_formula_units_Z 120
_cell_length_a 17.440250
_cell_length_b 17.440250
_cell_length_c 22.483985
_cell_angle_alpha 90.000000
_cell_angle_beta 90.000000
_cell_angle_gamma 90.000000
_cell_volume 6838.781042
_symmetry_space_group_name_H-M "I 4/M"
_symmetry_group_IT_number 87
_symmetry_cell_setting 'tetragonal'
loop_
_space_group_symop_operation_xyz
x,y,z
-y,x,z
-x,-y,z
y,-x,z
-x,-y,-z
y,-x,-z
x,y,-z
-y,x,-z
1/2+x,1/2+y,1/2+z
1/2-y,1/2+x,1/2+z
1/2-x,1/2-y,1/2+z
1/2+y,1/2-x,1/2+z
1/2-x,1/2-y,1/2-z
1/2+y,1/2-x,1/2-z
1/2+x,1/2+y,1/2-z
1/2-y,1/2+x,1/2-z
loop_
_atom_site_type_symbol
_atom_site_label
_atom_site_fract_x
_atom_site_fract_y
_atom_site_fract_z
Si Si1 0.418302 0.015906 0.566601
Si Si2 0.422742 0.223323 0.068897
Si Si3 0.444623 0.389038 0.728960
Si Si4 0.118244 0.954214 0.364927
Si Si5 0.051974 0.113269 0.000000
Si Si6 0.179884 0.877215 0.116434
Si Si7 0.811974 0.448179 0.565972
Si Si8 0.121291 0.722544 0.931421
O O1 0.423584 0.978083 0.500000
O O2 0.410008 0.105732 0.563210
O O3 0.500000 0.000000 0.599944
O O4 0.341453 0.980613 0.596646
O O5 0.429787 0.306550 0.098948
O O6 0.338711 0.188541 0.078604
O O7 0.441804 0.237066 0.000000
O O8 0.533465 0.399389 0.715882
O O9 0.437613 0.360468 0.796489
O O10 0.409276 0.330542 0.682464
O O11 0.043115 0.902344 0.379291
O O12 0.067108 0.153001 0.936757
O O13 0.962368 0.101794 0.000000
O O14 0.271138 0.886497 0.109017
O O15 0.144610 0.793113 0.110548
O O16 0.774775 0.446899 0.500000
O O17 0.810723 0.537717 0.587676
O O18 0.120980 0.749982 0.000000
#
# Coordination Sequence:
#
# PCOD8303737 Si02
#       8
#    16  16  16  16   8  16  16  16
#     4   9  16  31  52  77 101 138 182 212 252 320
#     4  10  20  34  57  83 106 136 173 224 276 328
#     4   9  18  34  54  72  99 143 189 217 247 312
#     4   9  20  39  59  79 104 136 175 227 283 333
#     4  11  20  28  40  66 107 145 171 198 244 304
#     4  12  20  29  46  77 108 142 176 217 259 302
#     4  10  18  29  47  70 108 148 179 213 253 305
#     4  10  19  31  46  72 114 146 173 216 265 306
#
# _framework density 17.546987000000001
#
# number of rings (size 3 to 8) (size 9 to 14) (size 15 to 20)
#    0.000    2.067    2.667    3.200    0.000    2.667 
#    0.000    4.000    0.000    1.600    0.000    0.000 
#    0.000    0.000    0.000    0.000    0.000    0.000 
#
# Total GULP energy -743292.491072 kJ/mol
# GULP energy per Si atom -12388.208185 kJ/mol
# Density = 1.750705 g / cm^3
# Si number density = 17.546987 Si / 1000 Ang^3
#
#
#
# Elastic Constant Matrix: (Units=GPa)
#
#
# Indices 1 2 3 4 5 6 
#
# 1 73.2196 19.8604 32.6103 0.0000 0.0000 -3.5107
# 2 19.8604 73.2196 32.6103 0.0000 0.0000 3.5107
# 3 32.6103 32.6103 60.8826 0.0000 0.0000 0.0000
# 4 0.0000 0.0000 0.0000 17.9615 0.0000 0.0000
# 5 0.0000 0.0000 0.0000 0.0000 17.9615 0.0000
# 6 -3.5107 3.5107 0.0000 0.0000 0.0000 29.4843
#
#
#
# Elastic Compliance Matrix: (Units=1/GPa)
#
#
# Indices 1 2 3 4 5 6 
#
# 1 0.018119 -0.000921 -0.009212 0.000000 0.000000 0.002267
# 2 -0.000921 0.018119 -0.009212 0.000000 0.000000 -0.002267
# 3 -0.009212 -0.009212 0.026293 0.000000 0.000000 0.000000
# 4 0.000000 0.000000 0.000000 0.055675 0.000000 0.000000
# 5 0.000000 0.000000 0.000000 0.000000 0.055675 0.000000
# 6 0.002267 -0.002267 0.000000 0.000000 0.000000 0.034456
#
#
# Mechanical properties :
#
#
# Convention : Reuss Voigt Hill
#
# Bulk Modulus (GPa) = 41.94221 41.94266 41.94244
# Shear Modulus (GPa) = 19.61004 21.23084 20.42044
#
# Velocity S-wave (km/s) = 3.34664 3.48220 3.41509
# Velocity P-wave (km/s) = 6.23603 6.33423 6.28532
#
# Compressibility (1/GPa) = 0.02384233
#
# Stress axis : x y z
#
# Youngs Moduli (GPa) = 55.19186 55.19186 38.03276
#
# Poissons Ratio (x) = 0.05081 0.35035
# Poissons Ratio (y) = 0.05081 0.35035
# Poissons Ratio (z) = 0.50841 0.50841
#
# Static dielectric constant tensor:
#      x y z
#    x 3.265960 0.000000 0.000000 
#    y 0.000000 3.265960 0.000000 
#    z 0.000000 0.000000 2.955390 
# 
# 
# High freq. dielectric constant tensor:
#      x y z
#    x 1.682480 0.000000 0.000000 
#    y 0.000000 1.682480 0.000000 
#    z 0.000000 0.000000 1.632500 
# 
# From -- ./inp_files/5531.got.cif
#   From: 2010.03.12/outbox.cif.g09.slc.cpg/sg87_3_cif.got.tgz:5531.got - 2010.04.08 20:16:13.
