data_PCOD8303186
_publ_section_title
;
Structure prediction by ZEFSAII (Michael W. Deem and Ramdas Pophale) SiO2 
 PCOD8303186
Probable space group: P 42/M
;
_chemical_formula_sum "Si O2"
_cell_formula_units_Z 56
_cell_length_a 15.137491
_cell_length_b 15.137491
_cell_length_c 13.646234
_cell_angle_alpha 90.000000
_cell_angle_beta 90.000000
_cell_angle_gamma 90.000000
_cell_volume 3126.947646
_symmetry_space_group_name_H-M "P 42/M"
_symmetry_group_IT_number 84
_symmetry_cell_setting 'tetragonal'
loop_
_space_group_symop_operation_xyz
x,y,z
-y,x,1/2+z
-x,-y,z
y,-x,1/2+z
-x,-y,-z
y,-x,1/2-z
x,y,-z
-y,x,1/2-z
loop_
_atom_site_type_symbol
_atom_site_label
_atom_site_fract_x
_atom_site_fract_y
_atom_site_fract_z
Si Si1 0.599425 0.325707 0.888740
Si Si2 0.400527 0.325578 0.888746
Si Si3 0.402904 0.230959 0.696366
Si Si4 0.900136 0.099875 0.250073
Si Si5 0.258472 0.101934 0.612139
Si Si6 0.769077 0.597209 0.196433
Si Si7 0.741491 0.101829 0.387865
O O1 0.499950 0.366605 0.878354
O O2 0.674632 0.396004 0.859520
O O3 0.609394 0.243729 0.813562
O O4 0.614856 0.292299 0.000000
O O5 0.390623 0.243632 0.813507
O O6 0.325239 0.395808 0.859616
O O7 0.385176 0.292102 0.000000
O O8 0.332516 0.160091 0.662912
O O9 0.500056 0.193385 0.672856
O O10 0.878461 0.163758 0.159814
O O11 0.836357 0.121350 0.340491
O O12 0.000026 0.114012 0.288222
O O13 0.250566 0.130351 0.500000
O O14 0.285929 0.000057 0.623879
O O15 0.840047 0.667613 0.163260
O O16 0.749039 0.130362 0.500000
#
# Coordination Sequence:
#
# PCOD8303186 Si02
#       7
#     8   8   8   8   8   8   8
#     4   9  18  32  50  72  97 127 165 209 254 293
#     4   9  18  32  50  72  97 127 165 209 254 293
#     4  10  20  33  50  72 100 135 170 202 240 289
#     4   9  18  34  56  78  98 123 158 202 252 299
#     4  10  21  35  51  74 103 132 163 200 241 289
#     4  10  20  33  50  72 100 135 170 202 240 289
#     4  10  21  35  51  74 103 132 163 200 241 289
#
# _framework density 17.908839
#
# number of rings (size 3 to 8) (size 9 to 14) (size 15 to 20)
#    0.000    2.429    0.000    2.571    0.000    4.000 
#    0.000    8.571    0.000    2.571    0.000    4.000 
#    0.000    0.000    0.000    0.000    0.000    0.286 
#
# Total GULP energy -694113.911569 kJ/mol
# GULP energy per Si atom -12394.891278 kJ/mol
# Density = 1.786808 g / cm^3
# Si number density = 17.908839 Si / 1000 Ang^3
#
#
#
# Elastic Constant Matrix: (Units=GPa)
#
#
# Indices 1 2 3 4 5 6 
#
# 1 97.4098 64.6966 58.7401 0.0000 0.0000 0.0333
# 2 64.6966 97.4098 58.7401 0.0000 0.0000 -0.0333
# 3 58.7401 58.7401 152.9679 0.0000 0.0000 0.0000
# 4 0.0000 0.0000 0.0000 21.5747 0.0000 0.0000
# 5 0.0000 0.0000 0.0000 0.0000 21.5747 0.0000
# 6 0.0333 -0.0333 0.0000 0.0000 0.0000 26.0782
#
#
#
# Elastic Compliance Matrix: (Units=1/GPa)
#
#
# Indices 1 2 3 4 5 6 
#
# 1 0.019558 -0.011011 -0.003282 0.000000 0.000000 -0.000039
# 2 -0.011011 0.019558 -0.003282 0.000000 0.000000 0.000039
# 3 -0.003282 -0.003282 0.009058 0.000000 0.000000 0.000000
# 4 0.000000 0.000000 0.000000 0.046351 0.000000 0.000000
# 5 0.000000 0.000000 0.000000 0.000000 0.046351 0.000000
# 6 -0.000039 0.000039 0.000000 0.000000 0.000000 0.038346
#
#
# Mechanical properties :
#
#
# Convention : Reuss Voigt Hill
#
# Bulk Modulus (GPa) = 76.78108 79.12678 77.95393
# Shear Modulus (GPa) = 22.86097 24.88625 23.87361
#
# Velocity S-wave (km/s) = 3.57672 3.73179 3.65507
# Velocity P-wave (km/s) = 7.74749 7.92763 7.83808
#
# Compressibility (1/GPa) = 0.01302404
#
# Stress axis : x y z
#
# Youngs Moduli (GPa) = 51.12968 51.12968 110.39830
#
# Poissons Ratio (x) = 0.56297 0.36236
# Poissons Ratio (y) = 0.56297 0.36236
# Poissons Ratio (z) = 0.16782 0.16782
#
# Static dielectric constant tensor:
#      x y z
#    x 3.284440 0.000000 0.000000 
#    y 0.000000 3.284440 0.000000 
#    z 0.000000 0.000000 3.541790 
# 
# 
# High freq. dielectric constant tensor:
#      x y z
#    x 1.684580 0.000000 0.000000 
#    y 0.000000 1.684580 0.000000 
#    z 0.000000 0.000000 1.702820 
# 
# From -- ./inp_files/3126.got.cif
#   From: 2010.03.12/outbox.cif.g09.slc.cpg/sg84_2_cif.got.tgz:3126.got - 2010.04.08 20:07:29.
