data_PCOD8303649
_publ_section_title
;
Structure prediction by ZEFSAII (Michael W. Deem and Ramdas Pophale) SiO2 
 PCOD8303649
Probable space group: P 42/N
;
_chemical_formula_sum "Si O2"
_cell_formula_units_Z 44
_cell_length_a 8.874055
_cell_length_b 8.874055
_cell_length_c 27.186373
_cell_angle_alpha 90.000000
_cell_angle_beta 90.000000
_cell_angle_gamma 90.000000
_cell_volume 2140.895668
_symmetry_space_group_name_H-M "P 42/N"
_symmetry_group_IT_number 86
_space_group.IT_coordinate_system_code '2'
_symmetry_cell_setting 'tetragonal'
loop_
_space_group_symop_operation_xyz
x,y,z
-y,1/2+x,1/2+z
1/2-x,1/2-y,z
1/2+y,-x,1/2+z
-x,-y,-z
y,1/2-x,1/2-z
1/2+x,1/2+y,-z
1/2-y,x,1/2-z
loop_
_atom_site_type_symbol
_atom_site_label
_atom_site_fract_x
_atom_site_fract_y
_atom_site_fract_z
Si Si1 0.990731 0.811629 0.751777
Si Si2 0.228332 0.415283 0.585410
Si Si3 0.943113 0.102240 0.351179
Si Si4 0.750000 0.750000 0.506799
Si Si5 0.117587 0.054100 0.087993
Si Si6 0.231593 0.916308 0.354817
O O1 0.927562 0.645741 0.741702
O O2 0.096367 0.861581 0.705898
O O3 0.086573 0.815199 0.801872
O O4 0.250000 0.250000 0.611980
O O5 0.302746 0.546443 0.617358
O O6 0.294210 0.390892 0.529754
O O7 0.058786 0.477599 0.579386
O O8 0.997774 0.258098 0.374087
O O9 0.058834 0.963480 0.350907
O O10 0.896857 0.703148 0.538043
O O11 0.043160 0.203444 0.109593
O O12 0.250000 0.750000 0.377792
#
# Coordination Sequence:
#
# PCOD8303649 Si02
#       6
#     8   8   8   4   8   8
#     4   9  18  36  63  94 127 163 215 258 307 394
#     4  10  25  42  63  93 133 165 212 275 328 382
#     4  11  21  41  66  94 125 172 216 259 327 390
#     4  10  24  44  66  91 127 168 230 264 330 380
#     4  12  21  44  67  92 125 175 217 268 319 393
#     4  11  22  37  64  95 130 165 209 272 324 386
#
# _framework density 20.552146
#
# number of rings (size 3 to 8) (size 9 to 14) (size 15 to 20)
#    0.545    0.909    3.636    2.182    0.000    2.182 
#    0.000    0.000    0.000    0.000    0.000    0.000 
#    0.000    0.000    0.000    0.000    0.000    0.000 
#
# Total GULP energy -545183.799794 kJ/mol
# GULP energy per Si atom -12390.540904 kJ/mol
# Density = 2.050537 g / cm^3
# Si number density = 20.552146 Si / 1000 Ang^3
#
#
#
# Elastic Constant Matrix: (Units=GPa)
#
#
# Indices 1 2 3 4 5 6 
#
# 1 74.4825 11.7350 15.0044 0.0000 0.0000 0.0699
# 2 11.7350 74.4825 15.0044 0.0000 0.0000 -0.0699
# 3 15.0044 15.0044 104.6529 0.0000 0.0000 0.0000
# 4 0.0000 0.0000 0.0000 17.7469 0.0000 0.0000
# 5 0.0000 0.0000 0.0000 0.0000 17.7469 0.0000
# 6 0.0699 -0.0699 0.0000 0.0000 0.0000 36.2051
#
#
#
# Elastic Compliance Matrix: (Units=1/GPa)
#
#
# Indices 1 2 3 4 5 6 
#
# 1 0.014072 -0.001865 -0.001750 0.000000 0.000000 -0.000031
# 2 -0.001865 0.014072 -0.001750 0.000000 0.000000 0.000031
# 3 -0.001750 -0.001750 0.010057 0.000000 0.000000 0.000000
# 4 0.000000 0.000000 0.000000 0.056348 0.000000 0.000000
# 5 0.000000 0.000000 0.000000 0.000000 0.056348 0.000000
# 6 -0.000031 0.000031 0.000000 0.000000 0.000000 0.027621
#
#
# Mechanical properties :
#
#
# Convention : Reuss Voigt Hill
#
# Bulk Modulus (GPa) = 36.40104 37.45618 36.92861
# Shear Modulus (GPa) = 25.20091 28.46474 26.83282
#
# Velocity S-wave (km/s) = 3.50550 3.72560 3.61722
# Velocity P-wave (km/s) = 5.84249 6.06393 5.95424
#
# Compressibility (1/GPa) = 0.02747175
#
# Stress axis : x y z
#
# Youngs Moduli (GPa) = 71.06127 71.06127 99.43050
#
# Poissons Ratio (x) = 0.13250 0.17403
# Poissons Ratio (y) = 0.13250 0.17403
# Poissons Ratio (z) = 0.12438 0.12438
#
# Static dielectric constant tensor:
#      x y z
#    x 3.530420 0.000000 0.000000 
#    y 0.000000 3.530420 0.000000 
#    z 0.000000 0.000000 3.817990 
# 
# 
# High freq. dielectric constant tensor:
#      x y z
#    x 1.793250 0.000000 0.000000 
#    y 0.000000 1.793250 0.000000 
#    z 0.000000 0.000000 1.805170 
# 
# From -- ./inp_files/5036.got.cif
#   From: 2010.03.12/outbox.cif.g09.slc.cpg/sg86_3_cif.got.tgz:5036.got - 2010.04.08 20:12:58.
