data_PCOD8303034
_publ_section_title
;
Structure prediction by ZEFSAII (Michael W. Deem and Ramdas Pophale) SiO2 
 PCOD8303034
Probable space group: P 4/M
;
_chemical_formula_sum "Si O2"
_cell_formula_units_Z 44
_cell_length_a 8.735261
_cell_length_b 8.735261
_cell_length_c 29.515934
_cell_angle_alpha 90.000000
_cell_angle_beta 90.000000
_cell_angle_gamma 90.000000
_cell_volume 2252.206990
_symmetry_space_group_name_H-M "P 4/M"
_symmetry_group_IT_number 83
_symmetry_cell_setting 'tetragonal'
loop_
_space_group_symop_operation_xyz
x,y,z
-y,x,z
-x,-y,z
y,-x,z
-x,-y,-z
y,-x,-z
x,y,-z
-y,x,-z
loop_
_atom_site_type_symbol
_atom_site_label
_atom_site_fract_x
_atom_site_fract_y
_atom_site_fract_z
Si Si1 0.559749 0.745571 0.547696
Si Si2 0.747773 0.441781 0.354187
Si Si3 0.578390 0.262456 0.051763
Si Si4 0.242099 0.937234 0.220452
Si Si5 0.073014 0.239651 0.117454
Si Si6 0.000000 0.500000 0.714144
O O1 0.390185 0.680448 0.547224
O O2 0.583845 0.841681 0.500000
O O3 0.579767 0.830641 0.596111
O O4 0.681199 0.612830 0.348491
O O5 0.876959 0.411297 0.316801
O O6 0.689731 0.405061 0.061854
O O7 0.622831 0.121097 0.084172
O O8 0.597213 0.208500 0.000000
O O9 0.299003 0.915111 0.168979
O O10 0.108639 0.816419 0.229565
O O11 0.381425 0.906909 0.254458
O O12 0.900895 0.187430 0.107859
#
# Coordination Sequence:
#
# PCOD8303034 Si02
#       6
#     8   8   8   8   8   4
#     4   7  10  20  40  62  86 121 157 187 229 282
#     4   9  18  31  46  69  99 124 155 201 242 282
#     4   9  19  35  53  76 107 136 159 189 234 287
#     4   9  20  37  52  69  96 128 162 201 242 286
#     4   9  19  35  53  73  97 126 164 206 240 275
#     4  12  20  30  51  74  93 126 162 196 246 298
#
# _framework density 19.536394999999999
#
# number of rings (size 3 to 8) (size 9 to 14) (size 15 to 20)
#    0.000    3.091    0.000    4.364    0.000    4.364 
#    0.000    3.182    0.000    2.182    0.000    0.000 
#    0.000    0.000    0.000   22.182    0.000    1.455 
#
# Total GULP energy -545118.970048 kJ/mol
# GULP energy per Si atom -12389.067501 kJ/mol
# Density = 1.949193 g / cm^3
# Si number density = 19.536395 Si / 1000 Ang^3
#
#
#
# Elastic Constant Matrix: (Units=GPa)
#
#
# Indices 1 2 3 4 5 6 
#
# 1 35.5608 5.4045 36.6973 0.0000 0.0000 2.0515
# 2 5.4045 35.5608 36.6973 0.0000 0.0000 -2.0515
# 3 36.6973 36.6973 140.3929 0.0000 0.0000 0.0000
# 4 0.0000 0.0000 0.0000 12.6723 0.0000 0.0000
# 5 0.0000 0.0000 0.0000 0.0000 12.6723 0.0000
# 6 2.0515 -2.0515 0.0000 0.0000 0.0000 22.6345
#
#
#
# Elastic Compliance Matrix: (Units=1/GPa)
#
#
# Indices 1 2 3 4 5 6 
#
# 1 0.039743 0.006169 -0.012001 0.000000 0.000000 -0.003043
# 2 0.006169 0.039743 -0.012001 0.000000 0.000000 0.003043
# 3 -0.012001 -0.012001 0.013397 0.000000 0.000000 0.000000
# 4 0.000000 0.000000 0.000000 0.078912 0.000000 0.000000
# 5 0.000000 0.000000 0.000000 0.000000 0.078912 0.000000
# 6 -0.003043 0.003043 0.000000 0.000000 0.000000 0.044732
#
#
# Mechanical properties :
#
#
# Convention : Reuss Voigt Hill
#
# Bulk Modulus (GPa) = 17.47726 41.01251 29.24489
# Shear Modulus (GPa) = 14.27844 18.44353 16.36099
#
# Velocity S-wave (km/s) = 2.70638 3.07589 2.89703
# Velocity P-wave (km/s) = 4.32798 5.80114 5.11784
#
# Compressibility (1/GPa) = 0.05721721
#
# Stress axis : x y z
#
# Youngs Moduli (GPa) = 25.16140 25.16140 74.64499
#
# Poissons Ratio (x) = -0.15522 0.89581
# Poissons Ratio (y) = -0.15522 0.89581
# Poissons Ratio (z) = 0.30196 0.30196
#
# Static dielectric constant tensor:
#      x y z
#    x 3.164800 0.000000 0.000000 
#    y 0.000000 3.164800 0.000000 
#    z 0.000000 0.000000 3.916470 
# 
# 
# High freq. dielectric constant tensor:
#      x y z
#    x 1.729970 0.000000 0.000000 
#    y 0.000000 1.729970 0.000000 
#    z 0.000000 0.000000 1.782200 
# 
# From -- ./inp_files/3360.got.cif
#   From: 2010.03.12/outbox.cif.g09.slc.cpg/sg83_2_cif.got.tgz:3360.got - 2010.04.08 20:05:18.
