data_PCOD8303150
_publ_section_title
;
Structure prediction by ZEFSAII (Michael W. Deem and Ramdas Pophale) SiO2 
 PCOD8303150
Probable space group: P 42/M
;
_chemical_formula_sum "Si O2"
_cell_formula_units_Z 56
_cell_length_a 14.925211
_cell_length_b 14.925211
_cell_length_c 11.973753
_cell_angle_alpha 90.000000
_cell_angle_beta 90.000000
_cell_angle_gamma 90.000000
_cell_volume 2667.296249
_symmetry_space_group_name_H-M "P 42/M"
_symmetry_group_IT_number 84
_symmetry_cell_setting 'tetragonal'
loop_
_space_group_symop_operation_xyz
x,y,z
-y,x,1/2+z
-x,-y,z
y,-x,1/2+z
-x,-y,-z
y,-x,1/2-z
x,y,-z
-y,x,1/2-z
loop_
_atom_site_type_symbol
_atom_site_label
_atom_site_fract_x
_atom_site_fract_y
_atom_site_fract_z
Si Si1 0.829771 0.642608 0.209467
Si Si2 0.594829 0.990465 0.186983
Si Si3 0.453387 0.151573 0.374033
Si Si4 0.730572 0.295796 0.125872
Si Si5 0.115734 0.842427 0.872980
Si Si6 0.791177 0.976573 0.128708
Si Si7 0.085905 0.182622 0.128427
O O1 0.814985 0.555569 0.133782
O O2 0.740436 0.660974 0.282540
O O3 0.860426 0.724601 0.132458
O O4 0.908267 0.623890 0.295460
O O5 0.569835 0.933470 0.297049
O O6 0.684724 0.950962 0.130777
O O7 0.500000 0.000000 0.117097
O O8 0.432117 0.119890 0.500000
O O9 0.397105 0.241159 0.344312
O O10 0.824734 0.244910 0.134073
O O11 0.690227 0.287242 0.000000
O O12 0.016780 0.815989 0.820200
O O13 0.175415 0.926020 0.819020
O O14 0.097034 0.870763 0.000000
O O15 0.850150 0.895109 0.184532
O O16 0.817680 0.981041 0.000000
O O17 0.074588 0.157046 0.000000
#
# Coordination Sequence:
#
# PCOD8303150 Si02
#       7
#     8   8   8   8   8   8   8
#     4  11  21  35  58  83 113 148 193 246 292 346
#     4  10  21  34  52  79 109 149 194 244 288 339
#     4  10  22  39  60  86 117 154 195 243 296 351
#     4  10  20  37  60  82 111 149 191 237 290 353
#     4   9  17  32  53  76 110 155 197 235 281 339
#     4  10  19  34  52  76 116 156 196 240 288 344
#     4  10  20  31  50  80 114 155 196 239 286 337
#
# _framework density 20.995041000000001
#
# number of rings (size 3 to 8) (size 9 to 14) (size 15 to 20)
#    0.000    2.000    1.429    2.571    0.000    6.286 
#    0.000    2.143    3.143    2.143    0.000    2.000 
#    0.000    1.143    0.000    0.000    0.000    0.000 
#
# Total GULP energy -694109.460508 kJ/mol
# GULP energy per Si atom -12394.811795 kJ/mol
# Density = 2.094726 g / cm^3
# Si number density = 20.995041 Si / 1000 Ang^3
#
#
#
# Elastic Constant Matrix: (Units=GPa)
#
#
# Indices 1 2 3 4 5 6 
#
# 1 120.9384 46.8948 27.8534 0.0000 0.0000 -6.3819
# 2 46.8948 120.9384 27.8534 0.0000 0.0000 6.3819
# 3 27.8534 27.8534 51.1544 0.0000 0.0000 0.0000
# 4 0.0000 0.0000 0.0000 28.5176 0.0000 0.0000
# 5 0.0000 0.0000 0.0000 0.0000 28.5176 0.0000
# 6 -6.3819 6.3819 0.0000 0.0000 0.0000 25.8481
#
#
#
# Elastic Compliance Matrix: (Units=1/GPa)
#
#
# Indices 1 2 3 4 5 6 
#
# 1 0.010689 -0.003417 -0.003960 0.000000 0.000000 0.003483
# 2 -0.003417 0.010689 -0.003960 0.000000 0.000000 -0.003483
# 3 -0.003960 -0.003960 0.023861 0.000000 0.000000 0.000000
# 4 0.000000 0.000000 0.000000 0.035066 0.000000 0.000000
# 5 0.000000 0.000000 0.000000 0.000000 0.035066 0.000000
# 6 0.003483 -0.003483 0.000000 0.000000 0.000000 0.040407
#
#
# Mechanical properties :
#
#
# Convention : Reuss Voigt Hill
#
# Bulk Modulus (GPa) = 44.31331 55.35936 49.83633
# Shear Modulus (GPa) = 26.88545 29.27199 28.07872
#
# Velocity S-wave (km/s) = 3.58238 3.73799 3.66101
# Velocity P-wave (km/s) = 6.18576 6.71232 6.45441
#
# Compressibility (1/GPa) = 0.02256658
#
# Stress axis : x y z
#
# Youngs Moduli (GPa) = 93.55154 93.55154 41.90937
#
# Poissons Ratio (x) = 0.31963 0.16596
# Poissons Ratio (y) = 0.31963 0.16596
# Poissons Ratio (z) = 0.37046 0.37046
#
# Static dielectric constant tensor:
#      x y z
#    x 4.027280 0.000000 0.000000 
#    y 0.000000 4.027280 0.000000 
#    z 0.000000 0.000000 4.027970 
# 
# 
# High freq. dielectric constant tensor:
#      x y z
#    x 1.811030 0.000000 0.000000 
#    y 0.000000 1.811030 0.000000 
#    z 0.000000 0.000000 1.854110 
# 
# From -- ./inp_files/3140.got.cif
#   From: 2010.03.12/outbox.cif.g09.slc.cpg/sg84_2_cif.got.tgz:3140.got - 2010.04.08 20:07:29.
