data_PCOD8303222
_publ_section_title
;
Structure prediction by ZEFSAII (Michael W. Deem and Ramdas Pophale) SiO2 
 PCOD8303222
Probable space group: P 42/M
;
_chemical_formula_sum "Si O2"
_cell_formula_units_Z 40
_cell_length_a 15.651106
_cell_length_b 15.651106
_cell_length_c 8.632657
_cell_angle_alpha 90.000000
_cell_angle_beta 90.000000
_cell_angle_gamma 90.000000
_cell_volume 2114.630788
_symmetry_space_group_name_H-M "P 42/M"
_symmetry_group_IT_number 84
_symmetry_cell_setting 'tetragonal'
loop_
_space_group_symop_operation_xyz
x,y,z
-y,x,1/2+z
-x,-y,z
y,-x,1/2+z
-x,-y,-z
y,-x,1/2-z
x,y,-z
-y,x,1/2-z
loop_
_atom_site_type_symbol
_atom_site_label
_atom_site_fract_x
_atom_site_fract_y
_atom_site_fract_z
Si Si1 0.376097 0.531017 0.181164
Si Si2 0.432516 0.924339 0.670422
Si Si3 0.313130 0.066544 0.318019
Si Si4 0.964150 0.121815 0.819086
Si Si5 0.196476 0.556374 0.320876
O O1 0.443355 0.604146 0.228571
O O2 0.282149 0.563704 0.221841
O O3 0.383815 0.513376 0.000000
O O4 0.420475 0.882695 0.500000
O O5 0.466321 0.851371 0.785917
O O6 0.500000 0.000000 0.660195
O O7 0.345079 0.970263 0.727315
O O8 0.330486 0.082249 0.500000
O O9 0.213952 0.073326 0.274306
O O10 0.362932 0.137929 0.221557
O O11 0.051712 0.106195 0.726119
O O12 0.985203 0.115899 0.000000
O O13 0.220111 0.559333 0.500000
#
# Coordination Sequence:
#
# PCOD8303222 Si02
#       5
#     8   8   8   8   8
#     4  11  22  40  62  83 111 147 186 226 273 327
#     4   8  15  31  53  75 105 146 181 219 275 328
#     4   9  19  36  56  79 110 148 185 229 282 330
#     4  10  20  36  57  79 107 145 185 227 277 332
#     4  11  21  34  55  85 115 146 183 227 276 327
#
# _framework density 18.915832000000002
#
# number of rings (size 3 to 8) (size 9 to 14) (size 15 to 20)
#    0.000    2.200    0.000    6.600    0.000    5.200 
#    3.600    0.000    0.000    0.000    0.000    0.000 
#    0.000    0.000    0.000    0.000    0.000    0.000 
#
# Total GULP energy -495951.423155 kJ/mol
# GULP energy per Si atom -12398.785579 kJ/mol
# Density = 1.887278 g / cm^3
# Si number density = 18.915832 Si / 1000 Ang^3
#
#
#
# Elastic Constant Matrix: (Units=GPa)
#
#
# Indices 1 2 3 4 5 6 
#
# 1 91.8569 29.3090 25.3331 0.0000 0.0000 -0.6298
# 2 29.3090 91.8569 25.3331 0.0000 0.0000 0.6298
# 3 25.3331 25.3331 79.5231 0.0000 0.0000 0.0000
# 4 0.0000 0.0000 0.0000 27.8193 0.0000 0.0000
# 5 0.0000 0.0000 0.0000 0.0000 27.8193 0.0000
# 6 -0.6298 0.6298 0.0000 0.0000 0.0000 14.0138
#
#
#
# Elastic Compliance Matrix: (Units=1/GPa)
#
#
# Indices 1 2 3 4 5 6 
#
# 1 0.012762 -0.003240 -0.003033 0.000000 0.000000 0.000719
# 2 -0.003240 0.012762 -0.003033 0.000000 0.000000 -0.000719
# 3 -0.003033 -0.003033 0.014507 0.000000 0.000000 0.000000
# 4 0.000000 0.000000 0.000000 0.035946 0.000000 0.000000
# 5 0.000000 0.000000 0.000000 0.000000 0.035946 0.000000
# 6 0.000719 -0.000719 0.000000 0.000000 0.000000 0.071423
#
#
# Mechanical properties :
#
#
# Convention : Reuss Voigt Hill
#
# Bulk Modulus (GPa) = 46.69037 47.02083 46.85560
# Shear Modulus (GPa) = 23.91209 26.14794 25.03002
#
# Velocity S-wave (km/s) = 3.55932 3.72200 3.64157
# Velocity P-wave (km/s) = 6.45201 6.58658 6.51964
#
# Compressibility (1/GPa) = 0.02141769
#
# Stress axis : x y z
#
# Youngs Moduli (GPa) = 78.35850 78.35850 68.92994
#
# Poissons Ratio (x) = 0.25391 0.20908
# Poissons Ratio (y) = 0.25391 0.20908
# Poissons Ratio (z) = 0.23768 0.23768
#
# Static dielectric constant tensor:
#      x y z
#    x 3.515770 0.000000 0.000000 
#    y 0.000000 3.515770 0.000000 
#    z 0.000000 0.000000 3.448410 
# 
# 
# High freq. dielectric constant tensor:
#      x y z
#    x 1.725730 0.000000 0.000000 
#    y 0.000000 1.725730 0.000000 
#    z 0.000000 0.000000 1.737440 
# 
# From -- ./inp_files/790.got.cif
#   From: 2010.03.12/outbox.cif.g09.slc.cpg/sg84_1_cif.got.tgz:790.got - 2010.04.08 20:07:29.
