data_PCOD8303124
_publ_section_title
;
Structure prediction by ZEFSAII (Michael W. Deem and Ramdas Pophale) SiO2 
 PCOD8303124
Probable space group: P 42/M
;
_chemical_formula_sum "Si O2"
_cell_formula_units_Z 64
_cell_length_a 17.094069
_cell_length_b 17.094069
_cell_length_c 13.485594
_cell_angle_alpha 90.000000
_cell_angle_beta 90.000000
_cell_angle_gamma 90.000000
_cell_volume 3940.587595
_symmetry_space_group_name_H-M "P 42/M"
_symmetry_group_IT_number 84
_symmetry_cell_setting 'tetragonal'
loop_
_space_group_symop_operation_xyz
x,y,z
-y,x,1/2+z
-x,-y,z
y,-x,1/2+z
-x,-y,-z
y,-x,1/2-z
x,y,-z
-y,x,1/2-z
loop_
_atom_site_type_symbol
_atom_site_label
_atom_site_fract_x
_atom_site_fract_y
_atom_site_fract_z
Si Si1 0.324747 0.669928 0.611854
Si Si2 0.807647 0.783099 0.114874
Si Si3 0.047434 0.920642 0.883580
Si Si4 0.284966 0.058245 0.113403
Si Si5 0.191694 0.950762 0.250451
Si Si6 0.920549 0.462903 0.616884
Si Si7 0.751510 0.494326 0.613010
Si Si8 0.617821 0.545018 0.249214
O O1 0.345320 0.687843 0.500000
O O2 0.278940 0.744310 0.655195
O O3 0.267115 0.597020 0.622982
O O4 0.409122 0.655820 0.658867
O O5 0.775058 0.870607 0.123675
O O6 0.878827 0.771943 0.189824
O O7 0.831448 0.767452 0.000000
O O8 0.132289 0.926032 0.835664
O O9 0.004042 0.848362 0.833590
O O10 0.055969 0.904445 0.000000
O O11 0.000000 0.000000 0.862789
O O12 0.371684 0.084808 0.142650
O O13 0.261985 0.992838 0.193119
O O14 0.282826 0.025947 0.000000
O O15 0.921691 0.475816 0.500000
O O16 0.840252 0.504584 0.656491
O O17 0.000000 0.500000 0.663825
O O18 0.748126 0.522604 0.500000
O O19 0.684881 0.544167 0.667671
O O20 0.592224 0.458674 0.212002
#
# Coordination Sequence:
#
# PCOD8303124 Si02
#       8
#     8   8   8   8   8   8   8   8
#     4   9  17  31  50  70  95 133 170 202 238 289
#     4  10  19  32  50  69  92 127 171 208 241 286
#     4  11  20  31  44  64  95 130 163 197 245 299
#     4  10  19  32  49  70  96 126 162 202 245 293
#     4  12  19  31  46  70  94 127 162 203 250 291
#     4   9  17  30  49  72  96 124 162 205 244 286
#     4   9  16  29  49  70  99 135 162 191 245 298
#     4   9  18  30  47  77 108 131 158 198 245 298
#
# _framework density 16.241232
#
# number of rings (size 3 to 8) (size 9 to 14) (size 15 to 20)
#    0.000    2.125    3.750    0.750    0.000    3.500 
#    0.000    2.500    0.000    0.750    0.000    3.500 
#    0.000    4.500    0.000    0.000    0.000    0.000 
#
# Total GULP energy -793253.092608 kJ/mol
# GULP energy per Si atom -12394.579572 kJ/mol
# Density = 1.620427 g / cm^3
# Si number density = 16.241232 Si / 1000 Ang^3
#
#
#
# Elastic Constant Matrix: (Units=GPa)
#
#
# Indices 1 2 3 4 5 6 
#
# 1 73.6315 36.3831 32.5638 0.0000 0.0000 2.2440
# 2 36.3831 73.6315 32.5638 0.0000 0.0000 -2.2440
# 3 32.5638 32.5638 62.1170 0.0000 0.0000 0.0000
# 4 0.0000 0.0000 0.0000 24.0889 0.0000 0.0000
# 5 0.0000 0.0000 0.0000 0.0000 24.0889 0.0000
# 6 2.2440 -2.2440 0.0000 0.0000 0.0000 24.8491
#
#
#
# Elastic Compliance Matrix: (Units=1/GPa)
#
#
# Indices 1 2 3 4 5 6 
#
# 1 0.020161 -0.006981 -0.006909 0.000000 0.000000 -0.002451
# 2 -0.006981 0.020161 -0.006909 0.000000 0.000000 0.002451
# 3 -0.006909 -0.006909 0.023343 0.000000 0.000000 0.000000
# 4 0.000000 0.000000 0.000000 0.041513 0.000000 0.000000
# 5 0.000000 0.000000 0.000000 0.000000 0.041513 0.000000
# 6 -0.002451 0.002451 0.000000 0.000000 0.000000 0.040686
#
#
# Mechanical properties :
#
#
# Convention : Reuss Voigt Hill
#
# Bulk Modulus (GPa) = 45.31994 45.82238 45.57116
# Shear Modulus (GPa) = 21.15675 21.79667 21.47671
#
# Velocity S-wave (km/s) = 3.61315 3.66738 3.64037
# Velocity P-wave (km/s) = 6.73582 6.79763 6.76680
#
# Compressibility (1/GPa) = 0.02206534
#
# Stress axis : x y z
#
# Youngs Moduli (GPa) = 49.60065 49.60065 42.83951
#
# Poissons Ratio (x) = 0.34626 0.29600
# Poissons Ratio (y) = 0.34626 0.29600
# Poissons Ratio (z) = 0.34271 0.34271
#
# Static dielectric constant tensor:
#      x y z
#    x 3.154160 0.000000 0.000000 
#    y 0.000000 3.154160 0.000000 
#    z 0.000000 0.000000 2.978850 
# 
# 
# High freq. dielectric constant tensor:
#      x y z
#    x 1.621640 0.000000 0.000000 
#    y 0.000000 1.621640 0.000000 
#    z 0.000000 0.000000 1.602710 
# 
# From -- ./inp_files/2353.got.cif
#   From: 2010.03.12/outbox.cif.g09.slc.cpg/sg84_2_cif.got.tgz:2353.got - 2010.04.08 20:07:29.
