data_PCOD8303840
_publ_section_title
;
Structure prediction by ZEFSAII (Michael W. Deem and Ramdas Pophale) SiO2 
 PCOD8303840
Probable space group: I 4/M
;
_chemical_formula_sum "Si O2"
_cell_formula_units_Z 96
_cell_length_a 19.054851
_cell_length_b 19.054851
_cell_length_c 13.387780
_cell_angle_alpha 90.000000
_cell_angle_beta 90.000000
_cell_angle_gamma 90.000000
_cell_volume 4860.933517
_symmetry_space_group_name_H-M "I 4/M"
_symmetry_group_IT_number 87
_symmetry_cell_setting 'tetragonal'
loop_
_space_group_symop_operation_xyz
x,y,z
-y,x,z
-x,-y,z
y,-x,z
-x,-y,-z
y,-x,-z
x,y,-z
-y,x,-z
1/2+x,1/2+y,1/2+z
1/2-y,1/2+x,1/2+z
1/2-x,1/2-y,1/2+z
1/2+y,1/2-x,1/2+z
1/2-x,1/2-y,1/2-z
1/2+y,1/2-x,1/2-z
1/2+x,1/2+y,1/2-z
1/2-y,1/2+x,1/2-z
loop_
_atom_site_type_symbol
_atom_site_label
_atom_site_fract_x
_atom_site_fract_y
_atom_site_fract_z
Si Si1 0.977372 0.616886 0.607151
Si Si2 0.169707 0.264700 0.760946
Si Si3 0.345694 0.608892 0.386226
Si Si4 0.969109 0.191844 0.791450
Si Si5 0.923602 0.350537 0.776205
Si Si6 0.223008 0.944386 0.389502
O O1 0.003125 0.586154 0.500000
O O2 0.901218 0.582271 0.628110
O O3 0.973066 0.699800 0.596148
O O4 0.032000 0.604319 0.696066
O O5 0.250000 0.250000 0.750000
O O6 0.142047 0.230435 0.863625
O O7 0.158117 0.347042 0.771203
O O8 0.129905 0.227907 0.667729
O O9 0.367759 0.624108 0.500000
O O10 0.399717 0.646417 0.309779
O O11 0.339427 0.525746 0.368982
O O12 0.956138 0.275478 0.808785
O O13 0.999020 0.180529 0.678714
O O14 0.187723 0.935864 0.500000
#
# Coordination Sequence:
#
# PCOD8303840 Si02
#       6
#    16  16  16  16  16  16
#     4   9  19  35  57  82 111 155 198 235 292 352
#     4  10  19  35  58  89 122 151 195 250 307 357
#     4  11  23  38  59  89 120 158 202 246 309 368
#     4  10  21  39  60  83 124 157 198 257 303 361
#     4  10  20  39  60  82 123 156 195 250 296 354
#     4   8  17  35  58  83 114 155 198 243 298 359
#
# _framework density 19.749293999999999
#
# number of rings (size 3 to 8) (size 9 to 14) (size 15 to 20)
#    0.000    2.333    1.667    1.500    0.000    3.333 
#    0.000    5.833    0.000    0.000    0.000    4.667 
#    0.000    0.000    0.000    0.000    0.000    0.000 
#
# Total GULP energy -594784.442747 kJ/mol
# GULP energy per Si atom -12391.342557 kJ/mol
# Density = 1.970434 g / cm^3
# Si number density = 19.749294 Si / 1000 Ang^3
#
#
#
# Elastic Constant Matrix: (Units=GPa)
#
#
# Indices 1 2 3 4 5 6 
#
# 1 90.8972 25.1025 37.5792 0.0000 0.0000 -1.4587
# 2 25.1025 90.8972 37.5792 0.0000 0.0000 1.4587
# 3 37.5792 37.5792 127.7823 0.0000 0.0000 0.0000
# 4 0.0000 0.0000 0.0000 5.7730 0.0000 0.0000
# 5 0.0000 0.0000 0.0000 0.0000 5.7730 0.0000
# 6 -1.4587 1.4587 0.0000 0.0000 0.0000 28.5631
#
#
#
# Elastic Compliance Matrix: (Units=1/GPa)
#
#
# Indices 1 2 3 4 5 6 
#
# 1 0.012942 -0.002292 -0.003132 0.000000 0.000000 0.000778
# 2 -0.002292 0.012942 -0.003132 0.000000 0.000000 -0.000778
# 3 -0.003132 -0.003132 0.009668 0.000000 0.000000 0.000000
# 4 0.000000 0.000000 0.000000 0.173221 0.000000 0.000000
# 5 0.000000 0.000000 0.000000 0.000000 0.173221 0.000000
# 6 0.000778 -0.000778 0.000000 0.000000 0.000000 0.035090
#
#
# Mechanical properties :
#
#
# Convention : Reuss Voigt Hill
#
# Bulk Modulus (GPa) = 54.23030 56.67762 55.45396
# Shear Modulus (GPa) = 11.35485 21.97621 16.66553
#
# Velocity S-wave (km/s) = 2.40041 3.33942 2.90807
# Velocity P-wave (km/s) = 5.93309 6.60529 6.27820
#
# Compressibility (1/GPa) = 0.01843988
#
# Stress axis : x y z
#
# Youngs Moduli (GPa) = 77.26989 77.26989 103.43407
#
# Poissons Ratio (x) = 0.17707 0.32396
# Poissons Ratio (y) = 0.17707 0.32396
# Poissons Ratio (z) = 0.24201 0.24201
#
# Static dielectric constant tensor:
#      x y z
#    x 3.566520 0.000000 0.000000 
#    y 0.000000 3.566520 0.000000 
#    z 0.000000 0.000000 3.895290 
# 
# 
# High freq. dielectric constant tensor:
#      x y z
#    x 1.764840 0.000000 0.000000 
#    y 0.000000 1.764840 0.000000 
#    z 0.000000 0.000000 1.761720 
# 
# From -- ./inp_files/2770.got.cif
#   From: 2010.03.12/outbox.cif.g09.slc.cpg/sg87_2_cif.got.tgz:2770.got - 2010.04.08 20:16:13.
