data_PCOD8303919
_publ_section_title
;
Structure prediction by ZEFSAII (Michael W. Deem and Ramdas Pophale) SiO2 
 PCOD8303919
Probable space group: I 4/M
;
_chemical_formula_sum "Si O2"
_cell_formula_units_Z 96
_cell_length_a 22.750104
_cell_length_b 22.750104
_cell_length_c 10.233678
_cell_angle_alpha 90.000000
_cell_angle_beta 90.000000
_cell_angle_gamma 90.000000
_cell_volume 5296.616396
_symmetry_space_group_name_H-M "I 4/M"
_symmetry_group_IT_number 87
_symmetry_cell_setting 'tetragonal'
loop_
_space_group_symop_operation_xyz
x,y,z
-y,x,z
-x,-y,z
y,-x,z
-x,-y,-z
y,-x,-z
x,y,-z
-y,x,-z
1/2+x,1/2+y,1/2+z
1/2-y,1/2+x,1/2+z
1/2-x,1/2-y,1/2+z
1/2+y,1/2-x,1/2+z
1/2-x,1/2-y,1/2-z
1/2+y,1/2-x,1/2-z
1/2+x,1/2+y,1/2-z
1/2-y,1/2+x,1/2-z
loop_
_atom_site_type_symbol
_atom_site_label
_atom_site_fract_x
_atom_site_fract_y
_atom_site_fract_z
Si Si1 0.211889 0.369292 0.755599
Si Si2 0.425986 0.831589 0.500000
Si Si3 0.058901 0.343999 0.500000
Si Si4 0.937869 0.678242 0.000000
Si Si5 0.075933 0.654052 0.500000
Si Si6 0.222165 0.610789 0.238173
Si Si7 0.155637 0.839630 0.344513
Si Si8 0.428067 0.442486 0.155023
O O1 0.206175 0.406443 0.624157
O O2 0.172414 0.311374 0.747123
O O3 0.277611 0.346224 0.772485
O O4 0.193740 0.411527 0.874019
O O5 0.399345 0.897269 0.500000
O O6 0.495030 0.840497 0.500000
O O7 0.069093 0.304932 0.627768
O O8 0.991811 0.366710 0.500000
O O9 0.903263 0.616640 0.000000
O O10 0.922940 0.717890 0.124976
O O11 0.289149 0.623173 0.203899
O O12 0.158535 0.830612 0.500000
O O13 0.098437 0.875294 0.296322
O O14 0.491057 0.418153 0.206535
O O15 0.429764 0.441607 0.000000
#
# Coordination Sequence:
#
# PCOD8303919 Si02
#       8
#    16   8   8   8   8  16  16  16
#     4  10  21  37  55  80 114 145 183 234 283 331
#     4  10  22  38  55  81 118 154 184 228 289 338
#     4  10  20  36  59  83 110 148 194 240 275 320
#     4  10  22  38  55  81 118 154 184 228 289 338
#     4  10  20  36  59  83 110 148 194 240 275 320
#     4  10  21  37  55  80 114 145 183 234 283 331
#     4  11  20  34  57  85 103 143 191 227 276 341
#     4   8  16  30  46  71 107 135 162 214 273 317
#
# _framework density 18.124777999999999
#
# number of rings (size 3 to 8) (size 9 to 14) (size 15 to 20)
#    0.000    2.167    1.667    2.000    0.000    3.667 
#    0.000    0.000    0.000    6.000    0.000    0.000 
#    0.000    4.000    0.000    0.000    0.000    0.000 
#
# Total GULP energy -595263.517788 kJ/mol
# GULP energy per Si atom -12401.323287 kJ/mol
# Density = 1.808353 g / cm^3
# Si number density = 18.124778 Si / 1000 Ang^3
#
#
#
# Elastic Constant Matrix: (Units=GPa)
#
#
# Indices 1 2 3 4 5 6 
#
# 1 70.7023 10.8957 21.8893 0.0000 0.0000 -1.5980
# 2 10.8957 70.7023 21.8893 0.0000 0.0000 1.5980
# 3 21.8893 21.8893 110.9769 0.0000 0.0000 0.0000
# 4 0.0000 0.0000 0.0000 6.1980 0.0000 0.0000
# 5 0.0000 0.0000 0.0000 0.0000 6.1980 0.0000
# 6 -1.5980 1.5980 0.0000 0.0000 0.0000 16.5325
#
#
#
# Elastic Compliance Matrix: (Units=1/GPa)
#
#
# Indices 1 2 3 4 5 6 
#
# 1 0.015256 -0.001551 -0.002703 0.000000 0.000000 0.001625
# 2 -0.001551 0.015256 -0.002703 0.000000 0.000000 -0.001625
# 3 -0.002703 -0.002703 0.010077 0.000000 0.000000 0.000000
# 4 0.000000 0.000000 0.000000 0.161342 0.000000 0.000000
# 5 0.000000 0.000000 0.000000 0.000000 0.161342 0.000000
# 6 0.001625 -0.001625 0.000000 0.000000 0.000000 0.060801
#
#
# Mechanical properties :
#
#
# Convention : Reuss Voigt Hill
#
# Bulk Modulus (GPa) = 37.48800 40.19221 38.84011
# Shear Modulus (GPa) = 11.18861 18.96618 15.07740
#
# Velocity S-wave (km/s) = 2.48727 3.23836 2.88734
# Velocity P-wave (km/s) = 5.38302 6.01714 5.70889
#
# Compressibility (1/GPa) = 0.02667520
#
# Stress axis : x y z
#
# Youngs Moduli (GPa) = 65.54594 65.54594 99.23304
#
# Poissons Ratio (x) = 0.10166 0.26826
# Poissons Ratio (y) = 0.10166 0.26826
# Poissons Ratio (z) = 0.17719 0.17719
#
# Static dielectric constant tensor:
#      x y z
#    x 3.344260 0.000000 0.000000 
#    y 0.000000 3.344260 0.000000 
#    z 0.000000 0.000000 3.288630 
# 
# 
# High freq. dielectric constant tensor:
#      x y z
#    x 1.703330 0.000000 0.000000 
#    y 0.000000 1.703330 0.000000 
#    z 0.000000 0.000000 1.693220 
# 
# From -- ./inp_files/2814.got.cif
#   From: 2010.03.12/outbox.cif.g09.slc.cpg/sg87_2_cif.got.tgz:2814.got - 2010.04.08 20:16:13.
