data_PCOD8303402
_publ_section_title
;
Structure prediction by ZEFSAII (Michael W. Deem and Ramdas Pophale) SiO2 
 PCOD8303402
Probable space group: P 42/M
;
_chemical_formula_sum "Si O2"
_cell_formula_units_Z 22
_cell_length_a 5.459711
_cell_length_b 5.459711
_cell_length_c 28.685876
_cell_angle_alpha 90.000000
_cell_angle_beta 90.000000
_cell_angle_gamma 90.000000
_cell_volume 855.081334
_symmetry_space_group_name_H-M "P 42/M"
_symmetry_group_IT_number 84
_symmetry_cell_setting 'tetragonal'
loop_
_space_group_symop_operation_xyz
x,y,z
-y,x,1/2+z
-x,-y,z
y,-x,1/2+z
-x,-y,-z
y,-x,1/2-z
x,y,-z
-y,x,1/2-z
loop_
_atom_site_type_symbol
_atom_site_label
_atom_site_fract_x
_atom_site_fract_y
_atom_site_fract_z
Si Si1 0.249698 0.636859 0.100519
Si Si2 0.500000 0.500000 0.250000
Si Si3 0.148897 0.249996 0.500000
Si Si4 0.128978 0.250279 0.692301
O O1 0.500000 0.500000 0.113073
O O2 0.250212 0.690293 0.045952
O O3 0.243916 0.866159 0.135574
O O4 0.000000 0.500000 0.113131
O O5 0.720181 0.395541 0.216767
O O6 0.000000 0.500000 0.500000
O O7 0.000000 0.000000 0.500000
O O8 0.000000 0.500000 0.708253
O O9 0.000000 0.000000 0.710166
#
# Coordination Sequence:
#
# PCOD8303402 Si02
#       4
#     8   2   4   8
#     4  12  24  46  73 109 152 200 256 320 395 482
#     4  12  32  52  76 118 156 204 284 328 420 474
#     4  12  24  42  70 108 148 198 256 309 391 484
#     4  12  29  51  81 113 159 209 267 335 409 487
#
# _framework density 25.728543999999999
#
# number of rings (size 3 to 8) (size 9 to 14) (size 15 to 20)
#    0.000    0.000    1.818    7.636    5.091    0.000 
#    0.000    0.000    0.000    0.000    0.000    0.000 
#    0.000    0.000    0.000    0.000    0.000    0.000 
#
# Total GULP energy -272614.339586 kJ/mol
# GULP energy per Si atom -12391.560890 kJ/mol
# Density = 2.566999 g / cm^3
# Si number density = 25.728544 Si / 1000 Ang^3
#
#
#
# Elastic Constant Matrix: (Units=GPa)
#
#
# Indices 1 2 3 4 5 6 
#
# 1 178.6334 65.5386 28.3048 0.0000 0.0000 -0.1961
# 2 65.5386 178.6334 28.3048 0.0000 0.0000 0.1961
# 3 28.3048 28.3048 166.1090 0.0000 0.0000 0.0000
# 4 0.0000 0.0000 0.0000 23.1356 0.0000 0.0000
# 5 0.0000 0.0000 0.0000 0.0000 23.1356 0.0000
# 6 -0.1961 0.1961 0.0000 0.0000 0.0000 53.9762
#
#
#
# Elastic Compliance Matrix: (Units=1/GPa)
#
#
# Indices 1 2 3 4 5 6 
#
# 1 0.006553 -0.002289 -0.000727 0.000000 0.000000 0.000032
# 2 -0.002289 0.006553 -0.000727 0.000000 0.000000 -0.000032
# 3 -0.000727 -0.000727 0.006268 0.000000 0.000000 0.000000
# 4 0.000000 0.000000 0.000000 0.043223 0.000000 0.000000
# 5 0.000000 0.000000 0.000000 0.000000 0.043223 0.000000
# 6 0.000032 -0.000032 0.000000 0.000000 0.000000 0.018527
#
#
# Mechanical properties :
#
#
# Convention : Reuss Voigt Hill
#
# Bulk Modulus (GPa) = 84.10904 85.29692 84.70298
# Shear Modulus (GPa) = 36.82013 46.79800 41.80907
#
# Velocity S-wave (km/s) = 3.78709 4.26950 4.03551
# Velocity P-wave (km/s) = 7.20310 7.58482 7.39642
#
# Compressibility (1/GPa) = 0.01188933
#
# Stress axis : x y z
#
# Youngs Moduli (GPa) = 152.59987 152.59987 159.54673
#
# Poissons Ratio (x) = 0.34933 0.11592
# Poissons Ratio (y) = 0.34933 0.11592
# Poissons Ratio (z) = 0.11087 0.11087
#
# Static dielectric constant tensor:
#      x y z
#    x 4.763980 0.000000 0.000000 
#    y 0.000000 4.763980 0.000000 
#    z 0.000000 0.000000 6.683740 
# 
# 
# High freq. dielectric constant tensor:
#      x y z
#    x 2.029990 0.000000 0.000000 
#    y 0.000000 2.029990 0.000000 
#    z 0.000000 0.000000 2.065540 
# 
# From -- ./inp_files/5536.got.cif
#   From: 2010.03.12/outbox.cif.g09.slc.cpg/sg84_3_cif.got.tgz:5536.got - 2010.04.08 20:07:29.
