data_PCOD8303766
_publ_section_title
;
Structure prediction by ZEFSAII (Michael W. Deem and Ramdas Pophale) SiO2 
 PCOD8303766
Probable space group: I 4/M
;
_chemical_formula_sum "Si O2"
_cell_formula_units_Z 64
_cell_length_a 21.429606
_cell_length_b 21.429606
_cell_length_c 9.213777
_cell_angle_alpha 90.000000
_cell_angle_beta 90.000000
_cell_angle_gamma 90.000000
_cell_volume 4231.224507
_symmetry_space_group_name_H-M "I 4/M"
_symmetry_group_IT_number 87
_symmetry_cell_setting 'tetragonal'
loop_
_space_group_symop_operation_xyz
x,y,z
-y,x,z
-x,-y,z
y,-x,z
-x,-y,-z
y,-x,-z
x,y,-z
-y,x,-z
1/2+x,1/2+y,1/2+z
1/2-y,1/2+x,1/2+z
1/2-x,1/2-y,1/2+z
1/2+y,1/2-x,1/2+z
1/2-x,1/2-y,1/2-z
1/2+y,1/2-x,1/2-z
1/2+x,1/2+y,1/2-z
1/2-y,1/2+x,1/2-z
loop_
_atom_site_type_symbol
_atom_site_label
_atom_site_fract_x
_atom_site_fract_y
_atom_site_fract_z
Si Si1 0.431305 0.161232 0.169349
Si Si2 0.265366 0.657908 0.160294
Si Si3 0.155824 0.757904 0.838292
Si Si4 0.576496 0.163822 0.170393
O O1 0.405189 0.230123 0.211827
O O2 0.503740 0.158646 0.204913
O O3 0.397417 0.108374 0.263164
O O4 0.416765 0.148274 0.000000
O O5 0.213756 0.711633 0.156224
O O6 0.321464 0.676579 0.268124
O O7 0.294288 0.649036 0.000000
O O8 0.101226 0.727514 0.742396
O O9 0.130570 0.771580 0.000000
O O10 0.590703 0.166652 0.000000
#
# Coordination Sequence:
#
# PCOD8303766 Si02
#       4
#    16  16  16  16
#     4   9  19  32  43  59  83 111 144 177 205 240
#     4   8  14  26  42  58  78 103 132 168 208 246
#     4   9  16  26  41  61  82 102 130 169 210 250
#     4  10  19  30  44  60  81 112 145 174 207 243
#
# _framework density 15.125643999999999
#
# number of rings (size 3 to 8) (size 9 to 14) (size 15 to 20)
#    0.000    3.000    0.000    3.000    0.000    8.500 
#    0.000    2.500    0.000    0.000    0.000    0.000 
#    0.000    1.000    0.000   11.500    0.000    5.000 
#
# Total GULP energy -396656.216105 kJ/mol
# GULP energy per Si atom -12395.506753 kJ/mol
# Density = 1.509122 g / cm^3
# Si number density = 15.125644 Si / 1000 Ang^3
#
#
#
# Elastic Constant Matrix: (Units=GPa)
#
#
# Indices 1 2 3 4 5 6 
#
# 1 66.0207 66.7847 59.4649 0.0000 0.0000 -0.5715
# 2 66.7847 66.0207 59.4649 0.0000 0.0000 0.5715
# 3 59.4649 59.4649 110.6163 0.0000 0.0000 0.0000
# 4 0.0000 0.0000 0.0000 22.0837 0.0000 0.0000
# 5 0.0000 0.0000 0.0000 0.0000 22.0837 0.0000
# 6 -0.5715 0.5715 0.0000 0.0000 0.0000 14.0719
#
#
#
# Elastic Compliance Matrix: (Units=1/GPa)
#
#
# Indices 1 2 3 4 5 6 
#
# 1 -0.609643 0.624163 -0.007806 0.000000 0.000000 -0.050111
# 2 0.624163 -0.609643 -0.007806 0.000000 0.000000 0.050111
# 3 -0.007806 -0.007806 0.017432 0.000000 0.000000 0.000000
# 4 0.000000 0.000000 0.000000 0.045282 0.000000 0.000000
# 5 0.000000 0.000000 0.000000 0.000000 0.045282 0.000000
# 6 -0.050111 0.050111 0.000000 0.000000 0.000000 0.066993
#
#
# Mechanical properties :
#
#
# Convention : Reuss Voigt Hill
#
# Bulk Modulus (GPa) = 65.57410 68.23186 66.90298
# Shear Modulus (GPa) = -2.21600 15.44409 6.61404
#
# Velocity S-wave (km/s) = -1.21171 3.19886 2.09338
# Velocity P-wave (km/s) = 6.44123 7.67148 7.08311
#
# Compressibility (1/GPa) = 0.01524992
#
# Stress axis : x y z
#
# Youngs Moduli (GPa) = -1.64030 -1.64030 57.36440
#
# Poissons Ratio (x) = 1.02382 0.44776
# Poissons Ratio (y) = 1.02382 0.44776
# Poissons Ratio (z) = -0.01280 -0.01280
#
# Static dielectric constant tensor:
#      x y z
#    x 2.813180 0.000000 0.000000 
#    y 0.000000 2.813180 0.000000 
#    z 0.000000 0.000000 3.148290 
# 
# 
# High freq. dielectric constant tensor:
#      x y z
#    x 1.550170 0.000000 0.000000 
#    y 0.000000 1.550170 0.000000 
#    z 0.000000 0.000000 1.594020 
# 
# From -- ./inp_files/925.got.cif
#   From: 2010.03.12/outbox.cif.g09.slc.cpg/sg87_1_cif.got.tgz:925.got - 2010.04.08 20:16:13.
