data_PCOD8303794
_publ_section_title
;
Structure prediction by ZEFSAII (Michael W. Deem and Ramdas Pophale) SiO2 
 PCOD8303794
Probable space group: I 4/M
;
_chemical_formula_sum "Si O2"
_cell_formula_units_Z 96
_cell_length_a 20.761843
_cell_length_b 20.761843
_cell_length_c 11.947694
_cell_angle_alpha 90.000000
_cell_angle_beta 90.000000
_cell_angle_gamma 90.000000
_cell_volume 5150.102780
_symmetry_space_group_name_H-M "I 4/M"
_symmetry_group_IT_number 87
_symmetry_cell_setting 'tetragonal'
loop_
_space_group_symop_operation_xyz
x,y,z
-y,x,z
-x,-y,z
y,-x,z
-x,-y,-z
y,-x,-z
x,y,-z
-y,x,-z
1/2+x,1/2+y,1/2+z
1/2-y,1/2+x,1/2+z
1/2-x,1/2-y,1/2+z
1/2+y,1/2-x,1/2+z
1/2-x,1/2-y,1/2-z
1/2+y,1/2-x,1/2-z
1/2+x,1/2+y,1/2-z
1/2-y,1/2+x,1/2-z
loop_
_atom_site_type_symbol
_atom_site_label
_atom_site_fract_x
_atom_site_fract_y
_atom_site_fract_z
Si Si1 0.983436 0.902198 0.367805
Si Si2 0.861110 0.581782 0.627500
Si Si3 0.833808 0.743229 0.867296
Si Si4 0.830746 0.451367 0.734372
Si Si5 0.244687 0.148335 0.761842
Si Si6 0.730915 0.522956 0.869779
O O1 0.985336 0.908806 0.500000
O O2 0.052848 0.926884 0.319557
O O3 0.974674 0.827461 0.335941
O O4 0.883076 0.593310 0.500000
O O5 0.853842 0.504971 0.645595
O O6 0.914522 0.608118 0.714038
O O7 0.794937 0.621149 0.646262
O O8 0.903346 0.720363 0.822783
O O9 0.814054 0.813968 0.821609
O O10 0.779369 0.693810 0.828061
O O11 0.836201 0.745024 0.000000
O O12 0.797020 0.489406 0.835703
O O13 0.216076 0.089108 0.693403
O O14 0.733486 0.538654 0.000000
#
# Coordination Sequence:
#
# PCOD8303794 Si02
#       6
#    16  16  16  16  16  16
#     4   8  15  27  43  66  98 135 166 197 253 311
#     4  10  20  39  57  77 109 141 173 222 268 315
#     4  10  19  35  54  77 106 138 177 225 267 315
#     4  10  22  35  55  81 104 140 188 216 264 325
#     4   9  20  33  53  80 105 137 178 212 269 329
#     4  10  19  32  50  77 109 138 173 223 265 312
#
# _framework density 18.640405000000001
#
# number of rings (size 3 to 8) (size 9 to 14) (size 15 to 20)
#    0.000    2.500    0.000    2.500    2.333    0.333 
#    0.000    5.000    0.000    0.000    0.000    0.000 
#    0.000    1.333    0.000    0.000    0.000    0.000 
#
# Total GULP energy -594925.885854 kJ/mol
# GULP energy per Si atom -12394.289289 kJ/mol
# Density = 1.859798 g / cm^3
# Si number density = 18.640405 Si / 1000 Ang^3
#
#
#
# Elastic Constant Matrix: (Units=GPa)
#
#
# Indices 1 2 3 4 5 6 
#
# 1 89.4237 28.5474 32.4736 0.0000 0.0000 -2.6142
# 2 28.5474 89.4237 32.4736 0.0000 0.0000 2.6142
# 3 32.4736 32.4736 102.4895 0.0000 0.0000 0.0000
# 4 0.0000 0.0000 0.0000 17.7284 0.0000 0.0000
# 5 0.0000 0.0000 0.0000 0.0000 17.7284 0.0000
# 6 -2.6142 2.6142 0.0000 0.0000 0.0000 27.6039
#
#
#
# Elastic Compliance Matrix: (Units=1/GPa)
#
#
# Indices 1 2 3 4 5 6 
#
# 1 0.013415 -0.003147 -0.003253 0.000000 0.000000 0.001568
# 2 -0.003147 0.013415 -0.003253 0.000000 0.000000 -0.001568
# 3 -0.003253 -0.003253 0.011819 0.000000 0.000000 0.000000
# 4 0.000000 0.000000 0.000000 0.056407 0.000000 0.000000
# 5 0.000000 0.000000 0.000000 0.000000 0.056407 0.000000
# 6 0.001568 -0.001568 0.000000 0.000000 0.000000 0.036524
#
#
# Mechanical properties :
#
#
# Convention : Reuss Voigt Hill
#
# Bulk Modulus (GPa) = 51.70389 52.03624 51.87007
# Shear Modulus (GPa) = 23.39298 25.13493 24.26395
#
# Velocity S-wave (km/s) = 3.54639 3.67606 3.61180
# Velocity P-wave (km/s) = 6.67584 6.78191 6.72908
#
# Compressibility (1/GPa) = 0.01934090
#
# Stress axis : x y z
#
# Youngs Moduli (GPa) = 74.54567 74.54567 84.61162
#
# Poissons Ratio (x) = 0.23459 0.27527
# Poissons Ratio (y) = 0.23459 0.27527
# Poissons Ratio (z) = 0.24252 0.24252
#
# Static dielectric constant tensor:
#      x y z
#    x 3.545140 0.000000 0.000000 
#    y 0.000000 3.545140 0.000000 
#    z 0.000000 0.000000 3.115880 
# 
# 
# High freq. dielectric constant tensor:
#      x y z
#    x 1.726290 0.000000 0.000000 
#    y 0.000000 1.726290 0.000000 
#    z 0.000000 0.000000 1.700800 
# 
# From -- ./inp_files/2765.got.cif
#   From: 2010.03.12/outbox.cif.g09.slc.cpg/sg87_2_cif.got.tgz:2765.got - 2010.04.08 20:16:13.
