data_PCOD8303774
_publ_section_title
;
Structure prediction by ZEFSAII (Michael W. Deem and Ramdas Pophale) SiO2 
 PCOD8303774
Probable space group: I 4/M
;
_chemical_formula_sum "Si O2"
_cell_formula_units_Z 96
_cell_length_a 23.252498
_cell_length_b 23.252498
_cell_length_c 9.396677
_cell_angle_alpha 90.000000
_cell_angle_beta 90.000000
_cell_angle_gamma 90.000000
_cell_volume 5080.582759
_symmetry_space_group_name_H-M "I 4/M"
_symmetry_group_IT_number 87
_symmetry_cell_setting 'tetragonal'
loop_
_space_group_symop_operation_xyz
x,y,z
-y,x,z
-x,-y,z
y,-x,z
-x,-y,-z
y,-x,-z
x,y,-z
-y,x,-z
1/2+x,1/2+y,1/2+z
1/2-y,1/2+x,1/2+z
1/2-x,1/2-y,1/2+z
1/2+y,1/2-x,1/2+z
1/2-x,1/2-y,1/2-z
1/2+y,1/2-x,1/2-z
1/2+x,1/2+y,1/2-z
1/2-y,1/2+x,1/2-z
loop_
_atom_site_type_symbol
_atom_site_label
_atom_site_fract_x
_atom_site_fract_y
_atom_site_fract_z
Si Si1 0.476342 0.837626 0.833680
Si Si2 0.778465 0.835939 0.163816
Si Si3 0.916828 0.629852 0.838763
Si Si4 0.994329 0.090220 0.331467
Si Si5 0.177992 0.285177 0.840180
Si Si6 0.552060 0.290331 0.831591
O O1 0.417970 0.870381 0.792302
O O2 0.527573 0.872016 0.759319
O O3 0.472908 0.771281 0.780901
O O4 0.488421 0.839330 0.000000
O O5 0.823357 0.783394 0.180791
O O6 0.717230 0.815846 0.223704
O O7 0.803345 0.888080 0.254275
O O8 0.770392 0.854201 0.000000
O O9 0.886688 0.691907 0.821171
O O10 0.937066 0.618989 0.000000
O O11 0.993394 0.087316 0.500000
O O12 0.989944 0.157204 0.284439
O O13 0.053176 0.060826 0.274274
O O14 0.200591 0.300850 0.000000
O O15 0.563248 0.289666 0.000000
#
# Coordination Sequence:
#
# PCOD8303774 Si02
#       6
#    16  16  16  16  16  16
#     4  10  22  38  56  79 106 138 179 225 272 327
#     4  10  19  30  52  82 108 138 177 215 256 318
#     4  10  21  39  58  76 107 143 175 221 275 321
#     4   8  15  29  51  80 110 142 182 223 261 305
#     4   9  18  35  54  75 107 142 172 212 269 320
#     4  10  19  34  55  79 112 144 175 223 273 313
#
# _framework density 18.89547
#
# number of rings (size 3 to 8) (size 9 to 14) (size 15 to 20)
#    0.000    2.500    1.667    1.000    0.000    4.333 
#    0.000    3.333    0.000    1.000    0.000    1.167 
#    0.000    0.000    0.000    0.000    0.000    0.000 
#
# Total GULP energy -595019.625325 kJ/mol
# GULP energy per Si atom -12396.242194 kJ/mol
# Density = 1.885246 g / cm^3
# Si number density = 18.895470 Si / 1000 Ang^3
#
#
#
# Elastic Constant Matrix: (Units=GPa)
#
#
# Indices 1 2 3 4 5 6 
#
# 1 104.6212 47.5076 29.7525 0.0000 0.0000 7.5415
# 2 47.5076 104.6212 29.7525 0.0000 0.0000 -7.5415
# 3 29.7525 29.7525 43.1196 0.0000 0.0000 0.0000
# 4 0.0000 0.0000 0.0000 24.7574 0.0000 0.0000
# 5 0.0000 0.0000 0.0000 0.0000 24.7574 0.0000
# 6 7.5415 -7.5415 0.0000 0.0000 0.0000 19.3696
#
#
#
# Elastic Compliance Matrix: (Units=1/GPa)
#
#
# Indices 1 2 3 4 5 6 
#
# 1 0.014259 -0.005256 -0.006212 0.000000 0.000000 -0.007598
# 2 -0.005256 0.014259 -0.006212 0.000000 0.000000 0.007598
# 3 -0.006212 -0.006212 0.031764 0.000000 0.000000 0.000000
# 4 0.000000 0.000000 0.000000 0.040392 0.000000 0.000000
# 5 0.000000 0.000000 0.000000 0.000000 0.040392 0.000000
# 6 -0.007598 0.007598 0.000000 0.000000 0.000000 0.057544
#
#
# Mechanical properties :
#
#
# Convention : Reuss Voigt Hill
#
# Bulk Modulus (GPa) = 40.12562 51.82082 45.97322
# Shear Modulus (GPa) = 20.63730 23.46683 22.05207
#
# Velocity S-wave (km/s) = 3.30840 3.52792 3.41993
# Velocity P-wave (km/s) = 5.98963 6.63924 6.32279
#
# Compressibility (1/GPa) = 0.02492173
#
# Stress axis : x y z
#
# Youngs Moduli (GPa) = 70.12893 70.12893 31.48193
#
# Poissons Ratio (x) = 0.36861 0.19557
# Poissons Ratio (y) = 0.36861 0.19557
# Poissons Ratio (z) = 0.43566 0.43566
#
# Static dielectric constant tensor:
#      x y z
#    x 3.501050 0.000000 0.000000 
#    y 0.000000 3.501050 0.000000 
#    z 0.000000 0.000000 3.263720 
# 
# 
# High freq. dielectric constant tensor:
#      x y z
#    x 1.728970 0.000000 0.000000 
#    y 0.000000 1.728970 0.000000 
#    z 0.000000 0.000000 1.711660 
# 
# From -- ./inp_files/1422.got.cif
#   From: 2010.03.12/outbox.cif.g09.slc.cpg/sg87_1_cif.got.tgz:1422.got - 2010.04.08 20:16:13.
