data_PCOD8303181
_publ_section_title
;
Structure prediction by ZEFSAII (Michael W. Deem and Ramdas Pophale) SiO2 
 PCOD8303181
Probable space group: P 42/M
;
_chemical_formula_sum "Si O2"
_cell_formula_units_Z 64
_cell_length_a 17.074889
_cell_length_b 17.074889
_cell_length_c 13.524652
_cell_angle_alpha 90.000000
_cell_angle_beta 90.000000
_cell_angle_gamma 90.000000
_cell_volume 3943.137100
_symmetry_space_group_name_H-M "P 42/M"
_symmetry_group_IT_number 84
_symmetry_cell_setting 'tetragonal'
loop_
_space_group_symop_operation_xyz
x,y,z
-y,x,1/2+z
-x,-y,z
y,-x,1/2+z
-x,-y,-z
y,-x,1/2-z
x,y,-z
-y,x,1/2-z
loop_
_atom_site_type_symbol
_atom_site_label
_atom_site_fract_x
_atom_site_fract_y
_atom_site_fract_z
Si Si1 0.300894 0.637359 0.610354
Si Si2 0.762468 0.821423 0.115586
Si Si3 0.028881 0.911872 0.111987
Si Si4 0.274713 0.999559 0.110141
Si Si5 0.168053 0.910035 0.260554
Si Si6 0.932044 0.553547 0.611696
Si Si7 0.755996 0.535009 0.612385
Si Si8 0.438144 0.611195 0.249693
O O1 0.321480 0.660631 0.500000
O O2 0.240381 0.699299 0.654469
O O3 0.254034 0.557146 0.617149
O O4 0.385635 0.638302 0.659598
O O5 0.729476 0.908499 0.132981
O O6 0.831391 0.800406 0.191068
O O7 0.785145 0.810118 0.000000
O O8 0.096955 0.892503 0.187730
O O9 0.957908 0.856575 0.142387
O O10 0.055064 0.893623 0.000000
O O11 0.000000 0.000000 0.123537
O O12 0.232098 0.953428 0.196226
O O13 0.361493 0.968367 0.113113
O O14 0.238463 0.983737 0.000000
O O15 0.920251 0.521807 0.500000
O O16 0.843383 0.552860 0.658838
O O17 0.000000 0.500000 0.664133
O O18 0.751553 0.567381 0.500000
O O19 0.681104 0.571649 0.669816
O O20 0.527536 0.597576 0.287702
#
# Coordination Sequence:
#
# PCOD8303181 Si02
#       8
#     8   8   8   8   8   8   8   8
#     4   9  18  32  50  71  97 130 162 200 244 288
#     4  10  20  33  49  68  95 126 163 206 246 288
#     4  11  20  32  48  66  91 124 161 198 238 288
#     4  10  20  32  48  71  97 125 158 202 250 293
#     4  12  19  32  45  69  94 126 161 195 243 288
#     4   9  17  30  49  72  98 125 158 200 244 292
#     4   9  17  30  49  73 100 129 159 195 246 294
#     4   9  18  31  48  74 104 132 162 196 236 291
#
# _framework density 16.230732
#
# number of rings (size 3 to 8) (size 9 to 14) (size 15 to 20)
#    0.000    2.125    2.500    1.500    1.750    5.500 
#    0.000    2.500    0.000    0.000    0.000    0.000 
#    0.000    2.500    0.000    0.000    0.000    0.000 
#
# Total GULP energy -792917.200558 kJ/mol
# GULP energy per Si atom -12389.331259 kJ/mol
# Density = 1.619379 g / cm^3
# Si number density = 16.230732 Si / 1000 Ang^3
#
#
#
# Elastic Constant Matrix: (Units=GPa)
#
#
# Indices 1 2 3 4 5 6 
#
# 1 88.5261 53.3837 37.2841 0.0000 0.0000 1.8709
# 2 53.3837 88.5261 37.2841 0.0000 0.0000 -1.8709
# 3 37.2841 37.2841 55.6856 0.0000 0.0000 0.0000
# 4 0.0000 0.0000 0.0000 14.4045 0.0000 0.0000
# 5 0.0000 0.0000 0.0000 0.0000 14.4045 0.0000
# 6 1.8709 -1.8709 0.0000 0.0000 0.0000 28.2465
#
#
#
# Elastic Compliance Matrix: (Units=1/GPa)
#
#
# Indices 1 2 3 4 5 6 
#
# 1 0.019765 -0.008893 -0.007279 0.000000 0.000000 -0.001898
# 2 -0.008893 0.019765 -0.007279 0.000000 0.000000 0.001898
# 3 -0.007279 -0.007279 0.027705 0.000000 0.000000 0.000000
# 4 0.000000 0.000000 0.000000 0.069423 0.000000 0.000000
# 5 0.000000 0.000000 0.000000 0.000000 0.069423 0.000000
# 6 -0.001898 0.001898 0.000000 0.000000 0.000000 0.035654
#
#
# Mechanical properties :
#
#
# Convention : Reuss Voigt Hill
#
# Bulk Modulus (GPa) = 49.18280 54.29349 51.73814
# Shear Modulus (GPa) = 16.92539 18.39681 17.66110
#
# Velocity S-wave (km/s) = 3.23274 3.37034 3.30226
# Velocity P-wave (km/s) = 6.65599 6.97633 6.81804
#
# Compressibility (1/GPa) = 0.02033231
#
# Stress axis : x y z
#
# Youngs Moduli (GPa) = 50.59531 50.59531 36.09429
#
# Poissons Ratio (x) = 0.44995 0.26273
# Poissons Ratio (y) = 0.44995 0.26273
# Poissons Ratio (z) = 0.36828 0.36828
#
# Static dielectric constant tensor:
#      x y z
#    x 3.154060 0.000000 0.000000 
#    y 0.000000 3.154060 0.000000 
#    z 0.000000 0.000000 3.504990 
# 
# 
# High freq. dielectric constant tensor:
#      x y z
#    x 1.627910 0.000000 0.000000 
#    y 0.000000 1.627910 0.000000 
#    z 0.000000 0.000000 1.600750 
# 
# From -- ./inp_files/2354.got.cif
#   From: 2010.03.12/outbox.cif.g09.slc.cpg/sg84_2_cif.got.tgz:2354.got - 2010.04.08 20:07:29.
