data_PCOD8303725
_publ_section_title
;
Structure prediction by ZEFSAII (Michael W. Deem and Ramdas Pophale) SiO2 
 PCOD8303725
Probable space group: I 4/M
;
_chemical_formula_sum "Si O2"
_cell_formula_units_Z 96
_cell_length_a 21.016164
_cell_length_b 21.016164
_cell_length_c 13.249165
_cell_angle_alpha 90.000000
_cell_angle_beta 90.000000
_cell_angle_gamma 90.000000
_cell_volume 5851.879926
_symmetry_space_group_name_H-M "I 4/M"
_symmetry_group_IT_number 87
_symmetry_cell_setting 'tetragonal'
loop_
_space_group_symop_operation_xyz
x,y,z
-y,x,z
-x,-y,z
y,-x,z
-x,-y,-z
y,-x,-z
x,y,-z
-y,x,-z
1/2+x,1/2+y,1/2+z
1/2-y,1/2+x,1/2+z
1/2-x,1/2-y,1/2+z
1/2+y,1/2-x,1/2+z
1/2-x,1/2-y,1/2-z
1/2+y,1/2-x,1/2-z
1/2+x,1/2+y,1/2-z
1/2-y,1/2+x,1/2-z
loop_
_atom_site_type_symbol
_atom_site_label
_atom_site_fract_x
_atom_site_fract_y
_atom_site_fract_z
Si Si1 0.732315 0.526713 0.618320
Si Si2 0.642677 0.815284 0.114684
Si Si3 0.834622 0.210207 0.115949
Si Si4 0.250533 0.600920 0.697344
Si Si5 0.610956 0.079810 0.116717
Si Si6 0.368453 0.052824 0.806123
O O1 0.747683 0.517365 0.500000
O O2 0.690677 0.590670 0.634214
O O3 0.705416 0.460485 0.665966
O O4 0.795223 0.537502 0.681591
O O5 0.716859 0.820737 0.147153
O O6 0.604276 0.765279 0.183590
O O7 0.611184 0.884775 0.130441
O O8 0.634927 0.792870 0.000000
O O9 0.790023 0.164486 0.178842
O O10 0.817405 0.200564 0.000000
O O11 0.184961 0.598809 0.633755
O O12 0.564688 0.122093 0.186467
O O13 0.594010 0.007608 0.149938
O O14 0.593794 0.091027 0.000000
#
# Coordination Sequence:
#
# PCOD8303725 Si02
#       6
#    16  16  16  16  16  16
#     4   9  17  30  46  64  89 116 142 174 213 261
#     4   9  17  28  44  66  91 116 142 177 216 255
#     4   9  16  27  45  68  90 113 142 175 215 258
#     4  10  17  28  48  67  86 114 147 177 212 257
#     4  10  19  31  45  61  83 110 146 185 215 251
#     4   9  17  30  44  60  83 115 146 175 214 254
#
# _framework density 16.404983999999999
#
# number of rings (size 3 to 8) (size 9 to 14) (size 15 to 20)
#    0.000    2.667    0.000    5.500    0.000    0.333 
#    0.000   10.000    0.000    1.500    0.000    2.333 
#    0.000    0.000    0.000    1.500    0.000    0.167 
#
# Total GULP energy -594683.988343 kJ/mol
# GULP energy per Si atom -12389.249757 kJ/mol
# Density = 1.636765 g / cm^3
# Si number density = 16.404984 Si / 1000 Ang^3
#
#
#
# Elastic Constant Matrix: (Units=GPa)
#
#
# Indices 1 2 3 4 5 6 
#
# 1 56.2654 32.7264 44.4500 0.0000 0.0000 -1.3683
# 2 32.7264 56.2654 44.4500 0.0000 0.0000 1.3683
# 3 44.4500 44.4500 119.3620 0.0000 0.0000 0.0000
# 4 0.0000 0.0000 0.0000 18.9856 0.0000 0.0000
# 5 0.0000 0.0000 0.0000 0.0000 18.9856 0.0000
# 6 -1.3683 1.3683 0.0000 0.0000 0.0000 13.1319
#
#
#
# Elastic Compliance Matrix: (Units=1/GPa)
#
#
# Indices 1 2 3 4 5 6 
#
# 1 0.030449 -0.012555 -0.006664 0.000000 0.000000 0.004481
# 2 -0.012555 0.030449 -0.006664 0.000000 0.000000 -0.004481
# 3 -0.006664 -0.006664 0.013341 0.000000 0.000000 0.000000
# 4 0.000000 0.000000 0.000000 0.052672 0.000000 0.000000
# 5 0.000000 0.000000 0.000000 0.000000 0.052672 0.000000
# 6 0.004481 -0.004481 0.000000 0.000000 0.000000 0.077084
#
#
# Mechanical properties :
#
#
# Convention : Reuss Voigt Hill
#
# Bulk Modulus (GPa) = 44.49590 52.79395 48.64493
# Shear Modulus (GPa) = 15.82677 17.57172 16.69924
#
# Velocity S-wave (km/s) = 3.10942 3.27635 3.19397
# Velocity P-wave (km/s) = 6.33037 6.82379 6.58171
#
# Compressibility (1/GPa) = 0.02247398
#
# Stress axis : x y z
#
# Youngs Moduli (GPa) = 32.84226 32.84226 74.95791
#
# Poissons Ratio (x) = 0.41233 0.49948
# Poissons Ratio (y) = 0.41233 0.49948
# Poissons Ratio (z) = 0.21885 0.21885
#
# Static dielectric constant tensor:
#      x y z
#    x 3.145330 0.000000 0.000000 
#    y 0.000000 3.145330 0.000000 
#    z 0.000000 0.000000 3.055890 
# 
# 
# High freq. dielectric constant tensor:
#      x y z
#    x 1.609140 0.000000 0.000000 
#    y 0.000000 1.609140 0.000000 
#    z 0.000000 0.000000 1.629320 
# 
# From -- ./inp_files/2844.got.cif
#   From: 2010.03.12/outbox.cif.g09.slc.cpg/sg87_2_cif.got.tgz:2844.got - 2010.04.08 20:16:13.
