data_PCOD8303060
_publ_section_title
;
Structure prediction by ZEFSAII (Michael W. Deem and Ramdas Pophale) SiO2 
 PCOD8303060
Probable space group: P 42/M
;
_chemical_formula_sum "Si O2"
_cell_formula_units_Z 48
_cell_length_a 9.035323
_cell_length_b 9.035323
_cell_length_c 30.412906
_cell_angle_alpha 90.000000
_cell_angle_beta 90.000000
_cell_angle_gamma 90.000000
_cell_volume 2482.820284
_symmetry_space_group_name_H-M "P 42/M"
_symmetry_group_IT_number 84
_symmetry_cell_setting 'tetragonal'
loop_
_space_group_symop_operation_xyz
x,y,z
-y,x,1/2+z
-x,-y,z
y,-x,1/2+z
-x,-y,-z
y,-x,1/2-z
x,y,-z
-y,x,1/2-z
loop_
_atom_site_type_symbol
_atom_site_label
_atom_site_fract_x
_atom_site_fract_y
_atom_site_fract_z
Si Si1 0.876861 0.813701 0.884821
Si Si2 0.421357 0.343618 0.622868
Si Si3 0.421871 0.845114 0.314449
Si Si4 0.783151 0.098104 0.238259
Si Si5 0.214153 0.877324 0.137023
Si Si6 0.843326 0.575958 0.048668
O O1 0.805735 0.709406 0.848090
O O2 0.864944 0.742287 0.933021
O O3 0.045684 0.826305 0.868942
O O4 0.780356 0.964130 0.887306
O O5 0.500000 0.500000 0.619830
O O6 0.454741 0.275992 0.671736
O O7 0.241520 0.333572 0.618096
O O8 0.481041 0.254458 0.581441
O O9 0.356553 0.833469 0.265139
O O10 0.500000 0.000000 0.323766
O O11 0.743753 0.096710 0.187543
O O12 0.930249 0.194452 0.245485
O O13 0.000000 0.500000 0.045297
O O14 0.770727 0.584932 0.000000
#
# Coordination Sequence:
#
# PCOD8303060 Si02
#       6
#     8   8   8   8   8   8
#     4  10  17  34  63  85 111 139 197 251 290 339
#     4  11  23  41  57  83 124 161 191 238 311 370
#     4  11  19  37  57  79 111 158 201 244 285 345
#     4  11  18  32  56  86 110 148 206 252 290 334
#     4  11  19  35  57  86 116 153 196 246 300 346
#     4  10  20  39  66  90 113 149 198 239 294 374
#
# _framework density 19.332854999999999
#
# number of rings (size 3 to 8) (size 9 to 14) (size 15 to 20)
#    0.000    1.333    6.667    2.000    0.000    0.333 
#    6.000    5.833    0.000    1.000    0.000    0.000 
#    0.000    0.000    0.000    0.000    0.000    0.000 
#
# Total GULP energy -594748.272951 kJ/mol
# GULP energy per Si atom -12390.589020 kJ/mol
# Density = 1.928885 g / cm^3
# Si number density = 19.332855 Si / 1000 Ang^3
#
#
#
# Elastic Constant Matrix: (Units=GPa)
#
#
# Indices 1 2 3 4 5 6 
#
# 1 90.8593 24.9229 32.2473 0.0000 0.0000 2.8419
# 2 24.9229 90.8593 32.2473 0.0000 0.0000 -2.8419
# 3 32.2473 32.2473 127.7478 0.0000 0.0000 0.0000
# 4 0.0000 0.0000 0.0000 16.0525 0.0000 0.0000
# 5 0.0000 0.0000 0.0000 0.0000 16.0525 0.0000
# 6 2.8419 -2.8419 0.0000 0.0000 0.0000 29.2382
#
#
#
# Elastic Compliance Matrix: (Units=1/GPa)
#
#
# Indices 1 2 3 4 5 6 
#
# 1 0.012672 -0.002622 -0.002537 0.000000 0.000000 -0.001487
# 2 -0.002622 0.012672 -0.002537 0.000000 0.000000 0.001487
# 3 -0.002537 -0.002537 0.009109 0.000000 0.000000 0.000000
# 4 0.000000 0.000000 0.000000 0.062296 0.000000 0.000000
# 5 0.000000 0.000000 0.000000 0.000000 0.062296 0.000000
# 6 -0.001487 0.001487 0.000000 0.000000 0.000000 0.034491
#
#
# Mechanical properties :
#
#
# Convention : Reuss Voigt Hill
#
# Bulk Modulus (GPa) = 52.46282 54.25571 53.35926
# Shear Modulus (GPa) = 23.22548 26.93857 25.08202
#
# Velocity S-wave (km/s) = 3.46981 3.73689 3.60582
# Velocity P-wave (km/s) = 6.57634 6.83696 6.70792
#
# Compressibility (1/GPa) = 0.01906112
#
# Stress axis : x y z
#
# Youngs Moduli (GPa) = 78.91310 78.91310 109.78495
#
# Poissons Ratio (x) = 0.20692 0.27852
# Poissons Ratio (y) = 0.20692 0.27852
# Poissons Ratio (z) = 0.20020 0.20020
#
# Static dielectric constant tensor:
#      x y z
#    x 3.529050 0.000000 0.000000 
#    y 0.000000 3.529050 0.000000 
#    z 0.000000 0.000000 3.656770 
# 
# 
# High freq. dielectric constant tensor:
#      x y z
#    x 1.740500 0.000000 0.000000 
#    y 0.000000 1.740500 0.000000 
#    z 0.000000 0.000000 1.738570 
# 
# From -- ./inp_files/5805.got.cif
#   From: 2010.03.12/outbox.cif.g09.slc.cpg/sg84_3_cif.got.tgz:5805.got - 2010.04.08 20:07:29.
