data_PCOD8303384
_publ_section_title
;
Structure prediction by ZEFSAII (Michael W. Deem and Ramdas Pophale) SiO2 
 PCOD8303384
Probable space group: P 42/M
;
_chemical_formula_sum "Si O2"
_cell_formula_units_Z 40
_cell_length_a 9.400199
_cell_length_b 9.400199
_cell_length_c 22.537653
_cell_angle_alpha 90.000000
_cell_angle_beta 90.000000
_cell_angle_gamma 90.000000
_cell_volume 1991.511338
_symmetry_space_group_name_H-M "P 42/M"
_symmetry_group_IT_number 84
_symmetry_cell_setting 'tetragonal'
loop_
_space_group_symop_operation_xyz
x,y,z
-y,x,1/2+z
-x,-y,z
y,-x,1/2+z
-x,-y,-z
y,-x,1/2-z
x,y,-z
-y,x,1/2-z
loop_
_atom_site_type_symbol
_atom_site_label
_atom_site_fract_x
_atom_site_fract_y
_atom_site_fract_z
Si Si1 0.483530 0.665937 0.434318
Si Si2 0.164000 0.993410 0.932818
Si Si3 0.656241 0.789589 0.138301
Si Si4 0.681474 0.235098 0.872356
Si Si5 0.841889 0.170891 0.247366
O O1 0.500000 0.500000 0.444680
O O2 0.490723 0.738802 0.500000
O O3 0.339368 0.710225 0.402019
O O4 0.602189 0.711731 0.387572
O O5 0.235325 0.838877 0.927302
O O6 0.266405 0.075280 0.888476
O O7 0.173269 0.049856 0.000000
O O8 0.000000 0.000000 0.910788
O O9 0.485593 0.804443 0.134172
O O10 0.714287 0.780502 0.205498
O O11 0.756099 0.198742 0.811664
O O12 0.008985 0.190913 0.233083
#
# Coordination Sequence:
#
# PCOD8303384 Si02
#       5
#     8   8   8   8   8
#     4   9  20  40  63  93 129 161 202 265 328 375
#     4  11  23  41  65  95 131 167 208 259 320 387
#     4  11  23  40  65  95 123 168 217 265 319 379
#     4  11  23  40  65  95 123 168 217 265 319 379
#     4  11  24  42  61  84 130 172 211 264 321 378
#
# _framework density 20.085249000000001
#
# number of rings (size 3 to 8) (size 9 to 14) (size 15 to 20)
#    0.000    1.400    2.000    3.000    2.800    3.200 
#    0.000    3.000    0.000    7.200    0.000    0.000 
#    0.000    0.000    0.000    0.000    0.000    0.000 
#
# Total GULP energy -495736.360911 kJ/mol
# GULP energy per Si atom -12393.409023 kJ/mol
# Density = 2.003953 g / cm^3
# Si number density = 20.085249 Si / 1000 Ang^3
#
#
#
# Elastic Constant Matrix: (Units=GPa)
#
#
# Indices 1 2 3 4 5 6 
#
# 1 103.2427 34.3766 45.4305 0.0000 0.0000 -0.2060
# 2 34.3766 103.2427 45.4305 0.0000 0.0000 0.2060
# 3 45.4305 45.4305 103.6330 0.0000 0.0000 0.0000
# 4 0.0000 0.0000 0.0000 34.8203 0.0000 0.0000
# 5 0.0000 0.0000 0.0000 0.0000 34.8203 0.0000
# 6 -0.2060 0.2060 0.0000 0.0000 0.0000 23.0278
#
#
#
# Elastic Compliance Matrix: (Units=1/GPa)
#
#
# Indices 1 2 3 4 5 6 
#
# 1 0.012374 -0.002148 -0.004483 0.000000 0.000000 0.000130
# 2 -0.002148 0.012374 -0.004483 0.000000 0.000000 -0.000130
# 3 -0.004483 -0.004483 0.013580 0.000000 0.000000 0.000000
# 4 0.000000 0.000000 0.000000 0.028719 0.000000 0.000000
# 5 0.000000 0.000000 0.000000 0.000000 0.028719 0.000000
# 6 0.000130 -0.000130 0.000000 0.000000 0.000000 0.043428
#
#
# Mechanical properties :
#
#
# Convention : Reuss Voigt Hill
#
# Bulk Modulus (GPa) = 62.10977 62.28814 62.19895
# Shear Modulus (GPa) = 29.97819 30.85905 30.41862
#
# Velocity S-wave (km/s) = 3.86754 3.92395 3.89585
# Velocity P-wave (km/s) = 7.13681 7.18395 7.16042
#
# Compressibility (1/GPa) = 0.01610053
#
# Stress axis : x y z
#
# Youngs Moduli (GPa) = 80.81484 80.81484 73.63826
#
# Poissons Ratio (x) = 0.17357 0.33012
# Poissons Ratio (y) = 0.17357 0.33012
# Poissons Ratio (z) = 0.36229 0.36229
#
# Static dielectric constant tensor:
#      x y z
#    x 3.963440 0.000000 0.000000 
#    y 0.000000 3.963440 0.000000 
#    z 0.000000 0.000000 3.694670 
# 
# 
# High freq. dielectric constant tensor:
#      x y z
#    x 1.783760 0.000000 0.000000 
#    y 0.000000 1.783760 0.000000 
#    z 0.000000 0.000000 1.797970 
# 
# From -- ./inp_files/4810.got.cif
#   From: 2010.03.12/outbox.cif.g09.slc.cpg/sg84_3_cif.got.tgz:4810.got - 2010.04.08 20:07:29.
