data_PCOD8303541
_publ_section_title
;
Structure prediction by ZEFSAII (Michael W. Deem and Ramdas Pophale) SiO2 
 PCOD8303541
Probable space group: P 42/N
;
_chemical_formula_sum "Si O2"
_cell_formula_units_Z 40
_cell_length_a 8.548586
_cell_length_b 8.548586
_cell_length_c 26.781348
_cell_angle_alpha 90.000000
_cell_angle_beta 90.000000
_cell_angle_gamma 90.000000
_cell_volume 1957.135989
_symmetry_space_group_name_H-M "P 42/N"
_symmetry_group_IT_number 86
_space_group.IT_coordinate_system_code '2'
_symmetry_cell_setting 'tetragonal'
loop_
_space_group_symop_operation_xyz
x,y,z
-y,1/2+x,1/2+z
1/2-x,1/2-y,z
1/2+y,-x,1/2+z
-x,-y,-z
y,1/2-x,1/2-z
1/2+x,1/2+y,-z
1/2-y,x,1/2-z
loop_
_atom_site_type_symbol
_atom_site_label
_atom_site_fract_x
_atom_site_fract_y
_atom_site_fract_z
Si Si1 0.495470 0.461362 0.557619
Si Si2 0.565739 0.714590 0.635843
Si Si3 0.548455 0.602414 0.739019
Si Si4 0.750000 0.250000 0.105797
Si Si5 0.556105 0.494787 0.161178
Si Si6 0.250000 0.250000 0.893712
O O1 0.500000 0.500000 0.500000
O O2 0.521718 0.627379 0.585119
O O3 0.630900 0.338734 0.569745
O O4 0.330634 0.381039 0.571521
O O5 0.750000 0.750000 0.642308
O O6 0.500956 0.600679 0.680554
O O7 0.478849 0.881433 0.639318
O O8 0.536771 0.778011 0.758621
O O9 0.441602 0.504156 0.777838
O O10 0.621372 0.330630 0.140762
O O11 0.667830 0.630589 0.143274
#
# Coordination Sequence:
#
# PCOD8303541 Si02
#       6
#     8   8   8   4   8   4
#     4  11  25  42  65  90 130 173 225 274 335 389
#     4  11  19  37  68  99 119 161 234 271 304 383
#     4   9  14  30  60  96 115 147 207 264 299 368
#     4  10  20  40  62  92 128 182 202 270 336 392
#     4  10  20  38  66  92 135 163 211 267 329 400
#     4  10  26  44  57  98 136 168 213 270 356 402
#
# _framework density 20.438030000000001
#
# number of rings (size 3 to 8) (size 9 to 14) (size 15 to 20)
#    0.000    1.800    6.000    0.000    1.400    2.400 
#    0.000   13.000    0.000    0.000    0.000    0.000 
#    0.000    0.000    0.000    0.000    0.000    0.000 
#
# Total GULP energy -495832.744415 kJ/mol
# GULP energy per Si atom -12395.818610 kJ/mol
# Density = 2.039151 g / cm^3
# Si number density = 20.438030 Si / 1000 Ang^3
#
#
#
# Elastic Constant Matrix: (Units=GPa)
#
#
# Indices 1 2 3 4 5 6 
#
# 1 72.2859 17.7926 52.0175 0.0000 0.0000 -1.6438
# 2 17.7926 72.2859 52.0175 0.0000 0.0000 1.6438
# 3 52.0175 52.0175 181.8445 0.0000 0.0000 0.0000
# 4 0.0000 0.0000 0.0000 24.4226 0.0000 0.0000
# 5 0.0000 0.0000 0.0000 0.0000 24.4226 0.0000
# 6 -1.6438 1.6438 0.0000 0.0000 0.0000 47.9059
#
#
#
# Elastic Compliance Matrix: (Units=1/GPa)
#
#
# Indices 1 2 3 4 5 6 
#
# 1 0.017484 -0.000905 -0.004742 0.000000 0.000000 0.000631
# 2 -0.000905 0.017484 -0.004742 0.000000 0.000000 -0.000631
# 3 -0.004742 -0.004742 0.008212 0.000000 0.000000 0.000000
# 4 0.000000 0.000000 0.000000 0.040946 0.000000 0.000000
# 5 0.000000 0.000000 0.000000 0.000000 0.040946 0.000000
# 6 0.000631 -0.000631 0.000000 0.000000 0.000000 0.020918
#
#
# Mechanical properties :
#
#
# Convention : Reuss Voigt Hill
#
# Bulk Modulus (GPa) = 44.64288 63.34128 53.99208
# Shear Modulus (GPa) = 28.69683 32.98949 30.84316
#
# Velocity S-wave (km/s) = 3.75118 4.02197 3.88894
# Velocity P-wave (km/s) = 6.37592 7.25448 6.82934
#
# Compressibility (1/GPa) = 0.02239999
#
# Stress axis : x y z
#
# Youngs Moduli (GPa) = 57.19597 57.19597 121.76770
#
# Poissons Ratio (x) = 0.05177 0.57747
# Poissons Ratio (y) = 0.05177 0.57747
# Poissons Ratio (z) = 0.27124 0.27124
#
# Static dielectric constant tensor:
#      x y z
#    x 3.732230 0.000000 0.000000 
#    y 0.000000 3.732230 0.000000 
#    z 0.000000 0.000000 3.617610 
# 
# 
# High freq. dielectric constant tensor:
#      x y z
#    x 1.792040 0.000000 0.000000 
#    y 0.000000 1.792040 0.000000 
#    z 0.000000 0.000000 1.797180 
# 
# From -- ./inp_files/4534.got.cif
#   From: 2010.03.12/outbox.cif.g09.slc.cpg/sg86_3_cif.got.tgz:4534.got - 2010.04.08 20:12:58.
