data_PCOD8303979
_publ_section_title
;
Structure prediction by ZEFSAII (Michael W. Deem and Ramdas Pophale) SiO2 
 PCOD8303979
Probable space group: I 4/M
;
_chemical_formula_sum "Si O2"
_cell_formula_units_Z 80
_cell_length_a 14.071077
_cell_length_b 14.071077
_cell_length_c 20.932458
_cell_angle_alpha 90.000000
_cell_angle_beta 90.000000
_cell_angle_gamma 90.000000
_cell_volume 4144.526374
_symmetry_space_group_name_H-M "I 4/M"
_symmetry_group_IT_number 87
_symmetry_cell_setting 'tetragonal'
loop_
_space_group_symop_operation_xyz
x,y,z
-y,x,z
-x,-y,z
y,-x,z
-x,-y,-z
y,-x,-z
x,y,-z
-y,x,-z
1/2+x,1/2+y,1/2+z
1/2-y,1/2+x,1/2+z
1/2-x,1/2-y,1/2+z
1/2+y,1/2-x,1/2+z
1/2-x,1/2-y,1/2-z
1/2+y,1/2-x,1/2-z
1/2+x,1/2+y,1/2-z
1/2-y,1/2+x,1/2-z
loop_
_atom_site_type_symbol
_atom_site_label
_atom_site_fract_x
_atom_site_fract_y
_atom_site_fract_z
Si Si1 0.489360 0.231206 0.288405
Si Si2 0.955812 0.404123 0.676829
Si Si3 0.304515 0.701217 0.309186
Si Si4 0.508683 0.779564 0.927842
Si Si5 0.197779 0.790747 0.574380
O O1 0.425003 0.155759 0.328496
O O2 0.514690 0.186569 0.219830
O O3 0.411101 0.315737 0.289695
O O4 0.588469 0.260275 0.320184
O O5 0.000478 0.379790 0.608588
O O6 0.000000 0.500000 0.704944
O O7 0.250000 0.750000 0.250000
O O8 0.252618 0.721079 0.376914
O O9 0.415002 0.717265 0.914394
O O10 0.600991 0.720891 0.906721
O O11 0.518058 0.811138 0.000000
O O12 0.224099 0.767100 0.500000
#
# Coordination Sequence:
#
# PCOD8303979 Si02
#       5
#    16  16  16  16  16
#     4  12  22  37  62  88 116 158 193 246 300 351
#     4  12  20  36  59  89 115 153 203 243 295 354
#     4  12  23  40  62  88 121 155 200 248 296 355
#     4  10  21  36  57  84 120 158 197 244 297 354
#     4  10  21  38  58  87 122 158 198 247 299 354
#
# _framework density 19.302568000000001
#
# number of rings (size 3 to 8) (size 9 to 14) (size 15 to 20)
#    0.000    0.800    6.000    2.400    0.000    1.200 
#    0.000    4.000    0.000    4.800    0.000    1.400 
#    0.000    0.000    0.000    0.000    0.000    0.000 
#
# Total GULP energy -495568.639873 kJ/mol
# GULP energy per Si atom -12389.215997 kJ/mol
# Density = 1.925863 g / cm^3
# Si number density = 19.302568 Si / 1000 Ang^3
#
#
#
# Elastic Constant Matrix: (Units=GPa)
#
#
# Indices 1 2 3 4 5 6 
#
# 1 114.1501 37.2310 46.2133 0.0000 0.0000 -2.3085
# 2 37.2310 114.1501 46.2133 0.0000 0.0000 2.3085
# 3 46.2133 46.2133 75.0968 0.0000 0.0000 0.0000
# 4 0.0000 0.0000 0.0000 19.9467 0.0000 0.0000
# 5 0.0000 0.0000 0.0000 0.0000 19.9467 0.0000
# 6 -2.3085 2.3085 0.0000 0.0000 0.0000 30.3719
#
#
#
# Elastic Compliance Matrix: (Units=1/GPa)
#
#
# Indices 1 2 3 4 5 6 
#
# 1 0.011821 -0.001239 -0.006512 0.000000 0.000000 0.000993
# 2 -0.001239 0.011821 -0.006512 0.000000 0.000000 -0.000993
# 3 -0.006512 -0.006512 0.021331 0.000000 0.000000 0.000000
# 4 0.000000 0.000000 0.000000 0.050134 0.000000 0.000000
# 5 0.000000 0.000000 0.000000 0.000000 0.050134 0.000000
# 6 0.000993 -0.000993 0.000000 0.000000 0.000000 0.033076
#
#
# Mechanical properties :
#
#
# Convention : Reuss Voigt Hill
#
# Bulk Modulus (GPa) = 60.80200 62.52359 61.66279
# Shear Modulus (GPa) = 23.54892 25.63567 24.59229
#
# Velocity S-wave (km/s) = 3.49662 3.64826 3.57325
# Velocity P-wave (km/s) = 6.91879 7.08576 7.00277
#
# Compressibility (1/GPa) = 0.01644683
#
# Stress axis : x y z
#
# Youngs Moduli (GPa) = 84.59557 84.59557 46.88094
#
# Poissons Ratio (x) = 0.10484 0.30528
# Poissons Ratio (y) = 0.10484 0.30528
# Poissons Ratio (z) = 0.55087 0.55087
#
# Static dielectric constant tensor:
#      x y z
#    x 4.257610 0.000000 0.000000 
#    y 0.000000 4.257610 0.000000 
#    z 0.000000 0.000000 3.543120 
# 
# 
# High freq. dielectric constant tensor:
#      x y z
#    x 1.748630 0.000000 0.000000 
#    y 0.000000 1.748630 0.000000 
#    z 0.000000 0.000000 1.749660 
# 
# From -- ./inp_files/5058.got.cif
#   From: 2010.03.12/outbox.cif.g09.slc.cpg/sg87_3_cif.got.tgz:5058.got - 2010.04.08 20:16:13.
