data_PCOD8303848
_publ_section_title
;
Structure prediction by ZEFSAII (Michael W. Deem and Ramdas Pophale) SiO2 
 PCOD8303848
Probable space group: I 4/M
;
_chemical_formula_sum "Si O2"
_cell_formula_units_Z 120
_cell_length_a 26.983399
_cell_length_b 26.983399
_cell_length_c 7.678157
_cell_angle_alpha 90.000000
_cell_angle_beta 90.000000
_cell_angle_gamma 90.000000
_cell_volume 5590.495454
_symmetry_space_group_name_H-M "I 4/M"
_symmetry_group_IT_number 87
_symmetry_cell_setting 'tetragonal'
loop_
_space_group_symop_operation_xyz
x,y,z
-y,x,z
-x,-y,z
y,-x,z
-x,-y,-z
y,-x,-z
x,y,-z
-y,x,-z
1/2+x,1/2+y,1/2+z
1/2-y,1/2+x,1/2+z
1/2-x,1/2-y,1/2+z
1/2+y,1/2-x,1/2+z
1/2-x,1/2-y,1/2-z
1/2+y,1/2-x,1/2-z
1/2+x,1/2+y,1/2-z
1/2-y,1/2+x,1/2-z
loop_
_atom_site_type_symbol
_atom_site_label
_atom_site_fract_x
_atom_site_fract_y
_atom_site_fract_z
Si Si1 0.982253 0.919798 0.000000
Si Si2 0.246813 0.035016 0.706411
Si Si3 0.812356 0.340983 0.199439
Si Si4 0.641878 0.703025 0.205434
Si Si5 0.605086 0.087517 0.195799
Si Si6 0.536238 0.659155 0.207737
Si Si7 0.013962 0.645944 0.697279
Si Si8 0.647122 0.262062 0.207068
O O1 0.975510 0.889123 0.178722
O O2 0.037342 0.941419 0.000000
O O3 0.246954 0.032083 0.500000
O O4 0.239656 0.090747 0.774669
O O5 0.201791 0.001274 0.772344
O O6 0.299162 0.014349 0.783097
O O7 0.758776 0.354629 0.280215
O O8 0.853518 0.369962 0.308233
O O9 0.821225 0.282418 0.212325
O O10 0.815837 0.358548 0.000000
O O11 0.590911 0.677307 0.259484
O O12 0.687067 0.670420 0.279419
O O13 0.646842 0.706531 0.000000
O O14 0.622451 0.040163 0.303676
O O15 0.554962 0.109630 0.284253
O O16 0.595452 0.068903 0.000000
O O17 0.531616 0.647387 0.000000
O O18 0.032516 0.652481 0.500000
O O19 0.649071 0.258603 0.000000
#
# Coordination Sequence:
#
# PCOD8303848 Si02
#       8
#     8  16  16  16  16  16  16  16
#     4  11  28  50  68 100 142 168 214 287 336 394
#     4   9  18  37  64  89 119 161 210 259 309 377
#     4  11  21  37  57  88 128 167 204 249 313 379
#     4   9  20  37  61  90 126 166 209 257 312 382
#     4  11  23  39  60  84 113 155 202 250 307 365
#     4  10  22  44  72  98 128 177 223 265 335 396
#     4  10  21  40  61  83 117 156 198 254 310 359
#     4  10  19  36  60  89 124 163 209 257 309 375
#
# _framework density 21.465002999999999
#
# number of rings (size 3 to 8) (size 9 to 14) (size 15 to 20)
#    0.000    1.933    1.333    2.000    1.867    4.000 
#    8.400    2.000    0.000    0.000    0.000    0.000 
#    0.000    0.000    0.000    0.000    0.000    0.000 
#
# Total GULP energy -744013.263678 kJ/mol
# GULP energy per Si atom -12400.221061 kJ/mol
# Density = 2.141615 g / cm^3
# Si number density = 21.465003 Si / 1000 Ang^3
#
#
#
# Elastic Constant Matrix: (Units=GPa)
#
#
# Indices 1 2 3 4 5 6 
#
# 1 167.2994 79.1790 23.4662 0.0000 0.0000 -0.3973
# 2 79.1790 167.2994 23.4662 0.0000 0.0000 0.3973
# 3 23.4662 23.4662 49.7895 0.0000 0.0000 0.0000
# 4 0.0000 0.0000 0.0000 20.3283 0.0000 0.0000
# 5 0.0000 0.0000 0.0000 0.0000 20.3283 0.0000
# 6 -0.3973 0.3973 0.0000 0.0000 0.0000 42.0600
#
#
#
# Elastic Compliance Matrix: (Units=1/GPa)
#
#
# Indices 1 2 3 4 5 6 
#
# 1 0.007903 -0.003446 -0.002101 0.000000 0.000000 0.000107
# 2 -0.003446 0.007903 -0.002101 0.000000 0.000000 -0.000107
# 3 -0.002101 -0.002101 0.022065 0.000000 0.000000 0.000000
# 4 0.000000 0.000000 0.000000 0.049193 0.000000 0.000000
# 5 0.000000 0.000000 0.000000 0.000000 0.049193 0.000000
# 6 0.000107 -0.000107 0.000000 0.000000 0.000000 0.023778
#
#
# Mechanical properties :
#
#
# Convention : Reuss Voigt Hill
#
# Bulk Modulus (GPa) = 44.29437 70.73456 57.51446
# Shear Modulus (GPa) = 27.34427 33.76179 30.55303
#
# Velocity S-wave (km/s) = 3.57305 3.97025 3.77687
# Velocity P-wave (km/s) = 6.14025 7.35134 6.77292
#
# Compressibility (1/GPa) = 0.02257624
#
# Stress axis : x y z
#
# Youngs Moduli (GPa) = 126.53248 126.53248 45.32126
#
# Poissons Ratio (x) = 0.43603 0.09521
# Poissons Ratio (y) = 0.43603 0.09521
# Poissons Ratio (z) = 0.26581 0.26581
#
# Static dielectric constant tensor:
#      x y z
#    x 3.999410 0.000000 0.000000 
#    y 0.000000 3.999410 0.000000 
#    z 0.000000 0.000000 3.472050 
# 
# 
# High freq. dielectric constant tensor:
#      x y z
#    x 1.850780 0.000000 0.000000 
#    y 0.000000 1.850780 0.000000 
#    z 0.000000 0.000000 1.818880 
# 
# From -- ./inp_files/1690.got.cif
#   From: 2010.03.12/outbox.cif.g09.slc.cpg/sg87_1_cif.got.tgz:1690.got - 2010.04.08 20:16:13.
