data_PCOD8303356
_publ_section_title
;
Structure prediction by ZEFSAII (Michael W. Deem and Ramdas Pophale) SiO2 
 PCOD8303356
Probable space group: P 42/M
;
_chemical_formula_sum "Si O2"
_cell_formula_units_Z 40
_cell_length_a 12.404341
_cell_length_b 12.404341
_cell_length_c 12.968292
_cell_angle_alpha 90.000000
_cell_angle_beta 90.000000
_cell_angle_gamma 90.000000
_cell_volume 1995.400947
_symmetry_space_group_name_H-M "P 42/M"
_symmetry_group_IT_number 84
_symmetry_cell_setting 'tetragonal'
loop_
_space_group_symop_operation_xyz
x,y,z
-y,x,1/2+z
-x,-y,z
y,-x,1/2+z
-x,-y,-z
y,-x,1/2-z
x,y,-z
-y,x,1/2-z
loop_
_atom_site_type_symbol
_atom_site_label
_atom_site_fract_x
_atom_site_fract_y
_atom_site_fract_z
Si Si1 0.998604 0.124992 0.616970
Si Si2 0.050238 0.613864 0.880292
Si Si3 0.650624 0.724672 0.270728
Si Si4 0.874332 0.774373 0.799541
Si Si5 0.624038 0.515970 0.617469
O O1 0.036285 0.145085 0.500000
O O2 0.081356 0.189570 0.688095
O O3 0.876277 0.163002 0.632472
O O4 0.000000 0.000000 0.647560
O O5 0.154524 0.636833 0.811654
O O6 0.000000 0.500000 0.846536
O O7 0.962623 0.706548 0.861265
O O8 0.082912 0.613373 0.000000
O O9 0.766028 0.706246 0.216318
O O10 0.557593 0.699313 0.188627
O O11 0.648337 0.641887 0.365727
O O12 0.500000 0.500000 0.646999
O O13 0.648227 0.484411 0.500000
#
# Coordination Sequence:
#
# PCOD8303356 Si02
#       5
#     8   8   8   8   8
#     4  11  21  38  62  90 124 166 215 259 307 374
#     4  11  25  42  65  98 132 171 217 269 332 390
#     4  12  22  44  68  94 136 168 212 274 322 386
#     4  12  22  41  63  91 132 172 213 265 317 383
#     4  11  24  43  69  97 123 165 218 269 325 385
#
# _framework density 20.046095999999999
#
# number of rings (size 3 to 8) (size 9 to 14) (size 15 to 20)
#    0.000    0.600    6.000    2.400    0.000    4.800 
#    0.000    0.000    0.000    2.400    0.000    0.000 
#    0.000    0.000    0.000    0.000    0.000    0.000 
#
# Total GULP energy -496187.252945 kJ/mol
# GULP energy per Si atom -12404.681324 kJ/mol
# Density = 2.000047 g / cm^3
# Si number density = 20.046096 Si / 1000 Ang^3
#
#
#
# Elastic Constant Matrix: (Units=GPa)
#
#
# Indices 1 2 3 4 5 6 
#
# 1 103.0689 23.9028 23.4884 0.0000 0.0000 1.9504
# 2 23.9028 103.0689 23.4884 0.0000 0.0000 -1.9504
# 3 23.4884 23.4884 86.5638 0.0000 0.0000 0.0000
# 4 0.0000 0.0000 0.0000 21.1802 0.0000 0.0000
# 5 0.0000 0.0000 0.0000 0.0000 21.1802 0.0000
# 6 1.9504 -1.9504 0.0000 0.0000 0.0000 33.8123
#
#
#
# Elastic Compliance Matrix: (Units=1/GPa)
#
#
# Indices 1 2 3 4 5 6 
#
# 1 0.010711 -0.001957 -0.002376 0.000000 0.000000 -0.000731
# 2 -0.001957 0.010711 -0.002376 0.000000 0.000000 0.000731
# 3 -0.002376 -0.002376 0.012841 0.000000 0.000000 0.000000
# 4 0.000000 0.000000 0.000000 0.047214 0.000000 0.000000
# 5 0.000000 0.000000 0.000000 0.000000 0.047214 0.000000
# 6 -0.000731 0.000731 0.000000 0.000000 0.000000 0.029659
#
#
# Mechanical properties :
#
#
# Convention : Reuss Voigt Hill
#
# Bulk Modulus (GPa) = 47.96483 48.27342 48.11913
# Shear Modulus (GPa) = 27.97743 30.02266 29.00005
#
# Velocity S-wave (km/s) = 3.73990 3.87419 3.80764
# Velocity P-wave (km/s) = 6.52904 6.64424 6.58689
#
# Compressibility (1/GPa) = 0.02084861
#
# Stress axis : x y z
#
# Youngs Moduli (GPa) = 93.36052 93.36052 77.87353
#
# Poissons Ratio (x) = 0.18266 0.18499
# Poissons Ratio (y) = 0.18266 0.18499
# Poissons Ratio (z) = 0.22178 0.22178
#
# Static dielectric constant tensor:
#      x y z
#    x 3.775380 0.000000 0.000000 
#    y 0.000000 3.775380 0.000000 
#    z 0.000000 0.000000 3.577550 
# 
# 
# High freq. dielectric constant tensor:
#      x y z
#    x 1.786080 0.000000 0.000000 
#    y 0.000000 1.786080 0.000000 
#    z 0.000000 0.000000 1.788110 
# 
# From -- ./inp_files/2905.got.cif
#   From: 2010.03.12/outbox.cif.g09.slc.cpg/sg84_2_cif.got.tgz:2905.got - 2010.04.08 20:07:29.
