data_PCOD8303165
_publ_section_title
;
Structure prediction by ZEFSAII (Michael W. Deem and Ramdas Pophale) SiO2 
 PCOD8303165
Probable space group: P 42/M
;
_chemical_formula_sum "Si O2"
_cell_formula_units_Z 40
_cell_length_a 16.501047
_cell_length_b 16.501047
_cell_length_c 7.816389
_cell_angle_alpha 90.000000
_cell_angle_beta 90.000000
_cell_angle_gamma 90.000000
_cell_volume 2128.281978
_symmetry_space_group_name_H-M "P 42/M"
_symmetry_group_IT_number 84
_symmetry_cell_setting 'tetragonal'
loop_
_space_group_symop_operation_xyz
x,y,z
-y,x,1/2+z
-x,-y,z
y,-x,1/2+z
-x,-y,-z
y,-x,1/2-z
x,y,-z
-y,x,1/2-z
loop_
_atom_site_type_symbol
_atom_site_label
_atom_site_fract_x
_atom_site_fract_y
_atom_site_fract_z
Si Si1 0.450145 0.617318 0.697384
Si Si2 0.867140 0.495485 0.000000
Si Si3 0.708719 0.079289 0.802973
Si Si4 0.885553 0.043694 0.809749
Si Si5 0.004240 0.628630 0.000000
Si Si6 0.421608 0.789110 0.806728
O O1 0.538169 0.604964 0.781343
O O2 0.462395 0.636775 0.500000
O O3 0.405949 0.693113 0.787669
O O4 0.814808 0.508652 0.172454
O O5 0.941705 0.555789 0.000000
O O6 0.903434 0.404503 0.000000
O O7 0.803922 0.092533 0.761261
O O8 0.678959 0.008933 0.674700
O O9 0.662232 0.163726 0.765923
O O10 0.694348 0.051722 0.000000
O O11 0.962789 0.103229 0.802666
O O12 0.877758 0.009735 0.000000
O O13 0.450614 0.809084 0.000000
#
# Coordination Sequence:
#
# PCOD8303165 Si02
#       6
#     8   4   8   8   4   8
#     4  11  21  36  57  84 111 145 191 229 274 332
#     4   9  18  34  52  85 102 146 185 222 270 338
#     4   9  20  35  55  81 111 147 185 227 280 332
#     4  10  20  34  54  81 107 142 188 228 274 329
#     4   9  18  32  58  75 110 142 185 222 274 324
#     4  10  19  36  57  80 113 147 183 232 279 326
#
# _framework density 18.794502000000001
#
# number of rings (size 3 to 8) (size 9 to 14) (size 15 to 20)
#    0.000    2.200    1.000    3.600    2.800    0.800 
#    0.000    6.000    0.000    2.400    0.000    0.000 
#    0.000    0.000    0.000    0.000    0.000    0.000 
#
# Total GULP energy -495822.408798 kJ/mol
# GULP energy per Si atom -12395.560220 kJ/mol
# Density = 1.875172 g / cm^3
# Si number density = 18.794502 Si / 1000 Ang^3
#
#
#
# Elastic Constant Matrix: (Units=GPa)
#
#
# Indices 1 2 3 4 5 6 
#
# 1 101.4519 58.6675 37.7257 0.0000 0.0000 0.9953
# 2 58.6675 101.4519 37.7257 0.0000 0.0000 -0.9953
# 3 37.7257 37.7257 106.7386 0.0000 0.0000 0.0000
# 4 0.0000 0.0000 0.0000 22.7742 0.0000 0.0000
# 5 0.0000 0.0000 0.0000 0.0000 22.7742 0.0000
# 6 0.9953 -0.9953 0.0000 0.0000 0.0000 17.7258
#
#
#
# Elastic Compliance Matrix: (Units=1/GPa)
#
#
# Indices 1 2 3 4 5 6 
#
# 1 0.015464 -0.007970 -0.002648 0.000000 0.000000 -0.001316
# 2 -0.007970 0.015464 -0.002648 0.000000 0.000000 0.001316
# 3 -0.002648 -0.002648 0.011241 0.000000 0.000000 0.000000
# 4 0.000000 0.000000 0.000000 0.043909 0.000000 0.000000
# 5 0.000000 0.000000 0.000000 0.000000 0.043909 0.000000
# 6 -0.001316 0.001316 0.000000 0.000000 0.000000 0.056563
#
#
# Mechanical properties :
#
#
# Convention : Reuss Voigt Hill
#
# Bulk Modulus (GPa) = 63.96437 64.20893 64.08665
# Shear Modulus (GPa) = 22.90470 24.35639 23.63054
#
# Velocity S-wave (km/s) = 3.49476 3.60381 3.54971
# Velocity P-wave (km/s) = 7.09873 7.18014 7.13955
#
# Compressibility (1/GPa) = 0.01563370
#
# Stress axis : x y z
#
# Youngs Moduli (GPa) = 64.66722 64.66722 88.96147
#
# Poissons Ratio (x) = 0.51543 0.23561
# Poissons Ratio (y) = 0.51543 0.23561
# Poissons Ratio (z) = 0.17127 0.17127
#
# Static dielectric constant tensor:
#      x y z
#    x 3.422930 0.000000 0.000000 
#    y 0.000000 3.422930 0.000000 
#    z 0.000000 0.000000 3.700460 
# 
# 
# High freq. dielectric constant tensor:
#      x y z
#    x 1.709910 0.000000 0.000000 
#    y 0.000000 1.709910 0.000000 
#    z 0.000000 0.000000 1.750800 
# 
# From -- ./inp_files/839.got.cif
#   From: 2010.03.12/outbox.cif.g09.slc.cpg/sg84_1_cif.got.tgz:839.got - 2010.04.08 20:07:29.
