data_PCOD8303415
_publ_section_title
;
Structure prediction by ZEFSAII (Michael W. Deem and Ramdas Pophale) SiO2 
 PCOD8303415
Probable space group: P 4/N
;
_chemical_formula_sum "Si O2"
_cell_formula_units_Z 48
_cell_length_a 11.250905
_cell_length_b 11.250905
_cell_length_c 18.027740
_cell_angle_alpha 90.000000
_cell_angle_beta 90.000000
_cell_angle_gamma 90.000000
_cell_volume 2282.002948
_symmetry_space_group_name_H-M "P 4/N"
_symmetry_group_IT_number 85
_symmetry_cell_setting 'tetragonal'
loop_
_space_group_symop_operation_xyz
x,y,z
1/2-y,x,z
1/2-x,1/2-y,z
y,1/2-x,z
-x,-y,-z
1/2+y,-x,-z
1/2+x,1/2+y,-z
-y,1/2+x,-z
loop_
_atom_site_type_symbol
_atom_site_label
_atom_site_fract_x
_atom_site_fract_y
_atom_site_fract_z
Si Si1 0.500000 1.000000 0.624693
Si Si2 0.925634 0.841062 0.500000
Si Si3 0.578326 0.343616 0.000000
Si Si4 0.500000 0.500000 0.125513
Si Si5 0.076066 0.342075 0.251502
Si Si6 0.423934 0.157925 0.748498
O O1 0.617743 0.997804 0.572962
O O2 0.499334 0.883371 0.677316
O O3 0.382257 0.002195 0.572962
O O4 0.500666 0.116629 0.677316
O O5 0.799267 0.909650 0.500000
O O6 0.508483 0.383320 0.926182
O O7 0.703575 0.411438 1.000000
O O8 0.508483 0.383320 0.073818
O O9 0.382144 0.489823 0.176303
O O10 0.617856 0.510177 0.176303
O O11 0.089639 0.201882 0.254275
O O12 0.410361 0.298118 0.745725
#
# Coordination Sequence:
#
# PCOD8303415 Si02
#       6
#     8   8   8   8   8   8
#     4  10  20  32  54  80 104 130 168 212 256 304
#     4  10  20  36  58  80 104 138 176 212 254 304
#     4  10  20  34  52  76 108 142 172 210 266 320
#     4  10  20  34  54  78 104 136 178 220 256 306
#     4  10  20  35  55  77 102 135 175 217 260 306
#     4  10  20  35  55  77 102 135 175 217 260 306
#
# _framework density 21.034151999999999
#
# number of rings (size 3 to 8) (size 9 to 14) (size 15 to 20)
#    0.000    2.000    0.000    4.000    0.000    2.667 
#    0.000    0.000    0.000   81.000    0.000    0.000 
#    0.000    0.000    0.000    0.000    0.000    0.000 
#
# Total GULP energy -595175.860453 kJ/mol
# GULP energy per Si atom -12399.497093 kJ/mol
# Density = 2.098628 g / cm^3
# Si number density = 21.034152 Si / 1000 Ang^3
#
#
#
# Elastic Constant Matrix: (Units=GPa)
#
#
# Indices 1 2 3 4 5 6 
#
# 1 58.5557 14.0235 29.6010 0.0000 0.0000 4.1419
# 2 14.0235 58.5557 29.6010 0.0000 0.0000 -4.1419
# 3 29.6010 29.6010 159.5646 0.0000 0.0000 0.0000
# 4 0.0000 0.0000 0.0000 18.1195 0.0000 0.0000
# 5 0.0000 0.0000 0.0000 0.0000 18.1195 0.0000
# 6 4.1419 -4.1419 0.0000 0.0000 0.0000 35.6086
#
#
#
# Elastic Compliance Matrix: (Units=1/GPa)
#
#
# Indices 1 2 3 4 5 6 
#
# 1 0.019593 -0.003359 -0.003012 0.000000 0.000000 -0.002670
# 2 -0.003359 0.019593 -0.003012 0.000000 0.000000 0.002670
# 3 -0.003012 -0.003012 0.007384 0.000000 0.000000 0.000000
# 4 0.000000 0.000000 0.000000 0.055189 0.000000 0.000000
# 5 0.000000 0.000000 0.000000 0.000000 0.055189 0.000000
# 6 -0.002670 0.002670 0.000000 0.000000 0.000000 0.028704
#
#
# Mechanical properties :
#
#
# Convention : Reuss Voigt Hill
#
# Bulk Modulus (GPa) = 35.96223 47.01411 41.48817
# Shear Modulus (GPa) = 23.39867 27.93288 25.66577
#
# Velocity S-wave (km/s) = 3.33890 3.64810 3.49692
# Velocity P-wave (km/s) = 5.65673 6.33598 6.00596
#
# Compressibility (1/GPa) = 0.02780696
#
# Stress axis : x y z
#
# Youngs Moduli (GPa) = 51.03738 51.03738 135.41941
#
# Poissons Ratio (x) = 0.17143 0.40784
# Poissons Ratio (y) = 0.17143 0.40784
# Poissons Ratio (z) = 0.15371 0.15371
#
# Static dielectric constant tensor:
#      x y z
#    x 3.578830 0.000000 0.000000 
#    y 0.000000 3.578830 0.000000 
#    z 0.000000 0.000000 4.047050 
# 
# 
# High freq. dielectric constant tensor:
#      x y z
#    x 1.804570 0.000000 0.000000 
#    y 0.000000 1.804570 0.000000 
#    z 0.000000 0.000000 1.851810 
# 
# From -- ./inp_files/2085.got.cif
#   From: 2010.03.12/outbox.cif.g09.slc.cpg/sg85_cif.got.tgz:2085.got - 2010.04.08 20:10:46.
