data_PCOD8303841
_publ_section_title
;
Structure prediction by ZEFSAII (Michael W. Deem and Ramdas Pophale) SiO2 
 PCOD8303841
Probable space group: I 4/M
;
_chemical_formula_sum "Si O2"
_cell_formula_units_Z 120
_cell_length_a 27.286573
_cell_length_b 27.286573
_cell_length_c 7.883399
_cell_angle_alpha 90.000000
_cell_angle_beta 90.000000
_cell_angle_gamma 90.000000
_cell_volume 5869.640430
_symmetry_space_group_name_H-M "I 4/M"
_symmetry_group_IT_number 87
_symmetry_cell_setting 'tetragonal'
loop_
_space_group_symop_operation_xyz
x,y,z
-y,x,z
-x,-y,z
y,-x,z
-x,-y,-z
y,-x,-z
x,y,-z
-y,x,-z
1/2+x,1/2+y,1/2+z
1/2-y,1/2+x,1/2+z
1/2-x,1/2-y,1/2+z
1/2+y,1/2-x,1/2+z
1/2-x,1/2-y,1/2-z
1/2+y,1/2-x,1/2-z
1/2+x,1/2+y,1/2-z
1/2-y,1/2+x,1/2-z
loop_
_atom_site_type_symbol
_atom_site_label
_atom_site_fract_x
_atom_site_fract_y
_atom_site_fract_z
Si Si1 0.253987 0.449147 0.700579
Si Si2 0.635037 0.783016 0.799336
Si Si3 0.157906 0.728930 0.798989
Si Si4 0.469649 0.182742 0.303694
Si Si5 0.926709 0.138292 0.804927
Si Si6 0.011231 0.423587 0.198048
Si Si7 0.823195 0.165893 0.305297
Si Si8 0.070623 0.039992 0.500000
O O1 0.254729 0.451548 0.500000
O O2 0.227720 0.398899 0.759260
O O3 0.223833 0.494766 0.780361
O O4 0.310625 0.450782 0.760192
O O5 0.680344 0.815356 0.730809
O O6 0.586472 0.803577 0.715807
O O7 0.640877 0.726835 0.741801
O O8 0.631373 0.787523 0.000000
O O9 0.183721 0.775874 0.715409
O O10 0.162804 0.733742 0.000000
O O11 0.483295 0.179656 0.500000
O O12 0.479913 0.129724 0.217722
O O13 0.867814 0.144565 0.804919
O O14 0.943996 0.097126 0.673820
O O15 0.941898 0.125086 0.000000
O O16 0.055636 0.459123 0.245560
O O17 0.010659 0.417849 0.000000
O O18 0.833751 0.152858 0.500000
O O19 0.018327 0.066301 0.500000
#
# Coordination Sequence:
#
# PCOD8303841 Si02
#       8
#    16  16  16  16  16  16  16   8
#     4   8  17  36  59  83 113 153 203 248 299 371
#     4  10  22  35  52  83 121 158 196 247 306 364
#     4   9  18  34  57  81 111 158 202 242 305 374
#     4  10  22  37  54  82 115 151 198 253 306 363
#     4  10  21  42  70  95 125 172 212 245 314 375
#     4  10  21  37  59  80 106 148 197 253 309 368
#     4  10  19  35  58  90 125 156 202 251 303 368
#     4  11  26  46  68 100 136 164 206 265 304 354
#
# _framework density 20.444182999999999
#
# number of rings (size 3 to 8) (size 9 to 14) (size 15 to 20)
#    0.000    2.333    0.667    2.400    1.867    4.267 
#    1.200    2.000    0.000    0.000    0.000    0.000 
#    0.000    0.000    0.000    0.000    0.000    0.000 
#
# Total GULP energy -743893.745941 kJ/mol
# GULP energy per Si atom -12398.229099 kJ/mol
# Density = 2.039765 g / cm^3
# Si number density = 20.444183 Si / 1000 Ang^3
#
#
#
# Elastic Constant Matrix: (Units=GPa)
#
#
# Indices 1 2 3 4 5 6 
#
# 1 129.3672 75.3976 29.2253 0.0000 0.0000 6.7333
# 2 75.3976 129.3672 29.2253 0.0000 0.0000 -6.7333
# 3 29.2253 29.2253 55.2034 0.0000 0.0000 0.0000
# 4 0.0000 0.0000 0.0000 22.3375 0.0000 0.0000
# 5 0.0000 0.0000 0.0000 0.0000 22.3375 0.0000
# 6 6.7333 -6.7333 0.0000 0.0000 0.0000 31.8601
#
#
#
# Elastic Compliance Matrix: (Units=1/GPa)
#
#
# Indices 1 2 3 4 5 6 
#
# 1 0.012657 -0.006904 -0.003046 0.000000 0.000000 -0.004134
# 2 -0.006904 0.012657 -0.003046 0.000000 0.000000 0.004134
# 3 -0.003046 -0.003046 0.021340 0.000000 0.000000 0.000000
# 4 0.000000 0.000000 0.000000 0.044768 0.000000 0.000000
# 5 0.000000 0.000000 0.000000 0.000000 0.044768 0.000000
# 6 -0.004134 0.004134 0.000000 0.000000 0.000000 0.033135
#
#
# Mechanical properties :
#
#
# Convention : Reuss Voigt Hill
#
# Bulk Modulus (GPa) = 48.39589 64.62602 56.51096
# Shear Modulus (GPa) = 24.72782 27.31298 26.02040
#
# Velocity S-wave (km/s) = 3.48160 3.65907 3.57144
# Velocity P-wave (km/s) = 6.31551 7.03785 6.68644
#
# Compressibility (1/GPa) = 0.02066291
#
# Stress axis : x y z
#
# Youngs Moduli (GPa) = 79.00912 79.00912 46.86093
#
# Poissons Ratio (x) = 0.54546 0.14273
# Poissons Ratio (y) = 0.54546 0.14273
# Poissons Ratio (z) = 0.24064 0.24064
#
# Static dielectric constant tensor:
#      x y z
#    x 3.431550 0.000000 0.000000 
#    y 0.000000 3.431550 0.000000 
#    z 0.000000 0.000000 3.475290 
# 
# 
# High freq. dielectric constant tensor:
#      x y z
#    x 1.800400 0.000000 0.000000 
#    y 0.000000 1.800400 0.000000 
#    z 0.000000 0.000000 1.785350 
# 
# From -- ./inp_files/1693.got.cif
#   From: 2010.03.12/outbox.cif.g09.slc.cpg/sg87_1_cif.got.tgz:1693.got - 2010.04.08 20:16:13.
