data_PCOD8303290
_publ_section_title
;
Structure prediction by ZEFSAII (Michael W. Deem and Ramdas Pophale) SiO2 
 PCOD8303290
Probable space group: P 42/M
;
_chemical_formula_sum "Si O2"
_cell_formula_units_Z 56
_cell_length_a 15.848118
_cell_length_b 15.848118
_cell_length_c 12.227470
_cell_angle_alpha 90.000000
_cell_angle_beta 90.000000
_cell_angle_gamma 90.000000
_cell_volume 3071.086142
_symmetry_space_group_name_H-M "P 42/M"
_symmetry_group_IT_number 84
_symmetry_cell_setting 'tetragonal'
loop_
_space_group_symop_operation_xyz
x,y,z
-y,x,1/2+z
-x,-y,z
y,-x,1/2+z
-x,-y,-z
y,-x,1/2-z
x,y,-z
-y,x,1/2-z
loop_
_atom_site_type_symbol
_atom_site_label
_atom_site_fract_x
_atom_site_fract_y
_atom_site_fract_z
Si Si1 0.900519 0.011091 0.621948
Si Si2 0.309753 0.164628 0.130603
Si Si3 0.823273 0.672726 0.627781
Si Si4 0.406500 0.997366 0.870395
Si Si5 0.503876 0.598199 0.374996
Si Si6 0.656812 0.342904 0.735799
Si Si7 0.153006 0.149245 0.721100
O O1 0.888391 0.047925 0.500000
O O2 0.854509 0.066272 0.713023
O O3 0.848381 0.924697 0.631970
O O4 0.000000 0.000000 0.646623
O O5 0.364948 0.084636 0.168567
O O6 0.346894 0.251779 0.178436
O O7 0.220392 0.144039 0.182446
O O8 0.302483 0.172228 0.000000
O O9 0.808096 0.651005 0.500000
O O10 0.743859 0.639804 0.698142
O O11 0.833651 0.771527 0.643791
O O12 0.910686 0.634096 0.674381
O O13 0.500000 0.000000 0.823107
O O14 0.403478 0.993133 0.000000
O O15 0.500000 0.500000 0.337615
O O16 0.527986 0.603394 0.500000
O O17 0.577637 0.649130 0.315331
O O18 0.415642 0.646358 0.355254
#
# Coordination Sequence:
#
# PCOD8303290 Si02
#       7
#     8   8   8   8   8   8   8
#     4  11  21  32  52  80 110 146 186 233 290 346
#     4  10  22  36  56  82 113 148 189 239 280 332
#     4  10  22  36  56  82 113 148 189 239 280 332
#     4   9  19  34  52  77 104 140 184 226 275 314
#     4  11  22  38  60  89 122 151 187 234 292 355
#     4  11  21  38  58  86 119 153 190 228 296 347
#     4  11  19  36  52  76 113 143 188 226 282 339
#
# _framework density 18.234591000000002
#
# number of rings (size 3 to 8) (size 9 to 14) (size 15 to 20)
#    0.000    1.571    2.857    2.571    2.000    0.000 
#    0.000    0.000    0.000    0.000    0.000    1.000 
#    0.000    0.000    0.000    0.000    0.000    0.000 
#
# Total GULP energy -694033.689595 kJ/mol
# GULP energy per Si atom -12393.458743 kJ/mol
# Density = 1.819309 g / cm^3
# Si number density = 18.234591 Si / 1000 Ang^3
#
#
#
# Elastic Constant Matrix: (Units=GPa)
#
#
# Indices 1 2 3 4 5 6 
#
# 1 108.9047 50.6557 21.3274 0.0000 0.0000 0.2252
# 2 50.6557 108.9047 21.3274 0.0000 0.0000 -0.2252
# 3 21.3274 21.3274 71.6318 0.0000 0.0000 0.0000
# 4 0.0000 0.0000 0.0000 14.4664 0.0000 0.0000
# 5 0.0000 0.0000 0.0000 0.0000 14.4664 0.0000
# 6 0.2252 -0.2252 0.0000 0.0000 0.0000 33.9596
#
#
#
# Elastic Compliance Matrix: (Units=1/GPa)
#
#
# Indices 1 2 3 4 5 6 
#
# 1 0.011989 -0.005180 -0.002027 0.000000 0.000000 -0.000114
# 2 -0.005180 0.011989 -0.002027 0.000000 0.000000 0.000114
# 3 -0.002027 -0.002027 0.015168 0.000000 0.000000 0.000000
# 4 0.000000 0.000000 0.000000 0.069126 0.000000 0.000000
# 5 0.000000 0.000000 0.000000 0.000000 0.069126 0.000000
# 6 -0.000114 0.000114 0.000000 0.000000 0.000000 0.029448
#
#
# Mechanical properties :
#
#
# Convention : Reuss Voigt Hill
#
# Bulk Modulus (GPa) = 48.36409 52.89582 50.62996
# Shear Modulus (GPa) = 21.53258 25.65384 23.59321
#
# Velocity S-wave (km/s) = 3.44010 3.75491 3.60094
# Velocity P-wave (km/s) = 6.50845 6.91886 6.71679
#
# Compressibility (1/GPa) = 0.02067650
#
# Stress axis : x y z
#
# Youngs Moduli (GPa) = 83.41064 83.41064 65.93036
#
# Poissons Ratio (x) = 0.43204 0.13366
# Poissons Ratio (y) = 0.43204 0.13366
# Poissons Ratio (z) = 0.16910 0.16910
#
# Static dielectric constant tensor:
#      x y z
#    x 3.375370 0.000000 0.000000 
#    y 0.000000 3.375370 0.000000 
#    z 0.000000 0.000000 3.259830 
# 
# 
# High freq. dielectric constant tensor:
#      x y z
#    x 1.711110 0.000000 0.000000 
#    y 0.000000 1.711110 0.000000 
#    z 0.000000 0.000000 1.703150 
# 
# From -- ./inp_files/2240.got.cif
#   From: 2010.03.12/outbox.cif.g09.slc.cpg/sg84_2_cif.got.tgz:2240.got - 2010.04.08 20:07:29.
