data_PCOD8303253
_publ_section_title
;
Structure prediction by ZEFSAII (Michael W. Deem and Ramdas Pophale) SiO2 
 PCOD8303253
Probable space group: P 42/M
;
_chemical_formula_sum "Si O2"
_cell_formula_units_Z 40
_cell_length_a 9.203711
_cell_length_b 9.203711
_cell_length_c 23.045873
_cell_angle_alpha 90.000000
_cell_angle_beta 90.000000
_cell_angle_gamma 90.000000
_cell_volume 1952.176636
_symmetry_space_group_name_H-M "P 42/M"
_symmetry_group_IT_number 84
_symmetry_cell_setting 'tetragonal'
loop_
_space_group_symop_operation_xyz
x,y,z
-y,x,1/2+z
-x,-y,z
y,-x,1/2+z
-x,-y,-z
y,-x,1/2-z
x,y,-z
-y,x,1/2-z
loop_
_atom_site_type_symbol
_atom_site_label
_atom_site_fract_x
_atom_site_fract_y
_atom_site_fract_z
Si Si1 0.582059 0.152965 0.500000
Si Si2 0.241650 0.816372 0.310949
Si Si3 0.832347 0.488452 0.879780
Si Si4 0.328374 0.028711 0.885115
Si Si5 0.841969 0.928762 0.000000
Si Si6 0.795906 0.844746 0.317563
O O1 0.535518 0.242607 0.441322
O O2 0.756257 0.135252 0.500000
O O3 0.500000 0.000000 0.500000
O O4 0.413270 0.805469 0.322702
O O5 0.200500 0.757938 0.247880
O O6 0.187443 0.703240 0.359941
O O7 0.182021 0.981108 0.320990
O O8 0.787702 0.327316 0.861522
O O9 0.000000 0.500000 0.895025
O O10 0.244641 0.935562 0.836408
O O11 0.500000 0.000000 0.889551
O O12 0.251114 0.010594 0.946530
O O13 0.000000 0.000000 0.000000
#
# Coordination Sequence:
#
# PCOD8303253 Si02
#       6
#     4   8   8   8   4   8
#     4  10  20  39  65 100 129 157 215 272 323 396
#     4  11  21  39  64  97 130 171 223 272 327 388
#     4   9  21  37  63  94 130 167 213 271 332 385
#     4  12  27  42  64  98 138 175 217 282 332 383
#     4  12  25  45  75  98 128 168 228 280 333 391
#     4  11  23  38  67  98 132 172 223 270 332 395
#
# _framework density 20.489947999999998
#
# number of rings (size 3 to 8) (size 9 to 14) (size 15 to 20)
#    0.000    1.200    4.000    2.100    8.400    0.000 
#    0.000    1.000    0.000    1.200    0.000    0.000 
#    0.000    0.000    0.000    0.000    0.000    0.000 
#
# Total GULP energy -495647.195359 kJ/mol
# GULP energy per Si atom -12391.179884 kJ/mol
# Density = 2.044331 g / cm^3
# Si number density = 20.489948 Si / 1000 Ang^3
#
#
#
# Elastic Constant Matrix: (Units=GPa)
#
#
# Indices 1 2 3 4 5 6 
#
# 1 84.9081 14.3331 33.7255 0.0000 0.0000 -3.7937
# 2 14.3331 84.9081 33.7255 0.0000 0.0000 3.7937
# 3 33.7255 33.7255 150.6017 0.0000 0.0000 0.0000
# 4 0.0000 0.0000 0.0000 24.1603 0.0000 0.0000
# 5 0.0000 0.0000 0.0000 0.0000 24.1603 0.0000
# 6 -3.7937 3.7937 0.0000 0.0000 0.0000 7.7461
#
#
#
# Elastic Compliance Matrix: (Units=1/GPa)
#
#
# Indices 1 2 3 4 5 6 
#
# 1 0.013421 -0.001536 -0.002662 0.000000 0.000000 0.007325
# 2 -0.001536 0.013421 -0.002662 0.000000 0.000000 -0.007325
# 3 -0.002662 -0.002662 0.007832 0.000000 0.000000 0.000000
# 4 0.000000 0.000000 0.000000 0.041390 0.000000 0.000000
# 5 0.000000 0.000000 0.000000 0.000000 0.041390 0.000000
# 6 0.007325 -0.007325 0.000000 0.000000 0.000000 0.136273
#
#
# Mechanical properties :
#
#
# Convention : Reuss Voigt Hill
#
# Bulk Modulus (GPa) = 47.71768 53.77622 50.74695
# Shear Modulus (GPa) = 18.21950 27.12224 22.67087
#
# Velocity S-wave (km/s) = 2.98517 3.64220 3.32993
# Velocity P-wave (km/s) = 5.93469 6.63247 6.29326
#
# Compressibility (1/GPa) = 0.02095659
#
# Stress axis : x y z
#
# Youngs Moduli (GPa) = 74.50925 74.50925 127.67961
#
# Poissons Ratio (x) = 0.11442 0.33983
# Poissons Ratio (y) = 0.11442 0.33983
# Poissons Ratio (z) = 0.19831 0.19831
#
# Static dielectric constant tensor:
#      x y z
#    x 6.124840 0.000000 0.000000 
#    y 0.000000 6.124840 0.000000 
#    z 0.000000 0.000000 4.038000 
# 
# 
# High freq. dielectric constant tensor:
#      x y z
#    x 1.780150 0.000000 0.000000 
#    y 0.000000 1.780150 0.000000 
#    z 0.000000 0.000000 1.828870 
# 
# From -- ./inp_files/4882.got.cif
#   From: 2010.03.12/outbox.cif.g09.slc.cpg/sg84_3_cif.got.tgz:4882.got - 2010.04.08 20:07:29.
