data_PCOD8303441
_publ_section_title
;
Structure prediction by ZEFSAII (Michael W. Deem and Ramdas Pophale) SiO2 
 PCOD8303441
Probable space group: P 4/N
;
_chemical_formula_sum "Si O2"
_cell_formula_units_Z 50
_cell_length_a 14.561968
_cell_length_b 14.561968
_cell_length_c 11.345517
_cell_angle_alpha 90.000000
_cell_angle_beta 90.000000
_cell_angle_gamma 90.000000
_cell_volume 2405.827227
_symmetry_space_group_name_H-M "P 4/N"
_symmetry_group_IT_number 85
_symmetry_cell_setting 'tetragonal'
loop_
_space_group_symop_operation_xyz
x,y,z
1/2-y,x,z
1/2-x,1/2-y,z
y,1/2-x,z
-x,-y,-z
1/2+y,-x,-z
1/2+x,1/2+y,-z
-y,1/2+x,-z
loop_
_atom_site_type_symbol
_atom_site_label
_atom_site_fract_x
_atom_site_fract_y
_atom_site_fract_z
Si Si1 0.470157 0.967587 0.130773
Si Si2 0.750000 0.250000 0.000000
Si Si3 0.948806 0.269174 0.901991
Si Si4 0.892094 0.413264 0.261952
Si Si5 0.618395 0.317901 0.494767
Si Si6 0.101728 0.251917 0.088685
Si Si7 0.033472 0.781666 0.746844
O O1 0.496405 0.861133 0.149464
O O2 0.361094 0.963686 0.153695
O O3 0.514972 0.034414 0.227257
O O4 0.500000 0.000000 0.000000
O O5 0.781136 0.160331 0.074266
O O6 0.962624 0.189048 0.808136
O O7 0.006483 0.247337 0.018128
O O8 0.876133 0.427754 0.400946
O O9 0.895649 0.303698 0.232127
O O10 0.714822 0.364121 0.457375
O O11 0.549218 0.320618 0.384008
O O12 0.158506 0.160431 0.059270
O O13 0.069823 0.257492 0.227391
#
# Coordination Sequence:
#
# PCOD8303441 Si02
#       7
#     8   2   8   8   8   8   8
#     4  12  24  37  58  89 121 154 194 240 291 352
#     4  12  24  32  56  88 118 156 188 228 304 366
#     4  12  22  37  56  85 121 152 191 242 296 354
#     4  11  23  39  61  87 118 156 195 239 294 349
#     4   9  20  38  60  87 117 152 195 241 292 349
#     4  11  23  39  60  84 115 160 204 241 287 345
#     4  11  21  38  60  84 118 152 192 244 294 347
#
# _framework density 20.782872000000001
#
# number of rings (size 3 to 8) (size 9 to 14) (size 15 to 20)
#    0.000    0.960    0.000    9.600    0.000    3.200 
#    0.000    1.600    0.000    0.000    0.000    2.240 
#    0.000    0.000    0.000    0.000    0.000    0.000 
#
# Total GULP energy -619439.495840 kJ/mol
# GULP energy per Si atom -12388.789917 kJ/mol
# Density = 2.073557 g / cm^3
# Si number density = 20.782872 Si / 1000 Ang^3
#
#
#
# Elastic Constant Matrix: (Units=GPa)
#
#
# Indices 1 2 3 4 5 6 
#
# 1 116.6324 39.6981 57.7949 0.0000 0.0000 -3.7106
# 2 39.6981 116.6324 57.7949 0.0000 0.0000 3.7106
# 3 57.7949 57.7949 106.2413 0.0000 0.0000 0.0000
# 4 0.0000 0.0000 0.0000 32.2763 0.0000 0.0000
# 5 0.0000 0.0000 0.0000 0.0000 32.2763 0.0000
# 6 -3.7106 3.7106 0.0000 0.0000 0.0000 18.6138
#
#
#
# Elastic Compliance Matrix: (Units=1/GPa)
#
#
# Indices 1 2 3 4 5 6 
#
# 1 0.011977 -0.001276 -0.005821 0.000000 0.000000 0.002642
# 2 -0.001276 0.011977 -0.005821 0.000000 0.000000 -0.002642
# 3 -0.005821 -0.005821 0.015746 0.000000 0.000000 0.000000
# 4 0.000000 0.000000 0.000000 0.030982 0.000000 0.000000
# 5 0.000000 0.000000 0.000000 0.000000 0.030982 0.000000
# 6 0.002642 -0.002642 0.000000 0.000000 0.000000 0.054777
#
#
# Mechanical properties :
#
#
# Convention : Reuss Voigt Hill
#
# Bulk Modulus (GPa) = 72.13545 72.23132 72.18339
# Shear Modulus (GPa) = 26.75233 28.91451 27.83342
#
# Velocity S-wave (km/s) = 3.59169 3.73402 3.66354
# Velocity P-wave (km/s) = 7.21005 7.30898 7.25968
#
# Compressibility (1/GPa) = 0.01386281
#
# Stress axis : x y z
#
# Youngs Moduli (GPa) = 83.49388 83.49388 63.50809
#
# Poissons Ratio (x) = 0.10654 0.36970
# Poissons Ratio (y) = 0.10654 0.36970
# Poissons Ratio (z) = 0.48604 0.48604
#
# Static dielectric constant tensor:
#      x y z
#    x 3.953610 0.000000 0.000000 
#    y 0.000000 3.953610 0.000000 
#    z 0.000000 0.000000 3.572060 
# 
# 
# High freq. dielectric constant tensor:
#      x y z
#    x 1.818800 0.000000 0.000000 
#    y 0.000000 1.818800 0.000000 
#    z 0.000000 0.000000 1.790270 
# 
# From -- ./inp_files/1669.got.cif
#   From: 2010.03.12/outbox.cif.g09.slc.cpg/sg85_cif.got.tgz:1669.got - 2010.04.08 20:10:46.
