data_PCOD8303534
_publ_section_title
;
Structure prediction by ZEFSAII (Michael W. Deem and Ramdas Pophale) SiO2 
 PCOD8303534
Probable space group: P 42/N
;
_chemical_formula_sum "Si O2"
_cell_formula_units_Z 24
_cell_length_a 9.925083
_cell_length_b 9.925083
_cell_length_c 12.477916
_cell_angle_alpha 90.000000
_cell_angle_beta 90.000000
_cell_angle_gamma 90.000000
_cell_volume 1229.165472
_symmetry_space_group_name_H-M "P 42/N"
_symmetry_group_IT_number 86
_space_group.IT_coordinate_system_code '2'
_symmetry_cell_setting 'tetragonal'
loop_
_space_group_symop_operation_xyz
x,y,z
-y,1/2+x,1/2+z
1/2-x,1/2-y,z
1/2+y,-x,1/2+z
-x,-y,-z
y,1/2-x,1/2-z
1/2+x,1/2+y,-z
1/2-y,x,1/2-z
loop_
_atom_site_type_symbol
_atom_site_label
_atom_site_fract_x
_atom_site_fract_y
_atom_site_fract_z
Si Si1 0.095547 0.746709 0.843929
Si Si2 0.176890 0.390421 0.505780
Si Si3 0.513186 0.036599 0.331659
O O1 0.250000 0.750000 0.880825
O O2 0.055228 0.889253 0.787918
O O3 0.072454 0.625891 0.762266
O O4 0.001135 0.725211 0.949001
O O5 0.250000 0.250000 0.520717
O O6 0.044005 0.371034 0.430164
O O7 0.132570 0.442434 0.622811
#
# Coordination Sequence:
#
# PCOD8303534 Si02
#       3
#     8   8   8
#     4  10  20  37  59  91 121 161 207 255 307 370
#     4   9  19  38  60  88 123 162 209 254 307 373
#     4   9  20  37  60  90 120 159 216 249 305 383
#
# _framework density 19.525442999999999
#
# number of rings (size 3 to 8) (size 9 to 14) (size 15 to 20)
#    2.000    0.667    0.000    2.000    0.000    1.333 
#    6.000    1.667    0.000    0.000    0.000    0.000 
#    0.000    0.000    0.000    0.000    0.000    0.000 
#
# Total GULP energy -297327.591608 kJ/mol
# GULP energy per Si atom -12388.649650 kJ/mol
# Density = 1.948100 g / cm^3
# Si number density = 19.525443 Si / 1000 Ang^3
#
#
#
# Elastic Constant Matrix: (Units=GPa)
#
#
# Indices 1 2 3 4 5 6 
#
# 1 133.8285 75.6870 51.3893 0.0000 0.0000 8.6095
# 2 75.6870 133.8285 51.3893 0.0000 0.0000 -8.6095
# 3 51.3893 51.3893 52.3069 0.0000 0.0000 0.0000
# 4 0.0000 0.0000 0.0000 28.7799 0.0000 0.0000
# 5 0.0000 0.0000 0.0000 0.0000 28.7799 0.0000
# 6 8.6095 -8.6095 0.0000 0.0000 0.0000 39.4692
#
#
#
# Elastic Compliance Matrix: (Units=1/GPa)
#
#
# Indices 1 2 3 4 5 6 
#
# 1 0.013800 -0.004587 -0.009052 0.000000 0.000000 -0.004011
# 2 -0.004587 0.013800 -0.009052 0.000000 0.000000 0.004011
# 3 -0.009052 -0.009052 0.036904 0.000000 0.000000 0.000000
# 4 0.000000 0.000000 0.000000 0.034746 0.000000 0.000000
# 5 0.000000 0.000000 0.000000 0.000000 0.034746 0.000000
# 6 -0.004011 0.004011 0.000000 0.000000 0.000000 0.027086
#
#
# Mechanical properties :
#
#
# Convention : Reuss Voigt Hill
#
# Bulk Modulus (GPa) = 52.29141 75.21056 63.75098
# Shear Modulus (GPa) = 23.49206 28.83902 26.16554
#
# Velocity S-wave (km/s) = 3.47241 3.84734 3.66467
# Velocity P-wave (km/s) = 6.55104 7.63799 7.11530
#
# Compressibility (1/GPa) = 0.01912360
#
# Stress axis : x y z
#
# Youngs Moduli (GPa) = 72.46251 72.46251 27.09769
#
# Poissons Ratio (x) = 0.33239 0.24528
# Poissons Ratio (y) = 0.33239 0.24528
# Poissons Ratio (z) = 0.65590 0.65590
#
# Static dielectric constant tensor:
#      x y z
#    x 3.420790 0.000000 0.000000 
#    y 0.000000 3.420790 0.000000 
#    z 0.000000 0.000000 3.218260 
# 
# 
# High freq. dielectric constant tensor:
#      x y z
#    x 1.751580 0.000000 0.000000 
#    y 0.000000 1.751580 0.000000 
#    z 0.000000 0.000000 1.736590 
# 
# From -- ./inp_files/739.got.cif
#   From: 2010.03.12/outbox.cif.g09.slc.cpg/sg86_1_cif.got.tgz:739.got - 2010.04.08 20:12:58.
