data_PCOD8303614
_publ_section_title
;
Structure prediction by ZEFSAII (Michael W. Deem and Ramdas Pophale) SiO2 
 PCOD8303614
Probable space group: P 42/N
;
_chemical_formula_sum "Si O2"
_cell_formula_units_Z 36
_cell_length_a 11.286649
_cell_length_b 11.286649
_cell_length_c 13.142782
_cell_angle_alpha 90.000000
_cell_angle_beta 90.000000
_cell_angle_gamma 90.000000
_cell_volume 1674.238570
_symmetry_space_group_name_H-M "P 42/N"
_symmetry_group_IT_number 86
_space_group.IT_coordinate_system_code '2'
_symmetry_cell_setting 'tetragonal'
loop_
_space_group_symop_operation_xyz
x,y,z
-y,1/2+x,1/2+z
1/2-x,1/2-y,z
1/2+y,-x,1/2+z
-x,-y,-z
y,1/2-x,1/2-z
1/2+x,1/2+y,-z
1/2-y,x,1/2-z
loop_
_atom_site_type_symbol
_atom_site_label
_atom_site_fract_x
_atom_site_fract_y
_atom_site_fract_z
Si Si1 0.750000 0.750000 0.026442
Si Si2 0.587819 0.562594 0.920850
Si Si3 0.462203 0.919757 0.250406
Si Si4 0.021702 0.181958 0.632792
Si Si5 0.290570 0.882645 0.066082
O O1 0.651122 0.681249 0.960802
O O2 0.819754 0.657627 0.096305
O O3 0.515175 0.604462 0.821541
O O4 0.684886 0.464183 0.893035
O O5 0.500000 0.500000 0.000000
O O6 0.581010 0.988248 0.216927
O O7 0.489744 0.807204 0.319378
O O8 0.389006 0.880727 0.152966
O O9 0.934573 0.155340 0.538347
O O10 0.250000 0.750000 0.043510
#
# Coordination Sequence:
#
# PCOD8303614 Si02
#       5
#     4   8   8   8   8
#     4  10  22  43  75  98 140 188 234 294 354 416
#     4  11  24  48  68 102 142 185 236 300 354 430
#     4  12  24  43  71 101 141 181 244 287 364 433
#     4  11  24  42  71 104 134 192 236 299 351 432
#     4  11  26  43  67 102 140 184 230 297 359 424
#
# _framework density 21.502310000000001
#
# number of rings (size 3 to 8) (size 9 to 14) (size 15 to 20)
#    0.000    0.889    4.444    3.333    3.111    6.222 
#    0.000    1.111    0.000    0.000    0.000    0.000 
#    0.000    0.000    0.000    0.000    0.000    0.000 
#
# Total GULP energy -446458.640727 kJ/mol
# GULP energy per Si atom -12401.628909 kJ/mol
# Density = 2.145337 g / cm^3
# Si number density = 21.502310 Si / 1000 Ang^3
#
#
#
# Elastic Constant Matrix: (Units=GPa)
#
#
# Indices 1 2 3 4 5 6 
#
# 1 111.2708 36.8477 44.6782 0.0000 0.0000 -3.2893
# 2 36.8477 111.2708 44.6782 0.0000 0.0000 3.2893
# 3 44.6782 44.6782 120.3020 0.0000 0.0000 0.0000
# 4 0.0000 0.0000 0.0000 17.7056 0.0000 0.0000
# 5 0.0000 0.0000 0.0000 0.0000 17.7056 0.0000
# 6 -3.2893 3.2893 0.0000 0.0000 0.0000 36.0405
#
#
#
# Elastic Compliance Matrix: (Units=1/GPa)
#
#
# Indices 1 2 3 4 5 6 
#
# 1 0.011123 -0.002423 -0.003231 0.000000 0.000000 0.001236
# 2 -0.002423 0.011123 -0.003231 0.000000 0.000000 -0.001236
# 3 -0.003231 -0.003231 0.010713 0.000000 0.000000 0.000000
# 4 0.000000 0.000000 0.000000 0.056479 0.000000 0.000000
# 5 0.000000 0.000000 0.000000 0.000000 0.056479 0.000000
# 6 0.001236 -0.001236 0.000000 0.000000 0.000000 0.027972
#
#
# Mechanical properties :
#
#
# Convention : Reuss Voigt Hill
#
# Bulk Modulus (GPa) = 65.83823 66.13908 65.98865
# Shear Modulus (GPa) = 25.41640 28.73298 27.07469
#
# Velocity S-wave (km/s) = 3.44180 3.65947 3.55230
# Velocity P-wave (km/s) = 6.81764 6.97721 6.89789
#
# Compressibility (1/GPa) = 0.01518874
#
# Stress axis : x y z
#
# Youngs Moduli (GPa) = 89.90102 89.90102 93.34869
#
# Poissons Ratio (x) = 0.21780 0.30164
# Poissons Ratio (y) = 0.21780 0.30164
# Poissons Ratio (z) = 0.29050 0.29050
#
# Static dielectric constant tensor:
#      x y z
#    x 2.485220 0.000000 0.000000 
#    y 0.000000 2.485220 0.000000 
#    z 0.000000 0.000000 4.088420 
# 
# 
# High freq. dielectric constant tensor:
#      x y z
#    x 1.849710 0.000000 0.000000 
#    y 0.000000 1.849710 0.000000 
#    z 0.000000 0.000000 1.856360 
# 
# From -- ./inp_files/2081.got.cif
#   From: 2010.03.12/outbox.cif.g09.slc.cpg/sg86_2_cif.got.tgz:2081.got - 2010.04.08 20:12:58.
