data_PCOD8303580
_publ_section_title
;
Structure prediction by ZEFSAII (Michael W. Deem and Ramdas Pophale) SiO2 
 PCOD8303580
Probable space group: P 42/N
;
_chemical_formula_sum "Si O2"
_cell_formula_units_Z 34
_cell_length_a 11.697113
_cell_length_b 11.697113
_cell_length_c 12.977226
_cell_angle_alpha 90.000000
_cell_angle_beta 90.000000
_cell_angle_gamma 90.000000
_cell_volume 1775.575888
_symmetry_space_group_name_H-M "P 42/N"
_symmetry_group_IT_number 86
_space_group.IT_coordinate_system_code '2'
_symmetry_cell_setting 'tetragonal'
loop_
_space_group_symop_operation_xyz
x,y,z
-y,1/2+x,1/2+z
1/2-x,1/2-y,z
1/2+y,-x,1/2+z
-x,-y,-z
y,1/2-x,1/2-z
1/2+x,1/2+y,-z
1/2-y,x,1/2-z
loop_
_atom_site_type_symbol
_atom_site_label
_atom_site_fract_x
_atom_site_fract_y
_atom_site_fract_z
Si Si1 0.761462 0.994491 0.660826
Si Si2 0.440837 0.871933 0.247851
Si Si3 0.451690 0.622491 0.223104
Si Si4 0.250000 0.250000 0.250000
Si Si5 0.617892 0.232808 0.953458
O O1 0.752734 0.858119 0.672730
O O2 0.640189 0.053093 0.680772
O O3 0.854274 0.035741 0.742412
O O4 0.798920 0.034232 0.547171
O O5 0.445324 0.740944 0.288840
O O6 0.393613 0.871204 0.129644
O O7 0.567258 0.924732 0.256938
O O8 0.429715 0.651835 0.102386
O O9 0.750000 0.250000 0.987559
#
# Coordination Sequence:
#
# PCOD8303580 Si02
#       5
#     8   8   8   2   8
#     4  12  22  46  66  90 138 166 217 280 316 400
#     4  10  21  41  64  95 130 169 217 269 320 386
#     4  10  21  41  64  95 130 169 217 269 320 386
#     4  12  28  44  64 100 126 172 216 268 344 372
#     4  10  22  40  69 102 121 180 224 252 341 386
#
# _framework density 19.148717000000001
#
# number of rings (size 3 to 8) (size 9 to 14) (size 15 to 20)
#    1.412    0.000    4.706    2.118    0.000    2.353 
#    4.235    0.000    0.000    0.000    0.000    0.000 
#    0.000    0.000    0.000    0.000    0.000    0.000 
#
# Total GULP energy -421368.851203 kJ/mol
# GULP energy per Si atom -12393.201506 kJ/mol
# Density = 1.910513 g / cm^3
# Si number density = 19.148717 Si / 1000 Ang^3
#
#
#
# Elastic Constant Matrix: (Units=GPa)
#
#
# Indices 1 2 3 4 5 6 
#
# 1 115.3977 29.1049 5.8380 0.0000 0.0000 1.4838
# 2 29.1049 115.3977 5.8380 0.0000 0.0000 -1.4838
# 3 5.8380 5.8380 63.8647 0.0000 0.0000 0.0000
# 4 0.0000 0.0000 0.0000 17.6613 0.0000 0.0000
# 5 0.0000 0.0000 0.0000 0.0000 17.6613 0.0000
# 6 1.4838 -1.4838 0.0000 0.0000 0.0000 40.0123
#
#
#
# Elastic Compliance Matrix: (Units=1/GPa)
#
#
# Indices 1 2 3 4 5 6 
#
# 1 0.009288 -0.002316 -0.000637 0.000000 0.000000 -0.000430
# 2 -0.002316 0.009288 -0.000637 0.000000 0.000000 0.000430
# 3 -0.000637 -0.000637 0.015775 0.000000 0.000000 0.000000
# 4 0.000000 0.000000 0.000000 0.056621 0.000000 0.000000
# 5 0.000000 0.000000 0.000000 0.000000 0.056621 0.000000
# 6 -0.000430 0.000430 0.000000 0.000000 0.000000 0.025024
#
#
# Mechanical properties :
#
#
# Convention : Reuss Voigt Hill
#
# Bulk Modulus (GPa) = 36.80672 41.80246 39.30459
# Shear Modulus (GPa) = 26.47560 31.99224 29.23392
#
# Velocity S-wave (km/s) = 3.72241 4.09188 3.91151
# Velocity P-wave (km/s) = 6.14315 6.64850 6.40081
#
# Compressibility (1/GPa) = 0.02716895
#
# Stress axis : x y z
#
# Youngs Moduli (GPa) = 107.67141 107.67141 63.39299
#
# Poissons Ratio (x) = 0.24934 0.04040
# Poissons Ratio (y) = 0.24934 0.04040
# Poissons Ratio (z) = 0.06862 0.06862
#
# Static dielectric constant tensor:
#      x y z
#    x 3.483360 0.000000 0.000000 
#    y 0.000000 3.483360 0.000000 
#    z 0.000000 0.000000 3.210900 
# 
# 
# High freq. dielectric constant tensor:
#      x y z
#    x 1.744490 0.000000 0.000000 
#    y 0.000000 1.744490 0.000000 
#    z 0.000000 0.000000 1.722390 
# 
# From -- ./inp_files/1969.got.cif
#   From: 2010.03.12/outbox.cif.g09.slc.cpg/sg86_1_cif.got.tgz:1969.got - 2010.04.08 20:12:58.
