data_PCOD8303573
_publ_section_title
;
Structure prediction by ZEFSAII (Michael W. Deem and Ramdas Pophale) SiO2 
 PCOD8303573
Probable space group: P 42/N
;
_chemical_formula_sum "Si O2"
_cell_formula_units_Z 34
_cell_length_a 11.401221
_cell_length_b 11.401221
_cell_length_c 10.741030
_cell_angle_alpha 90.000000
_cell_angle_beta 90.000000
_cell_angle_gamma 90.000000
_cell_volume 1396.203292
_symmetry_space_group_name_H-M "P 42/N"
_symmetry_group_IT_number 86
_space_group.IT_coordinate_system_code '2'
_symmetry_cell_setting 'tetragonal'
loop_
_space_group_symop_operation_xyz
x,y,z
-y,1/2+x,1/2+z
1/2-x,1/2-y,z
1/2+y,-x,1/2+z
-x,-y,-z
y,1/2-x,1/2-z
1/2+x,1/2+y,-z
1/2-y,x,1/2-z
loop_
_atom_site_type_symbol
_atom_site_label
_atom_site_fract_x
_atom_site_fract_y
_atom_site_fract_z
Si Si1 0.750000 0.750000 0.750000
Si Si2 0.425798 0.587064 0.912469
Si Si3 0.657177 0.430957 0.499778
Si Si4 0.125090 0.455951 0.152967
Si Si5 0.067358 0.297761 0.756535
O O1 0.642340 0.726481 0.654710
O O2 0.506330 0.616116 0.795453
O O3 0.307688 0.526647 0.856686
O O4 0.500000 0.500000 0.000000
O O5 0.383862 0.710628 0.975572
O O6 0.603335 0.499861 0.617039
O O7 0.561703 0.336808 0.443246
O O8 0.659063 0.522482 0.387744
O O9 0.167856 0.389593 0.722864
#
# Coordination Sequence:
#
# PCOD8303573 Si02
#       5
#     2   8   8   8   8
#     4  12  20  40  72 108 130 200 256 296 356 474
#     4  11  21  40  67 102 143 190 238 300 377 452
#     4  10  21  42  64 102 148 181 240 316 359 443
#     4  10  23  38  68 107 139 182 251 302 364 432
#     4  10  21  37  64 103 140 188 243 302 375 450
#
# _framework density 24.351752000000001
#
# number of rings (size 3 to 8) (size 9 to 14) (size 15 to 20)
#    0.000    1.647    4.706    0.000    0.000    3.765 
#    0.000    0.000    0.000   28.235    0.000    0.000 
#    0.000    0.000    0.000    0.000    0.000    1.412 
#
# Total GULP energy -421212.712025 kJ/mol
# GULP energy per Si atom -12388.609177 kJ/mol
# Density = 2.429633 g / cm^3
# Si number density = 24.351752 Si / 1000 Ang^3
#
#
#
# Elastic Constant Matrix: (Units=GPa)
#
#
# Indices 1 2 3 4 5 6 
#
# 1 130.6389 41.4741 37.3493 0.0000 0.0000 2.5431
# 2 41.4741 130.6389 37.3493 0.0000 0.0000 -2.5431
# 3 37.3493 37.3493 96.2239 0.0000 0.0000 0.0000
# 4 0.0000 0.0000 0.0000 32.6051 0.0000 0.0000
# 5 0.0000 0.0000 0.0000 0.0000 32.6051 0.0000
# 6 2.5431 -2.5431 0.0000 0.0000 0.0000 31.3845
#
#
#
# Elastic Compliance Matrix: (Units=1/GPa)
#
#
# Indices 1 2 3 4 5 6 
#
# 1 0.009127 -0.002140 -0.002712 0.000000 0.000000 -0.000913
# 2 -0.002140 0.009127 -0.002712 0.000000 0.000000 0.000913
# 3 -0.002712 -0.002712 0.012498 0.000000 0.000000 0.000000
# 4 0.000000 0.000000 0.000000 0.030670 0.000000 0.000000
# 5 0.000000 0.000000 0.000000 0.000000 0.030670 0.000000
# 6 -0.000913 0.000913 0.000000 0.000000 0.000000 0.032011
#
#
# Mechanical properties :
#
#
# Convention : Reuss Voigt Hill
#
# Bulk Modulus (GPa) = 64.00451 65.53856 64.77154
# Shear Modulus (GPa) = 34.61658 35.40756 35.01207
#
# Velocity S-wave (km/s) = 3.77440 3.81728 3.79590
# Velocity P-wave (km/s) = 6.73314 6.81179 6.77258
#
# Compressibility (1/GPa) = 0.01562390
#
# Stress axis : x y z
#
# Youngs Moduli (GPa) = 109.56222 109.56222 80.01402
#
# Poissons Ratio (x) = 0.23447 0.21700
# Poissons Ratio (y) = 0.23447 0.21700
# Poissons Ratio (z) = 0.29714 0.29714
#
# Static dielectric constant tensor:
#      x y z
#    x 4.713970 0.000000 0.000000 
#    y 0.000000 4.713970 0.000000 
#    z 0.000000 0.000000 4.081520 
# 
# 
# High freq. dielectric constant tensor:
#      x y z
#    x 1.962840 0.000000 0.000000 
#    y 0.000000 1.962840 0.000000 
#    z 0.000000 0.000000 1.976680 
# 
# From -- ./inp_files/1940.got.cif
#   From: 2010.03.12/outbox.cif.g09.slc.cpg/sg86_1_cif.got.tgz:1940.got - 2010.04.08 20:12:58.
