data_PCOD8303443
_publ_section_title
;
Structure prediction by ZEFSAII (Michael W. Deem and Ramdas Pophale) SiO2 
 PCOD8303443
Probable space group: P 4/N
;
_chemical_formula_sum "Si O2"
_cell_formula_units_Z 26
_cell_length_a 9.701577
_cell_length_b 9.701577
_cell_length_c 15.696387
_cell_angle_alpha 90.000000
_cell_angle_beta 90.000000
_cell_angle_gamma 90.000000
_cell_volume 1477.353304
_symmetry_space_group_name_H-M "P 4/N"
_symmetry_group_IT_number 85
_symmetry_cell_setting 'tetragonal'
loop_
_space_group_symop_operation_xyz
x,y,z
1/2-y,x,z
1/2-x,1/2-y,z
y,1/2-x,z
-x,-y,-z
1/2+y,-x,-z
1/2+x,1/2+y,-z
-y,1/2+x,-z
loop_
_atom_site_type_symbol
_atom_site_label
_atom_site_fract_x
_atom_site_fract_y
_atom_site_fract_z
Si Si1 0.599750 0.386148 0.465173
Si Si2 0.782918 0.524809 0.894567
Si Si3 0.750000 0.250000 0.000000
Si Si4 0.804338 0.532622 0.699876
O O1 0.500000 0.500000 0.500000
O O2 0.755358 0.435196 0.475986
O O3 0.586879 0.346826 0.365380
O O4 0.903892 0.635375 0.914912
O O5 0.796899 0.383191 0.946233
O O6 0.804725 0.480188 0.796730
O O7 0.913764 0.652099 0.681242
#
# Coordination Sequence:
#
# PCOD8303443 Si02
#       4
#     8   8   2   8
#     4  11  22  34  54  82 109 144 184 229 273 321
#     4   9  20  37  57  81 112 150 184 223 279 341
#     4  12  20  32  60  92 110 136 188 248 276 316
#     4   9  17  35  57  75 106 150 186 220 271 333
#
# _framework density 17.599039999999999
#
# number of rings (size 3 to 8) (size 9 to 14) (size 15 to 20)
#    0.000    2.154    3.077    2.769    0.000    3.077 
#    0.000    0.000    0.000    0.000    0.000    0.000 
#    0.000    0.000    0.000    0.000    0.000    0.000 
#
# Total GULP energy -322211.239496 kJ/mol
# GULP energy per Si atom -12392.739981 kJ/mol
# Density = 1.755898 g / cm^3
# Si number density = 17.599040 Si / 1000 Ang^3
#
#
#
# Elastic Constant Matrix: (Units=GPa)
#
#
# Indices 1 2 3 4 5 6 
#
# 1 102.0013 43.5368 52.5001 0.0000 0.0000 7.1571
# 2 43.5368 102.0013 52.5001 0.0000 0.0000 -7.1571
# 3 52.5001 52.5001 113.8508 0.0000 0.0000 0.0000
# 4 0.0000 0.0000 0.0000 32.5677 0.0000 0.0000
# 5 0.0000 0.0000 0.0000 0.0000 32.5677 0.0000
# 6 7.1571 -7.1571 0.0000 0.0000 0.0000 24.2156
#
#
#
# Elastic Compliance Matrix: (Units=1/GPa)
#
#
# Indices 1 2 3 4 5 6 
#
# 1 0.014368 -0.004071 -0.004748 0.000000 0.000000 -0.005450
# 2 -0.004071 0.014368 -0.004748 0.000000 0.000000 0.005450
# 3 -0.004748 -0.004748 0.013162 0.000000 0.000000 0.000000
# 4 0.000000 0.000000 0.000000 0.030705 0.000000 0.000000
# 5 0.000000 0.000000 0.000000 0.000000 0.030705 0.000000
# 6 -0.005450 0.005450 0.000000 0.000000 0.000000 0.044517
#
#
# Mechanical properties :
#
#
# Convention : Reuss Voigt Hill
#
# Bulk Modulus (GPa) = 67.73559 68.32528 68.03043
# Shear Modulus (GPa) = 27.79618 29.15797 28.47707
#
# Velocity S-wave (km/s) = 3.97850 4.07479 4.02693
# Velocity P-wave (km/s) = 7.72505 7.81320 7.76925
#
# Compressibility (1/GPa) = 0.01476329
#
# Stress axis : x y z
#
# Youngs Moduli (GPa) = 69.60079 69.60079 75.97402
#
# Poissons Ratio (x) = 0.28335 0.36073
# Poissons Ratio (y) = 0.28335 0.36073
# Poissons Ratio (z) = 0.33047 0.33047
#
# Static dielectric constant tensor:
#      x y z
#    x 3.521940 0.000000 0.000000 
#    y 0.000000 3.521940 0.000000 
#    z 0.000000 0.000000 3.297210 
# 
# 
# High freq. dielectric constant tensor:
#      x y z
#    x 1.676150 0.000000 0.000000 
#    y 0.000000 1.676150 0.000000 
#    z 0.000000 0.000000 1.682740 
# 
# From -- ./inp_files/2043.got.cif
#   From: 2010.03.12/outbox.cif.g09.slc.cpg/sg85_cif.got.tgz:2043.got - 2010.04.08 20:10:46.
