data_PCOD8303809
_publ_section_title
;
Structure prediction by ZEFSAII (Michael W. Deem and Ramdas Pophale) SiO2 
 PCOD8303809
Probable space group: I 4/M
;
_chemical_formula_sum "Si O2"
_cell_formula_units_Z 128
_cell_length_a 19.334277
_cell_length_b 19.334277
_cell_length_c 18.240129
_cell_angle_alpha 90.000000
_cell_angle_beta 90.000000
_cell_angle_gamma 90.000000
_cell_volume 6818.420454
_symmetry_space_group_name_H-M "I 4/M"
_symmetry_group_IT_number 87
_symmetry_cell_setting 'tetragonal'
loop_
_space_group_symop_operation_xyz
x,y,z
-y,x,z
-x,-y,z
y,-x,z
-x,-y,-z
y,-x,-z
x,y,-z
-y,x,-z
1/2+x,1/2+y,1/2+z
1/2-y,1/2+x,1/2+z
1/2-x,1/2-y,1/2+z
1/2+y,1/2-x,1/2+z
1/2-x,1/2-y,1/2-z
1/2+y,1/2-x,1/2-z
1/2+x,1/2+y,1/2-z
1/2-y,1/2+x,1/2-z
loop_
_atom_site_type_symbol
_atom_site_label
_atom_site_fract_x
_atom_site_fract_y
_atom_site_fract_z
Si Si1 0.255694 0.409726 0.231396
Si Si2 0.743800 0.738683 0.416128
Si Si3 0.356637 0.334014 0.683665
Si Si4 0.561046 0.949192 0.364830
Si Si5 0.659140 0.791733 0.789370
Si Si6 0.544112 0.604571 0.581047
Si Si7 0.201053 0.392934 0.920136
Si Si8 0.349426 0.979211 0.753223
O O1 0.332036 0.399855 0.265862
O O2 0.218387 0.336847 0.250563
O O3 0.251966 0.421744 0.143215
O O4 0.219386 0.475900 0.266626
O O5 0.764653 0.721927 0.500000
O O6 0.696398 0.677591 0.383928
O O7 0.814569 0.739279 0.367166
O O8 0.699961 0.809809 0.411438
O O9 0.362729 0.268474 0.734954
O O10 0.431251 0.345906 0.646762
O O11 0.624336 0.928423 0.418565
O O12 0.530645 0.876353 0.336335
O O13 0.500000 0.000000 0.398252
O O14 0.592076 0.980803 0.291018
O O15 0.589682 0.836835 0.795683
O O16 0.464105 0.589627 0.590149
O O17 0.557739 0.636475 0.500000
O O18 0.232226 0.412081 0.000000
#
# Coordination Sequence:
#
# PCOD8303809 Si02
#       8
#    16  16  16  16  16  16  16  16
#     4  10  19  33  51  77 103 135 179 223 265 312
#     4  10  19  34  53  74 104 141 173 219 276 317
#     4  11  19  32  55  81 103 128 182 228 259 308
#     4  11  18  32  52  77 102 145 182 212 261 327
#     4  11  19  33  51  79 104 133 179 230 268 311
#     4   9  20  38  54  74 110 144 164 197 263 334
#     4  10  19  33  50  72 103 140 177 215 267 318
#     4  11  18  31  52  76 103 138 177 222 268 314
#
# _framework density 18.772677000000002
#
# number of rings (size 3 to 8) (size 9 to 14) (size 15 to 20)
#    0.000    1.625    6.250    1.500    1.750    0.250 
#    0.000    2.500    0.000    6.000    0.000    0.000 
#    0.000    0.000    0.000    3.000    0.000    0.000 
#
# Total GULP energy -792895.914877 kJ/mol
# GULP energy per Si atom -12388.998670 kJ/mol
# Density = 1.872995 g / cm^3
# Si number density = 18.772677 Si / 1000 Ang^3
#
#
#
# Elastic Constant Matrix: (Units=GPa)
#
#
# Indices 1 2 3 4 5 6 
#
# 1 39.0434 3.8276 18.3415 0.0000 0.0000 1.9170
# 2 3.8276 39.0434 18.3415 0.0000 0.0000 -1.9170
# 3 18.3415 18.3415 112.9678 0.0000 0.0000 0.0000
# 4 0.0000 0.0000 0.0000 22.1733 0.0000 0.0000
# 5 0.0000 0.0000 0.0000 0.0000 22.1733 0.0000
# 6 1.9170 -1.9170 0.0000 0.0000 0.0000 33.8126
#
#
#
# Elastic Compliance Matrix: (Units=1/GPa)
#
#
# Indices 1 2 3 4 5 6 
#
# 1 0.027831 -0.000742 -0.004398 0.000000 0.000000 -0.001620
# 2 -0.000742 0.027831 -0.004398 0.000000 0.000000 0.001620
# 3 -0.004398 -0.004398 0.010280 0.000000 0.000000 0.000000
# 4 0.000000 0.000000 0.000000 0.045099 0.000000 0.000000
# 5 0.000000 0.000000 0.000000 0.000000 0.045099 0.000000
# 6 -0.001620 0.001620 0.000000 0.000000 0.000000 0.029758
#
#
# Mechanical properties :
#
#
# Convention : Reuss Voigt Hill
#
# Bulk Modulus (GPa) = 21.33752 30.23065 25.78409
# Shear Modulus (GPa) = 22.66570 25.66808 24.16689
#
# Velocity S-wave (km/s) = 3.47850 3.70173 3.59185
# Velocity P-wave (km/s) = 5.24636 5.86591 5.56476
#
# Compressibility (1/GPa) = 0.04686579
#
# Stress axis : x y z
#
# Youngs Moduli (GPa) = 35.93124 35.93124 97.27358
#
# Poissons Ratio (x) = 0.02665 0.42783
# Poissons Ratio (y) = 0.02665 0.42783
# Poissons Ratio (z) = 0.15803 0.15803
#
# Static dielectric constant tensor:
#      x y z
#    x 3.441160 0.000000 0.000000 
#    y 0.000000 3.441160 0.000000 
#    z 0.000000 0.000000 3.527360 
# 
# 
# High freq. dielectric constant tensor:
#      x y z
#    x 1.713970 0.000000 0.000000 
#    y 0.000000 1.713970 0.000000 
#    z 0.000000 0.000000 1.717840 
# 
# From -- ./inp_files/4736.got.cif
#   From: 2010.03.12/outbox.cif.g09.slc.cpg/sg87_3_cif.got.tgz:4736.got - 2010.04.08 20:16:13.
