data_PCOD8303873
_publ_section_title
;
Structure prediction by ZEFSAII (Michael W. Deem and Ramdas Pophale) SiO2 
 PCOD8303873
Probable space group: I 4/M
;
_chemical_formula_sum "Si O2"
_cell_formula_units_Z 96
_cell_length_a 23.287956
_cell_length_b 23.287956
_cell_length_c 9.295401
_cell_angle_alpha 90.000000
_cell_angle_beta 90.000000
_cell_angle_gamma 90.000000
_cell_volume 5041.164550
_symmetry_space_group_name_H-M "I 4/M"
_symmetry_group_IT_number 87
_symmetry_cell_setting 'tetragonal'
loop_
_space_group_symop_operation_xyz
x,y,z
-y,x,z
-x,-y,z
y,-x,z
-x,-y,-z
y,-x,-z
x,y,-z
-y,x,-z
1/2+x,1/2+y,1/2+z
1/2-y,1/2+x,1/2+z
1/2-x,1/2-y,1/2+z
1/2+y,1/2-x,1/2+z
1/2-x,1/2-y,1/2-z
1/2+y,1/2-x,1/2-z
1/2+x,1/2+y,1/2-z
1/2-y,1/2+x,1/2-z
loop_
_atom_site_type_symbol
_atom_site_label
_atom_site_fract_x
_atom_site_fract_y
_atom_site_fract_z
Si Si1 0.358149 0.506112 0.162922
Si Si2 0.810059 0.811141 0.839967
Si Si3 0.873273 0.700081 0.834378
Si Si4 0.517345 0.771525 0.162348
Si Si5 0.112185 0.721246 0.665843
Si Si6 0.102771 0.092691 0.160663
O O1 0.295419 0.534096 0.163435
O O2 0.353610 0.446184 0.247414
O O3 0.403901 0.543750 0.250837
O O4 0.380111 0.497204 0.000000
O O5 0.828581 0.748935 0.775357
O O6 0.765247 0.845084 0.742836
O O7 0.869706 0.844996 0.850124
O O8 0.783181 0.804245 0.000000
O O9 0.933974 0.695781 0.752668
O O10 0.842465 0.638520 0.817525
O O11 0.886787 0.714677 0.000000
O O12 0.452986 0.780289 0.228263
O O13 0.518838 0.795924 0.000000
O O14 0.108926 0.741164 0.500000
O O15 0.091953 0.067732 0.000000
#
# Coordination Sequence:
#
# PCOD8303873 Si02
#       6
#    16  16  16  16  16  16
#     4  11  22  37  56  78 106 147 192 231 275 325
#     4  10  20  33  53  83 114 144 179 222 274 329
#     4  10  21  37  57  83 114 146 182 224 272 327
#     4  10  21  36  56  81 110 144 181 223 271 325
#     4  10  21  37  57  83 114 146 182 224 272 327
#     4  11  22  36  55  79 109 144 187 235 276 324
#
# _framework density 19.043218
#
# number of rings (size 3 to 8) (size 9 to 14) (size 15 to 20)
#    0.000    1.667    3.333    1.500    0.000    3.667 
#    0.000    1.667    0.000    0.500    0.000    3.500 
#    0.000    0.000    0.000    0.000    0.000    0.000 
#
# Total GULP energy -595079.590761 kJ/mol
# GULP energy per Si atom -12397.491474 kJ/mol
# Density = 1.899987 g / cm^3
# Si number density = 19.043218 Si / 1000 Ang^3
#
#
#
# Elastic Constant Matrix: (Units=GPa)
#
#
# Indices 1 2 3 4 5 6 
#
# 1 81.2165 37.5936 39.8938 0.0000 0.0000 -0.5290
# 2 37.5936 81.2165 39.8938 0.0000 0.0000 0.5290
# 3 39.8938 39.8938 104.1177 0.0000 0.0000 0.0000
# 4 0.0000 0.0000 0.0000 28.5280 0.0000 0.0000
# 5 0.0000 0.0000 0.0000 0.0000 28.5280 0.0000
# 6 -0.5290 0.5290 0.0000 0.0000 0.0000 27.8882
#
#
#
# Elastic Compliance Matrix: (Units=1/GPa)
#
#
# Indices 1 2 3 4 5 6 
#
# 1 0.017134 -0.005801 -0.004342 0.000000 0.000000 0.000435
# 2 -0.005801 0.017134 -0.004342 0.000000 0.000000 -0.000435
# 3 -0.004342 -0.004342 0.012932 0.000000 0.000000 0.000000
# 4 0.000000 0.000000 0.000000 0.035053 0.000000 0.000000
# 5 0.000000 0.000000 0.000000 0.000000 0.035053 0.000000
# 6 0.000435 -0.000435 0.000000 0.000000 0.000000 0.035874
#
#
# Mechanical properties :
#
#
# Convention : Reuss Voigt Hill
#
# Bulk Modulus (GPa) = 54.85868 55.70143 55.28006
# Shear Modulus (GPa) = 26.56372 26.93349 26.74861
#
# Velocity S-wave (km/s) = 3.73891 3.76484 3.75190
# Velocity P-wave (km/s) = 6.89270 6.94350 6.91815
#
# Compressibility (1/GPa) = 0.01822866
#
# Stress axis : x y z
#
# Youngs Moduli (GPa) = 58.36485 58.36485 77.32686
#
# Poissons Ratio (x) = 0.33856 0.33578
# Poissons Ratio (y) = 0.33856 0.33578
# Poissons Ratio (z) = 0.25344 0.25344
#
# Static dielectric constant tensor:
#      x y z
#    x 3.326890 0.000000 0.000000 
#    y 0.000000 3.326890 0.000000 
#    z 0.000000 0.000000 3.533690 
# 
# 
# High freq. dielectric constant tensor:
#      x y z
#    x 1.725000 0.000000 0.000000 
#    y 0.000000 1.725000 0.000000 
#    z 0.000000 0.000000 1.740990 
# 
# From -- ./inp_files/1413.got.cif
#   From: 2010.03.12/outbox.cif.g09.slc.cpg/sg87_1_cif.got.tgz:1413.got - 2010.04.08 20:16:13.
