data_PCOD8303557
_publ_section_title
;
Structure prediction by ZEFSAII (Michael W. Deem and Ramdas Pophale) SiO2 
 PCOD8303557
Probable space group: P 42/N
;
_chemical_formula_sum "Si O2"
_cell_formula_units_Z 40
_cell_length_a 8.491839
_cell_length_b 8.491839
_cell_length_c 26.867993
_cell_angle_alpha 90.000000
_cell_angle_beta 90.000000
_cell_angle_gamma 90.000000
_cell_volume 1937.486699
_symmetry_space_group_name_H-M "P 42/N"
_symmetry_group_IT_number 86
_space_group.IT_coordinate_system_code '2'
_symmetry_cell_setting 'tetragonal'
loop_
_space_group_symop_operation_xyz
x,y,z
-y,1/2+x,1/2+z
1/2-x,1/2-y,z
1/2+y,-x,1/2+z
-x,-y,-z
y,1/2-x,1/2-z
1/2+x,1/2+y,-z
1/2-y,x,1/2-z
loop_
_atom_site_type_symbol
_atom_site_label
_atom_site_fract_x
_atom_site_fract_y
_atom_site_fract_z
Si Si1 0.250000 0.250000 0.750000
Si Si2 0.420335 0.689261 0.531113
Si Si3 0.250000 0.250000 0.250000
Si Si4 0.162311 0.411233 0.939317
Si Si5 0.750000 0.750000 0.912183
Si Si6 0.007881 0.793542 0.328587
Si Si7 0.698112 0.996587 0.671314
O O1 0.176349 0.382501 0.785360
O O2 0.250000 0.750000 0.550894
O O3 0.448053 0.740146 0.472847
O O4 0.392337 0.506229 0.536475
O O5 0.582724 0.743812 0.558705
O O6 0.375808 0.339528 0.215628
O O7 0.250000 0.250000 0.949193
O O8 0.148095 0.444864 0.881295
O O9 0.592216 0.737787 0.879558
O O10 0.155883 0.896295 0.312650
O O11 0.046332 0.608095 0.334760
#
# Coordination Sequence:
#
# PCOD8303557 Si02
#       7
#     2   8   2   8   4   8   8
#     4  12  24  38  64  94 132 158 236 276 328 402
#     4  11  26  42  68 101 134 177 225 278 336 412
#     4  10  20  44  64  90 116 176 220 274 320 402
#     4  11  24  44  63  95 136 173 222 272 336 409
#     4  11  22  44  64 100 134 170 230 275 328 420
#     4  11  23  40  62  96 126 173 213 277 335 395
#     4  10  23  40  67  86 131 170 218 265 340 391
#
# _framework density 20.645303999999999
#
# number of rings (size 3 to 8) (size 9 to 14) (size 15 to 20)
#    0.000    1.200    4.000    1.200    5.600    0.800 
#    0.000    0.000    0.000    0.000    0.000    0.000 
#    0.000    0.000    0.000    0.000    0.000    0.000 
#
# Total GULP energy -495636.402359 kJ/mol
# GULP energy per Si atom -12390.910059 kJ/mol
# Density = 2.059831 g / cm^3
# Si number density = 20.645304 Si / 1000 Ang^3
#
#
#
# Elastic Constant Matrix: (Units=GPa)
#
#
# Indices 1 2 3 4 5 6 
#
# 1 76.2540 0.0112 16.5585 0.0000 0.0000 0.0341
# 2 0.0112 76.2540 16.5585 0.0000 0.0000 -0.0341
# 3 16.5585 16.5585 122.6222 0.0000 0.0000 0.0000
# 4 0.0000 0.0000 0.0000 28.0233 0.0000 0.0000
# 5 0.0000 0.0000 0.0000 0.0000 28.0233 0.0000
# 6 0.0341 -0.0341 0.0000 0.0000 0.0000 31.7673
#
#
#
# Elastic Compliance Matrix: (Units=1/GPa)
#
#
# Indices 1 2 3 4 5 6 
#
# 1 0.013522 0.000406 -0.001881 0.000000 0.000000 -0.000014
# 2 0.000406 0.013522 -0.001881 0.000000 0.000000 0.000014
# 3 -0.001881 -0.001881 0.008663 0.000000 0.000000 0.000000
# 4 0.000000 0.000000 0.000000 0.035685 0.000000 0.000000
# 5 0.000000 0.000000 0.000000 0.000000 0.035685 0.000000
# 6 -0.000014 0.000014 0.000000 0.000000 0.000000 0.031479
#
#
# Mechanical properties :
#
#
# Convention : Reuss Voigt Hill
#
# Bulk Modulus (GPa) = 34.48603 37.93186 36.20895
# Shear Modulus (GPa) = 32.27208 33.69624 32.98416
#
# Velocity S-wave (km/s) = 3.95798 4.04437 4.00141
# Velocity P-wave (km/s) = 6.13415 6.34210 6.23899
#
# Compressibility (1/GPa) = 0.02899725
#
# Stress axis : x y z
#
# Youngs Moduli (GPa) = 73.95107 73.95107 115.43186
#
# Poissons Ratio (x) = -0.03006 0.21712
# Poissons Ratio (y) = -0.03006 0.21712
# Poissons Ratio (z) = 0.13910 0.13910
#
# Static dielectric constant tensor:
#      x y z
#    x 3.918890 0.000000 0.000000 
#    y 0.000000 3.918890 0.000000 
#    z 0.000000 0.000000 3.801080 
# 
# 
# High freq. dielectric constant tensor:
#      x y z
#    x 1.810300 0.000000 0.000000 
#    y 0.000000 1.810300 0.000000 
#    z 0.000000 0.000000 1.816480 
# 
# From -- ./inp_files/4885.got.cif
#   From: 2010.03.12/outbox.cif.g09.slc.cpg/sg86_3_cif.got.tgz:4885.got - 2010.04.08 20:12:58.
