data_PCOD8303765
_publ_section_title
;
Structure prediction by ZEFSAII (Michael W. Deem and Ramdas Pophale) SiO2 
 PCOD8303765
Probable space group: I 4/M
;
_chemical_formula_sum "Si O2"
_cell_formula_units_Z 112
_cell_length_a 30.018697
_cell_length_b 30.018697
_cell_length_c 9.482636
_cell_angle_alpha 90.000000
_cell_angle_beta 90.000000
_cell_angle_gamma 90.000000
_cell_volume 8545.013526
_symmetry_space_group_name_H-M "I 4/M"
_symmetry_group_IT_number 87
_symmetry_cell_setting 'tetragonal'
loop_
_space_group_symop_operation_xyz
x,y,z
-y,x,z
-x,-y,z
y,-x,z
-x,-y,-z
y,-x,-z
x,y,-z
-y,x,-z
1/2+x,1/2+y,1/2+z
1/2-y,1/2+x,1/2+z
1/2-x,1/2-y,1/2+z
1/2+y,1/2-x,1/2+z
1/2-x,1/2-y,1/2-z
1/2+y,1/2-x,1/2-z
1/2+x,1/2+y,1/2-z
1/2-y,1/2+x,1/2-z
loop_
_atom_site_type_symbol
_atom_site_label
_atom_site_fract_x
_atom_site_fract_y
_atom_site_fract_z
Si Si1 0.773940 0.147675 0.844770
Si Si2 0.287089 0.777016 0.833688
Si Si3 0.508622 0.426407 0.500000
Si Si4 0.670493 0.413519 0.165980
Si Si5 0.159701 0.097786 0.659687
Si Si6 0.633180 0.500413 0.764311
Si Si7 0.651411 0.277055 0.660090
Si Si8 0.570234 0.482102 0.000000
O O1 0.725353 0.170353 0.818457
O O2 0.785796 0.111656 0.725629
O O3 0.809122 0.187602 0.841147
O O4 0.775101 0.125111 0.000000
O O5 0.250000 0.750000 0.750000
O O6 0.333853 0.765663 0.755402
O O7 0.288595 0.763362 0.000000
O O8 0.548745 0.461508 0.500000
O O9 0.514470 0.393121 0.627468
O O10 0.626120 0.384435 0.199459
O O11 0.669682 0.460998 0.250912
O O12 0.677065 0.421632 0.000000
O O13 0.173612 0.110183 0.500000
O O14 0.152149 0.044875 0.666299
O O15 0.200022 0.108755 0.766070
O O16 0.598779 0.473752 0.862778
O O17 0.639189 0.262285 0.500000
O O18 0.553841 0.532237 0.000000
#
# Coordination Sequence:
#
# PCOD8303765 Si02
#       8
#    16  16   8  16  16  16  16   8
#     4   8  16  27  40  57  77  97 114 138 172 217
#     4   9  15  25  40  60  81  99 117 137 169 211
#     4  11  24  36  44  56  70  88 118 160 210 254
#     4  10  19  30  43  58  72  93 122 153 190 232
#     4  10  19  31  44  57  74  95 121 154 193 234
#     4  12  22  33  45  58  73  94 123 158 201 245
#     4   9  17  27  41  59  78  97 118 142 174 219
#     4  11  20  32  48  58  68  86 118 164 206 244
#
# _framework density 13.107059
#
# number of rings (size 3 to 8) (size 9 to 14) (size 15 to 20)
#    0.000    2.143    1.429    4.286    2.000    5.143 
#    0.000    0.000    0.000    0.000    0.000    0.000 
#    0.000    0.000    0.000    0.000    0.000    0.000 
#
# Total GULP energy -693899.232967 kJ/mol
# GULP energy per Si atom -12391.057732 kJ/mol
# Density = 1.307723 g / cm^3
# Si number density = 13.107059 Si / 1000 Ang^3
#
#
#
# Elastic Constant Matrix: (Units=GPa)
#
#
# Indices 1 2 3 4 5 6 
#
# 1 38.1432 29.3219 22.2247 0.0000 0.0000 0.7679
# 2 29.3219 38.1432 22.2247 0.0000 0.0000 -0.7679
# 3 22.2247 22.2247 77.5340 0.0000 0.0000 0.0000
# 4 0.0000 0.0000 0.0000 14.0424 0.0000 0.0000
# 5 0.0000 0.0000 0.0000 0.0000 14.0424 0.0000
# 6 0.7679 -0.7679 0.0000 0.0000 0.0000 26.2595
#
#
#
# Elastic Compliance Matrix: (Units=1/GPa)
#
#
# Indices 1 2 3 4 5 6 
#
# 1 0.066107 -0.047834 -0.005238 0.000000 0.000000 -0.003332
# 2 -0.047834 0.066107 -0.005238 0.000000 0.000000 0.003332
# 3 -0.005238 -0.005238 0.015900 0.000000 0.000000 0.000000
# 4 0.000000 0.000000 0.000000 0.071213 0.000000 0.000000
# 5 0.000000 0.000000 0.000000 0.000000 0.071213 0.000000
# 6 -0.003332 0.003332 0.000000 0.000000 0.000000 0.038276
#
#
# Mechanical properties :
#
#
# Convention : Reuss Voigt Hill
#
# Bulk Modulus (GPa) = 31.75056 33.48476 32.61766
# Shear Modulus (GPa) = 10.96646 16.20548 13.58597
#
# Velocity S-wave (km/s) = 2.89569 3.52005 3.22302
# Velocity P-wave (km/s) = 5.95454 6.49027 6.22817
#
# Compressibility (1/GPa) = 0.03149551
#
# Stress axis : x y z
#
# Youngs Moduli (GPa) = 15.12690 15.12690 62.89128
#
# Poissons Ratio (x) = 0.72358 0.32942
# Poissons Ratio (y) = 0.72358 0.32942
# Poissons Ratio (z) = 0.07923 0.07923
#
# Static dielectric constant tensor:
#      x y z
#    x 2.589280 0.000000 0.000000 
#    y 0.000000 2.589280 0.000000 
#    z 0.000000 0.000000 2.822290 
# 
# 
# High freq. dielectric constant tensor:
#      x y z
#    x 1.460930 0.000000 0.000000 
#    y 0.000000 1.460930 0.000000 
#    z 0.000000 0.000000 1.517910 
# 
# From -- ./inp_files/1762.got.cif
#   From: 2010.03.12/outbox.cif.g09.slc.cpg/sg87_1_cif.got.tgz:1762.got - 2010.04.08 20:16:13.
