data_PCOD8303528
_publ_section_title
;
Structure prediction by ZEFSAII (Michael W. Deem and Ramdas Pophale) SiO2 
 PCOD8303528
Probable space group: P 42/N
;
_chemical_formula_sum "Si O2"
_cell_formula_units_Z 48
_cell_length_a 9.623189
_cell_length_b 9.623189
_cell_length_c 26.039025
_cell_angle_alpha 90.000000
_cell_angle_beta 90.000000
_cell_angle_gamma 90.000000
_cell_volume 2411.363870
_symmetry_space_group_name_H-M "P 42/N"
_symmetry_group_IT_number 86
_space_group.IT_coordinate_system_code '2'
_symmetry_cell_setting 'tetragonal'
loop_
_space_group_symop_operation_xyz
x,y,z
-y,1/2+x,1/2+z
1/2-x,1/2-y,z
1/2+y,-x,1/2+z
-x,-y,-z
y,1/2-x,1/2-z
1/2+x,1/2+y,-z
1/2-y,x,1/2-z
loop_
_atom_site_type_symbol
_atom_site_label
_atom_site_fract_x
_atom_site_fract_y
_atom_site_fract_z
Si Si1 0.905129 0.415238 0.284697
Si Si2 0.962237 0.602471 0.380843
Si Si3 0.906345 0.407345 0.789231
Si Si4 0.078813 0.459662 0.887102
Si Si5 0.592040 0.742125 0.028868
Si Si6 0.745537 0.092247 0.570360
O O1 0.907207 0.501652 0.337067
O O2 0.746174 0.421252 0.264080
O O3 0.949981 0.255413 0.293375
O O4 0.010316 0.480921 0.244045
O O5 0.932142 0.764007 0.366799
O O6 0.888189 0.565877 0.434171
O O7 0.124377 0.573333 0.388135
O O8 0.969361 0.403873 0.846083
O O9 0.051941 0.381628 0.940680
O O10 0.049101 0.619941 0.897695
O O11 0.750000 0.750000 0.009823
O O12 0.499907 0.722567 0.979191
O O13 0.750000 0.250000 0.550372
#
# Coordination Sequence:
#
# PCOD8303528 Si02
#       6
#     8   8   8   8   8   8
#     4  11  25  43  65  92 121 159 204 257 316 374
#     4  10  21  39  61  88 124 164 209 253 304 366
#     4  11  25  43  65  92 121 159 204 257 316 374
#     4  10  21  39  61  88 124 164 209 253 304 366
#     4  10  20  36  60  88 122 166 214 252 297 360
#     4  10  22  36  58  90 126 166 202 254 309 356
#
# _framework density 19.905747999999999
#
# number of rings (size 3 to 8) (size 9 to 14) (size 15 to 20)
#    0.000    1.667    1.667    2.000    2.333    4.667 
#    0.000    0.000    0.000    0.000    0.000    0.000 
#    0.000    0.000    0.000    0.000    0.000    0.000 
#
# Total GULP energy -595323.991821 kJ/mol
# GULP energy per Si atom -12402.583163 kJ/mol
# Density = 1.986044 g / cm^3
# Si number density = 19.905748 Si / 1000 Ang^3
#
#
#
# Elastic Constant Matrix: (Units=GPa)
#
#
# Indices 1 2 3 4 5 6 
#
# 1 86.1909 14.3456 13.8746 0.0000 0.0000 1.4239
# 2 14.3456 86.1909 13.8746 0.0000 0.0000 -1.4239
# 3 13.8746 13.8746 52.0577 0.0000 0.0000 0.0000
# 4 0.0000 0.0000 0.0000 -16.8676 0.0000 0.0000
# 5 0.0000 0.0000 0.0000 0.0000 -16.8676 0.0000
# 6 1.4239 -1.4239 0.0000 0.0000 0.0000 26.5734
#
#
#
# Elastic Compliance Matrix: (Units=1/GPa)
#
#
# Indices 1 2 3 4 5 6 
#
# 1 0.012342 -0.001606 -0.002862 0.000000 0.000000 -0.000747
# 2 -0.001606 0.012342 -0.002862 0.000000 0.000000 0.000747
# 3 -0.002862 -0.002862 0.020735 0.000000 0.000000 0.000000
# 4 0.000000 0.000000 0.000000 -0.059285 0.000000 0.000000
# 5 0.000000 0.000000 0.000000 0.000000 -0.059285 0.000000
# 6 -0.000747 0.000747 0.000000 0.000000 0.000000 0.037712
#
#
# Mechanical properties :
#
#
# Convention : Reuss Voigt Hill
#
# Bulk Modulus (GPa) = 32.50804 34.29212 33.40008
# Shear Modulus (GPa) = -474.96957 10.72395 -232.12281
#
# Velocity S-wave (km/s) = -15.46374 2.32359 -10.81037
# Velocity P-wave (km/s) = 17.39166 4.94605 11.78996
#
# Compressibility (1/GPa) = 0.03076162
#
# Stress axis : x y z
#
# Youngs Moduli (GPa) = 81.02135 81.02135 48.22815
#
# Poissons Ratio (x) = 0.13012 0.13801
# Poissons Ratio (y) = 0.13012 0.13801
# Poissons Ratio (z) = 0.23184 0.23184
#
# Static dielectric constant tensor:
#      x y z
#    x 3.792040 0.000000 0.000000 
#    y 0.000000 3.792040 0.000000 
#    z 0.000000 0.000000 3.349850 
# 
# 
# High freq. dielectric constant tensor:
#      x y z
#    x 1.786250 0.000000 0.000000 
#    y 0.000000 1.786250 0.000000 
#    z 0.000000 0.000000 1.766660 
# 
# From -- ./inp_files/5185.got.cif
#   From: 2010.03.12/outbox.cif.g09.slc.cpg/sg86_3_cif.got.tgz:5185.got - 2010.04.08 20:12:58.
