data_PCOD8303104
_publ_section_title
;
Structure prediction by ZEFSAII (Michael W. Deem and Ramdas Pophale) SiO2 
 PCOD8303104
Probable space group: P 42/M
;
_chemical_formula_sum "Si O2"
_cell_formula_units_Z 56
_cell_length_a 11.349722
_cell_length_b 11.349722
_cell_length_c 25.694467
_cell_angle_alpha 90.000000
_cell_angle_beta 90.000000
_cell_angle_gamma 90.000000
_cell_volume 3309.863330
_symmetry_space_group_name_H-M "P 42/M"
_symmetry_group_IT_number 84
_symmetry_cell_setting 'tetragonal'
loop_
_space_group_symop_operation_xyz
x,y,z
-y,x,1/2+z
-x,-y,z
y,-x,1/2+z
-x,-y,-z
y,-x,1/2-z
x,y,-z
-y,x,1/2-z
loop_
_atom_site_type_symbol
_atom_site_label
_atom_site_fract_x
_atom_site_fract_y
_atom_site_fract_z
Si Si1 0.766184 0.359849 0.557710
Si Si2 0.359849 0.766184 0.057710
Si Si3 0.754172 0.245828 0.250000
Si Si4 0.370508 0.360423 0.655520
Si Si5 0.639088 1.000000 0.889190
Si Si6 0.360423 0.370508 0.155520
Si Si7 0.000000 0.355354 0.732015
O O1 0.742591 0.307619 0.500000
O O2 0.772904 0.500000 0.554588
O O3 0.663771 0.319476 0.597226
O O4 0.887217 0.308258 0.581102
O O5 0.319476 0.663771 0.097226
O O6 0.308258 0.887217 0.081102
O O7 0.307619 0.742591 0.000000
O O8 0.685538 0.281859 0.198323
O O9 0.718141 0.314462 0.301677
O O10 0.890051 0.284752 0.242295
O O11 0.715248 0.109949 0.257705
O O12 0.500000 0.311143 0.667576
O O13 0.365751 0.500000 0.658918
O O14 0.500000 0.000000 0.893940
O O15 0.674312 0.000000 0.829007
O O16 0.000000 0.500000 0.742224
#
# Coordination Sequence:
#
# PCOD8303104 Si02
#       7
#     8   8   8   8   8   8   8
#     4   9  16  26  43  69 102 138 173 210 258 319
#     4   9  16  26  43  69 102 138 173 210 258 319
#     4  12  22  36  54  74 104 138 182 225 268 323
#     4  10  19  30  47  72 104 140 175 216 268 328
#     4   9  15  28  46  69 100 135 172 207 252 309
#     4  10  19  30  47  72 104 140 175 216 268 328
#     4  11  22  36  57  80 107 142 178 224 271 317
#
# _framework density 16.919127
#
# number of rings (size 3 to 8) (size 9 to 14) (size 15 to 20)
#    0.000    2.000    2.857    3.000    0.000    3.714 
#    0.000    2.857    0.000    0.000    0.000    1.000 
#    0.000    5.714    0.000    0.000    0.000    0.000 
#
# Total GULP energy -693863.017900 kJ/mol
# GULP energy per Si atom -12390.411034 kJ/mol
# Density = 1.688062 g / cm^3
# Si number density = 16.919127 Si / 1000 Ang^3
#
#
#
# Elastic Constant Matrix: (Units=GPa)
#
#
# Indices 1 2 3 4 5 6 
#
# 1 36.1646 59.7448 17.9781 0.0000 0.0000 0.0000
# 2 59.7448 36.1646 17.9781 0.0000 0.0000 0.0000
# 3 17.9781 17.9781 101.6027 0.0000 0.0000 0.0000
# 4 0.0000 0.0000 0.0000 0.8917 0.0000 0.0000
# 5 0.0000 0.0000 0.0000 0.0000 0.8917 0.0000
# 6 0.0000 0.0000 0.0000 0.0000 0.0000 19.4540
#
#
#
# Elastic Compliance Matrix: (Units=1/GPa)
#
#
# Indices 1 2 3 4 5 6 
#
# 1 -0.015621 0.026788 -0.001976 0.000000 0.000000 0.000000
# 2 0.026788 -0.015621 -0.001976 0.000000 0.000000 0.000000
# 3 -0.001976 -0.001976 0.010542 0.000000 0.000000 0.000000
# 4 0.000000 0.000000 0.000000 1.121513 0.000000 0.000000
# 5 0.000000 0.000000 0.000000 0.000000 1.121513 0.000000
# 6 0.000000 0.000000 0.000000 0.000000 0.000000 0.051403
#
#
# Mechanical properties :
#
#
# Convention : Reuss Voigt Hill
#
# Bulk Modulus (GPa) = 40.04462 40.59268 40.31865
# Shear Modulus (GPa) = 2.23575 9.46285 5.84930
#
# Velocity S-wave (km/s) = 1.15078 2.36752 1.86138
# Velocity P-wave (km/s) = 5.04830 5.61407 5.33869
#
# Compressibility (1/GPa) = 0.02497214
#
# Stress axis : x y z
#
# Youngs Moduli (GPa) = -64.01811 -64.01811 94.86274
#
# Poissons Ratio (x) = 1.71491 0.18745
# Poissons Ratio (y) = 1.71491 0.18745
# Poissons Ratio (z) = -0.12650 -0.12650
#
# Static dielectric constant tensor:
#      x y z
#    x 3.094670 0.000000 0.000000 
#    y 0.000000 3.094670 0.000000 
#    z 0.000000 0.000000 3.389620 
# 
# 
# High freq. dielectric constant tensor:
#      x y z
#    x 1.620570 0.000000 0.000000 
#    y 0.000000 1.620570 0.000000 
#    z 0.000000 0.000000 1.664900 
# 
# From -- ./inp_files/5011.got.cif
#   From: 2010.03.12/outbox.cif.g09.slc.cpg/sg84_3_cif.got.tgz:5011.got - 2010.04.08 20:07:29.
