data_PCOD8303817
_publ_section_title
;
Structure prediction by ZEFSAII (Michael W. Deem and Ramdas Pophale) SiO2 
 PCOD8303817
Probable space group: I 4/M
;
_chemical_formula_sum "Si O2"
_cell_formula_units_Z 116
_cell_length_a 26.989717
_cell_length_b 26.989717
_cell_length_c 8.809272
_cell_angle_alpha 90.000000
_cell_angle_beta 90.000000
_cell_angle_gamma 90.000000
_cell_volume 6417.068589
_symmetry_space_group_name_H-M "I 4/M"
_symmetry_group_IT_number 87
_symmetry_cell_setting 'tetragonal'
loop_
_space_group_symop_operation_xyz
x,y,z
-y,x,z
-x,-y,z
y,-x,z
-x,-y,-z
y,-x,-z
x,y,-z
-y,x,-z
1/2+x,1/2+y,1/2+z
1/2-y,1/2+x,1/2+z
1/2-x,1/2-y,1/2+z
1/2+y,1/2-x,1/2+z
1/2-x,1/2-y,1/2-z
1/2+y,1/2-x,1/2-z
1/2+x,1/2+y,1/2-z
1/2-y,1/2+x,1/2-z
loop_
_atom_site_type_symbol
_atom_site_label
_atom_site_fract_x
_atom_site_fract_y
_atom_site_fract_z
Si Si1 0.000000 0.000000 0.750452
Si Si2 0.664720 0.415134 0.177968
Si Si3 0.244381 0.539693 0.323100
Si Si4 0.558364 0.129456 0.820713
Si Si5 0.564419 0.240774 0.178611
Si Si6 0.454202 0.131881 0.676578
Si Si7 0.997359 0.107807 0.173054
Si Si8 0.602840 0.332936 0.673438
O O1 0.054256 0.024208 0.775477
O O2 0.716466 0.419461 0.268225
O O3 0.626831 0.459133 0.218686
O O4 0.641326 0.362930 0.224235
O O5 0.674941 0.416004 0.000000
O O6 0.252732 0.527211 0.500000
O O7 0.254948 0.491143 0.224906
O O8 0.189088 0.559663 0.292074
O O9 0.575357 0.184367 0.769410
O O10 0.504745 0.115702 0.756476
O O11 0.598517 0.090429 0.757908
O O12 0.554415 0.127357 0.000000
O O13 0.602555 0.276616 0.265372
O O14 0.570682 0.248338 0.000000
O O15 0.461801 0.121933 0.500000
O O16 0.952007 0.145214 0.189813
O O17 0.017006 0.105484 0.000000
O O18 0.620903 0.333858 0.500000
#
# Coordination Sequence:
#
# PCOD8303817 Si02
#       8
#     4  16  16  16  16  16  16  16
#     4  12  21  36  53  66  93 136 177 206 257 324
#     4  12  24  35  50  73 103 134 174 227 277 319
#     4  10  19  34  55  76 102 139 183 223 263 317
#     4   9  19  35  55  83 117 148 178 216 261 309
#     4  10  19  33  54  78 105 137 176 223 272 316
#     4   9  19  35  56  83 114 149 183 214 255 313
#     4  11  21  34  51  69  94 133 175 216 263 321
#     4  11  22  35  53  73  99 135 178 223 270 322
#
# _framework density 18.076791
#
# number of rings (size 3 to 8) (size 9 to 14) (size 15 to 20)
#    0.000    1.655    2.759    3.103    0.000    2.483 
#    0.000    1.724    0.000    0.828    0.000    0.000 
#    0.000    0.000    0.000    0.000    0.000    0.000 
#
# Total GULP energy -718544.545684 kJ/mol
# GULP energy per Si atom -12388.699064 kJ/mol
# Density = 1.803565 g / cm^3
# Si number density = 18.076791 Si / 1000 Ang^3
#
#
#
# Elastic Constant Matrix: (Units=GPa)
#
#
# Indices 1 2 3 4 5 6 
#
# 1 91.9134 47.7290 19.7323 0.0000 0.0000 -2.9991
# 2 47.7290 91.9134 19.7323 0.0000 0.0000 2.9991
# 3 19.7323 19.7323 51.4776 0.0000 0.0000 0.0000
# 4 0.0000 0.0000 0.0000 23.7598 0.0000 0.0000
# 5 0.0000 0.0000 0.0000 0.0000 23.7598 0.0000
# 6 -2.9991 2.9991 0.0000 0.0000 0.0000 18.3779
#
#
#
# Elastic Compliance Matrix: (Units=1/GPa)
#
#
# Indices 1 2 3 4 5 6 
#
# 1 0.015588 -0.007557 -0.003078 0.000000 0.000000 0.003777
# 2 -0.007557 0.015588 -0.003078 0.000000 0.000000 -0.003777
# 3 -0.003078 -0.003078 0.021786 0.000000 0.000000 0.000000
# 4 0.000000 0.000000 0.000000 0.042088 0.000000 0.000000
# 5 0.000000 0.000000 0.000000 0.000000 0.042088 0.000000
# 6 0.003777 -0.003777 0.000000 0.000000 0.000000 0.055646
#
#
# Mechanical properties :
#
#
# Convention : Reuss Voigt Hill
#
# Bulk Modulus (GPa) = 39.16288 45.52126 42.34207
# Shear Modulus (GPa) = 21.86046 23.05356 22.45701
#
# Velocity S-wave (km/s) = 3.48129 3.57503 3.52847
# Velocity P-wave (km/s) = 6.15393 6.50215 6.33044
#
# Compressibility (1/GPa) = 0.02553439
#
# Stress axis : x y z
#
# Youngs Moduli (GPa) = 64.15119 64.15119 45.90105
#
# Poissons Ratio (x) = 0.48479 0.14131
# Poissons Ratio (y) = 0.48479 0.14131
# Poissons Ratio (z) = 0.19749 0.19749
#
# Static dielectric constant tensor:
#      x y z
#    x 3.507570 0.000000 0.000000 
#    y 0.000000 3.507570 0.000000 
#    z 0.000000 0.000000 3.282370 
# 
# 
# High freq. dielectric constant tensor:
#      x y z
#    x 1.694280 0.000000 0.000000 
#    y 0.000000 1.694280 0.000000 
#    z 0.000000 0.000000 1.694170 
# 
# From -- ./inp_files/1730.got.cif
#   From: 2010.03.12/outbox.cif.g09.slc.cpg/sg87_1_cif.got.tgz:1730.got - 2010.04.08 20:16:13.
