data_PCOD8303422
_publ_section_title
;
Structure prediction by ZEFSAII (Michael W. Deem and Ramdas Pophale) SiO2 
 PCOD8303422
Probable space group: P 4/N
;
_chemical_formula_sum "Si O2"
_cell_formula_units_Z 48
_cell_length_a 10.873364
_cell_length_b 10.873364
_cell_length_c 19.445244
_cell_angle_alpha 90.000000
_cell_angle_beta 90.000000
_cell_angle_gamma 90.000000
_cell_volume 2299.012067
_symmetry_space_group_name_H-M "P 4/N"
_symmetry_group_IT_number 85
_symmetry_cell_setting 'tetragonal'
loop_
_space_group_symop_operation_xyz
x,y,z
1/2-y,x,z
1/2-x,1/2-y,z
y,1/2-x,z
-x,-y,-z
1/2+y,-x,-z
1/2+x,1/2+y,-z
-y,1/2+x,-z
loop_
_atom_site_type_symbol
_atom_site_label
_atom_site_fract_x
_atom_site_fract_y
_atom_site_fract_z
Si Si1 0.118175 0.804851 0.343129
Si Si2 0.786037 0.061157 0.480247
Si Si3 0.269346 0.896363 0.813527
Si Si4 0.909263 0.856481 0.972981
Si Si5 0.946221 0.959782 0.112639
Si Si6 0.930554 0.673026 0.609969
O O1 0.250000 0.750000 0.362548
O O2 0.025680 0.747671 0.401024
O O3 0.078178 0.765402 0.267566
O O4 0.121422 0.952465 0.348848
O O5 0.665397 0.109587 0.520045
O O6 0.834725 0.947555 0.526506
O O7 0.250000 0.750000 0.830209
O O8 0.164578 0.987881 0.841790
O O9 0.401704 0.943683 0.841495
O O10 0.783079 0.918586 0.948259
O O11 0.913058 0.855907 0.056418
O O12 0.017812 0.924682 0.934548
O O13 0.908410 0.814497 0.631990
#
# Coordination Sequence:
#
# PCOD8303422 Si02
#       6
#     8   8   8   8   8   8
#     4  10  20  38  58  82 118 164 208 250 321 388
#     4   9  15  33  58  83 111 148 200 255 309 372
#     4  11  25  42  63  91 136 172 216 264 320 402
#     4  10  20  38  67  94 127 163 214 267 318 369
#     4  11  22  41  62  98 127 172 214 261 324 381
#     4  10  21  36  58  89 120 152 207 276 327 373
#
# _framework density 20.878532
#
# number of rings (size 3 to 8) (size 9 to 14) (size 15 to 20)
#    0.000    1.833    5.000    1.000    0.000    5.667 
#    3.000    0.000    0.000    2.000    0.000    0.000 
#    0.000    0.000    0.000    0.000    0.000    0.000 
#
# Total GULP energy -594754.666586 kJ/mol
# GULP energy per Si atom -12390.722221 kJ/mol
# Density = 2.083101 g / cm^3
# Si number density = 20.878532 Si / 1000 Ang^3
#
#
#
# Elastic Constant Matrix: (Units=GPa)
#
#
# Indices 1 2 3 4 5 6 
#
# 1 42.7935 16.7873 24.9242 0.0000 0.0000 -6.3967
# 2 16.7873 42.7935 24.9242 0.0000 0.0000 6.3967
# 3 24.9242 24.9242 123.6051 0.0000 0.0000 0.0000
# 4 0.0000 0.0000 0.0000 22.5948 0.0000 0.0000
# 5 0.0000 0.0000 0.0000 0.0000 22.5948 0.0000
# 6 -6.3967 6.3967 0.0000 0.0000 0.0000 21.0089
#
#
#
# Elastic Compliance Matrix: (Units=1/GPa)
#
#
# Indices 1 2 3 4 5 6 
#
# 1 0.032708 -0.012518 -0.004071 0.000000 0.000000 0.013770
# 2 -0.012518 0.032708 -0.004071 0.000000 0.000000 -0.013770
# 3 -0.004071 -0.004071 0.009732 0.000000 0.000000 0.000000
# 4 0.000000 0.000000 0.000000 0.044258 0.000000 0.000000
# 5 0.000000 0.000000 0.000000 0.000000 0.044258 0.000000
# 6 0.013770 -0.013770 0.000000 0.000000 0.000000 0.055985
#
#
# Mechanical properties :
#
#
# Convention : Reuss Voigt Hill
#
# Bulk Modulus (GPa) = 29.56175 38.05153 33.80664
# Shear Modulus (GPa) = 18.36571 22.74344 20.55457
#
# Velocity S-wave (km/s) = 2.96910 3.30407 3.14105
# Velocity P-wave (km/s) = 5.09350 5.72893 5.42053
#
# Compressibility (1/GPa) = 0.03382749
#
# Stress axis : x y z
#
# Youngs Moduli (GPa) = 30.57324 30.57324 102.75214
#
# Poissons Ratio (x) = 0.38272 0.41833
# Poissons Ratio (y) = 0.38272 0.41833
# Poissons Ratio (z) = 0.12447 0.12447
#
# Static dielectric constant tensor:
#      x y z
#    x 3.630780 0.000000 0.000000 
#    y 0.000000 3.630780 0.000000 
#    z 0.000000 0.000000 3.731840 
# 
# 
# High freq. dielectric constant tensor:
#      x y z
#    x 1.808650 0.000000 0.000000 
#    y 0.000000 1.808650 0.000000 
#    z 0.000000 0.000000 1.810200 
# 
# From -- ./inp_files/2097.got.cif
#   From: 2010.03.12/outbox.cif.g09.slc.cpg/sg85_cif.got.tgz:2097.got - 2010.04.08 20:10:46.
