data_PCOD8303331
_publ_section_title
;
Structure prediction by ZEFSAII (Michael W. Deem and Ramdas Pophale) SiO2 
 PCOD8303331
Probable space group: P 42/M
;
_chemical_formula_sum "Si O2"
_cell_formula_units_Z 22
_cell_length_a 5.396860
_cell_length_b 5.396860
_cell_length_c 29.149028
_cell_angle_alpha 90.000000
_cell_angle_beta 90.000000
_cell_angle_gamma 90.000000
_cell_volume 848.997442
_symmetry_space_group_name_H-M "P 42/M"
_symmetry_group_IT_number 84
_symmetry_cell_setting 'tetragonal'
loop_
_space_group_symop_operation_xyz
x,y,z
-y,x,1/2+z
-x,-y,z
y,-x,1/2+z
-x,-y,-z
y,-x,1/2-z
x,y,-z
-y,x,1/2-z
loop_
_atom_site_type_symbol
_atom_site_label
_atom_site_fract_x
_atom_site_fract_y
_atom_site_fract_z
Si Si1 0.148669 0.741773 0.097471
Si Si2 0.000000 0.000000 0.250000
Si Si3 0.751607 0.634425 0.691577
Si Si4 0.747675 0.154447 0.000000
O O1 0.357868 0.761187 0.136141
O O2 0.260052 0.684296 0.046751
O O3 0.000000 0.500000 0.112879
O O4 0.000000 0.000000 0.096720
O O5 0.901424 0.222444 0.216585
O O6 0.500000 0.500000 0.708051
O O7 0.000000 0.500000 0.708503
O O8 0.500000 0.000000 0.000000
O O9 0.000000 0.000000 0.000000
#
# Coordination Sequence:
#
# PCOD8303331 Si02
#       4
#     8   2   8   4
#     4  11  23  47  75 114 158 204 258 326 395 477
#     4  12  32  52  76 114 168 200 292 336 424 478
#     4  12  29  50  82 115 157 212 269 335 411 483
#     4  10  23  44  78 114 158 207 261 317 394 478
#
# _framework density 25.912911999999999
#
# number of rings (size 3 to 8) (size 9 to 14) (size 15 to 20)
#    0.000    0.727    1.818    3.818    5.091    2.909 
#    0.000    8.182    0.000    0.000    0.000    0.000 
#    0.000    0.000    0.000    0.000    0.000    0.000 
#
# Total GULP energy -272636.693317 kJ/mol
# GULP energy per Si atom -12392.576969 kJ/mol
# Density = 2.585393 g / cm^3
# Si number density = 25.912912 Si / 1000 Ang^3
#
#
#
# Elastic Constant Matrix: (Units=GPa)
#
#
# Indices 1 2 3 4 5 6 
#
# 1 152.1271 47.2329 31.9210 0.0000 0.0000 1.6412
# 2 47.2329 152.1271 31.9210 0.0000 0.0000 -1.6412
# 3 31.9210 31.9210 195.6344 0.0000 0.0000 0.0000
# 4 0.0000 0.0000 0.0000 60.0691 0.0000 0.0000
# 5 0.0000 0.0000 0.0000 0.0000 60.0691 0.0000
# 6 1.6412 -1.6412 0.0000 0.0000 0.0000 47.6054
#
#
#
# Elastic Compliance Matrix: (Units=1/GPa)
#
#
# Indices 1 2 3 4 5 6 
#
# 1 0.007418 -0.002126 -0.000864 0.000000 0.000000 -0.000329
# 2 -0.002126 0.007418 -0.000864 0.000000 0.000000 0.000329
# 3 -0.000864 -0.000864 0.005393 0.000000 0.000000 0.000000
# 4 0.000000 0.000000 0.000000 0.016647 0.000000 0.000000
# 5 0.000000 0.000000 0.000000 0.000000 0.016647 0.000000
# 6 -0.000329 0.000329 0.000000 0.000000 0.000000 0.021029
#
#
# Mechanical properties :
#
#
# Convention : Reuss Voigt Hill
#
# Bulk Modulus (GPa) = 79.84487 80.22648 80.03567
# Shear Modulus (GPa) = 57.84788 59.46963 58.65876
#
# Velocity S-wave (km/s) = 4.72995 4.79579 4.76298
# Velocity P-wave (km/s) = 7.79163 7.85452 7.82314
#
# Compressibility (1/GPa) = 0.01252429
#
# Stress axis : x y z
#
# Youngs Moduli (GPa) = 134.80438 134.80438 185.41216
#
# Poissons Ratio (x) = 0.28653 0.16012
# Poissons Ratio (y) = 0.28653 0.16012
# Poissons Ratio (z) = 0.11641 0.11641
#
# Static dielectric constant tensor:
#      x y z
#    x 4.262230 0.000000 0.000000 
#    y 0.000000 4.262230 0.000000 
#    z 0.000000 0.000000 5.441020 
# 
# 
# High freq. dielectric constant tensor:
#      x y z
#    x 2.024660 0.000000 0.000000 
#    y 0.000000 2.024660 0.000000 
#    z 0.000000 0.000000 2.077570 
# 
# From -- ./inp_files/5531.got.cif
#   From: 2010.03.12/outbox.cif.g09.slc.cpg/sg84_3_cif.got.tgz:5531.got - 2010.04.08 20:07:29.
