data_PCOD8303856
_publ_section_title
;
Structure prediction by ZEFSAII (Michael W. Deem and Ramdas Pophale) SiO2 
 PCOD8303856
Probable space group: I 4/M
;
_chemical_formula_sum "Si O2"
_cell_formula_units_Z 96
_cell_length_a 28.663192
_cell_length_b 28.663192
_cell_length_c 9.213320
_cell_angle_alpha 90.000000
_cell_angle_beta 90.000000
_cell_angle_gamma 90.000000
_cell_volume 7569.466322
_symmetry_space_group_name_H-M "I 4/M"
_symmetry_group_IT_number 87
_symmetry_cell_setting 'tetragonal'
loop_
_space_group_symop_operation_xyz
x,y,z
-y,x,z
-x,-y,z
y,-x,z
-x,-y,-z
y,-x,-z
x,y,-z
-y,x,-z
1/2+x,1/2+y,1/2+z
1/2-y,1/2+x,1/2+z
1/2-x,1/2-y,1/2+z
1/2+y,1/2-x,1/2+z
1/2-x,1/2-y,1/2-z
1/2+y,1/2-x,1/2-z
1/2+x,1/2+y,1/2-z
1/2-y,1/2+x,1/2-z
loop_
_atom_site_type_symbol
_atom_site_label
_atom_site_fract_x
_atom_site_fract_y
_atom_site_fract_z
Si Si1 0.818293 0.760534 0.161469
Si Si2 0.872353 0.453956 0.831116
Si Si3 0.376519 0.811349 0.332856
Si Si4 0.880351 0.546611 0.336149
Si Si5 0.822065 0.243407 0.336413
Si Si6 0.314770 0.886322 0.829613
O O1 0.805056 0.802056 0.271273
O O2 0.782003 0.718055 0.173088
O O3 0.869890 0.739163 0.194537
O O4 0.816701 0.781723 0.000000
O O5 0.885559 0.505328 0.778193
O O6 0.916116 0.420559 0.799800
O O7 0.826435 0.436425 0.741997
O O8 0.859511 0.454969 0.000000
O O9 0.360396 0.808011 0.500000
O O10 0.430083 0.828692 0.321757
O O11 0.367010 0.761504 0.255150
O O12 0.346914 0.849977 0.252162
O O13 0.886993 0.527686 0.500000
O O14 0.838333 0.233857 0.500000
O O15 0.326892 0.886801 0.000000
#
# Coordination Sequence:
#
# PCOD8303856 Si02
#       6
#    16  16  16  16  16  16
#     4   8  14  22  32  48  68  89 108 125 150 185
#     4  10  20  31  43  56  67  83 107 138 177 216
#     4   9  16  26  38  51  68  87 107 131 160 197
#     4   9  19  32  42  53  67  84 107 137 176 217
#     4   9  15  21  32  50  69  89 109 128 152 183
#     4   9  16  26  39  52  67  86 106 130 161 198
#
# _framework density 12.682532
#
# number of rings (size 3 to 8) (size 9 to 14) (size 15 to 20)
#    0.000    3.000    0.000    4.000    0.000    9.000 
#    0.000    1.667    0.000    0.000    0.000    0.000 
#    0.000    0.000    0.000    0.000    0.000    0.000 
#
# Total GULP energy -594719.519794 kJ/mol
# GULP energy per Si atom -12389.989996 kJ/mol
# Density = 1.265367 g / cm^3
# Si number density = 12.682532 Si / 1000 Ang^3
#
#
#
# Elastic Constant Matrix: (Units=GPa)
#
#
# Indices 1 2 3 4 5 6 
#
# 1 37.2253 36.8715 38.9412 0.0000 0.0000 -0.6195
# 2 36.8715 37.2253 38.9412 0.0000 0.0000 0.6195
# 3 38.9412 38.9412 105.7520 0.0000 0.0000 0.0000
# 4 0.0000 0.0000 0.0000 19.6269 0.0000 0.0000
# 5 0.0000 0.0000 0.0000 0.0000 19.6269 0.0000
# 6 -0.6195 0.6195 0.0000 0.0000 0.0000 13.1529
#
#
#
# Elastic Compliance Matrix: (Units=1/GPa)
#
#
# Indices 1 2 3 4 5 6 
#
# 1 1.703161 -1.681143 -0.008108 0.000000 0.000000 0.159398
# 2 -1.681143 1.703161 -0.008108 0.000000 0.000000 -0.159398
# 3 -0.008108 -0.008108 0.015427 0.000000 0.000000 0.000000
# 4 0.000000 0.000000 0.000000 0.050950 0.000000 0.000000
# 5 0.000000 0.000000 0.000000 0.000000 0.050950 0.000000
# 6 0.159398 -0.159398 0.000000 0.000000 0.000000 0.091044
#
#
# Mechanical properties :
#
#
# Convention : Reuss Voigt Hill
#
# Bulk Modulus (GPa) = 36.99321 45.52337 41.25829
# Shear Modulus (GPa) = 0.71241 14.84459 7.77850
#
# Velocity S-wave (km/s) = 0.75030 3.42493 2.47922
# Velocity P-wave (km/s) = 5.47563 7.18420 6.38730
#
# Compressibility (1/GPa) = 0.02703199
#
# Stress axis : x y z
#
# Youngs Moduli (GPa) = 0.58714 0.58714 64.82131
#
# Poissons Ratio (x) = 0.98707 0.52554
# Poissons Ratio (y) = 0.98707 0.52554
# Poissons Ratio (z) = 0.00476 0.00476
#
# Static dielectric constant tensor:
#      x y z
#    x 2.590670 0.000000 0.000000 
#    y 0.000000 2.590670 0.000000 
#    z 0.000000 0.000000 2.777060 
# 
# 
# High freq. dielectric constant tensor:
#      x y z
#    x 1.442470 0.000000 0.000000 
#    y 0.000000 1.442470 0.000000 
#    z 0.000000 0.000000 1.502800 
# 
# From -- ./inp_files/1548.got.cif
#   From: 2010.03.12/outbox.cif.g09.slc.cpg/sg87_1_cif.got.tgz:1548.got - 2010.04.08 20:16:13.
