data_PCOD8303440
_publ_section_title
;
Structure prediction by ZEFSAII (Michael W. Deem and Ramdas Pophale) SiO2 
 PCOD8303440
Probable space group: P 4/N
;
_chemical_formula_sum "Si O2"
_cell_formula_units_Z 26
_cell_length_a 13.408819
_cell_length_b 13.408819
_cell_length_c 6.410500
_cell_angle_alpha 90.000000
_cell_angle_beta 90.000000
_cell_angle_gamma 90.000000
_cell_volume 1152.584995
_symmetry_space_group_name_H-M "P 4/N"
_symmetry_group_IT_number 85
_symmetry_cell_setting 'tetragonal'
loop_
_space_group_symop_operation_xyz
x,y,z
1/2-y,x,z
1/2-x,1/2-y,z
y,1/2-x,z
-x,-y,-z
1/2+y,-x,-z
1/2+x,1/2+y,-z
-y,1/2+x,-z
loop_
_atom_site_type_symbol
_atom_site_label
_atom_site_fract_x
_atom_site_fract_y
_atom_site_fract_z
Si Si1 0.414708 0.607252 0.417885
Si Si2 0.750000 0.250000 0.500000
Si Si3 0.899565 0.811894 0.163925
Si Si4 0.572027 0.972526 0.810802
O O1 0.317697 0.673928 0.363889
O O2 0.511866 0.655807 0.314606
O O3 0.432604 0.603762 0.668794
O O4 0.397837 0.494017 0.334874
O O5 0.803033 0.879170 0.210710
O O6 0.925186 0.829520 0.917198
O O7 0.500000 0.000000 0.000000
#
# Coordination Sequence:
#
# PCOD8303440 Si02
#       4
#     8   2   8   8
#     4  10  24  43  65  97 140 176 230 282 350 422
#     4  12  28  40  70 104 136 202 224 276 366 428
#     4  10  23  41  68  99 128 174 232 284 346 412
#     4   9  21  43  68  90 132 177 222 291 339 404
#
# _framework density 22.55799
#
# number of rings (size 3 to 8) (size 9 to 14) (size 15 to 20)
#    0.000    2.154    0.000    0.000   17.231    0.000 
#    0.000    9.231    0.000    0.000    0.000    0.000 
#    0.000    0.000    0.000    0.000    0.000    0.000 
#
# Total GULP energy -322101.365455 kJ/mol
# GULP energy per Si atom -12388.514056 kJ/mol
# Density = 2.250665 g / cm^3
# Si number density = 22.557990 Si / 1000 Ang^3
#
#
#
# Elastic Constant Matrix: (Units=GPa)
#
#
# Indices 1 2 3 4 5 6 
#
# 1 88.0333 29.4127 22.7613 0.0000 0.0000 -2.9173
# 2 29.4127 88.0333 22.7613 0.0000 0.0000 2.9173
# 3 22.7613 22.7613 110.6489 0.0000 0.0000 0.0000
# 4 0.0000 0.0000 0.0000 29.5953 0.0000 0.0000
# 5 0.0000 0.0000 0.0000 0.0000 29.5953 0.0000
# 6 -2.9173 2.9173 0.0000 0.0000 0.0000 45.7638
#
#
#
# Elastic Compliance Matrix: (Units=1/GPa)
#
#
# Indices 1 2 3 4 5 6 
#
# 1 0.013210 -0.003958 -0.001903 0.000000 0.000000 0.001094
# 2 -0.003958 0.013210 -0.001903 0.000000 0.000000 -0.001094
# 3 -0.001903 -0.001903 0.009821 0.000000 0.000000 0.000000
# 4 0.000000 0.000000 0.000000 0.033789 0.000000 0.000000
# 5 0.000000 0.000000 0.000000 0.000000 0.033789 0.000000
# 6 0.001094 -0.001094 0.000000 0.000000 0.000000 0.021991
#
#
# Mechanical properties :
#
#
# Convention : Reuss Voigt Hill
#
# Bulk Modulus (GPa) = 48.28094 48.50958 48.39526
# Shear Modulus (GPa) = 33.72852 35.10954 34.41903
#
# Velocity S-wave (km/s) = 3.87097 3.94942 3.91039
# Velocity P-wave (km/s) = 6.43651 6.50756 6.47213
#
# Compressibility (1/GPa) = 0.02071211
#
# Stress axis : x y z
#
# Youngs Moduli (GPa) = 75.70014 75.70014 101.82655
#
# Poissons Ratio (x) = 0.29960 0.19380
# Poissons Ratio (y) = 0.29960 0.19380
# Poissons Ratio (z) = 0.14408 0.14408
#
# Static dielectric constant tensor:
#      x y z
#    x 4.315300 0.000000 0.000000 
#    y 0.000000 4.315300 0.000000 
#    z 0.000000 0.000000 4.479940 
# 
# 
# High freq. dielectric constant tensor:
#      x y z
#    x 1.885730 0.000000 0.000000 
#    y 0.000000 1.885730 0.000000 
#    z 0.000000 0.000000 1.882330 
# 
# From -- ./inp_files/195.got.cif
#   From: 2010.03.12/outbox.cif.g09.slc.cpg/sg85_cif.got.tgz:195.got - 2010.04.08 20:10:46.
