data_PCOD8303619
_publ_section_title
;
Structure prediction by ZEFSAII (Michael W. Deem and Ramdas Pophale) SiO2 
 PCOD8303619
Probable space group: P 42/N
;
_chemical_formula_sum "Si O2"
_cell_formula_units_Z 42
_cell_length_a 14.143527
_cell_length_b 14.143527
_cell_length_c 8.218152
_cell_angle_alpha 90.000000
_cell_angle_beta 90.000000
_cell_angle_gamma 90.000000
_cell_volume 1643.953834
_symmetry_space_group_name_H-M "P 42/N"
_symmetry_group_IT_number 86
_space_group.IT_coordinate_system_code '2'
_symmetry_cell_setting 'tetragonal'
loop_
_space_group_symop_operation_xyz
x,y,z
-y,1/2+x,1/2+z
1/2-x,1/2-y,z
1/2+y,-x,1/2+z
-x,-y,-z
y,1/2-x,1/2-z
1/2+x,1/2+y,-z
1/2-y,x,1/2-z
loop_
_atom_site_type_symbol
_atom_site_label
_atom_site_fract_x
_atom_site_fract_y
_atom_site_fract_z
Si Si1 0.276844 0.101070 0.753812
Si Si2 0.722376 0.945447 0.597582
Si Si3 0.750000 0.750000 0.750000
Si Si4 0.284784 0.570490 0.911161
Si Si5 0.401762 0.861030 0.770080
Si Si6 0.484892 0.532559 0.818704
O O1 0.177497 0.146218 0.699591
O O2 0.308908 0.044386 0.591916
O O3 0.263703 0.033555 0.911248
O O4 0.763100 0.841429 0.635036
O O5 0.793070 0.031664 0.626742
O O6 0.629536 0.957774 0.709609
O O7 0.204866 0.642136 0.841898
O O8 0.373991 0.556909 0.786007
O O9 0.321872 0.602404 0.085759
O O10 0.448311 0.967002 0.788291
O O11 0.500000 0.500000 0.000000
#
# Coordination Sequence:
#
# PCOD8303619 Si02
#       6
#     8   8   2   8   8   8
#     4  11  23  40  71 108 142 189 252 314 377 434
#     4  12  25  43  73 108 146 195 246 314 377 450
#     4  12  24  44  74 104 152 184 254 312 380 436
#     4  11  24  47  73 104 150 194 244 306 373 451
#     4  11  25  45  76 111 147 198 249 306 379 451
#     4  10  22  45  71 102 143 188 241 301 370 438
#
# _framework density 25.548164
#
# number of rings (size 3 to 8) (size 9 to 14) (size 15 to 20)
#    0.000    0.952    1.905    6.857    2.667    2.286 
#    0.000    6.667    0.000    2.286    0.000    0.000 
#    0.000    0.000    0.000    0.000    0.000    0.000 
#
# Total GULP energy -520501.300972 kJ/mol
# GULP energy per Si atom -12392.888118 kJ/mol
# Density = 2.549001 g / cm^3
# Si number density = 25.548164 Si / 1000 Ang^3
#
#
#
# Elastic Constant Matrix: (Units=GPa)
#
#
# Indices 1 2 3 4 5 6 
#
# 1 151.6112 45.0771 29.6996 0.0000 0.0000 -22.0059
# 2 45.0771 151.6112 29.6996 0.0000 0.0000 22.0059
# 3 29.6996 29.6996 51.1952 0.0000 0.0000 0.0000
# 4 0.0000 0.0000 0.0000 34.2060 0.0000 0.0000
# 5 0.0000 0.0000 0.0000 0.0000 34.2060 0.0000
# 6 -22.0059 22.0059 0.0000 0.0000 0.0000 27.7193
#
#
#
# Elastic Compliance Matrix: (Units=1/GPa)
#
#
# Indices 1 2 3 4 5 6 
#
# 1 0.010066 -0.003902 -0.003576 0.000000 0.000000 0.011089
# 2 -0.003902 0.010066 -0.003576 0.000000 0.000000 -0.011089
# 3 -0.003576 -0.003576 0.023682 0.000000 0.000000 0.000000
# 4 0.000000 0.000000 0.000000 0.029235 0.000000 0.000000
# 5 0.000000 0.000000 0.000000 0.000000 0.029235 0.000000
# 6 0.011089 -0.011089 0.000000 0.000000 0.000000 0.053682
#
#
# Mechanical properties :
#
#
# Convention : Reuss Voigt Hill
#
# Bulk Modulus (GPa) = 46.06918 62.59667 54.33293
# Shear Modulus (GPa) = 26.98206 35.88902 31.43554
#
# Velocity S-wave (km/s) = 3.25333 3.75208 3.51157
# Velocity P-wave (km/s) = 5.67307 6.58220 6.14447
#
# Compressibility (1/GPa) = 0.02170649
#
# Stress axis : x y z
#
# Youngs Moduli (GPa) = 99.34531 99.34531 42.22607
#
# Poissons Ratio (x) = 0.38762 0.15100
# Poissons Ratio (y) = 0.38762 0.15100
# Poissons Ratio (z) = 0.35525 0.35525
#
# Static dielectric constant tensor:
#      x y z
#    x 5.278720 0.000000 0.000000 
#    y 0.000000 5.278720 0.000000 
#    z 0.000000 0.000000 3.642820 
# 
# 
# High freq. dielectric constant tensor:
#      x y z
#    x 2.037020 0.000000 0.000000 
#    y 0.000000 2.037020 0.000000 
#    z 0.000000 0.000000 1.979920 
# 
# From -- ./inp_files/1196.got.cif
#   From: 2010.03.12/outbox.cif.g09.slc.cpg/sg86_1_cif.got.tgz:1196.got - 2010.04.08 20:12:58.
