data_PCOD8303376
_publ_section_title
;
Structure prediction by ZEFSAII (Michael W. Deem and Ramdas Pophale) SiO2 
 PCOD8303376
Probable space group: P 42/M
;
_chemical_formula_sum "Si O2"
_cell_formula_units_Z 48
_cell_length_a 9.058047
_cell_length_b 9.058047
_cell_length_c 28.716767
_cell_angle_alpha 90.000000
_cell_angle_beta 90.000000
_cell_angle_gamma 90.000000
_cell_volume 2356.159486
_symmetry_space_group_name_H-M "P 42/M"
_symmetry_group_IT_number 84
_symmetry_cell_setting 'tetragonal'
loop_
_space_group_symop_operation_xyz
x,y,z
-y,x,1/2+z
-x,-y,z
y,-x,1/2+z
-x,-y,-z
y,-x,1/2-z
x,y,-z
-y,x,1/2-z
loop_
_atom_site_type_symbol
_atom_site_label
_atom_site_fract_x
_atom_site_fract_y
_atom_site_fract_z
Si Si1 0.212139 0.050146 0.769540
Si Si2 0.925554 0.846215 0.552309
Si Si3 0.418694 0.346853 0.364076
Si Si4 0.721606 0.433752 0.764766
Si Si5 0.151037 0.579764 0.052052
Si Si6 0.657666 0.070527 0.861598
O O1 0.365969 0.129072 0.756346
O O2 0.079197 0.170902 0.767682
O O3 0.229866 0.978305 0.820582
O O4 0.966273 0.792322 0.500000
O O5 0.752631 0.874326 0.557551
O O6 0.983253 0.725341 0.589114
O O7 0.000000 0.000000 0.564310
O O8 0.500000 0.500000 0.359411
O O9 0.466666 0.250304 0.319238
O O10 0.476849 0.271526 0.411226
O O11 0.244233 0.366161 0.363522
O O12 0.584786 0.317225 0.761982
O O13 0.000000 0.500000 0.064066
O O14 0.205779 0.538877 0.000000
O O15 0.500000 0.000000 0.853662
#
# Coordination Sequence:
#
# PCOD8303376 Si02
#       6
#     8   8   8   8   8   8
#     4  11  25  41  60  88 122 163 205 260 311 367
#     4   9  20  39  65  91 124 163 201 255 317 375
#     4  11  22  41  61  88 122 160 206 249 312 372
#     4  11  22  41  62  86 123 166 203 253 307 374
#     4   9  20  40  62  90 124 157 202 255 308 372
#     4  11  24  41  62  90 124 163 208 260 310 372
#
# _framework density 20.372133000000002
#
# number of rings (size 3 to 8) (size 9 to 14) (size 15 to 20)
#    0.000    1.667    3.333    1.000    2.333    2.000 
#    3.000    0.000    0.000    0.000    0.000    0.000 
#    0.000    0.000    0.000    0.000    0.000    0.000 
#
# Total GULP energy -595199.933050 kJ/mol
# GULP energy per Si atom -12399.998605 kJ/mol
# Density = 2.032577 g / cm^3
# Si number density = 20.372133 Si / 1000 Ang^3
#
#
#
# Elastic Constant Matrix: (Units=GPa)
#
#
# Indices 1 2 3 4 5 6 
#
# 1 58.1989 30.5269 48.0127 0.0000 0.0000 -2.5833
# 2 30.5269 58.1989 48.0127 0.0000 0.0000 2.5833
# 3 48.0127 48.0127 146.4361 0.0000 0.0000 0.0000
# 4 0.0000 0.0000 0.0000 23.0507 0.0000 0.0000
# 5 0.0000 0.0000 0.0000 0.0000 23.0507 0.0000
# 6 -2.5833 2.5833 0.0000 0.0000 0.0000 42.0670
#
#
#
# Elastic Compliance Matrix: (Units=1/GPa)
#
#
# Indices 1 2 3 4 5 6 
#
# 1 0.027013 -0.009543 -0.005728 0.000000 0.000000 0.002245
# 2 -0.009543 0.027013 -0.005728 0.000000 0.000000 -0.002245
# 3 -0.005728 -0.005728 0.010585 0.000000 0.000000 0.000000
# 4 0.000000 0.000000 0.000000 0.043383 0.000000 0.000000
# 5 0.000000 0.000000 0.000000 0.000000 0.043383 0.000000
# 6 0.002245 -0.002245 0.000000 0.000000 0.000000 0.024047
#
#
# Mechanical properties :
#
#
# Convention : Reuss Voigt Hill
#
# Bulk Modulus (GPa) = 44.22232 57.32651 50.77441
# Shear Modulus (GPa) = 22.22612 26.71911 24.47261
#
# Velocity S-wave (km/s) = 3.30662 3.62546 3.46971
# Velocity P-wave (km/s) = 6.02766 6.76211 6.40542
#
# Compressibility (1/GPa) = 0.02261302
#
# Stress axis : x y z
#
# Youngs Moduli (GPa) = 37.01879 37.01879 94.47327
#
# Poissons Ratio (x) = 0.35329 0.54114
# Poissons Ratio (y) = 0.35329 0.54114
# Poissons Ratio (z) = 0.21204 0.21204
#
# Static dielectric constant tensor:
#      x y z
#    x 3.821030 0.000000 0.000000 
#    y 0.000000 3.821030 0.000000 
#    z 0.000000 0.000000 4.083380 
# 
# 
# High freq. dielectric constant tensor:
#      x y z
#    x 1.790840 0.000000 0.000000 
#    y 0.000000 1.790840 0.000000 
#    z 0.000000 0.000000 1.808920 
# 
# From -- ./inp_files/5810.got.cif
#   From: 2010.03.12/outbox.cif.g09.slc.cpg/sg84_3_cif.got.tgz:5810.got - 2010.04.08 20:07:29.
