data_PCOD8303129
_publ_section_title
;
Structure prediction by ZEFSAII (Michael W. Deem and Ramdas Pophale) SiO2 
 PCOD8303129
Probable space group: P 42/M
;
_chemical_formula_sum "Si O2"
_cell_formula_units_Z 48
_cell_length_a 17.818653
_cell_length_b 17.818653
_cell_length_c 8.881110
_cell_angle_alpha 90.000000
_cell_angle_beta 90.000000
_cell_angle_gamma 90.000000
_cell_volume 2819.791455
_symmetry_space_group_name_H-M "P 42/M"
_symmetry_group_IT_number 84
_symmetry_cell_setting 'tetragonal'
loop_
_space_group_symop_operation_xyz
x,y,z
-y,x,1/2+z
-x,-y,z
y,-x,1/2+z
-x,-y,-z
y,-x,1/2-z
x,y,-z
-y,x,1/2-z
loop_
_atom_site_type_symbol
_atom_site_label
_atom_site_fract_x
_atom_site_fract_y
_atom_site_fract_z
Si Si1 0.191647 0.813795 0.665738
Si Si2 0.207357 0.421335 0.678131
Si Si3 0.798639 0.418624 0.821076
Si Si4 0.915080 0.701381 0.675563
Si Si5 0.083279 0.690524 0.320522
Si Si6 0.684854 0.685238 0.169523
O O1 0.179883 0.847535 0.500000
O O2 0.218855 0.882262 0.768811
O O3 0.115396 0.773400 0.722614
O O4 0.253393 0.749212 0.663825
O O5 0.212172 0.435035 0.500000
O O6 0.191140 0.497039 0.766046
O O7 0.138408 0.367031 0.722418
O O8 0.285724 0.386166 0.736041
O O9 0.871194 0.373721 0.764742
O O10 0.721040 0.386812 0.752538
O O11 0.794042 0.414592 0.000000
O O12 0.921485 0.709551 0.500000
O O13 0.998163 0.686696 0.739991
O O14 0.091021 0.676995 0.500000
O O15 0.662451 0.660362 0.000000
#
# Coordination Sequence:
#
# PCOD8303129 Si02
#       6
#     8   8   8   8   8   8
#     4   8  15  28  47  67  90 119 155 196 238 280
#     4  10  19  32  50  73  99 128 160 198 240 286
#     4  11  21  32  48  72  99 129 162 197 236 284
#     4   9  18  31  49  70  94 124 160 197 239 288
#     4   9  18  33  49  68  95 128 160 197 242 287
#     4   9  17  32  51  70  93 124 161 201 238 279
#
# _framework density 17.022535999999999
#
# number of rings (size 3 to 8) (size 9 to 14) (size 15 to 20)
#    0.000    2.667    0.000    3.500    0.000    6.000 
#    0.000    3.333    0.000    1.000    0.000    7.000 
#    0.000    0.000    0.000    0.000    0.000    0.000 
#
# Total GULP energy -595016.271445 kJ/mol
# GULP energy per Si atom -12396.172322 kJ/mol
# Density = 1.698379 g / cm^3
# Si number density = 17.022536 Si / 1000 Ang^3
#
#
#
# Elastic Constant Matrix: (Units=GPa)
#
#
# Indices 1 2 3 4 5 6 
#
# 1 76.7006 70.8771 42.6697 0.0000 0.0000 0.5192
# 2 70.8771 76.7006 42.6697 0.0000 0.0000 -0.5192
# 3 42.6697 42.6697 75.6424 0.0000 0.0000 0.0000
# 4 0.0000 0.0000 0.0000 25.1782 0.0000 0.0000
# 5 0.0000 0.0000 0.0000 0.0000 25.1782 0.0000
# 6 0.5192 -0.5192 0.0000 0.0000 0.0000 17.0390
#
#
#
# Elastic Compliance Matrix: (Units=1/GPa)
#
#
# Indices 1 2 3 4 5 6 
#
# 1 0.091357 -0.081301 -0.005673 0.000000 0.000000 -0.005261
# 2 -0.081301 0.091357 -0.005673 0.000000 0.000000 0.005261
# 3 -0.005673 -0.005673 0.019620 0.000000 0.000000 0.000000
# 4 0.000000 0.000000 0.000000 0.039717 0.000000 0.000000
# 5 0.000000 0.000000 0.000000 0.000000 0.039717 0.000000
# 6 -0.005261 0.005261 0.000000 0.000000 0.000000 0.059009
#
#
# Mechanical properties :
#
#
# Convention : Reuss Voigt Hill
#
# Bulk Modulus (GPa) = 58.67928 60.16409 59.42168
# Shear Modulus (GPa) = 9.40287 18.33422 13.86855
#
# Velocity S-wave (km/s) = 2.35282 3.28541 2.85742
# Velocity P-wave (km/s) = 6.47514 7.05779 6.77273
#
# Compressibility (1/GPa) = 0.01704179
#
# Stress axis : x y z
#
# Youngs Moduli (GPa) = 10.94601 10.94601 50.96783
#
# Poissons Ratio (x) = 0.88992 0.28913
# Poissons Ratio (y) = 0.88992 0.28913
# Poissons Ratio (z) = 0.06210 0.06210
#
# Static dielectric constant tensor:
#      x y z
#    x 3.273470 0.000000 0.000000 
#    y 0.000000 3.273470 0.000000 
#    z 0.000000 0.000000 3.257490 
# 
# 
# High freq. dielectric constant tensor:
#      x y z
#    x 1.641440 0.000000 0.000000 
#    y 0.000000 1.641440 0.000000 
#    z 0.000000 0.000000 1.661380 
# 
# From -- ./inp_files/970.got.cif
#   From: 2010.03.12/outbox.cif.g09.slc.cpg/sg84_1_cif.got.tgz:970.got - 2010.04.08 20:07:29.
