data_PCOD8303138
_publ_section_title
;
Structure prediction by ZEFSAII (Michael W. Deem and Ramdas Pophale) SiO2 
 PCOD8303138
Probable space group: P 42/M
;
_chemical_formula_sum "Si O2"
_cell_formula_units_Z 56
_cell_length_a 18.830902
_cell_length_b 18.830902
_cell_length_c 9.260004
_cell_angle_alpha 90.000000
_cell_angle_beta 90.000000
_cell_angle_gamma 90.000000
_cell_volume 3283.623996
_symmetry_space_group_name_H-M "P 42/M"
_symmetry_group_IT_number 84
_symmetry_cell_setting 'tetragonal'
loop_
_space_group_symop_operation_xyz
x,y,z
-y,x,1/2+z
-x,-y,z
y,-x,1/2+z
-x,-y,-z
y,-x,1/2-z
x,y,-z
-y,x,1/2-z
loop_
_atom_site_type_symbol
_atom_site_label
_atom_site_fract_x
_atom_site_fract_y
_atom_site_fract_z
Si Si1 0.546865 0.936022 0.331998
Si Si2 0.396963 0.267820 0.840475
Si Si3 0.674755 0.251035 0.327699
Si Si4 0.917682 0.062018 0.673752
Si Si5 0.113863 0.670581 0.340411
Si Si6 0.180399 0.810646 0.670655
Si Si7 0.214787 0.479939 0.831761
O O1 0.561009 0.946285 0.500000
O O2 0.624456 0.938564 0.258913
O O3 0.504117 0.864683 0.297288
O O4 0.500000 0.000000 0.268917
O O5 0.332678 0.315224 0.775480
O O6 0.369372 0.188150 0.849783
O O7 0.466873 0.271607 0.741009
O O8 0.418202 0.294924 0.000000
O O9 0.676415 0.249007 0.500000
O O10 0.739356 0.200845 0.268325
O O11 0.599552 0.223195 0.267880
O O12 0.927981 0.052986 0.500000
O O13 0.850684 0.112341 0.711128
O O14 0.987572 0.096868 0.746431
O O15 0.079731 0.676483 0.500000
O O16 0.127392 0.748699 0.270952
O O17 0.182747 0.799811 0.500000
O O18 0.231831 0.481084 0.000000
#
# Coordination Sequence:
#
# PCOD8303138 Si02
#       7
#     8   8   8   8   8   8   8
#     4   9  17  28  39  60  94 122 141 173 218 263
#     4   8  14  26  45  64  84 110 145 182 214 251
#     4   8  14  27  47  68  87 115 153 186 214 259
#     4  10  19  33  51  69  90 118 151 188 228 275
#     4   8  14  27  46  63  79 110 150 182 210 251
#     4   8  15  29  48  68  88 111 149 192 223 257
#     4   9  16  27  45  65  87 115 147 178 215 264
#
# _framework density 17.054327000000001
#
# number of rings (size 3 to 8) (size 9 to 14) (size 15 to 20)
#    0.000    3.429    0.000    2.571    0.000    0.286 
#    2.571    2.143    0.000    4.714    0.000    3.000 
#    0.000    0.000    0.000    0.000    0.000    0.000 
#
# Total GULP energy -693845.471875 kJ/mol
# GULP energy per Si atom -12390.097712 kJ/mol
# Density = 1.701551 g / cm^3
# Si number density = 17.054327 Si / 1000 Ang^3
#
#
#
# Elastic Constant Matrix: (Units=GPa)
#
#
# Indices 1 2 3 4 5 6 
#
# 1 77.7915 37.8436 25.5469 0.0000 0.0000 5.2435
# 2 37.8436 77.7915 25.5469 0.0000 0.0000 -5.2435
# 3 25.5469 25.5469 40.2967 0.0000 0.0000 0.0000
# 4 0.0000 0.0000 0.0000 18.9980 0.0000 0.0000
# 5 0.0000 0.0000 0.0000 0.0000 18.9980 0.0000
# 6 5.2435 -5.2435 0.0000 0.0000 0.0000 20.7330
#
#
#
# Elastic Compliance Matrix: (Units=1/GPa)
#
#
# Indices 1 2 3 4 5 6 
#
# 1 0.019413 -0.007400 -0.007616 0.000000 0.000000 -0.006781
# 2 -0.007400 0.019413 -0.007616 0.000000 0.000000 0.006781
# 3 -0.007616 -0.007616 0.034472 0.000000 0.000000 0.000000
# 4 0.000000 0.000000 0.000000 0.052637 0.000000 0.000000
# 5 0.000000 0.000000 0.000000 0.000000 0.052637 0.000000
# 6 -0.006781 0.006781 0.000000 0.000000 0.000000 0.051662
#
#
# Mechanical properties :
#
#
# Convention : Reuss Voigt Hill
#
# Bulk Modulus (GPa) = 35.66983 41.52826 38.59905
# Shear Modulus (GPa) = 17.55355 18.87530 18.21443
#
# Velocity S-wave (km/s) = 3.21171 3.33043 3.27161
# Velocity P-wave (km/s) = 5.89188 6.26039 6.07893
#
# Compressibility (1/GPa) = 0.02803490
#
# Stress axis : x y z
#
# Youngs Moduli (GPa) = 51.51229 51.51229 29.00875
#
# Poissons Ratio (x) = 0.38118 0.22093
# Poissons Ratio (y) = 0.38118 0.22093
# Poissons Ratio (z) = 0.39231 0.39231
#
# Static dielectric constant tensor:
#      x y z
#    x 3.317780 0.000000 0.000000 
#    y 0.000000 3.317780 0.000000 
#    z 0.000000 0.000000 3.064320 
# 
# 
# High freq. dielectric constant tensor:
#      x y z
#    x 1.646500 0.000000 0.000000 
#    y 0.000000 1.646500 0.000000 
#    z 0.000000 0.000000 1.628150 
# 
# From -- ./inp_files/1310.got.cif
#   From: 2010.03.12/outbox.cif.g09.slc.cpg/sg84_1_cif.got.tgz:1310.got - 2010.04.08 20:07:29.
