data_PCOD8303184
_publ_section_title
;
Structure prediction by ZEFSAII (Michael W. Deem and Ramdas Pophale) SiO2 
 PCOD8303184
Probable space group: P 42/M
;
_chemical_formula_sum "Si O2"
_cell_formula_units_Z 64
_cell_length_a 20.172542
_cell_length_b 20.172542
_cell_length_c 8.933196
_cell_angle_alpha 90.000000
_cell_angle_beta 90.000000
_cell_angle_gamma 90.000000
_cell_volume 3635.198408
_symmetry_space_group_name_H-M "P 42/M"
_symmetry_group_IT_number 84
_symmetry_cell_setting 'tetragonal'
loop_
_space_group_symop_operation_xyz
x,y,z
-y,x,1/2+z
-x,-y,z
y,-x,1/2+z
-x,-y,-z
y,-x,1/2-z
x,y,-z
-y,x,1/2-z
loop_
_atom_site_type_symbol
_atom_site_label
_atom_site_fract_x
_atom_site_fract_y
_atom_site_fract_z
Si Si1 0.707266 0.786791 0.828644
Si Si2 0.954497 0.639459 0.829929
Si Si3 0.911220 0.375347 0.674786
Si Si4 0.410255 0.534420 0.323537
Si Si5 0.867194 0.510764 0.174103
Si Si6 0.412004 0.762610 0.170192
Si Si7 0.332998 0.637149 0.172900
Si Si8 0.294099 0.826454 0.330797
O O1 0.683410 0.859878 0.780721
O O2 0.670855 0.734595 0.723548
O O3 0.787928 0.776635 0.810559
O O4 0.686608 0.772935 0.000000
O O5 0.915697 0.571969 0.786117
O O6 0.906322 0.704327 0.809161
O O7 0.016935 0.649988 0.724058
O O8 0.979829 0.634069 0.000000
O O9 0.911765 0.388237 0.500000
O O10 0.893595 0.444540 0.750612
O O11 0.469920 0.583517 0.279229
O O12 0.410684 0.517266 0.500000
O O13 0.343054 0.572222 0.276182
O O14 0.792697 0.528354 0.230225
O O15 0.863967 0.496845 0.000000
O O16 0.397984 0.684580 0.194680
O O17 0.343090 0.797550 0.208426
O O18 0.430913 0.777959 0.000000
O O19 0.326020 0.616880 0.000000
O O20 0.321440 0.812161 0.500000
#
# Coordination Sequence:
#
# PCOD8303184 Si02
#       8
#     8   8   8   8   8   8   8   8
#     4   9  19  35  51  70  97 127 157 190 233 280
#     4   9  18  32  50  70  92 125 166 199 230 277
#     4  11  22  32  46  71 102 130 156 195 243 283
#     4  11  22  37  54  69  87 111 144 191 243 293
#     4  10  20  33  48  66  94 133 171 201 232 279
#     4   9  17  29  47  70  93 117 154 200 238 276
#     4  10  20  34  52  73  94 120 155 194 240 290
#     4   8  15  31  52  68  88 122 160 193 226 272
#
# _framework density 17.605642
#
# number of rings (size 3 to 8) (size 9 to 14) (size 15 to 20)
#    0.000    2.375    0.000    4.125    0.000    7.500 
#    0.000    1.250    0.000    0.000    0.000    0.000 
#    0.000    0.500    0.000    6.250    0.000    0.000 
#
# Total GULP energy -792997.304845 kJ/mol
# GULP energy per Si atom -12390.582888 kJ/mol
# Density = 1.756557 g / cm^3
# Si number density = 17.605642 Si / 1000 Ang^3
#
#
#
# Elastic Constant Matrix: (Units=GPa)
#
#
# Indices 1 2 3 4 5 6 
#
# 1 66.3556 45.8828 30.3490 0.0000 0.0000 3.8400
# 2 45.8828 66.3556 30.3490 0.0000 0.0000 -3.8400
# 3 30.3490 30.3490 72.5718 0.0000 0.0000 0.0000
# 4 0.0000 0.0000 0.0000 23.3073 0.0000 0.0000
# 5 0.0000 0.0000 0.0000 0.0000 23.3073 0.0000
# 6 3.8400 -3.8400 0.0000 0.0000 0.0000 21.5768
#
#
#
# Elastic Compliance Matrix: (Units=1/GPa)
#
#
# Indices 1 2 3 4 5 6 
#
# 1 0.031926 -0.020413 -0.004815 0.000000 0.000000 -0.009315
# 2 -0.020413 0.031926 -0.004815 0.000000 0.000000 0.009315
# 3 -0.004815 -0.004815 0.017807 0.000000 0.000000 0.000000
# 4 0.000000 0.000000 0.000000 0.042905 0.000000 0.000000
# 5 0.000000 0.000000 0.000000 0.000000 0.042905 0.000000
# 6 -0.009315 0.009315 0.000000 0.000000 0.000000 0.049661
#
#
# Mechanical properties :
#
#
# Convention : Reuss Voigt Hill
#
# Bulk Modulus (GPa) = 46.35195 46.49383 46.42289
# Shear Modulus (GPa) = 17.58043 20.21845 18.89944
#
# Velocity S-wave (km/s) = 3.16344 3.39249 3.27997
# Velocity P-wave (km/s) = 6.30303 6.46615 6.38511
#
# Compressibility (1/GPa) = 0.02157406
#
# Stress axis : x y z
#
# Youngs Moduli (GPa) = 31.32206 31.32206 56.15927
#
# Poissons Ratio (x) = 0.63938 0.27040
# Poissons Ratio (y) = 0.63938 0.27040
# Poissons Ratio (z) = 0.15081 0.15081
#
# Static dielectric constant tensor:
#      x y z
#    x 3.295900 0.000000 0.000000 
#    y 0.000000 3.295900 0.000000 
#    z 0.000000 0.000000 3.332650 
# 
# 
# High freq. dielectric constant tensor:
#      x y z
#    x 1.656210 0.000000 0.000000 
#    y 0.000000 1.656210 0.000000 
#    z 0.000000 0.000000 1.691320 
# 
# From -- ./inp_files/1375.got.cif
#   From: 2010.03.12/outbox.cif.g09.slc.cpg/sg84_1_cif.got.tgz:1375.got - 2010.04.08 20:07:29.
