data_PCOD8303932
_publ_section_title
;
Structure prediction by ZEFSAII (Michael W. Deem and Ramdas Pophale) SiO2 
 PCOD8303932
Probable space group: I 4/M
;
_chemical_formula_sum "Si O2"
_cell_formula_units_Z 120
_cell_length_a 26.902723
_cell_length_b 26.902723
_cell_length_c 8.242530
_cell_angle_alpha 90.000000
_cell_angle_beta 90.000000
_cell_angle_gamma 90.000000
_cell_volume 5965.584704
_symmetry_space_group_name_H-M "I 4/M"
_symmetry_group_IT_number 87
_symmetry_cell_setting 'tetragonal'
loop_
_space_group_symop_operation_xyz
x,y,z
-y,x,z
-x,-y,z
y,-x,z
-x,-y,-z
y,-x,-z
x,y,-z
-y,x,-z
1/2+x,1/2+y,1/2+z
1/2-y,1/2+x,1/2+z
1/2-x,1/2-y,1/2+z
1/2+y,1/2-x,1/2+z
1/2-x,1/2-y,1/2-z
1/2+y,1/2-x,1/2-z
1/2+x,1/2+y,1/2-z
1/2-y,1/2+x,1/2-z
loop_
_atom_site_type_symbol
_atom_site_label
_atom_site_fract_x
_atom_site_fract_y
_atom_site_fract_z
Si Si1 0.964239 0.435439 0.182921
Si Si2 0.650011 0.507202 0.814015
Si Si3 0.370578 0.118418 0.681875
Si Si4 0.814384 0.089519 0.815051
Si Si5 0.665769 0.227927 0.816884
Si Si6 0.581283 0.501698 0.500000
Si Si7 0.172300 0.118181 0.311590
Si Si8 0.358387 0.219935 0.814754
O O1 0.933976 0.486806 0.205891
O O2 0.929144 0.388987 0.220197
O O3 0.982848 0.431534 0.000000
O O4 0.687182 0.460104 0.796185
O O5 0.610241 0.501122 0.670827
O O6 0.678702 0.559138 0.785284
O O7 0.627823 0.506710 0.000000
O O8 0.392199 0.116416 0.500000
O O9 0.310329 0.118671 0.682460
O O10 0.388902 0.170065 0.765762
O O11 0.862761 0.122771 0.775804
O O12 0.765317 0.122231 0.791590
O O13 0.818467 0.071915 0.000000
O O14 0.646812 0.279441 0.738052
O O15 0.710875 0.200996 0.718679
O O16 0.684437 0.236822 0.000000
O O17 0.548474 0.550458 0.500000
O O18 0.167927 0.131464 0.500000
O O19 0.366984 0.233801 0.000000
#
# Coordination Sequence:
#
# PCOD8303932 Si02
#       8
#    16  16  16  16  16   8  16  16
#     4  11  21  35  56  83 112 150 198 249 300 357
#     4  11  24  43  65  94 130 167 215 269 327 395
#     4   9  18  37  58  81 117 155 196 251 306 364
#     4  12  24  40  64  92 126 170 213 262 321 382
#     4   8  18  38  60  86 122 158 203 252 304 368
#     4  11  24  42  66  96 128 166 214 268 327 394
#     4  10  22  41  66  93 124 166 210 262 324 383
#     4  10  20  37  59  88 122 160 208 253 304 368
#
# _framework density 20.115380999999999
#
# number of rings (size 3 to 8) (size 9 to 14) (size 15 to 20)
#    0.800    1.000    0.667    4.800    0.933    2.667 
#    2.400    0.667    0.000    0.000    0.000    0.000 
#    0.000    0.000    0.000    0.000    0.000    0.000 
#
# Total GULP energy -743557.271656 kJ/mol
# GULP energy per Si atom -12392.621194 kJ/mol
# Density = 2.006960 g / cm^3
# Si number density = 20.115381 Si / 1000 Ang^3
#
#
#
# Elastic Constant Matrix: (Units=GPa)
#
#
# Indices 1 2 3 4 5 6 
#
# 1 64.0203 11.0742 15.4631 0.0000 0.0000 4.0019
# 2 11.0742 64.0203 15.4631 0.0000 0.0000 -4.0019
# 3 15.4631 15.4631 106.0179 0.0000 0.0000 0.0000
# 4 0.0000 0.0000 0.0000 27.6565 0.0000 0.0000
# 5 0.0000 0.0000 0.0000 0.0000 27.6565 0.0000
# 6 4.0019 -4.0019 0.0000 0.0000 0.0000 47.6652
#
#
#
# Elastic Compliance Matrix: (Units=1/GPa)
#
#
# Indices 1 2 3 4 5 6 
#
# 1 0.016649 -0.002481 -0.002066 0.000000 0.000000 -0.001606
# 2 -0.002481 0.016649 -0.002066 0.000000 0.000000 0.001606
# 3 -0.002066 -0.002066 0.010035 0.000000 0.000000 0.000000
# 4 0.000000 0.000000 0.000000 0.036158 0.000000 0.000000
# 5 0.000000 0.000000 0.000000 0.000000 0.036158 0.000000
# 6 -0.001606 0.001606 0.000000 0.000000 0.000000 0.021249
#
#
# Mechanical properties :
#
#
# Convention : Reuss Voigt Hill
#
# Bulk Modulus (GPa) = 33.21743 35.33994 34.27869
# Shear Modulus (GPa) = 31.21867 33.39950 32.30909
#
# Velocity S-wave (km/s) = 3.94379 4.07922 4.01208
# Velocity P-wave (km/s) = 6.10633 6.30820 6.20809
#
# Compressibility (1/GPa) = 0.03010468
#
# Stress axis : x y z
#
# Youngs Moduli (GPa) = 60.06459 60.06459 99.64967
#
# Poissons Ratio (x) = 0.14903 0.20592
# Poissons Ratio (y) = 0.14903 0.20592
# Poissons Ratio (z) = 0.12412 0.12412
#
# Static dielectric constant tensor:
#      x y z
#    x 3.563290 0.000000 0.000000 
#    y 0.000000 3.563290 0.000000 
#    z 0.000000 0.000000 3.705530 
# 
# 
# High freq. dielectric constant tensor:
#      x y z
#    x 1.774230 0.000000 0.000000 
#    y 0.000000 1.774230 0.000000 
#    z 0.000000 0.000000 1.793140 
# 
# From -- ./inp_files/1720.got.cif
#   From: 2010.03.12/outbox.cif.g09.slc.cpg/sg87_1_cif.got.tgz:1720.got - 2010.04.08 20:16:13.
