data_PCOD8303884
_publ_section_title
;
Structure prediction by ZEFSAII (Michael W. Deem and Ramdas Pophale) SiO2 
 PCOD8303884
Probable space group: I 4/M
;
_chemical_formula_sum "Si O2"
_cell_formula_units_Z 104
_cell_length_a 15.398742
_cell_length_b 15.398742
_cell_length_c 23.897804
_cell_angle_alpha 90.000000
_cell_angle_beta 90.000000
_cell_angle_gamma 90.000000
_cell_volume 5666.677281
_symmetry_space_group_name_H-M "I 4/M"
_symmetry_group_IT_number 87
_symmetry_cell_setting 'tetragonal'
loop_
_space_group_symop_operation_xyz
x,y,z
-y,x,z
-x,-y,z
y,-x,z
-x,-y,-z
y,-x,-z
x,y,-z
-y,x,-z
1/2+x,1/2+y,1/2+z
1/2-y,1/2+x,1/2+z
1/2-x,1/2-y,1/2+z
1/2+y,1/2-x,1/2+z
1/2-x,1/2-y,1/2-z
1/2+y,1/2-x,1/2-z
1/2+x,1/2+y,1/2-z
1/2-y,1/2+x,1/2-z
loop_
_atom_site_type_symbol
_atom_site_label
_atom_site_fract_x
_atom_site_fract_y
_atom_site_fract_z
Si Si1 0.032686 0.137379 0.000000
Si Si2 0.479272 0.248126 0.393700
Si Si3 0.362604 0.534678 0.835860
Si Si4 0.683077 0.828616 0.434745
Si Si5 0.800135 0.662628 0.436905
Si Si6 0.472022 0.359323 0.286733
Si Si7 0.755446 0.478147 0.062654
O O1 0.049780 0.187286 0.057230
O O2 0.936026 0.103963 0.000000
O O3 0.408010 0.172147 0.400777
O O4 0.579989 0.221040 0.397946
O O5 0.460326 0.286463 0.332983
O O6 0.396238 0.437976 0.839664
O O7 0.316054 0.541664 0.774905
O O8 0.306570 0.557432 0.889434
O O9 0.663110 0.819652 0.500000
O O10 0.750960 0.751519 0.416666
O O11 0.717984 0.924581 0.421171
O O12 0.769264 0.640371 0.500000
O O13 0.905096 0.669561 0.436484
O O14 0.566791 0.400139 0.294514
O O15 0.712821 0.477813 0.000000
#
# Coordination Sequence:
#
# PCOD8303884 Si02
#       7
#     8  16  16  16  16  16  16
#     4  11  20  28  46  75 104 136 178 223 262 305
#     4  12  20  32  51  76 110 148 178 212 262 317
#     4   9  18  34  55  79 105 132 172 231 287 331
#     4  10  20  34  52  78 110 141 180 229 270 314
#     4  10  20  34  52  78 110 141 180 229 270 314
#     4   9  18  32  51  76 108 142 175 219 275 329
#     4  10  21  36  55  76 103 141 181 224 276 323
#
# _framework density 18.352906999999998
#
# number of rings (size 3 to 8) (size 9 to 14) (size 15 to 20)
#    0.000    1.923    1.538    4.615    0.000    3.692 
#    0.000    4.615    0.000    5.538    0.000    2.154 
#    0.000    0.000    0.000    0.000    0.000    0.000 
#
# Total GULP energy -644283.924800 kJ/mol
# GULP energy per Si atom -12390.075477 kJ/mol
# Density = 1.831114 g / cm^3
# Si number density = 18.352907 Si / 1000 Ang^3
#
#
#
# Elastic Constant Matrix: (Units=GPa)
#
#
# Indices 1 2 3 4 5 6 
#
# 1 63.1405 -0.4586 12.8644 0.0000 0.0000 -0.3828
# 2 -0.4586 63.1405 12.8644 0.0000 0.0000 0.3828
# 3 12.8644 12.8644 100.6321 0.0000 0.0000 0.0000
# 4 0.0000 0.0000 0.0000 15.7747 0.0000 0.0000
# 5 0.0000 0.0000 0.0000 0.0000 15.7747 0.0000
# 6 -0.3828 0.3828 0.0000 0.0000 0.0000 12.8262
#
#
#
# Elastic Compliance Matrix: (Units=1/GPa)
#
#
# Indices 1 2 3 4 5 6 
#
# 1 0.016283 0.000554 -0.002152 0.000000 0.000000 0.000469
# 2 0.000554 0.016283 -0.002152 0.000000 0.000000 -0.000469
# 3 -0.002152 -0.002152 0.010487 0.000000 0.000000 0.000000
# 4 0.000000 0.000000 0.000000 0.063393 0.000000 0.000000
# 5 0.000000 0.000000 0.000000 0.000000 0.063393 0.000000
# 6 0.000469 -0.000469 0.000000 0.000000 0.000000 0.077993
#
#
# Mechanical properties :
#
#
# Convention : Reuss Voigt Hill
#
# Bulk Modulus (GPa) = 28.12779 30.82820 29.47799
# Shear Modulus (GPa) = 18.71367 22.31799 20.51583
#
# Velocity S-wave (km/s) = 3.19667 3.49097 3.34706
# Velocity P-wave (km/s) = 5.38371 5.75179 5.57079
#
# Compressibility (1/GPa) = 0.03555203
#
# Stress axis : x y z
#
# Youngs Moduli (GPa) = 61.41338 61.41338 95.35166
#
# Poissons Ratio (x) = -0.03402 0.20523
# Poissons Ratio (y) = -0.03402 0.20523
# Poissons Ratio (z) = 0.13219 0.13219
#
# Static dielectric constant tensor:
#      x y z
#    x 3.329290 0.000000 0.000000 
#    y 0.000000 3.329290 0.000000 
#    z 0.000000 0.000000 3.447600 
# 
# 
# High freq. dielectric constant tensor:
#      x y z
#    x 1.701250 0.000000 0.000000 
#    y 0.000000 1.701250 0.000000 
#    z 0.000000 0.000000 1.703380 
# 
# From -- ./inp_files/5892.got.cif
#   From: 2010.03.12/outbox.cif.g09.slc.cpg/sg87_3_cif.got.tgz:5892.got - 2010.04.08 20:16:13.
