data_PCOD8303100
_publ_section_title
;
Structure prediction by ZEFSAII (Michael W. Deem and Ramdas Pophale) SiO2 
 PCOD8303100
Probable space group: P 42/M
;
_chemical_formula_sum "Si O2"
_cell_formula_units_Z 48
_cell_length_a 15.076345
_cell_length_b 15.076345
_cell_length_c 13.408182
_cell_angle_alpha 90.000000
_cell_angle_beta 90.000000
_cell_angle_gamma 90.000000
_cell_volume 3047.628530
_symmetry_space_group_name_H-M "P 42/M"
_symmetry_group_IT_number 84
_symmetry_cell_setting 'tetragonal'
loop_
_space_group_symop_operation_xyz
x,y,z
-y,x,1/2+z
-x,-y,z
y,-x,1/2+z
-x,-y,-z
y,-x,1/2-z
x,y,-z
-y,x,1/2-z
loop_
_atom_site_type_symbol
_atom_site_label
_atom_site_fract_x
_atom_site_fract_y
_atom_site_fract_z
Si Si1 0.287950 0.661528 0.385192
Si Si2 0.182500 0.608969 0.207834
Si Si3 0.502029 0.596527 0.116090
Si Si4 0.286470 0.335118 0.612758
Si Si5 0.395839 0.814375 0.294579
Si Si6 0.604352 0.000957 0.388313
O O1 0.259262 0.650360 0.500000
O O2 0.199555 0.653164 0.317075
O O3 0.346768 0.582111 0.338969
O O4 0.347261 0.749146 0.372626
O O5 0.244392 0.660470 0.129248
O O6 0.198064 0.502470 0.204338
O O7 0.083161 0.634826 0.176414
O O8 0.500000 0.500000 0.166953
O O9 0.409823 0.642356 0.137777
O O10 0.523424 0.587107 0.000000
O O11 0.250527 0.339516 0.500000
O O12 0.203001 0.353295 0.685299
O O13 0.366399 0.912222 0.327488
O O14 0.646741 0.999815 0.500000
O O15 0.500000 0.000000 0.401088
#
# Coordination Sequence:
#
# PCOD8303100 Si02
#       6
#     8   8   8   8   8   8
#     4  10  19  30  44  65  95 124 155 195 236 280
#     4  10  19  31  46  67  89 123 163 200 234 275
#     4   9  16  26  40  59  87 126 160 187 221 267
#     4  10  19  30  44  65  95 124 155 195 236 280
#     4  10  19  31  46  67  89 123 163 200 234 275
#     4   9  18  32  49  65  85 114 158 205 238 271
#
# _framework density 15.749950999999999
#
# number of rings (size 3 to 8) (size 9 to 14) (size 15 to 20)
#    0.000    2.333    1.667    2.000    0.000    3.333 
#    0.000    0.833    0.000    3.000    0.000    0.000 
#    0.000   10.667    0.000   38.667    0.000    0.667 
#
# Total GULP energy -594897.157715 kJ/mol
# GULP energy per Si atom -12393.690786 kJ/mol
# Density = 1.571410 g / cm^3
# Si number density = 15.749951 Si / 1000 Ang^3
#
#
#
# Elastic Constant Matrix: (Units=GPa)
#
#
# Indices 1 2 3 4 5 6 
#
# 1 98.5716 28.6237 42.7021 0.0000 0.0000 1.0694
# 2 28.6237 98.5716 42.7021 0.0000 0.0000 -1.0694
# 3 42.7021 42.7021 117.8079 0.0000 0.0000 0.0000
# 4 0.0000 0.0000 0.0000 16.7188 0.0000 0.0000
# 5 0.0000 0.0000 0.0000 0.0000 16.7188 0.0000
# 6 1.0694 -1.0694 0.0000 0.0000 0.0000 11.4504
#
#
#
# Elastic Compliance Matrix: (Units=1/GPa)
#
#
# Indices 1 2 3 4 5 6 
#
# 1 0.012364 -0.001973 -0.003766 0.000000 0.000000 -0.001339
# 2 -0.001973 0.012364 -0.003766 0.000000 0.000000 0.001339
# 3 -0.003766 -0.003766 0.011219 0.000000 0.000000 0.000000
# 4 0.000000 0.000000 0.000000 0.059813 0.000000 0.000000
# 5 0.000000 0.000000 0.000000 0.000000 0.059813 0.000000
# 6 -0.001339 0.001339 0.000000 0.000000 0.000000 0.087583
#
#
# Mechanical properties :
#
#
# Convention : Reuss Voigt Hill
#
# Bulk Modulus (GPa) = 59.04954 60.33409 59.69181
# Shear Modulus (GPa) = 18.66973 22.37246 20.52109
#
# Velocity S-wave (km/s) = 3.44667 3.77301 3.61353
# Velocity P-wave (km/s) = 7.30840 7.57440 7.44259
#
# Compressibility (1/GPa) = 0.01693493
#
# Stress axis : x y z
#
# Youngs Moduli (GPa) = 80.87949 80.87949 89.13593
#
# Poissons Ratio (x) = 0.15959 0.33572
# Poissons Ratio (y) = 0.15959 0.33572
# Poissons Ratio (z) = 0.30462 0.30462
#
# Static dielectric constant tensor:
#      x y z
#    x 2.889150 0.000000 0.000000 
#    y 0.000000 2.889150 0.000000 
#    z 0.000000 0.000000 3.097920 
# 
# 
# High freq. dielectric constant tensor:
#      x y z
#    x 1.576260 0.000000 0.000000 
#    y 0.000000 1.576260 0.000000 
#    z 0.000000 0.000000 1.621990 
# 
# From -- ./inp_files/3021.got.cif
#   From: 2010.03.12/outbox.cif.g09.slc.cpg/sg84_2_cif.got.tgz:3021.got - 2010.04.08 20:07:29.
