data_PCOD8303492
_publ_section_title
;
Structure prediction by ZEFSAII (Michael W. Deem and Ramdas Pophale) SiO2 
 PCOD8303492
Probable space group: P 42/N
;
_chemical_formula_sum "Si O2"
_cell_formula_units_Z 34
_cell_length_a 8.286488
_cell_length_b 8.286488
_cell_length_c 24.746534
_cell_angle_alpha 90.000000
_cell_angle_beta 90.000000
_cell_angle_gamma 90.000000
_cell_volume 1699.242618
_symmetry_space_group_name_H-M "P 42/N"
_symmetry_group_IT_number 86
_space_group.IT_coordinate_system_code '2'
_symmetry_cell_setting 'tetragonal'
loop_
_space_group_symop_operation_xyz
x,y,z
-y,1/2+x,1/2+z
1/2-x,1/2-y,z
1/2+y,-x,1/2+z
-x,-y,-z
y,1/2-x,1/2-z
1/2+x,1/2+y,-z
1/2-y,x,1/2-z
loop_
_atom_site_type_symbol
_atom_site_label
_atom_site_fract_x
_atom_site_fract_y
_atom_site_fract_z
Si Si1 0.750000 0.750000 0.750000
Si Si2 0.192866 0.932679 0.321293
Si Si3 0.654694 0.904382 0.117070
Si Si4 0.789420 0.422106 0.455676
Si Si5 0.615478 0.067193 0.573477
O O1 0.578714 0.767329 0.780827
O O2 0.250000 0.750000 0.302058
O O3 0.279807 0.989228 0.376104
O O4 0.998736 0.930668 0.333173
O O5 0.750000 0.750000 0.141815
O O6 0.543013 0.837841 0.069850
O O7 0.758998 0.040161 0.086672
O O8 0.750000 0.250000 0.431645
O O9 0.772214 0.428788 0.520485
O O10 0.971893 0.443933 0.436548
#
# Coordination Sequence:
#
# PCOD8303492 Si02
#       5
#     2   8   8   8   8
#     4  12  28  48  72 104 120 176 240 284 344 390
#     4  10  23  47  65  90 131 165 211 286 328 379
#     4   9  19  38  61  87 127 168 204 252 324 394
#     4  10  19  31  56  97 122 168 209 237 312 408
#     4   9  20  37  56  85 134 164 202 258 315 378
#
# _framework density 20.008915999999999
#
# number of rings (size 3 to 8) (size 9 to 14) (size 15 to 20)
#    0.000    2.353    0.000    2.118    3.294    3.765 
#   19.059    0.000    0.000    0.000    0.000    0.000 
#    0.000    0.000    0.000    0.000    0.000    0.000 
#
# Total GULP energy -421219.225338 kJ/mol
# GULP energy per Si atom -12388.800745 kJ/mol
# Density = 1.996337 g / cm^3
# Si number density = 20.008916 Si / 1000 Ang^3
#
#
#
# Elastic Constant Matrix: (Units=GPa)
#
#
# Indices 1 2 3 4 5 6 
#
# 1 103.2667 41.0251 59.3815 0.0000 0.0000 -11.7628
# 2 41.0251 103.2667 59.3815 0.0000 0.0000 11.7628
# 3 59.3815 59.3815 89.1077 0.0000 0.0000 0.0000
# 4 0.0000 0.0000 0.0000 344.2968 0.0000 0.0000
# 5 0.0000 0.0000 0.0000 0.0000 344.2968 0.0000
# 6 -11.7628 11.7628 0.0000 0.0000 0.0000 22.6586
#
#
#
# Elastic Compliance Matrix: (Units=1/GPa)
#
#
# Indices 1 2 3 4 5 6 
#
# 1 0.017669 -0.002319 -0.010229 0.000000 0.000000 0.010377
# 2 -0.002319 0.017669 -0.010229 0.000000 0.000000 -0.010377
# 3 -0.010229 -0.010229 0.024856 0.000000 0.000000 0.000000
# 4 0.000000 0.000000 0.000000 0.002904 0.000000 0.000000
# 5 0.000000 0.000000 0.000000 0.000000 0.002904 0.000000
# 6 0.010377 -0.010377 0.000000 0.000000 0.000000 0.054907
#
#
# Mechanical properties :
#
#
# Convention : Reuss Voigt Hill
#
# Bulk Modulus (GPa) = 68.31141 68.35748 68.33445
# Shear Modulus (GPa) = 29.18101 151.30731 90.24416
#
# Velocity S-wave (km/s) = 3.82304 8.70541 6.72309
# Velocity P-wave (km/s) = 7.32818 11.63113 9.72073
#
# Compressibility (1/GPa) = 0.01463884
#
# Stress axis : x y z
#
# Youngs Moduli (GPa) = 56.59605 56.59605 40.23232
#
# Poissons Ratio (x) = 0.13127 0.41154
# Poissons Ratio (y) = 0.13127 0.41154
# Poissons Ratio (z) = 0.57892 0.57892
#
# Static dielectric constant tensor:
#      x y z
#    x 3.963120 0.000000 0.000000 
#    y 0.000000 3.963120 0.000000 
#    z 0.000000 0.000000 3.478960 
# 
# 
# High freq. dielectric constant tensor:
#      x y z
#    x 1.791910 0.000000 0.000000 
#    y 0.000000 1.791910 0.000000 
#    z 0.000000 0.000000 1.751610 
# 
# From -- ./inp_files/3978.got.cif
#   From: 2010.03.12/outbox.cif.g09.slc.cpg/sg86_2_cif.got.tgz:3978.got - 2010.04.08 20:12:58.
