data_PCOD8303379
_publ_section_title
;
Structure prediction by ZEFSAII (Michael W. Deem and Ramdas Pophale) SiO2 
 PCOD8303379
Probable space group: P 42/M
;
_chemical_formula_sum "Si O2"
_cell_formula_units_Z 32
_cell_length_a 11.163534
_cell_length_b 11.163534
_cell_length_c 12.235943
_cell_angle_alpha 90.000000
_cell_angle_beta 90.000000
_cell_angle_gamma 90.000000
_cell_volume 1524.898173
_symmetry_space_group_name_H-M "P 42/M"
_symmetry_group_IT_number 84
_symmetry_cell_setting 'tetragonal'
loop_
_space_group_symop_operation_xyz
x,y,z
-y,x,1/2+z
-x,-y,z
y,-x,1/2+z
-x,-y,-z
y,-x,1/2-z
x,y,-z
-y,x,1/2-z
loop_
_atom_site_type_symbol
_atom_site_label
_atom_site_fract_x
_atom_site_fract_y
_atom_site_fract_z
Si Si1 0.294801 0.313463 0.320635
Si Si2 0.692211 0.078304 0.500000
Si Si3 0.167452 0.905806 0.726771
Si Si4 0.824629 0.433512 0.000000
Si Si5 0.446893 0.371113 0.879016
O O1 0.167837 0.246922 0.314275
O O2 0.395349 0.245347 0.391006
O O3 0.275468 0.444187 0.373584
O O4 0.340675 0.327106 0.197068
O O5 0.774976 0.095586 0.606460
O O6 0.577456 0.166110 0.500000
O O7 0.637562 0.947240 0.500000
O O8 0.037742 0.842830 0.721873
O O9 0.500000 0.500000 0.842705
O O10 0.392216 0.377734 0.000000
#
# Coordination Sequence:
#
# PCOD8303379 Si02
#       5
#     8   4   8   4   8
#     4  12  21  42  64  99 131 172 227 278 337 417
#     4  11  24  46  68  98 135 177 232 285 338 400
#     4  11  26  44  68  95 129 183 230 281 332 395
#     4  11  24  41  74 100 129 180 224 280 346 410
#     4  11  23  37  62  96 135 176 215 275 352 416
#
# _framework density 20.985007
#
# number of rings (size 3 to 8) (size 9 to 14) (size 15 to 20)
#    0.000    0.750    6.250    1.500    1.750    3.000 
#    0.000    0.000    0.000    1.500    0.000    0.000 
#    0.000    0.000    0.000    0.000    0.000    0.000 
#
# Total GULP energy -396784.141973 kJ/mol
# GULP energy per Si atom -12399.504437 kJ/mol
# Density = 2.093724 g / cm^3
# Si number density = 20.985007 Si / 1000 Ang^3
#
#
#
# Elastic Constant Matrix: (Units=GPa)
#
#
# Indices 1 2 3 4 5 6 
#
# 1 85.6877 30.1142 35.7441 0.0000 0.0000 -2.2289
# 2 30.1142 85.6877 35.7441 0.0000 0.0000 2.2289
# 3 35.7441 35.7441 145.7976 0.0000 0.0000 0.0000
# 4 0.0000 0.0000 0.0000 -96.8170 0.0000 0.0000
# 5 0.0000 0.0000 0.0000 0.0000 -96.8170 0.0000
# 6 -2.2289 2.2289 0.0000 0.0000 0.0000 26.6266
#
#
#
# Elastic Compliance Matrix: (Units=1/GPa)
#
#
# Indices 1 2 3 4 5 6 
#
# 1 0.014146 -0.003970 -0.002495 0.000000 0.000000 0.001516
# 2 -0.003970 0.014146 -0.002495 0.000000 0.000000 -0.001516
# 3 -0.002495 -0.002495 0.008082 0.000000 0.000000 0.000000
# 4 0.000000 0.000000 0.000000 -0.010329 0.000000 0.000000
# 5 0.000000 0.000000 0.000000 0.000000 -0.010329 0.000000
# 6 0.001516 -0.001516 0.000000 0.000000 0.000000 0.037810
#
#
# Mechanical properties :
#
#
# Convention : Reuss Voigt Hill
#
# Bulk Modulus (GPa) = 54.18775 57.81977 56.00376
# Shear Modulus (GPa) = 64.43592 -19.03010 22.70291
#
# Velocity S-wave (km/s) = 5.54728 -3.01465 3.29274
# Velocity P-wave (km/s) = 8.17973 3.93640 6.41885
#
# Compressibility (1/GPa) = 0.01845435
#
# Stress axis : x y z
#
# Youngs Moduli (GPa) = 70.69315 70.69315 123.73157
#
# Poissons Ratio (x) = 0.28066 0.30867
# Poissons Ratio (y) = 0.28066 0.30867
# Poissons Ratio (z) = 0.17635 0.17635
#
# Static dielectric constant tensor:
#      x y z
#    x 3.923990 0.000000 0.000000 
#    y 0.000000 3.923990 0.000000 
#    z 0.000000 0.000000 3.865080 
# 
# 
# High freq. dielectric constant tensor:
#      x y z
#    x 1.822350 0.000000 0.000000 
#    y 0.000000 1.822350 0.000000 
#    z 0.000000 0.000000 1.832410 
# 
# From -- ./inp_files/1886.got.cif
#   From: 2010.03.12/outbox.cif.g09.slc.cpg/sg84_1_cif.got.tgz:1886.got - 2010.04.08 20:07:29.
