data_PCOD8303773
_publ_section_title
;
Structure prediction by ZEFSAII (Michael W. Deem and Ramdas Pophale) SiO2 
 PCOD8303773
Probable space group: I 4/M
;
_chemical_formula_sum "Si O2"
_cell_formula_units_Z 96
_cell_length_a 24.081496
_cell_length_b 24.081496
_cell_length_c 9.340452
_cell_angle_alpha 90.000000
_cell_angle_beta 90.000000
_cell_angle_gamma 90.000000
_cell_volume 5416.700442
_symmetry_space_group_name_H-M "I 4/M"
_symmetry_group_IT_number 87
_symmetry_cell_setting 'tetragonal'
loop_
_space_group_symop_operation_xyz
x,y,z
-y,x,z
-x,-y,z
y,-x,z
-x,-y,-z
y,-x,-z
x,y,-z
-y,x,-z
1/2+x,1/2+y,1/2+z
1/2-y,1/2+x,1/2+z
1/2-x,1/2-y,1/2+z
1/2+y,1/2-x,1/2+z
1/2-x,1/2-y,1/2-z
1/2+y,1/2-x,1/2-z
1/2+x,1/2+y,1/2-z
1/2-y,1/2+x,1/2-z
loop_
_atom_site_type_symbol
_atom_site_label
_atom_site_fract_x
_atom_site_fract_y
_atom_site_fract_z
Si Si1 0.142259 0.725665 0.667412
Si Si2 0.863090 0.440062 0.337517
Si Si3 0.062428 0.062123 0.329879
Si Si4 0.356822 0.067842 0.167854
Si Si5 0.357807 0.235571 0.661778
Si Si6 0.154622 0.852655 0.668871
O O1 0.129470 0.716517 0.500000
O O2 0.094352 0.696712 0.757903
O O3 0.201954 0.698203 0.704808
O O4 0.141070 0.789692 0.712196
O O5 0.884911 0.433292 0.500000
O O6 0.907903 0.413693 0.231241
O O7 0.854979 0.503374 0.295405
O O8 0.804124 0.410438 0.319750
O O9 0.064095 0.063010 0.500000
O O10 0.107015 0.106363 0.269174
O O11 0.000178 0.077846 0.276584
O O12 0.354554 0.080292 0.000000
O O13 0.352473 0.257750 0.500000
O O14 0.369265 0.286815 0.764839
O O15 0.160210 0.859341 0.500000
#
# Coordination Sequence:
#
# PCOD8303773 Si02
#       6
#    16  16  16  16  16  16
#     4   9  19  34  49  70 104 134 157 201 257 294
#     4   9  20  37  52  72 104 134 164 209 257 293
#     4   8  15  29  47  68  97 127 153 191 243 289
#     4  10  20  34  54  76  98 132 174 207 243 300
#     4   9  18  33  49  66  98 137 160 191 249 299
#     4  10  19  30  50  78  98 122 167 210 241 286
#
# _framework density 17.722966
#
# number of rings (size 3 to 8) (size 9 to 14) (size 15 to 20)
#    0.000    2.833    0.000    2.500    0.000    6.333 
#    0.000    3.333    0.000    1.000    0.000    1.167 
#    0.000    0.000    0.000    0.000    0.000    0.000 
#
# Total GULP energy -595152.872713 kJ/mol
# GULP energy per Si atom -12399.018182 kJ/mol
# Density = 1.768263 g / cm^3
# Si number density = 17.722966 Si / 1000 Ang^3
#
#
#
# Elastic Constant Matrix: (Units=GPa)
#
#
# Indices 1 2 3 4 5 6 
#
# 1 120.5297 93.6525 42.2751 0.0000 0.0000 -3.7309
# 2 93.6525 120.5297 42.2751 0.0000 0.0000 3.7309
# 3 42.2751 42.2751 46.2253 0.0000 0.0000 0.0000
# 4 0.0000 0.0000 0.0000 19.7138 0.0000 0.0000
# 5 0.0000 0.0000 0.0000 0.0000 19.7138 0.0000
# 6 -3.7309 3.7309 0.0000 0.0000 0.0000 21.1552
#
#
#
# Elastic Compliance Matrix: (Units=1/GPa)
#
#
# Indices 1 2 3 4 5 6 
#
# 1 0.023214 -0.015907 -0.006682 0.000000 0.000000 0.006899
# 2 -0.015907 0.023214 -0.006682 0.000000 0.000000 -0.006899
# 3 -0.006682 -0.006682 0.033856 0.000000 0.000000 0.000000
# 4 0.000000 0.000000 0.000000 0.050726 0.000000 0.000000
# 5 0.000000 0.000000 0.000000 0.000000 0.050726 0.000000
# 6 0.006899 -0.006899 0.000000 0.000000 0.000000 0.049703
#
#
# Mechanical properties :
#
#
# Convention : Reuss Voigt Hill
#
# Bulk Modulus (GPa) = 45.99839 71.52113 58.75976
# Shear Modulus (GPa) = 16.82191 19.38867 18.10529
#
# Velocity S-wave (km/s) = 3.08418 3.31113 3.19967
# Velocity P-wave (km/s) = 6.22040 7.42030 6.84669
#
# Compressibility (1/GPa) = 0.02173989
#
# Stress axis : x y z
#
# Youngs Moduli (GPa) = 43.07683 43.07683 29.53688
#
# Poissons Ratio (x) = 0.68524 0.19738
# Poissons Ratio (y) = 0.68524 0.19738
# Poissons Ratio (z) = 0.28786 0.28786
#
# Static dielectric constant tensor:
#      x y z
#    x 3.367980 0.000000 0.000000 
#    y 0.000000 3.367980 0.000000 
#    z 0.000000 0.000000 3.115250 
# 
# 
# High freq. dielectric constant tensor:
#      x y z
#    x 1.687960 0.000000 0.000000 
#    y 0.000000 1.687960 0.000000 
#    z 0.000000 0.000000 1.666670 
# 
# From -- ./inp_files/1388.got.cif
#   From: 2010.03.12/outbox.cif.g09.slc.cpg/sg87_1_cif.got.tgz:1388.got - 2010.04.08 20:16:13.
