data_PCOD8303175
_publ_section_title
;
Structure prediction by ZEFSAII (Michael W. Deem and Ramdas Pophale) SiO2 
 PCOD8303175
Probable space group: P 42/M
;
_chemical_formula_sum "Si O2"
_cell_formula_units_Z 40
_cell_length_a 9.124745
_cell_length_b 9.124745
_cell_length_c 24.386476
_cell_angle_alpha 90.000000
_cell_angle_beta 90.000000
_cell_angle_gamma 90.000000
_cell_volume 2030.441679
_symmetry_space_group_name_H-M "P 42/M"
_symmetry_group_IT_number 84
_symmetry_cell_setting 'tetragonal'
loop_
_space_group_symop_operation_xyz
x,y,z
-y,x,1/2+z
-x,-y,z
y,-x,1/2+z
-x,-y,-z
y,-x,1/2-z
x,y,-z
-y,x,1/2-z
loop_
_atom_site_type_symbol
_atom_site_label
_atom_site_fract_x
_atom_site_fract_y
_atom_site_fract_z
Si Si1 0.979232 0.835118 0.172183
Si Si2 0.275384 0.919151 0.559993
Si Si3 0.768239 0.429998 0.059467
Si Si4 0.149960 0.417377 0.759613
Si Si5 0.719437 0.333103 0.828770
O O1 0.906944 0.837643 0.110922
O O2 0.876523 0.743509 0.214022
O O3 0.135542 0.761891 0.169697
O O4 0.000000 0.000000 0.193878
O O5 0.196994 0.902109 0.500000
O O6 0.396117 0.791467 0.566701
O O7 0.355377 0.074100 0.562853
O O8 0.666934 0.366872 0.108752
O O9 0.694650 0.397014 0.000000
O O10 0.247147 0.510839 0.801284
O O11 0.242515 0.403798 0.703546
O O12 0.000000 0.500000 0.745136
#
# Coordination Sequence:
#
# PCOD8303175 Si02
#       5
#     8   8   8   8   8
#     4  10  20  30  49  81 115 148 180 227 289 341
#     4   8  13  25  45  73 110 145 180 225 274 330
#     4   8  13  26  50  76 102 141 188 230 277 331
#     4  10  22  36  53  80 113 145 190 233 283 342
#     4  10  20  35  54  75 109 146 189 235 277 339
#
# _framework density 19.700144999999999
#
# number of rings (size 3 to 8) (size 9 to 14) (size 15 to 20)
#    0.000    2.800    2.000    1.200    5.600    0.800 
#    0.000    0.000    0.000    0.600    0.000    4.200 
#    0.000    0.000    0.000    0.000    0.000    0.000 
#
# Total GULP energy -495634.101945 kJ/mol
# GULP energy per Si atom -12390.852549 kJ/mol
# Density = 1.965531 g / cm^3
# Si number density = 19.700145 Si / 1000 Ang^3
#
#
#
# Elastic Constant Matrix: (Units=GPa)
#
#
# Indices 1 2 3 4 5 6 
#
# 1 62.0146 11.3913 57.1636 0.0000 0.0000 -1.6001
# 2 11.3913 62.0146 57.1636 0.0000 0.0000 1.6001
# 3 57.1636 57.1636 171.4164 0.0000 0.0000 0.0000
# 4 0.0000 0.0000 0.0000 -5.2593 0.0000 0.0000
# 5 0.0000 0.0000 0.0000 0.0000 -5.2593 0.0000
# 6 -1.6001 1.6001 0.0000 0.0000 0.0000 15.6581
#
#
#
# Elastic Compliance Matrix: (Units=1/GPa)
#
#
# Indices 1 2 3 4 5 6 
#
# 1 0.024113 0.004231 -0.009452 0.000000 0.000000 0.002032
# 2 0.004231 0.024113 -0.009452 0.000000 0.000000 -0.002032
# 3 -0.009452 -0.009452 0.012138 0.000000 0.000000 0.000000
# 4 0.000000 0.000000 0.000000 -0.190138 0.000000 0.000000
# 5 0.000000 0.000000 0.000000 0.000000 -0.190138 0.000000
# 6 0.002032 -0.002032 0.000000 0.000000 0.000000 0.064280
#
#
# Mechanical properties :
#
#
# Convention : Reuss Voigt Hill
#
# Bulk Modulus (GPa) = 32.23951 60.76472 46.50212
# Shear Modulus (GPa) = -23.15407 12.34303 -5.40552
#
# Velocity S-wave (km/s) = -3.43202 2.50580 -1.65827
# Velocity P-wave (km/s) = 0.83404 6.26768 4.47099
#
# Compressibility (1/GPa) = 0.03101784
#
# Stress axis : x y z
#
# Youngs Moduli (GPa) = 41.47092 41.47092 82.38610
#
# Poissons Ratio (x) = -0.17547 0.77873
# Poissons Ratio (y) = -0.17547 0.77873
# Poissons Ratio (z) = 0.39199 0.39199
#
# Static dielectric constant tensor:
#      x y z
#    x 3.489630 0.000000 0.000000 
#    y 0.000000 3.489630 0.000000 
#    z 0.000000 0.000000 4.324180 
# 
# 
# High freq. dielectric constant tensor:
#      x y z
#    x 1.726350 0.000000 0.000000 
#    y 0.000000 1.726350 0.000000 
#    z 0.000000 0.000000 1.791400 
# 
# From -- ./inp_files/5321.got.cif
#   From: 2010.03.12/outbox.cif.g09.slc.cpg/sg84_3_cif.got.tgz:5321.got - 2010.04.08 20:07:29.
