data_PCOD8303164
_publ_section_title
;
Structure prediction by ZEFSAII (Michael W. Deem and Ramdas Pophale) SiO2 
 PCOD8303164
Probable space group: P 42/M
;
_chemical_formula_sum "Si O2"
_cell_formula_units_Z 40
_cell_length_a 11.181051
_cell_length_b 11.181051
_cell_length_c 15.347342
_cell_angle_alpha 90.000000
_cell_angle_beta 90.000000
_cell_angle_gamma 90.000000
_cell_volume 1918.661795
_symmetry_space_group_name_H-M "P 42/M"
_symmetry_group_IT_number 84
_symmetry_cell_setting 'tetragonal'
loop_
_space_group_symop_operation_xyz
x,y,z
-y,x,1/2+z
-x,-y,z
y,-x,1/2+z
-x,-y,-z
y,-x,1/2-z
x,y,-z
-y,x,1/2-z
loop_
_atom_site_type_symbol
_atom_site_label
_atom_site_fract_x
_atom_site_fract_y
_atom_site_fract_z
Si Si1 0.422160 0.838298 0.128233
Si Si2 0.173537 0.097030 0.253990
Si Si3 0.489638 0.683331 0.724591
Si Si4 0.673574 0.782695 0.596236
Si Si5 0.673828 0.902904 0.904981
O O1 0.433852 0.798745 0.228647
O O2 0.334413 0.751213 0.077140
O O3 0.552261 0.827747 0.084250
O O4 0.366172 0.968160 0.127891
O O5 0.254312 0.127233 0.339074
O O6 0.237385 0.150506 0.167601
O O7 0.045139 0.160043 0.258948
O O8 0.588465 0.618590 0.788086
O O9 0.548095 0.735000 0.636231
O O10 0.651067 0.841978 0.500000
O O11 0.737768 0.907201 0.000000
#
# Coordination Sequence:
#
# PCOD8303164 Si02
#       5
#     8   8   8   8   8
#     4  10  19  35  62  87 115 147 195 248 295 348
#     4  11  24  40  59  85 120 163 203 249 303 356
#     4   9  19  36  59  87 122 157 187 237 300 362
#     4  11  21  38  61  88 120 160 199 242 300 361
#     4  11  21  36  59  89 113 145 200 258 301 344
#
# _framework density 20.847864000000001
#
# number of rings (size 3 to 8) (size 9 to 14) (size 15 to 20)
#    0.000    1.600    4.000    2.400    0.000    0.800 
#    0.000   12.000    0.000    2.400    0.000    0.000 
#    0.000    0.000    0.000    0.000    0.000    0.000 
#
# Total GULP energy -495528.622822 kJ/mol
# GULP energy per Si atom -12388.215571 kJ/mol
# Density = 2.080041 g / cm^3
# Si number density = 20.847864 Si / 1000 Ang^3
#
#
#
# Elastic Constant Matrix: (Units=GPa)
#
#
# Indices 1 2 3 4 5 6 
#
# 1 35.7374 1.5041 33.0847 0.0000 0.0000 1.8027
# 2 1.5041 35.7374 33.0847 0.0000 0.0000 -1.8027
# 3 33.0847 33.0847 149.6819 0.0000 0.0000 0.0000
# 4 0.0000 0.0000 0.0000 43.0102 0.0000 0.0000
# 5 0.0000 0.0000 0.0000 0.0000 43.0102 0.0000
# 6 1.8027 -1.8027 0.0000 0.0000 0.0000 14.3944
#
#
#
# Elastic Compliance Matrix: (Units=1/GPa)
#
#
# Indices 1 2 3 4 5 6 
#
# 1 0.036909 0.007307 -0.009773 0.000000 0.000000 -0.003707
# 2 0.007307 0.036909 -0.009773 0.000000 0.000000 0.003707
# 3 -0.009773 -0.009773 0.011001 0.000000 0.000000 0.000000
# 4 0.000000 0.000000 0.000000 0.023250 0.000000 0.000000
# 5 0.000000 0.000000 0.000000 0.000000 0.023250 0.000000
# 6 -0.003707 0.003707 0.000000 0.000000 0.000000 0.070400
#
#
# Mechanical properties :
#
#
# Convention : Reuss Voigt Hill
#
# Bulk Modulus (GPa) = 16.57241 39.61151 28.09196
# Shear Modulus (GPa) = 20.29941 30.31518 25.30729
#
# Velocity S-wave (km/s) = 3.12379 3.81742 3.48789
# Velocity P-wave (km/s) = 4.58009 6.20256 5.45202
#
# Compressibility (1/GPa) = 0.06034124
#
# Stress axis : x y z
#
# Youngs Moduli (GPa) = 27.09350 27.09350 90.89827
#
# Poissons Ratio (x) = -0.19798 0.88838
# Poissons Ratio (y) = -0.19798 0.88838
# Poissons Ratio (z) = 0.26479 0.26479
#
# Static dielectric constant tensor:
#      x y z
#    x 3.832600 0.000000 0.000000 
#    y 0.000000 3.832600 0.000000 
#    z 0.000000 0.000000 3.640840 
# 
# 
# High freq. dielectric constant tensor:
#      x y z
#    x 1.809320 0.000000 0.000000 
#    y 0.000000 1.809320 0.000000 
#    z 0.000000 0.000000 1.805010 
# 
# From -- ./inp_files/2894.got.cif
#   From: 2010.03.12/outbox.cif.g09.slc.cpg/sg84_2_cif.got.tgz:2894.got - 2010.04.08 20:07:29.
