data_PCOD8303371
_publ_section_title
;
Structure prediction by ZEFSAII (Michael W. Deem and Ramdas Pophale) SiO2 
 PCOD8303371
Probable space group: P 42/M
;
_chemical_formula_sum "Si O2"
_cell_formula_units_Z 40
_cell_length_a 8.980112
_cell_length_b 8.980112
_cell_length_c 24.168820
_cell_angle_alpha 90.000000
_cell_angle_beta 90.000000
_cell_angle_gamma 90.000000
_cell_volume 1949.031929
_symmetry_space_group_name_H-M "P 42/M"
_symmetry_group_IT_number 84
_symmetry_cell_setting 'tetragonal'
loop_
_space_group_symop_operation_xyz
x,y,z
-y,x,1/2+z
-x,-y,z
y,-x,1/2+z
-x,-y,-z
y,-x,1/2-z
x,y,-z
-y,x,1/2-z
loop_
_atom_site_type_symbol
_atom_site_label
_atom_site_fract_x
_atom_site_fract_y
_atom_site_fract_z
Si Si1 0.651382 0.253196 0.879990
Si Si2 0.910278 0.269556 0.500000
Si Si3 0.226277 0.426434 0.500000
Si Si4 0.166609 0.544580 0.803493
Si Si5 0.347324 0.252752 0.188956
Si Si6 0.956366 0.166063 0.615975
O O1 0.777945 0.355147 0.853977
O O2 0.497706 0.262262 0.846558
O O3 0.711291 0.085234 0.877867
O O4 0.625438 0.308112 0.943467
O O5 0.780916 0.393963 0.500000
O O6 0.064579 0.355562 0.500000
O O7 0.895410 0.163642 0.553232
O O8 0.160983 0.630747 0.745341
O O9 0.286569 0.414331 0.795339
O O10 0.000000 0.500000 0.819590
O O11 0.215165 0.175919 0.155551
O O12 0.000000 0.000000 0.633706
#
# Coordination Sequence:
#
# PCOD8303371 Si02
#       6
#     8   4   4   8   8   8
#     4  11  22  42  67  94 128 172 224 263 330 398
#     4   9  17  34  63  94 133 165 214 264 328 391
#     4   9  18  36  65  95 124 170 220 274 315 401
#     4  12  26  44  62  93 128 168 216 277 331 396
#     4  12  24  42  66  91 128 171 219 267 328 404
#     4  11  22  39  64 101 132 169 211 274 332 390
#
# _framework density 20.523008000000001
#
# number of rings (size 3 to 8) (size 9 to 14) (size 15 to 20)
#    0.000    1.000    4.000    3.900    0.000    0.000 
#    0.000    3.500    0.000    0.000    0.000    0.000 
#    0.000    0.000    0.000    0.000    0.000    0.000 
#
# Total GULP energy -496107.465863 kJ/mol
# GULP energy per Si atom -12402.686647 kJ/mol
# Density = 2.047630 g / cm^3
# Si number density = 20.523008 Si / 1000 Ang^3
#
#
#
# Elastic Constant Matrix: (Units=GPa)
#
#
# Indices 1 2 3 4 5 6 
#
# 1 74.2295 16.3454 47.1256 0.0000 0.0000 9.2047
# 2 16.3454 74.2295 47.1256 0.0000 0.0000 -9.2047
# 3 47.1256 47.1256 151.1339 0.0000 0.0000 0.0000
# 4 0.0000 0.0000 0.0000 25.9573 0.0000 0.0000
# 5 0.0000 0.0000 0.0000 0.0000 25.9573 0.0000
# 6 9.2047 -9.2047 0.0000 0.0000 0.0000 42.4117
#
#
#
# Elastic Compliance Matrix: (Units=1/GPa)
#
#
# Indices 1 2 3 4 5 6 
#
# 1 0.017450 -0.001107 -0.005096 0.000000 0.000000 -0.004027
# 2 -0.001107 0.017450 -0.005096 0.000000 0.000000 0.004027
# 3 -0.005096 -0.005096 0.009795 0.000000 0.000000 0.000000
# 4 0.000000 0.000000 0.000000 0.038525 0.000000 0.000000
# 5 0.000000 0.000000 0.000000 0.000000 0.038525 0.000000
# 6 -0.004027 0.004027 0.000000 0.000000 0.000000 0.025327
#
#
# Mechanical properties :
#
#
# Convention : Reuss Voigt Hill
#
# Bulk Modulus (GPa) = 45.25437 57.86512 51.55975
# Shear Modulus (GPa) = 28.24302 31.46501 29.85402
#
# Velocity S-wave (km/s) = 3.71369 3.91980 3.81814
# Velocity P-wave (km/s) = 6.36295 6.98161 6.67945
#
# Compressibility (1/GPa) = 0.02209731
#
# Stress axis : x y z
#
# Youngs Moduli (GPa) = 57.30605 57.30605 102.09560
#
# Poissons Ratio (x) = 0.06341 0.52029
# Poissons Ratio (y) = 0.06341 0.52029
# Poissons Ratio (z) = 0.29204 0.29204
#
# Static dielectric constant tensor:
#      x y z
#    x 3.602860 0.000000 0.000000 
#    y 0.000000 3.602860 0.000000 
#    z 0.000000 0.000000 4.087820 
# 
# 
# High freq. dielectric constant tensor:
#      x y z
#    x 1.794220 0.000000 0.000000 
#    y 0.000000 1.794220 0.000000 
#    z 0.000000 0.000000 1.820500 
# 
# From -- ./inp_files/4909.got.cif
#   From: 2010.03.12/outbox.cif.g09.slc.cpg/sg84_3_cif.got.tgz:4909.got - 2010.04.08 20:07:29.
