data_PCOD8303920
_publ_section_title
;
Structure prediction by ZEFSAII (Michael W. Deem and Ramdas Pophale) SiO2 
 PCOD8303920
Probable space group: I 4/M
;
_chemical_formula_sum "Si O2"
_cell_formula_units_Z 120
_cell_length_a 20.386822
_cell_length_b 20.386822
_cell_length_c 15.482597
_cell_angle_alpha 90.000000
_cell_angle_beta 90.000000
_cell_angle_gamma 90.000000
_cell_volume 6434.915846
_symmetry_space_group_name_H-M "I 4/M"
_symmetry_group_IT_number 87
_symmetry_cell_setting 'tetragonal'
loop_
_space_group_symop_operation_xyz
x,y,z
-y,x,z
-x,-y,z
y,-x,z
-x,-y,-z
y,-x,-z
x,y,-z
-y,x,-z
1/2+x,1/2+y,1/2+z
1/2-y,1/2+x,1/2+z
1/2-x,1/2-y,1/2+z
1/2+y,1/2-x,1/2+z
1/2-x,1/2-y,1/2-z
1/2+y,1/2-x,1/2-z
1/2+x,1/2+y,1/2-z
1/2-y,1/2+x,1/2-z
loop_
_atom_site_type_symbol
_atom_site_label
_atom_site_fract_x
_atom_site_fract_y
_atom_site_fract_z
Si Si1 0.427833 0.305400 0.161936
Si Si2 0.037155 0.103629 0.500000
Si Si3 0.321137 0.494827 0.662201
Si Si4 0.797659 0.582967 0.690561
Si Si5 0.866846 0.125864 0.097784
Si Si6 0.088462 0.341521 0.601171
Si Si7 0.507950 0.094149 0.217735
Si Si8 0.294913 0.313046 0.742629
O O1 0.447470 0.352315 0.083466
O O2 0.477598 0.321136 0.240034
O O3 0.430964 0.228739 0.139049
O O4 0.352166 0.318416 0.186778
O O5 0.960778 0.083033 0.500000
O O6 0.250398 0.463973 0.634572
O O7 0.338807 0.552411 0.596266
O O8 0.373930 0.436138 0.649959
O O9 0.840858 0.632250 0.632732
O O10 0.837653 0.535495 0.751477
O O11 0.752248 0.624669 0.755726
O O12 0.815259 0.173687 0.146164
O O13 0.875777 0.150604 0.000000
O O14 0.089748 0.337291 0.500000
O O15 0.033293 0.394233 0.630484
O O16 0.458902 0.066211 0.293419
O O17 0.250000 0.250000 0.750000
#
# Coordination Sequence:
#
# PCOD8303920 Si02
#       8
#    16   8  16  16  16  16  16  16
#     4  11  22  41  62  92 122 166 209 253 314 365
#     4  11  28  44  62  90 134 167 216 270 301 365
#     4  10  22  38  61  88 118 158 200 245 305 379
#     4  10  20  36  62  86 112 157 199 246 299 368
#     4  10  22  38  60  87 117 153 196 254 300 357
#     4  11  21  36  61  92 120 155 202 259 307 362
#     4   9  19  36  57  83 116 157 198 238 296 368
#     4  10  21  38  60  87 121 156 202 247 307 381
#
# _framework density 18.648263
#
# number of rings (size 3 to 8) (size 9 to 14) (size 15 to 20)
#    0.000    1.800    3.333    0.400    5.600    2.933 
#    1.200    6.000    0.000    1.600    0.000    0.000 
#    0.000    0.000    0.000    0.000    0.000    0.000 
#
# Total GULP energy -743583.705094 kJ/mol
# GULP energy per Si atom -12393.061752 kJ/mol
# Density = 1.860582 g / cm^3
# Si number density = 18.648263 Si / 1000 Ang^3
#
#
#
# Elastic Constant Matrix: (Units=GPa)
#
#
# Indices 1 2 3 4 5 6 
#
# 1 108.2138 59.9703 38.3118 0.0000 0.0000 -10.1955
# 2 59.9703 108.2138 38.3118 0.0000 0.0000 10.1955
# 3 38.3118 38.3118 108.4632 0.0000 0.0000 0.0000
# 4 0.0000 0.0000 0.0000 22.5809 0.0000 0.0000
# 5 0.0000 0.0000 0.0000 0.0000 22.5809 0.0000
# 6 -10.1955 10.1955 0.0000 0.0000 0.0000 44.1212
#
#
#
# Elastic Compliance Matrix: (Units=1/GPa)
#
#
# Indices 1 2 3 4 5 6 
#
# 1 0.015029 -0.007943 -0.002503 0.000000 0.000000 0.005308
# 2 -0.007943 0.015029 -0.002503 0.000000 0.000000 -0.005308
# 3 -0.002503 -0.002503 0.010988 0.000000 0.000000 0.000000
# 4 0.000000 0.000000 0.000000 0.044285 0.000000 0.000000
# 5 0.000000 0.000000 0.000000 0.000000 0.044285 0.000000
# 6 0.005308 -0.005308 0.000000 0.000000 0.000000 0.025118
#
#
# Mechanical properties :
#
#
# Convention : Reuss Voigt Hill
#
# Bulk Modulus (GPa) = 66.01390 66.45319 66.23355
# Shear Modulus (GPa) = 26.92780 30.40974 28.66877
#
# Velocity S-wave (km/s) = 3.80410 4.04257 3.92515
# Velocity P-wave (km/s) = 7.40076 7.58303 7.49245
#
# Compressibility (1/GPa) = 0.01514832
#
# Stress axis : x y z
#
# Youngs Moduli (GPa) = 66.53794 66.53794 91.00863
#
# Poissons Ratio (x) = 0.52850 0.22780
# Poissons Ratio (y) = 0.52850 0.22780
# Poissons Ratio (z) = 0.16655 0.16655
#
# Static dielectric constant tensor:
#      x y z
#    x 3.741670 0.000000 0.000000 
#    y 0.000000 3.741670 0.000000 
#    z 0.000000 0.000000 3.193860 
# 
# 
# High freq. dielectric constant tensor:
#      x y z
#    x 1.740200 0.000000 0.000000 
#    y 0.000000 1.740200 0.000000 
#    z 0.000000 0.000000 1.695930 
# 
# From -- ./inp_files/3872.got.cif
#   From: 2010.03.12/outbox.cif.g09.slc.cpg/sg87_2_cif.got.tgz:3872.got - 2010.04.08 20:16:13.
