data_PCOD8303428
_publ_section_title
;
Structure prediction by ZEFSAII (Michael W. Deem and Ramdas Pophale) SiO2 
 PCOD8303428
Probable space group: P 4/N
;
_chemical_formula_sum "Si O2"
_cell_formula_units_Z 56
_cell_length_a 15.182274
_cell_length_b 15.182274
_cell_length_c 11.086625
_cell_angle_alpha 90.000000
_cell_angle_beta 90.000000
_cell_angle_gamma 90.000000
_cell_volume 2555.483069
_symmetry_space_group_name_H-M "P 4/N"
_symmetry_group_IT_number 85
_symmetry_cell_setting 'tetragonal'
loop_
_space_group_symop_operation_xyz
x,y,z
1/2-y,x,z
1/2-x,1/2-y,z
y,1/2-x,z
-x,-y,-z
1/2+y,-x,-z
1/2+x,1/2+y,-z
-y,1/2+x,-z
loop_
_atom_site_type_symbol
_atom_site_label
_atom_site_fract_x
_atom_site_fract_y
_atom_site_fract_z
Si Si1 0.303774 0.381588 0.577081
Si Si2 0.461754 0.902408 0.513135
Si Si3 0.837861 0.137322 0.279735
Si Si4 0.980906 0.448536 0.125197
Si Si5 0.635107 0.166813 0.256723
Si Si6 0.541861 0.868332 0.182569
Si Si7 0.833494 0.868298 0.928277
O O1 0.202593 0.363462 0.550421
O O2 0.333930 0.458032 0.489207
O O3 0.312105 0.410547 0.715723
O O4 0.394311 0.880548 0.405103
O O5 0.418661 0.884743 0.641142
O O6 0.500000 0.000000 0.500000
O O7 0.735061 0.154517 0.293721
O O8 0.885706 0.228887 0.243549
O O9 0.845891 0.062841 0.175305
O O10 0.896696 0.381557 0.131925
O O11 0.958300 0.527565 0.217910
O O12 0.066789 0.389103 0.159603
O O13 0.000000 0.500000 0.000000
O O14 0.595075 0.847872 0.062277
O O15 0.729095 0.871053 0.905500
#
# Coordination Sequence:
#
# PCOD8303428 Si02
#       7
#     8   8   8   8   8   8   8
#     4  10  22  38  61  95 128 163 208 264 317 379
#     4  11  24  38  66  93 131 173 215 264 326 390
#     4  10  24  39  67  97 127 172 214 268 329 393
#     4  10  24  41  64  92 126 167 212 269 329 381
#     4  11  23  43  63  93 132 174 218 267 324 396
#     4  10  21  37  66  93 123 159 209 269 329 377
#     4  10  22  40  64  90 120 165 213 269 326 385
#
# _framework density 21.913665999999999
#
# number of rings (size 3 to 8) (size 9 to 14) (size 15 to 20)
#    0.000    1.714    0.000    3.429   16.000    2.286 
#    0.000    0.000    0.000    8.571    0.000    0.000 
#    0.000    0.000    0.000    0.000    0.000    0.000 
#
# Total GULP energy -693815.138383 kJ/mol
# GULP energy per Si atom -12389.556043 kJ/mol
# Density = 2.186379 g / cm^3
# Si number density = 21.913666 Si / 1000 Ang^3
#
#
#
# Elastic Constant Matrix: (Units=GPa)
#
#
# Indices 1 2 3 4 5 6 
#
# 1 101.4861 66.3940 10.3064 0.0000 0.0000 -21.1039
# 2 66.3940 101.4861 10.3064 0.0000 0.0000 21.1039
# 3 10.3064 10.3064 37.4130 0.0000 0.0000 0.0000
# 4 0.0000 0.0000 0.0000 20.7448 0.0000 0.0000
# 5 0.0000 0.0000 0.0000 0.0000 20.7448 0.0000
# 6 -21.1039 21.1039 0.0000 0.0000 0.0000 34.7038
#
#
#
# Elastic Compliance Matrix: (Units=1/GPa)
#
#
# Indices 1 2 3 4 5 6 
#
# 1 0.056134 -0.049968 -0.001698 0.000000 0.000000 0.064522
# 2 -0.049968 0.056134 -0.001698 0.000000 0.000000 -0.064522
# 3 -0.001698 -0.001698 0.027664 0.000000 0.000000 0.000000
# 4 0.000000 0.000000 0.000000 0.048205 0.000000 0.000000
# 5 0.000000 0.000000 0.000000 0.000000 0.048205 0.000000
# 6 0.064522 -0.064522 0.000000 0.000000 0.000000 0.107289
#
#
# Mechanical properties :
#
#
# Convention : Reuss Voigt Hill
#
# Bulk Modulus (GPa) = 30.11934 46.04432 38.08183
# Shear Modulus (GPa) = 10.83593 25.46391 18.14992
#
# Velocity S-wave (km/s) = 2.22611 3.41253 2.88105
# Velocity P-wave (km/s) = 4.51462 6.04851 5.33696
#
# Compressibility (1/GPa) = 0.03320126
#
# Stress axis : x y z
#
# Youngs Moduli (GPa) = 17.81463 17.81463 36.14759
#
# Poissons Ratio (x) = 0.89017 0.06139
# Poissons Ratio (y) = 0.89017 0.06139
# Poissons Ratio (z) = 0.03026 0.03026
#
# Static dielectric constant tensor:
#      x y z
#    x 4.463490 0.000000 0.000000 
#    y 0.000000 4.463490 0.000000 
#    z 0.000000 0.000000 3.768440 
# 
# 
# High freq. dielectric constant tensor:
#      x y z
#    x 1.881310 0.000000 0.000000 
#    y 0.000000 1.881310 0.000000 
#    z 0.000000 0.000000 1.830920 
# 
# From -- ./inp_files/1748.got.cif
#   From: 2010.03.12/outbox.cif.g09.slc.cpg/sg85_cif.got.tgz:1748.got - 2010.04.08 20:10:46.
