data_PCOD8303730
_publ_section_title
;
Structure prediction by ZEFSAII (Michael W. Deem and Ramdas Pophale) SiO2 
 PCOD8303730
Probable space group: I 4/M
;
_chemical_formula_sum "Si O2"
_cell_formula_units_Z 120
_cell_length_a 17.883642
_cell_length_b 17.883642
_cell_length_c 19.088062
_cell_angle_alpha 90.000000
_cell_angle_beta 90.000000
_cell_angle_gamma 90.000000
_cell_volume 6104.832771
_symmetry_space_group_name_H-M "I 4/M"
_symmetry_group_IT_number 87
_symmetry_cell_setting 'tetragonal'
loop_
_space_group_symop_operation_xyz
x,y,z
-y,x,z
-x,-y,z
y,-x,z
-x,-y,-z
y,-x,-z
x,y,-z
-y,x,-z
1/2+x,1/2+y,1/2+z
1/2-y,1/2+x,1/2+z
1/2-x,1/2-y,1/2+z
1/2+y,1/2-x,1/2+z
1/2-x,1/2-y,1/2-z
1/2+y,1/2-x,1/2-z
1/2+x,1/2+y,1/2-z
1/2-y,1/2+x,1/2-z
loop_
_atom_site_type_symbol
_atom_site_label
_atom_site_fract_x
_atom_site_fract_y
_atom_site_fract_z
Si Si1 0.128067 0.179572 0.916315
Si Si2 0.239706 0.575007 0.832529
Si Si3 0.677099 0.770300 0.293442
Si Si4 0.862974 0.587262 0.373075
Si Si5 0.851670 0.561832 0.787307
Si Si6 0.543782 0.613327 0.081753
Si Si7 0.791456 0.965208 0.921457
Si Si8 0.000000 0.500000 0.648747
O O1 0.181670 0.231051 0.869251
O O2 0.149434 0.095361 0.893518
O O3 0.045479 0.197180 0.885490
O O4 0.140393 0.194409 0.000000
O O5 0.255081 0.607838 0.755318
O O6 0.176736 0.623986 0.873527
O O7 0.207402 0.492116 0.824152
O O8 0.315965 0.573885 0.875652
O O9 0.750000 0.750000 0.250000
O O10 0.669793 0.856620 0.314154
O O11 0.843416 0.558558 0.295786
O O12 0.792854 0.566275 0.420694
O O13 0.937172 0.541880 0.398878
O O14 0.937239 0.540826 0.804051
O O15 0.457835 0.595216 0.101050
O O16 0.550393 0.631938 0.000000
O O17 0.814151 0.982464 0.000000
#
# Coordination Sequence:
#
# PCOD8303730 Si02
#       8
#    16  16  16  16  16  16  16   8
#     4  10  21  39  60  82 114 157 201 241 297 357
#     4  10  21  34  58  87 116 153 194 244 292 356
#     4  11  23  37  57  88 123 154 187 246 302 353
#     4  10  18  33  54  82 114 151 183 238 295 346
#     4  10  19  32  54  82 115 148 194 233 286 345
#     4   9  20  41  64  83 112 156 200 245 298 353
#     4  10  21  37  57  78 107 150 196 241 287 351
#     4  10  17  30  55  80 105 148 192 222 277 352
#
# _framework density 19.656559000000001
#
# number of rings (size 3 to 8) (size 9 to 14) (size 15 to 20)
#    0.000    2.000    0.000    6.400    1.867    0.800 
#    0.000    3.000    0.000    1.600    0.000    0.000 
#    0.000    0.000    0.000    0.000    0.000    0.000 
#
# Total GULP energy -743643.114817 kJ/mol
# GULP energy per Si atom -12394.051914 kJ/mol
# Density = 1.961182 g / cm^3
# Si number density = 19.656559 Si / 1000 Ang^3
#
#
#
# Elastic Constant Matrix: (Units=GPa)
#
#
# Indices 1 2 3 4 5 6 
#
# 1 116.5750 43.2018 36.8873 0.0000 0.0000 -1.3098
# 2 43.2018 116.5750 36.8873 0.0000 0.0000 1.3098
# 3 36.8873 36.8873 57.7848 0.0000 0.0000 0.0000
# 4 0.0000 0.0000 0.0000 28.1532 0.0000 0.0000
# 5 0.0000 0.0000 0.0000 0.0000 28.1532 0.0000
# 6 -1.3098 1.3098 0.0000 0.0000 0.0000 28.5560
#
#
#
# Elastic Compliance Matrix: (Units=1/GPa)
#
#
# Indices 1 2 3 4 5 6 
#
# 1 0.011263 -0.002388 -0.005665 0.000000 0.000000 0.000626
# 2 -0.002388 0.011263 -0.005665 0.000000 0.000000 -0.000626
# 3 -0.005665 -0.005665 0.024538 0.000000 0.000000 0.000000
# 4 0.000000 0.000000 0.000000 0.035520 0.000000 0.000000
# 5 0.000000 0.000000 0.000000 0.000000 0.035520 0.000000
# 6 0.000626 -0.000626 0.000000 0.000000 0.000000 0.035076
#
#
# Mechanical properties :
#
#
# Convention : Reuss Voigt Hill
#
# Bulk Modulus (GPa) = 50.95042 58.32082 54.63562
# Shear Modulus (GPa) = 26.71513 28.56971 27.64242
#
# Velocity S-wave (km/s) = 3.69059 3.81654 3.75409
# Velocity P-wave (km/s) = 6.64358 7.01111 6.82982
#
# Compressibility (1/GPa) = 0.01962692
#
# Stress axis : x y z
#
# Youngs Moduli (GPa) = 88.78708 88.78708 40.75265
#
# Poissons Ratio (x) = 0.21206 0.23087
# Poissons Ratio (y) = 0.21206 0.23087
# Poissons Ratio (z) = 0.50299 0.50299
#
# Static dielectric constant tensor:
#      x y z
#    x 3.763590 0.000000 0.000000 
#    y 0.000000 3.763590 0.000000 
#    z 0.000000 0.000000 3.253740 
# 
# 
# High freq. dielectric constant tensor:
#      x y z
#    x 1.774750 0.000000 0.000000 
#    y 0.000000 1.774750 0.000000 
#    z 0.000000 0.000000 1.736820 
# 
# From -- ./inp_files/5508.got.cif
#   From: 2010.03.12/outbox.cif.g09.slc.cpg/sg87_3_cif.got.tgz:5508.got - 2010.04.08 20:16:13.
