data_PCOD8303935
_publ_section_title
;
Structure prediction by ZEFSAII (Michael W. Deem and Ramdas Pophale) SiO2 
 PCOD8303935
Probable space group: I 4/M
;
_chemical_formula_sum "Si O2"
_cell_formula_units_Z 84
_cell_length_a 19.864316
_cell_length_b 19.864316
_cell_length_c 11.880149
_cell_angle_alpha 90.000000
_cell_angle_beta 90.000000
_cell_angle_gamma 90.000000
_cell_volume 4687.800470
_symmetry_space_group_name_H-M "I 4/M"
_symmetry_group_IT_number 87
_symmetry_cell_setting 'tetragonal'
loop_
_space_group_symop_operation_xyz
x,y,z
-y,x,z
-x,-y,z
y,-x,z
-x,-y,-z
y,-x,-z
x,y,-z
-y,x,-z
1/2+x,1/2+y,1/2+z
1/2-y,1/2+x,1/2+z
1/2-x,1/2-y,1/2+z
1/2+y,1/2-x,1/2+z
1/2-x,1/2-y,1/2-z
1/2+y,1/2-x,1/2-z
1/2+x,1/2+y,1/2-z
1/2-y,1/2+x,1/2-z
loop_
_atom_site_type_symbol
_atom_site_label
_atom_site_fract_x
_atom_site_fract_y
_atom_site_fract_z
Si Si1 0.162790 0.871011 0.500000
Si Si2 0.303626 0.476942 0.000000
Si Si3 0.238664 0.566115 0.628850
Si Si4 0.562021 0.244819 0.770413
Si Si5 0.106748 0.412509 0.869775
Si Si6 0.500000 0.000000 0.250000
Si Si7 0.687091 0.700754 0.232612
O O1 0.083492 0.856808 0.500000
O O2 0.202524 0.838274 0.604308
O O3 0.161336 0.951093 0.500000
O O4 0.258512 0.472074 0.889959
O O5 0.260353 0.569035 0.500000
O O6 0.258762 0.493247 0.675579
O O7 0.159231 0.572094 0.645752
O O8 0.278571 0.626127 0.687933
O O9 0.586913 0.168250 0.781747
O O10 0.624733 0.291626 0.737659
O O11 0.055781 0.470637 0.833694
O O12 0.128930 0.423147 0.000000
O O13 0.750000 0.750000 0.250000
#
# Coordination Sequence:
#
# PCOD8303935 Si02
#       7
#     8   8  16  16  16   4  16
#     4  10  22  37  62  92 116 158 200 246 313 362
#     4  10  20  37  62  87 116 148 196 251 308 357
#     4  11  24  40  59  85 121 160 198 247 300 356
#     4  11  21  39  60  87 119 156 196 248 303 353
#     4  11  22  36  56  83 117 156 199 244 289 346
#     4  12  22  36  56  82 120 168 198 224 292 374
#     4  11  23  38  63  91 119 155 206 254 301 354
#
# _framework density 17.918852000000001
#
# number of rings (size 3 to 8) (size 9 to 14) (size 15 to 20)
#    0.000    1.143    6.667    0.286    1.333    0.952 
#    0.000    0.000    2.095    0.571    0.000    1.333 
#    0.000    0.000    0.000    0.000    0.000    0.000 
#
# Total GULP energy -520846.802228 kJ/mol
# GULP energy per Si atom -12401.114339 kJ/mol
# Density = 1.787807 g / cm^3
# Si number density = 17.918852 Si / 1000 Ang^3
#
#
#
# Elastic Constant Matrix: (Units=GPa)
#
#
# Indices 1 2 3 4 5 6 
#
# 1 79.5447 29.3786 49.5132 0.0000 0.0000 -5.7008
# 2 29.3786 79.5447 49.5132 0.0000 0.0000 5.7008
# 3 49.5132 49.5132 118.6449 0.0000 0.0000 0.0000
# 4 0.0000 0.0000 0.0000 30.3362 0.0000 0.0000
# 5 0.0000 0.0000 0.0000 0.0000 30.3362 0.0000
# 6 -5.7008 5.7008 0.0000 0.0000 0.0000 30.8402
#
#
#
# Elastic Compliance Matrix: (Units=1/GPa)
#
#
# Indices 1 2 3 4 5 6 
#
# 1 0.017801 -0.003007 -0.006174 0.000000 0.000000 0.003846
# 2 -0.003007 0.017801 -0.006174 0.000000 0.000000 -0.003846
# 3 -0.006174 -0.006174 0.013581 0.000000 0.000000 0.000000
# 4 0.000000 0.000000 0.000000 0.032964 0.000000 0.000000
# 5 0.000000 0.000000 0.000000 0.000000 0.032964 0.000000
# 6 0.003846 -0.003846 0.000000 0.000000 0.000000 0.033847
#
#
# Mechanical properties :
#
#
# Convention : Reuss Voigt Hill
#
# Bulk Modulus (GPa) = 54.13109 59.39379 56.76244
# Shear Modulus (GPa) = 26.90709 28.25783 27.58246
#
# Velocity S-wave (km/s) = 3.87926 3.97544 3.92765
# Velocity P-wave (km/s) = 7.09503 7.36818 7.23290
#
# Compressibility (1/GPa) = 0.01847367
#
# Stress axis : x y z
#
# Youngs Moduli (GPa) = 56.17753 56.17753 73.63063
#
# Poissons Ratio (x) = 0.16894 0.45457
# Poissons Ratio (y) = 0.16894 0.45457
# Poissons Ratio (z) = 0.34682 0.34682
#
# Static dielectric constant tensor:
#      x y z
#    x 3.327980 0.000000 0.000000 
#    y 0.000000 3.327980 0.000000 
#    z 0.000000 0.000000 3.440980 
# 
# 
# High freq. dielectric constant tensor:
#      x y z
#    x 1.698010 0.000000 0.000000 
#    y 0.000000 1.698010 0.000000 
#    z 0.000000 0.000000 1.696690 
# 
# From -- ./inp_files/2703.got.cif
#   From: 2010.03.12/outbox.cif.g09.slc.cpg/sg87_2_cif.got.tgz:2703.got - 2010.04.08 20:16:13.
