data_PCOD8303021
_publ_section_title
;
Structure prediction by ZEFSAII (Michael W. Deem and Ramdas Pophale) SiO2 
 PCOD8303021
Probable space group: P 4/M
;
_chemical_formula_sum "Si O2"
_cell_formula_units_Z 48
_cell_length_a 11.032303
_cell_length_b 11.032303
_cell_length_c 19.534593
_cell_angle_alpha 90.000000
_cell_angle_beta 90.000000
_cell_angle_gamma 90.000000
_cell_volume 2377.588708
_symmetry_space_group_name_H-M "P 4/M"
_symmetry_group_IT_number 83
_symmetry_cell_setting 'tetragonal'
loop_
_space_group_symop_operation_xyz
x,y,z
-y,x,z
-x,-y,z
y,-x,z
-x,-y,-z
y,-x,-z
x,y,-z
-y,x,-z
loop_
_atom_site_type_symbol
_atom_site_label
_atom_site_fract_x
_atom_site_fract_y
_atom_site_fract_z
Si Si1 0.685704 0.567306 0.579033
Si Si2 0.017734 0.185460 0.740790
Si Si3 0.553400 0.874283 0.922849
Si Si4 0.116493 0.430868 0.312596
Si Si5 0.298424 0.505532 0.199341
Si Si6 0.949299 0.180115 0.100601
O O1 0.571529 0.652250 0.596510
O O2 0.721616 0.580721 0.500000
O O3 0.799405 0.608904 0.624179
O O4 0.051931 0.320867 0.724948
O O5 0.893863 0.129606 0.709978
O O6 0.977965 0.176931 0.819366
O O7 0.509434 0.764717 0.874758
O O8 0.696641 0.890545 0.924362
O O9 0.500000 0.000000 0.894387
O O10 0.507287 0.846413 0.000000
O O11 0.196163 0.507772 0.258216
O O12 0.000000 0.500000 0.342519
O O13 0.376412 0.382960 0.207165
O O14 0.082152 0.147519 0.071501
#
# Coordination Sequence:
#
# PCOD8303021 Si02
#       6
#     8   8   8   8   8   8
#     4   9  20  41  66  92 128 172 213 258 311 362
#     4   9  20  36  57  87 125 163 199 249 316 376
#     4  11  25  41  60  87 118 156 202 258 320 381
#     4  12  24  35  65  98 126 158 204 262 311 368
#     4  11  26  44  63  88 120 161 209 257 311 375
#     4   9  19  37  62  87 114 153 201 257 314 370
#
# _framework density 20.188521000000001
#
# number of rings (size 3 to 8) (size 9 to 14) (size 15 to 20)
#    0.000    1.833    0.000    5.000   11.667    3.000 
#    0.000    1.667    0.000    0.000    0.000    1.167 
#    0.000    0.000    0.000    0.000    0.000    0.000 
#
# Total GULP energy -594650.122676 kJ/mol
# GULP energy per Si atom -12388.544222 kJ/mol
# Density = 2.014257 g / cm^3
# Si number density = 20.188521 Si / 1000 Ang^3
#
#
#
# Elastic Constant Matrix: (Units=GPa)
#
#
# Indices 1 2 3 4 5 6 
#
# 1 63.7899 13.7416 15.4969 0.0000 0.0000 -1.4487
# 2 13.7416 63.7899 15.4969 0.0000 0.0000 1.4487
# 3 15.4969 15.4969 70.1940 0.0000 0.0000 0.0000
# 4 0.0000 0.0000 0.0000 28.2694 0.0000 0.0000
# 5 0.0000 0.0000 0.0000 0.0000 28.2694 0.0000
# 6 -1.4487 1.4487 0.0000 0.0000 0.0000 21.3547
#
#
#
# Elastic Compliance Matrix: (Units=1/GPa)
#
#
# Indices 1 2 3 4 5 6 
#
# 1 0.017103 -0.002957 -0.003123 0.000000 0.000000 0.001361
# 2 -0.002957 0.017103 -0.003123 0.000000 0.000000 -0.001361
# 3 -0.003123 -0.003123 0.015625 0.000000 0.000000 0.000000
# 4 0.000000 0.000000 0.000000 0.035374 0.000000 0.000000
# 5 0.000000 0.000000 0.000000 0.000000 0.035374 0.000000
# 6 0.001361 -0.001361 0.000000 0.000000 0.000000 0.047013
#
#
# Mechanical properties :
#
#
# Convention : Reuss Voigt Hill
#
# Bulk Modulus (GPa) = 31.82119 31.91607 31.86863
# Shear Modulus (GPa) = 25.44885 25.78128 25.61506
#
# Velocity S-wave (km/s) = 3.55429 3.57743 3.56588
# Velocity P-wave (km/s) = 5.71316 5.73649 5.72484
#
# Compressibility (1/GPa) = 0.03142560
#
# Stress axis : x y z
#
# Youngs Moduli (GPa) = 58.46936 58.46936 63.99907
#
# Poissons Ratio (x) = 0.17286 0.19988
# Poissons Ratio (y) = 0.17286 0.19988
# Poissons Ratio (z) = 0.18261 0.18261
#
# Static dielectric constant tensor:
#      x y z
#    x 3.750450 0.000000 0.000000 
#    y 0.000000 3.750450 0.000000 
#    z 0.000000 0.000000 3.487660 
# 
# 
# High freq. dielectric constant tensor:
#      x y z
#    x 1.791820 0.000000 0.000000 
#    y 0.000000 1.791820 0.000000 
#    z 0.000000 0.000000 1.768380 
# 
# From -- ./inp_files/2634.got.cif
#   From: 2010.03.12/outbox.cif.g09.slc.cpg/sg83_2_cif.got.tgz:2634.got - 2010.04.08 20:05:18.
