data_PCOD8303268
_publ_section_title
;
Structure prediction by ZEFSAII (Michael W. Deem and Ramdas Pophale) SiO2 
 PCOD8303268
Probable space group: P 42/M
;
_chemical_formula_sum "Si O2"
_cell_formula_units_Z 48
_cell_length_a 8.135351
_cell_length_b 8.135351
_cell_length_c 32.710843
_cell_angle_alpha 90.000000
_cell_angle_beta 90.000000
_cell_angle_gamma 90.000000
_cell_volume 2164.932336
_symmetry_space_group_name_H-M "P 42/M"
_symmetry_group_IT_number 84
_symmetry_cell_setting 'tetragonal'
loop_
_space_group_symop_operation_xyz
x,y,z
-y,x,1/2+z
-x,-y,z
y,-x,1/2+z
-x,-y,-z
y,-x,1/2-z
x,y,-z
-y,x,1/2-z
loop_
_atom_site_type_symbol
_atom_site_label
_atom_site_fract_x
_atom_site_fract_y
_atom_site_fract_z
Si Si1 0.736091 0.754175 0.414921
Si Si2 0.000000 0.000000 0.063011
Si Si3 0.242961 0.891189 0.241016
Si Si4 0.393834 0.746607 0.316677
Si Si5 0.500000 0.000000 0.623808
Si Si6 0.878452 0.241859 0.500000
Si Si7 0.409511 0.744171 0.832396
Si Si8 0.408078 0.772181 0.000000
O O1 0.774110 0.617362 0.380673
O O2 0.696226 0.667973 0.458421
O O3 0.578567 0.862888 0.404946
O O4 0.891319 0.875247 0.411402
O O5 0.115971 0.127518 0.037843
O O6 0.376410 0.810297 0.270735
O O7 0.321157 0.883730 0.195361
O O8 0.076370 0.787263 0.244898
O O9 0.259397 0.605714 0.326288
O O10 0.574762 0.674100 0.319557
O O11 0.369814 0.901097 0.347582
O O12 0.744451 0.391390 0.500000
O O13 0.042217 0.349022 0.500000
#
# Coordination Sequence:
#
# PCOD8303268 Si02
#       8
#     8   4   8   8   4   4   8   4
#     4  10  21  37  58  86 119 156 200 248 300 355
#     4   9  18  34  60  84 111 150 196 244 293 348
#     4  11  23  38  58  87 121 153 192 243 294 347
#     4  10  21  40  61  80 114 157 193 236 294 359
#     4  10  22  39  60  84 118 156 194 247 302 352
#     4   8  16  34  57  82 110 151 196 242 299 355
#     4  10  22  38  59  86 114 152 199 240 291 358
#     4   9  18  35  57  83 118 154 196 247 299 360
#
# _framework density 22.171593999999999
#
# number of rings (size 3 to 8) (size 9 to 14) (size 15 to 20)
#    0.000    2.167    0.000    3.500    0.000    7.667 
#    0.000    5.000    0.000    9.000    0.000    0.000 
#    0.000    0.000    0.000    0.000    0.000    0.000 
#
# Total GULP energy -594854.806569 kJ/mol
# GULP energy per Si atom -12392.808470 kJ/mol
# Density = 2.212113 g / cm^3
# Si number density = 22.171594 Si / 1000 Ang^3
#
#
#
# Elastic Constant Matrix: (Units=GPa)
#
#
# Indices 1 2 3 4 5 6 
#
# 1 84.5042 18.4871 39.9018 0.0000 0.0000 2.4155
# 2 18.4871 84.5042 39.9018 0.0000 0.0000 -2.4155
# 3 39.9018 39.9018 160.8126 0.0000 0.0000 0.0000
# 4 0.0000 0.0000 0.0000 45.0203 0.0000 0.0000
# 5 0.0000 0.0000 0.0000 0.0000 45.0203 0.0000
# 6 2.4155 -2.4155 0.0000 0.0000 0.0000 23.0061
#
#
#
# Elastic Compliance Matrix: (Units=1/GPa)
#
#
# Indices 1 2 3 4 5 6 
#
# 1 0.013643 -0.001622 -0.002983 0.000000 0.000000 -0.001603
# 2 -0.001622 0.013643 -0.002983 0.000000 0.000000 0.001603
# 3 -0.002983 -0.002983 0.007699 0.000000 0.000000 0.000000
# 4 0.000000 0.000000 0.000000 0.022212 0.000000 0.000000
# 5 0.000000 0.000000 0.000000 0.000000 0.022212 0.000000
# 6 -0.001603 0.001603 0.000000 0.000000 0.000000 0.043803
#
#
# Mechanical properties :
#
#
# Convention : Reuss Voigt Hill
#
# Bulk Modulus (GPa) = 50.48122 58.48916 54.48519
# Shear Modulus (GPa) = 34.48523 38.04469 36.26496
#
# Velocity S-wave (km/s) = 3.94811 4.14686 4.04870
# Velocity P-wave (km/s) = 6.60312 7.02610 6.81789
#
# Compressibility (1/GPa) = 0.01980935
#
# Stress axis : x y z
#
# Youngs Moduli (GPa) = 73.29890 73.29890 129.89444
#
# Poissons Ratio (x) = 0.11890 0.38743
# Poissons Ratio (y) = 0.11890 0.38743
# Poissons Ratio (z) = 0.21862 0.21862
#
# Static dielectric constant tensor:
#      x y z
#    x 4.062880 0.000000 0.000000 
#    y 0.000000 4.062880 0.000000 
#    z 0.000000 0.000000 4.078750 
# 
# 
# High freq. dielectric constant tensor:
#      x y z
#    x 1.866580 0.000000 0.000000 
#    y 0.000000 1.866580 0.000000 
#    z 0.000000 0.000000 1.870320 
# 
# From -- ./inp_files/5897.got.cif
#   From: 2010.03.12/outbox.cif.g09.slc.cpg/sg84_3_cif.got.tgz:5897.got - 2010.04.08 20:07:29.
