data_PCOD8303923
_publ_section_title
;
Structure prediction by ZEFSAII (Michael W. Deem and Ramdas Pophale) SiO2 
 PCOD8303923
Probable space group: I 4/M
;
_chemical_formula_sum "Si O2"
_cell_formula_units_Z 112
_cell_length_a 14.537205
_cell_length_b 14.537205
_cell_length_c 29.729826
_cell_angle_alpha 90.000000
_cell_angle_beta 90.000000
_cell_angle_gamma 90.000000
_cell_volume 6282.813916
_symmetry_space_group_name_H-M "I 4/M"
_symmetry_group_IT_number 87
_symmetry_cell_setting 'tetragonal'
loop_
_space_group_symop_operation_xyz
x,y,z
-y,x,z
-x,-y,z
y,-x,z
-x,-y,-z
y,-x,-z
x,y,-z
-y,x,-z
1/2+x,1/2+y,1/2+z
1/2-y,1/2+x,1/2+z
1/2-x,1/2-y,1/2+z
1/2+y,1/2-x,1/2+z
1/2-x,1/2-y,1/2-z
1/2+y,1/2-x,1/2-z
1/2+x,1/2+y,1/2-z
1/2-y,1/2+x,1/2-z
loop_
_atom_site_type_symbol
_atom_site_label
_atom_site_fract_x
_atom_site_fract_y
_atom_site_fract_z
Si Si1 0.740180 0.419628 0.406495
Si Si2 0.890290 0.225249 0.051442
Si Si3 0.562559 0.640145 0.682248
Si Si4 0.565055 0.083142 0.051632
Si Si5 0.636398 0.434568 0.779385
Si Si6 0.569844 0.635521 0.876300
Si Si7 0.594611 0.782145 0.050654
O O1 0.692301 0.341926 0.436095
O O2 0.701902 0.519514 0.419979
O O3 0.715181 0.404748 0.354146
O O4 0.849014 0.411357 0.414735
O O5 0.861120 0.330549 0.060442
O O6 0.916749 0.210174 0.000000
O O7 0.454301 0.619222 0.676746
O O8 0.586406 0.686039 0.731509
O O9 0.507294 0.176747 0.056267
O O10 0.500000 0.000000 0.066757
O O11 0.598965 0.068253 0.000000
O O12 0.619633 0.542075 0.779538
O O13 0.684196 0.408979 0.827278
O O14 0.460996 0.621653 0.881298
O O15 0.609923 0.699366 0.915090
O O16 0.608494 0.743965 0.000000
#
# Coordination Sequence:
#
# PCOD8303923 Si02
#       7
#    16  16  16  16  16  16  16
#     4  12  21  34  54  80 109 140 176 222 266 315
#     4  11  23  36  51  76 110 145 179 218 267 319
#     4   9  16  29  49  79 111 137 168 208 265 321
#     4  10  20  37  55  69  95 144 194 215 239 303
#     4   7  12  26  50  74 102 137 168 205 258 328
#     4   9  18  33  54  81 106 132 170 223 284 319
#     4  10  22  37  53  74 102 140 185 224 254 310
#
# _framework density 17.826405999999999
#
# number of rings (size 3 to 8) (size 9 to 14) (size 15 to 20)
#    0.000    2.286    2.857    3.000    2.000    0.857 
#    0.000    1.429    0.000    2.571    0.000    0.000 
#    0.000    0.000    0.000    0.000    0.000    0.000 
#
# Total GULP energy -693958.051381 kJ/mol
# GULP energy per Si atom -12392.108060 kJ/mol
# Density = 1.778583 g / cm^3
# Si number density = 17.826406 Si / 1000 Ang^3
#
#
#
# Elastic Constant Matrix: (Units=GPa)
#
#
# Indices 1 2 3 4 5 6 
#
# 1 59.9683 2.0179 28.9114 0.0000 0.0000 -5.0526
# 2 2.0179 59.9683 28.9114 0.0000 0.0000 5.0526
# 3 28.9114 28.9114 120.9938 0.0000 0.0000 0.0000
# 4 0.0000 0.0000 0.0000 20.7138 0.0000 0.0000
# 5 0.0000 0.0000 0.0000 0.0000 20.7138 0.0000
# 6 -5.0526 5.0526 0.0000 0.0000 0.0000 17.9385
#
#
#
# Elastic Compliance Matrix: (Units=1/GPa)
#
#
# Indices 1 2 3 4 5 6 
#
# 1 0.019454 0.001306 -0.004961 0.000000 0.000000 0.005111
# 2 0.001306 0.019454 -0.004961 0.000000 0.000000 -0.005111
# 3 -0.004961 -0.004961 0.010636 0.000000 0.000000 0.000000
# 4 0.000000 0.000000 0.000000 0.048277 0.000000 0.000000
# 5 0.000000 0.000000 0.000000 0.000000 0.048277 0.000000
# 6 0.005111 -0.005111 0.000000 0.000000 0.000000 0.058625
#
#
# Mechanical properties :
#
#
# Convention : Reuss Voigt Hill
#
# Bulk Modulus (GPa) = 30.94707 40.06796 35.50752
# Shear Modulus (GPa) = 21.48477 23.94589 22.71533
#
# Velocity S-wave (km/s) = 3.47540 3.66906 3.57354
# Velocity P-wave (km/s) = 5.78813 6.36198 6.08183
#
# Compressibility (1/GPa) = 0.03231324
#
# Stress axis : x y z
#
# Youngs Moduli (GPa) = 51.40404 51.40404 94.02433
#
# Poissons Ratio (x) = -0.06715 0.46642
# Poissons Ratio (y) = -0.06715 0.46642
# Poissons Ratio (z) = 0.25499 0.25499
#
# Static dielectric constant tensor:
#      x y z
#    x 3.045360 0.000000 0.000000 
#    y 0.000000 3.045360 0.000000 
#    z 0.000000 0.000000 3.639220 
# 
# 
# High freq. dielectric constant tensor:
#      x y z
#    x 1.666760 0.000000 0.000000 
#    y 0.000000 1.666760 0.000000 
#    z 0.000000 0.000000 1.697610 
# 
# From -- ./inp_files/6281.got.cif
#   From: 2010.03.12/outbox.cif.g09.slc.cpg/sg87_4_cif.got.tgz:6281.got - 2010.04.08 20:16:13.
