data_PCOD8303412
_publ_section_title
;
Structure prediction by ZEFSAII (Michael W. Deem and Ramdas Pophale) SiO2 
 PCOD8303412
Probable space group: P 4/N
;
_chemical_formula_sum "Si O2"
_cell_formula_units_Z 48
_cell_length_a 17.172480
_cell_length_b 17.172480
_cell_length_c 8.720360
_cell_angle_alpha 90.000000
_cell_angle_beta 90.000000
_cell_angle_gamma 90.000000
_cell_volume 2571.582447
_symmetry_space_group_name_H-M "P 4/N"
_symmetry_group_IT_number 85
_symmetry_cell_setting 'tetragonal'
loop_
_space_group_symop_operation_xyz
x,y,z
1/2-y,x,z
1/2-x,1/2-y,z
y,1/2-x,z
-x,-y,-z
1/2+y,-x,-z
1/2+x,1/2+y,-z
-y,1/2+x,-z
loop_
_atom_site_type_symbol
_atom_site_label
_atom_site_fract_x
_atom_site_fract_y
_atom_site_fract_z
Si Si1 0.556114 0.034131 0.805825
Si Si2 0.663858 0.045401 0.528041
Si Si3 0.049882 0.661194 0.615544
Si Si4 0.802899 0.866450 0.145137
Si Si5 0.924714 0.593520 0.400863
Si Si6 0.010334 0.375446 0.067276
O O1 0.629281 0.053442 0.699122
O O2 0.475694 0.039249 0.710795
O O3 0.561240 0.947856 0.872761
O O4 0.554355 0.096484 0.944367
O O5 0.755449 0.059475 0.535779
O O6 0.627504 0.111745 0.418645
O O7 0.646988 0.959368 0.459176
O O8 0.974724 0.617444 0.547829
O O9 0.035493 0.669126 0.797534
O O10 0.711946 0.852284 0.128991
O O11 0.828299 0.898717 0.312012
O O12 0.818621 0.927483 0.010320
#
# Coordination Sequence:
#
# PCOD8303412 Si02
#       6
#     8   8   8   8   8   8
#     4   9  18  35  56  77 111 136 190 241 271 335
#     4  11  21  37  58  85 116 147 196 243 288 348
#     4  11  22  36  60  87 111 150 194 245 292 339
#     4  10  22  35  50  81 123 154 180 226 294 351
#     4  10  18  38  58  81 106 150 195 233 277 339
#     4  10  19  34  56  82 107 149 188 234 285 329
#
# _framework density 18.665548999999999
#
# number of rings (size 3 to 8) (size 9 to 14) (size 15 to 20)
#    0.000    1.833    3.333    2.000    2.333    0.333 
#    0.000    1.667    0.000    2.000    0.000    0.000 
#    0.000    0.000    0.000    0.000    0.000    0.000 
#
# Total GULP energy -595226.619334 kJ/mol
# GULP energy per Si atom -12400.554569 kJ/mol
# Density = 1.862307 g / cm^3
# Si number density = 18.665549 Si / 1000 Ang^3
#
#
#
# Elastic Constant Matrix: (Units=GPa)
#
#
# Indices 1 2 3 4 5 6 
#
# 1 68.0679 14.8087 22.6044 0.0000 0.0000 -3.2191
# 2 14.8087 68.0679 22.6044 0.0000 0.0000 3.2191
# 3 22.6044 22.6044 108.3116 0.0000 0.0000 0.0000
# 4 0.0000 0.0000 0.0000 21.6461 0.0000 0.0000
# 5 0.0000 0.0000 0.0000 0.0000 21.6461 0.0000
# 6 -3.2191 3.2191 0.0000 0.0000 0.0000 15.9431
#
#
#
# Elastic Compliance Matrix: (Units=1/GPa)
#
#
# Indices 1 2 3 4 5 6 
#
# 1 0.016431 -0.002815 -0.002842 0.000000 0.000000 0.003886
# 2 -0.002815 0.016431 -0.002842 0.000000 0.000000 -0.003886
# 3 -0.002842 -0.002842 0.010419 0.000000 0.000000 0.000000
# 4 0.000000 0.000000 0.000000 0.046198 0.000000 0.000000
# 5 0.000000 0.000000 0.000000 0.000000 0.046198 0.000000
# 6 0.003886 -0.003886 0.000000 0.000000 0.000000 0.064292
#
#
# Mechanical properties :
#
#
# Convention : Reuss Voigt Hill
#
# Bulk Modulus (GPa) = 38.04525 40.49807 39.27166
# Shear Modulus (GPa) = 22.15068 24.14236 23.14652
#
# Velocity S-wave (km/s) = 3.44861 3.60031 3.52528
# Velocity P-wave (km/s) = 6.02363 6.24714 6.13640
#
# Compressibility (1/GPa) = 0.02628449
#
# Stress axis : x y z
#
# Youngs Moduli (GPa) = 60.86034 60.86034 95.98095
#
# Poissons Ratio (x) = 0.17131 0.27275
# Poissons Ratio (y) = 0.17131 0.27275
# Poissons Ratio (z) = 0.17295 0.17295
#
# Static dielectric constant tensor:
#      x y z
#    x 3.248920 0.000000 0.000000 
#    y 0.000000 3.248920 0.000000 
#    z 0.000000 0.000000 3.647890 
# 
# 
# High freq. dielectric constant tensor:
#      x y z
#    x 1.709220 0.000000 0.000000 
#    y 0.000000 1.709220 0.000000 
#    z 0.000000 0.000000 1.737100 
# 
# From -- ./inp_files/1098.got.cif
#   From: 2010.03.12/outbox.cif.g09.slc.cpg/sg85_cif.got.tgz:1098.got - 2010.04.08 20:10:46.
