data_PCOD8303822
_publ_section_title
;
Structure prediction by ZEFSAII (Michael W. Deem and Ramdas Pophale) SiO2 
 PCOD8303822
Probable space group: I 4/M
;
_chemical_formula_sum "Si O2"
_cell_formula_units_Z 96
_cell_length_a 22.876102
_cell_length_b 22.876102
_cell_length_c 8.652139
_cell_angle_alpha 90.000000
_cell_angle_beta 90.000000
_cell_angle_gamma 90.000000
_cell_volume 4527.803142
_symmetry_space_group_name_H-M "I 4/M"
_symmetry_group_IT_number 87
_symmetry_cell_setting 'tetragonal'
loop_
_space_group_symop_operation_xyz
x,y,z
-y,x,z
-x,-y,z
y,-x,z
-x,-y,-z
y,-x,-z
x,y,-z
-y,x,-z
1/2+x,1/2+y,1/2+z
1/2-y,1/2+x,1/2+z
1/2-x,1/2-y,1/2+z
1/2+y,1/2-x,1/2+z
1/2-x,1/2-y,1/2-z
1/2+y,1/2-x,1/2-z
1/2+x,1/2+y,1/2-z
1/2-y,1/2+x,1/2-z
loop_
_atom_site_type_symbol
_atom_site_label
_atom_site_fract_x
_atom_site_fract_y
_atom_site_fract_z
Si Si1 0.000058 0.588749 0.817083
Si Si2 0.171558 0.772968 0.824959
Si Si3 0.375740 0.408935 0.323713
Si Si4 0.976306 0.837227 0.680828
Si Si5 0.710836 0.163172 0.178289
Si Si6 0.704790 0.040690 0.681031
O O1 0.941117 0.556640 0.759925
O O2 0.998568 0.656887 0.769449
O O3 0.005401 0.582698 0.000000
O O4 0.111998 0.808807 0.807835
O O5 0.224434 0.815653 0.775105
O O6 0.166725 0.716562 0.714996
O O7 0.182304 0.751572 0.000000
O O8 0.397946 0.404784 0.500000
O O9 0.415070 0.367657 0.217592
O O10 0.376125 0.475378 0.267356
O O11 0.988516 0.839614 0.500000
O O12 0.976232 0.769963 0.738737
O O13 0.693233 0.108439 0.281985
O O14 0.705981 0.144872 0.000000
O O15 0.697495 0.030199 0.500000
#
# Coordination Sequence:
#
# PCOD8303822 Si02
#       6
#    16  16  16  16  16  16
#     4  11  23  42  67  94 129 170 213 259 306 363
#     4   9  19  35  56  85 120 158 198 244 302 368
#     4  11  23  42  66  90 122 160 205 254 308 371
#     4  11  25  43  65  92 123 159 203 256 312 369
#     4  10  19  33  57  88 122 159 201 248 302 365
#     4  11  23  40  63  92 128 167 209 258 310 366
#
# _framework density 21.202335999999999
#
# number of rings (size 3 to 8) (size 9 to 14) (size 15 to 20)
#    0.000    1.500    1.667    4.000    0.000    5.667 
#    0.000    5.000    0.000    0.000    0.000    0.000 
#    0.000    0.000    0.000    0.000    0.000    0.000 
#
# Total GULP energy -595407.058180 kJ/mol
# GULP energy per Si atom -12404.313712 kJ/mol
# Density = 2.115408 g / cm^3
# Si number density = 21.202336 Si / 1000 Ang^3
#
#
#
# Elastic Constant Matrix: (Units=GPa)
#
#
# Indices 1 2 3 4 5 6 
#
# 1 82.6141 22.5989 21.1277 0.0000 0.0000 8.2302
# 2 22.5989 82.6141 21.1277 0.0000 0.0000 -8.2302
# 3 21.1277 21.1277 69.0832 0.0000 0.0000 0.0000
# 4 0.0000 0.0000 0.0000 33.7593 0.0000 0.0000
# 5 0.0000 0.0000 0.0000 0.0000 33.7593 0.0000
# 6 8.2302 -8.2302 0.0000 0.0000 0.0000 20.4718
#
#
#
# Elastic Compliance Matrix: (Units=1/GPa)
#
#
# Indices 1 2 3 4 5 6 
#
# 1 0.014781 -0.003946 -0.003314 0.000000 0.000000 -0.007529
# 2 -0.003946 0.014781 -0.003314 0.000000 0.000000 0.007529
# 3 -0.003314 -0.003314 0.016502 0.000000 0.000000 0.000000
# 4 0.000000 0.000000 0.000000 0.029621 0.000000 0.000000
# 5 0.000000 0.000000 0.000000 0.000000 0.029621 0.000000
# 6 -0.007529 0.007529 0.000000 0.000000 0.000000 0.054901
#
#
# Mechanical properties :
#
#
# Convention : Reuss Voigt Hill
#
# Bulk Modulus (GPa) = 40.13188 40.44670 40.28929
# Shear Modulus (GPa) = 26.36263 28.89522 27.62892
#
# Velocity S-wave (km/s) = 3.52999 3.69566 3.61377
# Velocity P-wave (km/s) = 5.96520 6.10970 6.03788
#
# Compressibility (1/GPa) = 0.02491785
#
# Stress axis : x y z
#
# Youngs Moduli (GPa) = 67.65259 67.65259 60.59790
#
# Poissons Ratio (x) = 0.26696 0.20081
# Poissons Ratio (y) = 0.26696 0.20081
# Poissons Ratio (z) = 0.22419 0.22419
#
# Static dielectric constant tensor:
#      x y z
#    x 3.746270 0.000000 0.000000 
#    y 0.000000 3.746270 0.000000 
#    z 0.000000 0.000000 3.768090 
# 
# 
# High freq. dielectric constant tensor:
#      x y z
#    x 1.826140 0.000000 0.000000 
#    y 0.000000 1.826140 0.000000 
#    z 0.000000 0.000000 1.835270 
# 
# From -- ./inp_files/1371.got.cif
#   From: 2010.03.12/outbox.cif.g09.slc.cpg/sg87_1_cif.got.tgz:1371.got - 2010.04.08 20:16:13.
