data_PCOD8303680
_publ_section_title
;
Structure prediction by ZEFSAII (Michael W. Deem and Ramdas Pophale) SiO2 
 PCOD8303680
Probable space group: P 42/N
;
_chemical_formula_sum "Si O2"
_cell_formula_units_Z 48
_cell_length_a 19.437151
_cell_length_b 19.437151
_cell_length_c 6.494806
_cell_angle_alpha 90.000000
_cell_angle_beta 90.000000
_cell_angle_gamma 90.000000
_cell_volume 2453.756146
_symmetry_space_group_name_H-M "P 42/N"
_symmetry_group_IT_number 86
_space_group.IT_coordinate_system_code '2'
_symmetry_cell_setting 'tetragonal'
loop_
_space_group_symop_operation_xyz
x,y,z
-y,1/2+x,1/2+z
1/2-x,1/2-y,z
1/2+y,-x,1/2+z
-x,-y,-z
y,1/2-x,1/2-z
1/2+x,1/2+y,-z
1/2-y,x,1/2-z
loop_
_atom_site_type_symbol
_atom_site_label
_atom_site_fract_x
_atom_site_fract_y
_atom_site_fract_z
Si Si1 0.058257 0.059894 0.525447
Si Si2 0.841629 0.383699 0.726236
Si Si3 0.670185 0.505766 0.748057
Si Si4 0.208736 0.507742 0.985761
Si Si5 0.580360 0.237360 0.898467
Si Si6 0.571641 0.480651 0.097268
O O1 0.030120 0.136608 0.535900
O O2 0.116528 0.061254 0.346021
O O3 0.093754 0.041323 0.744530
O O4 0.000000 0.000000 0.500000
O O5 0.796700 0.417015 0.908545
O O6 0.861198 0.305563 0.779702
O O7 0.801892 0.383738 0.508561
O O8 0.908008 0.434193 0.714513
O O9 0.738899 0.535668 0.862921
O O10 0.687416 0.453292 0.566652
O O11 0.629802 0.466297 0.928305
O O12 0.238474 0.520419 0.757736
O O13 0.500000 0.500000 0.000000
#
# Coordination Sequence:
#
# PCOD8303680 Si02
#       6
#     8   8   8   8   8   8
#     4  12  21  37  65 100 126 162 224 271 332 397
#     4  11  23  38  59  85 122 174 217 267 315 383
#     4  11  22  40  61  95 134 161 206 275 338 390
#     4  11  23  40  64  92 130 172 210 273 342 389
#     4  11  24  40  61  84 129 176 221 266 322 384
#     4  12  21  36  65  94 124 161 211 281 327 384
#
# _framework density 19.561845000000002
#
# number of rings (size 3 to 8) (size 9 to 14) (size 15 to 20)
#    0.000    0.667    6.667    1.000    2.333    1.333 
#    0.000    2.500    0.000    0.500    0.000    0.000 
#    0.000    0.000    0.000    0.000    0.000    0.000 
#
# Total GULP energy -594888.147412 kJ/mol
# GULP energy per Si atom -12393.503071 kJ/mol
# Density = 1.951732 g / cm^3
# Si number density = 19.561845 Si / 1000 Ang^3
#
#
#
# Elastic Constant Matrix: (Units=GPa)
#
#
# Indices 1 2 3 4 5 6 
#
# 1 109.0040 42.0235 52.4314 0.0000 0.0000 2.1628
# 2 42.0235 109.0040 52.4314 0.0000 0.0000 -2.1628
# 3 52.4314 52.4314 130.0713 0.0000 0.0000 0.0000
# 4 0.0000 0.0000 0.0000 40.1464 0.0000 0.0000
# 5 0.0000 0.0000 0.0000 0.0000 40.1464 0.0000
# 6 2.1628 -2.1628 0.0000 0.0000 0.0000 28.8060
#
#
#
# Elastic Compliance Matrix: (Units=1/GPa)
#
#
# Indices 1 2 3 4 5 6 
#
# 1 0.012099 -0.002904 -0.003706 0.000000 0.000000 -0.001126
# 2 -0.002904 0.012099 -0.003706 0.000000 0.000000 0.001126
# 3 -0.003706 -0.003706 0.010676 0.000000 0.000000 0.000000
# 4 0.000000 0.000000 0.000000 0.024909 0.000000 0.000000
# 5 0.000000 0.000000 0.000000 0.000000 0.024909 0.000000
# 6 -0.001126 0.001126 0.000000 0.000000 0.000000 0.034884
#
#
# Mechanical properties :
#
#
# Convention : Reuss Voigt Hill
#
# Bulk Modulus (GPa) = 70.22400 71.31689 70.77045
# Shear Modulus (GPa) = 34.49340 35.23260 34.86300
#
# Velocity S-wave (km/s) = 4.20372 4.24853 4.22618
# Velocity P-wave (km/s) = 7.71609 7.78479 7.75052
#
# Compressibility (1/GPa) = 0.01424014
#
# Stress axis : x y z
#
# Youngs Moduli (GPa) = 82.65407 82.65407 93.66658
#
# Poissons Ratio (x) = 0.24001 0.34717
# Poissons Ratio (y) = 0.24001 0.34717
# Poissons Ratio (z) = 0.30635 0.30635
#
# Static dielectric constant tensor:
#      x y z
#    x 3.520290 0.000000 0.000000 
#    y 0.000000 3.520290 0.000000 
#    z 0.000000 0.000000 4.157660 
# 
# 
# High freq. dielectric constant tensor:
#      x y z
#    x 1.739230 0.000000 0.000000 
#    y 0.000000 1.739230 0.000000 
#    z 0.000000 0.000000 1.796250 
# 
# From -- ./inp_files/423.got.cif
#   From: 2010.03.12/outbox.cif.g09.slc.cpg/sg86_1_cif.got.tgz:423.got - 2010.04.08 20:12:58.
