data_PCOD8303161
_publ_section_title
;
Structure prediction by ZEFSAII (Michael W. Deem and Ramdas Pophale) SiO2 
 PCOD8303161
Probable space group: P 42/M
;
_chemical_formula_sum "Si O2"
_cell_formula_units_Z 44
_cell_length_a 8.691477
_cell_length_b 8.691477
_cell_length_c 31.094615
_cell_angle_alpha 90.000000
_cell_angle_beta 90.000000
_cell_angle_gamma 90.000000
_cell_volume 2348.942330
_symmetry_space_group_name_H-M "P 42/M"
_symmetry_group_IT_number 84
_symmetry_cell_setting 'tetragonal'
loop_
_space_group_symop_operation_xyz
x,y,z
-y,x,1/2+z
-x,-y,z
y,-x,1/2+z
-x,-y,-z
y,-x,1/2-z
x,y,-z
-y,x,1/2-z
loop_
_atom_site_type_symbol
_atom_site_label
_atom_site_fract_x
_atom_site_fract_y
_atom_site_fract_z
Si Si1 0.468164 0.745074 0.757276
Si Si2 0.356084 0.407839 0.911780
Si Si3 0.537902 0.169231 0.854330
Si Si4 0.316092 0.157338 0.622617
Si Si5 0.326633 0.942819 0.453101
Si Si6 0.500000 0.000000 0.692091
O O1 0.624036 0.668837 0.740070
O O2 0.492954 0.818075 0.803850
O O3 0.424454 0.871495 0.722298
O O4 0.500000 0.500000 0.934372
O O5 0.428283 0.291344 0.877610
O O6 0.244903 0.525393 0.887474
O O7 0.242605 0.318586 0.944645
O O8 0.717407 0.188513 0.865884
O O9 0.500000 0.000000 0.871063
O O10 0.354822 0.052274 0.663481
O O11 0.249499 0.048485 0.584069
O O12 0.248231 0.971120 0.500000
O O13 0.500000 0.000000 0.455304
#
# Coordination Sequence:
#
# PCOD8303161 Si02
#       6
#     8   8   8   8   8   4
#     4  11  23  33  54  80 108 144 184 228 268 331
#     4   9  18  32  56  80 109 143 181 226 281 337
#     4  11  22  37  52  80 112 147 188 227 282 328
#     4  10  19  35  58  81 108 148 180 228 282 335
#     4   9  17  32  57  88 111 136 182 238 286 332
#     4  12  18  34  55  80 110 142 187 226 268 326
#
# _framework density 18.731835
#
# number of rings (size 3 to 8) (size 9 to 14) (size 15 to 20)
#    0.000    1.818    5.455    1.091    5.091    0.364 
#    0.000    3.636    0.000    6.000    0.000    0.000 
#    0.000    0.000    0.000    0.000    0.000    0.000 
#
# Total GULP energy -545352.345791 kJ/mol
# GULP energy per Si atom -12394.371495 kJ/mol
# Density = 1.868920 g / cm^3
# Si number density = 18.731835 Si / 1000 Ang^3
#
#
#
# Elastic Constant Matrix: (Units=GPa)
#
#
# Indices 1 2 3 4 5 6 
#
# 1 92.3909 38.7079 41.7600 0.0000 0.0000 -0.9089
# 2 38.7079 92.3909 41.7600 0.0000 0.0000 0.9089
# 3 41.7600 41.7600 119.5105 0.0000 0.0000 0.0000
# 4 0.0000 0.0000 0.0000 10.4303 0.0000 0.0000
# 5 0.0000 0.0000 0.0000 0.0000 10.4303 0.0000
# 6 -0.9089 0.9089 0.0000 0.0000 0.0000 21.0152
#
#
#
# Elastic Compliance Matrix: (Units=1/GPa)
#
#
# Indices 1 2 3 4 5 6 
#
# 1 0.014234 -0.004422 -0.003429 0.000000 0.000000 0.000807
# 2 -0.004422 0.014234 -0.003429 0.000000 0.000000 -0.000807
# 3 -0.003429 -0.003429 0.010764 0.000000 0.000000 0.000000
# 4 0.000000 0.000000 0.000000 0.095875 0.000000 0.000000
# 5 0.000000 0.000000 0.000000 0.000000 0.095875 0.000000
# 6 0.000807 -0.000807 0.000000 0.000000 0.000000 0.047654
#
#
# Mechanical properties :
#
#
# Convention : Reuss Voigt Hill
#
# Bulk Modulus (GPa) = 59.97586 60.97200 60.47393
# Shear Modulus (GPa) = 16.29994 20.51278 18.40636
#
# Velocity S-wave (km/s) = 2.95307 3.31278 3.13809
# Velocity P-wave (km/s) = 6.61174 6.87410 6.74420
#
# Compressibility (1/GPa) = 0.01667337
#
# Stress axis : x y z
#
# Youngs Moduli (GPa) = 70.25602 70.25602 92.90618
#
# Poissons Ratio (x) = 0.31064 0.31854
# Poissons Ratio (y) = 0.31064 0.31854
# Poissons Ratio (z) = 0.24088 0.24088
#
# Static dielectric constant tensor:
#      x y z
#    x 3.418540 0.000000 0.000000 
#    y 0.000000 3.418540 0.000000 
#    z 0.000000 0.000000 3.731970 
# 
# 
# High freq. dielectric constant tensor:
#      x y z
#    x 1.711160 0.000000 0.000000 
#    y 0.000000 1.711160 0.000000 
#    z 0.000000 0.000000 1.728830 
# 
# From -- ./inp_files/5675.got.cif
#   From: 2010.03.12/outbox.cif.g09.slc.cpg/sg84_3_cif.got.tgz:5675.got - 2010.04.08 20:07:29.
