data_PCOD8303685
_publ_section_title
;
Structure prediction by ZEFSAII (Michael W. Deem and Ramdas Pophale) SiO2 
 PCOD8303685
Probable space group: P 42/N
;
_chemical_formula_sum "Si O2"
_cell_formula_units_Z 40
_cell_length_a 16.030862
_cell_length_b 16.030862
_cell_length_c 7.374574
_cell_angle_alpha 90.000000
_cell_angle_beta 90.000000
_cell_angle_gamma 90.000000
_cell_volume 1895.180979
_symmetry_space_group_name_H-M "P 42/N"
_symmetry_group_IT_number 86
_space_group.IT_coordinate_system_code '2'
_symmetry_cell_setting 'tetragonal'
loop_
_space_group_symop_operation_xyz
x,y,z
-y,1/2+x,1/2+z
1/2-x,1/2-y,z
1/2+y,-x,1/2+z
-x,-y,-z
y,1/2-x,1/2-z
1/2+x,1/2+y,-z
1/2-y,x,1/2-z
loop_
_atom_site_type_symbol
_atom_site_label
_atom_site_fract_x
_atom_site_fract_y
_atom_site_fract_z
Si Si1 0.245033 0.015509 0.754279
Si Si2 0.429094 0.802931 0.917084
Si Si3 0.057460 0.038407 0.253658
Si Si4 0.089525 0.421595 0.642514
Si Si5 0.319579 0.937596 0.089110
O O1 0.314805 0.082770 0.704044
O O2 0.152410 0.049611 0.744830
O O3 0.251179 0.946441 0.596941
O O4 0.255959 0.984133 0.958221
O O5 0.508910 0.860970 0.864238
O O6 0.408260 0.734366 0.762557
O O7 0.350064 0.859095 0.970402
O O8 0.992612 0.045782 0.795893
O O9 0.997957 0.102259 0.362930
O O10 0.089271 0.084481 0.073333
#
# Coordination Sequence:
#
# PCOD8303685 Si02
#       5
#     8   8   8   8   8
#     4  12  24  43  71 104 136 176 234 286 345 413
#     4  12  25  44  72 102 139 184 233 285 342 409
#     4  11  22  45  73  99 132 190 236 271 342 415
#     4  11  23  41  76  99 135 180 229 283 347 419
#     4  12  25  44  72 102 139 184 233 285 342 409
#
# _framework density 21.106166000000002
#
# number of rings (size 3 to 8) (size 9 to 14) (size 15 to 20)
#    0.000    0.400    8.000    1.800    0.000    2.000 
#    0.000    3.000    0.000    0.600    0.000    0.000 
#    0.000    0.000    0.000    0.000    0.000    0.000 
#
# Total GULP energy -495910.344845 kJ/mol
# GULP energy per Si atom -12397.758621 kJ/mol
# Density = 2.105813 g / cm^3
# Si number density = 21.106166 Si / 1000 Ang^3
#
#
#
# Elastic Constant Matrix: (Units=GPa)
#
#
# Indices 1 2 3 4 5 6 
#
# 1 71.6885 12.3895 24.2957 0.0000 0.0000 1.1682
# 2 12.3895 71.6885 24.2957 0.0000 0.0000 -1.1682
# 3 24.2957 24.2957 117.9295 0.0000 0.0000 0.0000
# 4 0.0000 0.0000 0.0000 40.3093 0.0000 0.0000
# 5 0.0000 0.0000 0.0000 0.0000 40.3093 0.0000
# 6 1.1682 -1.1682 0.0000 0.0000 0.0000 21.6791
#
#
#
# Elastic Compliance Matrix: (Units=1/GPa)
#
#
# Indices 1 2 3 4 5 6 
#
# 1 0.015200 -0.001699 -0.002782 0.000000 0.000000 -0.000911
# 2 -0.001699 0.015200 -0.002782 0.000000 0.000000 0.000911
# 3 -0.002782 -0.002782 0.009626 0.000000 0.000000 0.000000
# 4 0.000000 0.000000 0.000000 0.024808 0.000000 0.000000
# 5 0.000000 0.000000 0.000000 0.000000 0.024808 0.000000
# 6 -0.000911 0.000911 0.000000 0.000000 0.000000 0.046226
#
#
# Mechanical properties :
#
#
# Convention : Reuss Voigt Hill
#
# Bulk Modulus (GPa) = 39.21233 42.58537 40.89885
# Shear Modulus (GPa) = 31.46760 33.81458 32.64109
#
# Velocity S-wave (km/s) = 3.86543 4.00699 3.93685
# Velocity P-wave (km/s) = 6.20814 6.45202 6.33125
#
# Compressibility (1/GPa) = 0.02550218
#
# Stress axis : x y z
#
# Youngs Moduli (GPa) = 65.78766 65.78766 103.88820
#
# Poissons Ratio (x) = 0.11178 0.28897
# Poissons Ratio (y) = 0.11178 0.28897
# Poissons Ratio (z) = 0.18299 0.18299
#
# Static dielectric constant tensor:
#      x y z
#    x 3.718150 0.000000 0.000000 
#    y 0.000000 3.718150 0.000000 
#    z 0.000000 0.000000 4.100880 
# 
# 
# High freq. dielectric constant tensor:
#      x y z
#    x 1.813960 0.000000 0.000000 
#    y 0.000000 1.813960 0.000000 
#    z 0.000000 0.000000 1.858930 
# 
# From -- ./inp_files/285.got.cif
#   From: 2010.03.12/outbox.cif.g09.slc.cpg/sg86_1_cif.got.tgz:285.got - 2010.04.08 20:12:58.
