data_PCOD8303349
_publ_section_title
;
Structure prediction by ZEFSAII (Michael W. Deem and Ramdas Pophale) SiO2 
 PCOD8303349
Probable space group: P 42/M
;
_chemical_formula_sum "Si O2"
_cell_formula_units_Z 34
_cell_length_a 9.740183
_cell_length_b 9.740183
_cell_length_c 18.806395
_cell_angle_alpha 90.000000
_cell_angle_beta 90.000000
_cell_angle_gamma 90.000000
_cell_volume 1784.184601
_symmetry_space_group_name_H-M "P 42/M"
_symmetry_group_IT_number 84
_symmetry_cell_setting 'tetragonal'
loop_
_space_group_symop_operation_xyz
x,y,z
-y,x,1/2+z
-x,-y,z
y,-x,1/2+z
-x,-y,-z
y,-x,1/2-z
x,y,-z
-y,x,1/2-z
loop_
_atom_site_type_symbol
_atom_site_label
_atom_site_fract_x
_atom_site_fract_y
_atom_site_fract_z
Si Si1 0.904499 0.827162 0.000000
Si Si2 0.694620 0.600438 0.251344
Si Si3 0.197743 0.866015 0.000000
Si Si4 0.000000 0.000000 0.750000
Si Si5 0.173796 0.820660 0.344043
Si Si6 0.366796 0.921942 0.868665
O O1 0.839918 0.776793 0.925613
O O2 0.062132 0.771252 0.000000
O O3 0.875934 0.988016 0.000000
O O4 0.666643 0.447899 0.220594
O O5 0.751784 0.692583 0.188272
O O6 0.806419 0.590179 0.313115
O O7 0.290982 0.841307 0.068462
O O8 0.870792 0.040704 0.698548
O O9 0.037248 0.729554 0.334410
O O10 0.500000 0.000000 0.899205
#
# Coordination Sequence:
#
# PCOD8303349 Si02
#       6
#     4   8   4   2   8   8
#     4   9  20  36  55  87 124 155 189 247 311 351
#     4  11  24  41  59  87 125 162 202 253 303 357
#     4   9  19  34  57  87 122 145 190 253 303 357
#     4  12  20  30  64  96 116 154 200 260 304 346
#     4  11  21  36  60  89 121 157 200 248 304 358
#     4  11  20  36  59  87 112 154 201 247 299 360
#
# _framework density 19.056322999999999
#
# number of rings (size 3 to 8) (size 9 to 14) (size 15 to 20)
#    0.000    1.412    4.706    3.176    0.000    0.000 
#    0.000    1.176    0.000    4.235    0.000    0.000 
#    0.000    0.000    0.000    0.000    0.000    0.000 
#
# Total GULP energy -421311.896893 kJ/mol
# GULP energy per Si atom -12391.526379 kJ/mol
# Density = 1.901295 g / cm^3
# Si number density = 19.056323 Si / 1000 Ang^3
#
#
#
# Elastic Constant Matrix: (Units=GPa)
#
#
# Indices 1 2 3 4 5 6 
#
# 1 90.8838 33.6103 42.8532 0.0000 0.0000 -1.6297
# 2 33.6103 90.8838 42.8532 0.0000 0.0000 1.6297
# 3 42.8532 42.8532 106.1942 0.0000 0.0000 0.0000
# 4 0.0000 0.0000 0.0000 -0.7194 0.0000 0.0000
# 5 0.0000 0.0000 0.0000 0.0000 -0.7194 0.0000
# 6 -1.6297 1.6297 0.0000 0.0000 0.0000 26.0179
#
#
#
# Elastic Compliance Matrix: (Units=1/GPa)
#
#
# Indices 1 2 3 4 5 6 
#
# 1 0.014322 -0.003200 -0.004488 0.000000 0.000000 0.001098
# 2 -0.003200 0.014322 -0.004488 0.000000 0.000000 -0.001098
# 3 -0.004488 -0.004488 0.013039 0.000000 0.000000 0.000000
# 4 0.000000 0.000000 0.000000 -1.390042 0.000000 0.000000
# 5 0.000000 0.000000 0.000000 0.000000 -1.390042 0.000000
# 6 0.001098 -0.001098 0.000000 0.000000 0.000000 0.038573
#
#
# Mechanical properties :
#
#
# Convention : Reuss Voigt Hill
#
# Bulk Modulus (GPa) = 57.70093 58.51056 58.10574
# Shear Modulus (GPa) = -1.87287 16.15883 7.14298
#
# Velocity S-wave (km/s) = -0.99244 2.91512 1.93817
# Velocity P-wave (km/s) = 5.38810 6.48855 5.96376
#
# Compressibility (1/GPa) = 0.01733074
#
# Stress axis : x y z
#
# Youngs Moduli (GPa) = 69.82025 69.82025 76.69251
#
# Poissons Ratio (x) = 0.22343 0.34422
# Poissons Ratio (y) = 0.22343 0.34422
# Poissons Ratio (z) = 0.31337 0.31337
#
# Static dielectric constant tensor:
#      x y z
#    x 3.519000 0.000000 0.000000 
#    y 0.000000 3.519000 0.000000 
#    z 0.000000 0.000000 3.537670 
# 
# 
# High freq. dielectric constant tensor:
#      x y z
#    x 1.731030 0.000000 0.000000 
#    y 0.000000 1.731030 0.000000 
#    z 0.000000 0.000000 1.739000 
# 
# From -- ./inp_files/4296.got.cif
#   From: 2010.03.12/outbox.cif.g09.slc.cpg/sg84_3_cif.got.tgz:4296.got - 2010.04.08 20:07:29.
