data_PCOD8303435
_publ_section_title
;
Structure prediction by ZEFSAII (Michael W. Deem and Ramdas Pophale) SiO2 
 PCOD8303435
Probable space group: P 4/N
;
_chemical_formula_sum "Si O2"
_cell_formula_units_Z 26
_cell_length_a 14.424533
_cell_length_b 14.424533
_cell_length_c 5.185256
_cell_angle_alpha 90.000000
_cell_angle_beta 90.000000
_cell_angle_gamma 90.000000
_cell_volume 1078.881450
_symmetry_space_group_name_H-M "P 4/N"
_symmetry_group_IT_number 85
_symmetry_cell_setting 'tetragonal'
loop_
_space_group_symop_operation_xyz
x,y,z
1/2-y,x,z
1/2-x,1/2-y,z
y,1/2-x,z
-x,-y,-z
1/2+y,-x,-z
1/2+x,1/2+y,-z
-y,1/2+x,-z
loop_
_atom_site_type_symbol
_atom_site_label
_atom_site_fract_x
_atom_site_fract_y
_atom_site_fract_z
Si Si1 0.250000 0.750000 0.000000
Si Si2 0.681995 0.429538 0.699211
Si Si3 0.491715 0.348569 0.549039
Si Si4 0.419236 0.427986 0.036192
O O1 0.162443 0.726745 0.821003
O O2 0.580021 0.416840 0.578525
O O3 0.745082 0.465558 0.462964
O O4 0.674130 0.510980 0.917569
O O5 0.418347 0.361659 0.783458
O O6 0.438000 0.364831 0.284500
O O7 0.500000 0.500000 0.000000
#
# Coordination Sequence:
#
# PCOD8303435 Si02
#       4
#     2   8   8   8
#     4  12  24  38  64 102 132 166 200 274 348 378
#     4  11  22  39  61  94 134 165 215 270 325 397
#     4  11  23  38  62  91 124 170 209 260 323 378
#     4  10  22  38  59  87 124 170 210 253 315 386
#
# _framework density 24.099032000000001
#
# number of rings (size 3 to 8) (size 9 to 14) (size 15 to 20)
#    0.000    1.231    0.000    9.231    0.000    9.846 
#    0.000    0.000    0.000    0.923    0.000   17.231 
#    0.000    0.000    0.000    0.000    0.000    0.000 
#
# Total GULP energy -322226.705868 kJ/mol
# GULP energy per Si atom -12393.334841 kJ/mol
# Density = 2.404418 g / cm^3
# Si number density = 24.099032 Si / 1000 Ang^3
#
#
#
# Elastic Constant Matrix: (Units=GPa)
#
#
# Indices 1 2 3 4 5 6 
#
# 1 82.2250 53.5886 51.5154 0.0000 0.0000 0.6829
# 2 53.5886 82.2250 51.5154 0.0000 0.0000 -0.6829
# 3 51.5154 51.5154 179.2226 0.0000 0.0000 0.0000
# 4 0.0000 0.0000 0.0000 36.3046 0.0000 0.0000
# 5 0.0000 0.0000 0.0000 0.0000 36.3046 0.0000
# 6 0.6829 -0.6829 0.0000 0.0000 0.0000 31.9562
#
#
#
# Elastic Compliance Matrix: (Units=1/GPa)
#
#
# Indices 1 2 3 4 5 6 
#
# 1 0.022186 -0.012770 -0.002707 0.000000 0.000000 -0.000747
# 2 -0.012770 0.022186 -0.002707 0.000000 0.000000 0.000747
# 3 -0.002707 -0.002707 0.007136 0.000000 0.000000 0.000000
# 4 0.000000 0.000000 0.000000 0.027545 0.000000 0.000000
# 5 0.000000 0.000000 0.000000 0.000000 0.027545 0.000000
# 6 -0.000747 0.000747 0.000000 0.000000 0.000000 0.031325
#
#
# Mechanical properties :
#
#
# Convention : Reuss Voigt Hill
#
# Bulk Modulus (GPa) = 66.04225 72.99016 69.51621
# Shear Modulus (GPa) = 27.88063 33.38330 30.63197
#
# Velocity S-wave (km/s) = 3.40504 3.72594 3.56910
# Velocity P-wave (km/s) = 6.55157 6.99024 6.77446
#
# Compressibility (1/GPa) = 0.01514182
#
# Stress axis : x y z
#
# Youngs Moduli (GPa) = 45.07289 45.07289 140.14200
#
# Poissons Ratio (x) = 0.57558 0.37931
# Poissons Ratio (y) = 0.57558 0.37931
# Poissons Ratio (z) = 0.12199 0.12199
#
# Static dielectric constant tensor:
#      x y z
#    x 2.977440 0.000000 0.000000 
#    y 0.000000 2.977440 0.000000 
#    z 0.000000 0.000000 5.006810 
# 
# 
# High freq. dielectric constant tensor:
#      x y z
#    x 1.937570 0.000000 0.000000 
#    y 0.000000 1.937570 0.000000 
#    z 0.000000 0.000000 1.967570 
# 
# From -- ./inp_files/212.got.cif
#   From: 2010.03.12/outbox.cif.g09.slc.cpg/sg85_cif.got.tgz:212.got - 2010.04.08 20:10:46.
