data_PCOD8303663
_publ_section_title
;
Structure prediction by ZEFSAII (Michael W. Deem and Ramdas Pophale) SiO2 
 PCOD8303663
Probable space group: P 42/N
;
_chemical_formula_sum "Si O2"
_cell_formula_units_Z 48
_cell_length_a 11.130955
_cell_length_b 11.130955
_cell_length_c 20.586908
_cell_angle_alpha 90.000000
_cell_angle_beta 90.000000
_cell_angle_gamma 90.000000
_cell_volume 2550.680005
_symmetry_space_group_name_H-M "P 42/N"
_symmetry_group_IT_number 86
_space_group.IT_coordinate_system_code '2'
_symmetry_cell_setting 'tetragonal'
loop_
_space_group_symop_operation_xyz
x,y,z
-y,1/2+x,1/2+z
1/2-x,1/2-y,z
1/2+y,-x,1/2+z
-x,-y,-z
y,1/2-x,1/2-z
1/2+x,1/2+y,-z
1/2-y,x,1/2-z
loop_
_atom_site_type_symbol
_atom_site_label
_atom_site_fract_x
_atom_site_fract_y
_atom_site_fract_z
Si Si1 0.519320 0.857473 0.256614
Si Si2 0.107157 0.045266 0.215386
Si Si3 0.308860 0.872039 0.164311
Si Si4 0.007748 0.008988 0.423637
Si Si5 0.630515 0.692888 0.354328
Si Si6 0.113496 0.279339 0.152001
O O1 0.384090 0.842257 0.229521
O O2 0.539508 0.790197 0.324079
O O3 0.611438 0.810665 0.202233
O O4 0.545650 0.999204 0.268066
O O5 0.056016 0.148315 0.166295
O O6 0.143348 0.113659 0.281742
O O7 0.211690 0.972131 0.181253
O O8 0.250000 0.750000 0.138399
O O9 0.388134 0.922142 0.105195
O O10 0.145768 0.036832 0.401451
O O11 0.000000 0.000000 0.500000
O O12 0.956064 0.880802 0.401423
O O13 0.750000 0.750000 0.389021
O O14 0.250000 0.250000 0.129814
#
# Coordination Sequence:
#
# PCOD8303663 Si02
#       6
#     8   8   8   8   8   8
#     4  11  19  33  58  93 127 150 188 254 321 369
#     4  12  19  34  62 100 126 149 197 265 330 359
#     4  11  23  35  61  92 127 154 192 258 315 362
#     4  11  26  44  60  85 122 172 214 242 294 373
#     4  11  21  37  59  87 125 161 201 249 304 380
#     4  12  18  36  63  92 123 152 201 261 308 363
#
# _framework density 18.81851
#
# number of rings (size 3 to 8) (size 9 to 14) (size 15 to 20)
#    0.000    0.667   10.000    1.000    2.333    0.667 
#    0.000    1.667    0.000    2.000    0.000    0.000 
#    0.000    0.000    0.000    0.000    0.000    0.000 
#
# Total GULP energy -594954.970011 kJ/mol
# GULP energy per Si atom -12394.895209 kJ/mol
# Density = 1.877568 g / cm^3
# Si number density = 18.818510 Si / 1000 Ang^3
#
#
#
# Elastic Constant Matrix: (Units=GPa)
#
#
# Indices 1 2 3 4 5 6 
#
# 1 102.3283 48.3906 44.9751 0.0000 0.0000 1.1374
# 2 48.3906 102.3283 44.9751 0.0000 0.0000 -1.1374
# 3 44.9751 44.9751 105.4075 0.0000 0.0000 0.0000
# 4 0.0000 0.0000 0.0000 17.7362 0.0000 0.0000
# 5 0.0000 0.0000 0.0000 0.0000 17.7362 0.0000
# 6 1.1374 -1.1374 0.0000 0.0000 0.0000 43.5262
#
#
#
# Elastic Compliance Matrix: (Units=1/GPa)
#
#
# Indices 1 2 3 4 5 6 
#
# 1 0.013731 -0.004829 -0.003798 0.000000 0.000000 -0.000485
# 2 -0.004829 0.013731 -0.003798 0.000000 0.000000 0.000485
# 3 -0.003798 -0.003798 0.012728 0.000000 0.000000 0.000000
# 4 0.000000 0.000000 0.000000 0.056382 0.000000 0.000000
# 5 0.000000 0.000000 0.000000 0.000000 0.056382 0.000000
# 6 -0.000485 0.000485 0.000000 0.000000 0.000000 0.023000
#
#
# Mechanical properties :
#
#
# Convention : Reuss Voigt Hill
#
# Bulk Modulus (GPa) = 65.19383 65.19397 65.19390
# Shear Modulus (GPa) = 24.28152 27.24796 25.76474
#
# Velocity S-wave (km/s) = 3.59597 3.80930 3.70417
# Velocity P-wave (km/s) = 7.20833 7.35299 7.28102
#
# Compressibility (1/GPa) = 0.01533888
#
# Stress axis : x y z
#
# Youngs Moduli (GPa) = 72.82797 72.82797 78.56603
#
# Poissons Ratio (x) = 0.35171 0.29840
# Poissons Ratio (y) = 0.35171 0.29840
# Poissons Ratio (z) = 0.27661 0.27661
#
# Static dielectric constant tensor:
#      x y z
#    x 3.661000 0.000000 0.000000 
#    y 0.000000 3.661000 0.000000 
#    z 0.000000 0.000000 2.998850 
# 
# 
# High freq. dielectric constant tensor:
#      x y z
#    x 1.744080 0.000000 0.000000 
#    y 0.000000 1.744080 0.000000 
#    z 0.000000 0.000000 1.674600 
# 
# From -- ./inp_files/3562.got.cif
#   From: 2010.03.12/outbox.cif.g09.slc.cpg/sg86_2_cif.got.tgz:3562.got - 2010.04.08 20:12:58.
