data_PCOD8303416
_publ_section_title
;
Structure prediction by ZEFSAII (Michael W. Deem and Ramdas Pophale) SiO2 
 PCOD8303416
Probable space group: P 4/N
;
_chemical_formula_sum "Si O2"
_cell_formula_units_Z 64
_cell_length_a 16.964929
_cell_length_b 16.964929
_cell_length_c 11.955786
_cell_angle_alpha 90.000000
_cell_angle_beta 90.000000
_cell_angle_gamma 90.000000
_cell_volume 3440.980613
_symmetry_space_group_name_H-M "P 4/N"
_symmetry_group_IT_number 85
_symmetry_cell_setting 'tetragonal'
loop_
_space_group_symop_operation_xyz
x,y,z
1/2-y,x,z
1/2-x,1/2-y,z
y,1/2-x,z
-x,-y,-z
1/2+y,-x,-z
1/2+x,1/2+y,-z
-y,1/2+x,-z
loop_
_atom_site_type_symbol
_atom_site_label
_atom_site_fract_x
_atom_site_fract_y
_atom_site_fract_z
Si Si1 0.340824 0.672552 0.961031
Si Si2 0.131297 0.205283 0.682669
Si Si3 0.993167 0.890837 0.970108
Si Si4 0.336643 0.841700 0.486254
Si Si5 0.629975 0.709287 0.056035
Si Si6 0.536422 0.515821 0.183415
Si Si7 0.421102 0.820063 0.258002
Si Si8 0.970656 0.151387 0.667404
O O1 0.417995 0.629441 0.008589
O O2 0.326543 0.646918 0.833840
O O3 0.267156 0.648096 0.038926
O O4 0.205009 0.150475 0.651955
O O5 0.108239 0.196952 0.813449
O O6 0.055681 0.174744 0.613352
O O7 0.992223 0.932833 0.847498
O O8 0.941733 0.810966 0.971805
O O9 0.949970 0.944834 0.062594
O O10 0.352667 0.755945 0.539919
O O11 0.385278 0.850848 0.373475
O O12 0.367788 0.907801 0.571752
O O13 0.701954 0.651714 0.028755
O O14 0.623327 0.496668 0.233740
O O15 0.482463 0.571236 0.261126
O O16 0.444953 0.727959 0.260238
#
# Coordination Sequence:
#
# PCOD8303416 Si02
#       8
#     8   8   8   8   8   8   8   8
#     4  10  22  36  53  78 108 146 183 215 263 326
#     4   9  17  29  49  80 109 136 175 219 274 331
#     4  10  20  33  49  76 112 139 174 219 269 315
#     4   9  21  39  57  76  99 140 186 226 269 327
#     4   9  18  31  50  72 102 142 179 214 261 325
#     4  10  21  32  49  79 106 138 174 217 268 326
#     4  10  22  38  54  75 110 140 177 224 267 327
#     4  11  19  33  58  77 103 140 180 228 281 312
#
# _framework density 18.599350000000001
#
# number of rings (size 3 to 8) (size 9 to 14) (size 15 to 20)
#    0.000    2.250    1.250    2.250    1.750    7.500 
#    0.000    1.250    0.000    0.000    0.000    0.000 
#    0.000    8.000    0.000    0.000    0.000    0.000 
#
# Total GULP energy -793186.682054 kJ/mol
# GULP energy per Si atom -12393.541907 kJ/mol
# Density = 1.855702 g / cm^3
# Si number density = 18.599350 Si / 1000 Ang^3
#
#
#
# Elastic Constant Matrix: (Units=GPa)
#
#
# Indices 1 2 3 4 5 6 
#
# 1 111.0986 54.1830 47.5545 0.0000 0.0000 4.4210
# 2 54.1830 111.0986 47.5545 0.0000 0.0000 -4.4210
# 3 47.5545 47.5545 65.4798 0.0000 0.0000 0.0000
# 4 0.0000 0.0000 0.0000 30.8264 0.0000 0.0000
# 5 0.0000 0.0000 0.0000 0.0000 30.8264 0.0000
# 6 4.4210 -4.4210 0.0000 0.0000 0.0000 33.4939
#
#
#
# Elastic Compliance Matrix: (Units=1/GPa)
#
#
# Indices 1 2 3 4 5 6 
#
# 1 0.014166 -0.003772 -0.007549 0.000000 0.000000 -0.002368
# 2 -0.003772 0.014166 -0.007549 0.000000 0.000000 0.002368
# 3 -0.007549 -0.007549 0.026236 0.000000 0.000000 0.000000
# 4 0.000000 0.000000 0.000000 0.032440 0.000000 0.000000
# 5 0.000000 0.000000 0.000000 0.000000 0.032440 0.000000
# 6 -0.002368 0.002368 0.000000 0.000000 0.000000 0.030481
#
#
# Mechanical properties :
#
#
# Convention : Reuss Voigt Hill
#
# Bulk Modulus (GPa) = 59.41852 65.14010 62.27931
# Shear Modulus (GPa) = 25.86964 28.25500 27.06232
#
# Velocity S-wave (km/s) = 3.73351 3.90184 3.81860
# Velocity P-wave (km/s) = 7.11346 7.44298 7.28009
#
# Compressibility (1/GPa) = 0.01682977
#
# Stress axis : x y z
#
# Youngs Moduli (GPa) = 70.59226 70.59226 38.11525
#
# Poissons Ratio (x) = 0.26626 0.28772
# Poissons Ratio (y) = 0.26626 0.28772
# Poissons Ratio (z) = 0.53287 0.53287
#
# Static dielectric constant tensor:
#      x y z
#    x 3.633510 0.000000 0.000000 
#    y 0.000000 3.633510 0.000000 
#    z 0.000000 0.000000 3.036930 
# 
# 
# High freq. dielectric constant tensor:
#      x y z
#    x 1.734530 0.000000 0.000000 
#    y 0.000000 1.734530 0.000000 
#    z 0.000000 0.000000 1.667970 
# 
# From -- ./inp_files/1865.got.cif
#   From: 2010.03.12/outbox.cif.g09.slc.cpg/sg85_cif.got.tgz:1865.got - 2010.04.08 20:10:46.
