data_PCOD8303261
_publ_section_title
;
Structure prediction by ZEFSAII (Michael W. Deem and Ramdas Pophale) SiO2 
 PCOD8303261
Probable space group: P 42/M
;
_chemical_formula_sum "Si O2"
_cell_formula_units_Z 40
_cell_length_a 15.716183
_cell_length_b 15.716183
_cell_length_c 8.956037
_cell_angle_alpha 90.000000
_cell_angle_beta 90.000000
_cell_angle_gamma 90.000000
_cell_volume 2212.126882
_symmetry_space_group_name_H-M "P 42/M"
_symmetry_group_IT_number 84
_symmetry_cell_setting 'tetragonal'
loop_
_space_group_symop_operation_xyz
x,y,z
-y,x,1/2+z
-x,-y,z
y,-x,1/2+z
-x,-y,-z
y,-x,1/2-z
x,y,-z
-y,x,1/2-z
loop_
_atom_site_type_symbol
_atom_site_label
_atom_site_fract_x
_atom_site_fract_y
_atom_site_fract_z
Si Si1 0.852421 0.286471 0.174730
Si Si2 0.683827 0.334345 0.673773
Si Si3 0.917555 0.450472 0.673289
Si Si4 0.264075 0.478429 0.329356
Si Si5 0.943007 0.111237 0.823176
O O1 0.757822 0.284007 0.241393
O O2 0.909218 0.362545 0.239185
O O3 0.897774 0.199019 0.217119
O O4 0.844207 0.299713 0.000000
O O5 0.699144 0.319049 0.500000
O O6 0.592771 0.299054 0.719853
O O7 0.687633 0.434387 0.711170
O O8 0.927135 0.426990 0.500000
O O9 0.836221 0.510507 0.699643
O O10 0.000000 0.500000 0.733827
O O11 0.281746 0.451652 0.500000
O O12 0.036171 0.112751 0.749373
O O13 0.950877 0.096704 0.000000
#
# Coordination Sequence:
#
# PCOD8303261 Si02
#       5
#     8   8   8   8   8
#     4  10  21  36  54  78 107 138 174 216 260 307
#     4  10  21  36  55  78 104 138 175 212 260 312
#     4   9  19  36  56  78 106 140 176 214 259 310
#     4   9  19  35  53  76 105 136 173 215 259 307
#     4  10  21  36  55  79 106 138 175 215 260 308
#
# _framework density 18.082145000000001
#
# number of rings (size 3 to 8) (size 9 to 14) (size 15 to 20)
#    0.000    2.400    0.000    3.600    0.000    9.600 
#    0.000    8.000    0.000    0.000    0.000    0.000 
#    0.000    0.000    0.000    0.000    0.000    0.000 
#
# Total GULP energy -496116.574851 kJ/mol
# GULP energy per Si atom -12402.914371 kJ/mol
# Density = 1.804099 g / cm^3
# Si number density = 18.082145 Si / 1000 Ang^3
#
#
#
# Elastic Constant Matrix: (Units=GPa)
#
#
# Indices 1 2 3 4 5 6 
#
# 1 127.9790 85.5834 62.6230 0.0000 0.0000 12.7484
# 2 85.5834 127.9790 62.6230 0.0000 0.0000 -12.7484
# 3 62.6230 62.6230 87.4772 0.0000 0.0000 0.0000
# 4 0.0000 0.0000 0.0000 28.2092 0.0000 0.0000
# 5 0.0000 0.0000 0.0000 0.0000 28.2092 0.0000
# 6 12.7484 -12.7484 0.0000 0.0000 0.0000 28.9769
#
#
#
# Elastic Compliance Matrix: (Units=1/GPa)
#
#
# Indices 1 2 3 4 5 6 
#
# 1 0.020072 -0.012001 -0.005778 0.000000 0.000000 -0.014111
# 2 -0.012001 0.020072 -0.005778 0.000000 0.000000 0.014111
# 3 -0.005778 -0.005778 0.019704 0.000000 0.000000 0.000000
# 4 0.000000 0.000000 0.000000 0.035449 0.000000 0.000000
# 5 0.000000 0.000000 0.000000 0.000000 0.035449 0.000000
# 6 -0.014111 0.014111 0.000000 0.000000 0.000000 0.046926
#
#
# Mechanical properties :
#
#
# Convention : Reuss Voigt Hill
#
# Bulk Modulus (GPa) = 78.52621 85.01046 81.76834
# Shear Modulus (GPa) = 21.83101 25.91947 23.87524
#
# Velocity S-wave (km/s) = 3.47843 3.79017 3.63764
# Velocity P-wave (km/s) = 7.72362 8.14060 7.93485
#
# Compressibility (1/GPa) = 0.01273460
#
# Stress axis : x y z
#
# Youngs Moduli (GPa) = 49.82006 49.82006 50.75127
#
# Poissons Ratio (x) = 0.59791 0.29323
# Poissons Ratio (y) = 0.59791 0.29323
# Poissons Ratio (z) = 0.28785 0.28785
#
# Static dielectric constant tensor:
#      x y z
#    x 3.384660 0.000000 0.000000 
#    y 0.000000 3.384660 0.000000 
#    z 0.000000 0.000000 3.362210 
# 
# 
# High freq. dielectric constant tensor:
#      x y z
#    x 1.702530 0.000000 0.000000 
#    y 0.000000 1.702530 0.000000 
#    z 0.000000 0.000000 1.708780 
# 
# From -- ./inp_files/774.got.cif
#   From: 2010.03.12/outbox.cif.g09.slc.cpg/sg84_1_cif.got.tgz:774.got - 2010.04.08 20:07:29.
