data_PCOD8303171
_publ_section_title
;
Structure prediction by ZEFSAII (Michael W. Deem and Ramdas Pophale) SiO2 
 PCOD8303171
Probable space group: P 42/M
;
_chemical_formula_sum "Si O2"
_cell_formula_units_Z 40
_cell_length_a 8.569684
_cell_length_b 8.569684
_cell_length_c 26.738745
_cell_angle_alpha 90.000000
_cell_angle_beta 90.000000
_cell_angle_gamma 90.000000
_cell_volume 1963.679632
_symmetry_space_group_name_H-M "P 42/M"
_symmetry_group_IT_number 84
_symmetry_cell_setting 'tetragonal'
loop_
_space_group_symop_operation_xyz
x,y,z
-y,x,1/2+z
-x,-y,z
y,-x,1/2+z
-x,-y,-z
y,-x,1/2-z
x,y,-z
-y,x,1/2-z
loop_
_atom_site_type_symbol
_atom_site_label
_atom_site_fract_x
_atom_site_fract_y
_atom_site_fract_z
Si Si1 0.806012 0.256899 0.161362
Si Si2 0.209927 0.242891 0.058014
Si Si3 0.298607 0.645866 0.738739
Si Si4 0.500000 0.000000 0.394881
Si Si5 0.000000 0.000000 0.608409
Si Si6 0.465365 0.316036 0.135163
O O1 0.808172 0.256852 0.222382
O O2 0.871738 0.419461 0.140151
O O3 0.632297 0.230203 0.138906
O O4 0.917863 0.119881 0.145069
O O5 0.377031 0.272077 0.084470
O O6 0.088615 0.380294 0.069181
O O7 0.249735 0.237600 0.000000
O O8 0.130878 0.080159 0.073846
O O9 0.471260 0.712319 0.741140
O O10 0.251377 0.647290 0.680178
O O11 0.500000 0.500000 0.141405
#
# Coordination Sequence:
#
# PCOD8303171 Si02
#       6
#     8   8   8   4   4   8
#     4  10  20  38  64  92 128 165 207 256 318 383
#     4  11  23  41  63  89 126 171 217 270 325 374
#     4   9  14  30  60  92 118 148 188 248 312 363
#     4  10  19  38  62  94 126 166 211 262 308 392
#     4  10  25  44  59  86 132 174 214 254 322 398
#     4  11  19  37  65 100 123 152 216 271 312 369
#
# _framework density 20.369921000000001
#
# number of rings (size 3 to 8) (size 9 to 14) (size 15 to 20)
#    0.000    1.800    6.000    0.600    0.000    1.200 
#    0.000   12.000    0.000    0.000    0.000    0.000 
#    0.000    0.000    0.000    0.000    0.000    0.000 
#
# Total GULP energy -495840.794671 kJ/mol
# GULP energy per Si atom -12396.019867 kJ/mol
# Density = 2.032356 g / cm^3
# Si number density = 20.369921 Si / 1000 Ang^3
#
#
#
# Elastic Constant Matrix: (Units=GPa)
#
#
# Indices 1 2 3 4 5 6 
#
# 1 67.2139 13.1755 53.7807 0.0000 0.0000 -0.6057
# 2 13.1755 67.2139 53.7807 0.0000 0.0000 0.6057
# 3 53.7807 53.7807 178.6940 0.0000 0.0000 0.0000
# 4 0.0000 0.0000 0.0000 21.4701 0.0000 0.0000
# 5 0.0000 0.0000 0.0000 0.0000 21.4701 0.0000
# 6 -0.6057 0.6057 0.0000 0.0000 0.0000 33.2014
#
#
#
# Elastic Compliance Matrix: (Units=1/GPa)
#
#
# Indices 1 2 3 4 5 6 
#
# 1 0.019669 0.001156 -0.006268 0.000000 0.000000 0.000338
# 2 0.001156 0.019669 -0.006268 0.000000 0.000000 -0.000338
# 3 -0.006268 -0.006268 0.009369 0.000000 0.000000 0.000000
# 4 0.000000 0.000000 0.000000 0.046576 0.000000 0.000000
# 5 0.000000 0.000000 0.000000 0.000000 0.046576 0.000000
# 6 0.000338 -0.000338 0.000000 0.000000 0.000000 0.030132
#
#
# Mechanical properties :
#
#
# Convention : Reuss Voigt Hill
#
# Bulk Modulus (GPa) = 38.53671 61.62175 50.07923
# Shear Modulus (GPa) = 24.58204 28.05397 26.31800
#
# Velocity S-wave (km/s) = 3.47764 3.71512 3.59834
# Velocity P-wave (km/s) = 5.92325 6.97996 6.47320
#
# Compressibility (1/GPa) = 0.02594929
#
# Stress axis : x y z
#
# Youngs Moduli (GPa) = 50.84031 50.84031 106.73503
#
# Poissons Ratio (x) = -0.05880 0.66900
# Poissons Ratio (y) = -0.05880 0.66900
# Poissons Ratio (z) = 0.31866 0.31866
#
# Static dielectric constant tensor:
#      x y z
#    x 3.648640 0.000000 0.000000 
#    y 0.000000 3.648640 0.000000 
#    z 0.000000 0.000000 3.619660 
# 
# 
# High freq. dielectric constant tensor:
#      x y z
#    x 1.786940 0.000000 0.000000 
#    y 0.000000 1.786940 0.000000 
#    z 0.000000 0.000000 1.793920 
# 
# From -- ./inp_files/5389.got.cif
#   From: 2010.03.12/outbox.cif.g09.slc.cpg/sg84_3_cif.got.tgz:5389.got - 2010.04.08 20:07:29.
