data_PCOD8303485
_publ_section_title
;
Structure prediction by ZEFSAII (Michael W. Deem and Ramdas Pophale) SiO2 
 PCOD8303485
Probable space group: P 42/N
;
_chemical_formula_sum "Si O2"
_cell_formula_units_Z 48
_cell_length_a 9.342780
_cell_length_b 9.342780
_cell_length_c 28.768985
_cell_angle_alpha 90.000000
_cell_angle_beta 90.000000
_cell_angle_gamma 90.000000
_cell_volume 2511.173875
_symmetry_space_group_name_H-M "P 42/N"
_symmetry_group_IT_number 86
_space_group.IT_coordinate_system_code '2'
_symmetry_cell_setting 'tetragonal'
loop_
_space_group_symop_operation_xyz
x,y,z
-y,1/2+x,1/2+z
1/2-x,1/2-y,z
1/2+y,-x,1/2+z
-x,-y,-z
y,1/2-x,1/2-z
1/2+x,1/2+y,-z
1/2-y,x,1/2-z
loop_
_atom_site_type_symbol
_atom_site_label
_atom_site_fract_x
_atom_site_fract_y
_atom_site_fract_z
Si Si1 0.954874 0.815555 0.268139
Si Si2 0.664994 0.392700 0.960435
Si Si3 0.602122 0.829119 0.359813
Si Si4 0.338194 0.606079 0.144268
Si Si5 0.665378 0.604769 0.038488
Si Si6 0.542664 0.826706 0.734378
O O1 0.920743 0.684323 0.232447
O O2 0.986833 0.749598 0.319223
O O3 0.097396 0.900096 0.253924
O O4 0.750000 0.250000 0.969383
O O5 0.690506 0.449980 0.907976
O O6 0.499980 0.358667 0.969873
O O7 0.725218 0.505577 0.997506
O O8 0.750000 0.750000 0.364646
O O9 0.527790 0.816412 0.410782
O O10 0.631071 0.993586 0.346297
O O11 0.250000 0.750000 0.153759
O O12 0.286349 0.484164 0.180357
O O13 0.750000 0.750000 0.035672
O O14 0.680582 0.930123 0.737376
#
# Coordination Sequence:
#
# PCOD8303485 Si02
#       6
#     8   8   8   8   8   8
#     4  11  20  35  61  86 110 148 191 241 272 338
#     4   9  19  38  58  83 111 149 191 226 282 345
#     4  10  18  33  55  92 112 138 193 239 281 327
#     4  10  21  36  62  81 109 154 192 231 281 345
#     4   9  19  35  57  82 119 144 179 244 282 322
#     4  11  26  41  53  81 120 152 184 233 289 345
#
# _framework density 19.114567000000001
#
# number of rings (size 3 to 8) (size 9 to 14) (size 15 to 20)
#    0.000    2.000    3.333    0.000    4.667    0.667 
#    3.000    5.000    0.000    0.000    0.000    0.000 
#    0.000    0.000    0.000    0.000    0.000    0.000 
#
# Total GULP energy -594967.646410 kJ/mol
# GULP energy per Si atom -12395.159300 kJ/mol
# Density = 1.907106 g / cm^3
# Si number density = 19.114567 Si / 1000 Ang^3
#
#
#
# Elastic Constant Matrix: (Units=GPa)
#
#
# Indices 1 2 3 4 5 6 
#
# 1 64.9420 29.4445 64.1222 0.0000 0.0000 2.9175
# 2 29.4445 64.9420 64.1222 0.0000 0.0000 -2.9175
# 3 64.1222 64.1222 171.9909 0.0000 0.0000 0.0000
# 4 0.0000 0.0000 0.0000 28.8371 0.0000 0.0000
# 5 0.0000 0.0000 0.0000 0.0000 28.8371 0.0000
# 6 2.9175 -2.9175 0.0000 0.0000 0.0000 34.8315
#
#
#
# Elastic Compliance Matrix: (Units=1/GPa)
#
#
# Indices 1 2 3 4 5 6 
#
# 1 0.025018 -0.003547 -0.008005 0.000000 0.000000 -0.002393
# 2 -0.003547 0.025018 -0.008005 0.000000 0.000000 0.002393
# 3 -0.008005 -0.008005 0.011783 0.000000 0.000000 0.000000
# 4 0.000000 0.000000 0.000000 0.034678 0.000000 0.000000
# 5 0.000000 0.000000 0.000000 0.000000 0.034678 0.000000
# 6 -0.002393 0.002393 0.000000 0.000000 0.000000 0.029110
#
#
# Mechanical properties :
#
#
# Convention : Reuss Voigt Hill
#
# Bulk Modulus (GPa) = 44.04181 68.58364 56.31273
# Shear Modulus (GPa) = 24.15859 28.11353 26.13606
#
# Velocity S-wave (km/s) = 3.55897 3.83925 3.70176
# Velocity P-wave (km/s) = 6.32292 7.45730 6.91342
#
# Compressibility (1/GPa) = 0.02270570
#
# Stress axis : x y z
#
# Youngs Moduli (GPa) = 39.97165 39.97165 84.86703
#
# Poissons Ratio (x) = 0.14176 0.67936
# Poissons Ratio (y) = 0.14176 0.67936
# Poissons Ratio (z) = 0.31997 0.31997
#
# Static dielectric constant tensor:
#      x y z
#    x 3.374080 0.000000 0.000000 
#    y 0.000000 3.374080 0.000000 
#    z 0.000000 0.000000 4.253010 
# 
# 
# High freq. dielectric constant tensor:
#      x y z
#    x 1.727170 0.000000 0.000000 
#    y 0.000000 1.727170 0.000000 
#    z 0.000000 0.000000 1.761900 
# 
# From -- ./inp_files/5216.got.cif
#   From: 2010.03.12/outbox.cif.g09.slc.cpg/sg86_3_cif.got.tgz:5216.got - 2010.04.08 20:12:58.
