data_PCOD8303144
_publ_section_title
;
Structure prediction by ZEFSAII (Michael W. Deem and Ramdas Pophale) SiO2 
 PCOD8303144
Probable space group: P 42/M
;
_chemical_formula_sum "Si O2"
_cell_formula_units_Z 40
_cell_length_a 16.522173
_cell_length_b 16.522173
_cell_length_c 8.554737
_cell_angle_alpha 90.000000
_cell_angle_beta 90.000000
_cell_angle_gamma 90.000000
_cell_volume 2335.290932
_symmetry_space_group_name_H-M "P 42/M"
_symmetry_group_IT_number 84
_symmetry_cell_setting 'tetragonal'
loop_
_space_group_symop_operation_xyz
x,y,z
-y,x,1/2+z
-x,-y,z
y,-x,1/2+z
-x,-y,-z
y,-x,1/2-z
x,y,-z
-y,x,1/2-z
loop_
_atom_site_type_symbol
_atom_site_label
_atom_site_fract_x
_atom_site_fract_y
_atom_site_fract_z
Si Si1 0.726873 0.891639 0.676974
Si Si2 0.224821 0.610559 0.682712
Si Si3 0.447190 0.072525 0.322670
Si Si4 0.546425 0.611928 0.317827
Si Si5 0.956858 0.112901 0.681628
O O1 0.756849 0.875943 0.500000
O O2 0.698406 0.806732 0.756048
O O3 0.648448 0.951525 0.678057
O O4 0.796323 0.932202 0.778388
O O5 0.242346 0.612910 0.500000
O O6 0.155765 0.542787 0.723367
O O7 0.305969 0.591210 0.774491
O O8 0.476991 0.088939 0.500000
O O9 0.500000 0.000000 0.247231
O O10 0.605206 0.537275 0.276967
O O11 0.526142 0.610352 0.500000
O O12 0.944072 0.096402 0.500000
O O13 0.050613 0.099835 0.724647
#
# Coordination Sequence:
#
# PCOD8303144 Si02
#       5
#     8   8   8   8   8
#     4   9  18  34  54  77 106 140 177 222 268 316
#     4  10  19  33  53  79 108 141 177 220 270 319
#     4   8  16  32  54  77 105 142 178 214 265 317
#     4  11  21  36  56  80 108 143 183 224 272 323
#     4  11  21  35  55  79 107 142 182 222 271 323
#
# _framework density 17.128487
#
# number of rings (size 3 to 8) (size 9 to 14) (size 15 to 20)
#    1.200    1.000    0.000    6.600    0.000    0.400 
#    0.000    2.000    0.000    2.400    0.000    0.000 
#    0.000    0.000    0.000    0.000    0.000    0.000 
#
# Total GULP energy -495714.894295 kJ/mol
# GULP energy per Si atom -12392.872357 kJ/mol
# Density = 1.708950 g / cm^3
# Si number density = 17.128487 Si / 1000 Ang^3
#
#
#
# Elastic Constant Matrix: (Units=GPa)
#
#
# Indices 1 2 3 4 5 6 
#
# 1 81.7508 41.8716 16.8402 0.0000 0.0000 0.6945
# 2 41.8716 81.7508 16.8402 0.0000 0.0000 -0.6945
# 3 16.8402 16.8402 90.3131 0.0000 0.0000 0.0000
# 4 0.0000 0.0000 0.0000 28.5104 0.0000 0.0000
# 5 0.0000 0.0000 0.0000 0.0000 28.5104 0.0000
# 6 0.6945 -0.6945 0.0000 0.0000 0.0000 20.7330
#
#
#
# Elastic Compliance Matrix: (Units=1/GPa)
#
#
# Indices 1 2 3 4 5 6 
#
# 1 0.016814 -0.008291 -0.001589 0.000000 0.000000 -0.000841
# 2 -0.008291 0.016814 -0.001589 0.000000 0.000000 0.000841
# 3 -0.001589 -0.001589 0.011665 0.000000 0.000000 0.000000
# 4 0.000000 0.000000 0.000000 0.035075 0.000000 0.000000
# 5 0.000000 0.000000 0.000000 0.000000 0.035075 0.000000
# 6 -0.000841 0.000841 0.000000 0.000000 0.000000 0.048289
#
#
# Mechanical properties :
#
#
# Convention : Reuss Voigt Hill
#
# Bulk Modulus (GPa) = 44.73652 44.99096 44.86374
# Shear Modulus (GPa) = 25.75712 27.43492 26.59602
#
# Velocity S-wave (km/s) = 3.88204 4.00648 3.94475
# Velocity P-wave (km/s) = 6.80210 6.90842 6.85547
#
# Compressibility (1/GPa) = 0.02235310
#
# Stress axis : x y z
#
# Youngs Moduli (GPa) = 59.47585 59.47585 85.72502
#
# Poissons Ratio (x) = 0.49314 0.13622
# Poissons Ratio (y) = 0.49314 0.13622
# Poissons Ratio (z) = 0.09451 0.09451
#
# Static dielectric constant tensor:
#      x y z
#    x 3.038200 0.000000 0.000000 
#    y 0.000000 3.038200 0.000000 
#    z 0.000000 0.000000 3.226860 
# 
# 
# High freq. dielectric constant tensor:
#      x y z
#    x 1.644030 0.000000 0.000000 
#    y 0.000000 1.644030 0.000000 
#    z 0.000000 0.000000 1.676380 
# 
# From -- ./inp_files/909.got.cif
#   From: 2010.03.12/outbox.cif.g09.slc.cpg/sg84_1_cif.got.tgz:909.got - 2010.04.08 20:07:29.
