data_PCOD8303698
_publ_section_title
;
Structure prediction by ZEFSAII (Michael W. Deem and Ramdas Pophale) SiO2 
 PCOD8303698
Probable space group: P 42/N
;
_chemical_formula_sum "Si O2"
_cell_formula_units_Z 54
_cell_length_a 14.078371
_cell_length_b 14.078371
_cell_length_c 12.224106
_cell_angle_alpha 90.000000
_cell_angle_beta 90.000000
_cell_angle_gamma 90.000000
_cell_volume 2422.824288
_symmetry_space_group_name_H-M "P 42/N"
_symmetry_group_IT_number 86
_space_group.IT_coordinate_system_code '2'
_symmetry_cell_setting 'tetragonal'
loop_
_space_group_symop_operation_xyz
x,y,z
-y,1/2+x,1/2+z
1/2-x,1/2-y,z
1/2+y,-x,1/2+z
-x,-y,-z
y,1/2-x,1/2-z
1/2+x,1/2+y,-z
1/2-y,x,1/2-z
loop_
_atom_site_type_symbol
_atom_site_label
_atom_site_fract_x
_atom_site_fract_y
_atom_site_fract_z
Si Si1 0.075074 0.419368 0.459016
Si Si2 0.885380 0.111147 0.587264
Si Si3 0.250000 0.250000 0.750000
Si Si4 0.250000 0.750000 0.284180
Si Si5 0.752286 0.596004 0.402194
Si Si6 0.801056 0.569493 0.997212
Si Si7 0.448766 0.428002 0.292268
Si Si8 0.579104 0.157064 0.838807
O O1 0.177385 0.447080 0.507343
O O2 0.053573 0.312456 0.499703
O O3 0.089153 0.411933 0.329390
O O4 0.000000 0.500000 0.500000
O O5 0.807543 0.179064 0.639713
O O6 0.850752 0.081346 0.468968
O O7 0.987531 0.159625 0.576034
O O8 0.892217 0.017173 0.659877
O O9 0.329282 0.304355 0.822375
O O10 0.321691 0.805528 0.206047
O O11 0.667477 0.657451 0.456455
O O12 0.725779 0.509921 0.320548
O O13 0.836555 0.562030 0.871204
O O14 0.559838 0.449700 0.280777
#
# Coordination Sequence:
#
# PCOD8303698 Si02
#       8
#     8   8   2   4   8   8   8   8
#     4  12  31  45  74 116 151 189 261 332 371 452
#     4  11  25  49  73 104 148 201 251 301 386 463
#     4  12  28  44  76 110 136 204 244 308 376 450
#     4  12  30  40  78 116 156 194 254 324 380 448
#     4  12  26  48  75 106 147 194 258 307 377 463
#     4  11  24  52  74 105 147 202 251 309 378 464
#     4  11  26  47  77 104 146 202 244 306 393 451
#     4  11  26  46  73 106 147 199 244 311 378 456
#
# _framework density 22.288039000000001
#
# number of rings (size 3 to 8) (size 9 to 14) (size 15 to 20)
#    0.000    0.593    4.444    1.333   16.593    0.000 
#    0.000    0.000    0.000    0.000    0.000    0.000 
#    0.000    0.000    0.000    0.000    0.000    0.000 
#
# Total GULP energy -669377.328472 kJ/mol
# GULP energy per Si atom -12395.876453 kJ/mol
# Density = 2.223731 g / cm^3
# Si number density = 22.288039 Si / 1000 Ang^3
#
#
#
# Elastic Constant Matrix: (Units=GPa)
#
#
# Indices 1 2 3 4 5 6 
#
# 1 136.8955 43.7842 33.7830 0.0000 0.0000 -4.1892
# 2 43.7842 136.8955 33.7830 0.0000 0.0000 4.1892
# 3 33.7830 33.7830 87.9390 0.0000 0.0000 0.0000
# 4 0.0000 0.0000 0.0000 45.9696 0.0000 0.0000
# 5 0.0000 0.0000 0.0000 0.0000 45.9696 0.0000
# 6 -4.1892 4.1892 0.0000 0.0000 0.0000 49.2931
#
#
#
# Elastic Compliance Matrix: (Units=1/GPa)
#
#
# Indices 1 2 3 4 5 6 
#
# 1 0.008643 -0.002180 -0.002483 0.000000 0.000000 0.000920
# 2 -0.002180 0.008643 -0.002483 0.000000 0.000000 -0.000920
# 3 -0.002483 -0.002483 0.013279 0.000000 0.000000 0.000000
# 4 0.000000 0.000000 0.000000 0.021753 0.000000 0.000000
# 5 0.000000 0.000000 0.000000 0.000000 0.021753 0.000000
# 6 0.000920 -0.000920 0.000000 0.000000 0.000000 0.020443
#
#
# Mechanical properties :
#
#
# Convention : Reuss Voigt Hill
#
# Bulk Modulus (GPa) = 61.44820 64.93671 63.19246
# Shear Modulus (GPa) = 43.77103 44.93846 44.35474
#
# Velocity S-wave (km/s) = 4.43638 4.49515 4.46586
# Velocity P-wave (km/s) = 7.33974 7.49268 7.41661
#
# Compressibility (1/GPa) = 0.01627387
#
# Stress axis : x y z
#
# Youngs Moduli (GPa) = 115.70227 115.70227 75.30570
#
# Poissons Ratio (x) = 0.25220 0.18698
# Poissons Ratio (y) = 0.25220 0.18698
# Poissons Ratio (z) = 0.28728 0.28728
#
# Static dielectric constant tensor:
#      x y z
#    x 4.130100 0.000000 0.000000 
#    y 0.000000 4.130100 0.000000 
#    z 0.000000 0.000000 4.193110 
# 
# 
# High freq. dielectric constant tensor:
#      x y z
#    x 1.887040 0.000000 0.000000 
#    y 0.000000 1.887040 0.000000 
#    z 0.000000 0.000000 1.888480 
# 
# From -- ./inp_files/2407.got.cif
#   From: 2010.03.12/outbox.cif.g09.slc.cpg/sg86_2_cif.got.tgz:2407.got - 2010.04.08 20:12:58.
