data_PCOD8303641
_publ_section_title
;
Structure prediction by ZEFSAII (Michael W. Deem and Ramdas Pophale) SiO2 
 PCOD8303641
Probable space group: P 42/N
;
_chemical_formula_sum "Si O2"
_cell_formula_units_Z 32
_cell_length_a 13.298015
_cell_length_b 13.298015
_cell_length_c 8.939811
_cell_angle_alpha 90.000000
_cell_angle_beta 90.000000
_cell_angle_gamma 90.000000
_cell_volume 1580.891172
_symmetry_space_group_name_H-M "P 42/N"
_symmetry_group_IT_number 86
_space_group.IT_coordinate_system_code '2'
_symmetry_cell_setting 'tetragonal'
loop_
_space_group_symop_operation_xyz
x,y,z
-y,1/2+x,1/2+z
1/2-x,1/2-y,z
1/2+y,-x,1/2+z
-x,-y,-z
y,1/2-x,1/2-z
1/2+x,1/2+y,-z
1/2-y,x,1/2-z
loop_
_atom_site_type_symbol
_atom_site_label
_atom_site_fract_x
_atom_site_fract_y
_atom_site_fract_z
Si Si1 0.581504 0.727148 0.558087
Si Si2 0.216819 0.041478 0.390095
Si Si3 0.466103 0.585841 0.389244
Si Si4 0.097082 0.447624 0.568065
O O1 0.574790 0.733544 0.735460
O O2 0.662865 0.637639 0.531167
O O3 0.476930 0.690759 0.479920
O O4 0.609662 0.831244 0.479296
O O5 0.302979 0.000110 0.501356
O O6 0.147704 0.944551 0.348943
O O7 0.500000 0.500000 0.500000
O O8 0.538402 0.592221 0.245193
O O9 0.000000 0.500000 0.500000
#
# Coordination Sequence:
#
# PCOD8303641 Si02
#       4
#     8   8   8   8
#     4  11  22  40  68  99 132 173 228 282 341 403
#     4  11  22  44  68  95 135 179 229 283 342 412
#     4  10  24  42  62  98 136 173 222 282 340 414
#     4  12  23  41  70  96 133 178 220 281 345 393
#
# _framework density 20.241747
#
# number of rings (size 3 to 8) (size 9 to 14) (size 15 to 20)
#    0.000    1.000    5.000    2.250    7.000    0.000 
#    0.000    1.250    0.000    0.000    0.000    0.000 
#    0.000    0.000    0.000    0.000    0.000    0.000 
#
# Total GULP energy -396546.288463 kJ/mol
# GULP energy per Si atom -12392.071514 kJ/mol
# Density = 2.019568 g / cm^3
# Si number density = 20.241747 Si / 1000 Ang^3
#
#
#
# Elastic Constant Matrix: (Units=GPa)
#
#
# Indices 1 2 3 4 5 6 
#
# 1 82.6617 48.3819 43.7067 0.0000 0.0000 -6.6352
# 2 48.3819 82.6617 43.7067 0.0000 0.0000 6.6352
# 3 43.7067 43.7067 144.1555 0.0000 0.0000 0.0000
# 4 0.0000 0.0000 0.0000 37.1979 0.0000 0.0000
# 5 0.0000 0.0000 0.0000 0.0000 37.1979 0.0000
# 6 -6.6352 6.6352 0.0000 0.0000 0.0000 31.3520
#
#
#
# Elastic Compliance Matrix: (Units=1/GPa)
#
#
# Indices 1 2 3 4 5 6 
#
# 1 0.020670 -0.011105 -0.002900 0.000000 0.000000 0.006725
# 2 -0.011105 0.020670 -0.002900 0.000000 0.000000 -0.006725
# 3 -0.002900 -0.002900 0.008696 0.000000 0.000000 0.000000
# 4 0.000000 0.000000 0.000000 0.026883 0.000000 0.000000
# 5 0.000000 0.000000 0.000000 0.000000 0.026883 0.000000
# 6 0.006725 -0.006725 0.000000 0.000000 0.000000 0.034742
#
#
# Mechanical properties :
#
#
# Convention : Reuss Voigt Hill
#
# Bulk Modulus (GPa) = 61.62938 64.56325 63.09631
# Shear Modulus (GPa) = 28.12722 32.72847 30.42785
#
# Velocity S-wave (km/s) = 3.73173 4.02541 3.88135
# Velocity P-wave (km/s) = 7.00575 7.31919 7.16418
#
# Compressibility (1/GPa) = 0.01622603
#
# Stress axis : x y z
#
# Youngs Moduli (GPa) = 48.37860 48.37860 115.00075
#
# Poissons Ratio (x) = 0.53723 0.33353
# Poissons Ratio (y) = 0.53723 0.33353
# Poissons Ratio (z) = 0.14031 0.14031
#
# Static dielectric constant tensor:
#      x y z
#    x 5.272560 0.000000 0.000000 
#    y 0.000000 5.272560 0.000000 
#    z 0.000000 0.000000 3.910280 
# 
# 
# High freq. dielectric constant tensor:
#      x y z
#    x 1.781450 0.000000 0.000000 
#    y 0.000000 1.781450 0.000000 
#    z 0.000000 0.000000 1.806100 
# 
# From -- ./inp_files/923.got.cif
#   From: 2010.03.12/outbox.cif.g09.slc.cpg/sg86_1_cif.got.tgz:923.got - 2010.04.08 20:12:58.
