data_PCOD8303795
_publ_section_title
;
Structure prediction by ZEFSAII (Michael W. Deem and Ramdas Pophale) SiO2 
 PCOD8303795
Probable space group: I 4/M
;
_chemical_formula_sum "Si O2"
_cell_formula_units_Z 96
_cell_length_a 25.125907
_cell_length_b 25.125907
_cell_length_c 9.031450
_cell_angle_alpha 90.000000
_cell_angle_beta 90.000000
_cell_angle_gamma 90.000000
_cell_volume 5701.655560
_symmetry_space_group_name_H-M "I 4/M"
_symmetry_group_IT_number 87
_symmetry_cell_setting 'tetragonal'
loop_
_space_group_symop_operation_xyz
x,y,z
-y,x,z
-x,-y,z
y,-x,z
-x,-y,-z
y,-x,-z
x,y,-z
-y,x,-z
1/2+x,1/2+y,1/2+z
1/2-y,1/2+x,1/2+z
1/2-x,1/2-y,1/2+z
1/2+y,1/2-x,1/2+z
1/2-x,1/2-y,1/2-z
1/2+y,1/2-x,1/2-z
1/2+x,1/2+y,1/2-z
1/2-y,1/2+x,1/2-z
loop_
_atom_site_type_symbol
_atom_site_label
_atom_site_fract_x
_atom_site_fract_y
_atom_site_fract_z
Si Si1 0.249602 0.952902 0.666264
Si Si2 0.137150 0.055257 0.173750
Si Si3 0.254670 0.058916 0.169059
Si Si4 0.057666 0.133106 0.329474
Si Si5 0.436487 0.857797 0.828086
Si Si6 0.364341 0.939742 0.332413
O O1 0.252064 0.979129 0.500000
O O2 0.194274 0.920670 0.681691
O O3 0.303344 0.917740 0.685570
O O4 0.250480 0.996909 0.792766
O O5 0.195474 0.081930 0.201118
O O6 0.094087 0.097636 0.225555
O O7 0.129454 0.002471 0.270911
O O8 0.129344 0.041902 0.000000
O O9 0.302183 0.086186 0.261790
O O10 0.270938 0.066016 0.000000
O O11 0.059383 0.113477 0.500000
O O12 0.403722 0.907936 0.771459
O O13 0.498236 0.865595 0.785630
O O14 0.427518 0.854233 0.000000
O O15 0.384395 0.932756 0.500000
#
# Coordination Sequence:
#
# PCOD8303795 Si02
#       6
#    16  16  16  16  16  16
#     4   8  16  31  49  69  93 122 158 197 233 275
#     4  10  20  33  49  72 100 127 157 195 238 282
#     4   9  17  30  49  69  91 123 159 194 233 278
#     4  10  19  32  51  73  97 127 161 195 235 283
#     4  10  20  32  48  71  97 125 158 196 235 278
#     4   9  18  32  48  68  96 126 155 191 236 281
#
# _framework density 16.837215
#
# number of rings (size 3 to 8) (size 9 to 14) (size 15 to 20)
#    0.000    2.667    0.000    3.000    0.000    6.667 
#    0.000    3.333    0.000    1.000    0.000    0.000 
#    0.000    0.000    0.000    0.000    0.000    0.000 
#
# Total GULP energy -594763.260600 kJ/mol
# GULP energy per Si atom -12390.901263 kJ/mol
# Density = 1.679889 g / cm^3
# Si number density = 16.837215 Si / 1000 Ang^3
#
#
#
# Elastic Constant Matrix: (Units=GPa)
#
#
# Indices 1 2 3 4 5 6 
#
# 1 77.9005 46.5787 39.7700 0.0000 0.0000 1.6954
# 2 46.5787 77.9005 39.7700 0.0000 0.0000 -1.6954
# 3 39.7700 39.7700 74.0123 0.0000 0.0000 0.0000
# 4 0.0000 0.0000 0.0000 26.6151 0.0000 0.0000
# 5 0.0000 0.0000 0.0000 0.0000 26.6151 0.0000
# 6 1.6954 -1.6954 0.0000 0.0000 0.0000 -2.8146
#
#
#
# Elastic Compliance Matrix: (Units=1/GPa)
#
#
# Indices 1 2 3 4 5 6 
#
# 1 0.021103 -0.008869 -0.006574 0.000000 0.000000 0.018054
# 2 -0.008869 0.021103 -0.006574 0.000000 0.000000 -0.018054
# 3 -0.006574 -0.006574 0.020576 0.000000 0.000000 0.000000
# 4 0.000000 0.000000 0.000000 0.037573 0.000000 0.000000
# 5 0.000000 0.000000 0.000000 0.000000 0.037573 0.000000
# 6 0.018054 -0.018054 0.000000 0.000000 0.000000 -0.333538
#
#
# Mechanical properties :
#
#
# Convention : Reuss Voigt Hill
#
# Bulk Modulus (GPa) = 53.33699 53.56118 53.44908
# Shear Modulus (GPa) = -34.40514 16.99607 -8.70453
#
# Velocity S-wave (km/s) = -4.52530 3.18061 -2.27619
# Velocity P-wave (km/s) = 2.10769 6.73562 4.99054
#
# Compressibility (1/GPa) = 0.01874871
#
# Stress axis : x y z
#
# Youngs Moduli (GPa) = 47.38640 47.38640 48.59999
#
# Poissons Ratio (x) = 0.42027 0.31949
# Poissons Ratio (y) = 0.42027 0.31949
# Poissons Ratio (z) = 0.31151 0.31151
#
# Static dielectric constant tensor:
#      x y z
#    x 3.137340 0.000000 0.000000 
#    y 0.000000 3.137340 0.000000 
#    z 0.000000 0.000000 3.244740 
# 
# 
# High freq. dielectric constant tensor:
#      x y z
#    x 1.629790 0.000000 0.000000 
#    y 0.000000 1.629790 0.000000 
#    z 0.000000 0.000000 1.664970 
# 
# From -- ./inp_files/1325.got.cif
#   From: 2010.03.12/outbox.cif.g09.slc.cpg/sg87_1_cif.got.tgz:1325.got - 2010.04.08 20:16:13.
