data_PCOD8303088
_publ_section_title
;
Structure prediction by ZEFSAII (Michael W. Deem and Ramdas Pophale) SiO2 
 PCOD8303088
Probable space group: P 42/M
;
_chemical_formula_sum "Si O2"
_cell_formula_units_Z 40
_cell_length_a 9.574194
_cell_length_b 9.574194
_cell_length_c 22.304895
_cell_angle_alpha 90.000000
_cell_angle_beta 90.000000
_cell_angle_gamma 90.000000
_cell_volume 2044.582455
_symmetry_space_group_name_H-M "P 42/M"
_symmetry_group_IT_number 84
_symmetry_cell_setting 'tetragonal'
loop_
_space_group_symop_operation_xyz
x,y,z
-y,x,1/2+z
-x,-y,z
y,-x,1/2+z
-x,-y,-z
y,-x,1/2-z
x,y,-z
-y,x,1/2-z
loop_
_atom_site_type_symbol
_atom_site_label
_atom_site_fract_x
_atom_site_fract_y
_atom_site_fract_z
Si Si1 0.359323 0.729587 0.696104
Si Si2 0.494161 0.659664 0.107473
Si Si3 0.853664 0.078806 0.500000
Si Si4 0.239982 0.677235 0.184058
Si Si5 0.024541 0.338312 0.888870
Si Si6 0.855788 0.412218 0.500000
O O1 0.327268 0.576241 0.670333
O O2 0.521824 0.745621 0.709815
O O3 0.276405 0.768933 0.757155
O O4 0.315611 0.827876 0.641777
O O5 0.500000 0.500000 0.082461
O O6 0.337316 0.701853 0.125872
O O7 0.548287 0.766607 0.058137
O O8 0.764160 0.023431 0.444547
O O9 0.881286 0.245472 0.500000
O O10 0.000000 0.000000 0.500000
O O11 0.086386 0.710964 0.160870
O O12 0.000000 0.500000 0.908617
O O13 0.000000 0.500000 0.500000
#
# Coordination Sequence:
#
# PCOD8303088 Si02
#       6
#     8   8   4   8   8   4
#     4  10  18  38  61  96 127 163 206 266 319 363
#     4  10  21  39  70  93 124 165 212 268 318 366
#     4  12  27  48  64  84 134 172 211 264 318 374
#     4  10  20  35  65  97 128 159 210 259 321 376
#     4  10  23  43  67  92 120 173 219 256 307 380
#     4  12  27  46  62  96 128 164 215 272 322 376
#
# _framework density 19.563897000000001
#
# number of rings (size 3 to 8) (size 9 to 14) (size 15 to 20)
#    0.000    1.600    4.000    0.600    2.800    0.000 
#    7.200    0.000    0.000    0.000    0.000    0.000 
#    0.000    0.000    0.000    0.000    0.000    0.000 
#
# Total GULP energy -495851.653107 kJ/mol
# GULP energy per Si atom -12396.291328 kJ/mol
# Density = 1.951937 g / cm^3
# Si number density = 19.563897 Si / 1000 Ang^3
#
#
#
# Elastic Constant Matrix: (Units=GPa)
#
#
# Indices 1 2 3 4 5 6 
#
# 1 79.3297 45.7063 42.4663 0.0000 0.0000 1.4157
# 2 45.7063 79.3297 42.4663 0.0000 0.0000 -1.4157
# 3 42.4663 42.4663 111.6372 0.0000 0.0000 0.0000
# 4 0.0000 0.0000 0.0000 -0.9498 0.0000 0.0000
# 5 0.0000 0.0000 0.0000 0.0000 -0.9498 0.0000
# 6 1.4157 -1.4157 0.0000 0.0000 0.0000 26.4710
#
#
#
# Elastic Compliance Matrix: (Units=1/GPa)
#
#
# Indices 1 2 3 4 5 6 
#
# 1 0.020330 -0.009546 -0.004102 0.000000 0.000000 -0.001598
# 2 -0.009546 0.020330 -0.004102 0.000000 0.000000 0.001598
# 3 -0.004102 -0.004102 0.012079 0.000000 0.000000 0.000000
# 4 0.000000 0.000000 0.000000 -1.052814 0.000000 0.000000
# 5 0.000000 0.000000 0.000000 0.000000 -1.052814 0.000000
# 6 -0.001598 0.001598 0.000000 0.000000 0.000000 0.037948
#
#
# Mechanical properties :
#
#
# Convention : Reuss Voigt Hill
#
# Bulk Modulus (GPa) = 58.01164 59.06384 58.53774
# Shear Modulus (GPa) = -2.53332 14.22477 5.84572
#
# Velocity S-wave (km/s) = -1.13917 2.69939 1.73046
# Velocity P-wave (km/s) = 5.29023 6.32229 5.82915
#
# Compressibility (1/GPa) = 0.01723792
#
# Stress axis : x y z
#
# Youngs Moduli (GPa) = 49.18836 49.18836 82.79125
#
# Poissons Ratio (x) = 0.46954 0.33963
# Poissons Ratio (y) = 0.46954 0.33963
# Poissons Ratio (z) = 0.20178 0.20178
#
# Static dielectric constant tensor:
#      x y z
#    x 4.001140 0.000000 0.000000 
#    y 0.000000 4.001140 0.000000 
#    z 0.000000 0.000000 3.530970 
# 
# 
# High freq. dielectric constant tensor:
#      x y z
#    x 1.753720 0.000000 0.000000 
#    y 0.000000 1.753720 0.000000 
#    z 0.000000 0.000000 1.771670 
# 
# From -- ./inp_files/4892.got.cif
#   From: 2010.03.12/outbox.cif.g09.slc.cpg/sg84_3_cif.got.tgz:4892.got - 2010.04.08 20:07:29.
