data_PCOD8303537
_publ_section_title
;
Structure prediction by ZEFSAII (Michael W. Deem and Ramdas Pophale) SiO2 
 PCOD8303537
Probable space group: P 42/N
;
_chemical_formula_sum "Si O2"
_cell_formula_units_Z 48
_cell_length_a 11.570869
_cell_length_b 11.570869
_cell_length_c 17.998069
_cell_angle_alpha 90.000000
_cell_angle_beta 90.000000
_cell_angle_gamma 90.000000
_cell_volume 2409.671638
_symmetry_space_group_name_H-M "P 42/N"
_symmetry_group_IT_number 86
_space_group.IT_coordinate_system_code '2'
_symmetry_cell_setting 'tetragonal'
loop_
_space_group_symop_operation_xyz
x,y,z
-y,1/2+x,1/2+z
1/2-x,1/2-y,z
1/2+y,-x,1/2+z
-x,-y,-z
y,1/2-x,1/2-z
1/2+x,1/2+y,-z
1/2-y,x,1/2-z
loop_
_atom_site_type_symbol
_atom_site_label
_atom_site_fract_x
_atom_site_fract_y
_atom_site_fract_z
Si Si1 0.681957 0.998787 0.539184
Si Si2 0.209671 0.067883 0.881941
Si Si3 0.134940 0.823108 0.655552
Si Si4 0.639602 0.328682 0.180121
Si Si5 0.289209 0.429595 0.600230
Si Si6 0.520733 0.168969 0.461571
O O1 0.784699 0.936861 0.491511
O O2 0.580490 0.914586 0.566893
O O3 0.722800 0.055764 0.616245
O O4 0.635217 0.094956 0.480689
O O5 0.331075 0.129105 0.864824
O O6 0.102539 0.157555 0.876276
O O7 0.178309 0.962108 0.828622
O O8 0.230888 0.020315 0.964151
O O9 0.250000 0.750000 0.652436
O O10 0.081017 0.818953 0.738648
O O11 0.042946 0.767287 0.599479
O O12 0.164705 0.953610 0.634968
O O13 0.750000 0.250000 0.176071
#
# Coordination Sequence:
#
# PCOD8303537 Si02
#       6
#     8   8   8   8   8   8
#     4   9  18  36  60  77 109 158 195 238 289 341
#     4   9  21  39  60  90 119 150 195 249 305 342
#     4  11  22  35  55  86 119 154 198 238 293 364
#     4  10  23  38  53  84 122 158 195 242 294 357
#     4  10  20  37  64  90 114 151 199 249 297 355
#     4   9  18  35  58  81 110 151 197 237 285 351
#
# _framework density 19.919727999999999
#
# number of rings (size 3 to 8) (size 9 to 14) (size 15 to 20)
#    0.000    2.333    1.667    1.000    4.667    2.000 
#    3.000    1.667    0.000    0.000    0.000    0.000 
#    0.000    0.000    0.000    0.000    0.000    0.000 
#
# Total GULP energy -594820.214462 kJ/mol
# GULP energy per Si atom -12392.087801 kJ/mol
# Density = 1.987439 g / cm^3
# Si number density = 19.919728 Si / 1000 Ang^3
#
#
#
# Elastic Constant Matrix: (Units=GPa)
#
#
# Indices 1 2 3 4 5 6 
#
# 1 66.3241 9.6819 20.0991 0.0000 0.0000 -3.9564
# 2 9.6819 66.3241 20.0991 0.0000 0.0000 3.9564
# 3 20.0991 20.0991 92.9068 0.0000 0.0000 0.0000
# 4 0.0000 0.0000 0.0000 -1.2660 0.0000 0.0000
# 5 0.0000 0.0000 0.0000 0.0000 -1.2660 0.0000
# 6 -3.9564 3.9564 0.0000 0.0000 0.0000 20.6804
#
#
#
# Elastic Compliance Matrix: (Units=1/GPa)
#
#
# Indices 1 2 3 4 5 6 
#
# 1 0.016498 -0.001641 -0.003214 0.000000 0.000000 0.003470
# 2 -0.001641 0.016498 -0.003214 0.000000 0.000000 -0.003470
# 3 -0.003214 -0.003214 0.012154 0.000000 0.000000 0.000000
# 4 0.000000 0.000000 0.000000 -0.789914 0.000000 0.000000
# 5 0.000000 0.000000 0.000000 0.000000 -0.789914 0.000000
# 6 0.003470 -0.003470 0.000000 0.000000 0.000000 0.049683
#
#
# Mechanical properties :
#
#
# Convention : Reuss Voigt Hill
#
# Bulk Modulus (GPa) = 34.46929 36.14615 35.30772
# Shear Modulus (GPa) = -3.42657 15.34134 5.95739
#
# Velocity S-wave (km/s) = -1.31298 2.77818 1.73124
# Velocity P-wave (km/s) = 3.87854 5.33633 4.66473
#
# Compressibility (1/GPa) = 0.02901133
#
# Stress axis : x y z
#
# Youngs Moduli (GPa) = 60.61307 60.61307 82.27669
#
# Poissons Ratio (x) = 0.09949 0.26444
# Poissons Ratio (y) = 0.09949 0.26444
# Poissons Ratio (z) = 0.19481 0.19481
#
# Static dielectric constant tensor:
#      x y z
#    x 3.662170 0.000000 0.000000 
#    y 0.000000 3.662170 0.000000 
#    z 0.000000 0.000000 3.757440 
# 
# 
# High freq. dielectric constant tensor:
#      x y z
#    x 1.766530 0.000000 0.000000 
#    y 0.000000 1.766530 0.000000 
#    z 0.000000 0.000000 1.771050 
# 
# From -- ./inp_files/3569.got.cif
#   From: 2010.03.12/outbox.cif.g09.slc.cpg/sg86_2_cif.got.tgz:3569.got - 2010.04.08 20:12:58.
