data_PCOD8303736
_publ_section_title
;
Structure prediction by ZEFSAII (Michael W. Deem and Ramdas Pophale) SiO2 
 PCOD8303736
Probable space group: I 4/M
;
_chemical_formula_sum "Si O2"
_cell_formula_units_Z 96
_cell_length_a 25.383974
_cell_length_b 25.383974
_cell_length_c 8.915704
_cell_angle_alpha 90.000000
_cell_angle_beta 90.000000
_cell_angle_gamma 90.000000
_cell_volume 5744.799422
_symmetry_space_group_name_H-M "I 4/M"
_symmetry_group_IT_number 87
_symmetry_cell_setting 'tetragonal'
loop_
_space_group_symop_operation_xyz
x,y,z
-y,x,z
-x,-y,z
y,-x,z
-x,-y,-z
y,-x,-z
x,y,-z
-y,x,-z
1/2+x,1/2+y,1/2+z
1/2-y,1/2+x,1/2+z
1/2-x,1/2-y,1/2+z
1/2+y,1/2-x,1/2+z
1/2-x,1/2-y,1/2-z
1/2+y,1/2-x,1/2-z
1/2+x,1/2+y,1/2-z
1/2-y,1/2+x,1/2-z
loop_
_atom_site_type_symbol
_atom_site_label
_atom_site_fract_x
_atom_site_fract_y
_atom_site_fract_z
Si Si1 0.938759 0.642556 0.674067
Si Si2 0.058640 0.861214 0.672669
Si Si3 0.060543 0.145457 0.679152
Si Si4 0.246899 0.450726 0.170636
Si Si5 0.941232 0.747843 0.175130
Si Si6 0.867097 0.561283 0.170152
O O1 0.931340 0.653499 0.500000
O O2 0.905519 0.591547 0.719174
O O3 0.916227 0.693750 0.760934
O O4 0.999697 0.631564 0.712980
O O5 0.055486 0.876587 0.500000
O O6 0.098753 0.902833 0.746950
O O7 0.081414 0.801387 0.695028
O O8 0.999175 0.865222 0.737491
O O9 0.063069 0.149222 0.500000
O O10 0.082787 0.200293 0.745505
O O11 0.246012 0.496863 0.291521
O O12 0.193313 0.416984 0.190325
O O13 0.247267 0.474858 0.000000
O O14 0.929836 0.751092 0.000000
O O15 0.886422 0.570091 0.000000
#
# Coordination Sequence:
#
# PCOD8303736 Si02
#       6
#    16  16  16  16  16  16
#     4  10  20  33  49  69  94 122 151 185 225 270
#     4   8  14  25  45  69  93 122 154 189 227 271
#     4   9  16  28  45  67  94 123 155 189 229 274
#     4   8  15  30  48  67  91 120 155 191 227 267
#     4  10  18  29  46  66  88 118 156 193 227 266
#     4   9  18  31  47  68  94 121 149 185 226 268
#
# _framework density 16.710767000000001
#
# number of rings (size 3 to 8) (size 9 to 14) (size 15 to 20)
#    0.000    3.000    0.000    4.000    0.000    4.000 
#    0.000    6.667    0.000    1.000    0.000    4.667 
#    0.000    0.000    0.000    0.000    0.000    0.000 
#
# Total GULP energy -594707.884578 kJ/mol
# GULP energy per Si atom -12389.747595 kJ/mol
# Density = 1.667273 g / cm^3
# Si number density = 16.710767 Si / 1000 Ang^3
#
#
#
# Elastic Constant Matrix: (Units=GPa)
#
#
# Indices 1 2 3 4 5 6 
#
# 1 95.6701 61.1948 32.5906 0.0000 0.0000 -0.2727
# 2 61.1948 95.6701 32.5906 0.0000 0.0000 0.2727
# 3 32.5906 32.5906 57.0108 0.0000 0.0000 0.0000
# 4 0.0000 0.0000 0.0000 17.5512 0.0000 0.0000
# 5 0.0000 0.0000 0.0000 0.0000 17.5512 0.0000
# 6 -0.2727 0.2727 0.0000 0.0000 0.0000 5.2845
#
#
#
# Elastic Compliance Matrix: (Units=1/GPa)
#
#
# Indices 1 2 3 4 5 6 
#
# 1 0.018695 -0.010335 -0.004780 0.000000 0.000000 0.001498
# 2 -0.010335 0.018695 -0.004780 0.000000 0.000000 -0.001498
# 3 -0.004780 -0.004780 0.023005 0.000000 0.000000 0.000000
# 4 0.000000 0.000000 0.000000 0.056976 0.000000 0.000000
# 5 0.000000 0.000000 0.000000 0.000000 0.056976 0.000000
# 6 0.001498 -0.001498 0.000000 0.000000 0.000000 0.189388
#
#
# Mechanical properties :
#
#
# Convention : Reuss Voigt Hill
#
# Bulk Modulus (GPa) = 48.52337 55.67813 52.10075
# Shear Modulus (GPa) = 12.18346 16.20906 14.19626
#
# Velocity S-wave (km/s) = 2.70307 3.11782 2.91783
# Velocity P-wave (km/s) = 6.23236 6.80824 6.52666
#
# Compressibility (1/GPa) = 0.02060863
#
# Stress axis : x y z
#
# Youngs Moduli (GPa) = 53.48887 53.48887 43.46861
#
# Poissons Ratio (x) = 0.55278 0.20776
# Poissons Ratio (y) = 0.55278 0.20776
# Poissons Ratio (z) = 0.25566 0.25566
#
# Static dielectric constant tensor:
#      x y z
#    x 3.222760 0.000000 0.000000 
#    y 0.000000 3.222760 0.000000 
#    z 0.000000 0.000000 2.892360 
# 
# 
# High freq. dielectric constant tensor:
#      x y z
#    x 1.628350 0.000000 0.000000 
#    y 0.000000 1.628350 0.000000 
#    z 0.000000 0.000000 1.626060 
# 
# From -- ./inp_files/1427.got.cif
#   From: 2010.03.12/outbox.cif.g09.slc.cpg/sg87_1_cif.got.tgz:1427.got - 2010.04.08 20:16:13.
