data_PCOD8303166
_publ_section_title
;
Structure prediction by ZEFSAII (Michael W. Deem and Ramdas Pophale) SiO2 
 PCOD8303166
Probable space group: P 42/M
;
_chemical_formula_sum "Si O2"
_cell_formula_units_Z 48
_cell_length_a 11.565469
_cell_length_b 11.565469
_cell_length_c 19.622631
_cell_angle_alpha 90.000000
_cell_angle_beta 90.000000
_cell_angle_gamma 90.000000
_cell_volume 2624.724559
_symmetry_space_group_name_H-M "P 42/M"
_symmetry_group_IT_number 84
_symmetry_cell_setting 'tetragonal'
loop_
_space_group_symop_operation_xyz
x,y,z
-y,x,1/2+z
-x,-y,z
y,-x,1/2+z
-x,-y,-z
y,-x,1/2-z
x,y,-z
-y,x,1/2-z
loop_
_atom_site_type_symbol
_atom_site_label
_atom_site_fract_x
_atom_site_fract_y
_atom_site_fract_z
Si Si1 0.477215 0.127284 0.859956
Si Si2 0.251332 0.192892 0.923832
Si Si3 0.408854 0.139237 0.706597
Si Si4 0.874261 0.043085 0.922320
Si Si5 0.109875 0.338851 0.817785
Si Si6 0.274737 0.805855 0.825416
O O1 0.386787 0.201374 0.904491
O O2 0.418088 0.110651 0.786477
O O3 0.598799 0.194736 0.859637
O O4 0.500000 0.000000 0.891207
O O5 0.165553 0.265243 0.877271
O O6 0.217625 0.059373 0.918046
O O7 0.235047 0.240492 0.000000
O O8 0.536316 0.172376 0.680427
O O9 0.327488 0.247400 0.690942
O O10 0.356744 0.026304 0.669308
O O11 0.825261 0.143886 0.874199
O O12 0.885758 0.089596 0.000000
O O13 0.000000 0.000000 0.896262
O O14 0.124381 0.274657 0.745426
#
# Coordination Sequence:
#
# PCOD8303166 Si02
#       6
#     8   8   8   8   8   8
#     4  11  19  36  56  85 114 147 190 235 278 341
#     4  11  22  37  58  83 117 154 191 234 283 343
#     4  10  19  36  57  83 109 149 183 243 287 331
#     4  10  21  36  53  84 122 150 183 230 288 348
#     4  10  20  36  57  81 115 142 195 236 283 341
#     4  11  20  34  59  81 113 150 186 236 286 332
#
# _framework density 18.287635000000002
#
# number of rings (size 3 to 8) (size 9 to 14) (size 15 to 20)
#    0.000    1.500    6.667    1.000    0.000    1.000 
#    0.000    3.333    0.000    1.000    0.000    0.000 
#    0.000    0.000    0.000    0.000    0.000    0.000 
#
# Total GULP energy -595219.455620 kJ/mol
# GULP energy per Si atom -12400.405325 kJ/mol
# Density = 1.824601 g / cm^3
# Si number density = 18.287635 Si / 1000 Ang^3
#
#
#
# Elastic Constant Matrix: (Units=GPa)
#
#
# Indices 1 2 3 4 5 6 
#
# 1 78.9673 29.0519 27.4843 0.0000 0.0000 -0.6348
# 2 29.0519 78.9673 27.4843 0.0000 0.0000 0.6348
# 3 27.4843 27.4843 83.6907 0.0000 0.0000 0.0000
# 4 0.0000 0.0000 0.0000 22.8138 0.0000 0.0000
# 5 0.0000 0.0000 0.0000 0.0000 22.8138 0.0000
# 6 -0.6348 0.6348 0.0000 0.0000 0.0000 34.8641
#
#
#
# Elastic Compliance Matrix: (Units=1/GPa)
#
#
# Indices 1 2 3 4 5 6 
#
# 1 0.015579 -0.004464 -0.003650 0.000000 0.000000 0.000365
# 2 -0.004464 0.015579 -0.003650 0.000000 0.000000 -0.000365
# 3 -0.003650 -0.003650 0.014346 0.000000 0.000000 0.000000
# 4 0.000000 0.000000 0.000000 0.043833 0.000000 0.000000
# 5 0.000000 0.000000 0.000000 0.000000 0.043833 0.000000
# 6 0.000365 -0.000365 0.000000 0.000000 0.000000 0.028696
#
#
# Mechanical properties :
#
#
# Convention : Reuss Voigt Hill
#
# Bulk Modulus (GPa) = 45.50508 45.51845 45.51177
# Shear Modulus (GPa) = 25.94421 26.60532 26.27477
#
# Velocity S-wave (km/s) = 3.77062 3.81836 3.79456
# Velocity P-wave (km/s) = 6.62523 6.66214 6.64371
#
# Compressibility (1/GPa) = 0.02197557
#
# Stress axis : x y z
#
# Youngs Moduli (GPa) = 64.18834 64.18834 69.70454
#
# Poissons Ratio (x) = 0.28654 0.25444
# Poissons Ratio (y) = 0.28654 0.25444
# Poissons Ratio (z) = 0.23430 0.23430
#
# Static dielectric constant tensor:
#      x y z
#    x 3.364390 0.000000 0.000000 
#    y 0.000000 3.364390 0.000000 
#    z 0.000000 0.000000 3.289340 
# 
# 
# High freq. dielectric constant tensor:
#      x y z
#    x 1.703840 0.000000 0.000000 
#    y 0.000000 1.703840 0.000000 
#    z 0.000000 0.000000 1.695330 
# 
# From -- ./inp_files/3733.got.cif
#   From: 2010.03.12/outbox.cif.g09.slc.cpg/sg84_2_cif.got.tgz:3733.got - 2010.04.08 20:07:29.
