data_PCOD8303769
_publ_section_title
;
Structure prediction by ZEFSAII (Michael W. Deem and Ramdas Pophale) SiO2 
 PCOD8303769
Probable space group: I 4/M
;
_chemical_formula_sum "Si O2"
_cell_formula_units_Z 96
_cell_length_a 25.305376
_cell_length_b 25.305376
_cell_length_c 8.947532
_cell_angle_alpha 90.000000
_cell_angle_beta 90.000000
_cell_angle_gamma 90.000000
_cell_volume 5729.659974
_symmetry_space_group_name_H-M "I 4/M"
_symmetry_group_IT_number 87
_symmetry_cell_setting 'tetragonal'
loop_
_space_group_symop_operation_xyz
x,y,z
-y,x,z
-x,-y,z
y,-x,z
-x,-y,-z
y,-x,-z
x,y,-z
-y,x,-z
1/2+x,1/2+y,1/2+z
1/2-y,1/2+x,1/2+z
1/2-x,1/2-y,1/2+z
1/2+y,1/2-x,1/2+z
1/2-x,1/2-y,1/2-z
1/2+y,1/2-x,1/2-z
1/2+x,1/2+y,1/2-z
1/2-y,1/2+x,1/2-z
loop_
_atom_site_type_symbol
_atom_site_label
_atom_site_fract_x
_atom_site_fract_y
_atom_site_fract_z
Si Si1 0.305095 0.889013 0.824291
Si Si2 0.995430 0.305756 0.173737
Si Si3 0.314606 0.605516 0.323476
Si Si4 0.312789 0.387071 0.170207
Si Si5 0.309713 0.108598 0.675670
Si Si6 0.804357 0.003751 0.327778
O O1 0.245090 0.883230 0.763952
O O2 0.343105 0.843913 0.755170
O O3 0.330267 0.946863 0.786775
O O4 0.302022 0.880935 0.000000
O O5 0.946721 0.332746 0.260363
O O6 0.999621 0.245107 0.219046
O O7 0.982973 0.310161 0.000000
O O8 0.316701 0.595530 0.500000
O O9 0.350365 0.655320 0.282660
O O10 0.337616 0.553604 0.236245
O O11 0.251424 0.383595 0.219103
O O12 0.334450 0.447456 0.183746
O O13 0.319478 0.366994 0.000000
O O14 0.316965 0.105152 0.500000
O O15 0.787484 0.013501 0.500000
#
# Coordination Sequence:
#
# PCOD8303769 Si02
#       6
#    16  16  16  16  16  16
#     4   8  16  30  46  65  92 123 151 185 230 273
#     4   9  16  28  46  68  91 115 151 196 234 266
#     4  10  19  30  47  70  95 122 151 188 231 269
#     4   9  18  30  46  68  92 120 152 185 222 270
#     4   9  17  31  48  65  90 125 158 185 222 275
#     4   9  17  31  49  66  88 121 158 189 220 267
#
# _framework density 16.754919999999998
#
# number of rings (size 3 to 8) (size 9 to 14) (size 15 to 20)
#    0.000    3.000    0.000    3.500    0.000    4.000 
#    0.000    5.000    0.000    1.000    0.000    7.000 
#    0.000    0.000    0.000    0.000    0.000    0.000 
#
# Total GULP energy -594713.160890 kJ/mol
# GULP energy per Si atom -12389.857519 kJ/mol
# Density = 1.671678 g / cm^3
# Si number density = 16.754920 Si / 1000 Ang^3
#
#
#
# Elastic Constant Matrix: (Units=GPa)
#
#
# Indices 1 2 3 4 5 6 
#
# 1 93.2349 57.6292 36.0301 0.0000 0.0000 -0.2148
# 2 57.6292 93.2349 36.0301 0.0000 0.0000 0.2148
# 3 36.0301 36.0301 41.1669 0.0000 0.0000 0.0000
# 4 0.0000 0.0000 0.0000 22.9730 0.0000 0.0000
# 5 0.0000 0.0000 0.0000 0.0000 22.9730 0.0000
# 6 -0.2148 0.2148 0.0000 0.0000 0.0000 4.8286
#
#
#
# Elastic Compliance Matrix: (Units=1/GPa)
#
#
# Indices 1 2 3 4 5 6 
#
# 1 0.019745 -0.008355 -0.009969 0.000000 0.000000 0.001250
# 2 -0.008355 0.019745 -0.009969 0.000000 0.000000 -0.001250
# 3 -0.009969 -0.009969 0.041741 0.000000 0.000000 0.000000
# 4 0.000000 0.000000 0.000000 0.043529 0.000000 0.000000
# 5 0.000000 0.000000 0.000000 0.000000 0.043529 0.000000
# 6 0.001250 -0.001250 0.000000 0.000000 0.000000 0.207212
#
#
# Mechanical properties :
#
#
# Convention : Reuss Voigt Hill
#
# Bulk Modulus (GPa) = 40.57444 54.11284 47.34364
# Shear Modulus (GPa) = 11.35580 16.68475 14.02027
#
# Velocity S-wave (km/s) = 2.60620 3.15907 2.89586
# Velocity P-wave (km/s) = 5.77282 6.75819 6.28484
#
# Compressibility (1/GPa) = 0.02464606
#
# Stress axis : x y z
#
# Youngs Moduli (GPa) = 50.64499 50.64499 23.95711
#
# Poissons Ratio (x) = 0.42315 0.23882
# Poissons Ratio (y) = 0.42315 0.23882
# Poissons Ratio (z) = 0.50487 0.50487
#
# Static dielectric constant tensor:
#      x y z
#    x 3.323930 0.000000 0.000000 
#    y 0.000000 3.323930 0.000000 
#    z 0.000000 0.000000 3.061550 
# 
# 
# High freq. dielectric constant tensor:
#      x y z
#    x 1.628830 0.000000 0.000000 
#    y 0.000000 1.628830 0.000000 
#    z 0.000000 0.000000 1.641020 
# 
# From -- ./inp_files/1435.got.cif
#   From: 2010.03.12/outbox.cif.g09.slc.cpg/sg87_1_cif.got.tgz:1435.got - 2010.04.08 20:16:13.
