data_PCOD8303994
_publ_section_title
;
Structure prediction by ZEFSAII (Michael W. Deem and Ramdas Pophale) SiO2 
 PCOD8303994
Probable space group: I 4/M
;
_chemical_formula_sum "Si O2"
_cell_formula_units_Z 96
_cell_length_a 20.069916
_cell_length_b 20.069916
_cell_length_c 12.548859
_cell_angle_alpha 90.000000
_cell_angle_beta 90.000000
_cell_angle_gamma 90.000000
_cell_volume 5054.699583
_symmetry_space_group_name_H-M "I 4/M"
_symmetry_group_IT_number 87
_symmetry_cell_setting 'tetragonal'
loop_
_space_group_symop_operation_xyz
x,y,z
-y,x,z
-x,-y,z
y,-x,z
-x,-y,-z
y,-x,-z
x,y,-z
-y,x,-z
1/2+x,1/2+y,1/2+z
1/2-y,1/2+x,1/2+z
1/2-x,1/2-y,1/2+z
1/2+y,1/2-x,1/2+z
1/2-x,1/2-y,1/2-z
1/2+y,1/2-x,1/2-z
1/2+x,1/2+y,1/2-z
1/2-y,1/2+x,1/2-z
loop_
_atom_site_type_symbol
_atom_site_label
_atom_site_fract_x
_atom_site_fract_y
_atom_site_fract_z
Si Si1 0.370062 0.130436 0.754041
Si Si2 0.663044 0.996551 0.623549
Si Si3 0.176675 0.234359 0.218946
Si Si4 0.027475 0.811318 0.692035
Si Si5 0.266413 0.388293 0.621901
Si Si6 0.894523 0.850799 0.621482
O O1 0.372375 0.067609 0.675949
O O2 0.438101 0.133745 0.819835
O O3 0.361115 0.198046 0.681463
O O4 0.307379 0.127214 0.834634
O O5 0.643102 0.999090 0.500000
O O6 0.742489 0.990996 0.634088
O O7 0.250000 0.250000 0.250000
O O8 0.181955 0.174487 0.132723
O O9 0.142077 0.212378 0.328603
O O10 0.049555 0.797641 0.813467
O O11 0.085453 0.847475 0.627225
O O12 0.963491 0.859986 0.687464
O O13 0.261525 0.409890 0.500000
O O14 0.911538 0.834310 0.500000
#
# Coordination Sequence:
#
# PCOD8303994 Si02
#       6
#    16  16  16  16  16  16
#     4  10  21  37  59  88 119 150 202 247 295 371
#     4  11  22  40  62  85 119 158 195 251 312 353
#     4   9  19  33  55  88 117 146 198 247 288 355
#     4  10  22  36  57  90 122 154 203 243 289 366
#     4   9  19  37  59  84 118 159 201 247 297 346
#     4  11  20  35  59  87 122 158 190 243 306 352
#
# _framework density 18.992225999999999
#
# number of rings (size 3 to 8) (size 9 to 14) (size 15 to 20)
#    0.000    2.000    1.667    3.000    0.000    4.000 
#    0.000    9.167    0.000    0.000    0.000    4.667 
#    0.000    0.000    0.000    0.000    0.000    0.000 
#
# Total GULP energy -594896.674459 kJ/mol
# GULP energy per Si atom -12393.680718 kJ/mol
# Density = 1.894900 g / cm^3
# Si number density = 18.992226 Si / 1000 Ang^3
#
#
#
# Elastic Constant Matrix: (Units=GPa)
#
#
# Indices 1 2 3 4 5 6 
#
# 1 107.6399 35.1634 41.5984 0.0000 0.0000 -7.2059
# 2 35.1634 107.6399 41.5984 0.0000 0.0000 7.2059
# 3 41.5984 41.5984 102.9911 0.0000 0.0000 0.0000
# 4 0.0000 0.0000 0.0000 17.7714 0.0000 0.0000
# 5 0.0000 0.0000 0.0000 0.0000 17.7714 0.0000
# 6 -7.2059 7.2059 0.0000 0.0000 0.0000 19.3041
#
#
#
# Elastic Compliance Matrix: (Units=1/GPa)
#
#
# Indices 1 2 3 4 5 6 
#
# 1 0.012031 -0.002873 -0.003699 0.000000 0.000000 0.005563
# 2 -0.002873 0.012031 -0.003699 0.000000 0.000000 -0.005563
# 3 -0.003699 -0.003699 0.012697 0.000000 0.000000 0.000000
# 4 0.000000 0.000000 0.000000 0.056270 0.000000 0.000000
# 5 0.000000 0.000000 0.000000 0.000000 0.056270 0.000000
# 6 0.005563 -0.005563 0.000000 0.000000 0.000000 0.055956
#
#
# Mechanical properties :
#
#
# Convention : Reuss Voigt Hill
#
# Bulk Modulus (GPa) = 61.66182 61.66571 61.66376
# Shear Modulus (GPa) = 21.62608 24.29676 22.96142
#
# Velocity S-wave (km/s) = 3.37809 3.58061 3.48083
# Velocity P-wave (km/s) = 6.91033 7.04512 6.97805
#
# Compressibility (1/GPa) = 0.01621749
#
# Stress axis : x y z
#
# Youngs Moduli (GPa) = 83.12086 83.12086 78.75605
#
# Poissons Ratio (x) = 0.23882 0.29130
# Poissons Ratio (y) = 0.23882 0.29130
# Poissons Ratio (z) = 0.30744 0.30744
#
# Static dielectric constant tensor:
#      x y z
#    x 3.739840 0.000000 0.000000 
#    y 0.000000 3.739840 0.000000 
#    z 0.000000 0.000000 3.267120 
# 
# 
# High freq. dielectric constant tensor:
#      x y z
#    x 1.742790 0.000000 0.000000 
#    y 0.000000 1.742790 0.000000 
#    z 0.000000 0.000000 1.714060 
# 
# From -- ./inp_files/2750.got.cif
#   From: 2010.03.12/outbox.cif.g09.slc.cpg/sg87_2_cif.got.tgz:2750.got - 2010.04.08 20:16:13.
