data_PCOD8303449
_publ_section_title
;
Structure prediction by ZEFSAII (Michael W. Deem and Ramdas Pophale) SiO2 
 PCOD8303449
Probable space group: P 4/N
;
_chemical_formula_sum "Si O2"
_cell_formula_units_Z 56
_cell_length_a 15.263453
_cell_length_b 15.263453
_cell_length_c 11.053009
_cell_angle_alpha 90.000000
_cell_angle_beta 90.000000
_cell_angle_gamma 90.000000
_cell_volume 2575.052638
_symmetry_space_group_name_H-M "P 4/N"
_symmetry_group_IT_number 85
_symmetry_cell_setting 'tetragonal'
loop_
_space_group_symop_operation_xyz
x,y,z
1/2-y,x,z
1/2-x,1/2-y,z
y,1/2-x,z
-x,-y,-z
1/2+y,-x,-z
1/2+x,1/2+y,-z
-y,1/2+x,-z
loop_
_atom_site_type_symbol
_atom_site_label
_atom_site_fract_x
_atom_site_fract_y
_atom_site_fract_z
Si Si1 0.702224 0.492818 0.480824
Si Si2 0.014378 0.416100 0.082230
Si Si3 0.861974 0.845293 0.749454
Si Si4 0.350742 0.766090 0.304439
Si Si5 0.096374 0.925512 0.328128
Si Si6 0.805524 0.125669 0.040943
Si Si7 0.393411 0.051496 0.498062
O O1 0.683720 0.400660 0.411548
O O2 0.688612 0.466242 0.623333
O O3 0.635902 0.567649 0.433240
O O4 0.795730 0.534660 0.457108
O O5 0.115818 0.393016 0.118772
O O6 0.971053 0.438654 0.209383
O O7 0.000000 0.500000 0.000000
O O8 0.967667 0.334361 0.014282
O O9 0.759162 0.871983 0.736853
O O10 0.923101 0.892562 0.645875
O O11 0.250000 0.750000 0.337400
O O12 0.398168 0.674020 0.289081
O O13 0.365199 0.823466 0.183875
O O14 0.034267 0.945595 0.447448
O O15 0.701955 0.138584 0.022490
#
# Coordination Sequence:
#
# PCOD8303449 Si02
#       7
#     8   8   8   8   8   8   8
#     4  11  25  40  69  98 139 178 222 291 347 424
#     4  12  27  42  69  99 134 182 229 288 350 406
#     4  11  24  45  72 102 133 178 235 284 336 418
#     4  11  24  41  67  97 135 181 228 276 350 422
#     4  11  24  42  58 102 138 167 226 286 346 412
#     4  11  22  46  69  94 132 183 228 285 334 416
#     4  11  22  42  67  98 137 175 224 282 353 414
#
# _framework density 21.747129000000001
#
# number of rings (size 3 to 8) (size 9 to 14) (size 15 to 20)
#    0.000    0.857    5.714    0.429    8.000    0.286 
#    0.000    0.000    0.000    0.000    0.000    0.000 
#    0.000    0.000    0.000    0.000    0.000    0.000 
#
# Total GULP energy -693767.793576 kJ/mol
# GULP energy per Si atom -12388.710600 kJ/mol
# Density = 2.169763 g / cm^3
# Si number density = 21.747129 Si / 1000 Ang^3
#
#
#
# Elastic Constant Matrix: (Units=GPa)
#
#
# Indices 1 2 3 4 5 6 
#
# 1 62.3843 20.3848 56.0281 0.0000 0.0000 11.3343
# 2 20.3848 62.3843 56.0281 0.0000 0.0000 -11.3343
# 3 56.0281 56.0281 120.9829 0.0000 0.0000 0.0000
# 4 0.0000 0.0000 0.0000 39.7161 0.0000 0.0000
# 5 0.0000 0.0000 0.0000 0.0000 39.7161 0.0000
# 6 11.3343 -11.3343 0.0000 0.0000 0.0000 31.5406
#
#
#
# Elastic Compliance Matrix: (Units=1/GPa)
#
#
# Indices 1 2 3 4 5 6 
#
# 1 0.030964 0.001425 -0.014999 0.000000 0.000000 -0.010615
# 2 0.001425 0.030964 -0.014999 0.000000 0.000000 0.010615
# 3 -0.014999 -0.014999 0.022158 0.000000 0.000000 0.000000
# 4 0.000000 0.000000 0.000000 0.025179 0.000000 0.000000
# 5 0.000000 0.000000 0.000000 0.000000 0.025179 0.000000
# 6 -0.010615 0.010615 0.000000 0.000000 0.000000 0.039334
#
#
# Mechanical properties :
#
#
# Convention : Reuss Voigt Hill
#
# Bulk Modulus (GPa) = 37.12241 56.73704 46.92972
# Shear Modulus (GPa) = 20.84159 29.74862 25.29511
#
# Velocity S-wave (km/s) = 3.09910 3.70257 3.41419
# Velocity P-wave (km/s) = 5.46927 6.66519 6.09663
#
# Compressibility (1/GPa) = 0.02693791
#
# Stress axis : x y z
#
# Youngs Moduli (GPa) = 32.29574 32.29574 45.12984
#
# Poissons Ratio (x) = -0.04601 0.67692
# Poissons Ratio (y) = -0.04601 0.67692
# Poissons Ratio (z) = 0.48442 0.48442
#
# Static dielectric constant tensor:
#      x y z
#    x 4.204140 0.000000 0.000000 
#    y 0.000000 4.204140 0.000000 
#    z 0.000000 0.000000 4.047020 
# 
# 
# High freq. dielectric constant tensor:
#      x y z
#    x 1.862310 0.000000 0.000000 
#    y 0.000000 1.862310 0.000000 
#    z 0.000000 0.000000 1.843270 
# 
# From -- ./inp_files/1788.got.cif
#   From: 2010.03.12/outbox.cif.g09.slc.cpg/sg85_cif.got.tgz:1788.got - 2010.04.08 20:10:46.
