data_PCOD8303198
_publ_section_title
;
Structure prediction by ZEFSAII (Michael W. Deem and Ramdas Pophale) SiO2 
 PCOD8303198
Probable space group: P 42/M
;
_chemical_formula_sum "Si O2"
_cell_formula_units_Z 40
_cell_length_a 12.075153
_cell_length_b 12.075153
_cell_length_c 14.075268
_cell_angle_alpha 90.000000
_cell_angle_beta 90.000000
_cell_angle_gamma 90.000000
_cell_volume 2052.305256
_symmetry_space_group_name_H-M "P 42/M"
_symmetry_group_IT_number 84
_symmetry_cell_setting 'tetragonal'
loop_
_space_group_symop_operation_xyz
x,y,z
-y,x,1/2+z
-x,-y,z
y,-x,1/2+z
-x,-y,-z
y,-x,1/2-z
x,y,-z
-y,x,1/2-z
loop_
_atom_site_type_symbol
_atom_site_label
_atom_site_fract_x
_atom_site_fract_y
_atom_site_fract_z
Si Si1 0.334431 0.835875 0.107715
Si Si2 0.130220 0.683603 0.892022
Si Si3 0.080993 0.730271 0.392694
Si Si4 0.022944 0.120798 0.890062
Si Si5 0.877395 0.466252 0.275312
O O1 0.252030 0.733379 0.113891
O O2 0.430873 0.805733 0.184917
O O3 0.268202 0.949496 0.133179
O O4 0.382920 0.844101 0.000000
O O5 0.130193 0.565469 0.836225
O O6 0.044149 0.774374 0.845607
O O7 0.095886 0.655790 0.000000
O O8 0.094348 0.690954 0.500000
O O9 0.140976 0.847354 0.377093
O O10 0.152814 0.646797 0.329458
O O11 0.984282 0.114671 0.000000
O O12 0.000000 0.000000 0.842870
O O13 0.000000 0.500000 0.306025
#
# Coordination Sequence:
#
# PCOD8303198 Si02
#       5
#     8   8   8   8   8
#     4   9  17  33  55  75 100 138 184 229 266 308
#     4  10  20  34  54  78 107 146 183 218 271 328
#     4   9  16  28  48  75 109 145 177 212 258 311
#     4   9  15  28  49  76 112 144 170 206 258 328
#     4  10  21  33  49  76 109 141 183 224 265 318
#
# _framework density 19.490276000000001
#
# number of rings (size 3 to 8) (size 9 to 14) (size 15 to 20)
#    0.000    2.600    2.000    0.600    0.000    6.000 
#    0.000    0.000    0.000    3.000    0.000    2.800 
#    0.000    0.000    0.000    0.000    0.000    0.000 
#
# Total GULP energy -495663.747793 kJ/mol
# GULP energy per Si atom -12391.593695 kJ/mol
# Density = 1.944592 g / cm^3
# Si number density = 19.490276 Si / 1000 Ang^3
#
#
#
# Elastic Constant Matrix: (Units=GPa)
#
#
# Indices 1 2 3 4 5 6 
#
# 1 69.7316 21.7083 33.7548 0.0000 0.0000 -0.9231
# 2 21.7083 69.7316 33.7548 0.0000 0.0000 0.9231
# 3 33.7548 33.7548 73.7511 0.0000 0.0000 0.0000
# 4 0.0000 0.0000 0.0000 26.5681 0.0000 0.0000
# 5 0.0000 0.0000 0.0000 0.0000 26.5681 0.0000
# 6 -0.9231 0.9231 0.0000 0.0000 0.0000 7.4326
#
#
#
# Elastic Compliance Matrix: (Units=1/GPa)
#
#
# Indices 1 2 3 4 5 6 
#
# 1 0.018720 -0.002203 -0.007560 0.000000 0.000000 0.002599
# 2 -0.002203 0.018720 -0.007560 0.000000 0.000000 -0.002599
# 3 -0.007560 -0.007560 0.020479 0.000000 0.000000 0.000000
# 4 0.000000 0.000000 0.000000 0.037639 0.000000 0.000000
# 5 0.000000 0.000000 0.000000 0.000000 0.037639 0.000000
# 6 0.002599 -0.002599 0.000000 0.000000 0.000000 0.135188
#
#
# Mechanical properties :
#
#
# Convention : Reuss Voigt Hill
#
# Bulk Modulus (GPa) = 42.96472 43.51666 43.24069
# Shear Modulus (GPa) = 16.08808 20.38017 18.23412
#
# Velocity S-wave (km/s) = 2.87617 3.23717 3.06199
# Velocity P-wave (km/s) = 5.75516 6.02895 5.89364
#
# Compressibility (1/GPa) = 0.02327491
#
# Stress axis : x y z
#
# Youngs Moduli (GPa) = 53.41787 53.41787 48.83008
#
# Poissons Ratio (x) = 0.11767 0.36915
# Poissons Ratio (y) = 0.11767 0.36915
# Poissons Ratio (z) = 0.40383 0.40383
#
# Static dielectric constant tensor:
#      x y z
#    x 3.332630 0.000000 0.000000 
#    y 0.000000 3.332630 0.000000 
#    z 0.000000 0.000000 3.583650 
# 
# 
# High freq. dielectric constant tensor:
#      x y z
#    x 1.725450 0.000000 0.000000 
#    y 0.000000 1.725450 0.000000 
#    z 0.000000 0.000000 1.762600 
# 
# From -- ./inp_files/2892.got.cif
#   From: 2010.03.12/outbox.cif.g09.slc.cpg/sg84_2_cif.got.tgz:2892.got - 2010.04.08 20:07:29.
