data_PCOD8303995
_publ_section_title
;
Structure prediction by ZEFSAII (Michael W. Deem and Ramdas Pophale) SiO2 
 PCOD8303995
Probable space group: I 4/M
;
_chemical_formula_sum "Si O2"
_cell_formula_units_Z 64
_cell_length_a 10.293997
_cell_length_b 10.293997
_cell_length_c 27.877350
_cell_angle_alpha 90.000000
_cell_angle_beta 90.000000
_cell_angle_gamma 90.000000
_cell_volume 2954.061703
_symmetry_space_group_name_H-M "I 4/M"
_symmetry_group_IT_number 87
_symmetry_cell_setting 'tetragonal'
loop_
_space_group_symop_operation_xyz
x,y,z
-y,x,z
-x,-y,z
y,-x,z
-x,-y,-z
y,-x,-z
x,y,-z
-y,x,-z
1/2+x,1/2+y,1/2+z
1/2-y,1/2+x,1/2+z
1/2-x,1/2-y,1/2+z
1/2+y,1/2-x,1/2+z
1/2-x,1/2-y,1/2-z
1/2+y,1/2-x,1/2-z
1/2+x,1/2+y,1/2-z
1/2-y,1/2+x,1/2-z
loop_
_atom_site_type_symbol
_atom_site_label
_atom_site_fract_x
_atom_site_fract_y
_atom_site_fract_z
Si Si1 0.135469 0.539842 0.554604
Si Si2 0.349352 0.862588 0.266470
Si Si3 0.430646 0.301943 0.854666
Si Si4 0.295049 0.236410 0.945338
O O1 0.104444 0.580601 0.500000
O O2 0.232655 0.417986 0.556508
O O3 0.199332 0.666720 0.578221
O O4 0.000000 0.500000 0.580349
O O5 0.250000 0.750000 0.250000
O O6 0.500735 0.821717 0.261558
O O7 0.321229 0.887683 0.322840
O O8 0.577726 0.336896 0.842063
O O9 0.417597 0.271189 0.911610
O O10 0.327406 0.279173 0.000000
#
# Coordination Sequence:
#
# PCOD8303995 Si02
#       4
#    16  16  16  16
#     4   9  18  34  55  80 120 170 214 263 316 373
#     4  11  24  45  72 101 133 177 225 282 351 408
#     4  11  23  40  66  98 134 176 221 277 342 407
#     4  10  21  37  59  92 133 177 222 267 324 397
#
# _framework density 21.665088000000001
#
# number of rings (size 3 to 8) (size 9 to 14) (size 15 to 20)
#    0.000    1.750    2.500    1.500    0.000    6.000 
#    4.500    3.750    0.000    3.000    0.000    0.000 
#    0.000    0.000    0.000    0.000    0.000    0.000 
#
# Total GULP energy -396558.135514 kJ/mol
# GULP energy per Si atom -12392.441735 kJ/mol
# Density = 2.161578 g / cm^3
# Si number density = 21.665088 Si / 1000 Ang^3
#
#
#
# Elastic Constant Matrix: (Units=GPa)
#
#
# Indices 1 2 3 4 5 6 
#
# 1 121.9857 61.0449 35.4819 0.0000 0.0000 -7.3618
# 2 61.0449 121.9857 35.4820 0.0000 0.0000 7.3618
# 3 35.4819 35.4820 109.8096 0.0000 0.0000 0.0000
# 4 0.0000 0.0000 0.0000 29.2431 0.0000 0.0000
# 5 0.0000 0.0000 0.0000 0.0000 29.2431 0.0000
# 6 -7.3618 7.3618 0.0000 0.0000 0.0000 39.3706
#
#
#
# Elastic Compliance Matrix: (Units=1/GPa)
#
#
# Indices 1 2 3 4 5 6 
#
# 1 0.011716 -0.005470 -0.002018 0.000000 0.000000 0.003214
# 2 -0.005470 0.011716 -0.002018 0.000000 0.000000 -0.003214
# 3 -0.002018 -0.002018 0.010411 0.000000 0.000000 0.000000
# 4 0.000000 0.000000 0.000000 0.034196 0.000000 0.000000
# 5 0.000000 0.000000 0.000000 0.000000 0.034196 0.000000
# 6 0.003214 -0.003214 0.000000 0.000000 0.000000 0.026601
#
#
# Mechanical properties :
#
#
# Convention : Reuss Voigt Hill
#
# Bulk Modulus (GPa) = 67.43038 68.64431 68.03734
# Shear Modulus (GPa) = 32.72413 34.35619 33.54016
#
# Velocity S-wave (km/s) = 3.89067 3.98651 3.93888
# Velocity P-wave (km/s) = 7.16761 7.27618 7.22210
#
# Compressibility (1/GPa) = 0.01483011
#
# Stress axis : x y z
#
# Youngs Moduli (GPa) = 85.35394 85.35395 96.05272
#
# Poissons Ratio (x) = 0.46687 0.19386
# Poissons Ratio (y) = 0.46687 0.19386
# Poissons Ratio (z) = 0.17227 0.17227
#
# Static dielectric constant tensor:
#      x y z
#    x 4.078860 0.000000 0.000000 
#    y 0.000000 4.078860 0.000000 
#    z 0.000000 0.000000 3.661530 
# 
# 
# High freq. dielectric constant tensor:
#      x y z
#    x 1.853470 0.000000 0.000000 
#    y 0.000000 1.853470 0.000000 
#    z 0.000000 0.000000 1.824560 
# 
# From -- ./inp_files/6125.got.cif
#   From: 2010.03.12/outbox.cif.g09.slc.cpg/sg87_4_cif.got.tgz:6125.got - 2010.04.08 20:16:13.
