data_PCOD8303382
_publ_section_title
;
Structure prediction by ZEFSAII (Michael W. Deem and Ramdas Pophale) SiO2 
 PCOD8303382
Probable space group: P 42/M
;
_chemical_formula_sum "Si O2"
_cell_formula_units_Z 40
_cell_length_a 15.186178
_cell_length_b 15.186178
_cell_length_c 8.467361
_cell_angle_alpha 90.000000
_cell_angle_beta 90.000000
_cell_angle_gamma 90.000000
_cell_volume 1952.742813
_symmetry_space_group_name_H-M "P 42/M"
_symmetry_group_IT_number 84
_symmetry_cell_setting 'tetragonal'
loop_
_space_group_symop_operation_xyz
x,y,z
-y,x,1/2+z
-x,-y,z
y,-x,1/2+z
-x,-y,-z
y,-x,1/2-z
x,y,-z
-y,x,1/2-z
loop_
_atom_site_type_symbol
_atom_site_label
_atom_site_fract_x
_atom_site_fract_y
_atom_site_fract_z
Si Si1 0.796999 0.834769 0.184320
Si Si2 0.657054 0.699471 0.681598
Si Si3 0.425444 0.932438 0.319115
Si Si4 0.755343 0.522637 0.680138
Si Si5 0.968068 0.758337 0.317424
O O1 0.735889 0.765995 0.276283
O O2 0.899407 0.815878 0.217367
O O3 0.777252 0.933467 0.243961
O O4 0.776553 0.825011 0.000000
O O5 0.631898 0.715074 0.500000
O O6 0.685266 0.599263 0.713071
O O7 0.572092 0.712994 0.789540
O O8 0.395712 0.946297 0.500000
O O9 0.464769 0.835805 0.298943
O O10 0.344028 0.946965 0.203730
O O11 0.500000 0.000000 0.267634
O O12 0.788917 0.526997 0.500000
O O13 0.957932 0.783925 0.500000
#
# Coordination Sequence:
#
# PCOD8303382 Si02
#       5
#     8   8   8   8   8
#     4  11  24  42  66  94 128 171 215 266 324 384
#     4  11  24  42  65  94 129 169 215 268 322 382
#     4  11  23  39  63  95 127 165 214 266 321 380
#     4  11  24  41  64  93 127 170 214 264 322 381
#     4  11  24  41  63  93 128 168 214 265 321 384
#
# _framework density 20.484007999999999
#
# number of rings (size 3 to 8) (size 9 to 14) (size 15 to 20)
#    0.000    1.000    2.000    4.200    0.000   11.200 
#    0.000    4.000    0.000    0.000    0.000    0.000 
#    0.000    0.000    0.000    0.000    0.000    0.000 
#
# Total GULP energy -496294.032884 kJ/mol
# GULP energy per Si atom -12407.350822 kJ/mol
# Density = 2.043739 g / cm^3
# Si number density = 20.484008 Si / 1000 Ang^3
#
#
#
# Elastic Constant Matrix: (Units=GPa)
#
#
# Indices 1 2 3 4 5 6 
#
# 1 108.4742 55.8719 22.8955 0.0000 0.0000 -22.3030
# 2 55.8719 108.4742 22.8955 0.0000 0.0000 22.3030
# 3 22.8955 22.8955 41.5730 0.0000 0.0000 0.0000
# 4 0.0000 0.0000 0.0000 24.0288 0.0000 0.0000
# 5 0.0000 0.0000 0.0000 0.0000 24.0288 0.0000
# 6 -22.3030 22.3030 0.0000 0.0000 0.0000 4.0686
#
#
#
# Elastic Compliance Matrix: (Units=1/GPa)
#
#
# Indices 1 2 3 4 5 6 
#
# 1 0.000988 0.006199 -0.003958 0.000000 0.000000 -0.028563
# 2 0.006199 0.000988 -0.003958 0.000000 0.000000 0.028563
# 3 -0.003958 -0.003958 0.028414 0.000000 0.000000 0.000000
# 4 0.000000 0.000000 0.000000 0.041617 0.000000 0.000000
# 5 0.000000 0.000000 0.000000 0.000000 0.041617 0.000000
# 6 -0.028563 0.028563 0.000000 0.000000 0.000000 -0.067367
#
#
# Mechanical properties :
#
#
# Convention : Reuss Voigt Hill
#
# Bulk Modulus (GPa) = 37.09804 51.31639 44.20722
# Shear Modulus (GPa) = 85.21068 20.88248 53.04658
#
# Velocity S-wave (km/s) = 6.45670 3.19635 5.09439
# Velocity P-wave (km/s) = 8.58693 6.22323 7.49879
#
# Compressibility (1/GPa) = 0.02695560
#
# Stress axis : x y z
#
# Youngs Moduli (GPa) = 1011.64712 1011.64712 35.19375
#
# Poissons Ratio (x) = -6.27136 0.13931
# Poissons Ratio (y) = -6.27136 0.13931
# Poissons Ratio (z) = 4.00456 4.00456
#
# Static dielectric constant tensor:
#      x y z
#    x 3.874040 0.000000 0.000000 
#    y 0.000000 3.874040 0.000000 
#    z 0.000000 0.000000 3.634980 
# 
# 
# High freq. dielectric constant tensor:
#      x y z
#    x 1.808510 0.000000 0.000000 
#    y 0.000000 1.808510 0.000000 
#    z 0.000000 0.000000 1.808250 
# 
# From -- ./inp_files/749.got.cif
#   From: 2010.03.12/outbox.cif.g09.slc.cpg/sg84_1_cif.got.tgz:749.got - 2010.04.08 20:07:29.
