data_PCOD8303683
_publ_section_title
;
Structure prediction by ZEFSAII (Michael W. Deem and Ramdas Pophale) SiO2 
 PCOD8303683
Probable space group: P 42/N
;
_chemical_formula_sum "Si O2"
_cell_formula_units_Z 40
_cell_length_a 12.200482
_cell_length_b 12.200482
_cell_length_c 12.764582
_cell_angle_alpha 90.000000
_cell_angle_beta 90.000000
_cell_angle_gamma 90.000000
_cell_volume 1900.030510
_symmetry_space_group_name_H-M "P 42/N"
_symmetry_group_IT_number 86
_space_group.IT_coordinate_system_code '2'
_symmetry_cell_setting 'tetragonal'
loop_
_space_group_symop_operation_xyz
x,y,z
-y,1/2+x,1/2+z
1/2-x,1/2-y,z
1/2+y,-x,1/2+z
-x,-y,-z
y,1/2-x,1/2-z
1/2+x,1/2+y,-z
1/2-y,x,1/2-z
loop_
_atom_site_type_symbol
_atom_site_label
_atom_site_fract_x
_atom_site_fract_y
_atom_site_fract_z
Si Si1 0.642682 0.885200 0.767205
Si Si2 0.009984 0.615276 0.947547
Si Si3 0.535695 0.082209 0.634110
Si Si4 0.868723 0.207506 0.712231
Si Si5 0.664697 0.045720 0.430753
O O1 0.772210 0.894976 0.786709
O O2 0.601806 0.874573 0.885002
O O3 0.594494 0.985403 0.699604
O O4 0.109026 0.608223 0.865807
O O5 0.014649 0.713185 0.032097
O O6 0.000000 0.500000 0.000000
O O7 0.541853 0.195603 0.697856
O O8 0.600610 0.102658 0.525857
O O9 0.407947 0.057856 0.609619
O O10 0.750000 0.250000 0.682979
O O11 0.870748 0.170225 0.833299
#
# Coordination Sequence:
#
# PCOD8303683 Si02
#       5
#     8   8   8   8   8
#     4  11  22  44  71  97 134 183 236 283 340 423
#     4  12  26  46  72 105 139 184 236 287 360 425
#     4  11  24  46  69 103 143 177 233 291 355 407
#     4  12  25  45  72 105 141 184 238 291 351 427
#     4  11  25  43  71 100 139 184 227 294 350 416
#
# _framework density 21.052295999999998
#
# number of rings (size 3 to 8) (size 9 to 14) (size 15 to 20)
#    0.000    0.600    6.000    1.200    2.800    3.200 
#    0.000    0.000    0.000    0.000    0.000    0.000 
#    0.000    0.000    0.000    0.000    0.000    0.000 
#
# Total GULP energy -495897.425981 kJ/mol
# GULP energy per Si atom -12397.435650 kJ/mol
# Density = 2.100438 g / cm^3
# Si number density = 21.052296 Si / 1000 Ang^3
#
#
#
# Elastic Constant Matrix: (Units=GPa)
#
#
# Indices 1 2 3 4 5 6 
#
# 1 107.7869 7.9762 40.8684 0.0000 0.0000 1.7550
# 2 7.9762 107.7869 40.8684 0.0000 0.0000 -1.7550
# 3 40.8684 40.8684 105.1835 0.0000 0.0000 0.0000
# 4 0.0000 0.0000 0.0000 26.6657 0.0000 0.0000
# 5 0.0000 0.0000 0.0000 0.0000 26.6657 0.0000
# 6 1.7550 -1.7550 0.0000 0.0000 0.0000 23.7540
#
#
#
# Elastic Compliance Matrix: (Units=1/GPa)
#
#
# Indices 1 2 3 4 5 6 
#
# 1 0.010975 0.000930 -0.004625 0.000000 0.000000 -0.000742
# 2 0.000930 0.010975 -0.004625 0.000000 0.000000 0.000742
# 3 -0.004625 -0.004625 0.013101 0.000000 0.000000 0.000000
# 4 0.000000 0.000000 0.000000 0.037501 0.000000 0.000000
# 5 0.000000 0.000000 0.000000 0.000000 0.037501 0.000000
# 6 -0.000742 0.000742 0.000000 0.000000 0.000000 0.042208
#
#
# Mechanical properties :
#
#
# Convention : Reuss Voigt Hill
#
# Bulk Modulus (GPa) = 54.32255 55.57592 54.94923
# Shear Modulus (GPa) = 28.56503 30.82005 29.69254
#
# Velocity S-wave (km/s) = 3.68756 3.83034 3.75963
# Velocity P-wave (km/s) = 6.63253 6.78368 6.70853
#
# Compressibility (1/GPa) = 0.01840856
#
# Stress axis : x y z
#
# Youngs Moduli (GPa) = 91.11974 91.11974 76.32760
#
# Poissons Ratio (x) = -0.08470 0.35303
# Poissons Ratio (y) = -0.08470 0.35303
# Poissons Ratio (z) = 0.42145 0.42145
#
# Static dielectric constant tensor:
#      x y z
#    x 3.815530 0.000000 0.000000 
#    y 0.000000 3.815530 0.000000 
#    z 0.000000 0.000000 3.976990 
# 
# 
# High freq. dielectric constant tensor:
#      x y z
#    x 1.826560 0.000000 0.000000 
#    y 0.000000 1.826560 0.000000 
#    z 0.000000 0.000000 1.838030 
# 
# From -- ./inp_files/2888.got.cif
#   From: 2010.03.12/outbox.cif.g09.slc.cpg/sg86_2_cif.got.tgz:2888.got - 2010.04.08 20:12:58.
