data_PCOD8303918
_publ_section_title
;
Structure prediction by ZEFSAII (Michael W. Deem and Ramdas Pophale) SiO2 
 PCOD8303918
Probable space group: I 4/M
;
_chemical_formula_sum "Si O2"
_cell_formula_units_Z 96
_cell_length_a 22.515627
_cell_length_b 22.515627
_cell_length_c 9.842234
_cell_angle_alpha 90.000000
_cell_angle_beta 90.000000
_cell_angle_gamma 90.000000
_cell_volume 4989.554573
_symmetry_space_group_name_H-M "I 4/M"
_symmetry_group_IT_number 87
_symmetry_cell_setting 'tetragonal'
loop_
_space_group_symop_operation_xyz
x,y,z
-y,x,z
-x,-y,z
y,-x,z
-x,-y,-z
y,-x,-z
x,y,-z
-y,x,-z
1/2+x,1/2+y,1/2+z
1/2-y,1/2+x,1/2+z
1/2-x,1/2-y,1/2+z
1/2+y,1/2-x,1/2+z
1/2-x,1/2-y,1/2-z
1/2+y,1/2-x,1/2-z
1/2+x,1/2+y,1/2-z
1/2-y,1/2+x,1/2-z
loop_
_atom_site_type_symbol
_atom_site_label
_atom_site_fract_x
_atom_site_fract_y
_atom_site_fract_z
Si Si1 0.484029 0.838162 0.843045
Si Si2 0.793146 0.827562 0.344005
Si Si3 0.915850 0.627982 0.847186
Si Si4 0.998941 0.097178 0.842868
Si Si5 0.330062 0.231941 0.347431
Si Si6 0.535288 0.297069 0.841182
O O1 0.419259 0.864684 0.813065
O O2 0.529849 0.877174 0.756227
O O3 0.485219 0.769105 0.800695
O O4 0.501325 0.845146 0.000000
O O5 0.808908 0.815166 0.500000
O O6 0.725637 0.809804 0.309968
O O7 0.836784 0.787683 0.252821
O O8 0.803310 0.895519 0.306043
O O9 0.888946 0.693420 0.831709
O O10 0.939718 0.617834 0.000000
O O11 0.000596 0.155270 0.747994
O O12 0.057699 0.059066 0.810593
O O13 0.998514 0.117075 0.000000
O O14 0.323180 0.256668 0.500000
O O15 0.523376 0.309338 0.000000
#
# Coordination Sequence:
#
# PCOD8303918 Si02
#       6
#    16  16  16  16  16  16
#     4  10  22  40  59  80 110 145 181 228 280 329
#     4   9  17  31  52  78 108 141 175 214 265 323
#     4  10  21  39  59  79 109 146 184 226 275 330
#     4   9  20  39  59  80 112 152 189 227 270 317
#     4   9  17  32  53  76 105 141 176 215 266 322
#     4  10  20  36  58  83 113 147 183 226 276 327
#
# _framework density 19.240193999999999
#
# number of rings (size 3 to 8) (size 9 to 14) (size 15 to 20)
#    0.000    2.500    1.667    0.500    0.000    5.000 
#    0.000    9.167    0.000    0.000    0.000    0.000 
#    0.000    0.000    0.000    0.000    0.000    0.000 
#
# Total GULP energy -595244.164149 kJ/mol
# GULP energy per Si atom -12400.920086 kJ/mol
# Density = 1.919640 g / cm^3
# Si number density = 19.240194 Si / 1000 Ang^3
#
#
#
# Elastic Constant Matrix: (Units=GPa)
#
#
# Indices 1 2 3 4 5 6 
#
# 1 77.3656 20.7009 46.5147 0.0000 0.0000 7.9265
# 2 20.7009 77.3656 46.5147 0.0000 0.0000 -7.9265
# 3 46.5147 46.5147 81.0719 0.0000 0.0000 0.0000
# 4 0.0000 0.0000 0.0000 33.4872 0.0000 0.0000
# 5 0.0000 0.0000 0.0000 0.0000 33.4872 0.0000
# 6 7.9265 -7.9265 0.0000 0.0000 0.0000 16.8737
#
#
#
# Elastic Compliance Matrix: (Units=1/GPa)
#
#
# Indices 1 2 3 4 5 6 
#
# 1 0.021347 0.001029 -0.012838 0.000000 0.000000 -0.009544
# 2 0.001029 0.021347 -0.012838 0.000000 0.000000 0.009544
# 3 -0.012838 -0.012838 0.027066 0.000000 0.000000 0.000000
# 4 0.000000 0.000000 0.000000 0.029862 0.000000 0.000000
# 5 0.000000 0.000000 0.000000 0.000000 0.029862 0.000000
# 6 -0.009544 0.009544 0.000000 0.000000 0.000000 0.068231
#
#
# Mechanical properties :
#
#
# Convention : Reuss Voigt Hill
#
# Bulk Modulus (GPa) = 48.86219 51.47374 50.16797
# Shear Modulus (GPa) = 19.69816 24.90781 22.30298
#
# Velocity S-wave (km/s) = 3.20316 3.60192 3.40838
# Velocity P-wave (km/s) = 6.25551 6.64152 6.45140
#
# Compressibility (1/GPa) = 0.02046572
#
# Stress axis : x y z
#
# Youngs Moduli (GPa) = 46.84547 46.84547 36.94648
#
# Poissons Ratio (x) = -0.04820 0.47432
# Poissons Ratio (y) = -0.04820 0.47432
# Poissons Ratio (z) = 0.60140 0.60140
#
# Static dielectric constant tensor:
#      x y z
#    x 3.407720 0.000000 0.000000 
#    y 0.000000 3.407720 0.000000 
#    z 0.000000 0.000000 3.468810 
# 
# 
# High freq. dielectric constant tensor:
#      x y z
#    x 1.742340 0.000000 0.000000 
#    y 0.000000 1.742340 0.000000 
#    z 0.000000 0.000000 1.744090 
# 
# From -- ./inp_files/1421.got.cif
#   From: 2010.03.12/outbox.cif.g09.slc.cpg/sg87_1_cif.got.tgz:1421.got - 2010.04.08 20:16:13.
