data_PCOD8303102
_publ_section_title
;
Structure prediction by ZEFSAII (Michael W. Deem and Ramdas Pophale) SiO2 
 PCOD8303102
Probable space group: P 42/M
;
_chemical_formula_sum "Si O2"
_cell_formula_units_Z 64
_cell_length_a 20.354018
_cell_length_b 20.354018
_cell_length_c 8.696556
_cell_angle_alpha 90.000000
_cell_angle_beta 90.000000
_cell_angle_gamma 90.000000
_cell_volume 3602.861823
_symmetry_space_group_name_H-M "P 42/M"
_symmetry_group_IT_number 84
_symmetry_cell_setting 'tetragonal'
loop_
_space_group_symop_operation_xyz
x,y,z
-y,x,1/2+z
-x,-y,z
y,-x,1/2+z
-x,-y,-z
y,-x,1/2-z
x,y,-z
-y,x,1/2-z
loop_
_atom_site_type_symbol
_atom_site_label
_atom_site_fract_x
_atom_site_fract_y
_atom_site_fract_z
Si Si1 0.291015 0.214869 0.179035
Si Si2 0.795202 0.673030 0.176799
Si Si3 0.748433 0.091686 0.824595
Si Si4 0.134754 0.453736 0.175948
Si Si5 0.161533 0.140279 0.821289
Si Si6 0.967342 0.090179 0.821750
Si Si7 0.869356 0.408755 0.681956
Si Si8 0.984783 0.624958 0.319587
O O1 0.276449 0.293065 0.212997
O O2 0.227737 0.174562 0.238572
O O3 0.357360 0.184622 0.253307
O O4 0.298058 0.202529 0.000000
O O5 0.846106 0.701482 0.298441
O O6 0.801060 0.594216 0.194504
O O7 0.814479 0.693088 0.000000
O O8 0.811825 0.098898 0.714578
O O9 0.702752 0.028247 0.787577
O O10 0.773131 0.090805 0.000000
O O11 0.152093 0.518983 0.268410
O O12 0.067444 0.420711 0.232938
O O13 0.123914 0.472829 0.000000
O O14 0.155573 0.071997 0.727806
O O15 0.162492 0.123660 0.000000
O O16 0.030126 0.082390 0.712980
O O17 0.987823 0.091377 0.000000
O O18 0.869576 0.405417 0.500000
O O19 0.942386 0.391227 0.742777
O O20 0.977826 0.609438 0.500000
#
# Coordination Sequence:
#
# PCOD8303102 Si02
#       8
#     8   8   8   8   8   8   8   8
#     4   8  16  31  50  68  89 121 154 184 222 270
#     4   8  15  30  48  63  84 117 156 191 224 267
#     4   9  16  27  44  66  89 117 156 194 227 265
#     4  10  19  30  46  67  91 122 157 191 227 270
#     4  10  19  33  51  70  92 120 153 189 234 286
#     4  11  22  37  53  69  87 110 144 189 241 290
#     4  10  19  31  46  66  93 122 153 188 227 271
#     4   9  18  30  44  64  92 126 160 193 227 268
#
# _framework density 17.763658
#
# number of rings (size 3 to 8) (size 9 to 14) (size 15 to 20)
#    0.000    2.625    0.000    3.750    0.000    4.000 
#    0.000    5.625    0.000    0.000    0.000    0.000 
#    0.000    0.500    0.000    6.250    0.000    0.000 
#
# Total GULP energy -792871.407973 kJ/mol
# GULP energy per Si atom -12388.615750 kJ/mol
# Density = 1.772323 g / cm^3
# Si number density = 17.763658 Si / 1000 Ang^3
#
#
#
# Elastic Constant Matrix: (Units=GPa)
#
#
# Indices 1 2 3 4 5 6 
#
# 1 75.5505 50.4280 9.8349 0.0000 0.0000 -3.7267
# 2 50.4280 75.5505 9.8349 0.0000 0.0000 3.7267
# 3 9.8349 9.8349 34.9733 0.0000 0.0000 0.0000
# 4 0.0000 0.0000 0.0000 18.6422 0.0000 0.0000
# 5 0.0000 0.0000 0.0000 0.0000 18.6422 0.0000
# 6 -3.7267 3.7267 0.0000 0.0000 0.0000 25.0190
#
#
#
# Elastic Compliance Matrix: (Units=1/GPa)
#
#
# Indices 1 2 3 4 5 6 
#
# 1 0.024974 -0.016672 -0.002335 0.000000 0.000000 0.006203
# 2 -0.016672 0.024974 -0.002335 0.000000 0.000000 -0.006203
# 3 -0.002335 -0.002335 0.029906 0.000000 0.000000 0.000000
# 4 0.000000 0.000000 0.000000 0.053642 0.000000 0.000000
# 5 0.000000 0.000000 0.000000 0.000000 0.053642 0.000000
# 6 0.006203 -0.006203 0.000000 0.000000 0.000000 0.041818
#
#
# Mechanical properties :
#
#
# Convention : Reuss Voigt Hill
#
# Bulk Modulus (GPa) = 26.90183 36.25223 31.57703
# Shear Modulus (GPa) = 17.60390 20.19245 18.89817
#
# Velocity S-wave (km/s) = 3.15144 3.37520 3.26524
# Velocity P-wave (km/s) = 5.33097 5.97006 5.65955
#
# Compressibility (1/GPa) = 0.03717219
#
# Stress axis : x y z
#
# Youngs Moduli (GPa) = 40.04176 40.04176 33.43770
#
# Poissons Ratio (x) = 0.66756 0.07807
# Poissons Ratio (y) = 0.66756 0.07807
# Poissons Ratio (z) = 0.09349 0.09349
#
# Static dielectric constant tensor:
#      x y z
#    x 3.370100 0.000000 0.000000 
#    y 0.000000 3.370100 0.000000 
#    z 0.000000 0.000000 3.180690 
# 
# 
# High freq. dielectric constant tensor:
#      x y z
#    x 1.665180 0.000000 0.000000 
#    y 0.000000 1.665180 0.000000 
#    z 0.000000 0.000000 1.677140 
# 
# From -- ./inp_files/1373.got.cif
#   From: 2010.03.12/outbox.cif.g09.slc.cpg/sg84_1_cif.got.tgz:1373.got - 2010.04.08 20:07:29.
