data_PCOD8303210
_publ_section_title
;
Structure prediction by ZEFSAII (Michael W. Deem and Ramdas Pophale) SiO2 
 PCOD8303210
Probable space group: P 42/M
;
_chemical_formula_sum "Si O2"
_cell_formula_units_Z 64
_cell_length_a 12.476495
_cell_length_b 12.476495
_cell_length_c 22.739406
_cell_angle_alpha 90.000000
_cell_angle_beta 90.000000
_cell_angle_gamma 90.000000
_cell_volume 3539.682507
_symmetry_space_group_name_H-M "P 42/M"
_symmetry_group_IT_number 84
_symmetry_cell_setting 'tetragonal'
loop_
_space_group_symop_operation_xyz
x,y,z
-y,x,1/2+z
-x,-y,z
y,-x,1/2+z
-x,-y,-z
y,-x,1/2-z
x,y,-z
-y,x,1/2-z
loop_
_atom_site_type_symbol
_atom_site_label
_atom_site_fract_x
_atom_site_fract_y
_atom_site_fract_z
Si Si1 0.676897 0.473920 0.430999
Si Si2 0.609729 0.364884 0.252104
Si Si3 0.910854 0.745897 0.068936
Si Si4 0.033206 0.813462 0.430325
Si Si5 0.403823 0.736001 0.374680
Si Si6 0.912594 0.419458 0.429979
Si Si7 0.796609 0.854069 0.569015
Si Si8 0.692457 0.357891 0.870751
O O1 0.671743 0.496548 0.500000
O O2 0.615452 0.364072 0.417632
O O3 0.797803 0.458996 0.407676
O O4 0.624027 0.574869 0.398570
O O5 0.486301 0.358770 0.232126
O O6 0.633886 0.291479 0.308541
O O7 0.681018 0.324884 0.197518
O O8 0.887114 0.867611 0.089295
O O9 0.841775 0.659169 0.104486
O O10 0.036749 0.731782 0.082938
O O11 0.885064 0.730365 0.000000
O O12 0.027637 0.809371 0.500000
O O13 0.058152 0.696408 0.404037
O O14 0.919235 0.858077 0.406721
O O15 0.531105 0.758396 0.376544
O O16 0.913995 0.415857 0.500000
O O17 0.000000 0.500000 0.404209
O O18 0.798791 0.832172 0.500000
O O19 0.737237 0.754418 0.597836
#
# Coordination Sequence:
#
# PCOD8303210 Si02
#       8
#     8   8   8   8   8   8   8   8
#     4  11  20  31  50  83 118 140 170 221 278 332
#     4   9  18  36  58  77 100 139 191 228 269 323
#     4  10  20  35  56  82 111 147 187 222 268 328
#     4   9  16  31  52  76 107 144 183 216 258 326
#     4  11  21  35  56  79 106 147 184 225 268 327
#     4   9  16  26  44  72 110 145 167 204 268 324
#     4  10  21  35  54  82 114 147 182 224 274 326
#     4  11  22  35  54  79 110 146 183 224 269 329
#
# _framework density 18.080718000000001
#
# number of rings (size 3 to 8) (size 9 to 14) (size 15 to 20)
#    0.000    2.000    2.500    2.250    0.000    6.500 
#    0.000    1.250    2.750    0.000    0.000    0.000 
#    0.000    0.000    0.000    0.000    0.000    0.000 
#
# Total GULP energy -793470.659724 kJ/mol
# GULP energy per Si atom -12397.979058 kJ/mol
# Density = 1.803957 g / cm^3
# Si number density = 18.080718 Si / 1000 Ang^3
#
#
#
# Elastic Constant Matrix: (Units=GPa)
#
#
# Indices 1 2 3 4 5 6 
#
# 1 73.9411 18.3820 25.9077 0.0000 0.0000 -0.8268
# 2 18.3820 73.9411 25.9077 0.0000 0.0000 0.8268
# 3 25.9077 25.9077 58.0980 0.0000 0.0000 0.0000
# 4 0.0000 0.0000 0.0000 17.2852 0.0000 0.0000
# 5 0.0000 0.0000 0.0000 0.0000 17.2852 0.0000
# 6 -0.8268 0.8268 0.0000 0.0000 0.0000 29.5909
#
#
#
# Elastic Compliance Matrix: (Units=1/GPa)
#
#
# Indices 1 2 3 4 5 6 
#
# 1 0.016231 -0.001783 -0.006442 0.000000 0.000000 0.000503
# 2 -0.001783 0.016231 -0.006442 0.000000 0.000000 -0.000503
# 3 -0.006442 -0.006442 0.022958 0.000000 0.000000 0.000000
# 4 0.000000 0.000000 0.000000 0.057853 0.000000 0.000000
# 5 0.000000 0.000000 0.000000 0.000000 0.057853 0.000000
# 6 0.000503 -0.000503 0.000000 0.000000 0.000000 0.033822
#
#
# Mechanical properties :
#
#
# Convention : Reuss Voigt Hill
#
# Bulk Modulus (GPa) = 38.33952 38.48609 38.41280
# Shear Modulus (GPa) = 20.57797 21.88445 21.23121
#
# Velocity S-wave (km/s) = 3.37726 3.48282 3.43044
# Velocity P-wave (km/s) = 6.03809 6.12416 6.08127
#
# Compressibility (1/GPa) = 0.02608275
#
# Stress axis : x y z
#
# Youngs Moduli (GPa) = 61.61213 61.61213 43.55762
#
# Poissons Ratio (x) = 0.10987 0.28062
# Poissons Ratio (y) = 0.10987 0.28062
# Poissons Ratio (z) = 0.39694 0.39694
#
# Static dielectric constant tensor:
#      x y z
#    x 3.377020 0.000000 0.000000 
#    y 0.000000 3.377020 0.000000 
#    z 0.000000 0.000000 3.048960 
# 
# 
# High freq. dielectric constant tensor:
#      x y z
#    x 1.701580 0.000000 0.000000 
#    y 0.000000 1.701580 0.000000 
#    z 0.000000 0.000000 1.658900 
# 
# From -- ./inp_files/5105.got.cif
#   From: 2010.03.12/outbox.cif.g09.slc.cpg/sg84_3_cif.got.tgz:5105.got - 2010.04.08 20:07:29.
