data_PCOD8303058
_publ_section_title
;
Structure prediction by ZEFSAII (Michael W. Deem and Ramdas Pophale) SiO2 
 PCOD8303058
Probable space group: P 42/M
;
_chemical_formula_sum "Si O2"
_cell_formula_units_Z 36
_cell_length_a 10.570639
_cell_length_b 10.570639
_cell_length_c 17.508225
_cell_angle_alpha 90.000000
_cell_angle_beta 90.000000
_cell_angle_gamma 90.000000
_cell_volume 1956.341204
_symmetry_space_group_name_H-M "P 42/M"
_symmetry_group_IT_number 84
_symmetry_cell_setting 'tetragonal'
loop_
_space_group_symop_operation_xyz
x,y,z
-y,x,1/2+z
-x,-y,z
y,-x,1/2+z
-x,-y,-z
y,-x,1/2-z
x,y,-z
-y,x,1/2-z
loop_
_atom_site_type_symbol
_atom_site_label
_atom_site_fract_x
_atom_site_fract_y
_atom_site_fract_z
Si Si1 0.638535 0.199962 0.585284
Si Si2 0.120483 0.935803 0.373304
Si Si3 0.000000 0.500000 0.188692
Si Si4 0.748489 0.892873 0.260341
Si Si5 0.638522 0.359551 0.275655
O O1 0.586072 0.225640 0.500000
O O2 0.779143 0.139181 0.574801
O O3 0.544036 0.111524 0.632528
O O4 0.641343 0.331475 0.633016
O O5 0.066622 0.838736 0.309477
O O6 0.192537 0.056158 0.338060
O O7 0.000000 0.000000 0.417168
O O8 0.044679 0.609709 0.246491
O O9 0.734026 0.740680 0.263356
O O10 0.505536 0.326266 0.236402
#
# Coordination Sequence:
#
# PCOD8303058 Si02
#       5
#     8   8   4   8   8
#     4  10  21  35  53  77 111 144 174 219 280 329
#     4  10  18  30  52  80 111 132 180 223 268 314
#     4  10  19  32  54  76 109 140 178 216 273 314
#     4  10  17  30  51  81 103 136 174 228 263 306
#     4  10  20  35  54  77 103 135 186 229 261 319
#
# _framework density 18.401698
#
# number of rings (size 3 to 8) (size 9 to 14) (size 15 to 20)
#    0.000    2.000    4.444    0.333    0.000    0.444 
#    0.000    2.222    0.000    0.000    0.000   26.444 
#    0.000    0.000    0.000    0.000    0.000    0.000 
#
# Total GULP energy -446013.767414 kJ/mol
# GULP energy per Si atom -12389.271317 kJ/mol
# Density = 1.835982 g / cm^3
# Si number density = 18.401698 Si / 1000 Ang^3
#
#
#
# Elastic Constant Matrix: (Units=GPa)
#
#
# Indices 1 2 3 4 5 6 
#
# 1 95.5241 25.1012 28.6557 0.0000 0.0000 -20.1151
# 2 25.1012 95.5241 28.6557 0.0000 0.0000 20.1151
# 3 28.6557 28.6557 80.3093 0.0000 0.0000 0.0000
# 4 0.0000 0.0000 0.0000 11.6404 0.0000 0.0000
# 5 0.0000 0.0000 0.0000 0.0000 11.6404 0.0000
# 6 -20.1151 20.1151 0.0000 0.0000 0.0000 33.4495
#
#
#
# Elastic Compliance Matrix: (Units=1/GPa)
#
#
# Indices 1 2 3 4 5 6 
#
# 1 0.015807 -0.005824 -0.003562 0.000000 0.000000 0.013008
# 2 -0.005824 0.015807 -0.003562 0.000000 0.000000 -0.013008
# 3 -0.003562 -0.003562 0.014994 0.000000 0.000000 0.000000
# 4 0.000000 0.000000 0.000000 0.085907 0.000000 0.000000
# 5 0.000000 0.000000 0.000000 0.000000 0.085907 0.000000
# 6 0.013008 -0.013008 0.000000 0.000000 0.000000 0.045541
#
#
# Mechanical properties :
#
#
# Convention : Reuss Voigt Hill
#
# Bulk Modulus (GPa) = 48.28343 48.46476 48.37409
# Shear Modulus (GPa) = 16.84849 23.94240 20.39545
#
# Velocity S-wave (km/s) = 3.02916 3.61099 3.33279
# Velocity P-wave (km/s) = 6.20725 6.61664 6.41521
#
# Compressibility (1/GPa) = 0.02071104
#
# Stress axis : x y z
#
# Youngs Moduli (GPa) = 63.26437 63.26437 66.69439
#
# Poissons Ratio (x) = 0.36847 0.23756
# Poissons Ratio (y) = 0.36847 0.23756
# Poissons Ratio (z) = 0.22534 0.22534
#
# Static dielectric constant tensor:
#      x y z
#    x 3.637450 0.000000 0.000000 
#    y 0.000000 3.637450 0.000000 
#    z 0.000000 0.000000 2.946040 
# 
# 
# High freq. dielectric constant tensor:
#      x y z
#    x 1.724810 0.000000 0.000000 
#    y 0.000000 1.724810 0.000000 
#    z 0.000000 0.000000 1.664570 
# 
# From -- ./inp_files/3580.got.cif
#   From: 2010.03.12/outbox.cif.g09.slc.cpg/sg84_2_cif.got.tgz:3580.got - 2010.04.08 20:07:29.
