data_PCOD8303472
_publ_section_title
;
Structure prediction by ZEFSAII (Michael W. Deem and Ramdas Pophale) SiO2 
 PCOD8303472
Probable space group: P 42/N
;
_chemical_formula_sum "Si O2"
_cell_formula_units_Z 48
_cell_length_a 9.833738
_cell_length_b 9.833738
_cell_length_c 28.061065
_cell_angle_alpha 90.000000
_cell_angle_beta 90.000000
_cell_angle_gamma 90.000000
_cell_volume 2713.572418
_symmetry_space_group_name_H-M "P 42/N"
_symmetry_group_IT_number 86
_space_group.IT_coordinate_system_code '2'
_symmetry_cell_setting 'tetragonal'
loop_
_space_group_symop_operation_xyz
x,y,z
-y,1/2+x,1/2+z
1/2-x,1/2-y,z
1/2+y,-x,1/2+z
-x,-y,-z
y,1/2-x,1/2-z
1/2+x,1/2+y,-z
1/2-y,x,1/2-z
loop_
_atom_site_type_symbol
_atom_site_label
_atom_site_fract_x
_atom_site_fract_y
_atom_site_fract_z
Si Si1 0.603109 0.989810 0.793241
Si Si2 0.616470 0.161700 0.961160
Si Si3 0.090281 0.257342 0.138087
Si Si4 0.090106 0.734169 0.144337
Si Si5 0.003743 0.425410 0.307011
Si Si6 0.156767 0.116649 0.462503
O O1 0.539144 0.108577 0.824737
O O2 0.766578 0.992643 0.792944
O O3 0.549549 0.852675 0.817777
O O4 0.540891 0.006799 0.740753
O O5 0.750000 0.250000 0.974527
O O6 0.553214 0.210665 0.910759
O O7 0.659589 0.002471 0.960731
O O8 0.494364 0.188236 0.997469
O O9 0.250000 0.250000 0.131726
O O10 0.037469 0.307952 0.086831
O O11 0.035151 0.109477 0.151447
O O12 0.250000 0.750000 0.148177
O O13 0.022470 0.864780 0.169318
O O14 0.250000 0.250000 0.471501
#
# Coordination Sequence:
#
# PCOD8303472 Si02
#       6
#     8   8   8   8   8   8
#     4  10  16  29  50  75 104 132 171 216 262 310
#     4  10  21  38  58  82 113 147 181 233 285 335
#     4   9  17  28  50  80 100 131 176 225 258 311
#     4   9  19  32  50  77 107 139 175 218 269 325
#     4  10  18  28  51  78 104 133 174 219 268 308
#     4  10  21  37  59  84 109 144 188 232 281 334
#
# _framework density 17.688859999999998
#
# number of rings (size 3 to 8) (size 9 to 14) (size 15 to 20)
#    0.000    2.333    3.333    0.000    7.000    0.667 
#    0.000    0.000    7.333    0.000    0.000    0.000 
#    0.000    0.000    0.000    0.000    0.000    0.000 
#
# Total GULP energy -594841.482462 kJ/mol
# GULP energy per Si atom -12392.530885 kJ/mol
# Density = 1.764860 g / cm^3
# Si number density = 17.688860 Si / 1000 Ang^3
#
#
#
# Elastic Constant Matrix: (Units=GPa)
#
#
# Indices 1 2 3 4 5 6 
#
# 1 69.5646 26.4781 41.7933 0.0000 0.0000 2.3433
# 2 26.4781 69.5646 41.7933 0.0000 0.0000 -2.3433
# 3 41.7933 41.7933 133.4884 0.0000 0.0000 0.0000
# 4 0.0000 0.0000 0.0000 25.2571 0.0000 0.0000
# 5 0.0000 0.0000 0.0000 0.0000 25.2571 0.0000
# 6 2.3433 -2.3433 0.0000 0.0000 0.0000 16.0187
#
#
#
# Elastic Compliance Matrix: (Units=1/GPa)
#
#
# Indices 1 2 3 4 5 6 
#
# 1 0.018948 -0.004636 -0.004481 0.000000 0.000000 -0.003450
# 2 -0.004636 0.018948 -0.004481 0.000000 0.000000 0.003450
# 3 -0.004481 -0.004481 0.010297 0.000000 0.000000 0.000000
# 4 0.000000 0.000000 0.000000 0.039593 0.000000 0.000000
# 5 0.000000 0.000000 0.000000 0.000000 0.039593 0.000000
# 6 -0.003450 0.003450 0.000000 0.000000 0.000000 0.063436
#
#
# Mechanical properties :
#
#
# Convention : Reuss Voigt Hill
#
# Bulk Modulus (GPa) = 47.62525 54.74969 51.18747
# Shear Modulus (GPa) = 22.22122 24.14343 23.18233
#
# Velocity S-wave (km/s) = 3.54817 3.69846 3.62409
# Velocity P-wave (km/s) = 6.61577 7.01832 6.82001
#
# Compressibility (1/GPa) = 0.02099726
#
# Stress axis : x y z
#
# Youngs Moduli (GPa) = 52.77595 52.77595 97.11545
#
# Poissons Ratio (x) = 0.24469 0.43515
# Poissons Ratio (y) = 0.24469 0.43515
# Poissons Ratio (z) = 0.23648 0.23648
#
# Static dielectric constant tensor:
#      x y z
#    x 3.237940 0.000000 0.000000 
#    y 0.000000 3.237940 0.000000 
#    z 0.000000 0.000000 3.544410 
# 
# 
# High freq. dielectric constant tensor:
#      x y z
#    x 1.657710 0.000000 0.000000 
#    y 0.000000 1.657710 0.000000 
#    z 0.000000 0.000000 1.703120 
# 
# From -- ./inp_files/5120.got.cif
#   From: 2010.03.12/outbox.cif.g09.slc.cpg/sg86_3_cif.got.tgz:5120.got - 2010.04.08 20:12:58.
