data_PCOD8303312
_publ_section_title
;
Structure prediction by ZEFSAII (Michael W. Deem and Ramdas Pophale) SiO2 
 PCOD8303312
Probable space group: P 42/M
;
_chemical_formula_sum "Si O2"
_cell_formula_units_Z 48
_cell_length_a 8.831210
_cell_length_b 8.831210
_cell_length_c 30.632601
_cell_angle_alpha 90.000000
_cell_angle_beta 90.000000
_cell_angle_gamma 90.000000
_cell_volume 2389.044825
_symmetry_space_group_name_H-M "P 42/M"
_symmetry_group_IT_number 84
_symmetry_cell_setting 'tetragonal'
loop_
_space_group_symop_operation_xyz
x,y,z
-y,x,1/2+z
-x,-y,z
y,-x,1/2+z
-x,-y,-z
y,-x,1/2-z
x,y,-z
-y,x,1/2-z
loop_
_atom_site_type_symbol
_atom_site_label
_atom_site_fract_x
_atom_site_fract_y
_atom_site_fract_z
Si Si1 0.630082 0.626058 0.109331
Si Si2 0.362146 0.891802 0.322608
Si Si3 0.412955 0.851072 0.853411
Si Si4 0.346953 0.912847 0.452177
Si Si5 0.277858 0.402033 0.259998
Si Si6 0.928773 0.155461 0.118670
O O1 0.500000 0.500000 0.104780
O O2 0.731425 0.607505 0.153063
O O3 0.531854 0.778341 0.112808
O O4 0.744899 0.632978 0.068583
O O5 0.344942 0.859355 0.270979
O O6 0.500000 0.000000 0.334509
O O7 0.213494 0.983172 0.337987
O O8 0.378835 0.753458 0.810651
O O9 0.250909 0.868582 0.876530
O O10 0.500000 0.000000 0.837575
O O11 0.269866 0.890326 0.500000
O O12 0.500000 0.000000 0.459709
O O13 0.260793 0.031632 0.421851
O O14 0.301153 0.577477 0.250183
O O15 0.000000 0.000000 0.104949
#
# Coordination Sequence:
#
# PCOD8303312 Si02
#       6
#     8   8   8   8   8   8
#     4  11  20  37  63  90 126 161 204 257 319 373
#     4  11  21  38  59  86 120 167 213 258 312 375
#     4  12  24  39  61  89 122 166 215 266 313 375
#     4  10  22  42  68  96 125 161 207 256 317 394
#     4  11  22  37  59  88 120 161 214 265 309 364
#     4  11  24  43  63  89 126 168 206 257 326 387
#
# _framework density 20.091714
#
# number of rings (size 3 to 8) (size 9 to 14) (size 15 to 20)
#    0.000    1.000    1.667    8.500    0.000    0.667 
#    0.000    0.833    0.000    2.000    0.000    0.000 
#    0.000    0.000    0.000    0.000    0.000    0.000 
#
# Total GULP energy -594958.868413 kJ/mol
# GULP energy per Si atom -12394.976425 kJ/mol
# Density = 2.004598 g / cm^3
# Si number density = 20.091714 Si / 1000 Ang^3
#
#
#
# Elastic Constant Matrix: (Units=GPa)
#
#
# Indices 1 2 3 4 5 6 
#
# 1 104.3579 25.0356 32.2533 0.0000 0.0000 -1.6047
# 2 25.0356 104.3579 32.2533 0.0000 0.0000 1.6047
# 3 32.2533 32.2533 97.0386 0.0000 0.0000 0.0000
# 4 0.0000 0.0000 0.0000 -17.6322 0.0000 0.0000
# 5 0.0000 0.0000 0.0000 0.0000 -17.6322 0.0000
# 6 -1.6047 1.6047 0.0000 0.0000 0.0000 40.2899
#
#
#
# Elastic Compliance Matrix: (Units=1/GPa)
#
#
# Indices 1 2 3 4 5 6 
#
# 1 0.010945 -0.001682 -0.003079 0.000000 0.000000 0.000503
# 2 -0.001682 0.010945 -0.003079 0.000000 0.000000 -0.000503
# 3 -0.003079 -0.003079 0.012352 0.000000 0.000000 0.000000
# 4 0.000000 0.000000 0.000000 -0.056714 0.000000 0.000000
# 5 0.000000 0.000000 0.000000 0.000000 -0.056714 0.000000
# 6 0.000503 -0.000503 0.000000 0.000000 0.000000 0.024860
#
#
# Mechanical properties :
#
#
# Convention : Reuss Voigt Hill
#
# Bulk Modulus (GPa) = 53.87094 53.87096 53.87095
# Shear Modulus (GPa) = -154.03973 15.41924 -69.31025
#
# Velocity S-wave (km/s) = -8.76554 2.77328 -5.87978
# Velocity P-wave (km/s) = 8.69342 6.09307 4.38464
#
# Compressibility (1/GPa) = 0.01856288
#
# Stress axis : x y z
#
# Youngs Moduli (GPa) = 91.36409 91.36409 80.95930
#
# Poissons Ratio (x) = 0.15367 0.24927
# Poissons Ratio (y) = 0.15367 0.24927
# Poissons Ratio (z) = 0.28130 0.28130
#
# Static dielectric constant tensor:
#      x y z
#    x 3.504310 0.000000 0.000000 
#    y 0.000000 3.504310 0.000000 
#    z 0.000000 0.000000 3.622170 
# 
# 
# High freq. dielectric constant tensor:
#      x y z
#    x 1.792150 0.000000 0.000000 
#    y 0.000000 1.792150 0.000000 
#    z 0.000000 0.000000 1.771040 
# 
# From -- ./inp_files/5755.got.cif
#   From: 2010.03.12/outbox.cif.g09.slc.cpg/sg84_3_cif.got.tgz:5755.got - 2010.04.08 20:07:29.
