data_PCOD8303681
_publ_section_title
;
Structure prediction by ZEFSAII (Michael W. Deem and Ramdas Pophale) SiO2 
 PCOD8303681
Probable space group: P 42/N
;
_chemical_formula_sum "Si O2"
_cell_formula_units_Z 50
_cell_length_a 13.779562
_cell_length_b 13.779562
_cell_length_c 11.532896
_cell_angle_alpha 90.000000
_cell_angle_beta 90.000000
_cell_angle_gamma 90.000000
_cell_volume 2189.823954
_symmetry_space_group_name_H-M "P 42/N"
_symmetry_group_IT_number 86
_space_group.IT_coordinate_system_code '2'
_symmetry_cell_setting 'tetragonal'
loop_
_space_group_symop_operation_xyz
x,y,z
-y,1/2+x,1/2+z
1/2-x,1/2-y,z
1/2+y,-x,1/2+z
-x,-y,-z
y,1/2-x,1/2-z
1/2+x,1/2+y,-z
1/2-y,x,1/2-z
loop_
_atom_site_type_symbol
_atom_site_label
_atom_site_fract_x
_atom_site_fract_y
_atom_site_fract_z
Si Si1 0.073642 0.553136 0.313985
Si Si2 0.241710 0.862332 0.197064
Si Si3 0.147386 0.367358 0.434857
Si Si4 0.766504 0.030963 0.025325
Si Si5 0.250000 0.250000 0.250000
Si Si6 0.890853 0.460522 0.206316
Si Si7 0.615422 0.718675 0.185665
O O1 0.165413 0.578083 0.236633
O O2 0.099013 0.472217 0.411226
O O3 0.035925 0.648839 0.378941
O O4 0.993187 0.514745 0.222937
O O5 0.250000 0.750000 0.228426
O O6 0.152003 0.906751 0.267623
O O7 0.228360 0.875949 0.059053
O O8 0.214815 0.339858 0.327368
O O9 0.214895 0.364411 0.549222
O O10 0.064969 0.285301 0.449275
O O11 0.658271 0.025259 0.079890
O O12 0.811319 0.503628 0.297012
O O13 0.639657 0.823317 0.238596
#
# Coordination Sequence:
#
# PCOD8303681 Si02
#       7
#     8   8   8   8   2   8   8
#     4  12  26  50  74 109 150 198 251 308 382 458
#     4  12  28  48  73 111 152 199 255 315 379 462
#     4  12  24  45  73 102 150 197 246 309 383 448
#     4  12  25  48  75 108 144 201 250 310 384 452
#     4  12  28  44  66 108 148 196 244 314 380 452
#     4  12  24  47  77 106 150 193 256 313 373 457
#     4  11  22  41  72 111 144 190 251 311 370 449
#
# _framework density 22.832885999999998
#
# number of rings (size 3 to 8) (size 9 to 14) (size 15 to 20)
#    0.000    0.160    6.400    3.360    2.240    0.640 
#    0.000    0.000    0.000    0.000    0.000    0.000 
#    0.000    0.000    0.000    0.000    0.000    0.000 
#
# Total GULP energy -620082.131769 kJ/mol
# GULP energy per Si atom -12401.642635 kJ/mol
# Density = 2.278092 g / cm^3
# Si number density = 22.832886 Si / 1000 Ang^3
#
#
#
# Elastic Constant Matrix: (Units=GPa)
#
#
# Indices 1 2 3 4 5 6 
#
# 1 108.7121 36.5575 43.1597 0.0000 0.0000 7.9929
# 2 36.5575 108.7121 43.1597 0.0000 0.0000 -7.9929
# 3 43.1597 43.1597 118.7230 0.0000 0.0000 0.0000
# 4 0.0000 0.0000 0.0000 40.1224 0.0000 0.0000
# 5 0.0000 0.0000 0.0000 0.0000 40.1224 0.0000
# 6 7.9929 -7.9929 0.0000 0.0000 0.0000 32.0670
#
#
#
# Elastic Compliance Matrix: (Units=1/GPa)
#
#
# Indices 1 2 3 4 5 6 
#
# 1 0.011725 -0.002944 -0.003192 0.000000 0.000000 -0.003656
# 2 -0.002944 0.011725 -0.003192 0.000000 0.000000 0.003656
# 3 -0.003192 -0.003192 0.010744 0.000000 0.000000 0.000000
# 4 0.000000 0.000000 0.000000 0.024924 0.000000 0.000000
# 5 0.000000 0.000000 0.000000 0.000000 0.024924 0.000000
# 6 -0.003656 0.003656 0.000000 0.000000 0.000000 0.033007
#
#
# Mechanical properties :
#
#
# Convention : Reuss Voigt Hill
#
# Bulk Modulus (GPa) = 64.36371 64.65566 64.50969
# Shear Modulus (GPa) = 35.49023 36.68038 36.08530
#
# Velocity S-wave (km/s) = 3.94680 4.01243 3.97975
# Velocity P-wave (km/s) = 7.00142 7.06006 7.03080
#
# Compressibility (1/GPa) = 0.01553671
#
# Stress axis : x y z
#
# Youngs Moduli (GPa) = 85.28923 85.28923 93.07749
#
# Poissons Ratio (x) = 0.25112 0.29710
# Poissons Ratio (y) = 0.25112 0.29710
# Poissons Ratio (z) = 0.27224 0.27224
#
# Static dielectric constant tensor:
#      x y z
#    x 4.221970 0.000000 0.000000 
#    y 0.000000 4.221970 0.000000 
#    z 0.000000 0.000000 4.009840 
# 
# 
# High freq. dielectric constant tensor:
#      x y z
#    x 1.906790 0.000000 0.000000 
#    y 0.000000 1.906790 0.000000 
#    z 0.000000 0.000000 1.894810 
# 
# From -- ./inp_files/2333.got.cif
#   From: 2010.03.12/outbox.cif.g09.slc.cpg/sg86_2_cif.got.tgz:2333.got - 2010.04.08 20:12:58.
