data_PCOD8303383
_publ_section_title
;
Structure prediction by ZEFSAII (Michael W. Deem and Ramdas Pophale) SiO2 
 PCOD8303383
Probable space group: P 42/M
;
_chemical_formula_sum "Si O2"
_cell_formula_units_Z 40
_cell_length_a 8.689002
_cell_length_b 8.689002
_cell_length_c 26.810012
_cell_angle_alpha 90.000000
_cell_angle_beta 90.000000
_cell_angle_gamma 90.000000
_cell_volume 2024.122548
_symmetry_space_group_name_H-M "P 42/M"
_symmetry_group_IT_number 84
_symmetry_cell_setting 'tetragonal'
loop_
_space_group_symop_operation_xyz
x,y,z
-y,x,1/2+z
-x,-y,z
y,-x,1/2+z
-x,-y,-z
y,-x,1/2-z
x,y,-z
-y,x,1/2-z
loop_
_atom_site_type_symbol
_atom_site_label
_atom_site_fract_x
_atom_site_fract_y
_atom_site_fract_z
Si Si1 0.683031 0.683610 0.556723
Si Si2 0.614706 0.615037 0.102321
Si Si3 0.323777 0.675777 0.761294
Si Si4 0.824296 0.824843 0.351177
Si Si5 0.823894 0.176533 0.328966
O O1 0.723599 0.724403 0.500000
O O2 0.500525 0.717013 0.567724
O O3 0.716825 0.501153 0.567669
O O4 0.790547 0.791238 0.590944
O O5 0.500000 0.500000 0.135021
O O6 0.717873 0.718832 0.136553
O O7 0.499723 0.716461 0.749994
O O8 0.285266 0.714150 0.818581
O O9 0.213970 0.785340 0.728206
O O10 0.000072 0.784817 0.339693
O O11 0.784423 0.000649 0.339667
#
# Coordination Sequence:
#
# PCOD8303383 Si02
#       5
#     8   8   8   8   8
#     4   9  19  39  62  87 117 150 202 248 296 349
#     4   8  19  37  62  85 110 153 195 249 288 347
#     4  11  24  39  62  90 118 154 199 245 296 356
#     4  11  24  39  58  89 123 160 195 241 300 365
#     4  11  23  40  59  86 126 156 194 243 302 360
#
# _framework density 19.761651000000001
#
# number of rings (size 3 to 8) (size 9 to 14) (size 15 to 20)
#    1.200    0.600    0.000    4.800    2.800    9.600 
#    0.000    8.000    0.000    0.000    0.000    0.000 
#    0.000    0.000    0.000    0.000    0.000    0.000 
#
# Total GULP energy -495774.322510 kJ/mol
# GULP energy per Si atom -12394.358063 kJ/mol
# Density = 1.971667 g / cm^3
# Si number density = 19.761651 Si / 1000 Ang^3
#
#
#
# Elastic Constant Matrix: (Units=GPa)
#
#
# Indices 1 2 3 4 5 6 
#
# 1 93.1608 60.8551 46.4501 0.0000 0.0000 0.0462
# 2 60.8551 93.1608 46.4501 0.0000 0.0000 -0.0462
# 3 46.4501 46.4501 129.3442 0.0000 0.0000 0.0000
# 4 0.0000 0.0000 0.0000 17.9022 0.0000 0.0000
# 5 0.0000 0.0000 0.0000 0.0000 17.9022 0.0000
# 6 0.0462 -0.0462 0.0000 0.0000 0.0000 36.6615
#
#
#
# Elastic Compliance Matrix: (Units=1/GPa)
#
#
# Indices 1 2 3 4 5 6 
#
# 1 0.019621 -0.011333 -0.002976 0.000000 0.000000 -0.000039
# 2 -0.011333 0.019621 -0.002976 0.000000 0.000000 0.000039
# 3 -0.002976 -0.002976 0.009869 0.000000 0.000000 0.000000
# 4 0.000000 0.000000 0.000000 0.055859 0.000000 0.000000
# 5 0.000000 0.000000 0.000000 0.000000 0.055859 0.000000
# 6 -0.000039 0.000039 0.000000 0.000000 0.000000 0.027277
#
#
# Mechanical properties :
#
#
# Convention : Reuss Voigt Hill
#
# Bulk Modulus (GPa) = 68.77730 69.24182 69.00956
# Shear Modulus (GPa) = 21.97561 25.28722 23.63141
#
# Velocity S-wave (km/s) = 3.33833 3.58105 3.46182
# Velocity P-wave (km/s) = 7.05254 7.22586 7.13972
#
# Compressibility (1/GPa) = 0.01453968
#
# Stress axis : x y z
#
# Youngs Moduli (GPa) = 50.96500 50.96500 101.32608
#
# Poissons Ratio (x) = 0.57759 0.30159
# Poissons Ratio (y) = 0.57759 0.30159
# Poissons Ratio (z) = 0.15170 0.15170
#
# Static dielectric constant tensor:
#      x y z
#    x 3.530790 0.000000 0.000000 
#    y 0.000000 3.530790 0.000000 
#    z 0.000000 0.000000 3.430330 
# 
# 
# High freq. dielectric constant tensor:
#      x y z
#    x 1.764990 0.000000 0.000000 
#    y 0.000000 1.764990 0.000000 
#    z 0.000000 0.000000 1.762300 
# 
# From -- ./inp_files/4840.got.cif
#   From: 2010.03.12/outbox.cif.g09.slc.cpg/sg84_3_cif.got.tgz:4840.got - 2010.04.08 20:07:29.
