data_PCOD8303777
_publ_section_title
;
Structure prediction by ZEFSAII (Michael W. Deem and Ramdas Pophale) SiO2 
 PCOD8303777
Probable space group: I 4/M
;
_chemical_formula_sum "Si O2"
_cell_formula_units_Z 128
_cell_length_a 19.953248
_cell_length_b 19.953248
_cell_length_c 20.508287
_cell_angle_alpha 90.000000
_cell_angle_beta 90.000000
_cell_angle_gamma 90.000000
_cell_volume 8165.007489
_symmetry_space_group_name_H-M "I 4/M"
_symmetry_group_IT_number 87
_symmetry_cell_setting 'tetragonal'
loop_
_space_group_symop_operation_xyz
x,y,z
-y,x,z
-x,-y,z
y,-x,z
-x,-y,-z
y,-x,-z
x,y,-z
-y,x,-z
1/2+x,1/2+y,1/2+z
1/2-y,1/2+x,1/2+z
1/2-x,1/2-y,1/2+z
1/2+y,1/2-x,1/2+z
1/2-x,1/2-y,1/2-z
1/2+y,1/2-x,1/2-z
1/2+x,1/2+y,1/2-z
1/2-y,1/2+x,1/2-z
loop_
_atom_site_type_symbol
_atom_site_label
_atom_site_fract_x
_atom_site_fract_y
_atom_site_fract_z
Si Si1 0.645941 0.258828 0.728950
Si Si2 0.860030 0.342125 0.423597
Si Si3 0.821251 0.457600 0.226380
Si Si4 0.443967 0.735397 0.848440
Si Si5 0.016219 0.425153 0.924342
Si Si6 0.019629 0.893211 0.574318
Si Si7 0.430629 0.856519 0.677380
Si Si8 0.764148 0.344275 0.692027
O O1 0.596739 0.287468 0.784225
O O2 0.602888 0.217694 0.674930
O O3 0.686816 0.318915 0.693751
O O4 0.693916 0.206622 0.764557
O O5 0.841970 0.335950 0.500000
O O6 0.899489 0.276656 0.399975
O O7 0.906495 0.406774 0.409296
O O8 0.790987 0.347264 0.382389
O O9 0.777539 0.490500 0.169672
O O10 0.860732 0.515588 0.264542
O O11 0.874516 0.411139 0.191210
O O12 0.772270 0.417432 0.275833
O O13 0.470539 0.668946 0.880037
O O14 0.000000 0.500000 0.898300
O O15 0.966901 0.371918 0.890535
O O16 0.999682 0.419931 0.000000
O O17 0.024037 0.869449 0.500000
O O18 0.947141 0.923332 0.589413
#
# Coordination Sequence:
#
# PCOD8303777 Si02
#       8
#    16  16  16  16  16  16  16  16
#     4   8  18  30  48  67  97 120 151 200 246 276
#     4  10  19  32  49  69  95 129 166 198 232 290
#     4  10  20  28  49  72  96 125 160 197 245 289
#     4  10  19  31  48  74  94 124 162 199 243 285
#     4  10  20  31  46  66  97 133 157 190 235 281
#     4   9  19  35  52  70  96 129 163 201 245 293
#     4  10  19  32  45  71  95 126 161 197 239 290
#     4   9  16  33  47  68  94 123 155 197 239 291
#
# _framework density 15.676653999999999
#
# number of rings (size 3 to 8) (size 9 to 14) (size 15 to 20)
#    0.000    2.500    1.250    2.250    3.500    0.000 
#    0.000    1.250    0.000    0.000    0.000    0.000 
#    0.000    0.000    0.000    0.000    0.000   13.250 
#
# Total GULP energy -793453.871461 kJ/mol
# GULP energy per Si atom -12397.716742 kJ/mol
# Density = 1.564097 g / cm^3
# Si number density = 15.676654 Si / 1000 Ang^3
#
#
#
# Elastic Constant Matrix: (Units=GPa)
#
#
# Indices 1 2 3 4 5 6 
#
# 1 72.2128 33.0913 43.5675 0.0000 0.0000 5.0832
# 2 33.0913 72.2128 43.5675 0.0000 0.0000 -5.0832
# 3 43.5675 43.5675 81.2703 0.0000 0.0000 0.0000
# 4 0.0000 0.0000 0.0000 26.1329 0.0000 0.0000
# 5 0.0000 0.0000 0.0000 0.0000 26.1329 0.0000
# 6 5.0832 -5.0832 0.0000 0.0000 0.0000 25.2202
#
#
#
# Elastic Compliance Matrix: (Units=1/GPa)
#
#
# Indices 1 2 3 4 5 6 
#
# 1 0.022021 -0.004954 -0.009149 0.000000 0.000000 -0.005437
# 2 -0.004954 0.022021 -0.009149 0.000000 0.000000 0.005437
# 3 -0.009149 -0.009149 0.022114 0.000000 0.000000 0.000000
# 4 0.000000 0.000000 0.000000 0.038266 0.000000 0.000000
# 5 0.000000 0.000000 0.000000 0.000000 0.038266 0.000000
# 6 -0.005437 0.005437 0.000000 0.000000 0.000000 0.041842
#
#
# Mechanical properties :
#
#
# Convention : Reuss Voigt Hill
#
# Bulk Modulus (GPa) = 50.88814 51.79429 51.34121
# Shear Modulus (GPa) = 21.04514 22.52850 21.78682
#
# Velocity S-wave (km/s) = 3.66792 3.79499 3.73200
# Velocity P-wave (km/s) = 7.10421 7.23280 7.16879
#
# Compressibility (1/GPa) = 0.01965094
#
# Stress axis : x y z
#
# Youngs Moduli (GPa) = 45.41197 45.41197 45.21983
#
# Poissons Ratio (x) = 0.22495 0.41373
# Poissons Ratio (y) = 0.22495 0.41373
# Poissons Ratio (z) = 0.41549 0.41549
#
# Static dielectric constant tensor:
#      x y z
#    x 3.176010 0.000000 0.000000 
#    y 0.000000 3.176010 0.000000 
#    z 0.000000 0.000000 2.903070 
# 
# 
# High freq. dielectric constant tensor:
#      x y z
#    x 1.596060 0.000000 0.000000 
#    y 0.000000 1.596060 0.000000 
#    z 0.000000 0.000000 1.589980 
# 
# From -- ./inp_files/4727.got.cif
#   From: 2010.03.12/outbox.cif.g09.slc.cpg/sg87_3_cif.got.tgz:4727.got - 2010.04.08 20:16:13.
