data_PCOD8303350
_publ_section_title
;
Structure prediction by ZEFSAII (Michael W. Deem and Ramdas Pophale) SiO2 
 PCOD8303350
Probable space group: P 42/M
;
_chemical_formula_sum "Si O2"
_cell_formula_units_Z 40
_cell_length_a 8.255079
_cell_length_b 8.255079
_cell_length_c 25.412036
_cell_angle_alpha 90.000000
_cell_angle_beta 90.000000
_cell_angle_gamma 90.000000
_cell_volume 1731.736973
_symmetry_space_group_name_H-M "P 42/M"
_symmetry_group_IT_number 84
_symmetry_cell_setting 'tetragonal'
loop_
_space_group_symop_operation_xyz
x,y,z
-y,x,1/2+z
-x,-y,z
y,-x,1/2+z
-x,-y,-z
y,-x,1/2-z
x,y,-z
-y,x,1/2-z
loop_
_atom_site_type_symbol
_atom_site_label
_atom_site_fract_x
_atom_site_fract_y
_atom_site_fract_z
Si Si1 0.319758 0.682317 0.562076
Si Si2 0.432170 0.286410 0.276690
Si Si3 0.658370 0.677762 0.604409
Si Si4 0.811960 0.002219 0.883748
Si Si5 0.753524 0.965732 0.232191
O O1 0.314450 0.694040 0.500000
O O2 0.492161 0.760494 0.581636
O O3 0.318609 0.498580 0.580596
O O4 0.156963 0.769534 0.582567
O O5 0.333755 0.381790 0.230079
O O6 0.361329 0.332728 0.333091
O O7 0.407464 0.097551 0.262294
O O8 0.824379 0.772264 0.588331
O O9 0.714995 0.000682 0.828746
O O10 0.000000 0.000000 0.870475
O O11 0.881117 0.817999 0.236448
#
# Coordination Sequence:
#
# PCOD8303350 Si02
#       5
#     8   8   8   8   8
#     4  11  26  46  70  95 127 175 234 295 345 399
#     4  11  21  34  57  92 127 160 206 266 324 394
#     4  11  22  44  68  96 131 175 229 281 344 410
#     4  12  24  42  68  99 138 178 222 275 341 417
#     4  11  20  39  59  87 130 169 207 243 312 403
#
# _framework density 23.098195
#
# number of rings (size 3 to 8) (size 9 to 14) (size 15 to 20)
#    0.000    0.800    4.000    6.600    0.000    4.400 
#    0.000    5.000    0.000    0.000    0.000    0.000 
#    0.000    0.000    0.000    0.000    0.000    0.000 
#
# Total GULP energy -495644.681152 kJ/mol
# GULP energy per Si atom -12391.117029 kJ/mol
# Density = 2.304562 g / cm^3
# Si number density = 23.098195 Si / 1000 Ang^3
#
#
#
# Elastic Constant Matrix: (Units=GPa)
#
#
# Indices 1 2 3 4 5 6 
#
# 1 61.8848 88.3797 35.4982 0.0000 0.0000 -7.4929
# 2 88.3797 61.8848 35.4982 0.0000 0.0000 7.4929
# 3 35.4982 35.4982 123.4274 0.0000 0.0000 0.0000
# 4 0.0000 0.0000 0.0000 -128.0409 0.0000 0.0000
# 5 0.0000 0.0000 0.0000 0.0000 -128.0409 0.0000
# 6 -7.4929 7.4929 0.0000 0.0000 0.0000 39.2679
#
#
#
# Elastic Compliance Matrix: (Units=1/GPa)
#
#
# Indices 1 2 3 4 5 6 
#
# 1 -0.013183 0.020884 -0.002215 0.000000 0.000000 -0.006500
# 2 0.020884 -0.013183 -0.002215 0.000000 0.000000 0.006500
# 3 -0.002215 -0.002215 0.009376 0.000000 0.000000 0.000000
# 4 0.000000 0.000000 0.000000 -0.007810 0.000000 0.000000
# 5 0.000000 0.000000 0.000000 0.000000 -0.007810 0.000000
# 6 -0.006500 0.006500 0.000000 0.000000 0.000000 0.022985
#
#
# Mechanical properties :
#
#
# Convention : Reuss Voigt Hill
#
# Bulk Modulus (GPa) = 62.81793 62.88327 62.85060
# Shear Modulus (GPa) = -134.31694 -37.50807 -85.91250
#
# Velocity S-wave (km/s) = -7.63391 -4.03408 -6.10534
# Velocity P-wave (km/s) = 7.10261 2.36327 4.73614
#
# Compressibility (1/GPa) = 0.01591902
#
# Stress axis : x y z
#
# Youngs Moduli (GPa) = -75.85803 -75.85803 106.65528
#
# Poissons Ratio (x) = 1.58422 0.23624
# Poissons Ratio (y) = 1.58422 0.23624
# Poissons Ratio (z) = -0.16802 -0.16802
#
# Static dielectric constant tensor:
#      x y z
#    x 4.671180 0.000000 0.000000 
#    y 0.000000 4.671180 0.000000 
#    z 0.000000 0.000000 3.957820 
# 
# 
# High freq. dielectric constant tensor:
#      x y z
#    x 1.926370 0.000000 0.000000 
#    y 0.000000 1.926370 0.000000 
#    z 0.000000 0.000000 1.891340 
# 
# From -- ./inp_files/4804.got.cif
#   From: 2010.03.12/outbox.cif.g09.slc.cpg/sg84_3_cif.got.tgz:4804.got - 2010.04.08 20:07:29.
