data_PCOD8303833
_publ_section_title
;
Structure prediction by ZEFSAII (Michael W. Deem and Ramdas Pophale) SiO2 
 PCOD8303833
Probable space group: I 4/M
;
_chemical_formula_sum "Si O2"
_cell_formula_units_Z 64
_cell_length_a 14.585127
_cell_length_b 14.585127
_cell_length_c 14.124948
_cell_angle_alpha 90.000000
_cell_angle_beta 90.000000
_cell_angle_gamma 90.000000
_cell_volume 3004.742694
_symmetry_space_group_name_H-M "I 4/M"
_symmetry_group_IT_number 87
_symmetry_cell_setting 'tetragonal'
loop_
_space_group_symop_operation_xyz
x,y,z
-y,x,z
-x,-y,z
y,-x,z
-x,-y,-z
y,-x,-z
x,y,-z
-y,x,-z
1/2+x,1/2+y,1/2+z
1/2-y,1/2+x,1/2+z
1/2-x,1/2-y,1/2+z
1/2+y,1/2-x,1/2+z
1/2-x,1/2-y,1/2-z
1/2+y,1/2-x,1/2-z
1/2+x,1/2+y,1/2-z
1/2-y,1/2+x,1/2-z
loop_
_atom_site_type_symbol
_atom_site_label
_atom_site_fract_x
_atom_site_fract_y
_atom_site_fract_z
Si Si1 0.599495 0.275883 0.893077
Si Si2 0.596542 0.792767 0.396426
Si Si3 0.588143 0.738084 0.803228
Si Si4 0.066450 0.578887 0.107175
O O1 0.622779 0.168030 0.885356
O O2 0.511674 0.301001 0.829562
O O3 0.687187 0.333108 0.860299
O O4 0.575479 0.303403 0.000000
O O5 0.613993 0.745529 0.500000
O O6 0.607816 0.722724 0.308866
O O7 0.492477 0.828347 0.392615
O O8 0.592837 0.846186 0.826063
O O9 0.000000 0.500000 0.147443
O O10 0.099637 0.554793 0.000000
#
# Coordination Sequence:
#
# PCOD8303833 Si02
#       4
#    16  16  16  16
#     4  11  23  40  62  92 125 159 205 258 306 368
#     4  10  22  38  59  89 121 156 206 258 307 363
#     4  12  23  39  62  90 125 169 203 248 311 368
#     4  10  19  34  59  88 118 155 198 250 311 362
#
# _framework density 21.299659999999999
#
# number of rings (size 3 to 8) (size 9 to 14) (size 15 to 20)
#    0.000    1.250    2.500    4.500    0.000    0.500 
#    0.000    5.000    0.000    0.000    0.000    1.750 
#    0.000    0.000    0.000    0.000    0.000    0.000 
#
# Total GULP energy -396813.499875 kJ/mol
# GULP energy per Si atom -12400.421871 kJ/mol
# Density = 2.125118 g / cm^3
# Si number density = 21.299660 Si / 1000 Ang^3
#
#
#
# Elastic Constant Matrix: (Units=GPa)
#
#
# Indices 1 2 3 4 5 6 
#
# 1 68.8065 40.8147 35.0358 0.0000 0.0000 4.9435
# 2 40.8147 68.8065 35.0358 0.0000 0.0000 -4.9436
# 3 35.0358 35.0358 163.6661 0.0000 0.0000 0.0000
# 4 0.0000 0.0000 0.0000 24.4784 0.0000 0.0000
# 5 0.0000 0.0000 0.0000 0.0000 24.4785 0.0000
# 6 4.9435 -4.9436 0.0000 0.0000 0.0000 33.0782
#
#
#
# Elastic Compliance Matrix: (Units=1/GPa)
#
#
# Indices 1 2 3 4 5 6 
#
# 1 0.024142 -0.013574 -0.002262 0.000000 0.000000 -0.005637
# 2 -0.013574 0.024142 -0.002262 0.000000 0.000000 0.005637
# 3 -0.002262 -0.002262 0.007079 0.000000 0.000000 0.000000
# 4 0.000000 0.000000 0.000000 0.040852 0.000000 0.000000
# 5 0.000000 0.000000 0.000000 0.000000 0.040852 0.000000
# 6 -0.005637 0.005637 0.000000 0.000000 0.000000 0.031916
#
#
# Mechanical properties :
#
#
# Convention : Reuss Voigt Hill
#
# Bulk Modulus (GPa) = 52.17564 58.11685 55.14625
# Shear Modulus (GPa) = 23.63296 29.09988 26.36642
#
# Velocity S-wave (km/s) = 3.33460 3.70024 3.52217
# Velocity P-wave (km/s) = 6.27497 6.75280 6.51826
#
# Compressibility (1/GPa) = 0.01916603
#
# Stress axis : x y z
#
# Youngs Moduli (GPa) = 41.42141 41.42141 141.27073
#
# Poissons Ratio (x) = 0.56224 0.31961
# Poissons Ratio (y) = 0.56224 0.31961
# Poissons Ratio (z) = 0.09371 0.09371
#
# Static dielectric constant tensor:
#      x y z
#    x 3.522150 0.000000 0.000000 
#    y 0.000000 3.522150 0.000000 
#    z 0.000000 0.000000 4.225760 
# 
# 
# High freq. dielectric constant tensor:
#      x y z
#    x 1.808090 0.000000 0.000000 
#    y 0.000000 1.808090 0.000000 
#    z 0.000000 0.000000 1.856640 
# 
# From -- ./inp_files/3338.got.cif
#   From: 2010.03.12/outbox.cif.g09.slc.cpg/sg87_2_cif.got.tgz:3338.got - 2010.04.08 20:16:13.
