data_PCOD8303436
_publ_section_title
;
Structure prediction by ZEFSAII (Michael W. Deem and Ramdas Pophale) SiO2 
 PCOD8303436
Probable space group: P 4/N
;
_chemical_formula_sum "Si O2"
_cell_formula_units_Z 40
_cell_length_a 18.430780
_cell_length_b 18.430780
_cell_length_c 5.116693
_cell_angle_alpha 90.000000
_cell_angle_beta 90.000000
_cell_angle_gamma 90.000000
_cell_volume 1738.108128
_symmetry_space_group_name_H-M "P 4/N"
_symmetry_group_IT_number 85
_symmetry_cell_setting 'tetragonal'
loop_
_space_group_symop_operation_xyz
x,y,z
1/2-y,x,z
1/2-x,1/2-y,z
y,1/2-x,z
-x,-y,-z
1/2+y,-x,-z
1/2+x,1/2+y,-z
-y,1/2+x,-z
loop_
_atom_site_type_symbol
_atom_site_label
_atom_site_fract_x
_atom_site_fract_y
_atom_site_fract_z
Si Si1 0.463543 0.134930 0.568396
Si Si2 0.715424 0.994951 0.230489
Si Si3 0.141086 0.773509 0.950031
Si Si4 0.065604 0.100479 0.077187
Si Si5 0.112090 0.568856 0.387069
O O1 0.457738 0.221461 0.602506
O O2 0.447550 0.095742 0.841495
O O3 0.545617 0.113072 0.486528
O O4 0.409206 0.115764 0.332927
O O5 0.747014 0.068343 0.104197
O O6 0.644621 0.013123 0.402564
O O7 0.685591 0.937792 0.013106
O O8 0.197565 0.820368 0.130431
O O9 0.122798 0.823070 0.699394
O O10 0.981467 0.081270 0.149751
#
# Coordination Sequence:
#
# PCOD8303436 Si02
#       5
#     8   8   8   8   8
#     4  12  26  44  73  99 143 183 227 296 357 402
#     4  11  26  42  66 107 139 183 243 287 354 428
#     4  10  22  39  60  95 150 200 235 279 341 425
#     4  11  26  45  69 103 137 180 236 291 348 415
#     4  11  24  41  66 104 137 183 237 287 340 428
#
# _framework density 23.013527
#
# number of rings (size 3 to 8) (size 9 to 14) (size 15 to 20)
#    0.000    1.000    4.000    1.200   14.000    0.000 
#    0.000    2.000    0.000    0.600    5.200    0.000 
#    0.000    0.000    0.000    0.000    0.000    0.000 
#
# Total GULP energy -495797.978397 kJ/mol
# GULP energy per Si atom -12394.949460 kJ/mol
# Density = 2.296115 g / cm^3
# Si number density = 23.013527 Si / 1000 Ang^3
#
#
#
# Elastic Constant Matrix: (Units=GPa)
#
#
# Indices 1 2 3 4 5 6 
#
# 1 80.2847 70.7334 40.0369 0.0000 0.0000 1.9111
# 2 70.7334 80.2847 40.0369 0.0000 0.0000 -1.9111
# 3 40.0369 40.0369 109.2790 0.0000 0.0000 0.0000
# 4 0.0000 0.0000 0.0000 32.9162 0.0000 0.0000
# 5 0.0000 0.0000 0.0000 0.0000 32.9162 0.0000
# 6 1.9111 -1.9111 0.0000 0.0000 0.0000 30.5523
#
#
#
# Elastic Compliance Matrix: (Units=1/GPa)
#
#
# Indices 1 2 3 4 5 6 
#
# 1 0.057802 -0.049584 -0.003011 0.000000 0.000000 -0.006717
# 2 -0.049584 0.057802 -0.003011 0.000000 0.000000 0.006717
# 3 -0.003011 -0.003011 0.011357 0.000000 0.000000 0.000000
# 4 0.000000 0.000000 0.000000 0.030380 0.000000 0.000000
# 5 0.000000 0.000000 0.000000 0.000000 0.030380 0.000000
# 6 -0.006717 0.006717 0.000000 0.000000 0.000000 0.033571
#
#
# Mechanical properties :
#
#
# Convention : Reuss Voigt Hill
#
# Bulk Modulus (GPa) = 63.49277 63.49584 63.49430
# Shear Modulus (GPa) = 14.80370 27.21304 21.00837
#
# Velocity S-wave (km/s) = 2.53901 3.44245 3.02465
# Velocity P-wave (km/s) = 6.02035 6.59175 6.31252
#
# Compressibility (1/GPa) = 0.01574983
#
# Stress axis : x y z
#
# Youngs Moduli (GPa) = 17.30047 17.30047 88.05045
#
# Poissons Ratio (x) = 0.85782 0.26511
# Poissons Ratio (y) = 0.85782 0.26511
# Poissons Ratio (z) = 0.05209 0.05209
#
# Static dielectric constant tensor:
#      x y z
#    x 4.091580 0.000000 0.000000 
#    y 0.000000 4.091580 0.000000 
#    z 0.000000 0.000000 4.123140 
# 
# 
# High freq. dielectric constant tensor:
#      x y z
#    x 1.896890 0.000000 0.000000 
#    y 0.000000 1.896890 0.000000 
#    z 0.000000 0.000000 1.906060 
# 
# From -- ./inp_files/335.got.cif
#   From: 2010.03.12/outbox.cif.g09.slc.cpg/sg85_cif.got.tgz:335.got - 2010.04.08 20:10:46.
