data_PCOD8303758
_publ_section_title
;
Structure prediction by ZEFSAII (Michael W. Deem and Ramdas Pophale) SiO2 
 PCOD8303758
Probable space group: I 4/M
;
_chemical_formula_sum "Si O2"
_cell_formula_units_Z 80
_cell_length_a 15.271066
_cell_length_b 15.271066
_cell_length_c 23.584385
_cell_angle_alpha 90.000000
_cell_angle_beta 90.000000
_cell_angle_gamma 90.000000
_cell_volume 5500.007277
_symmetry_space_group_name_H-M "I 4/M"
_symmetry_group_IT_number 87
_symmetry_cell_setting 'tetragonal'
loop_
_space_group_symop_operation_xyz
x,y,z
-y,x,z
-x,-y,z
y,-x,z
-x,-y,-z
y,-x,-z
x,y,-z
-y,x,-z
1/2+x,1/2+y,1/2+z
1/2-y,1/2+x,1/2+z
1/2-x,1/2-y,1/2+z
1/2+y,1/2-x,1/2+z
1/2-x,1/2-y,1/2-z
1/2+y,1/2-x,1/2-z
1/2+x,1/2+y,1/2-z
1/2-y,1/2+x,1/2-z
loop_
_atom_site_type_symbol
_atom_site_label
_atom_site_fract_x
_atom_site_fract_y
_atom_site_fract_z
Si Si1 0.541888 0.362750 0.935624
Si Si2 0.230881 0.121960 0.336781
Si Si3 0.759860 0.696231 0.692139
Si Si4 0.882770 0.579816 0.752141
Si Si5 0.585602 0.385207 0.268065
O O1 0.607454 0.443036 0.923933
O O2 0.566621 0.283128 0.893934
O O3 0.551662 0.329447 0.000000
O O4 0.233655 0.226335 0.354523
O O5 0.321083 0.091107 0.307247
O O6 0.148424 0.106340 0.295157
O O7 0.750000 0.750000 0.750000
O O8 0.845549 0.634729 0.698288
O O9 0.675098 0.633746 0.684728
O O10 0.884985 0.478873 0.732868
O O11 0.621307 0.482138 0.277078
#
# Coordination Sequence:
#
# PCOD8303758 Si02
#       5
#    16  16  16  16  16
#     4   9  18  31  46  65  86 108 142 184 221 256
#     4  10  19  25  43  60  84 113 142 173 214 247
#     4   8  18  24  37  55  82 108 141 168 201 244
#     4   9  18  28  39  57  86 118 145 166 195 253
#     4   9  16  24  38  57  83 113 135 165 205 250
#
# _framework density 14.545436
#
# number of rings (size 3 to 8) (size 9 to 14) (size 15 to 20)
#    0.000    3.400    0.000    1.800   19.600    1.600 
#    0.000    0.000    0.000    0.000    0.000    4.200 
#    0.000    0.000    0.000    2.200    0.000    0.000 
#
# Total GULP energy -495577.913748 kJ/mol
# GULP energy per Si atom -12389.447844 kJ/mol
# Density = 1.451233 g / cm^3
# Si number density = 14.545436 Si / 1000 Ang^3
#
#
#
# Elastic Constant Matrix: (Units=GPa)
#
#
# Indices 1 2 3 4 5 6 
#
# 1 86.3528 43.4573 16.4990 0.0000 0.0000 1.4453
# 2 43.4573 86.3528 16.4990 0.0000 0.0000 -1.4453
# 3 16.4990 16.4990 43.3394 0.0000 0.0000 0.0000
# 4 0.0000 0.0000 0.0000 15.8072 0.0000 0.0000
# 5 0.0000 0.0000 0.0000 0.0000 15.8072 0.0000
# 6 1.4453 -1.4453 0.0000 0.0000 0.0000 27.1583
#
#
#
# Elastic Compliance Matrix: (Units=1/GPa)
#
#
# Indices 1 2 3 4 5 6 
#
# 1 0.015963 -0.007434 -0.003247 0.000000 0.000000 -0.001245
# 2 -0.007434 0.015963 -0.003247 0.000000 0.000000 0.001245
# 3 -0.003247 -0.003247 0.025546 0.000000 0.000000 0.000000
# 4 0.000000 0.000000 0.000000 0.063262 0.000000 0.000000
# 5 0.000000 0.000000 0.000000 0.000000 0.063262 0.000000
# 6 -0.001245 0.001245 0.000000 0.000000 0.000000 0.036954
#
#
# Mechanical properties :
#
#
# Convention : Reuss Voigt Hill
#
# Bulk Modulus (GPa) = 33.76545 40.99509 37.38027
# Shear Modulus (GPa) = 19.32918 21.06053 20.19485
#
# Velocity S-wave (km/s) = 3.64934 3.80927 3.73016
# Velocity P-wave (km/s) = 6.40477 6.89875 6.65634
#
# Compressibility (1/GPa) = 0.02961607
#
# Stress axis : x y z
#
# Youngs Moduli (GPa) = 62.64622 62.64622 39.14529
#
# Poissons Ratio (x) = 0.46569 0.12710
# Poissons Ratio (y) = 0.46569 0.12710
# Poissons Ratio (z) = 0.20341 0.20341
#
# Static dielectric constant tensor:
#      x y z
#    x 3.181780 0.000000 0.000000 
#    y 0.000000 3.181780 0.000000 
#    z 0.000000 0.000000 2.447490 
# 
# 
# High freq. dielectric constant tensor:
#      x y z
#    x 1.567180 0.000000 0.000000 
#    y 0.000000 1.567180 0.000000 
#    z 0.000000 0.000000 1.484070 
# 
# From -- ./inp_files/5742.got.cif
#   From: 2010.03.12/outbox.cif.g09.slc.cpg/sg87_3_cif.got.tgz:5742.got - 2010.04.08 20:16:13.
