data_PCOD8303550
_publ_section_title
;
Structure prediction by ZEFSAII (Michael W. Deem and Ramdas Pophale) SiO2 
 PCOD8303550
Probable space group: P 42/N
;
_chemical_formula_sum "Si O2"
_cell_formula_units_Z 60
_cell_length_a 17.572951
_cell_length_b 17.572951
_cell_length_c 9.622752
_cell_angle_alpha 90.000000
_cell_angle_beta 90.000000
_cell_angle_gamma 90.000000
_cell_volume 2971.588639
_symmetry_space_group_name_H-M "P 42/N"
_symmetry_group_IT_number 86
_space_group.IT_coordinate_system_code '2'
_symmetry_cell_setting 'tetragonal'
loop_
_space_group_symop_operation_xyz
x,y,z
-y,1/2+x,1/2+z
1/2-x,1/2-y,z
1/2+y,-x,1/2+z
-x,-y,-z
y,1/2-x,1/2-z
1/2+x,1/2+y,-z
1/2-y,x,1/2-z
loop_
_atom_site_type_symbol
_atom_site_label
_atom_site_fract_x
_atom_site_fract_y
_atom_site_fract_z
Si Si1 0.414960 0.015324 0.149157
Si Si2 0.750000 0.250000 0.065322
Si Si3 0.489414 0.763242 0.032518
Si Si4 0.588171 0.549321 0.377462
Si Si5 0.397782 0.043142 0.599824
Si Si6 0.944931 0.236807 0.272413
Si Si7 0.602954 0.496281 0.866977
Si Si8 0.844676 0.284683 0.815985
O O1 0.455620 0.085479 0.228007
O O2 0.464859 0.938708 0.174496
O O3 0.328952 0.007590 0.204595
O O4 0.414496 0.027903 0.984340
O O5 0.757536 0.322589 0.171244
O O6 0.820448 0.241531 0.959038
O O7 0.549474 0.831733 0.042558
O O8 0.537838 0.687144 0.044175
O O9 0.435214 0.781621 0.166322
O O10 0.443912 0.763651 0.887219
O O11 0.588625 0.604088 0.244570
O O12 0.448378 0.093548 0.497440
O O13 0.427214 0.956554 0.617466
O O14 0.865385 0.198803 0.315951
O O15 0.962993 0.311317 0.365197
#
# Coordination Sequence:
#
# PCOD8303550 Si02
#       8
#     8   4   8   8   8   8   8   8
#     4  10  20  40  62  91 125 163 214 265 327 391
#     4  10  24  38  48  84 138 172 202 248 318 408
#     4  12  23  40  66  93 128 170 223 275 328 389
#     4  10  22  40  63  91 125 164 215 272 328 391
#     4  10  24  40  63  93 130 171 219 271 323 394
#     4  12  23  38  68  95 127 170 221 270 328 394
#     4  10  22  40  62  93 130 172 215 263 325 393
#     4  11  24  38  59  90 132 173 210 261 326 393
#
# _framework density 20.191222
#
# number of rings (size 3 to 8) (size 9 to 14) (size 15 to 20)
#    0.000    1.333    5.333    0.000    3.733    3.200 
#    0.000    0.000    0.000    4.800    0.000    0.000 
#    0.000    0.000    0.000    0.000    0.000    0.000 
#
# Total GULP energy -743649.713745 kJ/mol
# GULP energy per Si atom -12394.161896 kJ/mol
# Density = 2.014527 g / cm^3
# Si number density = 20.191222 Si / 1000 Ang^3
#
#
#
# Elastic Constant Matrix: (Units=GPa)
#
#
# Indices 1 2 3 4 5 6 
#
# 1 66.3734 6.0424 11.7307 0.0000 0.0000 -1.8896
# 2 6.0424 66.3734 11.7307 0.0000 0.0000 1.8896
# 3 11.7307 11.7307 118.0489 0.0000 0.0000 0.0000
# 4 0.0000 0.0000 0.0000 26.5607 0.0000 0.0000
# 5 0.0000 0.0000 0.0000 0.0000 26.5607 0.0000
# 6 -1.8896 1.8896 0.0000 0.0000 0.0000 23.4091
#
#
#
# Elastic Compliance Matrix: (Units=1/GPa)
#
#
# Indices 1 2 3 4 5 6 
#
# 1 0.015464 -0.001195 -0.001418 0.000000 0.000000 0.001345
# 2 -0.001195 0.015464 -0.001418 0.000000 0.000000 -0.001345
# 3 -0.001418 -0.001418 0.008753 0.000000 0.000000 0.000000
# 4 0.000000 0.000000 0.000000 0.037650 0.000000 0.000000
# 5 0.000000 0.000000 0.000000 0.000000 0.037650 0.000000
# 6 0.001345 -0.001345 0.000000 0.000000 0.000000 0.042936
#
#
# Mechanical properties :
#
#
# Convention : Reuss Voigt Hill
#
# Bulk Modulus (GPa) = 31.62723 34.42261 33.02492
# Shear Modulus (GPa) = 28.32577 30.05886 29.19231
#
# Velocity S-wave (km/s) = 3.74956 3.86257 3.80648
# Velocity P-wave (km/s) = 5.86886 6.08094 5.97584
#
# Compressibility (1/GPa) = 0.03161833
#
# Stress axis : x y z
#
# Youngs Moduli (GPa) = 64.66636 64.66636 114.24830
#
# Poissons Ratio (x) = 0.07731 0.16199
# Poissons Ratio (y) = 0.07731 0.16199
# Poissons Ratio (z) = 0.09169 0.09169
#
# Static dielectric constant tensor:
#      x y z
#    x 3.444210 0.000000 0.000000 
#    y 0.000000 3.444210 0.000000 
#    z 0.000000 0.000000 3.815080 
# 
# 
# High freq. dielectric constant tensor:
#      x y z
#    x 1.764210 0.000000 0.000000 
#    y 0.000000 1.764210 0.000000 
#    z 0.000000 0.000000 1.806150 
# 
# From -- ./inp_files/1471.got.cif
#   From: 2010.03.12/outbox.cif.g09.slc.cpg/sg86_1_cif.got.tgz:1471.got - 2010.04.08 20:12:58.
