data_PCOD8303431
_publ_section_title
;
Structure prediction by ZEFSAII (Michael W. Deem and Ramdas Pophale) SiO2 
 PCOD8303431
Probable space group: P 4/N
;
_chemical_formula_sum "Si O2"
_cell_formula_units_Z 34
_cell_length_a 14.225757
_cell_length_b 14.225757
_cell_length_c 8.004276
_cell_angle_alpha 90.000000
_cell_angle_beta 90.000000
_cell_angle_gamma 90.000000
_cell_volume 1619.842641
_symmetry_space_group_name_H-M "P 4/N"
_symmetry_group_IT_number 85
_symmetry_cell_setting 'tetragonal'
loop_
_space_group_symop_operation_xyz
x,y,z
1/2-y,x,z
1/2-x,1/2-y,z
y,1/2-x,z
-x,-y,-z
1/2+y,-x,-z
1/2+x,1/2+y,-z
-y,1/2+x,-z
loop_
_atom_site_type_symbol
_atom_site_label
_atom_site_fract_x
_atom_site_fract_y
_atom_site_fract_z
Si Si1 0.027505 0.488455 0.312927
Si Si2 0.170400 0.881339 0.774306
Si Si3 0.250000 0.750000 0.500000
Si Si4 0.555090 0.357001 0.906886
Si Si5 0.669396 0.882964 0.870266
O O1 0.036781 0.595713 0.256675
O O2 0.127824 0.433962 0.295652
O O3 0.000000 0.500000 0.500000
O O4 0.952115 0.431317 0.200280
O O5 0.176991 0.804686 0.623585
O O6 0.270503 0.932445 0.781923
O O7 0.134681 0.838451 0.951224
O O8 0.448693 0.362109 0.976095
O O9 0.622249 0.781137 0.875041
#
# Coordination Sequence:
#
# PCOD8303431 Si02
#       5
#     8   8   2   8   8
#     4  11  24  39  60  89 123 162 206 259 314 372
#     4  11  23  39  62  90 124 161 205 255 311 376
#     4  12  24  38  60  96 128 166 204 256 316 374
#     4  11  21  40  62  89 121 164 207 254 309 374
#     4  10  21  39  63  88 117 158 208 258 309 371
#
# _framework density 20.989692000000002
#
# number of rings (size 3 to 8) (size 9 to 14) (size 15 to 20)
#    0.000    1.176    0.000    8.471    0.000    7.529 
#    0.000    0.000    0.000    2.824    0.000    0.000 
#    0.000    0.000    0.000    0.000    0.000    0.000 
#
# Total GULP energy -421279.995737 kJ/mol
# GULP energy per Si atom -12390.588110 kJ/mol
# Density = 2.094192 g / cm^3
# Si number density = 20.989692 Si / 1000 Ang^3
#
#
#
# Elastic Constant Matrix: (Units=GPa)
#
#
# Indices 1 2 3 4 5 6 
#
# 1 116.3834 44.2065 41.4298 0.0000 0.0000 4.0638
# 2 44.2065 116.3834 41.4298 0.0000 0.0000 -4.0638
# 3 41.4298 41.4298 113.6151 0.0000 0.0000 0.0000
# 4 0.0000 0.0000 0.0000 35.4038 0.0000 0.0000
# 5 0.0000 0.0000 0.0000 0.0000 35.4038 0.0000
# 6 4.0638 -4.0638 0.0000 0.0000 0.0000 35.7194
#
#
#
# Elastic Compliance Matrix: (Units=1/GPa)
#
#
# Indices 1 2 3 4 5 6 
#
# 1 0.010852 -0.003182 -0.002797 0.000000 0.000000 -0.001597
# 2 -0.003182 0.010852 -0.002797 0.000000 0.000000 0.001597
# 3 -0.002797 -0.002797 0.010841 0.000000 0.000000 0.000000
# 4 0.000000 0.000000 0.000000 0.028246 0.000000 0.000000
# 5 0.000000 0.000000 0.000000 0.000000 0.028246 0.000000
# 6 -0.001597 0.001597 0.000000 0.000000 0.000000 0.028359
#
#
# Mechanical properties :
#
#
# Convention : Reuss Voigt Hill
#
# Bulk Modulus (GPa) = 66.69303 66.72379 66.70841
# Shear Modulus (GPa) = 35.72784 35.92646 35.82715
#
# Velocity S-wave (km/s) = 4.13020 4.14167 4.13594
# Velocity P-wave (km/s) = 7.38836 7.39791 7.39314
#
# Compressibility (1/GPa) = 0.01499407
#
# Stress axis : x y z
#
# Youngs Moduli (GPa) = 92.14545 92.14545 92.23852
#
# Poissons Ratio (x) = 0.29323 0.25799
# Poissons Ratio (y) = 0.29323 0.25799
# Poissons Ratio (z) = 0.25772 0.25772
#
# Static dielectric constant tensor:
#      x y z
#    x 3.870450 0.000000 0.000000 
#    y 0.000000 3.870450 0.000000 
#    z 0.000000 0.000000 3.672220 
# 
# 
# High freq. dielectric constant tensor:
#      x y z
#    x 1.829540 0.000000 0.000000 
#    y 0.000000 1.829540 0.000000 
#    z 0.000000 0.000000 1.812090 
# 
# From -- ./inp_files/770.got.cif
#   From: 2010.03.12/outbox.cif.g09.slc.cpg/sg85_cif.got.tgz:770.got - 2010.04.08 20:10:46.
