data_PCOD8303225
_publ_section_title
;
Structure prediction by ZEFSAII (Michael W. Deem and Ramdas Pophale) SiO2 
 PCOD8303225
Probable space group: P 42/M
;
_chemical_formula_sum "Si O2"
_cell_formula_units_Z 40
_cell_length_a 15.004045
_cell_length_b 15.004045
_cell_length_c 8.853016
_cell_angle_alpha 90.000000
_cell_angle_beta 90.000000
_cell_angle_gamma 90.000000
_cell_volume 1993.003058
_symmetry_space_group_name_H-M "P 42/M"
_symmetry_group_IT_number 84
_symmetry_cell_setting 'tetragonal'
loop_
_space_group_symop_operation_xyz
x,y,z
-y,x,1/2+z
-x,-y,z
y,-x,1/2+z
-x,-y,-z
y,-x,1/2-z
x,y,-z
-y,x,1/2-z
loop_
_atom_site_type_symbol
_atom_site_label
_atom_site_fract_x
_atom_site_fract_y
_atom_site_fract_z
Si Si1 0.448342 0.084867 0.321513
Si Si2 0.600530 0.215602 0.327424
Si Si3 0.389913 0.429505 0.677296
Si Si4 0.118441 0.218342 0.173340
Si Si5 0.248509 0.079016 0.678844
O O1 0.441576 0.071158 0.500000
O O2 0.506023 0.172107 0.281496
O O3 0.348328 0.094567 0.254071
O O4 0.500000 0.000000 0.250818
O O5 0.597111 0.249471 0.500000
O O6 0.620446 0.298455 0.217442
O O7 0.678530 0.144176 0.305423
O O8 0.381013 0.530990 0.733442
O O9 0.409354 0.424920 0.500000
O O10 0.182365 0.155547 0.268541
O O11 0.016845 0.210199 0.231832
O O12 0.126853 0.188832 0.000000
O O13 0.253834 0.081253 0.500000
#
# Coordination Sequence:
#
# PCOD8303225 Si02
#       5
#     8   8   8   8   8
#     4   9  16  33  61  86 110 145 190 236 284 344
#     4  10  20  36  59  87 118 150 190 242 298 354
#     4  11  23  40  59  82 116 156 198 239 286 343
#     4  10  22  39  59  85 120 155 196 251 303 353
#     4  10  21  38  61  88 115 153 201 245 294 357
#
# _framework density 20.070215000000001
#
# number of rings (size 3 to 8) (size 9 to 14) (size 15 to 20)
#    0.000    2.000    2.000    2.400    2.800    2.000 
#    0.000    2.000    0.000    1.200    0.000    0.000 
#    0.000    0.000    0.000    0.000    0.000    0.000 
#
# Total GULP energy -495996.664752 kJ/mol
# GULP energy per Si atom -12399.916619 kJ/mol
# Density = 2.002453 g / cm^3
# Si number density = 20.070215 Si / 1000 Ang^3
#
#
#
# Elastic Constant Matrix: (Units=GPa)
#
#
# Indices 1 2 3 4 5 6 
#
# 1 97.8167 36.2284 12.8729 0.0000 0.0000 10.8001
# 2 36.2284 97.8167 12.8729 0.0000 0.0000 -10.8001
# 3 12.8729 12.8729 33.7685 0.0000 0.0000 0.0000
# 4 0.0000 0.0000 0.0000 27.8402 0.0000 0.0000
# 5 0.0000 0.0000 0.0000 0.0000 27.8402 0.0000
# 6 10.8001 -10.8001 0.0000 0.0000 0.0000 28.4328
#
#
#
# Elastic Compliance Matrix: (Units=1/GPa)
#
#
# Indices 1 2 3 4 5 6 
#
# 1 0.013391 -0.005341 -0.003069 0.000000 0.000000 -0.007115
# 2 -0.005341 0.013391 -0.003069 0.000000 0.000000 0.007115
# 3 -0.003069 -0.003069 0.031953 0.000000 0.000000 0.000000
# 4 0.000000 0.000000 0.000000 0.035919 0.000000 0.000000
# 5 0.000000 0.000000 0.000000 0.000000 0.035919 0.000000
# 6 -0.007115 0.007115 0.000000 0.000000 0.000000 0.040576
#
#
# Mechanical properties :
#
#
# Convention : Reuss Voigt Hill
#
# Bulk Modulus (GPa) = 27.95035 39.26114 33.60574
# Shear Modulus (GPa) = 24.26798 27.98446 26.12622
#
# Velocity S-wave (km/s) = 3.48106 3.73812 3.61188
# Velocity P-wave (km/s) = 5.48758 6.18351 5.84591
#
# Compressibility (1/GPa) = 0.03577773
#
# Stress axis : x y z
#
# Youngs Moduli (GPa) = 74.67718 74.67718 31.29608
#
# Poissons Ratio (x) = 0.39888 0.09603
# Poissons Ratio (y) = 0.39888 0.09603
# Poissons Ratio (z) = 0.22915 0.22915
#
# Static dielectric constant tensor:
#      x y z
#    x 3.705340 0.000000 0.000000 
#    y 0.000000 3.705340 0.000000 
#    z 0.000000 0.000000 3.307920 
# 
# 
# High freq. dielectric constant tensor:
#      x y z
#    x 1.790450 0.000000 0.000000 
#    y 0.000000 1.790450 0.000000 
#    z 0.000000 0.000000 1.746110 
# 
# From -- ./inp_files/764.got.cif
#   From: 2010.03.12/outbox.cif.g09.slc.cpg/sg84_1_cif.got.tgz:764.got - 2010.04.08 20:07:29.
