data_PCOD8303860
_publ_section_title
;
Structure prediction by ZEFSAII (Michael W. Deem and Ramdas Pophale) SiO2 
 PCOD8303860
Probable space group: I 4/M
;
_chemical_formula_sum "Si O2"
_cell_formula_units_Z 96
_cell_length_a 25.071241
_cell_length_b 25.071241
_cell_length_c 8.812959
_cell_angle_alpha 90.000000
_cell_angle_beta 90.000000
_cell_angle_gamma 90.000000
_cell_volume 5539.536304
_symmetry_space_group_name_H-M "I 4/M"
_symmetry_group_IT_number 87
_symmetry_cell_setting 'tetragonal'
loop_
_space_group_symop_operation_xyz
x,y,z
-y,x,z
-x,-y,z
y,-x,z
-x,-y,-z
y,-x,-z
x,y,-z
-y,x,-z
1/2+x,1/2+y,1/2+z
1/2-y,1/2+x,1/2+z
1/2-x,1/2-y,1/2+z
1/2+y,1/2-x,1/2+z
1/2-x,1/2-y,1/2-z
1/2+y,1/2-x,1/2-z
1/2+x,1/2+y,1/2-z
1/2-y,1/2+x,1/2-z
loop_
_atom_site_type_symbol
_atom_site_label
_atom_site_fract_x
_atom_site_fract_y
_atom_site_fract_z
Si Si1 0.444519 0.121079 0.162876
Si Si2 0.553990 0.243701 0.322830
Si Si3 0.745641 0.053958 0.669588
Si Si4 0.365345 0.057624 0.670282
Si Si5 0.165768 0.755221 0.322149
Si Si6 0.332045 0.249139 0.678237
O O1 0.455564 0.183399 0.156904
O O2 0.405061 0.106479 0.297704
O O3 0.504367 0.098356 0.186644
O O4 0.421354 0.101494 0.000000
O O5 0.551238 0.256170 0.500000
O O6 0.500170 0.269203 0.247249
O O7 0.557341 0.180782 0.294212
O O8 0.608999 0.266907 0.255964
O O9 0.770305 0.060720 0.500000
O O10 0.753843 0.106954 0.768592
O O11 0.341909 0.065288 0.500000
O O12 0.157381 0.761245 0.500000
O O13 0.191705 0.696438 0.284728
O O14 0.205433 0.800500 0.266059
O O15 0.329186 0.260479 0.500000
#
# Coordination Sequence:
#
# PCOD8303860 Si02
#       6
#    16  16  16  16  16  16
#     4   9  19  32  44  60  82 111 149 192 236 282
#     4  11  21  33  50  70  94 124 159 199 241 288
#     4  10  20  34  50  69  95 126 160 197 240 290
#     4  10  20  32  45  61  82 111 149 192 238 286
#     4  10  20  34  52  74 102 134 166 203 248 297
#     4  10  20  33  51  76 103 132 167 205 247 295
#
# _framework density 17.329971
#
# number of rings (size 3 to 8) (size 9 to 14) (size 15 to 20)
#    0.000    2.000    0.000    5.500    0.000    9.000 
#    0.000    1.667    0.000    0.000    0.000    0.000 
#    0.000    0.667    0.000    6.667    0.000    4.000 
#
# Total GULP energy -594766.125832 kJ/mol
# GULP energy per Si atom -12390.960955 kJ/mol
# Density = 1.729053 g / cm^3
# Si number density = 17.329971 Si / 1000 Ang^3
#
#
#
# Elastic Constant Matrix: (Units=GPa)
#
#
# Indices 1 2 3 4 5 6 
#
# 1 66.3120 9.2959 21.3857 0.0000 0.0000 0.7167
# 2 9.2959 66.3120 21.3857 0.0000 0.0000 -0.7167
# 3 21.3857 21.3857 85.0156 0.0000 0.0000 0.0000
# 4 0.0000 0.0000 0.0000 27.2561 0.0000 0.0000
# 5 0.0000 0.0000 0.0000 0.0000 27.2561 0.0000
# 6 0.7167 -0.7167 0.0000 0.0000 0.0000 17.1965
#
#
#
# Elastic Compliance Matrix: (Units=1/GPa)
#
#
# Indices 1 2 3 4 5 6 
#
# 1 0.016489 -0.001068 -0.003879 0.000000 0.000000 -0.000732
# 2 -0.001068 0.016489 -0.003879 0.000000 0.000000 0.000732
# 3 -0.003879 -0.003879 0.013714 0.000000 0.000000 0.000000
# 4 0.000000 0.000000 0.000000 0.036689 0.000000 0.000000
# 5 0.000000 0.000000 0.000000 0.000000 0.036689 0.000000
# 6 -0.000732 0.000732 0.000000 0.000000 0.000000 0.058212
#
#
# Mechanical properties :
#
#
# Convention : Reuss Voigt Hill
#
# Bulk Modulus (GPa) = 34.43652 35.75272 35.09462
# Shear Modulus (GPa) = 24.31732 25.37991 24.84861
#
# Velocity S-wave (km/s) = 3.74999 3.83104 3.79073
# Velocity P-wave (km/s) = 6.21805 6.34386 6.28127
#
# Compressibility (1/GPa) = 0.02903894
#
# Stress axis : x y z
#
# Youngs Moduli (GPa) = 60.64684 60.64684 72.91769
#
# Poissons Ratio (x) = 0.06480 0.28285
# Poissons Ratio (y) = 0.06480 0.28285
# Poissons Ratio (z) = 0.23525 0.23525
#
# Static dielectric constant tensor:
#      x y z
#    x 3.115720 0.000000 0.000000 
#    y 0.000000 3.115720 0.000000 
#    z 0.000000 0.000000 3.379150 
# 
# 
# High freq. dielectric constant tensor:
#      x y z
#    x 1.643100 0.000000 0.000000 
#    y 0.000000 1.643100 0.000000 
#    z 0.000000 0.000000 1.686750 
# 
# From -- ./inp_files/1378.got.cif
#   From: 2010.03.12/outbox.cif.g09.slc.cpg/sg87_1_cif.got.tgz:1378.got - 2010.04.08 20:16:13.
