data_PCOD8303437
_publ_section_title
;
Structure prediction by ZEFSAII (Michael W. Deem and Ramdas Pophale) SiO2 
 PCOD8303437
Probable space group: P 4/N
;
_chemical_formula_sum "Si O2"
_cell_formula_units_Z 56
_cell_length_a 14.365662
_cell_length_b 14.365662
_cell_length_c 12.321236
_cell_angle_alpha 90.000000
_cell_angle_beta 90.000000
_cell_angle_gamma 90.000000
_cell_volume 2542.761131
_symmetry_space_group_name_H-M "P 4/N"
_symmetry_group_IT_number 85
_symmetry_cell_setting 'tetragonal'
loop_
_space_group_symop_operation_xyz
x,y,z
1/2-y,x,z
1/2-x,1/2-y,z
y,1/2-x,z
-x,-y,-z
1/2+y,-x,-z
1/2+x,1/2+y,-z
-y,1/2+x,-z
loop_
_atom_site_type_symbol
_atom_site_label
_atom_site_fract_x
_atom_site_fract_y
_atom_site_fract_z
Si Si1 0.040255 0.331005 0.415540
Si Si2 0.883066 0.682857 0.347916
Si Si3 0.398822 0.263360 0.046937
Si Si4 0.892885 0.251304 0.960547
Si Si5 0.132261 0.926873 0.755477
Si Si6 0.952813 0.835022 0.732977
Si Si7 0.138584 0.656025 0.476134
O O1 0.103175 0.322596 0.522793
O O2 0.013470 0.230050 0.366850
O O3 0.089917 0.385215 0.319908
O O4 0.945761 0.385135 0.451439
O O5 0.873451 0.790941 0.315559
O O6 0.965048 0.639303 0.275638
O O7 0.333667 0.350404 0.009609
O O8 0.403353 0.269825 0.177670
O O9 0.501745 0.267807 0.996836
O O10 0.895160 0.286734 0.836678
O O11 0.831347 0.156751 0.965476
O O12 0.129883 0.864159 0.648474
O O13 0.030948 0.895342 0.799512
O O14 0.123986 0.767202 0.469599
#
# Coordination Sequence:
#
# PCOD8303437 Si02
#       7
#     8   8   8   8   8   8   8
#     4  11  22  36  65  98 136 177 221 275 334 409
#     4  10  22  41  65 100 145 189 229 273 338 428
#     4  11  25  46  72 106 139 178 236 301 362 421
#     4  11  26  49  75  99 136 186 244 309 368 435
#     4  11  25  43  67 101 134 179 236 281 359 419
#     4  12  22  40  67 100 134 175 226 284 343 406
#     4  10  22  39  61  94 138 176 215 267 334 414
#
# _framework density 22.023302999999999
#
# number of rings (size 3 to 8) (size 9 to 14) (size 15 to 20)
#    0.000    1.143    5.714    0.000    0.000   10.000 
#    2.571    1.429    0.000    0.000    0.000    0.000 
#    0.000    0.000    0.000    0.000    0.000    0.000 
#
# Total GULP energy -694034.996975 kJ/mol
# GULP energy per Si atom -12393.482089 kJ/mol
# Density = 2.197318 g / cm^3
# Si number density = 22.023303 Si / 1000 Ang^3
#
#
#
# Elastic Constant Matrix: (Units=GPa)
#
#
# Indices 1 2 3 4 5 6 
#
# 1 99.1463 41.1584 13.7066 0.0000 0.0000 -4.4509
# 2 41.1584 99.1463 13.7066 0.0000 0.0000 4.4509
# 3 13.7066 13.7066 44.7516 0.0000 0.0000 0.0000
# 4 0.0000 0.0000 0.0000 27.0700 0.0000 0.0000
# 5 0.0000 0.0000 0.0000 0.0000 27.0700 0.0000
# 6 -4.4509 4.4509 0.0000 0.0000 0.0000 30.8985
#
#
#
# Elastic Compliance Matrix: (Units=1/GPa)
#
#
# Indices 1 2 3 4 5 6 
#
# 1 0.012608 -0.005027 -0.002322 0.000000 0.000000 0.002540
# 2 -0.005027 0.012608 -0.002322 0.000000 0.000000 -0.002540
# 3 -0.002322 -0.002322 0.023768 0.000000 0.000000 0.000000
# 4 0.000000 0.000000 0.000000 0.036941 0.000000 0.000000
# 5 0.000000 0.000000 0.000000 0.000000 0.036941 0.000000
# 6 0.002540 -0.002540 0.000000 0.000000 0.000000 0.033096
#
#
# Mechanical properties :
#
#
# Convention : Reuss Voigt Hill
#
# Bulk Modulus (GPa) = 33.73567 42.24302 37.98934
# Shear Modulus (GPa) = 27.00007 28.63919 27.81963
#
# Velocity S-wave (km/s) = 3.50519 3.61002 3.55800
# Velocity P-wave (km/s) = 5.63323 6.04972 5.84518
#
# Compressibility (1/GPa) = 0.02964222
#
# Stress axis : x y z
#
# Youngs Moduli (GPa) = 79.31491 79.31491 42.07362
#
# Poissons Ratio (x) = 0.39871 0.09769
# Poissons Ratio (y) = 0.39871 0.09769
# Poissons Ratio (z) = 0.18416 0.18416
#
# Static dielectric constant tensor:
#      x y z
#    x 4.031280 0.000000 0.000000 
#    y 0.000000 4.031280 0.000000 
#    z 0.000000 0.000000 3.799280 
# 
# 
# High freq. dielectric constant tensor:
#      x y z
#    x 1.872240 0.000000 0.000000 
#    y 0.000000 1.872240 0.000000 
#    z 0.000000 0.000000 1.853830 
# 
# From -- ./inp_files/1746.got.cif
#   From: 2010.03.12/outbox.cif.g09.slc.cpg/sg85_cif.got.tgz:1746.got - 2010.04.08 20:10:46.
