data_PCOD8303947
_publ_section_title
;
Structure prediction by ZEFSAII (Michael W. Deem and Ramdas Pophale) SiO2 
 PCOD8303947
Probable space group: I 4/M
;
_chemical_formula_sum "Si O2"
_cell_formula_units_Z 88
_cell_length_a 14.193728
_cell_length_b 14.193728
_cell_length_c 19.399191
_cell_angle_alpha 90.000000
_cell_angle_beta 90.000000
_cell_angle_gamma 90.000000
_cell_volume 3908.198159
_symmetry_space_group_name_H-M "I 4/M"
_symmetry_group_IT_number 87
_symmetry_cell_setting 'tetragonal'
loop_
_space_group_symop_operation_xyz
x,y,z
-y,x,z
-x,-y,z
y,-x,z
-x,-y,-z
y,-x,-z
x,y,-z
-y,x,-z
1/2+x,1/2+y,1/2+z
1/2-y,1/2+x,1/2+z
1/2-x,1/2-y,1/2+z
1/2+y,1/2-x,1/2+z
1/2-x,1/2-y,1/2-z
1/2+y,1/2-x,1/2-z
1/2+x,1/2+y,1/2-z
1/2-y,1/2+x,1/2-z
loop_
_atom_site_type_symbol
_atom_site_label
_atom_site_fract_x
_atom_site_fract_y
_atom_site_fract_z
Si Si1 0.218091 0.817427 0.000000
Si Si2 0.593277 0.745915 0.214716
Si Si3 0.285601 0.898390 0.132972
Si Si4 0.166396 0.614657 0.000000
Si Si5 0.632730 0.329298 0.000000
Si Si6 0.567287 0.085170 0.362621
Si Si7 0.719210 0.597025 0.142928
O O1 0.211528 0.878660 0.929576
O O2 0.145621 0.728387 0.000000
O O3 0.323649 0.775911 0.000000
O O4 0.610084 0.728937 0.295437
O O5 0.602338 0.857287 0.198132
O O6 0.673472 0.691135 0.173841
O O7 0.490967 0.706783 0.193185
O O8 0.376313 0.828724 0.132365
O O9 0.321800 0.005142 0.126321
O O10 0.279506 0.596188 0.000000
O O11 0.123611 0.563841 0.933194
O O12 0.572458 0.334857 0.929445
O O13 0.500000 0.000000 0.341286
#
# Coordination Sequence:
#
# PCOD8303947 Si02
#       7
#     8  16  16   8   8  16  16
#     4   8  19  39  60  86 128 174 217 267 333 422
#     4  12  25  41  66  94 137 184 230 285 343 416
#     4  11  22  40  63  94 134 173 221 287 356 412
#     4  10  20  39  63  95 133 178 218 274 341 435
#     4   8  18  38  64  85 131 169 221 265 329 411
#     4  12  23  36  63 102 137 170 219 291 362 405
#     4  11  23  43  64  95 134 186 227 285 342 410
#
# _framework density 22.516770000000001
#
# number of rings (size 3 to 8) (size 9 to 14) (size 15 to 20)
#    0.545    0.727    3.636    2.455    0.000    3.273 
#    0.000    0.000    0.000    1.091    0.000    0.000 
#    0.000    8.727    0.000    0.000    0.000    0.000 
#
# Total GULP energy -545441.653955 kJ/mol
# GULP energy per Si atom -12396.401226 kJ/mol
# Density = 2.246552 g / cm^3
# Si number density = 22.516770 Si / 1000 Ang^3
#
#
#
# Elastic Constant Matrix: (Units=GPa)
#
#
# Indices 1 2 3 4 5 6 
#
# 1 63.7718 37.5423 22.4858 0.0000 0.0000 3.4330
# 2 37.5423 63.7718 22.4858 0.0000 0.0000 -3.4330
# 3 22.4858 22.4858 171.3862 0.0000 0.0000 0.0000
# 4 0.0000 0.0000 0.0000 23.2680 0.0000 0.0000
# 5 0.0000 0.0000 0.0000 0.0000 23.2680 0.0000
# 6 3.4330 -3.4330 0.0000 0.0000 0.0000 39.7455
#
#
#
# Elastic Compliance Matrix: (Units=1/GPa)
#
#
# Indices 1 2 3 4 5 6 
#
# 1 0.024744 -0.014263 -0.001375 0.000000 0.000000 -0.003369
# 2 -0.014263 0.024744 -0.001375 0.000000 0.000000 0.003369
# 3 -0.001375 -0.001375 0.006196 0.000000 0.000000 0.000000
# 4 0.000000 0.000000 0.000000 0.042978 0.000000 0.000000
# 5 0.000000 0.000000 0.000000 0.000000 0.042978 0.000000
# 6 -0.003369 0.003369 0.000000 0.000000 0.000000 0.025742
#
#
# Mechanical properties :
#
#
# Convention : Reuss Voigt Hill
#
# Bulk Modulus (GPa) = 46.17517 51.55087 48.86302
# Shear Modulus (GPa) = 23.96635 31.68401 27.82518
#
# Velocity S-wave (km/s) = 3.26602 3.75524 3.51914
# Velocity P-wave (km/s) = 5.89695 6.46116 6.18549
#
# Compressibility (1/GPa) = 0.02165666
#
# Stress axis : x y z
#
# Youngs Moduli (GPa) = 40.41413 40.41413 161.40515
#
# Poissons Ratio (x) = 0.57643 0.22194
# Poissons Ratio (y) = 0.57643 0.22194
# Poissons Ratio (z) = 0.05557 0.05557
#
# Static dielectric constant tensor:
#      x y z
#    x 3.741310 0.000000 0.000000 
#    y 0.000000 3.741310 0.000000 
#    z 0.000000 0.000000 4.248770 
# 
# 
# High freq. dielectric constant tensor:
#      x y z
#    x 1.860780 0.000000 0.000000 
#    y 0.000000 1.860780 0.000000 
#    z 0.000000 0.000000 1.904650 
# 
# From -- ./inp_files/5246.got.cif
#   From: 2010.03.12/outbox.cif.g09.slc.cpg/sg87_3_cif.got.tgz:5246.got - 2010.04.08 20:16:13.
