data_PCOD8303819
_publ_section_title
;
Structure prediction by ZEFSAII (Michael W. Deem and Ramdas Pophale) SiO2 
 PCOD8303819
Probable space group: I 4/M
;
_chemical_formula_sum "Si O2"
_cell_formula_units_Z 96
_cell_length_a 20.587271
_cell_length_b 20.587271
_cell_length_c 12.064476
_cell_angle_alpha 90.000000
_cell_angle_beta 90.000000
_cell_angle_gamma 90.000000
_cell_volume 5113.355959
_symmetry_space_group_name_H-M "I 4/M"
_symmetry_group_IT_number 87
_symmetry_cell_setting 'tetragonal'
loop_
_space_group_symop_operation_xyz
x,y,z
-y,x,z
-x,-y,z
y,-x,z
-x,-y,-z
y,-x,-z
x,y,-z
-y,x,-z
1/2+x,1/2+y,1/2+z
1/2-y,1/2+x,1/2+z
1/2-x,1/2-y,1/2+z
1/2+y,1/2-x,1/2+z
1/2-x,1/2-y,1/2-z
1/2+y,1/2-x,1/2-z
1/2+x,1/2+y,1/2-z
1/2-y,1/2+x,1/2-z
loop_
_atom_site_type_symbol
_atom_site_label
_atom_site_fract_x
_atom_site_fract_y
_atom_site_fract_z
Si Si1 0.689257 0.538651 0.125929
Si Si2 0.754672 0.155538 0.795200
Si Si3 0.170042 0.731889 0.123962
Si Si4 0.361245 0.919235 0.873800
Si Si5 0.949669 0.318852 0.239481
Si Si6 0.399520 0.345618 0.126113
O O1 0.757989 0.529074 0.185585
O O2 0.641300 0.476478 0.132668
O O3 0.645122 0.596691 0.174515
O O4 0.707827 0.554278 0.000000
O O5 0.811158 0.191635 0.865973
O O6 0.709355 0.202978 0.725410
O O7 0.709446 0.114661 0.877859
O O8 0.783762 0.108505 0.703217
O O9 0.094885 0.713112 0.142939
O O10 0.189252 0.708229 0.000000
O O11 0.412676 0.874021 0.809751
O O12 0.354750 0.988577 0.813447
O O13 0.385123 0.929388 0.000000
O O14 0.378839 0.329459 0.000000
#
# Coordination Sequence:
#
# PCOD8303819 Si02
#       6
#    16  16  16  16  16  16
#     4  10  20  35  57  84 117 153 191 236 285 339
#     4  10  19  34  56  83 115 144 182 240 282 342
#     4  10  20  33  53  82 112 146 183 230 291 342
#     4  11  24  41  61  86 115 150 193 239 291 345
#     4  11  22  40  59  82 116 149 192 240 288 343
#     4  10  19  33  55  84 116 153 193 232 283 341
#
# _framework density 18.774363000000001
#
# number of rings (size 3 to 8) (size 9 to 14) (size 15 to 20)
#    0.000    1.667    3.333    2.000    0.000    0.667 
#    0.000    5.000    0.000    0.000    0.000    0.000 
#    0.000    2.667    0.000    0.000    0.000    0.000 
#
# Total GULP energy -594711.827100 kJ/mol
# GULP energy per Si atom -12389.829731 kJ/mol
# Density = 1.873163 g / cm^3
# Si number density = 18.774363 Si / 1000 Ang^3
#
#
#
# Elastic Constant Matrix: (Units=GPa)
#
#
# Indices 1 2 3 4 5 6 
#
# 1 99.1291 48.1192 34.4162 0.0000 0.0000 -0.2581
# 2 48.1192 99.1291 34.4162 0.0000 0.0000 0.2581
# 3 34.4162 34.4162 77.4572 0.0000 0.0000 0.0000
# 4 0.0000 0.0000 0.0000 27.2946 0.0000 0.0000
# 5 0.0000 0.0000 0.0000 0.0000 27.2946 0.0000
# 6 -0.2581 0.2581 0.0000 0.0000 0.0000 23.0215
#
#
#
# Elastic Compliance Matrix: (Units=1/GPa)
#
#
# Indices 1 2 3 4 5 6 
#
# 1 0.014089 -0.005517 -0.003809 0.000000 0.000000 0.000220
# 2 -0.005517 0.014089 -0.003809 0.000000 0.000000 -0.000220
# 3 -0.003809 -0.003809 0.016295 0.000000 0.000000 0.000000
# 4 0.000000 0.000000 0.000000 0.036637 0.000000 0.000000
# 5 0.000000 0.000000 0.000000 0.000000 0.036637 0.000000
# 6 0.000220 -0.000220 0.000000 0.000000 0.000000 0.043443
#
#
# Mechanical properties :
#
#
# Convention : Reuss Voigt Hill
#
# Bulk Modulus (GPa) = 54.93380 56.62431 55.77905
# Shear Modulus (GPa) = 25.83620 26.10638 25.97129
#
# Velocity S-wave (km/s) = 3.71366 3.73303 3.72336
# Velocity P-wave (km/s) = 6.90738 6.98617 6.94689
#
# Compressibility (1/GPa) = 0.01820373
#
# Stress axis : x y z
#
# Youngs Moduli (GPa) = 70.97760 70.97760 61.36899
#
# Poissons Ratio (x) = 0.39161 0.23373
# Poissons Ratio (y) = 0.39161 0.23373
# Poissons Ratio (z) = 0.27032 0.27032
#
# Static dielectric constant tensor:
#      x y z
#    x 3.509180 0.000000 0.000000 
#    y 0.000000 3.509180 0.000000 
#    z 0.000000 0.000000 3.286000 
# 
# 
# High freq. dielectric constant tensor:
#      x y z
#    x 1.725810 0.000000 0.000000 
#    y 0.000000 1.725810 0.000000 
#    z 0.000000 0.000000 1.722970 
# 
# From -- ./inp_files/2767.got.cif
#   From: 2010.03.12/outbox.cif.g09.slc.cpg/sg87_2_cif.got.tgz:2767.got - 2010.04.08 20:16:13.
