data_PCOD8303392
_publ_section_title
;
Structure prediction by ZEFSAII (Michael W. Deem and Ramdas Pophale) SiO2 
 PCOD8303392
Probable space group: P 42/M
;
_chemical_formula_sum "Si O2"
_cell_formula_units_Z 40
_cell_length_a 12.640508
_cell_length_b 12.640508
_cell_length_c 12.757844
_cell_angle_alpha 90.000000
_cell_angle_beta 90.000000
_cell_angle_gamma 90.000000
_cell_volume 2038.479475
_symmetry_space_group_name_H-M "P 42/M"
_symmetry_group_IT_number 84
_symmetry_cell_setting 'tetragonal'
loop_
_space_group_symop_operation_xyz
x,y,z
-y,x,1/2+z
-x,-y,z
y,-x,1/2+z
-x,-y,-z
y,-x,1/2-z
x,y,-z
-y,x,1/2-z
loop_
_atom_site_type_symbol
_atom_site_label
_atom_site_fract_x
_atom_site_fract_y
_atom_site_fract_z
Si Si1 0.000001 0.123960 0.622900
Si Si2 0.729978 0.621166 0.874117
Si Si3 0.621162 0.729980 0.374117
Si Si4 0.805998 0.806002 0.749999
Si Si5 0.373604 0.499999 0.614902
O O1 0.999998 0.136434 0.500000
O O2 0.899544 0.185830 0.666873
O O3 0.100461 0.185828 0.666869
O O4 0.000000 0.000000 0.655679
O O5 0.750368 0.500002 0.839440
O O6 0.814035 0.697274 0.817091
O O7 0.611976 0.660700 0.834057
O O8 0.738861 0.630308 0.000000
O O9 0.630303 0.738862 0.500000
O O10 0.697270 0.814038 0.317091
O O11 0.660698 0.611978 0.334056
O O12 0.500000 0.500000 0.609883
O O13 0.324333 0.499999 0.500000
#
# Coordination Sequence:
#
# PCOD8303392 Si02
#       5
#     8   8   8   8   8
#     4  11  24  46  69  88 107 141 202 266 302 338
#     4   9  19  34  56  89 127 163 199 239 284 340
#     4   9  19  34  56  89 127 163 199 239 284 340
#     4  12  21  38  65  92 114 152 196 248 295 358
#     4   7  12  28  50  77 118 163 202 235 267 316
#
# _framework density 19.622467
#
# number of rings (size 3 to 8) (size 9 to 14) (size 15 to 20)
#    0.000    2.400    2.000    3.600    2.800    0.000 
#    0.000    1.000    0.000    3.600    0.000    0.000 
#    0.000    0.000    0.000    0.000    0.000    0.000 
#
# Total GULP energy -495568.096641 kJ/mol
# GULP energy per Si atom -12389.202416 kJ/mol
# Density = 1.957781 g / cm^3
# Si number density = 19.622467 Si / 1000 Ang^3
#
#
#
# Elastic Constant Matrix: (Units=GPa)
#
#
# Indices 1 2 3 4 5 6 
#
# 1 117.4278 72.1841 60.3098 0.0000 0.0000 0.0000
# 2 72.1841 117.4278 60.3098 0.0000 0.0000 0.0000
# 3 60.3098 60.3098 102.3074 0.0000 0.0000 0.0000
# 4 0.0000 0.0000 0.0000 35.4725 0.0000 0.0000
# 5 0.0000 0.0000 0.0000 0.0000 35.4725 0.0000
# 6 0.0000 0.0000 0.0000 0.0000 0.0000 36.1209
#
#
#
# Elastic Compliance Matrix: (Units=1/GPa)
#
#
# Indices 1 2 3 4 5 6 
#
# 1 0.015270 -0.006832 -0.004974 0.000000 0.000000 0.000000
# 2 -0.006832 0.015270 -0.004974 0.000000 0.000000 0.000000
# 3 -0.004974 -0.004974 0.015639 0.000000 0.000000 0.000000
# 4 0.000000 0.000000 0.000000 0.028191 0.000000 0.000000
# 5 0.000000 0.000000 0.000000 0.000000 0.028191 0.000000
# 6 0.000000 0.000000 0.000000 0.000000 0.000000 0.027685
#
#
# Mechanical properties :
#
#
# Convention : Reuss Voigt Hill
#
# Bulk Modulus (GPa) = 79.24934 80.30783 79.77858
# Shear Modulus (GPa) = 29.75937 31.03713 30.39825
#
# Velocity S-wave (km/s) = 3.89858 3.98139 3.94020
# Velocity P-wave (km/s) = 7.79358 7.88357 7.83870
#
# Compressibility (1/GPa) = 0.01261840
#
# Stress axis : x y z
#
# Youngs Moduli (GPa) = 65.48607 65.48607 63.94196
#
# Poissons Ratio (x) = 0.44741 0.31807
# Poissons Ratio (y) = 0.44741 0.31807
# Poissons Ratio (z) = 0.32575 0.32575
#
# Static dielectric constant tensor:
#      x y z
#    x 3.465180 0.000000 0.000000 
#    y 0.000000 3.465180 0.000000 
#    z 0.000000 0.000000 3.849260 
# 
# 
# High freq. dielectric constant tensor:
#      x y z
#    x 1.734170 0.000000 0.000000 
#    y 0.000000 1.734170 0.000000 
#    z 0.000000 0.000000 1.808460 
# 
# From -- ./inp_files/2906.got.cif
#   From: 2010.03.12/outbox.cif.g09.slc.cpg/sg84_2_cif.got.tgz:2906.got - 2010.04.08 20:07:29.
