data_PCOD8303477
_publ_section_title
;
Structure prediction by ZEFSAII (Michael W. Deem and Ramdas Pophale) SiO2 
 PCOD8303477
Probable space group: P 42/N
;
_chemical_formula_sum "Si O2"
_cell_formula_units_Z 56
_cell_length_a 14.417026
_cell_length_b 14.417026
_cell_length_c 13.855980
_cell_angle_alpha 90.000000
_cell_angle_beta 90.000000
_cell_angle_gamma 90.000000
_cell_volume 2879.974293
_symmetry_space_group_name_H-M "P 42/N"
_symmetry_group_IT_number 86
_space_group.IT_coordinate_system_code '2'
_symmetry_cell_setting 'tetragonal'
loop_
_space_group_symop_operation_xyz
x,y,z
-y,1/2+x,1/2+z
1/2-x,1/2-y,z
1/2+y,-x,1/2+z
-x,-y,-z
y,1/2-x,1/2-z
1/2+x,1/2+y,-z
1/2-y,x,1/2-z
loop_
_atom_site_type_symbol
_atom_site_label
_atom_site_fract_x
_atom_site_fract_y
_atom_site_fract_z
Si Si1 0.661662 0.701359 0.505952
Si Si2 0.603138 0.134416 0.135709
Si Si3 0.663411 0.566302 0.865695
Si Si4 0.054112 0.039689 0.590241
Si Si5 0.250455 0.426120 0.338594
Si Si6 0.134191 0.668500 0.078866
Si Si7 0.670022 0.360191 0.842357
O O1 0.750000 0.750000 0.453171
O O2 0.584592 0.777020 0.537243
O O3 0.616360 0.629047 0.432667
O O4 0.700036 0.656470 0.604217
O O5 0.521071 0.208128 0.120613
O O6 0.665420 0.159923 0.228453
O O7 0.567356 0.029536 0.161848
O O8 0.655478 0.140728 0.032902
O O9 0.578301 0.639345 0.857920
O O10 0.730415 0.582319 0.774460
O O11 0.624584 0.460620 0.866402
O O12 0.121299 0.957178 0.625675
O O13 0.000000 0.000000 0.500000
O O14 0.220364 0.631180 0.139550
O O15 0.124550 0.779970 0.092045
#
# Coordination Sequence:
#
# PCOD8303477 Si02
#       7
#     8   8   8   8   8   8   8
#     4  10  18  28  51  85 115 147 190 239 289 334
#     4  10  21  36  62  83 108 149 201 227 295 357
#     4  10  18  28  47  82 125 142 179 234 304 327
#     4  10  18  35  62  80 105 153 196 231 279 360
#     4  10  17  27  48  84 114 150 176 236 286 355
#     4  10  21  39  58  78 114 148 196 238 273 346
#     4  10  23  35  55  84 111 150 186 242 285 343
#
# _framework density 19.444618999999999
#
# number of rings (size 3 to 8) (size 9 to 14) (size 15 to 20)
#    0.000    2.000    4.286    1.714    0.000    3.429 
#    0.000    0.714    3.143    0.000    0.000    0.000 
#    0.000    0.000    0.000    0.000    0.000    0.000 
#
# Total GULP energy -693948.282438 kJ/mol
# GULP energy per Si atom -12391.933615 kJ/mol
# Density = 1.940036 g / cm^3
# Si number density = 19.444619 Si / 1000 Ang^3
#
#
#
# Elastic Constant Matrix: (Units=GPa)
#
#
# Indices 1 2 3 4 5 6 
#
# 1 111.9657 41.3828 26.0222 0.0000 0.0000 -4.4243
# 2 41.3828 111.9657 26.0222 0.0000 0.0000 4.4243
# 3 26.0222 26.0222 65.5084 0.0000 0.0000 0.0000
# 4 0.0000 0.0000 0.0000 26.0219 0.0000 0.0000
# 5 0.0000 0.0000 0.0000 0.0000 26.0219 0.0000
# 6 -4.4243 4.4243 0.0000 0.0000 0.0000 36.0884
#
#
#
# Elastic Compliance Matrix: (Units=1/GPa)
#
#
# Indices 1 2 3 4 5 6 
#
# 1 0.010963 -0.003426 -0.002994 0.000000 0.000000 0.001764
# 2 -0.003426 0.010963 -0.002994 0.000000 0.000000 -0.001764
# 3 -0.002994 -0.002994 0.017644 0.000000 0.000000 0.000000
# 4 0.000000 0.000000 0.000000 0.038429 0.000000 0.000000
# 5 0.000000 0.000000 0.000000 0.000000 0.038429 0.000000
# 6 0.001764 -0.001764 0.000000 0.000000 0.000000 0.028142
#
#
# Mechanical properties :
#
#
# Convention : Reuss Voigt Hill
#
# Bulk Modulus (GPa) = 48.21100 52.92161 50.56630
# Shear Modulus (GPa) = 29.35781 30.69395 30.02588
#
# Velocity S-wave (km/s) = 3.88985 3.97738 3.93386
# Velocity P-wave (km/s) = 6.70988 6.95474 6.83341
#
# Compressibility (1/GPa) = 0.02074215
#
# Stress axis : x y z
#
# Youngs Moduli (GPa) = 91.21547 91.21547 56.67681
#
# Poissons Ratio (x) = 0.31249 0.16969
# Poissons Ratio (y) = 0.31249 0.16969
# Poissons Ratio (z) = 0.27310 0.27310
#
# Static dielectric constant tensor:
#      x y z
#    x 4.266480 0.000000 0.000000 
#    y 0.000000 4.266480 0.000000 
#    z 0.000000 0.000000 3.284030 
# 
# 
# High freq. dielectric constant tensor:
#      x y z
#    x 1.753350 0.000000 0.000000 
#    y 0.000000 1.753350 0.000000 
#    z 0.000000 0.000000 1.718210 
# 
# From -- ./inp_files/3053.got.cif
#   From: 2010.03.12/outbox.cif.g09.slc.cpg/sg86_2_cif.got.tgz:3053.got - 2010.04.08 20:12:58.
