data_PCOD8303468
_publ_section_title
;
Structure prediction by ZEFSAII (Michael W. Deem and Ramdas Pophale) SiO2 
 PCOD8303468
Probable space group: P 4/N
;
_chemical_formula_sum "Si O2"
_cell_formula_units_Z 36
_cell_length_a 13.375221
_cell_length_b 13.375221
_cell_length_c 9.935039
_cell_angle_alpha 90.000000
_cell_angle_beta 90.000000
_cell_angle_gamma 90.000000
_cell_volume 1777.344070
_symmetry_space_group_name_H-M "P 4/N"
_symmetry_group_IT_number 85
_symmetry_cell_setting 'tetragonal'
loop_
_space_group_symop_operation_xyz
x,y,z
1/2-y,x,z
1/2-x,1/2-y,z
y,1/2-x,z
-x,-y,-z
1/2+y,-x,-z
1/2+x,1/2+y,-z
-y,1/2+x,-z
loop_
_atom_site_type_symbol
_atom_site_label
_atom_site_fract_x
_atom_site_fract_y
_atom_site_fract_z
Si Si1 0.750000 0.250000 0.181209
Si Si2 0.443895 0.048755 0.878500
Si Si3 0.754740 0.465708 0.733050
Si Si4 0.033106 0.449848 0.362065
Si Si5 0.754821 0.033954 0.049769
O O1 0.844978 0.236218 0.281018
O O2 0.732492 0.150227 0.086907
O O3 0.494059 0.155696 0.859166
O O4 0.452187 0.987938 0.742600
O O5 0.328323 0.046803 0.912618
O O6 0.500000 0.000000 0.000000
O O7 0.856260 0.519211 0.685677
O O8 0.670316 0.517086 0.638616
O O9 0.728550 0.480673 0.890581
O O10 0.000000 0.500000 0.500000
#
# Coordination Sequence:
#
# PCOD8303468 Si02
#       5
#     4   8   8   8   8
#     4  12  21  34  75 110 133 176 235 302 357 400
#     4  12  22  41  67 101 137 178 235 296 337 406
#     4  12  23  43  68 101 137 188 232 289 354 416
#     4  12  28  45  67 101 149 184 232 289 352 426
#     4  12  21  38  71 105 137 178 239 297 348 402
#
# _framework density 20.254940999999999
#
# number of rings (size 3 to 8) (size 9 to 14) (size 15 to 20)
#    0.000    0.000    8.889    2.000    0.000    4.444 
#    0.000    2.222    0.000    2.667    0.000    0.000 
#    0.000    0.000    0.000    0.000    0.000    0.000 
#
# Total GULP energy -446110.951659 kJ/mol
# GULP energy per Si atom -12391.970879 kJ/mol
# Density = 2.020884 g / cm^3
# Si number density = 20.254941 Si / 1000 Ang^3
#
#
#
# Elastic Constant Matrix: (Units=GPa)
#
#
# Indices 1 2 3 4 5 6 
#
# 1 114.8712 45.5635 26.6606 0.0000 0.0000 5.5020
# 2 45.5635 114.8712 26.6606 0.0000 0.0000 -5.5020
# 3 26.6606 26.6606 90.1116 0.0000 0.0000 0.0000
# 4 0.0000 0.0000 0.0000 25.4632 0.0000 0.0000
# 5 0.0000 0.0000 0.0000 0.0000 25.4632 0.0000
# 6 5.5020 -5.5020 0.0000 0.0000 0.0000 39.8154
#
#
#
# Elastic Compliance Matrix: (Units=1/GPa)
#
#
# Indices 1 2 3 4 5 6 
#
# 1 0.010832 -0.003920 -0.002045 0.000000 0.000000 -0.002039
# 2 -0.003920 0.010832 -0.002045 0.000000 0.000000 0.002039
# 3 -0.002045 -0.002045 0.012308 0.000000 0.000000 0.000000
# 4 0.000000 0.000000 0.000000 0.039272 0.000000 0.000000
# 5 0.000000 0.000000 0.000000 0.000000 0.039272 0.000000
# 6 -0.002039 0.002039 0.000000 0.000000 0.000000 0.025679
#
#
# Mechanical properties :
#
#
# Convention : Reuss Voigt Hill
#
# Bulk Modulus (GPa) = 55.70339 57.51374 56.60857
# Shear Modulus (GPa) = 31.21082 32.87964 32.04523
#
# Velocity S-wave (km/s) = 3.92969 4.03338 3.98187
# Velocity P-wave (km/s) = 6.93908 7.08148 7.01064
#
# Compressibility (1/GPa) = 0.01795223
#
# Stress axis : x y z
#
# Youngs Moduli (GPa) = 92.31530 92.31530 81.25078
#
# Poissons Ratio (x) = 0.36184 0.16618
# Poissons Ratio (y) = 0.36184 0.16618
# Poissons Ratio (z) = 0.18881 0.18881
#
# Static dielectric constant tensor:
#      x y z
#    x 3.733910 0.000000 0.000000 
#    y 0.000000 3.733910 0.000000 
#    z 0.000000 0.000000 3.434300 
# 
# 
# High freq. dielectric constant tensor:
#      x y z
#    x 1.802150 0.000000 0.000000 
#    y 0.000000 1.802150 0.000000 
#    z 0.000000 0.000000 1.766350 
# 
# From -- ./inp_files/830.got.cif
#   From: 2010.03.12/outbox.cif.g09.slc.cpg/sg85_cif.got.tgz:830.got - 2010.04.08 20:10:46.
