data_PCOD8303880
_publ_section_title
;
Structure prediction by ZEFSAII (Michael W. Deem and Ramdas Pophale) SiO2 
 PCOD8303880
Probable space group: I 4/M
;
_chemical_formula_sum "Si O2"
_cell_formula_units_Z 64
_cell_length_a 20.152738
_cell_length_b 20.152738
_cell_length_c 8.746664
_cell_angle_alpha 90.000000
_cell_angle_beta 90.000000
_cell_angle_gamma 90.000000
_cell_volume 3552.307569
_symmetry_space_group_name_H-M "I 4/M"
_symmetry_group_IT_number 87
_symmetry_cell_setting 'tetragonal'
loop_
_space_group_symop_operation_xyz
x,y,z
-y,x,z
-x,-y,z
y,-x,z
-x,-y,-z
y,-x,-z
x,y,-z
-y,x,-z
1/2+x,1/2+y,1/2+z
1/2-y,1/2+x,1/2+z
1/2-x,1/2-y,1/2+z
1/2+y,1/2-x,1/2+z
1/2-x,1/2-y,1/2-z
1/2+y,1/2-x,1/2-z
1/2+x,1/2+y,1/2-z
1/2-y,1/2+x,1/2-z
loop_
_atom_site_type_symbol
_atom_site_label
_atom_site_fract_x
_atom_site_fract_y
_atom_site_fract_z
Si Si1 0.319884 0.175058 0.180001
Si Si2 0.433065 0.073760 0.818381
Si Si3 0.574641 0.426802 0.181908
Si Si4 0.174585 0.817794 0.319078
O O1 0.380545 0.129223 0.233991
O O2 0.252448 0.148948 0.256252
O O3 0.333628 0.250406 0.234443
O O4 0.310425 0.171238 0.000000
O O5 0.502719 0.092501 0.740572
O O6 0.442243 0.071507 0.000000
O O7 0.592773 0.500860 0.239098
O O8 0.627524 0.375024 0.250537
O O9 0.576743 0.425161 0.000000
O O10 0.169503 0.815693 0.500000
#
# Coordination Sequence:
#
# PCOD8303880 Si02
#       4
#    16  16  16  16
#     4   9  19  33  47  68  97 124 154 195 236 275
#     4  10  20  34  51  71  97 126 159 199 240 285
#     4   8  14  25  43  69  96 118 147 190 231 266
#     4   9  17  30  49  70  93 124 159 192 229 276
#
# _framework density 18.016458
#
# number of rings (size 3 to 8) (size 9 to 14) (size 15 to 20)
#    0.000    3.000    0.000    2.250    0.000    4.000 
#    0.000    5.000    0.000    1.500    0.000    1.750 
#    0.000    0.000    0.000    0.000    0.000    0.000 
#
# Total GULP energy -396726.519056 kJ/mol
# GULP energy per Si atom -12397.703721 kJ/mol
# Density = 1.797545 g / cm^3
# Si number density = 18.016458 Si / 1000 Ang^3
#
#
#
# Elastic Constant Matrix: (Units=GPa)
#
#
# Indices 1 2 3 4 5 6 
#
# 1 130.2071 99.5645 19.0273 0.0000 0.0000 0.8546
# 2 99.5645 130.2071 19.0273 0.0000 0.0000 -0.8546
# 3 19.0273 19.0273 18.3435 0.0000 0.0000 0.0000
# 4 0.0000 0.0000 0.0000 21.8022 0.0000 0.0000
# 5 0.0000 0.0000 0.0000 0.0000 21.8022 0.0000
# 6 0.8546 -0.8546 0.0000 0.0000 0.0000 45.6995
#
#
#
# Elastic Compliance Matrix: (Units=1/GPa)
#
#
# Indices 1 2 3 4 5 6 
#
# 1 0.018962 -0.013707 -0.005451 0.000000 0.000000 -0.000611
# 2 -0.013707 0.018962 -0.005451 0.000000 0.000000 0.000611
# 3 -0.005451 -0.005451 0.065823 0.000000 0.000000 0.000000
# 4 0.000000 0.000000 0.000000 0.045867 0.000000 0.000000
# 5 0.000000 0.000000 0.000000 0.000000 0.045867 0.000000
# 6 -0.000611 0.000611 0.000000 0.000000 0.000000 0.021905
#
#
# Mechanical properties :
#
#
# Convention : Reuss Voigt Hill
#
# Bulk Modulus (GPa) = 18.33858 61.55511 39.94684
# Shear Modulus (GPa) = 17.55751 27.27005 22.41378
#
# Velocity S-wave (km/s) = 3.12513 3.89475 3.53097
# Velocity P-wave (km/s) = 4.81900 7.38008 6.23251
#
# Compressibility (1/GPa) = 0.05452984
#
# Stress axis : x y z
#
# Youngs Moduli (GPa) = 52.73800 52.73800 15.19221
#
# Poissons Ratio (x) = 0.72287 0.08281
# Poissons Ratio (y) = 0.72287 0.08281
# Poissons Ratio (z) = 0.28746 0.28746
#
# Static dielectric constant tensor:
#      x y z
#    x 3.563150 0.000000 0.000000 
#    y 0.000000 3.563150 0.000000 
#    z 0.000000 0.000000 3.015500 
# 
# 
# High freq. dielectric constant tensor:
#      x y z
#    x 1.701780 0.000000 0.000000 
#    y 0.000000 1.701780 0.000000 
#    z 0.000000 0.000000 1.668930 
# 
# From -- ./inp_files/916.got.cif
#   From: 2010.03.12/outbox.cif.g09.slc.cpg/sg87_1_cif.got.tgz:916.got - 2010.04.08 20:16:13.
