data_PCOD8303277
_publ_section_title
;
Structure prediction by ZEFSAII (Michael W. Deem and Ramdas Pophale) SiO2 
 PCOD8303277
Probable space group: P 42/M
;
_chemical_formula_sum "Si O2"
_cell_formula_units_Z 32
_cell_length_a 9.435434
_cell_length_b 9.435434
_cell_length_c 18.373812
_cell_angle_alpha 90.000000
_cell_angle_beta 90.000000
_cell_angle_gamma 90.000000
_cell_volume 1635.772982
_symmetry_space_group_name_H-M "P 42/M"
_symmetry_group_IT_number 84
_symmetry_cell_setting 'tetragonal'
loop_
_space_group_symop_operation_xyz
x,y,z
-y,x,1/2+z
-x,-y,z
y,-x,1/2+z
-x,-y,-z
y,-x,1/2-z
x,y,-z
-y,x,1/2-z
loop_
_atom_site_type_symbol
_atom_site_label
_atom_site_fract_x
_atom_site_fract_y
_atom_site_fract_z
Si Si1 0.353852 0.246353 0.676394
Si Si2 0.507848 0.834944 0.174545
Si Si3 0.331295 0.997993 0.421047
Si Si4 0.690019 0.629689 0.085721
O O1 0.226589 0.353348 0.690818
O O2 0.402374 0.184103 0.752856
O O3 0.279089 0.116035 0.634721
O O4 0.482972 0.320131 0.631603
O O5 0.571312 0.742154 0.108633
O O6 0.500000 0.000000 0.152322
O O7 0.266226 0.034609 0.500000
O O8 0.500000 0.000000 0.424567
O O9 0.290408 0.838783 0.397680
O O10 0.674379 0.592170 0.000000
#
# Coordination Sequence:
#
# PCOD8303277 Si02
#       4
#     8   8   8   8
#     4  11  21  38  62  87 117 155 201 244 290 348
#     4  12  25  38  58  89 123 154 193 250 302 345
#     4   8  16  34  62  88 112 150 198 239 278 340
#     4  10  21  39  64  91 119 155 198 241 289 348
#
# _framework density 19.562615999999998
#
# number of rings (size 3 to 8) (size 9 to 14) (size 15 to 20)
#    0.000    1.750    2.500    5.250    0.000    3.500 
#    0.000    1.250    0.000    3.000    0.000    0.000 
#    0.000    0.000    0.000    0.000    0.000    0.000 
#
# Total GULP energy -396680.411622 kJ/mol
# GULP energy per Si atom -12396.262863 kJ/mol
# Density = 1.951809 g / cm^3
# Si number density = 19.562616 Si / 1000 Ang^3
#
#
#
# Elastic Constant Matrix: (Units=GPa)
#
#
# Indices 1 2 3 4 5 6 
#
# 1 72.0728 28.3643 11.7412 0.0000 0.0000 -6.0770
# 2 28.3643 72.0728 11.7412 0.0000 0.0000 6.0770
# 3 11.7412 11.7412 68.4284 0.0000 0.0000 0.0000
# 4 0.0000 0.0000 0.0000 9.0222 0.0000 0.0000
# 5 0.0000 0.0000 0.0000 0.0000 9.0222 0.0000
# 6 -6.0770 6.0770 0.0000 0.0000 0.0000 8.0976
#
#
#
# Elastic Compliance Matrix: (Units=1/GPa)
#
#
# Indices 1 2 3 4 5 6 
#
# 1 0.019642 -0.009270 -0.001780 0.000000 0.000000 0.021698
# 2 -0.009270 0.019642 -0.001780 0.000000 0.000000 -0.021698
# 3 -0.001780 -0.001780 0.015225 0.000000 0.000000 0.000000
# 4 0.000000 0.000000 0.000000 0.110838 0.000000 0.000000
# 5 0.000000 0.000000 0.000000 0.000000 0.110838 0.000000
# 6 0.021698 -0.021698 0.000000 0.000000 0.000000 0.156061
#
#
# Mechanical properties :
#
#
# Convention : Reuss Voigt Hill
#
# Bulk Modulus (GPa) = 34.66123 35.14084 34.90103
# Shear Modulus (GPa) = 10.69468 15.94353 13.31910
#
# Velocity S-wave (km/s) = 2.34068 2.85792 2.61213
# Velocity P-wave (km/s) = 5.00615 5.37518 5.19394
#
# Compressibility (1/GPa) = 0.02885068
#
# Stress axis : x y z
#
# Youngs Moduli (GPa) = 50.91014 50.91014 65.68328
#
# Poissons Ratio (x) = 0.47193 0.11690
# Poissons Ratio (y) = 0.47193 0.11690
# Poissons Ratio (z) = 0.09061 0.09061
#
# Static dielectric constant tensor:
#      x y z
#    x 3.612560 0.000000 0.000000 
#    y 0.000000 3.612560 0.000000 
#    z 0.000000 0.000000 3.715990 
# 
# 
# High freq. dielectric constant tensor:
#      x y z
#    x 1.741660 0.000000 0.000000 
#    y 0.000000 1.741660 0.000000 
#    z 0.000000 0.000000 1.773760 
# 
# From -- ./inp_files/4119.got.cif
#   From: 2010.03.12/outbox.cif.g09.slc.cpg/sg84_3_cif.got.tgz:4119.got - 2010.04.08 20:07:29.
