data_PCOD8303749
_publ_section_title
;
Structure prediction by ZEFSAII (Michael W. Deem and Ramdas Pophale) SiO2 
 PCOD8303749
Probable space group: I 4/M
;
_chemical_formula_sum "Si O2"
_cell_formula_units_Z 56
_cell_length_a 18.985557
_cell_length_b 18.985557
_cell_length_c 8.789569
_cell_angle_alpha 90.000000
_cell_angle_beta 90.000000
_cell_angle_gamma 90.000000
_cell_volume 3168.212228
_symmetry_space_group_name_H-M "I 4/M"
_symmetry_group_IT_number 87
_symmetry_cell_setting 'tetragonal'
loop_
_space_group_symop_operation_xyz
x,y,z
-y,x,z
-x,-y,z
y,-x,z
-x,-y,-z
y,-x,-z
x,y,-z
-y,x,-z
1/2+x,1/2+y,1/2+z
1/2-y,1/2+x,1/2+z
1/2-x,1/2-y,1/2+z
1/2+y,1/2-x,1/2+z
1/2-x,1/2-y,1/2-z
1/2+y,1/2-x,1/2-z
1/2+x,1/2+y,1/2-z
1/2-y,1/2+x,1/2-z
loop_
_atom_site_type_symbol
_atom_site_label
_atom_site_fract_x
_atom_site_fract_y
_atom_site_fract_z
Si Si1 0.073223 0.907965 0.500000
Si Si2 0.683034 0.674548 0.833619
Si Si3 0.187477 0.659342 0.326401
Si Si4 0.438263 0.082054 0.822921
O O1 0.105453 0.867998 0.349777
O O2 0.989100 0.901835 0.500000
O O3 0.655461 0.728939 0.707962
O O4 0.763529 0.654114 0.792803
O O5 0.685256 0.712739 0.000000
O O6 0.175276 0.636178 0.500000
O O7 0.151921 0.604832 0.212510
O O8 0.518699 0.094934 0.774515
O O9 0.434809 0.063634 0.000000
#
# Coordination Sequence:
#
# PCOD8303749 Si02
#       4
#     8  16  16  16
#     4   9  18  34  56  82 106 136 186 239 284 332
#     4   8  18  33  52  80 105 140 180 226 275 331
#     4  10  18  33  53  78 111 143 180 228 276 330
#     4  11  22  36  52  75 109 149 189 227 271 324
#
# _framework density 17.675581999999999
#
# number of rings (size 3 to 8) (size 9 to 14) (size 15 to 20)
#    0.857    1.571    0.000    4.286    0.000    3.429 
#    0.000    0.000    0.000    1.714    0.000    2.000 
#    0.000    0.000    0.000    0.000    0.000    0.000 
#
# Total GULP energy -346983.940441 kJ/mol
# GULP energy per Si atom -12392.283587 kJ/mol
# Density = 1.763535 g / cm^3
# Si number density = 17.675582 Si / 1000 Ang^3
#
#
#
# Elastic Constant Matrix: (Units=GPa)
#
#
# Indices 1 2 3 4 5 6 
#
# 1 38.8661 18.7580 13.0965 0.0000 0.0000 -0.6693
# 2 18.7580 38.8661 13.0965 0.0000 0.0000 0.6693
# 3 13.0965 13.0965 70.9693 0.0000 0.0000 0.0000
# 4 0.0000 0.0000 0.0000 26.2456 0.0000 0.0000
# 5 0.0000 0.0000 0.0000 0.0000 26.2456 0.0000
# 6 -0.6693 0.6693 0.0000 0.0000 0.0000 33.8376
#
#
#
# Elastic Compliance Matrix: (Units=1/GPa)
#
#
# Indices 1 2 3 4 5 6 
#
# 1 0.034370 -0.015427 -0.003496 0.000000 0.000000 0.000985
# 2 -0.015427 0.034370 -0.003496 0.000000 0.000000 -0.000985
# 3 -0.003496 -0.003496 0.015381 0.000000 0.000000 0.000000
# 4 0.000000 0.000000 0.000000 0.038102 0.000000 0.000000
# 5 0.000000 0.000000 0.000000 0.000000 0.038102 0.000000
# 6 0.000985 -0.000985 0.000000 0.000000 0.000000 0.029592
#
#
# Mechanical properties :
#
#
# Convention : Reuss Voigt Hill
#
# Bulk Modulus (GPa) = 25.45584 26.51150 25.98367
# Shear Modulus (GPa) = 20.17378 24.18247 22.17813
#
# Velocity S-wave (km/s) = 3.38203 3.70284 3.54606
# Velocity P-wave (km/s) = 5.44829 5.77173 5.61234
#
# Compressibility (1/GPa) = 0.03928372
#
# Stress axis : x y z
#
# Youngs Moduli (GPa) = 29.09536 29.09536 65.01631
#
# Poissons Ratio (x) = 0.44885 0.22727
# Poissons Ratio (y) = 0.44885 0.22727
# Poissons Ratio (z) = 0.10171 0.10171
#
# Static dielectric constant tensor:
#      x y z
#    x 3.134650 0.000000 0.000000 
#    y 0.000000 3.134650 0.000000 
#    z 0.000000 0.000000 3.143530 
# 
# 
# High freq. dielectric constant tensor:
#      x y z
#    x 1.674630 0.000000 0.000000 
#    y 0.000000 1.674630 0.000000 
#    z 0.000000 0.000000 1.672880 
# 
# From -- ./inp_files/837.got.cif
#   From: 2010.03.12/outbox.cif.g09.slc.cpg/sg87_1_cif.got.tgz:837.got - 2010.04.08 20:16:13.
