data_PCOD8303098
_publ_section_title
;
Structure prediction by ZEFSAII (Michael W. Deem and Ramdas Pophale) SiO2 
 PCOD8303098
Probable space group: P 42/M
;
_chemical_formula_sum "Si O2"
_cell_formula_units_Z 40
_cell_length_a 17.763465
_cell_length_b 17.763465
_cell_length_c 9.178053
_cell_angle_alpha 90.000000
_cell_angle_beta 90.000000
_cell_angle_gamma 90.000000
_cell_volume 2896.049166
_symmetry_space_group_name_H-M "P 42/M"
_symmetry_group_IT_number 84
_symmetry_cell_setting 'tetragonal'
loop_
_space_group_symop_operation_xyz
x,y,z
-y,x,1/2+z
-x,-y,z
y,-x,1/2+z
-x,-y,-z
y,-x,1/2-z
x,y,-z
-y,x,1/2-z
loop_
_atom_site_type_symbol
_atom_site_label
_atom_site_fract_x
_atom_site_fract_y
_atom_site_fract_z
Si Si1 0.574957 0.294571 0.328969
Si Si2 0.303905 0.578885 0.330152
Si Si3 0.145630 0.413329 0.663425
Si Si4 0.002127 0.410091 0.836487
Si Si5 0.592040 0.860982 0.160932
O O1 0.566744 0.278538 0.500000
O O2 0.631756 0.361847 0.294799
O O3 0.494763 0.319479 0.265391
O O4 0.608276 0.220200 0.252951
O O5 0.302681 0.554998 0.500000
O O6 0.222988 0.616105 0.288607
O O7 0.150612 0.379940 0.500000
O O8 0.137395 0.502326 0.657417
O O9 0.072487 0.379030 0.743541
O O10 0.924459 0.377034 0.770260
O O11 0.000000 0.500000 0.834537
O O12 0.009890 0.379337 0.000000
O O13 0.623836 0.879100 0.000000
#
# Coordination Sequence:
#
# PCOD8303098 Si02
#       5
#     8   8   8   8   8
#     4  10  19  30  43  56  71  94 127 165 198 228
#     4   9  19  32  42  54  73  97 125 160 201 235
#     4   9  16  26  39  54  73  95 117 144 183 227
#     4   9  15  22  35  56  76  91 112 142 176 217
#     4   8  14  25  38  51  70  94 117 143 181 227
#
# _framework density 13.811920000000001
#
# number of rings (size 3 to 8) (size 9 to 14) (size 15 to 20)
#    0.000    3.000    0.000    3.000    0.000    9.200 
#    0.000    2.000    0.000    0.000    0.000    0.000 
#    0.000    0.000    0.000    0.000    0.000    1.000 
#
# Total GULP energy -495829.829519 kJ/mol
# GULP energy per Si atom -12395.745738 kJ/mol
# Density = 1.378048 g / cm^3
# Si number density = 13.811920 Si / 1000 Ang^3
#
#
#
# Elastic Constant Matrix: (Units=GPa)
#
#
# Indices 1 2 3 4 5 6 
#
# 1 67.6496 39.9726 51.2480 0.0000 0.0000 0.4401
# 2 39.9726 67.6496 51.2480 0.0000 0.0000 -0.4401
# 3 51.2480 51.2480 113.8541 0.0000 0.0000 0.0000
# 4 0.0000 0.0000 0.0000 17.0101 0.0000 0.0000
# 5 0.0000 0.0000 0.0000 0.0000 17.0101 0.0000
# 6 0.4401 -0.4401 0.0000 0.0000 0.0000 -0.1565
#
#
#
# Elastic Compliance Matrix: (Units=1/GPa)
#
#
# Indices 1 2 3 4 5 6 
#
# 1 0.024715 -0.008451 -0.007321 0.000000 0.000000 0.093254
# 2 -0.008451 0.024715 -0.007321 0.000000 0.000000 -0.093254
# 3 -0.007321 -0.007321 0.015374 0.000000 0.000000 0.000000
# 4 0.000000 0.000000 0.000000 0.058788 0.000000 0.000000
# 5 0.000000 0.000000 0.000000 0.000000 0.058788 0.000000
# 6 0.093254 -0.093254 0.000000 0.000000 0.000000 -5.865166
#
#
# Mechanical properties :
#
#
# Convention : Reuss Voigt Hill
#
# Bulk Modulus (GPa) = 53.71028 59.34340 56.52684
# Shear Modulus (GPa) = -0.88804 13.88506 6.49851
#
# Velocity S-wave (km/s) = -0.80271 3.17408 2.17145
# Velocity P-wave (km/s) = 6.17351 7.51609 6.87764
#
# Compressibility (1/GPa) = 0.01861841
#
# Stress axis : x y z
#
# Youngs Moduli (GPa) = 40.46171 40.46171 65.04698
#
# Poissons Ratio (x) = 0.34194 0.47618
# Poissons Ratio (y) = 0.34194 0.47618
# Poissons Ratio (z) = 0.29621 0.29621
#
# Static dielectric constant tensor:
#      x y z
#    x 2.590760 0.000000 0.000000 
#    y 0.000000 2.590760 0.000000 
#    z 0.000000 0.000000 2.950790 
# 
# 
# High freq. dielectric constant tensor:
#      x y z
#    x 1.490630 0.000000 0.000000 
#    y 0.000000 1.490630 0.000000 
#    z 0.000000 0.000000 1.544420 
# 
# From -- ./inp_files/881.got.cif
#   From: 2010.03.12/outbox.cif.g09.slc.cpg/sg84_1_cif.got.tgz:881.got - 2010.04.08 20:07:29.
