data_PCOD8303810
_publ_section_title
;
Structure prediction by ZEFSAII (Michael W. Deem and Ramdas Pophale) SiO2 
 PCOD8303810
Probable space group: I 4/M
;
_chemical_formula_sum "Si O2"
_cell_formula_units_Z 120
_cell_length_a 26.574904
_cell_length_b 26.574904
_cell_length_c 7.859887
_cell_angle_alpha 90.000000
_cell_angle_beta 90.000000
_cell_angle_gamma 90.000000
_cell_volume 5550.852804
_symmetry_space_group_name_H-M "I 4/M"
_symmetry_group_IT_number 87
_symmetry_cell_setting 'tetragonal'
loop_
_space_group_symop_operation_xyz
x,y,z
-y,x,z
-x,-y,z
y,-x,z
-x,-y,-z
y,-x,-z
x,y,-z
-y,x,-z
1/2+x,1/2+y,1/2+z
1/2-y,1/2+x,1/2+z
1/2-x,1/2-y,1/2+z
1/2+y,1/2-x,1/2+z
1/2-x,1/2-y,1/2-z
1/2+y,1/2-x,1/2-z
1/2+x,1/2+y,1/2-z
1/2-y,1/2+x,1/2-z
loop_
_atom_site_type_symbol
_atom_site_label
_atom_site_fract_x
_atom_site_fract_y
_atom_site_fract_z
Si Si1 0.225690 0.877385 0.196385
Si Si2 0.435629 0.826705 0.700995
Si Si3 0.669692 0.281203 0.700793
Si Si4 0.444884 0.716621 0.700538
Si Si5 0.020425 0.573189 0.807863
Si Si6 0.330318 0.176591 0.201439
Si Si7 0.654584 0.463935 0.809131
Si Si8 0.529737 0.578944 0.500000
O O1 0.203612 0.825752 0.277191
O O2 0.285941 0.872234 0.219867
O O3 0.200948 0.925046 0.288050
O O4 0.211764 0.883134 0.000000
O O5 0.432050 0.820127 0.500000
O O6 0.455782 0.773325 0.769536
O O7 0.474223 0.870000 0.760771
O O8 0.379961 0.842191 0.765418
O O9 0.674145 0.279105 0.500000
O O10 0.612522 0.294966 0.749895
O O11 0.687905 0.226688 0.769927
O O12 0.455438 0.711160 0.500000
O O13 0.480252 0.677346 0.796006
O O14 0.055994 0.537171 0.697227
O O15 0.040386 0.570071 0.000000
O O16 0.333347 0.181146 0.000000
O O17 0.610729 0.456130 0.669212
O O18 0.631990 0.457670 0.000000
O O19 0.470815 0.564410 0.500000
#
# Coordination Sequence:
#
# PCOD8303810 Si02
#       8
#    16  16  16  16  16  16  16   8
#     4  11  21  35  55  86 126 169 207 253 315 377
#     4   8  17  33  56  80 112 160 206 252 318 377
#     4   8  17  32  59  84 113 164 208 245 306 371
#     4   9  17  37  62  85 118 162 206 252 306 381
#     4  10  19  33  50  73  99 136 191 251 308 368
#     4   9  17  34  54  83 118 156 206 256 303 372
#     4  12  26  43  68 104 134 169 219 269 326 393
#     4  11  28  54  80 102 134 174 214 273 340 400
#
# _framework density 21.618297999999999
#
# number of rings (size 3 to 8) (size 9 to 14) (size 15 to 20)
#    0.000    2.333    1.333    3.200    1.867    1.600 
#    0.000   10.000    0.000    0.000    0.000    0.000 
#    0.000    0.000    0.000    0.000    0.000    0.000 
#
# Total GULP energy -743653.790597 kJ/mol
# GULP energy per Si atom -12394.229843 kJ/mol
# Density = 2.156909 g / cm^3
# Si number density = 21.618298 Si / 1000 Ang^3
#
#
#
# Elastic Constant Matrix: (Units=GPa)
#
#
# Indices 1 2 3 4 5 6 
#
# 1 57.3501 6.5343 17.9275 0.0000 0.0000 -8.5632
# 2 6.5343 57.3501 17.9275 0.0000 0.0000 8.5632
# 3 17.9275 17.9275 77.4063 0.0000 0.0000 0.0000
# 4 0.0000 0.0000 0.0000 17.7423 0.0000 0.0000
# 5 0.0000 0.0000 0.0000 0.0000 17.7423 0.0000
# 6 -8.5632 8.5632 0.0000 0.0000 0.0000 36.3692
#
#
#
# Elastic Compliance Matrix: (Units=1/GPa)
#
#
# Indices 1 2 3 4 5 6 
#
# 1 0.019684 -0.001692 -0.004167 0.000000 0.000000 0.005033
# 2 -0.001692 0.019684 -0.004167 0.000000 0.000000 -0.005033
# 3 -0.004167 -0.004167 0.014849 0.000000 0.000000 0.000000
# 4 0.000000 0.000000 0.000000 0.056362 0.000000 0.000000
# 5 0.000000 0.000000 0.000000 0.000000 0.056362 0.000000
# 6 0.005033 -0.005033 0.000000 0.000000 0.000000 0.029866
#
#
# Mechanical properties :
#
#
# Convention : Reuss Voigt Hill
#
# Bulk Modulus (GPa) = 29.26968 30.76501 30.01734
# Shear Modulus (GPa) = 21.90618 24.35192 23.12905
#
# Velocity S-wave (km/s) = 3.18672 3.35990 3.27445
# Velocity P-wave (km/s) = 5.20662 5.41422 5.31144
#
# Compressibility (1/GPa) = 0.03416505
#
# Stress axis : x y z
#
# Youngs Moduli (GPa) = 50.80377 50.80377 67.34447
#
# Poissons Ratio (x) = 0.08594 0.28062
# Poissons Ratio (y) = 0.08594 0.28062
# Poissons Ratio (z) = 0.21170 0.21170
#
# Static dielectric constant tensor:
#      x y z
#    x 4.017220 0.000000 0.000000 
#    y 0.000000 4.017220 0.000000 
#    z 0.000000 0.000000 3.568630 
# 
# 
# High freq. dielectric constant tensor:
#      x y z
#    x 1.846220 0.000000 0.000000 
#    y 0.000000 1.846220 0.000000 
#    z 0.000000 0.000000 1.821120 
# 
# From -- ./inp_files/1668.got.cif
#   From: 2010.03.12/outbox.cif.g09.slc.cpg/sg87_1_cif.got.tgz:1668.got - 2010.04.08 20:16:13.
