data_PCOD8303654
_publ_section_title
;
Structure prediction by ZEFSAII (Michael W. Deem and Ramdas Pophale) SiO2 
 PCOD8303654
Probable space group: P 42/N
;
_chemical_formula_sum "Si O2"
_cell_formula_units_Z 48
_cell_length_a 9.081086
_cell_length_b 9.081086
_cell_length_c 25.504342
_cell_angle_alpha 90.000000
_cell_angle_beta 90.000000
_cell_angle_gamma 90.000000
_cell_volume 2103.244203
_symmetry_space_group_name_H-M "P 42/N"
_symmetry_group_IT_number 86
_space_group.IT_coordinate_system_code '2'
_symmetry_cell_setting 'tetragonal'
loop_
_space_group_symop_operation_xyz
x,y,z
-y,1/2+x,1/2+z
1/2-x,1/2-y,z
1/2+y,-x,1/2+z
-x,-y,-z
y,1/2-x,1/2-z
1/2+x,1/2+y,-z
1/2-y,x,1/2-z
loop_
_atom_site_type_symbol
_atom_site_label
_atom_site_fract_x
_atom_site_fract_y
_atom_site_fract_z
Si Si1 0.372391 0.646055 0.175781
Si Si2 0.827519 0.402202 0.210109
Si Si3 0.148983 0.386132 0.058517
Si Si4 0.103612 0.168969 0.321159
Si Si5 0.406205 0.179302 0.626304
Si Si6 0.316469 0.901981 0.963409
O O1 0.250000 0.750000 0.147610
O O2 0.440266 0.714118 0.229381
O O3 0.276419 0.517386 0.203533
O O4 0.501863 0.605505 0.134907
O O5 0.750000 0.250000 0.191945
O O6 0.754207 0.535254 0.178731
O O7 0.001372 0.401138 0.197276
O O8 0.250000 0.250000 0.040115
O O9 0.191309 0.430230 0.117145
O O10 0.974498 0.359400 0.060412
O O11 0.178827 0.514186 0.017889
O O12 0.250000 0.250000 0.303485
O O13 0.250000 0.250000 0.611601
O O14 0.514913 0.213014 0.578348
O O15 0.250000 0.750000 0.980150
#
# Coordination Sequence:
#
# PCOD8303654 Si02
#       6
#     8   8   8   8   8   8
#     4  11  28  43  67 104 142 190 241 292 355 427
#     4  11  25  44  71 102 143 192 242 289 357 428
#     4  10  24  46  71 104 142 175 237 294 357 425
#     4  11  24  43  69 103 142 183 231 298 354 423
#     4  12  26  45  72 101 143 186 240 297 359 423
#     4  11  25  47  75 104 136 188 232 291 361 434
#
# _framework density 22.821885999999999
#
# number of rings (size 3 to 8) (size 9 to 14) (size 15 to 20)
#    0.000    1.000    1.667    3.000   14.000    1.333 
#    3.000    0.000    0.000    0.000    0.000    0.000 
#    0.000    0.000    0.000    0.000    0.000    0.000 
#
# Total GULP energy -594974.280978 kJ/mol
# GULP energy per Si atom -12395.297520 kJ/mol
# Density = 2.276994 g / cm^3
# Si number density = 22.821886 Si / 1000 Ang^3
#
#
#
# Elastic Constant Matrix: (Units=GPa)
#
#
# Indices 1 2 3 4 5 6 
#
# 1 134.3678 48.4304 9.5310 0.0000 0.0000 -4.8019
# 2 48.4304 134.3678 9.5310 0.0000 0.0000 4.8019
# 3 9.5310 9.5310 54.7367 0.0000 0.0000 0.0000
# 4 0.0000 0.0000 0.0000 96.4817 0.0000 0.0000
# 5 0.0000 0.0000 0.0000 0.0000 96.4817 0.0000
# 6 -4.8019 4.8019 0.0000 0.0000 0.0000 47.4202
#
#
#
# Elastic Compliance Matrix: (Units=1/GPa)
#
#
# Indices 1 2 3 4 5 6 
#
# 1 0.008671 -0.003099 -0.000970 0.000000 0.000000 0.001192
# 2 -0.003099 0.008671 -0.000970 0.000000 0.000000 -0.001192
# 3 -0.000970 -0.000970 0.018607 0.000000 0.000000 0.000000
# 4 0.000000 0.000000 0.000000 0.010365 0.000000 0.000000
# 5 0.000000 0.000000 0.000000 0.000000 0.010365 0.000000
# 6 0.001192 -0.001192 0.000000 0.000000 0.000000 0.021329
#
#
# Mechanical properties :
#
#
# Convention : Reuss Voigt Hill
#
# Bulk Modulus (GPa) = 38.65505 50.93967 44.79736
# Shear Modulus (GPa) = 51.70150 65.14204 58.42177
#
# Velocity S-wave (km/s) = 4.76482 5.34842 5.06504
# Velocity P-wave (km/s) = 6.87356 7.77881 7.34015
#
# Compressibility (1/GPa) = 0.02586984
#
# Stress axis : x y z
#
# Youngs Moduli (GPa) = 115.33193 115.33193 53.74278
#
# Poissons Ratio (x) = 0.35741 0.05214
# Poissons Ratio (y) = 0.35741 0.05214
# Poissons Ratio (z) = 0.11189 0.11189
#
# Static dielectric constant tensor:
#      x y z
#    x 4.366210 0.000000 0.000000 
#    y 0.000000 4.366210 0.000000 
#    z 0.000000 0.000000 3.989570 
# 
# 
# High freq. dielectric constant tensor:
#      x y z
#    x 1.911240 0.000000 0.000000 
#    y 0.000000 1.911240 0.000000 
#    z 0.000000 0.000000 1.905250 
# 
# From -- ./inp_files/5139.got.cif
#   From: 2010.03.12/outbox.cif.g09.slc.cpg/sg86_3_cif.got.tgz:5139.got - 2010.04.08 20:12:58.
