data_PCOD8303248
_publ_section_title
;
Structure prediction by ZEFSAII (Michael W. Deem and Ramdas Pophale) SiO2 
 PCOD8303248
Probable space group: P 42/M
;
_chemical_formula_sum "Si O2"
_cell_formula_units_Z 48
_cell_length_a 8.350501
_cell_length_b 8.350501
_cell_length_c 29.729109
_cell_angle_alpha 90.000000
_cell_angle_beta 90.000000
_cell_angle_gamma 90.000000
_cell_volume 2073.036544
_symmetry_space_group_name_H-M "P 42/M"
_symmetry_group_IT_number 84
_symmetry_cell_setting 'tetragonal'
loop_
_space_group_symop_operation_xyz
x,y,z
-y,x,1/2+z
-x,-y,z
y,-x,1/2+z
-x,-y,-z
y,-x,1/2-z
x,y,-z
-y,x,1/2-z
loop_
_atom_site_type_symbol
_atom_site_label
_atom_site_fract_x
_atom_site_fract_y
_atom_site_fract_z
Si Si1 0.204515 0.169866 0.750010
Si Si2 0.385341 0.371175 0.674253
Si Si3 0.949305 0.817067 0.592932
Si Si4 0.555400 0.181445 0.500000
Si Si5 0.390474 0.133440 0.833886
Si Si6 0.935680 0.179414 0.500000
Si Si7 0.177555 0.570752 0.906661
O O1 0.297642 0.252106 0.708831
O O2 0.283923 0.224638 0.796710
O O3 0.021278 0.222564 0.752689
O O4 0.500000 0.500000 0.699643
O O5 0.257819 0.479851 0.646092
O O6 0.491305 0.275141 0.636935
O O7 0.760724 0.816607 0.599590
O O8 0.049482 0.718147 0.628944
O O9 0.995084 0.738325 0.544811
O O10 0.000000 0.000000 0.596776
O O11 0.745272 0.188687 0.500000
O O12 0.484437 0.259755 0.454007
O O13 0.500000 0.000000 0.500000
O O14 0.500000 0.000000 0.809176
O O15 0.000000 0.000000 0.500000
O O16 0.000000 0.500000 0.904238
#
# Coordination Sequence:
#
# PCOD8303248 Si02
#       7
#     8   8   8   4   8   4   8
#     4  11  26  49  78 103 133 183 242 291 345 418
#     4  12  30  47  71 105 147 187 228 293 366 423
#     4  11  23  41  74 101 139 182 239 293 345 416
#     4  10  20  38  64  98 144 179 236 290 344 421
#     4  12  26  47  68 103 145 180 232 287 351 424
#     4  10  20  38  66 104 132 184 238 292 346 408
#     4  11  23  43  69 104 139 188 236 287 351 424
#
# _framework density 23.154437999999999
#
# number of rings (size 3 to 8) (size 9 to 14) (size 15 to 20)
#    0.000    0.833    3.333    4.500   11.667    0.667 
#    0.000    1.667    0.000    0.000    0.000    0.000 
#    0.000    0.000    0.000    0.000    0.000    0.000 
#
# Total GULP energy -594749.373484 kJ/mol
# GULP energy per Si atom -12390.611948 kJ/mol
# Density = 2.310174 g / cm^3
# Si number density = 23.154438 Si / 1000 Ang^3
#
#
#
# Elastic Constant Matrix: (Units=GPa)
#
#
# Indices 1 2 3 4 5 6 
#
# 1 83.2985 41.3970 61.8954 0.0000 0.0000 0.5914
# 2 41.3970 83.2985 61.8954 0.0000 0.0000 -0.5914
# 3 61.8954 61.8954 190.7293 0.0000 0.0000 0.0000
# 4 0.0000 0.0000 0.0000 17.8613 0.0000 0.0000
# 5 0.0000 0.0000 0.0000 0.0000 17.8613 0.0000
# 6 0.5914 -0.5914 0.0000 0.0000 0.0000 39.8172
#
#
#
# Elastic Compliance Matrix: (Units=1/GPa)
#
#
# Indices 1 2 3 4 5 6 
#
# 1 0.017853 -0.006022 -0.003839 0.000000 0.000000 -0.000355
# 2 -0.006022 0.017853 -0.003839 0.000000 0.000000 0.000355
# 3 -0.003839 -0.003839 0.007735 0.000000 0.000000 0.000000
# 4 0.000000 0.000000 0.000000 0.055987 0.000000 0.000000
# 5 0.000000 0.000000 0.000000 0.000000 0.055987 0.000000
# 6 -0.000355 0.000355 0.000000 0.000000 0.000000 0.025125
#
#
# Mechanical properties :
#
#
# Convention : Reuss Voigt Hill
#
# Bulk Modulus (GPa) = 62.34613 76.41130 69.37871
# Shear Modulus (GPa) = 23.44233 27.91719 25.67976
#
# Velocity S-wave (km/s) = 3.18533 3.47608 3.33387
# Velocity P-wave (km/s) = 6.36499 7.01307 6.69688
#
# Compressibility (1/GPa) = 0.01603949
#
# Stress axis : x y z
#
# Youngs Moduli (GPa) = 56.01203 56.01203 129.28292
#
# Poissons Ratio (x) = 0.33732 0.49637
# Poissons Ratio (y) = 0.33732 0.49637
# Poissons Ratio (z) = 0.21505 0.21505
#
# Static dielectric constant tensor:
#      x y z
#    x 4.386340 0.000000 0.000000 
#    y 0.000000 4.386340 0.000000 
#    z 0.000000 0.000000 4.707830 
# 
# 
# High freq. dielectric constant tensor:
#      x y z
#    x 1.920830 0.000000 0.000000 
#    y 0.000000 1.920830 0.000000 
#    z 0.000000 0.000000 1.920380 
# 
# From -- ./inp_files/5873.got.cif
#   From: 2010.03.12/outbox.cif.g09.slc.cpg/sg84_3_cif.got.tgz:5873.got - 2010.04.08 20:07:29.
