data_PCOD8303089
_publ_section_title
;
Structure prediction by ZEFSAII (Michael W. Deem and Ramdas Pophale) SiO2 
 PCOD8303089
Probable space group: P 42/M
;
_chemical_formula_sum "Si O2"
_cell_formula_units_Z 64
_cell_length_a 12.503765
_cell_length_b 12.503765
_cell_length_c 27.528542
_cell_angle_alpha 90.000000
_cell_angle_beta 90.000000
_cell_angle_gamma 90.000000
_cell_volume 4303.926202
_symmetry_space_group_name_H-M "P 42/M"
_symmetry_group_IT_number 84
_symmetry_cell_setting 'tetragonal'
loop_
_space_group_symop_operation_xyz
x,y,z
-y,x,1/2+z
-x,-y,z
y,-x,1/2+z
-x,-y,-z
y,-x,1/2-z
x,y,-z
-y,x,1/2-z
loop_
_atom_site_type_symbol
_atom_site_label
_atom_site_fract_x
_atom_site_fract_y
_atom_site_fract_z
Si Si1 0.489461 0.125965 0.053534
Si Si2 0.275003 0.876687 0.443212
Si Si3 0.125965 0.510539 0.053534
Si Si4 0.721848 0.894032 0.398567
Si Si5 0.105968 0.721848 0.398567
Si Si6 0.831393 0.949209 0.304670
Si Si7 0.831393 0.949209 0.804670
Si Si8 0.876687 0.724997 0.556788
O O1 0.396258 0.156049 0.091872
O O2 0.606100 0.167395 0.070679
O O3 0.500000 0.000000 0.048929
O O4 0.460148 0.172686 0.000000
O O5 0.253266 0.860891 0.500000
O O6 0.393900 0.832605 0.429321
O O7 0.191010 0.810999 0.412343
O O8 0.261295 0.001463 0.431262
O O9 0.156049 0.603742 0.091872
O O10 0.000000 0.500000 0.048929
O O11 0.172686 0.539852 0.000000
O O12 0.735423 0.921819 0.341644
O O13 0.810999 0.808990 0.412343
O O14 0.078181 0.735423 0.341644
O O15 0.001463 0.738705 0.431262
O O16 0.787041 0.935904 0.250000
O O17 0.929977 0.869499 0.313556
O O18 0.869499 0.070023 0.313556
O O19 0.860891 0.746734 0.500000
#
# Coordination Sequence:
#
# PCOD8303089 Si02
#       8
#     8   8   8   8   8   8   8   8
#     4   8  16  29  41  58  89 123 145 165 214 271
#     4  10  19  28  42  66  92 117 144 177 216 262
#     4   8  16  29  41  58  89 123 145 165 214 271
#     4  11  17  28  46  64  86 115 149 182 212 256
#     4  11  17  28  46  64  86 115 149 182 212 256
#     4   9  17  29  42  61  90 119 144 173 223 275
#     4   9  17  29  42  61  90 119 144 173 223 275
#     4  10  19  28  42  66  92 117 144 177 216 262
#
# _framework density 14.870143000000001
#
# number of rings (size 3 to 8) (size 9 to 14) (size 15 to 20)
#    0.000    2.500    2.500    4.500    0.000    0.500 
#    0.000    1.250    0.000    9.000    0.000    3.500 
#    0.000    0.000    0.000    2.250    0.000    0.250 
#
# Total GULP energy -793186.710583 kJ/mol
# GULP energy per Si atom -12393.542353 kJ/mol
# Density = 1.483630 g / cm^3
# Si number density = 14.870143 Si / 1000 Ang^3
#
#
#
# Elastic Constant Matrix: (Units=GPa)
#
#
# Indices 1 2 3 4 5 6 
#
# 1 50.8245 23.0343 25.3218 0.0000 0.0000 -5.6628
# 2 23.0343 50.8245 25.3218 0.0000 0.0000 5.6628
# 3 25.3218 25.3218 89.4371 0.0000 0.0000 0.0000
# 4 0.0000 0.0000 0.0000 14.0367 0.0000 0.0000
# 5 0.0000 0.0000 0.0000 0.0000 14.0367 0.0000
# 6 -5.6628 5.6628 0.0000 0.0000 0.0000 2.9755
#
#
#
# Elastic Compliance Matrix: (Units=1/GPa)
#
#
# Indices 1 2 3 4 5 6 
#
# 1 0.088580 -0.071779 -0.004757 0.000000 0.000000 0.305189
# 2 -0.071779 0.088580 -0.004757 0.000000 0.000000 -0.305189
# 3 -0.004757 -0.004757 0.013875 0.000000 0.000000 0.000000
# 4 0.000000 0.000000 0.000000 0.071242 0.000000 0.000000
# 5 0.000000 0.000000 0.000000 0.000000 0.071242 0.000000
# 6 0.305189 -0.305189 0.000000 0.000000 0.000000 1.497729
#
#
# Mechanical properties :
#
#
# Convention : Reuss Voigt Hill
#
# Bulk Modulus (GPa) = 35.15007 37.60466 36.37736
# Shear Modulus (GPa) = 2.49586 14.03700 8.26643
#
# Velocity S-wave (km/s) = 1.29695 3.07575 2.36033
# Velocity P-wave (km/s) = 5.09236 6.16094 5.65196
#
# Compressibility (1/GPa) = 0.02844945
#
# Stress axis : x y z
#
# Youngs Moduli (GPa) = 11.28922 11.28922 72.07437
#
# Poissons Ratio (x) = 0.81033 0.34284
# Poissons Ratio (y) = 0.81033 0.34284
# Poissons Ratio (z) = 0.05370 0.05370
#
# Static dielectric constant tensor:
#      x y z
#    x 2.893550 0.000000 0.000000 
#    y 0.000000 2.893550 0.000000 
#    z 0.000000 0.000000 2.857970 
# 
# 
# High freq. dielectric constant tensor:
#      x y z
#    x 1.546860 0.000000 0.000000 
#    y 0.000000 1.546860 0.000000 
#    z 0.000000 0.000000 1.562530 
# 
# From -- ./inp_files/5458.got.cif
#   From: 2010.03.12/outbox.cif.g09.slc.cpg/sg84_3_cif.got.tgz:5458.got - 2010.04.08 20:07:29.
