data_PCOD8303013
_publ_section_title
;
Structure prediction by ZEFSAII (Michael W. Deem and Ramdas Pophale) SiO2 
 PCOD8303013
Probable space group: P 4/M
;
_chemical_formula_sum "Si O2"
_cell_formula_units_Z 48
_cell_length_a 8.192544
_cell_length_b 8.192544
_cell_length_c 32.679750
_cell_angle_alpha 90.000000
_cell_angle_beta 90.000000
_cell_angle_gamma 90.000000
_cell_volume 2193.392179
_symmetry_space_group_name_H-M "P 4/M"
_symmetry_group_IT_number 83
_symmetry_cell_setting 'tetragonal'
loop_
_space_group_symop_operation_xyz
x,y,z
-y,x,z
-x,-y,z
y,-x,z
-x,-y,-z
y,-x,-z
x,y,-z
-y,x,-z
loop_
_atom_site_type_symbol
_atom_site_label
_atom_site_fract_x
_atom_site_fract_y
_atom_site_fract_z
Si Si1 0.241206 0.421981 0.209459
Si Si2 0.403336 0.244965 0.000000
Si Si3 0.500000 0.000000 0.855874
Si Si4 0.258151 0.085391 0.077891
Si Si5 0.242989 0.422201 0.297366
Si Si6 0.760621 0.571980 0.385251
Si Si7 0.258380 0.929433 0.454369
O O1 0.391561 0.299899 0.205382
O O2 0.115097 0.388510 0.172955
O O3 0.150065 0.393854 0.253940
O O4 0.593287 0.292116 0.000000
O O5 0.365533 0.130725 0.961357
O O6 0.376488 0.109178 0.883123
O O7 0.103222 0.204213 0.078160
O O8 0.393807 0.301902 0.297324
O O9 0.149150 0.396771 0.340775
O O10 0.610982 0.697042 0.389431
O O11 0.890923 0.602801 0.421083
O O12 0.332101 0.907584 0.500000
O O13 0.111499 0.803382 0.447952
#
# Coordination Sequence:
#
# PCOD8303013 Si02
#       7
#     8   4   4   8   8   8   8
#     4   9  18  34  55  77 105 143 183 225 273 319
#     4  11  24  43  68  95 118 144 188 241 278 317
#     4  12  22  35  56  86 116 146 193 238 264 312
#     4  11  24  41  61  86 121 161 191 224 280 336
#     4   7  12  27  49  71  98 131 166 208 261 315
#     4   9  17  30  50  76 102 127 161 210 262 311
#     4   9  19  35  50  65  93 133 170 204 249 309
#
# _framework density 21.883908999999999
#
# number of rings (size 3 to 8) (size 9 to 14) (size 15 to 20)
#    0.000    2.583    0.000    5.000    0.000    3.000 
#    0.000    9.167    0.000    0.000    0.000    2.333 
#    0.000    0.000    0.000    0.000    0.000    0.000 
#
# Total GULP energy -594660.519515 kJ/mol
# GULP energy per Si atom -12388.760823 kJ/mol
# Density = 2.183410 g / cm^3
# Si number density = 21.883909 Si / 1000 Ang^3
#
#
#
# Elastic Constant Matrix: (Units=GPa)
#
#
# Indices 1 2 3 4 5 6 
#
# 1 59.6262 17.1339 45.3055 0.0000 0.0000 -4.2964
# 2 17.1339 59.6262 45.3055 0.0000 0.0000 4.2964
# 3 45.3055 45.3055 213.9931 0.0000 0.0000 0.0000
# 4 0.0000 0.0000 0.0000 -328.2130 0.0000 0.0000
# 5 0.0000 0.0000 0.0000 0.0000 -328.2130 0.0000
# 6 -4.2964 4.2964 0.0000 0.0000 0.0000 29.1566
#
#
#
# Elastic Compliance Matrix: (Units=1/GPa)
#
#
# Indices 1 2 3 4 5 6 
#
# 1 0.020812 -0.003444 -0.003677 0.000000 0.000000 0.003574
# 2 -0.003444 0.020812 -0.003677 0.000000 0.000000 -0.003574
# 3 -0.003677 -0.003677 0.006230 0.000000 0.000000 0.000000
# 4 0.000000 0.000000 0.000000 -0.003047 0.000000 0.000000
# 5 0.000000 0.000000 0.000000 0.000000 -0.003047 0.000000
# 6 0.003574 -0.003574 0.000000 0.000000 0.000000 0.035351
#
#
# Mechanical properties :
#
#
# Convention : Reuss Voigt Hill
#
# Bulk Modulus (GPa) = 38.08352 60.97059 49.52706
# Shear Modulus (GPa) = 46.52823 -110.42052 -31.94615
#
# Velocity S-wave (km/s) = 4.61601 -7.11104 -3.82488
# Velocity P-wave (km/s) = 6.77129 6.28500 1.78174
#
# Compressibility (1/GPa) = 0.02625807
#
# Stress axis : x y z
#
# Youngs Moduli (GPa) = 48.04833 48.04833 160.51235
#
# Poissons Ratio (x) = 0.16548 0.59022
# Poissons Ratio (y) = 0.16548 0.59022
# Poissons Ratio (z) = 0.17668 0.17668
#
# Static dielectric constant tensor:
#      x y z
#    x 3.624340 0.000000 0.000000 
#    y 0.000000 3.624340 0.000000 
#    z 0.000000 0.000000 4.517280 
# 
# 
# High freq. dielectric constant tensor:
#      x y z
#    x 1.837540 0.000000 0.000000 
#    y 0.000000 1.837540 0.000000 
#    z 0.000000 0.000000 1.887030 
# 
# From -- ./inp_files/3450.got.cif
#   From: 2010.03.12/outbox.cif.g09.slc.cpg/sg83_2_cif.got.tgz:3450.got - 2010.04.08 20:05:18.
