data_PCOD8303588
_publ_section_title
;
Structure prediction by ZEFSAII (Michael W. Deem and Ramdas Pophale) SiO2 
 PCOD8303588
Probable space group: P 42/N
;
_chemical_formula_sum "Si O2"
_cell_formula_units_Z 56
_cell_length_a 11.254900
_cell_length_b 11.254900
_cell_length_c 19.680426
_cell_angle_alpha 90.000000
_cell_angle_beta 90.000000
_cell_angle_gamma 90.000000
_cell_volume 2492.974155
_symmetry_space_group_name_H-M "P 42/N"
_symmetry_group_IT_number 86
_space_group.IT_coordinate_system_code '2'
_symmetry_cell_setting 'tetragonal'
loop_
_space_group_symop_operation_xyz
x,y,z
-y,1/2+x,1/2+z
1/2-x,1/2-y,z
1/2+y,-x,1/2+z
-x,-y,-z
y,1/2-x,1/2-z
1/2+x,1/2+y,-z
1/2-y,x,1/2-z
loop_
_atom_site_type_symbol
_atom_site_label
_atom_site_fract_x
_atom_site_fract_y
_atom_site_fract_z
Si Si1 0.278325 0.613801 0.163604
Si Si2 0.097077 0.566276 0.444302
Si Si3 0.465103 0.179327 0.987920
Si Si4 0.866019 0.527228 0.385644
Si Si5 0.471333 0.695962 0.522005
Si Si6 0.085087 0.288976 0.720328
Si Si7 0.353719 0.665695 0.798677
O O1 0.250000 0.750000 0.147669
O O2 0.421304 0.606751 0.166616
O O3 0.223124 0.535007 0.102497
O O4 0.228872 0.571679 0.237452
O O5 0.200418 0.477529 0.468038
O O6 0.087704 0.696015 0.479636
O O7 0.124601 0.571158 0.363044
O O8 0.962821 0.508122 0.447569
O O9 0.469374 0.229736 0.910884
O O10 0.580758 0.101319 0.001240
O O11 0.341752 0.108330 0.003726
O O12 0.890999 0.655604 0.353508
O O13 0.154591 0.366256 0.777797
O O14 0.946812 0.291354 0.738131
O O15 0.250000 0.750000 0.826101
#
# Coordination Sequence:
#
# PCOD8303588 Si02
#       7
#     8   8   8   8   8   8   8
#     4  11  20  41  64  93 132 178 230 270 338 424
#     4  11  23  45  63  97 134 173 229 292 334 409
#     4  11  23  41  64  99 127 175 227 278 344 408
#     4  11  23  41  69  93 136 180 218 281 353 403
#     4  11  23  39  68  96 130 175 227 285 338 412
#     4  10  22  39  60  98 137 164 214 284 345 401
#     4  10  22  39  66  92 128 184 220 272 342 408
#
# _framework density 22.463127
#
# number of rings (size 3 to 8) (size 9 to 14) (size 15 to 20)
#    0.000    1.286    2.857    3.429    0.000    5.143 
#   12.857    0.000    0.000    0.000    0.000    0.000 
#    0.000    0.000    0.000    0.000    0.000    0.000 
#
# Total GULP energy -693788.906273 kJ/mol
# GULP energy per Si atom -12389.087612 kJ/mol
# Density = 2.241200 g / cm^3
# Si number density = 22.463127 Si / 1000 Ang^3
#
#
#
# Elastic Constant Matrix: (Units=GPa)
#
#
# Indices 1 2 3 4 5 6 
#
# 1 95.0828 16.9660 23.5057 0.0000 0.0000 2.8428
# 2 16.9660 95.0828 23.5057 0.0000 0.0000 -2.8428
# 3 23.5057 23.5057 97.4781 0.0000 0.0000 0.0000
# 4 0.0000 0.0000 0.0000 28.4086 0.0000 0.0000
# 5 0.0000 0.0000 0.0000 0.0000 28.4086 0.0000
# 6 2.8428 -2.8428 0.0000 0.0000 0.0000 29.8035
#
#
#
# Elastic Compliance Matrix: (Units=1/GPa)
#
#
# Indices 1 2 3 4 5 6 
#
# 1 0.011410 -0.001481 -0.002394 0.000000 0.000000 -0.001230
# 2 -0.001481 0.011410 -0.002394 0.000000 0.000000 0.001230
# 3 -0.002394 -0.002394 0.011413 0.000000 0.000000 0.000000
# 4 0.000000 0.000000 0.000000 0.035201 0.000000 0.000000
# 5 0.000000 0.000000 0.000000 0.000000 0.035201 0.000000
# 6 -0.001230 0.001230 0.000000 0.000000 0.000000 0.033788
#
#
# Mechanical properties :
#
#
# Convention : Reuss Voigt Hill
#
# Bulk Modulus (GPa) = 46.09427 46.17757 46.13592
# Shear Modulus (GPa) = 31.60699 32.23523 31.92111
#
# Velocity S-wave (km/s) = 3.75515 3.79229 3.77376
# Velocity P-wave (km/s) = 6.27424 6.30690 6.29059
#
# Compressibility (1/GPa) = 0.02169467
#
# Stress axis : x y z
#
# Youngs Moduli (GPa) = 87.64209 87.64209 87.61600
#
# Poissons Ratio (x) = 0.12978 0.20978
# Poissons Ratio (y) = 0.12978 0.20978
# Poissons Ratio (z) = 0.20984 0.20984
#
# Static dielectric constant tensor:
#      x y z
#    x 4.213340 0.000000 0.000000 
#    y 0.000000 4.213340 0.000000 
#    z 0.000000 0.000000 4.172120 
# 
# 
# High freq. dielectric constant tensor:
#      x y z
#    x 1.882470 0.000000 0.000000 
#    y 0.000000 1.882470 0.000000 
#    z 0.000000 0.000000 1.893770 
# 
# From -- ./inp_files/4175.got.cif
#   From: 2010.03.12/outbox.cif.g09.slc.cpg/sg86_3_cif.got.tgz:4175.got - 2010.04.08 20:12:58.
