data_PCOD8303366
_publ_section_title
;
Structure prediction by ZEFSAII (Michael W. Deem and Ramdas Pophale) SiO2 
 PCOD8303366
Probable space group: P 42/M
;
_chemical_formula_sum "Si O2"
_cell_formula_units_Z 48
_cell_length_a 17.381319
_cell_length_b 17.381319
_cell_length_c 8.682724
_cell_angle_alpha 90.000000
_cell_angle_beta 90.000000
_cell_angle_gamma 90.000000
_cell_volume 2623.139920
_symmetry_space_group_name_H-M "P 42/M"
_symmetry_group_IT_number 84
_symmetry_cell_setting 'tetragonal'
loop_
_space_group_symop_operation_xyz
x,y,z
-y,x,1/2+z
-x,-y,z
y,-x,1/2+z
-x,-y,-z
y,-x,1/2-z
x,y,-z
-y,x,1/2-z
loop_
_atom_site_type_symbol
_atom_site_label
_atom_site_fract_x
_atom_site_fract_y
_atom_site_fract_z
Si Si1 0.362241 0.197754 0.819348
Si Si2 0.268830 0.060545 0.681137
Si Si3 0.686858 0.253586 0.174507
Si Si4 0.898524 0.663775 0.180072
Si Si5 0.818413 0.535001 0.324968
Si Si6 0.891351 0.961902 0.181343
O O1 0.325564 0.129142 0.722964
O O2 0.320853 0.277920 0.778665
O O3 0.450930 0.204855 0.765245
O O4 0.354709 0.181529 0.000000
O O5 0.252640 0.060020 0.500000
O O6 0.189955 0.074066 0.772210
O O7 0.307420 0.981155 0.737308
O O8 0.713452 0.168848 0.235713
O O9 0.593054 0.255638 0.185696
O O10 0.716181 0.263637 0.000000
O O11 0.887753 0.573081 0.224667
O O12 0.888825 0.675382 0.000000
O O13 0.848125 0.530205 0.500000
O O14 0.957278 0.902110 0.231058
O O15 0.896330 0.975506 0.000000
#
# Coordination Sequence:
#
# PCOD8303366 Si02
#       6
#     8   8   8   8   8   8
#     4  11  22  37  58  87 115 147 192 237 282 342
#     4  11  24  38  55  83 115 149 190 236 282 337
#     4   9  19  37  58  81 112 149 186 229 284 338
#     4   9  19  36  57  79 108 146 186 225 275 331
#     4   8  19  37  57  81 114 151 186 230 287 341
#     4  11  23  40  59  78 106 145 189 239 288 339
#
# _framework density 18.298680999999998
#
# number of rings (size 3 to 8) (size 9 to 14) (size 15 to 20)
#    1.000    1.167    0.000    3.500    2.333    4.667 
#    0.000    3.333    0.000    0.500    0.000    3.500 
#    0.000    0.000    0.000    0.000    0.000    0.000 
#
# Total GULP energy -594941.147969 kJ/mol
# GULP energy per Si atom -12394.607249 kJ/mol
# Density = 1.825703 g / cm^3
# Si number density = 18.298681 Si / 1000 Ang^3
#
#
#
# Elastic Constant Matrix: (Units=GPa)
#
#
# Indices 1 2 3 4 5 6 
#
# 1 91.5924 27.7782 21.9900 0.0000 0.0000 -0.9015
# 2 27.7782 91.5924 21.9900 0.0000 0.0000 0.9015
# 3 21.9900 21.9900 73.4369 0.0000 0.0000 0.0000
# 4 0.0000 0.0000 0.0000 24.9456 0.0000 0.0000
# 5 0.0000 0.0000 0.0000 0.0000 24.9456 0.0000
# 6 -0.9015 0.9015 0.0000 0.0000 0.0000 13.0654
#
#
#
# Elastic Compliance Matrix: (Units=1/GPa)
#
#
# Indices 1 2 3 4 5 6 
#
# 1 0.012559 -0.003143 -0.002820 0.000000 0.000000 0.001083
# 2 -0.003143 0.012559 -0.002820 0.000000 0.000000 -0.001083
# 3 -0.002820 -0.002820 0.015306 0.000000 0.000000 0.000000
# 4 0.000000 0.000000 0.000000 0.040087 0.000000 0.000000
# 5 0.000000 0.000000 0.000000 0.000000 0.040087 0.000000
# 6 0.001083 -0.001083 0.000000 0.000000 0.000000 0.076688
#
#
# Mechanical properties :
#
#
# Convention : Reuss Voigt Hill
#
# Bulk Modulus (GPa) = 43.74520 44.45979 44.10249
# Shear Modulus (GPa) = 22.47514 24.91557 23.69536
#
# Velocity S-wave (km/s) = 3.50843 3.69400 3.60241
# Velocity P-wave (km/s) = 6.35375 6.52255 6.43870
#
# Compressibility (1/GPa) = 0.02285965
#
# Stress axis : x y z
#
# Youngs Moduli (GPa) = 79.62673 79.62673 65.33514
#
# Poissons Ratio (x) = 0.25023 0.18422
# Poissons Ratio (y) = 0.25023 0.18422
# Poissons Ratio (z) = 0.22451 0.22451
#
# Static dielectric constant tensor:
#      x y z
#    x 3.299630 0.000000 0.000000 
#    y 0.000000 3.299630 0.000000 
#    z 0.000000 0.000000 3.377160 
# 
# 
# High freq. dielectric constant tensor:
#      x y z
#    x 1.695510 0.000000 0.000000 
#    y 0.000000 1.695510 0.000000 
#    z 0.000000 0.000000 1.721270 
# 
# From -- ./inp_files/960.got.cif
#   From: 2010.03.12/outbox.cif.g09.slc.cpg/sg84_1_cif.got.tgz:960.got - 2010.04.08 20:07:29.
