data_PCOD8303457
_publ_section_title
;
Structure prediction by ZEFSAII (Michael W. Deem and Ramdas Pophale) SiO2 
 PCOD8303457
Probable space group: P 4/N
;
_chemical_formula_sum "Si O2"
_cell_formula_units_Z 50
_cell_length_a 8.952920
_cell_length_b 8.952920
_cell_length_c 31.783642
_cell_angle_alpha 90.000000
_cell_angle_beta 90.000000
_cell_angle_gamma 90.000000
_cell_volume 2547.610722
_symmetry_space_group_name_H-M "P 4/N"
_symmetry_group_IT_number 85
_symmetry_cell_setting 'tetragonal'
loop_
_space_group_symop_operation_xyz
x,y,z
1/2-y,x,z
1/2-x,1/2-y,z
y,1/2-x,z
-x,-y,-z
1/2+y,-x,-z
1/2+x,1/2+y,-z
-y,1/2+x,-z
loop_
_atom_site_type_symbol
_atom_site_label
_atom_site_fract_x
_atom_site_fract_y
_atom_site_fract_z
Si Si1 0.045945 0.117246 0.310422
Si Si2 0.916593 0.567766 0.539540
Si Si3 0.811942 0.986520 0.057549
Si Si4 0.250000 0.750000 0.000000
Si Si5 0.445642 0.100199 0.617352
Si Si6 0.168088 0.021246 0.846447
Si Si7 0.145972 0.469596 0.214149
O O1 0.207460 0.047761 0.320793
O O2 0.992330 0.106460 0.262281
O O3 0.930653 0.023256 0.337953
O O4 0.958179 0.740668 0.538206
O O5 0.000000 0.500000 0.500000
O O6 0.965128 0.485455 0.581643
O O7 0.644561 0.929262 0.048171
O O8 0.839361 0.035750 0.105616
O O9 0.839207 0.130426 0.028497
O O10 0.456322 0.277247 0.613017
O O11 0.337868 0.062397 0.837241
O O12 0.109692 0.894605 0.815145
O O13 0.055348 0.319400 0.204189
#
# Coordination Sequence:
#
# PCOD8303457 Si02
#       7
#     8   8   8   2   8   8   8
#     4   9  19  37  58  80 109 145 183 225 276 329
#     4  11  24  41  62  88 116 148 189 235 282 334
#     4   9  20  37  53  76 110 141 175 223 274 324
#     4  12  20  32  60  84 100 140 188 224 268 328
#     4  11  24  39  56  83 117 150 188 233 277 328
#     4   9  19  35  53  74 105 143 178 216 266 324
#     4   9  19  35  55  81 111 140 177 227 274 321
#
# _framework density 19.626232999999999
#
# number of rings (size 3 to 8) (size 9 to 14) (size 15 to 20)
#    0.000    2.240    0.000    4.320    0.000   11.200 
#    0.000    4.800    0.000    1.920    0.000    0.000 
#    0.000    0.000    0.000    0.000    0.000    0.000 
#
# Total GULP energy -619883.809414 kJ/mol
# GULP energy per Si atom -12397.676188 kJ/mol
# Density = 1.958156 g / cm^3
# Si number density = 19.626233 Si / 1000 Ang^3
#
#
#
# Elastic Constant Matrix: (Units=GPa)
#
#
# Indices 1 2 3 4 5 6 
#
# 1 74.0777 48.4224 54.1953 0.0000 0.0000 -2.3215
# 2 48.4224 74.0777 54.1953 0.0000 0.0000 2.3215
# 3 54.1953 54.1953 109.6771 0.0000 0.0000 0.0000
# 4 0.0000 0.0000 0.0000 39.0477 0.0000 0.0000
# 5 0.0000 0.0000 0.0000 0.0000 39.0477 0.0000
# 6 -2.3215 2.3215 0.0000 0.0000 0.0000 43.5807
#
#
#
# Elastic Compliance Matrix: (Units=1/GPa)
#
#
# Indices 1 2 3 4 5 6 
#
# 1 0.026932 -0.012426 -0.007168 0.000000 0.000000 0.002097
# 2 -0.012426 0.026932 -0.007168 0.000000 0.000000 -0.002097
# 3 -0.007168 -0.007168 0.016201 0.000000 0.000000 0.000000
# 4 0.000000 0.000000 0.000000 0.025610 0.000000 0.000000
# 5 0.000000 0.000000 0.000000 0.000000 0.025610 0.000000
# 6 0.002097 -0.002097 0.000000 0.000000 0.000000 0.023169
#
#
# Mechanical properties :
#
#
# Convention : Reuss Voigt Hill
#
# Bulk Modulus (GPa) = 60.45420 63.49537 61.97479
# Shear Modulus (GPa) = 24.57128 31.06984 27.82056
#
# Velocity S-wave (km/s) = 3.54215 3.98311 3.76908
# Velocity P-wave (km/s) = 6.89918 7.31957 7.11248
#
# Compressibility (1/GPa) = 0.01654145
#
# Stress axis : x y z
#
# Youngs Moduli (GPa) = 37.13117 37.13117 61.72411
#
# Poissons Ratio (x) = 0.46140 0.44241
# Poissons Ratio (y) = 0.46140 0.44241
# Poissons Ratio (z) = 0.26614 0.26614
#
# Static dielectric constant tensor:
#      x y z
#    x 3.486540 0.000000 0.000000 
#    y 0.000000 3.486540 0.000000 
#    z 0.000000 0.000000 3.506120 
# 
# 
# High freq. dielectric constant tensor:
#      x y z
#    x 1.764350 0.000000 0.000000 
#    y 0.000000 1.764350 0.000000 
#    z 0.000000 0.000000 1.771180 
# 
# From -- ./inp_files/2481.got.cif
#   From: 2010.03.12/outbox.cif.g09.slc.cpg/sg85_cif.got.tgz:2481.got - 2010.04.08 20:10:46.
