data_PCOD8303928
_publ_section_title
;
Structure prediction by ZEFSAII (Michael W. Deem and Ramdas Pophale) SiO2 
 PCOD8303928
Probable space group: I 4/M
;
_chemical_formula_sum "Si O2"
_cell_formula_units_Z 72
_cell_length_a 19.311561
_cell_length_b 19.311561
_cell_length_c 10.166522
_cell_angle_alpha 90.000000
_cell_angle_beta 90.000000
_cell_angle_gamma 90.000000
_cell_volume 3791.465996
_symmetry_space_group_name_H-M "I 4/M"
_symmetry_group_IT_number 87
_symmetry_cell_setting 'tetragonal'
loop_
_space_group_symop_operation_xyz
x,y,z
-y,x,z
-x,-y,z
y,-x,z
-x,-y,-z
y,-x,-z
x,y,-z
-y,x,-z
1/2+x,1/2+y,1/2+z
1/2-y,1/2+x,1/2+z
1/2-x,1/2-y,1/2+z
1/2+y,1/2-x,1/2+z
1/2-x,1/2-y,1/2-z
1/2+y,1/2-x,1/2-z
1/2+x,1/2+y,1/2-z
1/2-y,1/2+x,1/2-z
loop_
_atom_site_type_symbol
_atom_site_label
_atom_site_fract_x
_atom_site_fract_y
_atom_site_fract_z
Si Si1 0.576504 0.173074 0.348143
Si Si2 0.902512 0.937611 0.500000
Si Si3 0.818234 0.072519 0.145531
Si Si4 0.165762 0.584683 0.650142
Si Si5 0.671796 0.574187 0.261004
O O1 0.603277 0.172539 0.500000
O O2 0.496865 0.151394 0.344615
O O3 0.616981 0.119383 0.257553
O O4 0.587908 0.247478 0.280783
O O5 0.857915 0.906175 0.619032
O O6 0.979141 0.905480 0.500000
O O7 0.744498 0.100660 0.198445
O O8 0.875895 0.131760 0.138193
O O9 0.847378 0.006349 0.222610
O O10 0.801714 0.044141 0.000000
O O11 0.152159 0.611830 0.500000
#
# Coordination Sequence:
#
# PCOD8303928 Si02
#       5
#    16   8  16  16  16
#     4  10  22  41  62  88 116 148 196 243 291 350
#     4  11  22  38  54  86 126 155 197 245 283 337
#     4  10  20  37  58  83 115 153 197 236 286 344
#     4   9  21  40  60  86 117 148 188 243 295 353
#     4  11  21  37  57  82 118 157 191 241 286 336
#
# _framework density 18.990015
#
# number of rings (size 3 to 8) (size 9 to 14) (size 15 to 20)
#    0.000    1.889    2.222    3.333    1.556    2.667 
#    8.000    3.333    0.000    0.000    0.000    0.000 
#    0.000    0.000    0.000    0.000    0.000    0.000 
#
# Total GULP energy -446246.789226 kJ/mol
# GULP energy per Si atom -12395.744145 kJ/mol
# Density = 1.894679 g / cm^3
# Si number density = 18.990015 Si / 1000 Ang^3
#
#
#
# Elastic Constant Matrix: (Units=GPa)
#
#
# Indices 1 2 3 4 5 6 
#
# 1 71.1644 58.9042 38.6592 0.0000 0.0000 -6.5976
# 2 58.9042 71.1644 38.6592 0.0000 0.0000 6.5976
# 3 38.6592 38.6592 102.2407 0.0000 0.0000 0.0000
# 4 0.0000 0.0000 0.0000 31.6988 0.0000 0.0000
# 5 0.0000 0.0000 0.0000 0.0000 31.6988 0.0000
# 6 -6.5976 6.5976 0.0000 0.0000 0.0000 31.1836
#
#
#
# Elastic Compliance Matrix: (Units=1/GPa)
#
#
# Indices 1 2 3 4 5 6 
#
# 1 0.057766 -0.047848 -0.003750 0.000000 0.000000 0.022345
# 2 -0.047848 0.057766 -0.003750 0.000000 0.000000 -0.022345
# 3 -0.003750 -0.003750 0.012617 0.000000 0.000000 0.000000
# 4 0.000000 0.000000 0.000000 0.031547 0.000000 0.000000
# 5 0.000000 0.000000 0.000000 0.000000 0.031547 0.000000
# 6 0.022345 -0.022345 0.000000 0.000000 0.000000 0.041523
#
#
# Mechanical properties :
#
#
# Convention : Reuss Voigt Hill
#
# Bulk Modulus (GPa) = 57.30118 57.44609 57.37364
# Shear Modulus (GPa) = 14.31523 26.13936 20.22729
#
# Velocity S-wave (km/s) = 2.74857 3.71412 3.26721
# Velocity P-wave (km/s) = 6.34923 6.97920 6.67166
#
# Compressibility (1/GPa) = 0.01745165
#
# Stress axis : x y z
#
# Youngs Moduli (GPa) = 17.31135 17.31135 79.25996
#
# Poissons Ratio (x) = 0.82832 0.29722
# Poissons Ratio (y) = 0.82832 0.29722
# Poissons Ratio (z) = 0.06492 0.06492
#
# Static dielectric constant tensor:
#      x y z
#    x 3.355760 0.000000 0.000000 
#    y 0.000000 3.355760 0.000000 
#    z 0.000000 0.000000 3.487320 
# 
# 
# High freq. dielectric constant tensor:
#      x y z
#    x 1.732280 0.000000 0.000000 
#    y 0.000000 1.732280 0.000000 
#    z 0.000000 0.000000 1.746820 
# 
# From -- ./inp_files/1064.got.cif
#   From: 2010.03.12/outbox.cif.g09.slc.cpg/sg87_1_cif.got.tgz:1064.got - 2010.04.08 20:16:13.
