data_PCOD8303019
_publ_section_title
;
Structure prediction by ZEFSAII (Michael W. Deem and Ramdas Pophale) SiO2 
 PCOD8303019
Probable space group: P 4/M
;
_chemical_formula_sum "Si O2"
_cell_formula_units_Z 56
_cell_length_a 11.004843
_cell_length_b 11.004843
_cell_length_c 26.150037
_cell_angle_alpha 90.000000
_cell_angle_beta 90.000000
_cell_angle_gamma 90.000000
_cell_volume 3166.941272
_symmetry_space_group_name_H-M "P 4/M"
_symmetry_group_IT_number 83
_symmetry_cell_setting 'tetragonal'
loop_
_space_group_symop_operation_xyz
x,y,z
-y,x,z
-x,-y,z
y,-x,z
-x,-y,-z
y,-x,-z
x,y,-z
-y,x,-z
loop_
_atom_site_type_symbol
_atom_site_label
_atom_site_fract_x
_atom_site_fract_y
_atom_site_fract_z
Si Si1 0.442527 0.131132 0.242141
Si Si2 0.928341 0.182791 0.093037
Si Si3 0.926881 0.182470 0.787596
Si Si4 0.490186 0.299524 0.446078
Si Si5 0.441730 0.126510 0.942021
Si Si6 0.491621 0.299779 0.147803
Si Si7 0.509951 0.701748 0.664722
O O1 0.296567 0.121446 0.244212
O O2 0.489906 0.205389 0.193763
O O3 0.488127 0.193345 0.293691
O O4 0.500000 0.000000 0.237648
O O5 0.916513 0.213689 0.152694
O O6 0.881675 0.296123 0.060796
O O7 0.067812 0.154849 0.078821
O O8 0.066786 0.155468 0.773451
O O9 0.612689 0.375701 0.446587
O O10 0.486308 0.221327 0.500000
O O11 0.486747 0.230499 0.391331
O O12 0.493486 0.232494 0.906486
O O13 0.500000 0.000000 0.923706
O O14 0.479769 0.157339 0.000000
O O15 0.615142 0.374588 0.152100
O O16 0.386948 0.624795 0.671543
#
# Coordination Sequence:
#
# PCOD8303019 Si02
#       7
#     8   8   8   8   8   8   8
#     4  12  24  33  57  81 107 140 174 216 262 317
#     4   9  19  37  61  84 106 133 168 215 264 308
#     4   9  20  36  55  78 102 134 174 218 263 306
#     4   7  10  20  42  70 100 140 184 219 258 308
#     4  11  25  40  59  84 109 136 171 214 258 309
#     4  11  26  44  62  80 104 140 177 212 263 323
#     4   9  18  32  49  76 115 147 177 222 267 312
#
# _framework density 17.682677000000002
#
# number of rings (size 3 to 8) (size 9 to 14) (size 15 to 20)
#    0.000    2.286    1.429    3.429    6.000    2.286 
#    0.000    1.429    0.000    0.429    0.000    0.000 
#    0.000    0.000    0.000    1.571    0.000    0.000 
#
# Total GULP energy -694122.537501 kJ/mol
# GULP energy per Si atom -12395.045313 kJ/mol
# Density = 1.764243 g / cm^3
# Si number density = 17.682677 Si / 1000 Ang^3
#
#
#
# Elastic Constant Matrix: (Units=GPa)
#
#
# Indices 1 2 3 4 5 6 
#
# 1 71.2687 19.8921 47.5365 0.0000 0.0000 1.6524
# 2 19.8921 71.2687 47.5365 0.0000 0.0000 -1.6524
# 3 47.5365 47.5365 126.7821 0.0000 0.0000 0.0000
# 4 0.0000 0.0000 0.0000 9.0285 0.0000 0.0000
# 5 0.0000 0.0000 0.0000 0.0000 9.0285 0.0000
# 6 1.6524 -1.6524 0.0000 0.0000 0.0000 14.5100
#
#
#
# Elastic Compliance Matrix: (Units=1/GPa)
#
#
# Indices 1 2 3 4 5 6 
#
# 1 0.018811 -0.000797 -0.006754 0.000000 0.000000 -0.002233
# 2 -0.000797 0.018811 -0.006754 0.000000 0.000000 0.002233
# 3 -0.006754 -0.006754 0.012952 0.000000 0.000000 0.000000
# 4 0.000000 0.000000 0.000000 0.110760 0.000000 0.000000
# 5 0.000000 0.000000 0.000000 0.000000 0.110760 0.000000
# 6 -0.002233 0.002233 0.000000 0.000000 0.000000 0.069427
#
#
# Mechanical properties :
#
#
# Convention : Reuss Voigt Hill
#
# Bulk Modulus (GPa) = 45.53087 55.47219 50.50153
# Shear Modulus (GPa) = 13.24671 16.80370 15.02520
#
# Velocity S-wave (km/s) = 2.74000 3.08602 2.91815
# Velocity P-wave (km/s) = 5.98456 6.64357 6.32266
#
# Compressibility (1/GPa) = 0.02196312
#
# Stress axis : x y z
#
# Youngs Moduli (GPa) = 53.16120 53.16120 77.20550
#
# Poissons Ratio (x) = 0.04237 0.52146
# Poissons Ratio (y) = 0.04237 0.52146
# Poissons Ratio (z) = 0.35906 0.35906
#
# Static dielectric constant tensor:
#      x y z
#    x 3.182250 0.000000 0.000000 
#    y 0.000000 3.182250 0.000000 
#    z 0.000000 0.000000 3.529070 
# 
# 
# High freq. dielectric constant tensor:
#      x y z
#    x 1.669650 0.000000 0.000000 
#    y 0.000000 1.669650 0.000000 
#    z 0.000000 0.000000 1.680700 
# 
# From -- ./inp_files/3175.got.cif
#   From: 2010.03.12/outbox.cif.g09.slc.cpg/sg83_2_cif.got.tgz:3175.got - 2010.04.08 20:05:18.
