data_PCOD8303426
_publ_section_title
;
Structure prediction by ZEFSAII (Michael W. Deem and Ramdas Pophale) SiO2 
 PCOD8303426
Probable space group: P 4/N
;
_chemical_formula_sum "Si O2"
_cell_formula_units_Z 64
_cell_length_a 17.423609
_cell_length_b 17.423609
_cell_length_c 9.520754
_cell_angle_alpha 90.000000
_cell_angle_beta 90.000000
_cell_angle_gamma 90.000000
_cell_volume 2890.330975
_symmetry_space_group_name_H-M "P 4/N"
_symmetry_group_IT_number 85
_symmetry_cell_setting 'tetragonal'
loop_
_space_group_symop_operation_xyz
x,y,z
1/2-y,x,z
1/2-x,1/2-y,z
y,1/2-x,z
-x,-y,-z
1/2+y,-x,-z
1/2+x,1/2+y,-z
-y,1/2+x,-z
loop_
_atom_site_type_symbol
_atom_site_label
_atom_site_fract_x
_atom_site_fract_y
_atom_site_fract_z
Si Si1 0.631320 0.733812 0.053381
Si Si2 0.163014 0.526395 0.608239
Si Si3 0.462810 0.923439 0.824639
Si Si4 0.468040 0.753287 0.922414
Si Si5 0.957630 0.086184 0.131768
Si Si6 0.158543 0.802825 0.571071
Si Si7 0.293393 0.137992 0.616019
Si Si8 0.295910 0.587964 0.794580
O O1 0.685186 0.665048 0.997650
O O2 0.546480 0.729790 0.997191
O O3 0.632946 0.719401 0.218350
O O4 0.087703 0.550802 0.693005
O O5 0.164917 0.574030 0.462846
O O6 0.164367 0.438120 0.560272
O O7 0.240303 0.538070 0.698618
O O8 0.545694 0.965781 0.808434
O O9 0.472692 0.830518 0.828226
O O10 0.421597 0.956021 0.963072
O O11 0.404333 0.763846 0.046318
O O12 0.450287 0.677679 0.829217
O O13 0.880206 0.046692 0.195288
O O14 0.210895 0.836956 0.441453
O O15 0.191521 0.828923 0.721993
O O16 0.347621 0.206923 0.560123
#
# Coordination Sequence:
#
# PCOD8303426 Si02
#       8
#     8   8   8   8   8   8   8   8
#     4   9  16  27  49  80 110 143 184 229 286 349
#     4  11  20  37  60  82 114 155 194 242 305 352
#     4  10  22  34  55  87 116 158 194 235 301 363
#     4  11  19  34  54  82 116 161 188 239 293 354
#     4  10  21  36  54  84 124 147 189 245 294 355
#     4   9  21  40  60  80 106 153 197 249 285 341
#     4   9  18  30  54  88 114 142 184 240 298 353
#     4  10  21  36  57  80 110 149 195 239 293 348
#
# _framework density 22.142793000000001
#
# number of rings (size 3 to 8) (size 9 to 14) (size 15 to 20)
#    0.000    2.125    2.500    1.500    3.500    2.000 
#    0.000    0.625    0.000    0.000    0.000    0.000 
#    0.000    0.000    0.000    0.625    0.000    0.000 
#
# Total GULP energy -792851.240200 kJ/mol
# GULP energy per Si atom -12388.300628 kJ/mol
# Density = 2.209239 g / cm^3
# Si number density = 22.142793 Si / 1000 Ang^3
#
#
#
# Elastic Constant Matrix: (Units=GPa)
#
#
# Indices 1 2 3 4 5 6 
#
# 1 118.6888 34.4291 22.2562 0.0000 0.0000 3.1113
# 2 34.4291 118.6888 22.2562 0.0000 0.0000 -3.1113
# 3 22.2562 22.2562 35.8856 0.0000 0.0000 0.0000
# 4 0.0000 0.0000 0.0000 16.7669 0.0000 0.0000
# 5 0.0000 0.0000 0.0000 0.0000 16.7669 0.0000
# 6 3.1113 -3.1113 0.0000 0.0000 0.0000 22.7587
#
#
#
# Elastic Compliance Matrix: (Units=1/GPa)
#
#
# Indices 1 2 3 4 5 6 
#
# 1 0.009978 -0.002011 -0.004941 0.000000 0.000000 -0.001639
# 2 -0.002011 0.009978 -0.004941 0.000000 0.000000 0.001639
# 3 -0.004941 -0.004941 0.033996 0.000000 0.000000 0.000000
# 4 0.000000 0.000000 0.000000 0.059641 0.000000 0.000000
# 5 0.000000 0.000000 0.000000 0.000000 0.059641 0.000000
# 6 -0.001639 0.001639 0.000000 0.000000 0.000000 0.044387
#
#
# Mechanical properties :
#
#
# Convention : Reuss Voigt Hill
#
# Bulk Modulus (GPa) = 33.15109 47.90515 40.52812
# Shear Modulus (GPa) = 19.88354 24.21328 22.04841
#
# Velocity S-wave (km/s) = 2.99986 3.31041 3.15895
# Velocity P-wave (km/s) = 5.19643 6.02440 5.62567
#
# Compressibility (1/GPa) = 0.03016492
#
# Stress axis : x y z
#
# Youngs Moduli (GPa) = 100.21794 100.21794 29.41552
#
# Poissons Ratio (x) = 0.20152 0.14535
# Poissons Ratio (y) = 0.20152 0.14535
# Poissons Ratio (z) = 0.49522 0.49522
#
# Static dielectric constant tensor:
#      x y z
#    x 4.235420 0.000000 0.000000 
#    y 0.000000 4.235420 0.000000 
#    z 0.000000 0.000000 3.513900 
# 
# 
# High freq. dielectric constant tensor:
#      x y z
#    x 1.874570 0.000000 0.000000 
#    y 0.000000 1.874570 0.000000 
#    z 0.000000 0.000000 1.822720 
# 
# From -- ./inp_files/1857.got.cif
#   From: 2010.03.12/outbox.cif.g09.slc.cpg/sg85_cif.got.tgz:1857.got - 2010.04.08 20:10:46.
