data_PCOD8303672
_publ_section_title
;
Structure prediction by ZEFSAII (Michael W. Deem and Ramdas Pophale) SiO2 
 PCOD8303672
Probable space group: P 42/N
;
_chemical_formula_sum "Si O2"
_cell_formula_units_Z 32
_cell_length_a 9.073174
_cell_length_b 9.073174
_cell_length_c 18.310084
_cell_angle_alpha 90.000000
_cell_angle_beta 90.000000
_cell_angle_gamma 90.000000
_cell_volume 1507.331642
_symmetry_space_group_name_H-M "P 42/N"
_symmetry_group_IT_number 86
_space_group.IT_coordinate_system_code '2'
_symmetry_cell_setting 'tetragonal'
loop_
_space_group_symop_operation_xyz
x,y,z
-y,1/2+x,1/2+z
1/2-x,1/2-y,z
1/2+y,-x,1/2+z
-x,-y,-z
y,1/2-x,1/2-z
1/2+x,1/2+y,-z
1/2-y,x,1/2-z
loop_
_atom_site_type_symbol
_atom_site_label
_atom_site_fract_x
_atom_site_fract_y
_atom_site_fract_z
Si Si1 0.820960 0.902195 0.935869
Si Si2 0.542064 0.687614 0.718019
Si Si3 0.317996 0.467456 0.774308
Si Si4 0.335657 0.598205 0.925401
O O1 0.750000 0.750000 0.962158
O O2 0.739970 0.965843 0.864989
O O3 0.990879 0.873937 0.917275
O O4 0.796570 0.020596 0.998921
O O5 0.570922 0.824071 0.772971
O O6 0.387092 0.614121 0.738769
O O7 0.432070 0.331744 0.768611
O O8 0.282725 0.493581 0.859335
O O9 0.250000 0.750000 0.921907
#
# Coordination Sequence:
#
# PCOD8303672 Si02
#       4
#     8   8   8   8
#     4  11  24  44  69 101 136 176 230 279 340 413
#     4  11  21  42  71 101 128 180 229 280 331 407
#     4  11  27  44  65 101 138 176 227 281 344 406
#     4  11  27  45  67 101 137 181 225 282 344 408
#
# _framework density 21.229565999999998
#
# number of rings (size 3 to 8) (size 9 to 14) (size 15 to 20)
#    0.000    1.000    5.000    0.000   10.500    5.000 
#    0.000    0.000    0.000    0.000    0.000    0.000 
#    0.000    0.000    0.000    0.000    0.000    0.000 
#
# Total GULP energy -397005.325572 kJ/mol
# GULP energy per Si atom -12406.416424 kJ/mol
# Density = 2.118125 g / cm^3
# Si number density = 21.229566 Si / 1000 Ang^3
#
#
#
# Elastic Constant Matrix: (Units=GPa)
#
#
# Indices 1 2 3 4 5 6 
#
# 1 82.7441 42.9417 69.8875 0.0000 0.0000 8.2601
# 2 42.9417 82.7441 69.8875 0.0000 0.0000 -8.2601
# 3 69.8875 69.8875 174.9446 0.0000 0.0000 0.0000
# 4 0.0000 0.0000 0.0000 26.6923 0.0000 0.0000
# 5 0.0000 0.0000 0.0000 0.0000 26.6923 0.0000
# 6 8.2601 -8.2601 0.0000 0.0000 0.0000 51.8297
#
#
#
# Elastic Compliance Matrix: (Units=1/GPa)
#
#
# Indices 1 2 3 4 5 6 
#
# 1 0.020610 -0.006293 -0.005719 0.000000 0.000000 -0.004288
# 2 -0.006293 0.020610 -0.005719 0.000000 0.000000 0.004288
# 3 -0.005719 -0.005719 0.010286 0.000000 0.000000 0.000000
# 4 0.000000 0.000000 0.000000 0.037464 0.000000 0.000000
# 5 0.000000 0.000000 0.000000 0.000000 0.037464 0.000000
# 6 -0.004288 0.004288 0.000000 0.000000 0.000000 0.020661
#
#
# Mechanical properties :
#
#
# Convention : Reuss Voigt Hill
#
# Bulk Modulus (GPa) = 62.33656 78.42959 70.38308
# Shear Modulus (GPa) = 26.60903 31.55729 29.08316
#
# Velocity S-wave (km/s) = 3.54417 3.85967 3.70528
# Velocity P-wave (km/s) = 6.79522 7.54231 7.17849
#
# Compressibility (1/GPa) = 0.01604195
#
# Stress axis : x y z
#
# Youngs Moduli (GPa) = 48.51952 48.51952 97.22275
#
# Poissons Ratio (x) = 0.30535 0.55605
# Poissons Ratio (y) = 0.30535 0.55605
# Poissons Ratio (z) = 0.27750 0.27750
#
# Static dielectric constant tensor:
#      x y z
#    x 3.952010 0.000000 0.000000 
#    y 0.000000 3.952010 0.000000 
#    z 0.000000 0.000000 3.909500 
# 
# 
# High freq. dielectric constant tensor:
#      x y z
#    x 1.836950 0.000000 0.000000 
#    y 0.000000 1.836950 0.000000 
#    z 0.000000 0.000000 1.841450 
# 
# From -- ./inp_files/3806.got.cif
#   From: 2010.03.12/outbox.cif.g09.slc.cpg/sg86_2_cif.got.tgz:3806.got - 2010.04.08 20:12:58.
