data_PCOD8303974
_publ_section_title
;
Structure prediction by ZEFSAII (Michael W. Deem and Ramdas Pophale) SiO2 
 PCOD8303974
Probable space group: I 4/M
;
_chemical_formula_sum "Si O2"
_cell_formula_units_Z 96
_cell_length_a 19.424801
_cell_length_b 19.424801
_cell_length_c 13.604692
_cell_angle_alpha 90.000000
_cell_angle_beta 90.000000
_cell_angle_gamma 90.000000
_cell_volume 5133.361756
_symmetry_space_group_name_H-M "I 4/M"
_symmetry_group_IT_number 87
_symmetry_cell_setting 'tetragonal'
loop_
_space_group_symop_operation_xyz
x,y,z
-y,x,z
-x,-y,z
y,-x,z
-x,-y,-z
y,-x,-z
x,y,-z
-y,x,-z
1/2+x,1/2+y,1/2+z
1/2-y,1/2+x,1/2+z
1/2-x,1/2-y,1/2+z
1/2+y,1/2-x,1/2+z
1/2-x,1/2-y,1/2-z
1/2+y,1/2-x,1/2-z
1/2+x,1/2+y,1/2-z
1/2-y,1/2+x,1/2-z
loop_
_atom_site_type_symbol
_atom_site_label
_atom_site_fract_x
_atom_site_fract_y
_atom_site_fract_z
Si Si1 0.994173 0.392308 0.112921
Si Si2 0.571428 0.843969 0.883555
Si Si3 0.606321 0.511660 0.617025
Si Si4 0.747876 0.559734 0.614154
Si Si5 0.798587 0.684122 0.731216
Si Si6 0.644895 0.917460 0.384485
O O1 0.923291 0.423616 0.155351
O O2 0.991710 0.310822 0.133153
O O3 0.066086 0.419515 0.157440
O O4 0.995167 0.412595 0.000000
O O5 0.627841 0.798628 0.823015
O O6 0.492499 0.821031 0.861841
O O7 0.588508 0.838885 0.000000
O O8 0.559836 0.575078 0.655773
O O9 0.606949 0.510644 0.500000
O O10 0.682136 0.521514 0.660832
O O11 0.737011 0.574245 0.500000
O O12 0.756070 0.634553 0.660398
O O13 0.750000 0.750000 0.750000
O O14 0.812331 0.643235 0.832849
O O15 0.645775 0.901001 0.500000
#
# Coordination Sequence:
#
# PCOD8303974 Si02
#       6
#    16  16  16  16  16  16
#     4   8  15  30  52  78 105 134 173 213 256 316
#     4   9  19  37  58  79 111 146 179 222 275 330
#     4   8  14  26  46  72  99 131 172 214 265 327
#     4   9  18  33  50  72 107 144 173 213 273 332
#     4  11  24  36  51  80 109 144 185 232 284 339
#     4  10  21  36  55  80 108 145 187 226 267 326
#
# _framework density 18.701195999999999
#
# number of rings (size 3 to 8) (size 9 to 14) (size 15 to 20)
#    0.000    2.833    0.000    2.500    4.667    4.667 
#    0.000    3.333    0.000    0.000    0.000    0.000 
#    0.000    0.000    0.000    5.500    0.000    0.167 
#
# Total GULP energy -594633.975109 kJ/mol
# GULP energy per Si atom -12388.207815 kJ/mol
# Density = 1.865863 g / cm^3
# Si number density = 18.701196 Si / 1000 Ang^3
#
#
#
# Elastic Constant Matrix: (Units=GPa)
#
#
# Indices 1 2 3 4 5 6 
#
# 1 92.3973 36.7445 30.2733 0.0000 0.0000 11.4002
# 2 36.7445 92.3973 30.2733 0.0000 0.0000 -11.4002
# 3 30.2733 30.2733 63.8605 0.0000 0.0000 0.0000
# 4 0.0000 0.0000 0.0000 22.4586 0.0000 0.0000
# 5 0.0000 0.0000 0.0000 0.0000 22.4586 0.0000
# 6 11.4002 -11.4002 0.0000 0.0000 0.0000 29.4140
#
#
#
# Elastic Compliance Matrix: (Units=1/GPa)
#
#
# Indices 1 2 3 4 5 6 
#
# 1 0.015658 -0.005702 -0.004720 0.000000 0.000000 -0.008279
# 2 -0.005702 0.015658 -0.004720 0.000000 0.000000 0.008279
# 3 -0.004720 -0.004720 0.020134 0.000000 0.000000 0.000000
# 4 0.000000 0.000000 0.000000 0.044526 0.000000 0.000000
# 5 0.000000 0.000000 0.000000 0.000000 0.044526 0.000000
# 6 -0.008279 0.008279 0.000000 0.000000 0.000000 0.040415
#
#
# Mechanical properties :
#
#
# Convention : Reuss Voigt Hill
#
# Bulk Modulus (GPa) = 47.24264 49.24859 48.24561
# Shear Modulus (GPa) = 22.90876 24.95716 23.93296
#
# Velocity S-wave (km/s) = 3.50378 3.65707 3.58125
# Velocity P-wave (km/s) = 6.45642 6.65010 6.55398
#
# Compressibility (1/GPa) = 0.02116732
#
# Stress axis : x y z
#
# Youngs Moduli (GPa) = 63.86411 63.86411 49.66717
#
# Poissons Ratio (x) = 0.36415 0.23442
# Poissons Ratio (y) = 0.36415 0.23442
# Poissons Ratio (z) = 0.30143 0.30143
#
# Static dielectric constant tensor:
#      x y z
#    x 1.690450 0.000000 0.000000 
#    y 0.000000 1.690450 0.000000 
#    z 0.000000 0.000000 3.340060 
# 
# 
# High freq. dielectric constant tensor:
#      x y z
#    x 1.710490 0.000000 0.000000 
#    y 0.000000 1.710490 0.000000 
#    z 0.000000 0.000000 1.712340 
# 
# From -- ./inp_files/3771.got.cif
#   From: 2010.03.12/outbox.cif.g09.slc.cpg/sg87_2_cif.got.tgz:3771.got - 2010.04.08 20:16:13.
