data_PCOD8303205
_publ_section_title
;
Structure prediction by ZEFSAII (Michael W. Deem and Ramdas Pophale) SiO2 
 PCOD8303205
Probable space group: P 42/M
;
_chemical_formula_sum "Si O2"
_cell_formula_units_Z 40
_cell_length_a 15.791576
_cell_length_b 15.791576
_cell_length_c 8.691103
_cell_angle_alpha 90.000000
_cell_angle_beta 90.000000
_cell_angle_gamma 90.000000
_cell_volume 2167.334012
_symmetry_space_group_name_H-M "P 42/M"
_symmetry_group_IT_number 84
_symmetry_cell_setting 'tetragonal'
loop_
_space_group_symop_operation_xyz
x,y,z
-y,x,1/2+z
-x,-y,z
y,-x,1/2+z
-x,-y,-z
y,-x,1/2-z
x,y,-z
-y,x,1/2-z
loop_
_atom_site_type_symbol
_atom_site_label
_atom_site_fract_x
_atom_site_fract_y
_atom_site_fract_z
Si Si1 0.655888 0.682793 0.818574
Si Si2 0.113162 0.057009 0.318868
Si Si3 0.080430 0.554349 0.180614
Si Si4 0.135766 0.722113 0.680657
Si Si5 0.488222 0.738348 0.319312
O O1 0.704217 0.767873 0.766985
O O2 0.707872 0.602402 0.754198
O O3 0.561403 0.680228 0.751923
O O4 0.648320 0.679971 0.000000
O O5 0.108506 0.041381 0.500000
O O6 0.197548 0.106424 0.276425
O O7 0.033334 0.112947 0.266109
O O8 0.077958 0.641934 0.274268
O O9 0.163612 0.500811 0.226058
O O10 0.000000 0.500000 0.232582
O O11 0.078059 0.575446 0.000000
O O12 0.127804 0.740314 0.500000
O O13 0.491881 0.725833 0.500000
#
# Coordination Sequence:
#
# PCOD8303205 Si02
#       5
#     8   8   8   8   8
#     4   9  19  34  51  73 103 137 171 212 261 310
#     4  11  22  38  58  81 109 140 176 216 260 310
#     4   9  18  33  53  76 102 136 177 219 264 315
#     4  10  20  35  54  78 108 140 175 216 264 316
#     4   9  18  33  51  72  99 131 170 213 257 308
#
# _framework density 18.455853000000001
#
# number of rings (size 3 to 8) (size 9 to 14) (size 15 to 20)
#    0.000    2.400    0.000    3.000    0.000    4.000 
#    0.000    6.000    0.000    0.000    0.000    0.000 
#    0.000    0.000    0.000    0.000    0.000    0.000 
#
# Total GULP energy -496098.713384 kJ/mol
# GULP energy per Si atom -12402.467835 kJ/mol
# Density = 1.841385 g / cm^3
# Si number density = 18.455853 Si / 1000 Ang^3
#
#
#
# Elastic Constant Matrix: (Units=GPa)
#
#
# Indices 1 2 3 4 5 6 
#
# 1 121.5231 73.9606 23.5035 0.0000 0.0000 13.6540
# 2 73.9606 121.5231 23.5035 0.0000 0.0000 -13.6540
# 3 23.5035 23.5035 41.8942 0.0000 0.0000 0.0000
# 4 0.0000 0.0000 0.0000 30.4063 0.0000 0.0000
# 5 0.0000 0.0000 0.0000 0.0000 30.4063 0.0000
# 6 13.6540 -13.6540 0.0000 0.0000 0.0000 32.7852
#
#
#
# Elastic Compliance Matrix: (Units=1/GPa)
#
#
# Indices 1 2 3 4 5 6 
#
# 1 0.016773 -0.010860 -0.003317 0.000000 0.000000 -0.011508
# 2 -0.010860 0.016773 -0.003317 0.000000 0.000000 0.011508
# 3 -0.003317 -0.003317 0.027592 0.000000 0.000000 0.000000
# 4 0.000000 0.000000 0.000000 0.032888 0.000000 0.000000
# 5 0.000000 0.000000 0.000000 0.000000 0.032888 0.000000
# 6 -0.011508 0.011508 0.000000 0.000000 0.000000 0.040087
#
#
# Mechanical properties :
#
#
# Convention : Reuss Voigt Hill
#
# Bulk Modulus (GPa) = 38.24288 58.54172 48.39230
# Shear Modulus (GPa) = 23.72982 29.65109 26.69045
#
# Velocity S-wave (km/s) = 3.58964 4.01258 3.80699
# Velocity P-wave (km/s) = 6.16011 7.29771 6.75291
#
# Compressibility (1/GPa) = 0.02614866
#
# Stress axis : x y z
#
# Youngs Moduli (GPa) = 59.62050 59.62050 36.24245
#
# Poissons Ratio (x) = 0.64745 0.12023
# Poissons Ratio (y) = 0.64745 0.12023
# Poissons Ratio (z) = 0.19779 0.19779
#
# Static dielectric constant tensor:
#      x y z
#    x 3.546860 0.000000 0.000000 
#    y 0.000000 3.546860 0.000000 
#    z 0.000000 0.000000 3.331240 
# 
# 
# High freq. dielectric constant tensor:
#      x y z
#    x 1.718000 0.000000 0.000000 
#    y 0.000000 1.718000 0.000000 
#    z 0.000000 0.000000 1.714250 
# 
# From -- ./inp_files/734.got.cif
#   From: 2010.03.12/outbox.cif.g09.slc.cpg/sg84_1_cif.got.tgz:734.got - 2010.04.08 20:07:29.
