data_PCOD8303941
_publ_section_title
;
Structure prediction by ZEFSAII (Michael W. Deem and Ramdas Pophale) SiO2 
 PCOD8303941
Probable space group: I 4/M
;
_chemical_formula_sum "Si O2"
_cell_formula_units_Z 80
_cell_length_a 16.459407
_cell_length_b 16.459407
_cell_length_c 14.299876
_cell_angle_alpha 90.000000
_cell_angle_beta 90.000000
_cell_angle_gamma 90.000000
_cell_volume 3874.009134
_symmetry_space_group_name_H-M "I 4/M"
_symmetry_group_IT_number 87
_symmetry_cell_setting 'tetragonal'
loop_
_space_group_symop_operation_xyz
x,y,z
-y,x,z
-x,-y,z
y,-x,z
-x,-y,-z
y,-x,-z
x,y,-z
-y,x,-z
1/2+x,1/2+y,1/2+z
1/2-y,1/2+x,1/2+z
1/2-x,1/2-y,1/2+z
1/2+y,1/2-x,1/2+z
1/2-x,1/2-y,1/2-z
1/2+y,1/2-x,1/2-z
1/2+x,1/2+y,1/2-z
1/2-y,1/2+x,1/2-z
loop_
_atom_site_type_symbol
_atom_site_label
_atom_site_fract_x
_atom_site_fract_y
_atom_site_fract_z
Si Si1 0.810769 0.394822 0.808478
Si Si2 0.659516 0.858566 0.500000
Si Si3 0.808378 0.518908 0.500000
Si Si4 0.591329 0.597259 0.000000
Si Si5 0.553101 0.222128 0.701582
Si Si6 0.295375 0.337950 0.153704
Si Si7 0.954419 0.636120 0.500000
O O1 0.784512 0.460281 0.732468
O O2 0.900320 0.363313 0.780466
O O3 0.751763 0.315883 0.806645
O O4 0.808702 0.433815 0.910918
O O5 0.578858 0.804060 0.500000
O O6 0.712524 0.839379 0.592656
O O7 0.623247 0.949400 0.500000
O O8 0.760326 0.553477 0.590241
O O9 0.901986 0.552574 0.500000
O O10 0.496756 0.614461 0.000000
O O11 0.627783 0.636237 0.907211
O O12 0.599600 0.291589 0.759361
#
# Coordination Sequence:
#
# PCOD8303941 Si02
#       7
#    16   8   8   8  16  16   8
#     4  11  23  40  62  93 125 166 207 261 314 380
#     4  11  20  38  63  96 121 160 197 256 328 374
#     4  10  24  38  57  86 125 167 213 251 287 375
#     4  10  21  36  61  95 123 154 200 263 333 378
#     4  11  23  40  59  87 126 168 216 252 309 362
#     4  11  22  36  64  89 128 160 207 256 321 377
#     4  10  20  38  61  90 127 156 199 256 324 374
#
# _framework density 20.650441000000001
#
# number of rings (size 3 to 8) (size 9 to 14) (size 15 to 20)
#    0.000    1.300    2.000    4.500    2.800    0.400 
#    0.000    1.000    0.000    0.000    0.000    0.000 
#    0.000    6.400    0.000    0.000    0.000    0.000 
#
# Total GULP energy -495992.654218 kJ/mol
# GULP energy per Si atom -12399.816355 kJ/mol
# Density = 2.060344 g / cm^3
# Si number density = 20.650441 Si / 1000 Ang^3
#
#
#
# Elastic Constant Matrix: (Units=GPa)
#
#
# Indices 1 2 3 4 5 6 
#
# 1 60.5920 42.7206 31.0180 0.0000 0.0000 -2.1603
# 2 42.7206 60.5920 31.0180 0.0000 0.0000 2.1603
# 3 31.0180 31.0180 126.2874 0.0000 0.0000 0.0000
# 4 0.0000 0.0000 0.0000 9.0502 0.0000 0.0000
# 5 0.0000 0.0000 0.0000 0.0000 9.0502 0.0000
# 6 -2.1603 2.1603 0.0000 0.0000 0.0000 28.5652
#
#
#
# Elastic Compliance Matrix: (Units=1/GPa)
#
#
# Indices 1 2 3 4 5 6 
#
# 1 0.034176 -0.022822 -0.002789 0.000000 0.000000 0.004310
# 2 -0.022822 0.034176 -0.002789 0.000000 0.000000 -0.004310
# 3 -0.002789 -0.002789 0.009288 0.000000 0.000000 0.000000
# 4 0.000000 0.000000 0.000000 0.110495 0.000000 0.000000
# 5 0.000000 0.000000 0.000000 0.000000 0.110495 0.000000
# 6 0.004310 -0.004310 0.000000 0.000000 0.000000 0.035660
#
#
# Mechanical properties :
#
#
# Convention : Reuss Voigt Hill
#
# Bulk Modulus (GPa) = 47.98147 50.77607 49.37877
# Shear Modulus (GPa) = 12.56172 18.84743 15.70457
#
# Velocity S-wave (km/s) = 2.46905 3.02435 2.76070
# Velocity P-wave (km/s) = 5.60480 6.06938 5.84171
#
# Compressibility (1/GPa) = 0.02084138
#
# Stress axis : x y z
#
# Youngs Moduli (GPa) = 29.26059 29.26059 107.66197
#
# Poissons Ratio (x) = 0.66778 0.30024
# Poissons Ratio (y) = 0.66778 0.30024
# Poissons Ratio (z) = 0.08160 0.08160
#
# Static dielectric constant tensor:
#      x y z
#    x 3.605010 0.000000 0.000000 
#    y 0.000000 3.605010 0.000000 
#    z 0.000000 0.000000 3.992240 
# 
# 
# High freq. dielectric constant tensor:
#      x y z
#    x 1.794850 0.000000 0.000000 
#    y 0.000000 1.794850 0.000000 
#    z 0.000000 0.000000 1.824650 
# 
# From -- ./inp_files/3594.got.cif
#   From: 2010.03.12/outbox.cif.g09.slc.cpg/sg87_2_cif.got.tgz:3594.got - 2010.04.08 20:16:13.
