data_PCOD8303160
_publ_section_title
;
Structure prediction by ZEFSAII (Michael W. Deem and Ramdas Pophale) SiO2 
 PCOD8303160
Probable space group: P 42/M
;
_chemical_formula_sum "Si O2"
_cell_formula_units_Z 40
_cell_length_a 15.617469
_cell_length_b 15.617469
_cell_length_c 8.718827
_cell_angle_alpha 90.000000
_cell_angle_beta 90.000000
_cell_angle_gamma 90.000000
_cell_volume 2126.568446
_symmetry_space_group_name_H-M "P 42/M"
_symmetry_group_IT_number 84
_symmetry_cell_setting 'tetragonal'
loop_
_space_group_symop_operation_xyz
x,y,z
-y,x,1/2+z
-x,-y,z
y,-x,1/2+z
-x,-y,-z
y,-x,1/2-z
x,y,-z
-y,x,1/2-z
loop_
_atom_site_type_symbol
_atom_site_label
_atom_site_fract_x
_atom_site_fract_y
_atom_site_fract_z
Si Si1 0.925776 0.569462 0.328040
Si Si2 0.042659 0.881091 0.820742
Si Si3 0.535091 0.623465 0.818824
Si Si4 0.553989 0.803457 0.679511
Si Si5 0.947892 0.313156 0.178441
O O1 0.891931 0.584933 0.500000
O O2 0.846853 0.536562 0.225016
O O3 0.000000 0.500000 0.322943
O O4 0.965331 0.657336 0.263592
O O5 0.070337 0.784957 0.779101
O O6 0.943987 0.895787 0.773747
O O7 0.052997 0.900187 0.000000
O O8 0.605570 0.555378 0.763107
O O9 0.568009 0.716988 0.773705
O O10 0.523356 0.615739 0.000000
O O11 0.553988 0.783234 0.500000
O O12 0.632002 0.865357 0.728816
O O13 0.965815 0.326411 0.000000
#
# Coordination Sequence:
#
# PCOD8303160 Si02
#       5
#     8   8   8   8   8
#     4   9  17  30  51  79 109 142 178 219 269 323
#     4  10  20  36  56  78 105 143 183 224 271 325
#     4  11  22  39  60  82 109 146 185 225 273 327
#     4  10  19  35  57  81 111 146 182 226 273 324
#     4   9  19  35  55  79 110 145 182 224 274 327
#
# _framework density 18.809646999999998
#
# number of rings (size 3 to 8) (size 9 to 14) (size 15 to 20)
#    0.000    2.200    0.000    4.800    0.000    4.800 
#    3.600    0.000    0.000    0.000    0.000    0.000 
#    0.000    0.000    0.000    0.000    0.000    0.000 
#
# Total GULP energy -496070.968405 kJ/mol
# GULP energy per Si atom -12401.774210 kJ/mol
# Density = 1.876684 g / cm^3
# Si number density = 18.809647 Si / 1000 Ang^3
#
#
#
# Elastic Constant Matrix: (Units=GPa)
#
#
# Indices 1 2 3 4 5 6 
#
# 1 93.7307 38.8677 26.8369 0.0000 0.0000 1.9426
# 2 38.8677 93.7307 26.8369 0.0000 0.0000 -1.9426
# 3 26.8369 26.8369 74.2816 0.0000 0.0000 0.0000
# 4 0.0000 0.0000 0.0000 29.5634 0.0000 0.0000
# 5 0.0000 0.0000 0.0000 0.0000 29.5634 0.0000
# 6 1.9426 -1.9426 0.0000 0.0000 0.0000 14.5770
#
#
#
# Elastic Compliance Matrix: (Units=1/GPa)
#
#
# Indices 1 2 3 4 5 6 
#
# 1 0.013617 -0.004784 -0.003191 0.000000 0.000000 -0.002452
# 2 -0.004784 0.013617 -0.003191 0.000000 0.000000 0.002452
# 3 -0.003191 -0.003191 0.015768 0.000000 0.000000 0.000000
# 4 0.000000 0.000000 0.000000 0.033826 0.000000 0.000000
# 5 0.000000 0.000000 0.000000 0.000000 0.033826 0.000000
# 6 -0.002452 0.002452 0.000000 0.000000 0.000000 0.069255
#
#
# Mechanical properties :
#
#
# Convention : Reuss Voigt Hill
#
# Bulk Modulus (GPa) = 48.38036 49.64734 49.01385
# Shear Modulus (GPa) = 23.90843 26.02087 24.96465
#
# Velocity S-wave (km/s) = 3.56908 3.72342 3.64706
# Velocity P-wave (km/s) = 6.53921 6.70351 6.62187
#
# Compressibility (1/GPa) = 0.02066954
#
# Stress axis : x y z
#
# Youngs Moduli (GPa) = 73.43692 73.43692 63.41843
#
# Poissons Ratio (x) = 0.35130 0.20239
# Poissons Ratio (y) = 0.35130 0.20239
# Poissons Ratio (z) = 0.23437 0.23437
#
# Static dielectric constant tensor:
#      x y z
#    x 3.396750 0.000000 0.000000 
#    y 0.000000 3.396750 0.000000 
#    z 0.000000 0.000000 3.534500 
# 
# 
# High freq. dielectric constant tensor:
#      x y z
#    x 1.720080 0.000000 0.000000 
#    y 0.000000 1.720080 0.000000 
#    z 0.000000 0.000000 1.742700 
# 
# From -- ./inp_files/732.got.cif
#   From: 2010.03.12/outbox.cif.g09.slc.cpg/sg84_1_cif.got.tgz:732.got - 2010.04.08 20:07:29.
