data_PCOD8303684
_publ_section_title
;
Structure prediction by ZEFSAII (Michael W. Deem and Ramdas Pophale) SiO2 
 PCOD8303684
Probable space group: P 42/N
;
_chemical_formula_sum "Si O2"
_cell_formula_units_Z 38
_cell_length_a 10.492066
_cell_length_b 10.492066
_cell_length_c 16.982158
_cell_angle_alpha 90.000000
_cell_angle_beta 90.000000
_cell_angle_gamma 90.000000
_cell_volume 1869.454523
_symmetry_space_group_name_H-M "P 42/N"
_symmetry_group_IT_number 86
_space_group.IT_coordinate_system_code '2'
_symmetry_cell_setting 'tetragonal'
loop_
_space_group_symop_operation_xyz
x,y,z
-y,1/2+x,1/2+z
1/2-x,1/2-y,z
1/2+y,-x,1/2+z
-x,-y,-z
y,1/2-x,1/2-z
1/2+x,1/2+y,-z
1/2-y,x,1/2-z
loop_
_atom_site_type_symbol
_atom_site_label
_atom_site_fract_x
_atom_site_fract_y
_atom_site_fract_z
Si Si1 0.108512 0.577964 0.956326
Si Si2 0.018533 0.732629 0.818507
Si Si3 0.750000 0.250000 0.424492
Si Si4 0.048756 0.855788 0.195327
Si Si5 0.250000 0.250000 0.250000
Si Si6 0.317264 0.519154 0.831316
O O1 0.024928 0.676003 0.905769
O O2 0.208721 0.505163 0.898698
O O3 0.196852 0.637998 0.022321
O O4 0.000000 0.500000 0.000000
O O5 0.050914 0.627683 0.752484
O O6 0.127103 0.839523 0.819066
O O7 0.874116 0.780096 0.803575
O O8 0.802934 0.363356 0.372602
O O9 0.985963 0.743209 0.246607
O O10 0.933871 0.925998 0.150235
#
# Coordination Sequence:
#
# PCOD8303684 Si02
#       6
#     8   8   4   8   2   8
#     4  11  26  45  67  93 144 178 222 284 351 404
#     4  11  22  45  66 101 132 176 225 288 340 404
#     4  12  24  44  66  98 128 186 218 270 354 406
#     4  11  24  39  72  94 132 172 232 268 340 400
#     4  12  24  36  80 100 124 172 250 280 328 412
#     4  11  23  46  66  98 134 179 225 288 334 413
#
# _framework density 20.326786999999999
#
# number of rings (size 3 to 8) (size 9 to 14) (size 15 to 20)
#    0.000    0.842    6.316    1.263    8.842    1.263 
#    3.789    0.000    0.000    0.000    0.000    0.000 
#    0.000    0.000    0.000    0.000    0.000    0.000 
#
# Total GULP energy -471046.334375 kJ/mol
# GULP energy per Si atom -12395.956168 kJ/mol
# Density = 2.028052 g / cm^3
# Si number density = 20.326787 Si / 1000 Ang^3
#
#
#
# Elastic Constant Matrix: (Units=GPa)
#
#
# Indices 1 2 3 4 5 6 
#
# 1 103.0437 39.1790 44.1227 0.0000 0.0000 -2.9966
# 2 39.1790 103.0437 44.1227 0.0000 0.0000 2.9966
# 3 44.1227 44.1227 124.6885 0.0000 0.0000 0.0000
# 4 0.0000 0.0000 0.0000 29.8513 0.0000 0.0000
# 5 0.0000 0.0000 0.0000 0.0000 29.8513 0.0000
# 6 -2.9966 2.9966 0.0000 0.0000 0.0000 45.9281
#
#
#
# Elastic Compliance Matrix: (Units=1/GPa)
#
#
# Indices 1 2 3 4 5 6 
#
# 1 0.012382 -0.003373 -0.003188 0.000000 0.000000 0.001028
# 2 -0.003373 0.012382 -0.003188 0.000000 0.000000 -0.001028
# 3 -0.003188 -0.003188 0.010276 0.000000 0.000000 0.000000
# 4 0.000000 0.000000 0.000000 0.033499 0.000000 0.000000
# 5 0.000000 0.000000 0.000000 0.000000 0.033499 0.000000
# 6 0.001028 -0.001028 0.000000 0.000000 0.000000 0.021907
#
#
# Mechanical properties :
#
#
# Convention : Reuss Voigt Hill
#
# Bulk Modulus (GPa) = 64.33910 65.06942 64.70426
# Shear Modulus (GPa) = 33.64180 34.68291 34.16235
#
# Velocity S-wave (km/s) = 4.07264 4.13518 4.10403
# Velocity P-wave (km/s) = 7.33732 7.40816 7.37282
#
# Compressibility (1/GPa) = 0.01554265
#
# Stress axis : x y z
#
# Youngs Moduli (GPa) = 80.76274 80.76274 97.31154
#
# Poissons Ratio (x) = 0.27238 0.31024
# Poissons Ratio (y) = 0.27238 0.31024
# Poissons Ratio (z) = 0.25748 0.25748
#
# Static dielectric constant tensor:
#      x y z
#    x 3.833840 0.000000 0.000000 
#    y 0.000000 3.833840 0.000000 
#    z 0.000000 0.000000 3.585790 
# 
# 
# High freq. dielectric constant tensor:
#      x y z
#    x 1.798730 0.000000 0.000000 
#    y 0.000000 1.798730 0.000000 
#    z 0.000000 0.000000 1.795530 
# 
# From -- ./inp_files/2960.got.cif
#   From: 2010.03.12/outbox.cif.g09.slc.cpg/sg86_2_cif.got.tgz:2960.got - 2010.04.08 20:12:58.
