data_PCOD8303085
_publ_section_title
;
Structure prediction by ZEFSAII (Michael W. Deem and Ramdas Pophale) SiO2 
 PCOD8303085
Probable space group: P 42/M
;
_chemical_formula_sum "Si O2"
_cell_formula_units_Z 40
_cell_length_a 10.266883
_cell_length_b 10.266883
_cell_length_c 17.659120
_cell_angle_alpha 90.000000
_cell_angle_beta 90.000000
_cell_angle_gamma 90.000000
_cell_volume 1861.428176
_symmetry_space_group_name_H-M "P 42/M"
_symmetry_group_IT_number 84
_symmetry_cell_setting 'tetragonal'
loop_
_space_group_symop_operation_xyz
x,y,z
-y,x,1/2+z
-x,-y,z
y,-x,1/2+z
-x,-y,-z
y,-x,1/2-z
x,y,-z
-y,x,1/2-z
loop_
_atom_site_type_symbol
_atom_site_label
_atom_site_fract_x
_atom_site_fract_y
_atom_site_fract_z
Si Si1 0.451611 0.357482 0.587216
Si Si2 0.100206 0.816557 0.267079
Si Si3 0.856265 0.464036 0.205297
Si Si4 0.822318 0.568109 0.629591
Si Si5 0.695509 0.908511 0.083517
O O1 0.500000 0.500000 0.613420
O O2 0.489124 0.328776 0.500000
O O3 0.511279 0.245949 0.641307
O O4 0.297560 0.348149 0.600027
O O5 0.151331 0.691115 0.221314
O O6 0.135154 0.804018 0.356196
O O7 0.943611 0.827388 0.262677
O O8 0.823202 0.546743 0.280148
O O9 0.000000 0.500000 0.176127
O O10 0.812776 0.428557 0.587420
O O11 0.949428 0.645273 0.605522
O O12 0.757774 0.904834 0.000000
#
# Coordination Sequence:
#
# PCOD8303085 Si02
#       5
#     8   8   8   8   8
#     4  11  26  42  61  94 133 171 219 275 328 394
#     4  10  21  38  57  85 123 162 204 262 321 400
#     4  11  23  39  64  94 125 172 218 267 341 402
#     4  10  19  36  60  90 116 156 209 265 320 383
#     4  10  18  34  61  87 114 149 203 270 323 371
#
# _framework density 21.488876000000001
#
# number of rings (size 3 to 8) (size 9 to 14) (size 15 to 20)
#    0.000    1.600    4.000    3.600    2.800    2.000 
#    0.000    3.000    0.000    0.000    0.000    0.000 
#    0.000    0.000    0.000    0.000    0.000    0.000 
#
# Total GULP energy -495998.539713 kJ/mol
# GULP energy per Si atom -12399.963493 kJ/mol
# Density = 2.143997 g / cm^3
# Si number density = 21.488876 Si / 1000 Ang^3
#
#
#
# Elastic Constant Matrix: (Units=GPa)
#
#
# Indices 1 2 3 4 5 6 
#
# 1 50.2680 3.1518 39.3979 0.0000 0.0000 0.3855
# 2 3.1518 50.2680 39.3979 0.0000 0.0000 -0.3855
# 3 39.3979 39.3979 160.6688 0.0000 0.0000 0.0000
# 4 0.0000 0.0000 0.0000 27.2646 0.0000 0.0000
# 5 0.0000 0.0000 0.0000 0.0000 27.2646 0.0000
# 6 0.3855 -0.3855 0.0000 0.0000 0.0000 21.4353
#
#
#
# Elastic Compliance Matrix: (Units=1/GPa)
#
#
# Indices 1 2 3 4 5 6 
#
# 1 0.025279 0.004048 -0.007191 0.000000 0.000000 -0.000382
# 2 0.004048 0.025279 -0.007191 0.000000 0.000000 0.000382
# 3 -0.007191 -0.007191 0.009751 0.000000 0.000000 0.000000
# 4 0.000000 0.000000 0.000000 0.036678 0.000000 0.000000
# 5 0.000000 0.000000 0.000000 0.000000 0.036678 0.000000
# 6 -0.000382 0.000382 0.000000 0.000000 0.000000 0.046666
#
#
# Mechanical properties :
#
#
# Convention : Reuss Voigt Hill
#
# Bulk Modulus (GPa) = 25.22725 47.23331 36.23028
# Shear Modulus (GPa) = 23.34145 27.14338 25.24241
#
# Velocity S-wave (km/s) = 3.29935 3.55792 3.43107
# Velocity P-wave (km/s) = 5.12635 6.23750 5.70902
#
# Compressibility (1/GPa) = 0.03963968
#
# Stress axis : x y z
#
# Youngs Moduli (GPa) = 39.55887 39.55887 102.55566
#
# Poissons Ratio (x) = -0.16015 0.73752
# Poissons Ratio (y) = -0.16015 0.73752
# Poissons Ratio (z) = 0.28448 0.28448
#
# Static dielectric constant tensor:
#      x y z
#    x 3.804380 0.000000 0.000000 
#    y 0.000000 3.804380 0.000000 
#    z 0.000000 0.000000 3.934610 
# 
# 
# High freq. dielectric constant tensor:
#      x y z
#    x 1.836180 0.000000 0.000000 
#    y 0.000000 1.836180 0.000000 
#    z 0.000000 0.000000 1.840280 
# 
# From -- ./inp_files/2928.got.cif
#   From: 2010.03.12/outbox.cif.g09.slc.cpg/sg84_2_cif.got.tgz:2928.got - 2010.04.08 20:07:29.
