data_PCOD8303174
_publ_section_title
;
Structure prediction by ZEFSAII (Michael W. Deem and Ramdas Pophale) SiO2 
 PCOD8303174
Probable space group: P 42/M
;
_chemical_formula_sum "Si O2"
_cell_formula_units_Z 48
_cell_length_a 9.469114
_cell_length_b 9.469114
_cell_length_c 27.972510
_cell_angle_alpha 90.000000
_cell_angle_beta 90.000000
_cell_angle_gamma 90.000000
_cell_volume 2508.130492
_symmetry_space_group_name_H-M "P 42/M"
_symmetry_group_IT_number 84
_symmetry_cell_setting 'tetragonal'
loop_
_space_group_symop_operation_xyz
x,y,z
-y,x,1/2+z
-x,-y,z
y,-x,1/2+z
-x,-y,-z
y,-x,1/2-z
x,y,-z
-y,x,1/2-z
loop_
_atom_site_type_symbol
_atom_site_label
_atom_site_fract_x
_atom_site_fract_y
_atom_site_fract_z
Si Si1 0.023743 0.155331 0.412604
Si Si2 0.855704 0.293695 0.849726
Si Si3 0.172098 0.153390 0.750464
Si Si4 0.513420 0.331602 0.600854
Si Si5 0.924716 0.648731 0.500000
Si Si6 0.585070 0.644762 0.500000
Si Si7 0.176839 0.249916 0.147955
O O1 0.172176 0.178639 0.387235
O O2 0.016777 0.270011 0.454055
O O3 0.908087 0.171585 0.371529
O O4 0.000000 0.000000 0.435566
O O5 0.805936 0.259782 0.796139
O O6 0.757021 0.425299 0.861100
O O7 0.023248 0.325687 0.853279
O O8 0.226896 0.240685 0.796726
O O9 0.011217 0.190152 0.738796
O O10 0.500000 0.500000 0.606199
O O11 0.466738 0.276478 0.548091
O O12 0.673132 0.289229 0.613542
O O13 0.754762 0.629363 0.500000
O O14 0.000000 0.500000 0.500000
O O15 0.500000 0.500000 0.500000
#
# Coordination Sequence:
#
# PCOD8303174 Si02
#       7
#     8   8   8   8   4   4   8
#     4  10  21  38  63  95 124 149 196 260 304 347
#     4  10  19  39  63  88 122 157 197 250 298 357
#     4   9  16  33  63  92 117 154 196 244 305 356
#     4  11  24  42  61  81 124 165 202 244 294 362
#     4  12  25  39  67  90 120 158 204 250 307 363
#     4  10  24  43  60  81 119 165 200 237 301 358
#     4  10  21  37  63  92 120 157 200 244 302 359
#
# _framework density 19.137758000000002
#
# number of rings (size 3 to 8) (size 9 to 14) (size 15 to 20)
#    0.000    1.833    3.333    0.750    4.667    0.000 
#    3.000    2.500    0.000    0.000    0.000    0.000 
#    0.000    0.000    0.000    0.000    0.000    0.000 
#
# Total GULP energy -594954.482545 kJ/mol
# GULP energy per Si atom -12394.885053 kJ/mol
# Density = 1.909420 g / cm^3
# Si number density = 19.137758 Si / 1000 Ang^3
#
#
#
# Elastic Constant Matrix: (Units=GPa)
#
#
# Indices 1 2 3 4 5 6 
#
# 1 59.0378 16.4718 33.1154 0.0000 0.0000 1.4322
# 2 16.4718 59.0378 33.1154 0.0000 0.0000 -1.4322
# 3 33.1154 33.1154 135.4889 0.0000 0.0000 0.0000
# 4 0.0000 0.0000 0.0000 25.4970 0.0000 0.0000
# 5 0.0000 0.0000 0.0000 0.0000 25.4970 0.0000
# 6 1.4322 -1.4322 0.0000 0.0000 0.0000 35.0537
#
#
#
# Elastic Compliance Matrix: (Units=1/GPa)
#
#
# Indices 1 2 3 4 5 6 
#
# 1 0.020207 -0.003350 -0.004120 0.000000 0.000000 -0.000962
# 2 -0.003350 0.020207 -0.004120 0.000000 0.000000 0.000962
# 3 -0.004120 -0.004120 0.009395 0.000000 0.000000 0.000000
# 4 0.000000 0.000000 0.000000 0.039220 0.000000 0.000000
# 5 0.000000 0.000000 0.000000 0.000000 0.039220 0.000000
# 6 -0.000962 0.000962 0.000000 0.000000 0.000000 0.028606
#
#
# Mechanical properties :
#
#
# Convention : Reuss Voigt Hill
#
# Bulk Modulus (GPa) = 37.55364 46.55217 42.05290
# Shear Modulus (GPa) = 26.46711 28.60034 27.53372
#
# Velocity S-wave (km/s) = 3.72288 3.87000 3.79715
# Velocity P-wave (km/s) = 6.17618 6.65934 6.42230
#
# Compressibility (1/GPa) = 0.02662858
#
# Stress axis : x y z
#
# Youngs Moduli (GPa) = 49.48670 49.48670 106.44276
#
# Poissons Ratio (x) = 0.16579 0.43856
# Poissons Ratio (y) = 0.16579 0.43856
# Poissons Ratio (z) = 0.20389 0.20389
#
# Static dielectric constant tensor:
#      x y z
#    x 3.395220 0.000000 0.000000 
#    y 0.000000 3.395220 0.000000 
#    z 0.000000 0.000000 5.320700 
# 
# 
# High freq. dielectric constant tensor:
#      x y z
#    x 1.733010 0.000000 0.000000 
#    y 0.000000 1.733010 0.000000 
#    z 0.000000 0.000000 1.760370 
# 
# From -- ./inp_files/5832.got.cif
#   From: 2010.03.12/outbox.cif.g09.slc.cpg/sg84_3_cif.got.tgz:5832.got - 2010.04.08 20:07:29.
