data_PCOD8303293
_publ_section_title
;
Structure prediction by ZEFSAII (Michael W. Deem and Ramdas Pophale) SiO2 
 PCOD8303293
Probable space group: P 42/M
;
_chemical_formula_sum "Si O2"
_cell_formula_units_Z 56
_cell_length_a 10.835537
_cell_length_b 10.835537
_cell_length_c 21.496702
_cell_angle_alpha 90.000000
_cell_angle_beta 90.000000
_cell_angle_gamma 90.000000
_cell_volume 2523.903320
_symmetry_space_group_name_H-M "P 42/M"
_symmetry_group_IT_number 84
_symmetry_cell_setting 'tetragonal'
loop_
_space_group_symop_operation_xyz
x,y,z
-y,x,1/2+z
-x,-y,z
y,-x,1/2+z
-x,-y,-z
y,-x,1/2-z
x,y,-z
-y,x,1/2-z
loop_
_atom_site_type_symbol
_atom_site_label
_atom_site_fract_x
_atom_site_fract_y
_atom_site_fract_z
Si Si1 0.418823 0.885647 0.070923
Si Si2 0.563471 0.627850 0.928740
Si Si3 0.894979 0.169885 0.744702
Si Si4 0.236425 0.745319 0.860450
Si Si5 0.671331 0.586799 0.261798
Si Si6 0.301503 0.793700 0.653498
Si Si7 0.643639 0.980863 0.430618
O O1 0.481017 0.750993 0.076323
O O2 0.289812 0.872583 0.109211
O O3 0.500000 0.000000 0.098351
O O4 0.386413 0.918636 0.000000
O O5 0.500000 0.500000 0.903783
O O6 0.690578 0.653360 0.893538
O O7 0.600653 0.604741 0.000000
O O8 0.861018 0.247908 0.804841
O O9 0.837295 0.224990 0.680857
O O10 0.039442 0.166357 0.738456
O O11 0.356196 0.678094 0.830811
O O12 0.162614 0.669063 0.912825
O O13 0.649828 0.443168 0.274840
O O14 0.789208 0.611635 0.216404
O O15 0.298496 0.925004 0.619023
O O16 0.698091 0.003952 0.500000
O O17 0.500000 0.000000 0.431047
#
# Coordination Sequence:
#
# PCOD8303293 Si02
#       7
#     8   8   8   8   8   8   8
#     4  10  23  42  64  93 128 167 214 271 329 399
#     4  10  23  40  65  96 129 172 218 268 331 398
#     4  10  22  42  64  89 122 168 217 274 334 390
#     4  11  22  41  64  92 126 173 215 272 333 411
#     4  10  22  37  59  92 125 165 210 267 331 391
#     4  11  22  39  64  89 127 168 215 274 320 405
#     4  11  24  40  63  94 131 171 217 275 335 404
#
# _framework density 22.187854000000002
#
# number of rings (size 3 to 8) (size 9 to 14) (size 15 to 20)
#    0.000    1.571    1.429    2.571    8.000    0.000 
#    0.000    1.429    0.000    0.857    0.000    0.000 
#    0.000    0.000    0.000    0.000    0.000    0.000 
#
# Total GULP energy -693857.831119 kJ/mol
# GULP energy per Si atom -12390.318413 kJ/mol
# Density = 2.213735 g / cm^3
# Si number density = 22.187854 Si / 1000 Ang^3
#
#
#
# Elastic Constant Matrix: (Units=GPa)
#
#
# Indices 1 2 3 4 5 6 
#
# 1 80.4770 29.4390 42.9516 0.0000 0.0000 -1.9574
# 2 29.4390 80.4770 42.9516 0.0000 0.0000 1.9574
# 3 42.9516 42.9516 104.9182 0.0000 0.0000 0.0000
# 4 0.0000 0.0000 0.0000 19.9451 0.0000 0.0000
# 5 0.0000 0.0000 0.0000 0.0000 19.9451 0.0000
# 6 -1.9574 1.9574 0.0000 0.0000 0.0000 37.6491
#
#
#
# Elastic Compliance Matrix: (Units=1/GPa)
#
#
# Indices 1 2 3 4 5 6 
#
# 1 0.016525 -0.003147 -0.005477 0.000000 0.000000 0.001023
# 2 -0.003147 0.016525 -0.005477 0.000000 0.000000 -0.001023
# 3 -0.005477 -0.005477 0.014015 0.000000 0.000000 0.000000
# 4 0.000000 0.000000 0.000000 0.050138 0.000000 0.000000
# 5 0.000000 0.000000 0.000000 0.000000 0.050138 0.000000
# 6 0.001023 -0.001023 0.000000 0.000000 0.000000 0.026667
#
#
# Mechanical properties :
#
#
# Convention : Reuss Voigt Hill
#
# Bulk Modulus (GPa) = 53.00928 55.17298 54.09113
# Shear Modulus (GPa) = 23.98117 25.54318 24.76217
#
# Velocity S-wave (km/s) = 3.29116 3.39665 3.34432
# Velocity P-wave (km/s) = 6.19558 6.34848 6.27250
#
# Compressibility (1/GPa) = 0.01886462
#
# Stress axis : x y z
#
# Youngs Moduli (GPa) = 60.51464 60.51464 71.34997
#
# Poissons Ratio (x) = 0.19043 0.39077
# Poissons Ratio (y) = 0.19043 0.39077
# Poissons Ratio (z) = 0.33143 0.33143
#
# Static dielectric constant tensor:
#      x y z
#    x 4.063010 0.000000 0.000000 
#    y 0.000000 4.063010 0.000000 
#    z 0.000000 0.000000 4.269750 
# 
# 
# High freq. dielectric constant tensor:
#      x y z
#    x 1.862140 0.000000 0.000000 
#    y 0.000000 1.862140 0.000000 
#    z 0.000000 0.000000 1.893300 
# 
# From -- ./inp_files/4502.got.cif
#   From: 2010.03.12/outbox.cif.g09.slc.cpg/sg84_3_cif.got.tgz:4502.got - 2010.04.08 20:07:29.
