data_PCOD8303020
_publ_section_title
;
Structure prediction by ZEFSAII (Michael W. Deem and Ramdas Pophale) SiO2 
 PCOD8303020
Probable space group: P 4/M
;
_chemical_formula_sum "Si O2"
_cell_formula_units_Z 48
_cell_length_a 11.067475
_cell_length_b 11.067475
_cell_length_c 20.273898
_cell_angle_alpha 90.000000
_cell_angle_beta 90.000000
_cell_angle_gamma 90.000000
_cell_volume 2483.329550
_symmetry_space_group_name_H-M "P 4/M"
_symmetry_group_IT_number 83
_symmetry_cell_setting 'tetragonal'
loop_
_space_group_symop_operation_xyz
x,y,z
-y,x,z
-x,-y,z
y,-x,z
-x,-y,-z
y,-x,-z
x,y,-z
-y,x,-z
loop_
_atom_site_type_symbol
_atom_site_label
_atom_site_fract_x
_atom_site_fract_y
_atom_site_fract_z
Si Si1 0.941017 0.370956 0.689447
Si Si2 0.317779 0.570486 0.272757
Si Si3 0.375170 0.059480 0.925280
Si Si4 0.317501 0.569308 0.881208
Si Si5 0.800868 0.988782 0.810276
Si Si6 0.196942 0.009834 0.424379
O O1 0.796199 0.383082 0.686220
O O2 0.985647 0.289964 0.749639
O O3 0.985512 0.314582 0.620930
O O4 0.000000 0.500000 0.699339
O O5 0.346243 0.431775 0.291065
O O6 0.286755 0.580676 0.195754
O O7 0.385524 0.204175 0.922627
O O8 0.268737 0.010542 0.879463
O O9 0.500000 0.000000 0.901081
O O10 0.344786 0.020758 0.000000
O O11 0.346764 0.430956 0.899575
O O12 0.887227 0.873582 0.805941
O O13 0.239710 0.011633 0.500000
O O14 0.112173 0.124075 0.408786
#
# Coordination Sequence:
#
# PCOD8303020 Si02
#       6
#     8   8   8   8   8   8
#     4  12  24  34  65  97 122 154 196 251 301 351
#     4   9  20  36  56  85 122 160 194 239 304 364
#     4  11  25  40  59  85 116 154 197 249 307 363
#     4   9  19  37  61  85 113 153 196 245 302 360
#     4  11  26  44  63  86 118 157 202 252 300 358
#     4   9  20  41  65  90 127 169 205 247 296 343
#
# _framework density 19.328889
#
# number of rings (size 3 to 8) (size 9 to 14) (size 15 to 20)
#    0.000    1.833    1.667    3.000    7.000    3.000 
#    0.000    1.667    0.000    0.000    0.000    1.167 
#    0.000    0.000    0.000    0.000    0.000    0.000 
#
# Total GULP energy -595425.097165 kJ/mol
# GULP energy per Si atom -12404.689524 kJ/mol
# Density = 1.928490 g / cm^3
# Si number density = 19.328889 Si / 1000 Ang^3
#
#
#
# Elastic Constant Matrix: (Units=GPa)
#
#
# Indices 1 2 3 4 5 6 
#
# 1 100.1392 35.3719 55.2783 0.0000 0.0000 -2.5355
# 2 35.3719 100.1392 55.2783 0.0000 0.0000 2.5355
# 3 55.2783 55.2783 97.5005 0.0000 0.0000 0.0000
# 4 0.0000 0.0000 0.0000 20.2841 0.0000 0.0000
# 5 0.0000 0.0000 0.0000 0.0000 20.2841 0.0000
# 6 -2.5355 2.5355 0.0000 0.0000 0.0000 19.3041
#
#
#
# Elastic Compliance Matrix: (Units=1/GPa)
#
#
# Indices 1 2 3 4 5 6 
#
# 1 0.014665 -0.000935 -0.007785 0.000000 0.000000 0.002049
# 2 -0.000935 0.014665 -0.007785 0.000000 0.000000 -0.002049
# 3 -0.007785 -0.007785 0.019083 0.000000 0.000000 0.000000
# 4 0.000000 0.000000 0.000000 0.049300 0.000000 0.000000
# 5 0.000000 0.000000 0.000000 0.000000 0.049300 0.000000
# 6 0.002049 -0.002049 0.000000 0.000000 0.000000 0.052341
#
#
# Mechanical properties :
#
#
# Convention : Reuss Voigt Hill
#
# Bulk Modulus (GPa) = 64.90942 65.51510 65.21226
# Shear Modulus (GPa) = 21.05285 22.09783 21.57534
#
# Velocity S-wave (km/s) = 3.30387 3.38487 3.34462
# Velocity P-wave (km/s) = 6.94324 7.01748 6.98046
#
# Compressibility (1/GPa) = 0.01540608
#
# Stress axis : x y z
#
# Youngs Moduli (GPa) = 68.18768 68.18768 52.40174
#
# Poissons Ratio (x) = 0.06375 0.40792
# Poissons Ratio (y) = 0.06375 0.40792
# Poissons Ratio (z) = 0.53081 0.53081
#
# Static dielectric constant tensor:
#      x y z
#    x 3.589800 0.000000 0.000000 
#    y 0.000000 3.589800 0.000000 
#    z 0.000000 0.000000 3.326020 
# 
# 
# High freq. dielectric constant tensor:
#      x y z
#    x 1.758510 0.000000 0.000000 
#    y 0.000000 1.758510 0.000000 
#    z 0.000000 0.000000 1.735190 
# 
# From -- ./inp_files/2631.got.cif
#   From: 2010.03.12/outbox.cif.g09.slc.cpg/sg83_2_cif.got.tgz:2631.got - 2010.04.08 20:05:18.
