data_PCOD8303915
_publ_section_title
;
Structure prediction by ZEFSAII (Michael W. Deem and Ramdas Pophale) SiO2 
 PCOD8303915
Probable space group: I 4/M
;
_chemical_formula_sum "Si O2"
_cell_formula_units_Z 104
_cell_length_a 24.273367
_cell_length_b 24.273367
_cell_length_c 9.417578
_cell_angle_alpha 90.000000
_cell_angle_beta 90.000000
_cell_angle_gamma 90.000000
_cell_volume 5548.802541
_symmetry_space_group_name_H-M "I 4/M"
_symmetry_group_IT_number 87
_symmetry_cell_setting 'tetragonal'
loop_
_space_group_symop_operation_xyz
x,y,z
-y,x,z
-x,-y,z
y,-x,z
-x,-y,-z
y,-x,-z
x,y,-z
-y,x,-z
1/2+x,1/2+y,1/2+z
1/2-y,1/2+x,1/2+z
1/2-x,1/2-y,1/2+z
1/2+y,1/2-x,1/2+z
1/2-x,1/2-y,1/2-z
1/2+y,1/2-x,1/2-z
1/2+x,1/2+y,1/2-z
1/2-y,1/2+x,1/2-z
loop_
_atom_site_type_symbol
_atom_site_label
_atom_site_fract_x
_atom_site_fract_y
_atom_site_fract_z
Si Si1 0.858900 0.564775 0.336193
Si Si2 0.434123 0.245499 0.838982
Si Si3 0.863673 0.064333 0.771470
Si Si4 0.566014 0.859350 0.664005
Si Si5 0.754506 0.564521 0.840551
Si Si6 0.428047 0.554211 0.000000
Si Si7 0.940218 0.153531 0.152289
O O1 0.859412 0.585012 0.500000
O O2 0.863133 0.499385 0.329369
O O3 0.910540 0.588340 0.248746
O O4 0.803894 0.586907 0.257899
O O5 0.418279 0.300398 0.752204
O O6 0.411468 0.194880 0.745460
O O7 0.499289 0.241896 0.850335
O O8 0.409486 0.244885 0.000000
O O9 0.897237 0.079127 0.631696
O O10 0.895079 0.105510 0.877580
O O11 0.871189 0.000610 0.812709
O O12 0.586099 0.858657 0.500000
O O13 0.696491 0.581071 0.769950
O O14 0.758036 0.589715 0.000000
O O15 0.423159 0.489014 0.000000
O O16 0.946504 0.184371 0.000000
#
# Coordination Sequence:
#
# PCOD8303915 Si02
#       7
#    16  16  16  16  16   8  16
#     4  10  20  36  57  82 114 144 174 213 257 309
#     4   9  18  32  53  76 101 135 178 223 262 310
#     4  11  21  33  53  73 105 139 183 226 273 324
#     4  10  21  35  55  82 112 143 175 212 258 312
#     4   9  19  34  55  77 101 137 180 221 261 312
#     4  11  20  32  50  76 106 144 182 229 277 335
#     4  11  23  35  49  74 107 142 179 222 274 323
#
# _framework density 18.742782999999999
#
# number of rings (size 3 to 8) (size 9 to 14) (size 15 to 20)
#    0.000    1.923    2.308    1.846    2.154    6.769 
#    0.000    2.308    0.000    0.923    0.000    0.000 
#    0.000    0.000    0.000    0.000    0.000    0.000 
#
# Total GULP energy -644501.181603 kJ/mol
# GULP energy per Si atom -12394.253492 kJ/mol
# Density = 1.870012 g / cm^3
# Si number density = 18.742783 Si / 1000 Ang^3
#
#
#
# Elastic Constant Matrix: (Units=GPa)
#
#
# Indices 1 2 3 4 5 6 
#
# 1 61.9141 29.0412 37.0551 0.0000 0.0000 0.8691
# 2 29.0412 61.9141 37.0551 0.0000 0.0000 -0.8691
# 3 37.0551 37.0551 148.7962 0.0000 0.0000 0.0000
# 4 0.0000 0.0000 0.0000 22.6031 0.0000 0.0000
# 5 0.0000 0.0000 0.0000 0.0000 22.6031 0.0000
# 6 0.8691 -0.8691 0.0000 0.0000 0.0000 11.2664
#
#
#
# Elastic Compliance Matrix: (Units=1/GPa)
#
#
# Indices 1 2 3 4 5 6 
#
# 1 0.022169 -0.008376 -0.003435 0.000000 0.000000 -0.002356
# 2 -0.008376 0.022169 -0.003435 0.000000 0.000000 0.002356
# 3 -0.003435 -0.003435 0.008431 0.000000 0.000000 0.000000
# 4 0.000000 0.000000 0.000000 0.044242 0.000000 0.000000
# 5 0.000000 0.000000 0.000000 0.000000 0.044242 0.000000
# 6 -0.002356 0.002356 0.000000 0.000000 0.000000 0.089123
#
#
# Mechanical properties :
#
#
# Convention : Reuss Voigt Hill
#
# Bulk Modulus (GPa) = 44.88730 53.21413 49.05071
# Shear Modulus (GPa) = 18.63630 22.59271 20.61451
#
# Velocity S-wave (km/s) = 3.15670 3.47567 3.32002
# Velocity P-wave (km/s) = 6.10635 6.67536 6.39718
#
# Compressibility (1/GPa) = 0.02227802
#
# Stress axis : x y z
#
# Youngs Moduli (GPa) = 45.10806 45.10806 118.60380
#
# Poissons Ratio (x) = 0.37782 0.40740
# Poissons Ratio (y) = 0.37782 0.40740
# Poissons Ratio (z) = 0.15494 0.15494
#
# Static dielectric constant tensor:
#      x y z
#    x 3.249070 0.000000 0.000000 
#    y 0.000000 3.249070 0.000000 
#    z 0.000000 0.000000 3.778680 
# 
# 
# High freq. dielectric constant tensor:
#      x y z
#    x 1.701270 0.000000 0.000000 
#    y 0.000000 1.701270 0.000000 
#    z 0.000000 0.000000 1.754960 
# 
# From -- ./inp_files/1627.got.cif
#   From: 2010.03.12/outbox.cif.g09.slc.cpg/sg87_1_cif.got.tgz:1627.got - 2010.04.08 20:16:13.
