data_PCOD8303413
_publ_section_title
;
Structure prediction by ZEFSAII (Michael W. Deem and Ramdas Pophale) SiO2 
 PCOD8303413
Probable space group: P 4/N
;
_chemical_formula_sum "Si O2"
_cell_formula_units_Z 52
_cell_length_a 17.448122
_cell_length_b 17.448122
_cell_length_c 9.645434
_cell_angle_alpha 90.000000
_cell_angle_beta 90.000000
_cell_angle_gamma 90.000000
_cell_volume 2936.426618
_symmetry_space_group_name_H-M "P 4/N"
_symmetry_group_IT_number 85
_symmetry_cell_setting 'tetragonal'
loop_
_space_group_symop_operation_xyz
x,y,z
1/2-y,x,z
1/2-x,1/2-y,z
y,1/2-x,z
-x,-y,-z
1/2+y,-x,-z
1/2+x,1/2+y,-z
-y,1/2+x,-z
loop_
_atom_site_type_symbol
_atom_site_label
_atom_site_fract_x
_atom_site_fract_y
_atom_site_fract_z
Si Si1 0.483745 0.596062 0.843958
Si Si2 0.092083 0.974470 0.601500
Si Si3 0.024559 0.907809 0.342279
Si Si4 0.250000 0.750000 0.198698
Si Si5 0.918033 0.251715 0.729634
Si Si6 0.250641 0.916476 0.060126
Si Si7 0.481650 0.906834 0.913925
O O1 0.469611 0.578973 0.682458
O O2 0.466623 0.683202 0.873375
O O3 0.570646 0.571308 0.888704
O O4 0.423332 0.543183 0.928777
O O5 0.088051 0.947708 0.442121
O O6 0.175171 0.960579 0.666018
O O7 0.061504 0.063043 0.614934
O O8 0.036730 0.816596 0.347037
O O9 0.037737 0.932406 0.184406
O O10 0.174358 0.749886 0.297700
O O11 0.252186 0.827018 0.103024
O O12 0.924279 0.247193 0.895412
O O13 0.179067 0.960870 0.124905
#
# Coordination Sequence:
#
# PCOD8303413 Si02
#       7
#     8   8   8   4   8   8   8
#     4  10  19  33  53  75 101 141 185 217 263 329
#     4  10  22  38  53  76 110 147 184 223 269 328
#     4  10  22  38  53  76 110 147 184 223 269 328
#     4  12  21  30  47  88 119 140 169 226 283 324
#     4  12  21  32  54  79 110 143 175 228 276 324
#     4  12  19  31  53  80 111 137 179 232 271 324
#     4  10  19  33  53  75 101 141 185 217 263 329
#
# _framework density 17.708599
#
# number of rings (size 3 to 8) (size 9 to 14) (size 15 to 20)
#    0.000    1.231    6.154    1.385    0.000    2.462 
#    0.000    0.000    0.000    0.923    0.000    2.154 
#    0.000    7.385    0.000    0.000    0.000    0.000 
#
# Total GULP energy -644225.409624 kJ/mol
# GULP energy per Si atom -12388.950185 kJ/mol
# Density = 1.766829 g / cm^3
# Si number density = 17.708599 Si / 1000 Ang^3
#
#
#
# Elastic Constant Matrix: (Units=GPa)
#
#
# Indices 1 2 3 4 5 6 
#
# 1 118.4968 72.2679 17.9789 0.0000 0.0000 0.7267
# 2 72.2679 118.4968 17.9789 0.0000 0.0000 -0.7267
# 3 17.9789 17.9789 47.8735 0.0000 0.0000 0.0000
# 4 0.0000 0.0000 0.0000 16.2950 0.0000 0.0000
# 5 0.0000 0.0000 0.0000 0.0000 16.2950 0.0000
# 6 0.7267 -0.7267 0.0000 0.0000 0.0000 29.7572
#
#
#
# Elastic Compliance Matrix: (Units=1/GPa)
#
#
# Indices 1 2 3 4 5 6 
#
# 1 0.013645 -0.008003 -0.002119 0.000000 0.000000 -0.000529
# 2 -0.008003 0.013645 -0.002119 0.000000 0.000000 0.000529
# 3 -0.002119 -0.002119 0.022480 0.000000 0.000000 0.000000
# 4 0.000000 0.000000 0.000000 0.061369 0.000000 0.000000
# 5 0.000000 0.000000 0.000000 0.000000 0.061369 0.000000
# 6 -0.000529 0.000529 0.000000 0.000000 0.000000 0.033631
#
#
# Mechanical properties :
#
#
# Convention : Reuss Voigt Hill
#
# Bulk Modulus (GPa) = 39.54449 55.70206 47.62327
# Shear Modulus (GPa) = 20.91628 24.24552 22.58090
#
# Velocity S-wave (km/s) = 3.44050 3.70420 3.57478
# Velocity P-wave (km/s) = 6.17753 7.05818 6.63249
#
# Compressibility (1/GPa) = 0.02528798
#
# Stress axis : x y z
#
# Youngs Moduli (GPa) = 73.28821 73.28821 44.48462
#
# Poissons Ratio (x) = 0.58655 0.09425
# Poissons Ratio (y) = 0.58655 0.09425
# Poissons Ratio (z) = 0.15527 0.15527
#
# Static dielectric constant tensor:
#      x y z
#    x 3.435890 0.000000 0.000000 
#    y 0.000000 3.435890 0.000000 
#    z 0.000000 0.000000 3.320710 
# 
# 
# High freq. dielectric constant tensor:
#      x y z
#    x 1.666580 0.000000 0.000000 
#    y 0.000000 1.666580 0.000000 
#    z 0.000000 0.000000 1.692170 
# 
# From -- ./inp_files/1148.got.cif
#   From: 2010.03.12/outbox.cif.g09.slc.cpg/sg85_cif.got.tgz:1148.got - 2010.04.08 20:10:46.
