data_PCOD8303954
_publ_section_title
;
Structure prediction by ZEFSAII (Michael W. Deem and Ramdas Pophale) SiO2 
 PCOD8303954
Probable space group: I 4/M
;
_chemical_formula_sum "Si O2"
_cell_formula_units_Z 96
_cell_length_a 23.959565
_cell_length_b 23.959565
_cell_length_c 8.944004
_cell_angle_alpha 90.000000
_cell_angle_beta 90.000000
_cell_angle_gamma 90.000000
_cell_volume 5134.401689
_symmetry_space_group_name_H-M "I 4/M"
_symmetry_group_IT_number 87
_symmetry_cell_setting 'tetragonal'
loop_
_space_group_symop_operation_xyz
x,y,z
-y,x,z
-x,-y,z
y,-x,z
-x,-y,-z
y,-x,-z
x,y,-z
-y,x,-z
1/2+x,1/2+y,1/2+z
1/2-y,1/2+x,1/2+z
1/2-x,1/2-y,1/2+z
1/2+y,1/2-x,1/2+z
1/2-x,1/2-y,1/2-z
1/2+y,1/2-x,1/2-z
1/2+x,1/2+y,1/2-z
1/2-y,1/2+x,1/2-z
loop_
_atom_site_type_symbol
_atom_site_label
_atom_site_fract_x
_atom_site_fract_y
_atom_site_fract_z
Si Si1 0.709203 0.542311 0.677633
Si Si2 0.483984 0.586641 0.677755
Si Si3 0.334153 0.238934 0.175825
Si Si4 0.207023 0.542577 0.825104
Si Si5 0.166864 0.770113 0.823834
Si Si6 0.515755 0.919554 0.176899
O O1 0.709423 0.539769 0.500000
O O2 0.648075 0.527344 0.743150
O O3 0.753223 0.498534 0.737163
O O4 0.726258 0.603677 0.735191
O O5 0.435596 0.544245 0.733814
O O6 0.483005 0.588386 0.500000
O O7 0.394626 0.218846 0.229405
O O8 0.289518 0.191966 0.226157
O O9 0.320341 0.297761 0.252513
O O10 0.331809 0.247946 0.000000
O O11 0.143987 0.527980 0.783012
O O12 0.218318 0.535810 0.000000
O O13 0.169259 0.778315 0.000000
O O14 0.456486 0.935593 0.248760
O O15 0.514828 0.930540 0.000000
#
# Coordination Sequence:
#
# PCOD8303954 Si02
#       6
#    16  16  16  16  16  16
#     4  10  21  33  55  84 108 138 179 227 269 315
#     4   8  15  29  49  75 107 138 169 213 268 317
#     4   9  19  37  56  75 107 148 179 216 271 322
#     4  10  23  38  54  79 112 147 181 219 269 327
#     4   9  19  35  56  82 107 136 179 227 271 316
#     4  10  21  38  60  83 110 144 182 225 273 326
#
# _framework density 18.697406000000001
#
# number of rings (size 3 to 8) (size 9 to 14) (size 15 to 20)
#    0.000    2.667    0.000    1.500    4.667    2.667 
#    0.000    0.000    0.000    0.000    0.000    1.167 
#    0.000    0.000    0.000    0.000    0.000    0.000 
#
# Total GULP energy -595210.499230 kJ/mol
# GULP energy per Si atom -12400.218734 kJ/mol
# Density = 1.865485 g / cm^3
# Si number density = 18.697406 Si / 1000 Ang^3
#
#
#
# Elastic Constant Matrix: (Units=GPa)
#
#
# Indices 1 2 3 4 5 6 
#
# 1 166.3317 95.4593 37.5764 0.0000 0.0000 2.1282
# 2 95.4593 166.3317 37.5764 0.0000 0.0000 -2.1282
# 3 37.5764 37.5764 31.1236 0.0000 0.0000 0.0000
# 4 0.0000 0.0000 0.0000 25.2195 0.0000 0.0000
# 5 0.0000 0.0000 0.0000 0.0000 25.2195 0.0000
# 6 2.1282 -2.1282 0.0000 0.0000 0.0000 25.4866
#
#
#
# Elastic Compliance Matrix: (Units=1/GPa)
#
#
# Indices 1 2 3 4 5 6 
#
# 1 0.010013 -0.004167 -0.007058 0.000000 0.000000 -0.001184
# 2 -0.004167 0.010013 -0.007058 0.000000 0.000000 0.001184
# 3 -0.007058 -0.007058 0.049173 0.000000 0.000000 0.000000
# 4 0.000000 0.000000 0.000000 0.039652 0.000000 0.000000
# 5 0.000000 0.000000 0.000000 0.000000 0.039652 0.000000
# 6 -0.001184 0.001184 0.000000 0.000000 0.000000 0.039434
#
#
# Mechanical properties :
#
#
# Convention : Reuss Voigt Hill
#
# Bulk Modulus (GPa) = 30.64427 78.33461 54.48944
# Shear Modulus (GPa) = 21.24204 28.06344 24.65274
#
# Velocity S-wave (km/s) = 3.37426 3.87838 3.63507
# Velocity P-wave (km/s) = 5.62192 7.87672 6.84283
#
# Compressibility (1/GPa) = 0.03263253
#
# Stress axis : x y z
#
# Youngs Moduli (GPa) = 99.86524 99.86524 20.33647
#
# Poissons Ratio (x) = 0.41619 0.14354
# Poissons Ratio (y) = 0.41619 0.14354
# Poissons Ratio (z) = 0.70485 0.70485
#
# Static dielectric constant tensor:
#      x y z
#    x 3.629640 0.000000 0.000000 
#    y 0.000000 3.629640 0.000000 
#    z 0.000000 0.000000 3.162140 
# 
# 
# High freq. dielectric constant tensor:
#      x y z
#    x 1.735810 0.000000 0.000000 
#    y 0.000000 1.735810 0.000000 
#    z 0.000000 0.000000 1.699690 
# 
# From -- ./inp_files/1346.got.cif
#   From: 2010.03.12/outbox.cif.g09.slc.cpg/sg87_1_cif.got.tgz:1346.got - 2010.04.08 20:16:13.
