data_PCOD8303029
_publ_section_title
;
Structure prediction by ZEFSAII (Michael W. Deem and Ramdas Pophale) SiO2 
 PCOD8303029
Probable space group: P 4/M
;
_chemical_formula_sum "Si O2"
_cell_formula_units_Z 44
_cell_length_a 8.708468
_cell_length_b 8.708468
_cell_length_c 29.572441
_cell_angle_alpha 90.000000
_cell_angle_beta 90.000000
_cell_angle_gamma 90.000000
_cell_volume 2242.697478
_symmetry_space_group_name_H-M "P 4/M"
_symmetry_group_IT_number 83
_symmetry_cell_setting 'tetragonal'
loop_
_space_group_symop_operation_xyz
x,y,z
-y,x,z
-x,-y,z
y,-x,z
-x,-y,-z
y,-x,-z
x,y,-z
-y,x,-z
loop_
_atom_site_type_symbol
_atom_site_label
_atom_site_fract_x
_atom_site_fract_y
_atom_site_fract_z
Si Si1 0.000000 0.500000 0.117146
Si Si2 0.916614 0.239439 0.452376
Si Si3 0.758338 0.917426 0.354437
Si Si4 0.742014 0.433886 0.818056
Si Si5 0.939745 0.756080 0.948687
Si Si6 0.261098 0.577948 0.284905
O O1 0.883471 0.403073 0.148506
O O2 0.905877 0.617370 0.085482
O O3 0.883862 0.333308 0.500000
O O4 0.888038 0.322416 0.404053
O O5 0.092237 0.190775 0.452866
O O6 0.630011 0.877676 0.317233
O O7 0.906683 0.808585 0.348536
O O8 0.685576 0.606674 0.827403
O O9 0.797355 0.410452 0.766597
O O10 0.111151 0.817042 0.939836
O O11 0.924487 0.695876 0.000000
O O12 0.309972 0.404095 0.294636
#
# Coordination Sequence:
#
# PCOD8303029 Si02
#       6
#     4   8   8   8   8   8
#     4  12  19  30  56  82  96 124 171 210 238 276
#     4   7  10  19  37  62  92 121 145 177 230 288
#     4   9  17  28  46  74  99 117 149 199 243 280
#     4   9  20  36  50  69  98 128 160 202 247 289
#     4   9  19  35  52  74 107 139 164 195 238 288
#     4   9  19  35  50  63  87 127 167 195 232 291
#
# _framework density 19.619230000000002
#
# number of rings (size 3 to 8) (size 9 to 14) (size 15 to 20)
#    0.000    3.091    0.000    4.636    0.000    3.636 
#    0.000    0.000    0.000    3.273    0.000   14.000 
#    0.000    0.000    0.000    0.000    0.000    0.000 
#
# Total GULP energy -545116.397944 kJ/mol
# GULP energy per Si atom -12389.009044 kJ/mol
# Density = 1.957458 g / cm^3
# Si number density = 19.619230 Si / 1000 Ang^3
#
#
#
# Elastic Constant Matrix: (Units=GPa)
#
#
# Indices 1 2 3 4 5 6 
#
# 1 36.2999 3.8464 36.3098 0.0000 0.0000 1.5223
# 2 3.8464 36.2999 36.3098 0.0000 0.0000 -1.5223
# 3 36.3098 36.3098 143.5948 0.0000 0.0000 0.0000
# 4 0.0000 0.0000 0.0000 21.2809 0.0000 0.0000
# 5 0.0000 0.0000 0.0000 0.0000 21.2809 0.0000
# 6 1.5223 -1.5223 0.0000 0.0000 0.0000 22.6978
#
#
#
# Elastic Compliance Matrix: (Units=1/GPa)
#
#
# Indices 1 2 3 4 5 6 
#
# 1 0.038457 0.007449 -0.011608 0.000000 0.000000 -0.002080
# 2 0.007449 0.038457 -0.011608 0.000000 0.000000 0.002080
# 3 -0.011608 -0.011608 0.012835 0.000000 0.000000 0.000000
# 4 0.000000 0.000000 0.000000 0.046991 0.000000 0.000000
# 5 0.000000 0.000000 0.000000 0.000000 0.046991 0.000000
# 6 -0.002080 0.002080 0.000000 0.000000 0.000000 0.044336
#
#
# Mechanical properties :
#
#
# Convention : Reuss Voigt Hill
#
# Bulk Modulus (GPa) = 17.17767 41.01410 29.09589
# Shear Modulus (GPa) = 17.92078 22.36714 20.14396
#
# Velocity S-wave (km/s) = 3.02558 3.38014 3.20776
# Velocity P-wave (km/s) = 4.58040 6.01534 5.34623
#
# Compressibility (1/GPa) = 0.05821510
#
# Stress axis : x y z
#
# Youngs Moduli (GPa) = 26.00280 26.00280 77.91487
#
# Poissons Ratio (x) = -0.19369 0.90444
# Poissons Ratio (y) = -0.19369 0.90444
# Poissons Ratio (z) = 0.30184 0.30184
#
# Static dielectric constant tensor:
#      x y z
#    x 3.170050 0.000000 0.000000 
#    y 0.000000 3.170050 0.000000 
#    z 0.000000 0.000000 3.934670 
# 
# 
# High freq. dielectric constant tensor:
#      x y z
#    x 1.731440 0.000000 0.000000 
#    y 0.000000 1.731440 0.000000 
#    z 0.000000 0.000000 1.786920 
# 
# From -- ./inp_files/3353.got.cif
#   From: 2010.03.12/outbox.cif.g09.slc.cpg/sg83_2_cif.got.tgz:3353.got - 2010.04.08 20:05:18.
