data_PCOD8303855
_publ_section_title
;
Structure prediction by ZEFSAII (Michael W. Deem and Ramdas Pophale) SiO2 
 PCOD8303855
Probable space group: I 4/M
;
_chemical_formula_sum "Si O2"
_cell_formula_units_Z 72
_cell_length_a 25.654993
_cell_length_b 25.654993
_cell_length_c 7.692312
_cell_angle_alpha 90.000000
_cell_angle_beta 90.000000
_cell_angle_gamma 90.000000
_cell_volume 5062.915649
_symmetry_space_group_name_H-M "I 4/M"
_symmetry_group_IT_number 87
_symmetry_cell_setting 'tetragonal'
loop_
_space_group_symop_operation_xyz
x,y,z
-y,x,z
-x,-y,z
y,-x,z
-x,-y,-z
y,-x,-z
x,y,-z
-y,x,-z
1/2+x,1/2+y,1/2+z
1/2-y,1/2+x,1/2+z
1/2-x,1/2-y,1/2+z
1/2+y,1/2-x,1/2+z
1/2-x,1/2-y,1/2-z
1/2+y,1/2-x,1/2-z
1/2+x,1/2+y,1/2-z
1/2-y,1/2+x,1/2-z
loop_
_atom_site_type_symbol
_atom_site_label
_atom_site_fract_x
_atom_site_fract_y
_atom_site_fract_z
Si Si1 0.109108 0.211544 0.000000
Si Si2 0.510652 0.584447 0.804208
Si Si3 0.996042 0.838177 0.000000
Si Si4 0.760836 0.332572 0.193220
Si Si5 0.310441 0.383024 0.500000
Si Si6 0.333115 0.747394 0.193196
O O1 0.123143 0.244882 0.829481
O O2 0.138778 0.155017 0.000000
O O3 0.046258 0.208050 0.000000
O O4 0.455696 0.557103 0.770325
O O5 0.517939 0.631090 0.673739
O O6 0.513598 0.606234 0.000000
O O7 0.056266 0.823725 0.000000
O O8 0.717060 0.288800 0.191766
O O9 0.815090 0.305306 0.249862
O O10 0.766981 0.357014 0.000000
O O11 0.275534 0.374508 0.328795
O O12 0.358320 0.749440 0.000000
#
# Coordination Sequence:
#
# PCOD8303855 Si02
#       6
#     8  16   8  16   8  16
#     4  10  20  30  42  63  86 115 147 180 224 261
#     4   9  18  32  48  60  72 104 156 204 235 255
#     4  12  22  31  42  60  92 120 146 179 224 276
#     4   9  15  26  45  65  83 101 132 180 221 257
#     4  10  20  30  42  63  86 115 147 180 224 261
#     4   9  15  26  45  65  83 101 132 180 221 257
#
# _framework density 14.221055
#
# number of rings (size 3 to 8) (size 9 to 14) (size 15 to 20)
#    0.000    2.444    2.222    2.667    0.000    2.667 
#    0.000    4.444    0.000    0.000    0.000    0.000 
#    0.000    0.000    0.000    0.000    0.000    3.333 
#
# Total GULP energy -446187.212012 kJ/mol
# GULP energy per Si atom -12394.089223 kJ/mol
# Density = 1.418869 g / cm^3
# Si number density = 14.221055 Si / 1000 Ang^3
#
#
#
# Elastic Constant Matrix: (Units=GPa)
#
#
# Indices 1 2 3 4 5 6 
#
# 1 25.7317 7.2421 16.5267 0.0000 0.0000 3.6120
# 2 7.2421 25.7317 16.5267 0.0000 0.0000 -3.6120
# 3 16.5267 16.5267 117.6136 0.0000 0.0000 0.0000
# 4 0.0000 0.0000 0.0000 32.7302 0.0000 0.0000
# 5 0.0000 0.0000 0.0000 0.0000 32.7302 0.0000
# 6 3.6120 -3.6120 0.0000 0.0000 0.0000 8.7513
#
#
#
# Elastic Compliance Matrix: (Units=1/GPa)
#
#
# Indices 1 2 3 4 5 6 
#
# 1 0.049891 -0.014592 -0.004960 0.000000 0.000000 -0.026615
# 2 -0.014592 0.049891 -0.004960 0.000000 0.000000 0.026615
# 3 -0.004960 -0.004960 0.009896 0.000000 0.000000 0.000000
# 4 0.000000 0.000000 0.000000 0.030553 0.000000 0.000000
# 5 0.000000 0.000000 0.000000 0.000000 0.030553 0.000000
# 6 -0.026615 0.026615 0.000000 0.000000 0.000000 0.136239
#
#
# Mechanical properties :
#
#
# Convention : Reuss Voigt Hill
#
# Bulk Modulus (GPa) = 16.48689 27.74088 22.11389
# Shear Modulus (GPa) = 13.28848 23.42777 18.35813
#
# Velocity S-wave (km/s) = 3.06015 4.06322 3.59682
# Velocity P-wave (km/s) = 4.90963 6.44688 5.73004
#
# Compressibility (1/GPa) = 0.06065425
#
# Stress axis : x y z
#
# Youngs Moduli (GPa) = 20.04362 20.04362 101.04705
#
# Poissons Ratio (x) = 0.29248 0.50121
# Poissons Ratio (y) = 0.29248 0.50121
# Poissons Ratio (z) = 0.09942 0.09942
#
# Static dielectric constant tensor:
#      x y z
#    x 2.504410 0.000000 0.000000 
#    y 0.000000 2.504410 0.000000 
#    z 0.000000 0.000000 3.221630 
# 
# 
# High freq. dielectric constant tensor:
#      x y z
#    x 1.499350 0.000000 0.000000 
#    y 0.000000 1.499350 0.000000 
#    z 0.000000 0.000000 1.572080 
# 
# From -- ./inp_files/1229.got.cif
#   From: 2010.03.12/outbox.cif.g09.slc.cpg/sg87_1_cif.got.tgz:1229.got - 2010.04.08 20:16:13.
