data_PCOD8303530
_publ_section_title
;
Structure prediction by ZEFSAII (Michael W. Deem and Ramdas Pophale) SiO2 
 PCOD8303530
Probable space group: P 42/N
;
_chemical_formula_sum "Si O2"
_cell_formula_units_Z 48
_cell_length_a 11.094494
_cell_length_b 11.094494
_cell_length_c 19.034479
_cell_angle_alpha 90.000000
_cell_angle_beta 90.000000
_cell_angle_gamma 90.000000
_cell_volume 2342.912089
_symmetry_space_group_name_H-M "P 42/N"
_symmetry_group_IT_number 86
_space_group.IT_coordinate_system_code '2'
_symmetry_cell_setting 'tetragonal'
loop_
_space_group_symop_operation_xyz
x,y,z
-y,1/2+x,1/2+z
1/2-x,1/2-y,z
1/2+y,-x,1/2+z
-x,-y,-z
y,1/2-x,1/2-z
1/2+x,1/2+y,-z
1/2-y,x,1/2-z
loop_
_atom_site_type_symbol
_atom_site_label
_atom_site_fract_x
_atom_site_fract_y
_atom_site_fract_z
Si Si1 0.414307 0.159442 0.631309
Si Si2 0.819702 0.371643 0.147745
Si Si3 0.250000 0.250000 0.750000
Si Si4 0.541556 0.058992 0.281473
Si Si5 0.250000 0.250000 0.250000
Si Si6 0.913285 0.951310 0.559563
Si Si7 0.830483 0.522848 0.809300
Si Si8 0.250000 0.250000 0.987700
O O1 0.540371 0.222450 0.611572
O O2 0.363244 0.225973 0.700093
O O3 0.335533 0.170298 0.561547
O O4 0.419016 0.017020 0.650306
O O5 0.750000 0.250000 0.165595
O O6 0.861378 0.436336 0.219501
O O7 0.934338 0.347239 0.096437
O O8 0.528660 0.197132 0.305800
O O9 0.420842 0.986974 0.254421
O O10 0.331360 0.330638 0.301402
O O11 0.004603 0.889105 0.615412
O O12 0.819372 0.849474 0.534185
O O13 0.000000 0.000000 0.500000
#
# Coordination Sequence:
#
# PCOD8303530 Si02
#       8
#     8   8   2   8   2   8   8   4
#     4  11  21  38  65  94 127 169 210 263 331 395
#     4  11  23  41  65  97 134 167 211 285 332 387
#     4  10  20  36  62  88 128 162 212 250 320 406
#     4  10  20  38  62  99 124 157 207 267 340 387
#     4   8  14  32  54  92 106 144 200 250 324 364
#     4  11  23  45  64  86 129 179 225 260 319 396
#     4   9  19  34  63  86 123 157 203 264 313 383
#     4  11  25  43  66  87 123 185 226 262 318 405
#
# _framework density 20.487323
#
# number of rings (size 3 to 8) (size 9 to 14) (size 15 to 20)
#    0.000    1.667    3.333    1.500    0.000    4.000 
#    6.000    1.667    0.000    0.000    0.000    0.000 
#    0.000    0.000    0.000    0.000    0.000    0.000 
#
# Total GULP energy -594748.163781 kJ/mol
# GULP energy per Si atom -12390.586745 kJ/mol
# Density = 2.044069 g / cm^3
# Si number density = 20.487323 Si / 1000 Ang^3
#
#
#
# Elastic Constant Matrix: (Units=GPa)
#
#
# Indices 1 2 3 4 5 6 
#
# 1 99.2715 33.1778 23.3969 0.0000 0.0000 5.8956
# 2 33.1778 99.2715 23.3969 0.0000 0.0000 -5.8956
# 3 23.3969 23.3969 76.5232 0.0000 0.0000 0.0000
# 4 0.0000 0.0000 0.0000 23.6031 0.0000 0.0000
# 5 0.0000 0.0000 0.0000 0.0000 23.6031 0.0000
# 6 5.8956 -5.8956 0.0000 0.0000 0.0000 41.5793
#
#
#
# Elastic Compliance Matrix: (Units=1/GPa)
#
#
# Indices 1 2 3 4 5 6 
#
# 1 0.011994 -0.003529 -0.002588 0.000000 0.000000 -0.002201
# 2 -0.003529 0.011994 -0.002588 0.000000 0.000000 0.002201
# 3 -0.002588 -0.002588 0.014650 0.000000 0.000000 0.000000
# 4 0.000000 0.000000 0.000000 0.042367 0.000000 0.000000
# 5 0.000000 0.000000 0.000000 0.000000 0.042367 0.000000
# 6 -0.002201 0.002201 0.000000 0.000000 0.000000 0.024675
#
#
# Mechanical properties :
#
#
# Convention : Reuss Voigt Hill
#
# Bulk Modulus (GPa) = 47.10907 48.33436 47.72172
# Shear Modulus (GPa) = 28.97998 30.76339 29.87169
#
# Velocity S-wave (km/s) = 3.76511 3.87923 3.82259
# Velocity P-wave (km/s) = 6.47654 6.61121 6.54422
#
# Compressibility (1/GPa) = 0.02122734
#
# Stress axis : x y z
#
# Youngs Moduli (GPa) = 83.37819 83.37819 68.25718
#
# Poissons Ratio (x) = 0.29426 0.17665
# Poissons Ratio (y) = 0.29426 0.17665
# Poissons Ratio (z) = 0.21578 0.21578
#
# Static dielectric constant tensor:
#      x y z
#    x 3.763380 0.000000 0.000000 
#    y 0.000000 3.763380 0.000000 
#    z 0.000000 0.000000 3.713910 
# 
# 
# High freq. dielectric constant tensor:
#      x y z
#    x 1.800830 0.000000 0.000000 
#    y 0.000000 1.800830 0.000000 
#    z 0.000000 0.000000 1.790910 
# 
# From -- ./inp_files/3637.got.cif
#   From: 2010.03.12/outbox.cif.g09.slc.cpg/sg86_2_cif.got.tgz:3637.got - 2010.04.08 20:12:58.
