data_PCOD8303038
_publ_section_title
;
Structure prediction by ZEFSAII (Michael W. Deem and Ramdas Pophale) SiO2 
 PCOD8303038
Probable space group: P 4/M
;
_chemical_formula_sum "Si O2"
_cell_formula_units_Z 40
_cell_length_a 9.088124
_cell_length_b 9.088124
_cell_length_c 25.698931
_cell_angle_alpha 90.000000
_cell_angle_beta 90.000000
_cell_angle_gamma 90.000000
_cell_volume 2122.577451
_symmetry_space_group_name_H-M "P 4/M"
_symmetry_group_IT_number 83
_symmetry_cell_setting 'tetragonal'
loop_
_space_group_symop_operation_xyz
x,y,z
-y,x,z
-x,-y,z
y,-x,z
-x,-y,-z
y,-x,-z
x,y,-z
-y,x,-z
loop_
_atom_site_type_symbol
_atom_site_label
_atom_site_fract_x
_atom_site_fract_y
_atom_site_fract_z
Si Si1 0.896907 0.221719 0.832415
Si Si2 0.718541 0.401404 0.365687
Si Si3 0.717458 0.398117 0.753541
Si Si4 0.219473 0.097412 0.440591
Si Si5 0.779975 0.896822 0.054839
O O1 0.848455 0.338526 0.789300
O O2 0.861426 0.296094 0.889505
O O3 0.069832 0.192018 0.825747
O O4 0.691057 0.571941 0.377543
O O5 0.766058 0.377276 0.306091
O O6 0.849404 0.348522 0.402784
O O7 0.692193 0.569308 0.765498
O O8 0.270018 0.120507 0.500000
O O9 0.073065 0.190613 0.429196
O O10 0.930921 0.809001 0.054270
O O11 0.693769 0.856688 0.000000
#
# Coordination Sequence:
#
# PCOD8303038 Si02
#       5
#     8   8   8   8   8
#     4   9  17  28  45  72  98 117 147 192 235 276
#     4   9  19  35  52  70  92 120 158 199 232 266
#     4   9  19  35  50  64  89 126 161 191 228 274
#     4   9  19  35  52  72 100 129 153 181 223 274
#     4   7  10  19  37  61  89 118 145 178 224 273
#
# _framework density 18.845013999999999
#
# number of rings (size 3 to 8) (size 9 to 14) (size 15 to 20)
#    0.000    3.400    0.000    3.600    0.000    4.000 
#    0.000    9.000    0.000    1.200    0.000    7.000 
#    0.000    0.000    0.000    0.000    0.000    0.000 
#
# Total GULP energy -495547.018110 kJ/mol
# GULP energy per Si atom -12388.675453 kJ/mol
# Density = 1.880212 g / cm^3
# Si number density = 18.845014 Si / 1000 Ang^3
#
#
#
# Elastic Constant Matrix: (Units=GPa)
#
#
# Indices 1 2 3 4 5 6 
#
# 1 11.0872 -3.9879 10.3520 0.0000 0.0000 -0.1674
# 2 -3.9879 11.0872 10.3520 0.0000 0.0000 0.1674
# 3 10.3520 10.3520 85.5495 0.0000 0.0000 0.0000
# 4 0.0000 0.0000 0.0000 1.6876 0.0000 0.0000
# 5 0.0000 0.0000 0.0000 0.0000 1.6876 0.0000
# 6 -0.1674 0.1674 0.0000 0.0000 0.0000 28.7720
#
#
#
# Elastic Compliance Matrix: (Units=1/GPa)
#
#
# Indices 1 2 3 4 5 6 
#
# 1 0.142010 0.075667 -0.026340 0.000000 0.000000 0.000386
# 2 0.075667 0.142010 -0.026340 0.000000 0.000000 -0.000386
# 3 -0.026340 -0.026340 0.018064 0.000000 0.000000 0.000000
# 4 0.000000 0.000000 0.000000 0.592563 0.000000 0.000000
# 5 0.000000 0.000000 0.000000 0.000000 0.592563 0.000000
# 6 0.000386 -0.000386 0.000000 0.000000 0.000000 0.034760
#
#
# Mechanical properties :
#
#
# Convention : Reuss Voigt Hill
#
# Bulk Modulus (GPa) = 2.87310 15.68403 9.27856
# Shear Modulus (GPa) = 3.14067 12.49661 7.81864
#
# Velocity S-wave (km/s) = 1.29236 2.57792 2.03910
# Velocity P-wave (km/s) = 1.93774 4.14748 3.23701
#
# Compressibility (1/GPa) = 0.34805608
#
# Stress axis : x y z
#
# Youngs Moduli (GPa) = 7.04175 7.04175 55.35928
#
# Poissons Ratio (x) = -0.53283 1.45818
# Poissons Ratio (y) = -0.53283 1.45818
# Poissons Ratio (z) = 0.18548 0.18548
#
# Static dielectric constant tensor:
#      x y z
#    x 3.072180 0.000000 0.000000 
#    y 0.000000 3.072180 0.000000 
#    z 0.000000 0.000000 3.782700 
# 
# 
# High freq. dielectric constant tensor:
#      x y z
#    x 1.700320 0.000000 0.000000 
#    y 0.000000 1.700320 0.000000 
#    z 0.000000 0.000000 1.750540 
# 
# From -- ./inp_files/3088.got.cif
#   From: 2010.03.12/outbox.cif.g09.slc.cpg/sg83_2_cif.got.tgz:3088.got - 2010.04.08 20:05:18.
