data_PCOD8303339
_publ_section_title
;
Structure prediction by ZEFSAII (Michael W. Deem and Ramdas Pophale) SiO2 
 PCOD8303339
Probable space group: P 42/M
;
_chemical_formula_sum "Si O2"
_cell_formula_units_Z 14
_cell_length_a 5.305624
_cell_length_b 5.305624
_cell_length_c 19.254166
_cell_angle_alpha 90.000000
_cell_angle_beta 90.000000
_cell_angle_gamma 90.000000
_cell_volume 541.997957
_symmetry_space_group_name_H-M "P 42/M"
_symmetry_group_IT_number 84
_symmetry_cell_setting 'tetragonal'
loop_
_space_group_symop_operation_xyz
x,y,z
-y,x,1/2+z
-x,-y,z
y,-x,1/2+z
-x,-y,-z
y,-x,1/2-z
x,y,-z
-y,x,1/2-z
loop_
_atom_site_type_symbol
_atom_site_label
_atom_site_fract_x
_atom_site_fract_y
_atom_site_fract_z
Si Si1 0.843162 0.259900 0.650095
Si Si2 0.500000 0.500000 0.250000
Si Si3 0.159913 0.250514 0.000000
O O1 0.602611 0.269142 0.701490
O O2 0.750093 0.317880 0.571225
O O3 0.000000 0.500000 0.674156
O O4 0.000000 0.000000 0.657942
O O5 0.000000 0.500000 0.000000
O O6 0.000000 0.000000 0.000000
#
# Coordination Sequence:
#
# PCOD8303339 Si02
#       3
#     8   2   4
#     4  11  29  52  80 116 161 211 271 332 406 480
#     4  12  32  46  84 116 176 210 272 328 420 498
#     4  10  25  51  83 115 154 208 274 337 395 474
#
# _framework density 25.830355999999998
#
# number of rings (size 3 to 8) (size 9 to 14) (size 15 to 20)
#    0.000    1.143    0.000    0.857   24.000    1.143 
#    0.000    0.000    0.000    0.000    0.000    0.000 
#    0.000    0.000    0.000    0.000    0.000    0.000 
#
# Total GULP energy -173492.154652 kJ/mol
# GULP energy per Si atom -12392.296761 kJ/mol
# Density = 2.577156 g / cm^3
# Si number density = 25.830356 Si / 1000 Ang^3
#
#
#
# Elastic Constant Matrix: (Units=GPa)
#
#
# Indices 1 2 3 4 5 6 
#
# 1 138.5207 43.7152 56.9392 0.0000 0.0000 6.0232
# 2 43.7152 138.5207 56.9392 0.0000 0.0000 -6.0232
# 3 56.9392 56.9392 245.9522 0.0000 0.0000 0.0000
# 4 0.0000 0.0000 0.0000 35.3839 0.0000 0.0000
# 5 0.0000 0.0000 0.0000 0.0000 35.3839 0.0000
# 6 6.0232 -6.0232 0.0000 0.0000 0.0000 38.4200
#
#
#
# Elastic Compliance Matrix: (Units=1/GPa)
#
#
# Indices 1 2 3 4 5 6 
#
# 1 0.008589 -0.002173 -0.001485 0.000000 0.000000 -0.001687
# 2 -0.002173 0.008589 -0.001485 0.000000 0.000000 0.001687
# 3 -0.001485 -0.001485 0.004754 0.000000 0.000000 0.000000
# 4 0.000000 0.000000 0.000000 0.028261 0.000000 0.000000
# 5 0.000000 0.000000 0.000000 0.000000 0.028261 0.000000
# 6 -0.001687 0.001687 0.000000 0.000000 0.000000 0.026557
#
#
# Mechanical properties :
#
#
# Convention : Reuss Voigt Hill
#
# Bulk Modulus (GPa) = 85.88396 93.13122 89.50759
# Shear Modulus (GPa) = 41.95325 46.19754 44.07540
#
# Velocity S-wave (km/s) = 4.03449 4.23365 4.13527
# Velocity P-wave (km/s) = 7.41783 7.74801 7.58472
#
# Compressibility (1/GPa) = 0.01164362
#
# Stress axis : x y z
#
# Youngs Moduli (GPa) = 116.42934 116.42934 210.37107
#
# Poissons Ratio (x) = 0.25305 0.31245
# Poissons Ratio (y) = 0.25305 0.31245
# Poissons Ratio (z) = 0.17292 0.17292
#
# Static dielectric constant tensor:
#      x y z
#    x 4.590590 0.000000 0.000000 
#    y 0.000000 4.590590 0.000000 
#    z 0.000000 0.000000 5.761060 
# 
# 
# High freq. dielectric constant tensor:
#      x y z
#    x 2.023540 0.000000 0.000000 
#    y 0.000000 2.023540 0.000000 
#    z 0.000000 0.000000 2.073410 
# 
# From -- ./inp_files/3221.got.cif
#   From: 2010.03.12/outbox.cif.g09.slc.cpg/sg84_2_cif.got.tgz:3221.got - 2010.04.08 20:07:29.
