data_PCOD8303042
_publ_section_title
;
Structure prediction by ZEFSAII (Michael W. Deem and Ramdas Pophale) SiO2 
 PCOD8303042
Probable space group: P 4/M
;
_chemical_formula_sum "Si O2"
_cell_formula_units_Z 64
_cell_length_a 19.755819
_cell_length_b 19.755819
_cell_length_c 9.652636
_cell_angle_alpha 90.000000
_cell_angle_beta 90.000000
_cell_angle_gamma 90.000000
_cell_volume 3767.350320
_symmetry_space_group_name_H-M "P 4/M"
_symmetry_group_IT_number 83
_symmetry_cell_setting 'tetragonal'
loop_
_space_group_symop_operation_xyz
x,y,z
-y,x,z
-x,-y,z
y,-x,z
-x,-y,-z
y,-x,-z
x,y,-z
-y,x,-z
loop_
_atom_site_type_symbol
_atom_site_label
_atom_site_fract_x
_atom_site_fract_y
_atom_site_fract_z
Si Si1 0.408109 0.554969 0.664688
Si Si2 0.081528 0.226772 0.336886
Si Si3 0.996679 0.352716 0.335604
Si Si4 0.561795 0.121142 0.334829
Si Si5 0.588658 0.857662 0.665386
Si Si6 0.684703 0.207316 0.336240
Si Si7 0.644300 0.715229 0.665721
Si Si8 0.045584 0.100486 0.841824
O O1 0.407926 0.476959 0.716082
O O2 0.406335 0.556604 0.500000
O O3 0.342632 0.593893 0.724127
O O4 0.077271 0.213235 0.500000
O O5 0.154437 0.256916 0.294677
O O6 0.073752 0.156736 0.259555
O O7 0.022459 0.278705 0.288506
O O8 0.996958 0.355661 0.500000
O O9 0.921158 0.367056 0.278821
O O10 0.048543 0.410465 0.281347
O O11 0.560331 0.120899 0.500000
O O12 0.487277 0.134787 0.275010
O O13 0.612057 0.180484 0.281649
O O14 0.587503 0.857239 0.500000
O O15 0.620337 0.788114 0.722504
O O16 0.681169 0.213243 0.500000
O O17 0.700937 0.280932 0.273177
O O18 0.644443 0.715004 0.500000
O O19 0.966924 0.087984 0.811298
O O20 0.055735 0.123621 0.000000
#
# Coordination Sequence:
#
# PCOD8303042 Si02
#       8
#     8   8   8   8   8   8   8   8
#     4   8  14  22  29  37  53  84 134 187 216 238
#     4   9  17  29  46  66  88 117 143 171 216 260
#     4   8  14  24  35  52  77 100 130 169 207 250
#     4   8  13  21  33  44  62  98 134 166 206 256
#     4   9  15  20  29  46  67  96 132 168 211 256
#     4   8  15  25  34  50  78 105 134 172 215 257
#     4   9  16  21  28  43  65  94 130 173 217 257
#     4   9  19  35  51  67  88 113 143 178 210 244
#
# _framework density 16.988067999999998
#
# number of rings (size 3 to 8) (size 9 to 14) (size 15 to 20)
#    0.000    3.500    0.000    2.625    1.750    3.000 
#    0.000    3.125    0.000    0.000    0.000    0.000 
#    0.000    8.000    0.000    1.000    0.000    0.000 
#
# Total GULP energy -793117.074412 kJ/mol
# GULP energy per Si atom -12392.454288 kJ/mol
# Density = 1.694940 g / cm^3
# Si number density = 16.988068 Si / 1000 Ang^3
#
#
#
# Elastic Constant Matrix: (Units=GPa)
#
#
# Indices 1 2 3 4 5 6 
#
# 1 120.8978 59.2976 11.0130 0.0000 0.0000 -8.0828
# 2 59.2976 120.8978 11.0130 0.0000 0.0000 8.0828
# 3 11.0130 11.0130 11.0921 0.0000 0.0000 0.0000
# 4 0.0000 0.0000 0.0000 3.1607 0.0000 0.0000
# 5 0.0000 0.0000 0.0000 0.0000 3.1607 0.0000
# 6 -8.0828 8.0828 0.0000 0.0000 0.0000 25.2587
#
#
#
# Elastic Compliance Matrix: (Units=1/GPa)
#
#
# Indices 1 2 3 4 5 6 
#
# 1 0.012019 -0.005703 -0.006271 0.000000 0.000000 0.005671
# 2 -0.005703 0.012019 -0.006271 0.000000 0.000000 -0.005671
# 3 -0.006271 -0.006271 0.102607 0.000000 0.000000 0.000000
# 4 0.000000 0.000000 0.000000 0.316387 0.000000 0.000000
# 5 0.000000 0.000000 0.000000 0.000000 0.316387 0.000000
# 6 0.005671 -0.005671 0.000000 0.000000 0.000000 0.043220
#
#
# Mechanical properties :
#
#
# Convention : Reuss Voigt Hill
#
# Bulk Modulus (GPa) = 11.09202 46.17054 28.63128
# Shear Modulus (GPa) = 5.75255 17.75362 11.75308
#
# Velocity S-wave (km/s) = 1.84217 3.23625 2.63315
# Velocity P-wave (km/s) = 3.32690 6.41885 5.11224
#
# Compressibility (1/GPa) = 0.09015493
#
# Stress axis : x y z
#
# Youngs Moduli (GPa) = 83.20161 83.20161 9.74593
#
# Poissons Ratio (x) = 0.47449 0.06112
# Poissons Ratio (y) = 0.47449 0.06112
# Poissons Ratio (z) = 0.52176 0.52176
#
# Static dielectric constant tensor:
#      x y z
#    x 3.477060 0.000000 0.000000 
#    y 0.000000 3.477060 0.000000 
#    z 0.000000 0.000000 2.328660 
# 
# 
# High freq. dielectric constant tensor:
#      x y z
#    x 1.666910 0.000000 0.000000 
#    y 0.000000 1.666910 0.000000 
#    z 0.000000 0.000000 1.557240 
# 
# From -- ./inp_files/2034.got.cif
#   From: 2010.03.12/outbox.cif.g09.slc.cpg/sg83_2_cif.got.tgz:2034.got - 2010.04.08 20:05:18.
