data_PCOD8303592
_publ_section_title
;
Structure prediction by ZEFSAII (Michael W. Deem and Ramdas Pophale) SiO2 
 PCOD8303592
Probable space group: P 42/N
;
_chemical_formula_sum "Si O2"
_cell_formula_units_Z 56
_cell_length_a 11.936099
_cell_length_b 11.936099
_cell_length_c 19.689357
_cell_angle_alpha 90.000000
_cell_angle_beta 90.000000
_cell_angle_gamma 90.000000
_cell_volume 2805.151736
_symmetry_space_group_name_H-M "P 42/N"
_symmetry_group_IT_number 86
_space_group.IT_coordinate_system_code '2'
_symmetry_cell_setting 'tetragonal'
loop_
_space_group_symop_operation_xyz
x,y,z
-y,1/2+x,1/2+z
1/2-x,1/2-y,z
1/2+y,-x,1/2+z
-x,-y,-z
y,1/2-x,1/2-z
1/2+x,1/2+y,-z
1/2-y,x,1/2-z
loop_
_atom_site_type_symbol
_atom_site_label
_atom_site_fract_x
_atom_site_fract_y
_atom_site_fract_z
Si Si1 0.012855 0.829689 0.689868
Si Si2 0.124175 0.280440 0.134583
Si Si3 0.620008 0.097002 0.290933
Si Si4 0.882127 0.032281 0.530683
Si Si5 0.876496 0.218401 0.646988
Si Si6 0.456708 0.576678 0.825063
Si Si7 0.701638 0.364071 0.404760
O O1 0.035416 0.701703 0.709979
O O2 0.074145 0.904430 0.746469
O O3 0.071211 0.854311 0.617555
O O4 0.880979 0.864656 0.690128
O O5 0.250000 0.250000 0.115720
O O6 0.074499 0.331527 0.066708
O O7 0.046049 0.175792 0.156208
O O8 0.656378 0.070470 0.213113
O O9 0.729103 0.106557 0.337480
O O10 0.548764 0.002382 0.329311
O O11 0.891105 0.139008 0.581703
O O12 0.795511 0.053312 0.468680
O O13 0.000000 0.000000 0.500000
O O14 0.750000 0.250000 0.665878
O O15 0.928545 0.341525 0.631434
O O16 0.750000 0.250000 0.435299
#
# Coordination Sequence:
#
# PCOD8303592 Si02
#       7
#     8   8   8   8   8   8   8
#     4  11  19  38  62  95 130 167 207 264 333 396
#     4  12  25  39  61 100 139 167 213 274 347 403
#     4  11  22  40  65  96 132 170 214 282 336 394
#     4  12  25  44  66  90 130 183 226 277 335 407
#     4  12  22  42  67  99 132 177 232 276 335 418
#     4  12  23  38  68 100 134 168 215 282 333 401
#     4  10  22  40  64  90 125 169 225 262 324 402
#
# _framework density 19.963270000000001
#
# number of rings (size 3 to 8) (size 9 to 14) (size 15 to 20)
#    0.000    0.571    7.143    2.571    0.000    0.000 
#    2.571    0.714    0.000    2.143    0.000    0.000 
#    0.000    0.000    0.000    0.000    0.000    0.000 
#
# Total GULP energy -693781.918691 kJ/mol
# GULP energy per Si atom -12388.962834 kJ/mol
# Density = 1.991783 g / cm^3
# Si number density = 19.963270 Si / 1000 Ang^3
#
#
#
# Elastic Constant Matrix: (Units=GPa)
#
#
# Indices 1 2 3 4 5 6 
#
# 1 103.6567 36.2635 31.5885 0.0000 0.0000 -2.8321
# 2 36.2635 103.6567 31.5885 0.0000 0.0000 2.8321
# 3 31.5885 31.5885 92.2108 0.0000 0.0000 0.0000
# 4 0.0000 0.0000 0.0000 21.4608 0.0000 0.0000
# 5 0.0000 0.0000 0.0000 0.0000 21.4608 0.0000
# 6 -2.8321 2.8321 0.0000 0.0000 0.0000 25.9456
#
#
#
# Elastic Compliance Matrix: (Units=1/GPa)
#
#
# Indices 1 2 3 4 5 6 
#
# 1 0.011715 -0.003261 -0.002896 0.000000 0.000000 0.001635
# 2 -0.003261 0.011715 -0.002896 0.000000 0.000000 -0.001635
# 3 -0.002896 -0.002896 0.012829 0.000000 0.000000 0.000000
# 4 0.000000 0.000000 0.000000 0.046597 0.000000 0.000000
# 5 0.000000 0.000000 0.000000 0.000000 0.046597 0.000000
# 6 0.001635 -0.001635 0.000000 0.000000 0.000000 0.038899
#
#
# Mechanical properties :
#
#
# Convention : Reuss Voigt Hill
#
# Bulk Modulus (GPa) = 55.08669 55.37839 55.23254
# Shear Modulus (GPa) = 25.97279 27.11233 26.54256
#
# Velocity S-wave (km/s) = 3.61089 3.68925 3.65028
# Velocity P-wave (km/s) = 6.71108 6.77848 6.74487
#
# Compressibility (1/GPa) = 0.01815320
#
# Stress axis : x y z
#
# Youngs Moduli (GPa) = 85.35933 85.35933 77.94789
#
# Poissons Ratio (x) = 0.27831 0.22576
# Poissons Ratio (y) = 0.27831 0.22576
# Poissons Ratio (z) = 0.24723 0.24723
#
# Static dielectric constant tensor:
#      x y z
#    x 3.857600 0.000000 0.000000 
#    y 0.000000 3.857600 0.000000 
#    z 0.000000 0.000000 3.566890 
# 
# 
# High freq. dielectric constant tensor:
#      x y z
#    x 1.776360 0.000000 0.000000 
#    y 0.000000 1.776360 0.000000 
#    z 0.000000 0.000000 1.774990 
# 
# From -- ./inp_files/4199.got.cif
#   From: 2010.03.12/outbox.cif.g09.slc.cpg/sg86_3_cif.got.tgz:4199.got - 2010.04.08 20:12:58.
