data_PCOD8303391
_publ_section_title
;
Structure prediction by ZEFSAII (Michael W. Deem and Ramdas Pophale) SiO2 
 PCOD8303391
Probable space group: P 42/M
;
_chemical_formula_sum "Si O2"
_cell_formula_units_Z 40
_cell_length_a 9.393912
_cell_length_b 9.393912
_cell_length_c 21.034856
_cell_angle_alpha 90.000000
_cell_angle_beta 90.000000
_cell_angle_gamma 90.000000
_cell_volume 1856.233124
_symmetry_space_group_name_H-M "P 42/M"
_symmetry_group_IT_number 84
_symmetry_cell_setting 'tetragonal'
loop_
_space_group_symop_operation_xyz
x,y,z
-y,x,1/2+z
-x,-y,z
y,-x,1/2+z
-x,-y,-z
y,-x,1/2-z
x,y,-z
-y,x,1/2-z
loop_
_atom_site_type_symbol
_atom_site_label
_atom_site_fract_x
_atom_site_fract_y
_atom_site_fract_z
Si Si1 0.076515 0.143939 0.367524
Si Si2 0.624530 0.904493 0.197144
Si Si3 0.868774 0.410987 0.845186
Si Si4 0.246512 0.530593 0.500000
Si Si5 0.606112 0.387238 0.628104
Si Si6 0.717363 0.034850 0.000000
O O1 0.247234 0.135753 0.366563
O O2 0.029025 0.187698 0.437502
O O3 0.009539 0.242657 0.312309
O O4 0.000000 0.000000 0.350443
O O5 0.587019 0.869961 0.269241
O O6 0.645244 0.750429 0.166024
O O7 0.500000 0.000000 0.164858
O O8 0.746613 0.503753 0.877079
O O9 0.000000 0.500000 0.872401
O O10 0.348026 0.554177 0.559816
O O11 0.180749 0.372583 0.500000
O O12 0.111348 0.632402 0.500000
O O13 0.500000 0.500000 0.662216
#
# Coordination Sequence:
#
# PCOD8303391 Si02
#       6
#     8   8   8   4   8   4
#     4  12  26  46  74 102 141 190 241 300 356 432
#     4  11  25  44  70 101 142 189 240 290 359 446
#     4  11  28  44  66 106 144 183 235 299 368 429
#     4  11  23  44  74  99 139 188 239 297 350 436
#     4  12  25  43  70 105 139 182 235 299 361 420
#     4  11  23  46  72 108 137 185 255 293 352 438
#
# _framework density 21.549016000000002
#
# number of rings (size 3 to 8) (size 9 to 14) (size 15 to 20)
#    0.000    0.600    2.000    5.400   11.200    0.800 
#    0.000    1.000    0.000    0.000    0.000    0.000 
#    0.000    0.000    0.000    0.000    0.000    0.000 
#
# Total GULP energy -495712.557153 kJ/mol
# GULP energy per Si atom -12392.813929 kJ/mol
# Density = 2.149997 g / cm^3
# Si number density = 21.549016 Si / 1000 Ang^3
#
#
#
# Elastic Constant Matrix: (Units=GPa)
#
#
# Indices 1 2 3 4 5 6 
#
# 1 157.5972 51.8876 -0.2288 0.0000 0.0000 -2.2379
# 2 51.8876 157.5972 -0.2288 0.0000 0.0000 2.2379
# 3 -0.2288 -0.2288 39.0337 0.0000 0.0000 0.0000
# 4 0.0000 0.0000 0.0000 -21.2467 0.0000 0.0000
# 5 0.0000 0.0000 0.0000 0.0000 -21.2467 0.0000
# 6 -2.2379 2.2379 0.0000 0.0000 0.0000 49.6820
#
#
#
# Elastic Compliance Matrix: (Units=1/GPa)
#
#
# Indices 1 2 3 4 5 6 
#
# 1 0.007126 -0.002352 0.000028 0.000000 0.000000 0.000427
# 2 -0.002352 0.007126 0.000028 0.000000 0.000000 -0.000427
# 3 0.000028 0.000028 0.025619 0.000000 0.000000 0.000000
# 4 0.000000 0.000000 0.000000 -0.047066 0.000000 0.000000
# 5 0.000000 0.000000 0.000000 0.000000 -0.047066 0.000000
# 6 0.000427 -0.000427 0.000000 0.000000 0.000000 0.020166
#
#
# Mechanical properties :
#
#
# Convention : Reuss Voigt Hill
#
# Bulk Modulus (GPa) = 28.34589 50.78755 39.56672
# Shear Modulus (GPa) = -281.79852 21.62427 -130.08713
#
# Velocity S-wave (km/s) = -11.44792 3.17123 -7.77811
# Velocity P-wave (km/s) = 12.71051 6.08510 7.89077
#
# Compressibility (1/GPa) = 0.03527849
#
# Stress axis : x y z
#
# Youngs Moduli (GPa) = 140.33482 140.33482 39.03324
#
# Poissons Ratio (x) = 0.33009 -0.00109
# Poissons Ratio (y) = 0.33009 -0.00109
# Poissons Ratio (z) = -0.00393 -0.00393
#
# Static dielectric constant tensor:
#      x y z
#    x 4.117370 0.000000 0.000000 
#    y 0.000000 4.117370 0.000000 
#    z 0.000000 0.000000 3.893080 
# 
# 
# High freq. dielectric constant tensor:
#      x y z
#    x 1.867410 0.000000 0.000000 
#    y 0.000000 1.867410 0.000000 
#    z 0.000000 0.000000 1.838360 
# 
# From -- ./inp_files/4873.got.cif
#   From: 2010.03.12/outbox.cif.g09.slc.cpg/sg84_3_cif.got.tgz:4873.got - 2010.04.08 20:07:29.
