data_PCOD8303255
_publ_section_title
;
Structure prediction by ZEFSAII (Michael W. Deem and Ramdas Pophale) SiO2 
 PCOD8303255
Probable space group: P 42/M
;
_chemical_formula_sum "Si O2"
_cell_formula_units_Z 48
_cell_length_a 8.693569
_cell_length_b 8.693569
_cell_length_c 30.094847
_cell_angle_alpha 90.000000
_cell_angle_beta 90.000000
_cell_angle_gamma 90.000000
_cell_volume 2274.512619
_symmetry_space_group_name_H-M "P 42/M"
_symmetry_group_IT_number 84
_symmetry_cell_setting 'tetragonal'
loop_
_space_group_symop_operation_xyz
x,y,z
-y,x,1/2+z
-x,-y,z
y,-x,1/2+z
-x,-y,-z
y,-x,1/2-z
x,y,-z
-y,x,1/2-z
loop_
_atom_site_type_symbol
_atom_site_label
_atom_site_fract_x
_atom_site_fract_y
_atom_site_fract_z
Si Si1 0.789189 0.865533 0.242363
Si Si2 0.719677 0.893310 0.857318
Si Si3 0.331422 0.566194 0.049209
Si Si4 0.196164 0.384701 0.616714
Si Si5 0.657578 0.427316 0.805009
Si Si6 0.591216 0.155584 0.627091
O O1 0.705042 0.886340 0.195622
O O2 0.678902 0.748989 0.269791
O O3 0.962622 0.798271 0.236168
O O4 0.559413 0.859448 0.881920
O O5 0.853562 0.778200 0.875111
O O6 0.747232 0.070755 0.870791
O O7 0.500000 0.500000 0.046195
O O8 0.340285 0.739664 0.068270
O O9 0.233753 0.459043 0.081544
O O10 0.256086 0.571093 0.000000
O O11 0.333385 0.379777 0.651269
O O12 0.500000 0.500000 0.784521
O O13 0.758290 0.566198 0.825403
O O14 0.500000 0.000000 0.631229
#
# Coordination Sequence:
#
# PCOD8303255 Si02
#       6
#     8   8   8   8   8   8
#     4  11  24  41  61  92 132 179 228 276 334 391
#     4  11  21  39  61  88 128 167 214 272 326 388
#     4  10  20  41  68  93 124 163 214 269 332 410
#     4  10  20  40  63  89 123 163 211 268 330 385
#     4  11  21  43  61  88 123 169 222 267 320 389
#     4  11  22  39  62  94 129 165 209 264 336 403
#
# _framework density 21.103422999999999
#
# number of rings (size 3 to 8) (size 9 to 14) (size 15 to 20)
#    0.000    1.333    5.000    2.000    0.000    1.667 
#    9.000    2.500    0.000    1.000    0.000    0.000 
#    0.000    0.000    0.000    0.000    0.000    0.000 
#
# Total GULP energy -594666.208001 kJ/mol
# GULP energy per Si atom -12388.879333 kJ/mol
# Density = 2.105539 g / cm^3
# Si number density = 21.103423 Si / 1000 Ang^3
#
#
#
# Elastic Constant Matrix: (Units=GPa)
#
#
# Indices 1 2 3 4 5 6 
#
# 1 108.2310 40.3534 32.7753 0.0000 0.0000 2.3676
# 2 40.3534 108.2310 32.7753 0.0000 0.0000 -2.3676
# 3 32.7753 32.7753 127.0190 0.0000 0.0000 0.0000
# 4 0.0000 0.0000 0.0000 15.0507 0.0000 0.0000
# 5 0.0000 0.0000 0.0000 0.0000 15.0507 0.0000
# 6 2.3676 -2.3676 0.0000 0.0000 0.0000 42.0949
#
#
#
# Elastic Compliance Matrix: (Units=1/GPa)
#
#
# Indices 1 2 3 4 5 6 
#
# 1 0.011193 -0.003598 -0.001960 0.000000 0.000000 -0.000832
# 2 -0.003598 0.011193 -0.001960 0.000000 0.000000 0.000832
# 3 -0.001960 -0.001960 0.008884 0.000000 0.000000 0.000000
# 4 0.000000 0.000000 0.000000 0.066442 0.000000 0.000000
# 5 0.000000 0.000000 0.000000 0.000000 0.066442 0.000000
# 6 -0.000832 0.000832 0.000000 0.000000 0.000000 0.023849
#
#
# Mechanical properties :
#
#
# Convention : Reuss Voigt Hill
#
# Bulk Modulus (GPa) = 61.59594 61.69879 61.64736
# Shear Modulus (GPa) = 23.98663 30.27770 27.13217
#
# Velocity S-wave (km/s) = 3.37504 3.79189 3.58952
# Velocity P-wave (km/s) = 6.66625 6.96212 6.81579
#
# Compressibility (1/GPa) = 0.01623484
#
# Stress axis : x y z
#
# Youngs Moduli (GPa) = 89.34483 89.34483 112.55954
#
# Poissons Ratio (x) = 0.32145 0.22058
# Poissons Ratio (y) = 0.32145 0.22058
# Poissons Ratio (z) = 0.17509 0.17509
#
# Static dielectric constant tensor:
#      x y z
#    x 4.230530 0.000000 0.000000 
#    y 0.000000 4.230530 0.000000 
#    z 0.000000 0.000000 4.207790 
# 
# 
# High freq. dielectric constant tensor:
#      x y z
#    x 1.827690 0.000000 0.000000 
#    y 0.000000 1.827690 0.000000 
#    z 0.000000 0.000000 1.813180 
# 
# From -- ./inp_files/5736.got.cif
#   From: 2010.03.12/outbox.cif.g09.slc.cpg/sg84_3_cif.got.tgz:5736.got - 2010.04.08 20:07:29.
