data_PCOD8303513
_publ_section_title
;
Structure prediction by ZEFSAII (Michael W. Deem and Ramdas Pophale) SiO2 
 PCOD8303513
Probable space group: P 42/N
;
_chemical_formula_sum "Si O2"
_cell_formula_units_Z 56
_cell_length_a 10.958905
_cell_length_b 10.958905
_cell_length_c 25.120382
_cell_angle_alpha 90.000000
_cell_angle_beta 90.000000
_cell_angle_gamma 90.000000
_cell_volume 3016.897559
_symmetry_space_group_name_H-M "P 42/N"
_symmetry_group_IT_number 86
_space_group.IT_coordinate_system_code '2'
_symmetry_cell_setting 'tetragonal'
loop_
_space_group_symop_operation_xyz
x,y,z
-y,1/2+x,1/2+z
1/2-x,1/2-y,z
1/2+y,-x,1/2+z
-x,-y,-z
y,1/2-x,1/2-z
1/2+x,1/2+y,-z
1/2-y,x,1/2-z
loop_
_atom_site_type_symbol
_atom_site_label
_atom_site_fract_x
_atom_site_fract_y
_atom_site_fract_z
Si Si1 0.409286 0.657605 0.468073
Si Si2 0.738484 0.393852 0.334148
Si Si3 0.520656 0.091090 0.929788
Si Si4 0.689626 0.874996 0.469523
Si Si5 0.069953 0.051437 0.869255
Si Si6 0.562429 0.796362 0.260921
Si Si7 0.428616 0.637736 0.951192
O O1 0.495993 0.590676 0.424928
O O2 0.453001 0.623701 0.528182
O O3 0.430939 0.803309 0.469084
O O4 0.277761 0.611463 0.448587
O O5 0.750000 0.250000 0.331065
O O6 0.624022 0.424691 0.372378
O O7 0.865761 0.452671 0.354532
O O8 0.705945 0.442740 0.275650
O O9 0.475213 0.210560 0.958509
O O10 0.750000 0.750000 0.491791
O O11 0.619180 0.848974 0.414429
O O12 0.609421 0.951247 0.512629
O O13 0.154685 0.027258 0.818689
O O14 0.032806 0.919149 0.893524
O O15 0.661304 0.882695 0.232079
#
# Coordination Sequence:
#
# PCOD8303513 Si02
#       7
#     8   8   8   8   8   8   8
#     4   9  19  34  51  80 116 153 186 225 278 333
#     4  10  22  38  58  84 108 149 187 231 286 335
#     4   9  19  33  54  76 112 150 187 229 277 335
#     4  10  20  31  52  81 115 150 188 227 287 341
#     4  10  21  35  57  83 112 145 184 238 284 331
#     4   9  20  37  59  83 109 135 183 240 291 334
#     4  10  20  34  51  82 117 153 187 225 275 343
#
# _framework density 18.562117000000001
#
# number of rings (size 3 to 8) (size 9 to 14) (size 15 to 20)
#    0.000    2.429    0.000    1.286   14.000    0.000 
#    7.714    0.000    0.000    0.000    0.000    0.000 
#    0.000    0.000    0.000    0.000    0.000    0.000 
#
# Total GULP energy -693746.043198 kJ/mol
# GULP energy per Si atom -12388.322200 kJ/mol
# Density = 1.851987 g / cm^3
# Si number density = 18.562117 Si / 1000 Ang^3
#
#
#
# Elastic Constant Matrix: (Units=GPa)
#
#
# Indices 1 2 3 4 5 6 
#
# 1 92.2548 47.9903 61.2653 0.0000 0.0000 2.4709
# 2 47.9903 92.2548 61.2653 0.0000 0.0000 -2.4709
# 3 61.2653 61.2653 129.0852 0.0000 0.0000 0.0000
# 4 0.0000 0.0000 0.0000 28.9977 0.0000 0.0000
# 5 0.0000 0.0000 0.0000 0.0000 28.9977 0.0000
# 6 2.4709 -2.4709 0.0000 0.0000 0.0000 24.7377
#
#
#
# Elastic Compliance Matrix: (Units=1/GPa)
#
#
# Indices 1 2 3 4 5 6 
#
# 1 0.017514 -0.005332 -0.005782 0.000000 0.000000 -0.002282
# 2 -0.005332 0.017514 -0.005782 0.000000 0.000000 0.002282
# 3 -0.005782 -0.005782 0.013235 0.000000 0.000000 0.000000
# 4 0.000000 0.000000 0.000000 0.034486 0.000000 0.000000
# 5 0.000000 0.000000 0.000000 0.000000 0.034486 0.000000
# 6 -0.002282 0.002282 0.000000 0.000000 0.000000 0.040880
#
#
# Mechanical properties :
#
#
# Convention : Reuss Voigt Hill
#
# Bulk Modulus (GPa) = 69.09942 72.73740 70.91841
# Shear Modulus (GPa) = 25.41575 26.08487 25.75031
#
# Velocity S-wave (km/s) = 3.70432 3.75277 3.72862
# Velocity P-wave (km/s) = 7.45673 7.61897 7.53829
#
# Compressibility (1/GPa) = 0.01447190
#
# Stress axis : x y z
#
# Youngs Moduli (GPa) = 57.09745 57.09745 75.55838
#
# Poissons Ratio (x) = 0.30446 0.43684
# Poissons Ratio (y) = 0.30446 0.43684
# Poissons Ratio (z) = 0.33011 0.33011
#
# Static dielectric constant tensor:
#      x y z
#    x 3.637820 0.000000 0.000000 
#    y 0.000000 3.637820 0.000000 
#    z 0.000000 0.000000 3.297870 
# 
# 
# High freq. dielectric constant tensor:
#      x y z
#    x 1.721060 0.000000 0.000000 
#    y 0.000000 1.721060 0.000000 
#    z 0.000000 0.000000 1.698840 
# 
# From -- ./inp_files/4220.got.cif
#   From: 2010.03.12/outbox.cif.g09.slc.cpg/sg86_3_cif.got.tgz:4220.got - 2010.04.08 20:12:58.
