data_PCOD8303342
_publ_section_title
;
Structure prediction by ZEFSAII (Michael W. Deem and Ramdas Pophale) SiO2 
 PCOD8303342
Probable space group: P 42/M
;
_chemical_formula_sum "Si O2"
_cell_formula_units_Z 48
_cell_length_a 8.763414
_cell_length_b 8.763414
_cell_length_c 29.857959
_cell_angle_alpha 90.000000
_cell_angle_beta 90.000000
_cell_angle_gamma 90.000000
_cell_volume 2293.014365
_symmetry_space_group_name_H-M "P 42/M"
_symmetry_group_IT_number 84
_symmetry_cell_setting 'tetragonal'
loop_
_space_group_symop_operation_xyz
x,y,z
-y,x,1/2+z
-x,-y,z
y,-x,1/2+z
-x,-y,-z
y,-x,1/2-z
x,y,-z
-y,x,1/2-z
loop_
_atom_site_type_symbol
_atom_site_label
_atom_site_fract_x
_atom_site_fract_y
_atom_site_fract_z
Si Si1 0.168723 0.224901 0.817962
Si Si2 0.233933 0.408559 0.500000
Si Si3 0.404613 0.760748 0.903203
Si Si4 0.665529 0.459097 0.177852
Si Si5 0.267209 0.091854 0.000000
Si Si6 0.090613 0.734238 0.596604
Si Si7 0.090010 0.655771 0.760574
O O1 0.231412 0.392495 0.829684
O O2 0.145420 0.138784 0.865199
O O3 0.283709 0.122294 0.788893
O O4 0.009998 0.231106 0.791230
O O5 0.318040 0.376162 0.452552
O O6 0.194059 0.584538 0.500000
O O7 0.083635 0.308566 0.500000
O O8 0.352754 0.633786 0.868118
O O9 0.581389 0.807390 0.896908
O O10 0.303457 0.912358 0.898321
O O11 0.500000 0.500000 0.197178
O O12 0.746261 0.356332 0.215399
O O13 0.184568 0.124198 0.952132
O O14 0.000000 0.500000 0.753941
#
# Coordination Sequence:
#
# PCOD8303342 Si02
#       7
#     8   4   8   8   4   8   8
#     4  11  24  41  60  81 119 154 198 245 301 353
#     4   7  12  26  48  82 125 150 182 247 287 340
#     4   9  17  31  56  89 119 154 198 238 296 348
#     4  11  23  38  60  84 112 153 197 245 300 355
#     4   7  12  26  49  85 116 154 189 228 296 341
#     4   9  17  31  58  86 121 153 192 244 287 353
#     4  10  27  43  59  86 118 155 200 252 301 360
#
# _framework density 20.933143000000001
#
# number of rings (size 3 to 8) (size 9 to 14) (size 15 to 20)
#    0.000    2.500    1.667    2.000    9.333    0.333 
#    0.000    1.250    0.000    1.000    0.000    7.000 
#    0.000    0.000    0.000    0.000    0.000    0.000 
#
# Total GULP energy -594706.978095 kJ/mol
# GULP energy per Si atom -12389.728710 kJ/mol
# Density = 2.088550 g / cm^3
# Si number density = 20.933143 Si / 1000 Ang^3
#
#
#
# Elastic Constant Matrix: (Units=GPa)
#
#
# Indices 1 2 3 4 5 6 
#
# 1 62.4612 17.1351 46.8779 0.0000 0.0000 -3.5684
# 2 17.1351 62.4612 46.8779 0.0000 0.0000 3.5684
# 3 46.8779 46.8779 188.9083 0.0000 0.0000 0.0000
# 4 0.0000 0.0000 0.0000 20.0683 0.0000 0.0000
# 5 0.0000 0.0000 0.0000 0.0000 20.0683 0.0000
# 6 -3.5684 3.5684 0.0000 0.0000 0.0000 19.9889
#
#
#
# Elastic Compliance Matrix: (Units=1/GPa)
#
#
# Indices 1 2 3 4 5 6 
#
# 1 0.020226 -0.002474 -0.004405 0.000000 0.000000 0.004052
# 2 -0.002474 0.020226 -0.004405 0.000000 0.000000 -0.004052
# 3 -0.004405 -0.004405 0.007480 0.000000 0.000000 0.000000
# 4 0.000000 0.000000 0.000000 0.049830 0.000000 0.000000
# 5 0.000000 0.000000 0.000000 0.000000 0.049830 0.000000
# 6 0.004052 -0.004052 0.000000 0.000000 0.000000 0.051475
#
#
# Mechanical properties :
#
#
# Convention : Reuss Voigt Hill
#
# Bulk Modulus (GPa) = 39.42673 59.51250 49.46961
# Shear Modulus (GPa) = 21.73057 25.55441 23.64249
#
# Velocity S-wave (km/s) = 3.22544 3.49773 3.36434
# Velocity P-wave (km/s) = 5.72248 6.69356 6.22698
#
# Compressibility (1/GPa) = 0.02536350
#
# Stress axis : x y z
#
# Youngs Moduli (GPa) = 49.44042 49.44042 133.69114
#
# Poissons Ratio (x) = 0.12232 0.58895
# Poissons Ratio (y) = 0.12232 0.58895
# Poissons Ratio (z) = 0.21780 0.21780
#
# Static dielectric constant tensor:
#      x y z
#    x 3.539860 0.000000 0.000000 
#    y 0.000000 3.539860 0.000000 
#    z 0.000000 0.000000 4.338640 
# 
# 
# High freq. dielectric constant tensor:
#      x y z
#    x 1.789410 0.000000 0.000000 
#    y 0.000000 1.789410 0.000000 
#    z 0.000000 0.000000 1.846360 
# 
# From -- ./inp_files/5864.got.cif
#   From: 2010.03.12/outbox.cif.g09.slc.cpg/sg84_3_cif.got.tgz:5864.got - 2010.04.08 20:07:29.
