data_PCOD8303308
_publ_section_title
;
Structure prediction by ZEFSAII (Michael W. Deem and Ramdas Pophale) SiO2 
 PCOD8303308
Probable space group: P 42/M
;
_chemical_formula_sum "Si O2"
_cell_formula_units_Z 48
_cell_length_a 9.042671
_cell_length_b 9.042671
_cell_length_c 28.111703
_cell_angle_alpha 90.000000
_cell_angle_beta 90.000000
_cell_angle_gamma 90.000000
_cell_volume 2298.691110
_symmetry_space_group_name_H-M "P 42/M"
_symmetry_group_IT_number 84
_symmetry_cell_setting 'tetragonal'
loop_
_space_group_symop_operation_xyz
x,y,z
-y,x,1/2+z
-x,-y,z
y,-x,1/2+z
-x,-y,-z
y,-x,1/2-z
x,y,-z
-y,x,1/2-z
loop_
_atom_site_type_symbol
_atom_site_label
_atom_site_fract_x
_atom_site_fract_y
_atom_site_fract_z
Si Si1 0.835906 0.479065 0.707967
Si Si2 0.522981 0.173493 0.609361
Si Si3 0.801939 0.351657 0.391428
Si Si4 0.644168 0.298491 0.946020
Si Si5 0.022323 0.164591 0.553843
Si Si6 0.416285 0.341358 0.301752
O O1 0.843694 0.366166 0.664098
O O2 0.722315 0.425362 0.748493
O O3 0.759239 0.630642 0.688993
O O4 0.000000 0.500000 0.728827
O O5 0.694048 0.211812 0.603979
O O6 0.450185 0.283448 0.571179
O O7 0.470130 0.216132 0.662263
O O8 0.500000 0.000000 0.599313
O O9 0.742787 0.505728 0.412731
O O10 0.946166 0.299517 0.418756
O O11 0.785942 0.191335 0.943599
O O12 0.585199 0.313292 0.000000
O O13 0.960996 0.161301 0.500000
O O14 0.000000 0.000000 0.576289
O O15 0.500000 0.500000 0.309362
#
# Coordination Sequence:
#
# PCOD8303308 Si02
#       6
#     8   8   8   8   8   8
#     4  12  23  38  68  97 122 162 214 263 320 382
#     4  12  25  41  63  94 128 167 216 274 337 388
#     4  12  23  40  64  95 125 170 219 275 324 395
#     4  11  23  40  64  94 128 171 222 272 323 400
#     4  10  22  41  63  92 133 177 216 268 338 399
#     4  12  21  44  68  90 127 168 213 264 318 397
#
# _framework density 20.881447999999999
#
# number of rings (size 3 to 8) (size 9 to 14) (size 15 to 20)
#    0.000    0.500    5.000    4.000    0.000    3.667 
#    0.000    0.000    0.000    0.000    0.000    0.000 
#    0.000    0.000    0.000    0.000    0.000    0.000 
#
# Total GULP energy -594935.313523 kJ/mol
# GULP energy per Si atom -12394.485698 kJ/mol
# Density = 2.083392 g / cm^3
# Si number density = 20.881448 Si / 1000 Ang^3
#
#
#
# Elastic Constant Matrix: (Units=GPa)
#
#
# Indices 1 2 3 4 5 6 
#
# 1 98.3578 13.5744 12.6339 0.0000 0.0000 -1.4651
# 2 13.5744 98.3578 12.6339 0.0000 0.0000 1.4651
# 3 12.6339 12.6339 84.2416 0.0000 0.0000 0.0000
# 4 0.0000 0.0000 0.0000 33.2344 0.0000 0.0000
# 5 0.0000 0.0000 0.0000 0.0000 33.2344 0.0000
# 6 -1.4651 1.4651 0.0000 0.0000 0.0000 35.1803
#
#
#
# Elastic Compliance Matrix: (Units=1/GPa)
#
#
# Indices 1 2 3 4 5 6 
#
# 1 0.010529 -0.001282 -0.001387 0.000000 0.000000 0.000492
# 2 -0.001282 0.010529 -0.001387 0.000000 0.000000 -0.000492
# 3 -0.001387 -0.001387 0.012287 0.000000 0.000000 0.000000
# 4 0.000000 0.000000 0.000000 0.030089 0.000000 0.000000
# 5 0.000000 0.000000 0.000000 0.000000 0.030089 0.000000
# 6 0.000492 -0.000492 0.000000 0.000000 0.000000 0.028466
#
#
# Mechanical properties :
#
#
# Convention : Reuss Voigt Hill
#
# Bulk Modulus (GPa) = 39.62991 39.84907 39.73949
# Shear Modulus (GPa) = 36.09771 36.47085 36.28428
#
# Velocity S-wave (km/s) = 4.16227 4.18373 4.17301
# Velocity P-wave (km/s) = 6.48992 6.51637 6.50316
#
# Compressibility (1/GPa) = 0.02523346
#
# Stress axis : x y z
#
# Youngs Moduli (GPa) = 94.97222 94.97222 81.38956
#
# Poissons Ratio (x) = 0.12179 0.11287
# Poissons Ratio (y) = 0.12179 0.11287
# Poissons Ratio (z) = 0.13171 0.13171
#
# Static dielectric constant tensor:
#      x y z
#    x 3.874250 0.000000 0.000000 
#    y 0.000000 3.874250 0.000000 
#    z 0.000000 0.000000 3.872370 
# 
# 
# High freq. dielectric constant tensor:
#      x y z
#    x 1.815090 0.000000 0.000000 
#    y 0.000000 1.815090 0.000000 
#    z 0.000000 0.000000 1.826270 
# 
# From -- ./inp_files/5797.got.cif
#   From: 2010.03.12/outbox.cif.g09.slc.cpg/sg84_3_cif.got.tgz:5797.got - 2010.04.08 20:07:29.
