data_PCOD8303787
_publ_section_title
;
Structure prediction by ZEFSAII (Michael W. Deem and Ramdas Pophale) SiO2 
 PCOD8303787
Probable space group: I 4/M
;
_chemical_formula_sum "Si O2"
_cell_formula_units_Z 96
_cell_length_a 24.050427
_cell_length_b 24.050427
_cell_length_c 8.984586
_cell_angle_alpha 90.000000
_cell_angle_beta 90.000000
_cell_angle_gamma 90.000000
_cell_volume 5196.891537
_symmetry_space_group_name_H-M "I 4/M"
_symmetry_group_IT_number 87
_symmetry_cell_setting 'tetragonal'
loop_
_space_group_symop_operation_xyz
x,y,z
-y,x,z
-x,-y,z
y,-x,z
-x,-y,-z
y,-x,-z
x,y,-z
-y,x,-z
1/2+x,1/2+y,1/2+z
1/2-y,1/2+x,1/2+z
1/2-x,1/2-y,1/2+z
1/2+y,1/2-x,1/2+z
1/2-x,1/2-y,1/2-z
1/2+y,1/2-x,1/2-z
1/2+x,1/2+y,1/2-z
1/2-y,1/2+x,1/2-z
loop_
_atom_site_type_symbol
_atom_site_label
_atom_site_fract_x
_atom_site_fract_y
_atom_site_fract_z
Si Si1 0.936197 0.938968 0.676878
Si Si2 0.153302 0.850677 0.324364
Si Si3 0.269268 0.864162 0.826703
Si Si4 0.443951 0.854039 0.330714
Si Si5 0.723533 0.860627 0.326215
Si Si6 0.056953 0.351152 0.669286
O O1 0.934599 0.938011 0.500000
O O2 0.890586 0.895544 0.740087
O O3 0.998297 0.922023 0.732092
O O4 0.157576 0.856930 0.500000
O O5 0.211575 0.868424 0.257481
O O6 0.141944 0.787417 0.278056
O O7 0.302192 0.807004 0.788564
O O8 0.304841 0.916662 0.774808
O O9 0.257340 0.869076 0.000000
O O10 0.462430 0.842277 0.500000
O O11 0.409531 0.801485 0.272425
O O12 0.408160 0.909616 0.319123
O O13 0.495698 0.864051 0.224690
O O14 0.715895 0.874915 0.500000
O O15 0.056007 0.329055 0.500000
#
# Coordination Sequence:
#
# PCOD8303787 Si02
#       6
#    16  16  16  16  16  16
#     4   8  15  29  48  71 100 130 161 203 252 300
#     4  10  19  31  52  80 103 132 177 218 257 313
#     4  10  20  34  51  73 105 140 172 214 266 314
#     4  10  21  36  55  79 106 139 179 221 266 315
#     4   9  19  34  51  74 106 140 173 214 264 315
#     4  10  21  37  56  77 105 141 178 219 266 316
#
# _framework density 18.472581999999999
#
# number of rings (size 3 to 8) (size 9 to 14) (size 15 to 20)
#    0.000    2.500    0.000    2.500    0.000    5.000 
#    0.000    5.000    0.000    1.000    0.000    1.167 
#    0.000    0.000    0.000    0.000    0.000    0.000 
#
# Total GULP energy -595212.589891 kJ/mol
# GULP energy per Si atom -12400.262289 kJ/mol
# Density = 1.843054 g / cm^3
# Si number density = 18.472582 Si / 1000 Ang^3
#
#
#
# Elastic Constant Matrix: (Units=GPa)
#
#
# Indices 1 2 3 4 5 6 
#
# 1 85.0889 81.8386 18.3051 0.0000 0.0000 -4.6434
# 2 81.8386 85.0889 18.3051 0.0000 0.0000 4.6434
# 3 18.3051 18.3051 9.4727 0.0000 0.0000 0.0000
# 4 0.0000 0.0000 0.0000 27.5178 0.0000 0.0000
# 5 0.0000 0.0000 0.0000 0.0000 27.5178 0.0000
# 6 -4.6434 4.6434 0.0000 0.0000 0.0000 18.9980
#
#
#
# Elastic Compliance Matrix: (Units=1/GPa)
#
#
# Indices 1 2 3 4 5 6 
#
# 1 0.515177 -0.504780 -0.020091 0.000000 0.000000 0.249295
# 2 -0.504780 0.515177 -0.020091 0.000000 0.000000 -0.249295
# 3 -0.020091 -0.020091 0.183216 0.000000 0.000000 0.000000
# 4 0.000000 0.000000 0.000000 0.036340 0.000000 0.000000
# 5 0.000000 0.000000 0.000000 0.000000 0.036340 0.000000
# 6 0.249295 -0.249295 0.000000 0.000000 0.000000 0.174502
#
#
# Mechanical properties :
#
#
# Convention : Reuss Voigt Hill
#
# Bulk Modulus (GPa) = 8.08766 46.28313 27.18539
# Shear Modulus (GPa) = 1.92909 18.88681 10.40795
#
# Velocity S-wave (km/s) = 1.02302 3.20101 2.37624
# Velocity P-wave (km/s) = 2.40481 6.22666 4.71988
#
# Compressibility (1/GPa) = 0.12364522
#
# Stress axis : x y z
#
# Youngs Moduli (GPa) = 1.94108 1.94108 5.45803
#
# Poissons Ratio (x) = 0.97982 0.10966
# Poissons Ratio (y) = 0.97982 0.10966
# Poissons Ratio (z) = 0.03900 0.03900
#
# Static dielectric constant tensor:
#      x y z
#    x 3.470790 0.000000 0.000000 
#    y 0.000000 3.470790 0.000000 
#    z 0.000000 0.000000 3.278460 
# 
# 
# High freq. dielectric constant tensor:
#      x y z
#    x 1.718650 0.000000 0.000000 
#    y 0.000000 1.718650 0.000000 
#    z 0.000000 0.000000 1.703240 
# 
# From -- ./inp_files/1387.got.cif
#   From: 2010.03.12/outbox.cif.g09.slc.cpg/sg87_1_cif.got.tgz:1387.got - 2010.04.08 20:16:13.
