data_PCOD8303933
_publ_section_title
;
Structure prediction by ZEFSAII (Michael W. Deem and Ramdas Pophale) SiO2 
 PCOD8303933
Probable space group: I 4/M
;
_chemical_formula_sum "Si O2"
_cell_formula_units_Z 76
_cell_length_a 11.159669
_cell_length_b 11.159669
_cell_length_c 31.020629
_cell_angle_alpha 90.000000
_cell_angle_beta 90.000000
_cell_angle_gamma 90.000000
_cell_volume 3863.253677
_symmetry_space_group_name_H-M "I 4/M"
_symmetry_group_IT_number 87
_symmetry_cell_setting 'tetragonal'
loop_
_space_group_symop_operation_xyz
x,y,z
-y,x,z
-x,-y,z
y,-x,z
-x,-y,-z
y,-x,-z
x,y,-z
-y,x,-z
1/2+x,1/2+y,1/2+z
1/2-y,1/2+x,1/2+z
1/2-x,1/2-y,1/2+z
1/2+y,1/2-x,1/2+z
1/2-x,1/2-y,1/2-z
1/2+y,1/2-x,1/2-z
1/2+x,1/2+y,1/2-z
1/2-y,1/2+x,1/2-z
loop_
_atom_site_type_symbol
_atom_site_label
_atom_site_fract_x
_atom_site_fract_y
_atom_site_fract_z
Si Si1 0.449156 0.687210 0.387339
Si Si2 0.965379 0.805623 0.500000
Si Si3 0.500000 0.000000 0.250000
Si Si4 0.770008 0.619816 0.703723
Si Si5 0.087302 0.601765 0.952218
Si Si6 0.364138 0.632281 0.211501
O O1 0.354841 0.583002 0.396860
O O2 0.451659 0.729282 0.337940
O O3 0.410917 0.791121 0.419122
O O4 0.949842 0.722744 0.457302
O O5 0.095794 0.862071 0.500000
O O6 0.443497 0.890300 0.277485
O O7 0.658937 0.631096 0.737022
O O8 0.793040 0.758137 0.689547
O O9 0.000000 0.500000 0.933429
O O10 0.040750 0.643345 0.000000
O O11 0.333442 0.496980 0.196853
#
# Coordination Sequence:
#
# PCOD8303933 Si02
#       6
#    16   8   4  16  16  16
#     4  11  26  42  63  95 129 169 213 271 327 380
#     4   9  19  38  70 101 126 168 212 249 307 380
#     4  12  24  40  60  92 106 172 224 248 344 384
#     4  11  23  39  60  88 123 162 215 270 312 394
#     4   9  22  41  69  97 130 171 210 260 322 379
#     4  10  20  37  60  84 115 161 210 260 317 373
#
# _framework density 19.672536000000001
#
# number of rings (size 3 to 8) (size 9 to 14) (size 15 to 20)
#    0.632    1.158    2.105    1.263    7.368    2.526 
#    0.000    1.053    0.000    2.526    0.000    0.000 
#    0.000    0.000    0.000    0.000    0.000    0.000 
#
# Total GULP energy -470820.573990 kJ/mol
# GULP energy per Si atom -12390.015105 kJ/mol
# Density = 1.962776 g / cm^3
# Si number density = 19.672536 Si / 1000 Ang^3
#
#
#
# Elastic Constant Matrix: (Units=GPa)
#
#
# Indices 1 2 3 4 5 6 
#
# 1 109.1695 63.4796 22.5638 0.0000 0.0000 4.7416
# 2 63.4796 109.1695 22.5638 0.0000 0.0000 -4.7416
# 3 22.5638 22.5638 47.0308 0.0000 0.0000 0.0000
# 4 0.0000 0.0000 0.0000 12.9870 0.0000 0.0000
# 5 0.0000 0.0000 0.0000 0.0000 12.9870 0.0000
# 6 4.7416 -4.7416 0.0000 0.0000 0.0000 21.1247
#
#
#
# Elastic Compliance Matrix: (Units=1/GPa)
#
#
# Indices 1 2 3 4 5 6 
#
# 1 0.014789 -0.008167 -0.003177 0.000000 0.000000 -0.005153
# 2 -0.008167 0.014789 -0.003177 0.000000 0.000000 0.005153
# 3 -0.003177 -0.003177 0.024311 0.000000 0.000000 0.000000
# 4 0.000000 0.000000 0.000000 0.077000 0.000000 0.000000
# 5 0.000000 0.000000 0.000000 0.000000 0.077000 0.000000
# 6 -0.005153 0.005153 0.000000 0.000000 0.000000 0.049651
#
#
# Mechanical properties :
#
#
# Convention : Reuss Voigt Hill
#
# Bulk Modulus (GPa) = 40.24571 53.62046 46.93308
# Shear Modulus (GPa) = 16.95684 19.87059 18.41372
#
# Velocity S-wave (km/s) = 2.93909 3.18160 3.06275
# Velocity P-wave (km/s) = 5.65861 6.38846 6.03458
#
# Compressibility (1/GPa) = 0.02484737
#
# Stress axis : x y z
#
# Youngs Moduli (GPa) = 67.61614 67.61615 41.13304
#
# Poissons Ratio (x) = 0.55221 0.13069
# Poissons Ratio (y) = 0.55221 0.13069
# Poissons Ratio (z) = 0.21484 0.21484
#
# Static dielectric constant tensor:
#      x y z
#    x 3.766910 0.000000 0.000000 
#    y 0.000000 3.766910 0.000000 
#    z 0.000000 0.000000 3.152290 
# 
# 
# High freq. dielectric constant tensor:
#      x y z
#    x 1.782500 0.000000 0.000000 
#    y 0.000000 1.782500 0.000000 
#    z 0.000000 0.000000 1.723140 
# 
# From -- ./inp_files/6543.got.cif
#   From: 2010.03.12/outbox.cif.g09.slc.cpg/sg87_4_cif.got.tgz:6543.got - 2010.04.08 20:16:13.
