data_PCOD8303372
_publ_section_title
;
Structure prediction by ZEFSAII (Michael W. Deem and Ramdas Pophale) SiO2 
 PCOD8303372
Probable space group: P 42/M
;
_chemical_formula_sum "Si O2"
_cell_formula_units_Z 48
_cell_length_a 9.234538
_cell_length_b 9.234538
_cell_length_c 27.406736
_cell_angle_alpha 90.000000
_cell_angle_beta 90.000000
_cell_angle_gamma 90.000000
_cell_volume 2337.155787
_symmetry_space_group_name_H-M "P 42/M"
_symmetry_group_IT_number 84
_symmetry_cell_setting 'tetragonal'
loop_
_space_group_symop_operation_xyz
x,y,z
-y,x,1/2+z
-x,-y,z
y,-x,1/2+z
-x,-y,-z
y,-x,1/2-z
x,y,-z
-y,x,1/2-z
loop_
_atom_site_type_symbol
_atom_site_label
_atom_site_fract_x
_atom_site_fract_y
_atom_site_fract_z
Si Si1 0.516418 0.168946 0.553854
Si Si2 0.170030 0.676672 0.287133
Si Si3 0.996635 0.667873 0.554625
Si Si4 0.233212 0.185751 0.605448
Si Si5 0.338329 0.835096 0.795334
Si Si6 0.842974 0.787961 0.115959
O O1 0.505922 0.243876 0.500000
O O2 0.400018 0.215344 0.594073
O O3 0.665534 0.211801 0.579088
O O4 0.500000 0.000000 0.545220
O O5 0.202331 0.508298 0.296864
O O6 0.254135 0.722722 0.238692
O O7 0.232917 0.780900 0.329665
O O8 0.998628 0.696199 0.278347
O O9 0.060213 0.682624 0.500000
O O10 0.071218 0.767284 0.594967
O O11 0.000000 0.500000 0.571000
O O12 0.839278 0.742601 0.557071
O O13 0.184510 0.280327 0.650689
O O14 0.197404 0.016803 0.615477
#
# Coordination Sequence:
#
# PCOD8303372 Si02
#       6
#     8   8   8   8   8   8
#     4   9  20  38  61  93 131 167 209 261 314 377
#     4  11  25  44  66  93 127 165 210 266 327 388
#     4  11  23  39  61  93 135 175 215 265 320 373
#     4  11  22  39  66  95 127 167 216 266 321 384
#     4  11  25  44  66  93 127 165 210 266 327 388
#     4  11  22  39  66  95 127 167 216 266 321 384
#
# _framework density 20.537785
#
# number of rings (size 3 to 8) (size 9 to 14) (size 15 to 20)
#    0.000    1.333    1.667    3.500    2.333    4.667 
#    0.000    2.500    0.000    6.000    0.000    0.000 
#    0.000    0.000    0.000    0.000    0.000    0.000 
#
# Total GULP energy -594952.249549 kJ/mol
# GULP energy per Si atom -12394.838532 kJ/mol
# Density = 2.049104 g / cm^3
# Si number density = 20.537785 Si / 1000 Ang^3
#
#
#
# Elastic Constant Matrix: (Units=GPa)
#
#
# Indices 1 2 3 4 5 6 
#
# 1 106.7233 40.1805 38.2895 0.0000 0.0000 -0.3869
# 2 40.1805 106.7233 38.2895 0.0000 0.0000 0.3869
# 3 38.2895 38.2895 86.2384 0.0000 0.0000 0.0000
# 4 0.0000 0.0000 0.0000 41.0895 0.0000 0.0000
# 5 0.0000 0.0000 0.0000 0.0000 41.0895 0.0000
# 6 -0.3869 0.3869 0.0000 0.0000 0.0000 18.3504
#
#
#
# Elastic Compliance Matrix: (Units=1/GPa)
#
#
# Indices 1 2 3 4 5 6 
#
# 1 0.011944 -0.003087 -0.003933 0.000000 0.000000 0.000317
# 2 -0.003087 0.011944 -0.003933 0.000000 0.000000 -0.000317
# 3 -0.003933 -0.003933 0.015088 0.000000 0.000000 0.000000
# 4 0.000000 0.000000 0.000000 0.024337 0.000000 0.000000
# 5 0.000000 0.000000 0.000000 0.000000 0.024337 0.000000
# 6 0.000317 -0.000317 0.000000 0.000000 0.000000 0.054508
#
#
# Mechanical properties :
#
#
# Convention : Reuss Voigt Hill
#
# Bulk Modulus (GPa) = 58.57553 59.24489 58.91021
# Shear Modulus (GPa) = 29.45438 32.30094 30.87766
#
# Velocity S-wave (km/s) = 3.79113 3.97010 3.88165
# Velocity P-wave (km/s) = 6.90987 7.06576 6.98825
#
# Compressibility (1/GPa) = 0.01707198
#
# Stress axis : x y z
#
# Youngs Moduli (GPa) = 83.72141 83.72141 66.27865
#
# Poissons Ratio (x) = 0.25847 0.26064
# Poissons Ratio (y) = 0.25847 0.26064
# Poissons Ratio (z) = 0.32924 0.32924
#
# Static dielectric constant tensor:
#      x y z
#    x 3.862290 0.000000 0.000000 
#    y 0.000000 3.862290 0.000000 
#    z 0.000000 0.000000 3.683110 
# 
# 
# High freq. dielectric constant tensor:
#      x y z
#    x 1.803280 0.000000 0.000000 
#    y 0.000000 1.803280 0.000000 
#    z 0.000000 0.000000 1.815990 
# 
# From -- ./inp_files/5781.got.cif
#   From: 2010.03.12/outbox.cif.g09.slc.cpg/sg84_3_cif.got.tgz:5781.got - 2010.04.08 20:07:29.
