data_PCOD8303568
_publ_section_title
;
Structure prediction by ZEFSAII (Michael W. Deem and Ramdas Pophale) SiO2 
 PCOD8303568
Probable space group: P 42/N
;
_chemical_formula_sum "Si O2"
_cell_formula_units_Z 40
_cell_length_a 9.234788
_cell_length_b 9.234788
_cell_length_c 23.454977
_cell_angle_alpha 90.000000
_cell_angle_beta 90.000000
_cell_angle_gamma 90.000000
_cell_volume 2000.271151
_symmetry_space_group_name_H-M "P 42/N"
_symmetry_group_IT_number 86
_space_group.IT_coordinate_system_code '2'
_symmetry_cell_setting 'tetragonal'
loop_
_space_group_symop_operation_xyz
x,y,z
-y,1/2+x,1/2+z
1/2-x,1/2-y,z
1/2+y,-x,1/2+z
-x,-y,-z
y,1/2-x,1/2-z
1/2+x,1/2+y,-z
1/2-y,x,1/2-z
loop_
_atom_site_type_symbol
_atom_site_label
_atom_site_fract_x
_atom_site_fract_y
_atom_site_fract_z
Si Si1 0.043387 0.579019 0.427032
Si Si2 0.219142 0.586071 0.528137
Si Si3 0.884549 0.849410 0.403899
Si Si4 0.410722 0.931295 0.794898
Si Si5 0.416359 0.601256 0.797209
O O1 0.200091 0.567842 0.458891
O O2 0.039089 0.563931 0.359713
O O3 0.939580 0.451517 0.448179
O O4 0.986999 0.742760 0.440665
O O5 0.250000 0.750000 0.546581
O O6 0.338449 0.477713 0.553351
O O7 0.750000 0.750000 0.381754
O O8 0.967636 0.923282 0.350782
O O9 0.460300 0.767615 0.805575
O O10 0.245166 0.926570 0.773818
O O11 0.516847 0.981476 0.745488
#
# Coordination Sequence:
#
# PCOD8303568 Si02
#       5
#     8   8   8   8   8
#     4   9  21  41  58  88 126 159 202 255 307 364
#     4  10  21  36  63  88 122 157 207 255 297 370
#     4   9  20  39  62  91 122 159 211 252 304 371
#     4  10  23  39  64  91 121 162 205 254 309 367
#     4  10  23  41  63  90 122 163 204 258 310 369
#
# _framework density 19.99729
#
# number of rings (size 3 to 8) (size 9 to 14) (size 15 to 20)
#    0.000    2.400    0.000    0.000   14.000    2.800 
#    0.000    0.000    8.800    0.000    0.000    0.000 
#    0.000    0.000    0.000    0.000    0.000    0.000 
#
# Total GULP energy -495684.473586 kJ/mol
# GULP energy per Si atom -12392.111840 kJ/mol
# Density = 1.995178 g / cm^3
# Si number density = 19.997290 Si / 1000 Ang^3
#
#
#
# Elastic Constant Matrix: (Units=GPa)
#
#
# Indices 1 2 3 4 5 6 
#
# 1 91.3664 39.9649 53.2503 0.0000 0.0000 -9.1700
# 2 39.9649 91.3664 53.2503 0.0000 0.0000 9.1700
# 3 53.2503 53.2503 98.4107 0.0000 0.0000 0.0000
# 4 0.0000 0.0000 0.0000 30.9703 0.0000 0.0000
# 5 0.0000 0.0000 0.0000 0.0000 30.9703 0.0000
# 6 -9.1700 9.1700 0.0000 0.0000 0.0000 19.9835
#
#
#
# Elastic Compliance Matrix: (Units=1/GPa)
#
#
# Indices 1 2 3 4 5 6 
#
# 1 0.018416 -0.004848 -0.007342 0.000000 0.000000 0.010675
# 2 -0.004848 0.018416 -0.007342 0.000000 0.000000 -0.010675
# 3 -0.007342 -0.007342 0.018107 0.000000 0.000000 0.000000
# 4 0.000000 0.000000 0.000000 0.032289 0.000000 0.000000
# 5 0.000000 0.000000 0.000000 0.000000 0.032289 0.000000
# 6 0.010675 -0.010675 0.000000 0.000000 0.000000 0.059838
#
#
# Mechanical properties :
#
#
# Convention : Reuss Voigt Hill
#
# Bulk Modulus (GPa) = 62.98847 63.78607 63.38727
# Shear Modulus (GPa) = 22.35051 25.36336 23.85694
#
# Velocity S-wave (km/s) = 3.34679 3.56524 3.45774
# Velocity P-wave (km/s) = 6.81921 6.99389 6.90710
#
# Compressibility (1/GPa) = 0.01587592
#
# Stress axis : x y z
#
# Youngs Moduli (GPa) = 54.30145 54.30145 55.22834
#
# Poissons Ratio (x) = 0.26324 0.40547
# Poissons Ratio (y) = 0.26324 0.40547
# Poissons Ratio (z) = 0.39866 0.39866
#
# Static dielectric constant tensor:
#      x y z
#    x 3.783800 0.000000 0.000000 
#    y 0.000000 3.783800 0.000000 
#    z 0.000000 0.000000 3.547130 
# 
# 
# High freq. dielectric constant tensor:
#      x y z
#    x 1.780890 0.000000 0.000000 
#    y 0.000000 1.780890 0.000000 
#    z 0.000000 0.000000 1.775640 
# 
# From -- ./inp_files/4503.got.cif
#   From: 2010.03.12/outbox.cif.g09.slc.cpg/sg86_3_cif.got.tgz:4503.got - 2010.04.08 20:12:58.
