data_PCOD8303417
_publ_section_title
;
Structure prediction by ZEFSAII (Michael W. Deem and Ramdas Pophale) SiO2 
 PCOD8303417
Probable space group: P 4/N
;
_chemical_formula_sum "Si O2"
_cell_formula_units_Z 64
_cell_length_a 11.496251
_cell_length_b 11.496251
_cell_length_c 23.403135
_cell_angle_alpha 90.000000
_cell_angle_beta 90.000000
_cell_angle_gamma 90.000000
_cell_volume 3093.046951
_symmetry_space_group_name_H-M "P 4/N"
_symmetry_group_IT_number 85
_symmetry_cell_setting 'tetragonal'
loop_
_space_group_symop_operation_xyz
x,y,z
1/2-y,x,z
1/2-x,1/2-y,z
y,1/2-x,z
-x,-y,-z
1/2+y,-x,-z
1/2+x,1/2+y,-z
-y,1/2+x,-z
loop_
_atom_site_type_symbol
_atom_site_label
_atom_site_fract_x
_atom_site_fract_y
_atom_site_fract_z
Si Si1 0.500000 0.500000 0.096198
Si Si2 0.345270 0.417441 0.192679
Si Si3 0.577192 0.668545 0.500000
Si Si4 1.000000 0.500000 0.712329
Si Si5 0.084822 0.846953 1.000000
Si Si6 0.654730 0.582559 0.192679
Si Si7 0.834663 0.575668 0.623277
Si Si8 0.665337 0.924332 0.376723
O O1 0.385547 0.481875 0.135019
O O2 0.516677 0.386665 0.056675
O O3 0.614454 0.518126 0.135019
O O4 0.483324 0.613335 0.056675
O O5 0.207529 0.408137 0.194689
O O6 0.386109 0.491920 0.247492
O O7 0.695966 0.599184 0.500000
O O8 0.515947 0.638072 0.560702
O O9 0.515947 0.638072 0.439297
O O10 0.885368 0.490415 0.671866
O O11 0.008078 0.386110 0.752509
O O12 0.114632 0.509585 0.671866
O O13 0.209428 0.909071 0.000000
O O14 0.792471 0.591863 0.194690
O O15 0.903072 0.698003 0.630639
O O16 0.596928 0.801997 0.369361
#
# Coordination Sequence:
#
# PCOD8303417 Si02
#       8
#     8   8   8   8   8   8   8   8
#     4  10  20  35  58  83 104 136 180 208 234 288
#     4  10  21  37  54  72  98 132 171 216 256 287
#     4   7  12  25  46  70  94 122 158 200 246 298
#     4  11  20  28  48  74  96 123 164 206 254 307
#     4  10  20  34  54  84 120 146 162 194 246 296
#     4  10  21  37  54  72  98 132 171 216 256 287
#     4   9  17  31  50  71  97 128 162 203 251 303
#     4   9  17  31  50  71  97 128 162 203 251 303
#
# _framework density 20.691572000000001
#
# number of rings (size 3 to 8) (size 9 to 14) (size 15 to 20)
#    0.000    2.500    0.000    4.500    0.000    2.500 
#    0.000    0.000    0.000   39.000    0.000    0.000 
#    0.000   24.000    0.000    0.000    0.000    0.000 
#
# Total GULP energy -793038.535354 kJ/mol
# GULP energy per Si atom -12391.227115 kJ/mol
# Density = 2.064448 g / cm^3
# Si number density = 20.691572 Si / 1000 Ang^3
#
#
#
# Elastic Constant Matrix: (Units=GPa)
#
#
# Indices 1 2 3 4 5 6 
#
# 1 44.0077 11.7537 29.8765 0.0000 0.0000 0.2754
# 2 11.7537 44.0077 29.8765 0.0000 0.0000 -0.2754
# 3 29.8765 29.8765 172.0869 0.0000 0.0000 0.0000
# 4 0.0000 0.0000 0.0000 24.6300 0.0000 0.0000
# 5 0.0000 0.0000 0.0000 0.0000 24.6300 0.0000
# 6 0.2754 -0.2754 0.0000 0.0000 0.0000 31.0306
#
#
#
# Elastic Compliance Matrix: (Units=1/GPa)
#
#
# Indices 1 2 3 4 5 6 
#
# 1 0.026521 -0.004488 -0.003825 0.000000 0.000000 -0.000275
# 2 -0.004488 0.026521 -0.003825 0.000000 0.000000 0.000275
# 3 -0.003825 -0.003825 0.007139 0.000000 0.000000 0.000000
# 4 0.000000 0.000000 0.000000 0.040601 0.000000 0.000000
# 5 0.000000 0.000000 0.000000 0.000000 0.040601 0.000000
# 6 -0.000275 0.000275 0.000000 0.000000 0.000000 0.032231
#
#
# Mechanical properties :
#
#
# Convention : Reuss Voigt Hill
#
# Bulk Modulus (GPa) = 27.85226 44.79064 36.32145
# Shear Modulus (GPa) = 23.82564 28.63114 26.22839
#
# Velocity S-wave (km/s) = 3.39701 3.72386 3.56418
# Velocity P-wave (km/s) = 5.37365 6.33903 5.87620
#
# Compressibility (1/GPa) = 0.03590373
#
# Stress axis : x y z
#
# Youngs Moduli (GPa) = 37.70655 37.70655 140.07159
#
# Poissons Ratio (x) = 0.16923 0.53579
# Poissons Ratio (y) = 0.16923 0.53579
# Poissons Ratio (z) = 0.14423 0.14423
#
# Static dielectric constant tensor:
#      x y z
#    x 3.418980 0.000000 0.000000 
#    y 0.000000 3.418980 0.000000 
#    z 0.000000 0.000000 4.265230 
# 
# 
# High freq. dielectric constant tensor:
#      x y z
#    x 1.776080 0.000000 0.000000 
#    y 0.000000 1.776080 0.000000 
#    z 0.000000 0.000000 1.844740 
# 
# From -- ./inp_files/2349.got.cif
#   From: 2010.03.12/outbox.cif.g09.slc.cpg/sg85_cif.got.tgz:2349.got - 2010.04.08 20:10:46.
