data_PCOD8303333
_publ_section_title
;
Structure prediction by ZEFSAII (Michael W. Deem and Ramdas Pophale) SiO2 
 PCOD8303333
Probable space group: P 42/M
;
_chemical_formula_sum "Si O2"
_cell_formula_units_Z 48
_cell_length_a 9.197682
_cell_length_b 9.197682
_cell_length_c 27.858403
_cell_angle_alpha 90.000000
_cell_angle_beta 90.000000
_cell_angle_gamma 90.000000
_cell_volume 2356.747185
_symmetry_space_group_name_H-M "P 42/M"
_symmetry_group_IT_number 84
_symmetry_cell_setting 'tetragonal'
loop_
_space_group_symop_operation_xyz
x,y,z
-y,x,1/2+z
-x,-y,z
y,-x,1/2+z
-x,-y,-z
y,-x,1/2-z
x,y,-z
-y,x,1/2-z
loop_
_atom_site_type_symbol
_atom_site_label
_atom_site_fract_x
_atom_site_fract_y
_atom_site_fract_z
Si Si1 0.673988 0.516599 0.400183
Si Si2 0.848243 0.296439 0.658206
Si Si3 0.654926 0.068960 0.500000
Si Si4 0.339009 0.319469 0.251459
Si Si5 0.026985 0.159998 0.092416
Si Si6 0.182924 0.249017 0.652001
Si Si7 0.649807 0.412929 0.500000
O O1 0.500000 0.500000 0.394038
O O2 0.761675 0.440067 0.357413
O O3 0.727112 0.680789 0.392595
O O4 0.732733 0.461214 0.451731
O O5 0.778955 0.263014 0.710199
O O6 0.812107 0.181182 0.616953
O O7 0.022302 0.317024 0.660962
O O8 0.733246 0.011539 0.547652
O O9 0.632969 0.241299 0.500000
O O10 0.500000 0.000000 0.500000
O O11 0.297433 0.487809 0.245352
O O12 0.275322 0.258144 0.300265
O O13 0.917563 0.178313 0.136687
O O14 0.000000 0.000000 0.070719
O O15 0.500000 0.500000 0.500000
#
# Coordination Sequence:
#
# PCOD8303333 Si02
#       7
#     8   8   4   8   8   8   4
#     4  11  22  42  68  94 135 167 211 272 323 384
#     4  11  23  44  65  92 130 173 221 269 321 392
#     4  12  25  41  71 100 130 174 222 264 325 393
#     4  11  24  41  63  92 130 172 214 274 333 380
#     4  10  25  46  66  93 135 176 216 272 325 384
#     4  11  25  42  66  95 127 174 223 265 326 389
#     4  10  24  41  66  99 133 169 210 267 325 378
#
# _framework density 20.367056999999999
#
# number of rings (size 3 to 8) (size 9 to 14) (size 15 to 20)
#    0.000    1.167    3.333    1.750    7.000    1.333 
#    0.000    2.500    0.000    0.000    0.000    0.000 
#    0.000    0.000    0.000    0.000    0.000    0.000 
#
# Total GULP energy -595040.986712 kJ/mol
# GULP energy per Si atom -12396.687223 kJ/mol
# Density = 2.032070 g / cm^3
# Si number density = 20.367057 Si / 1000 Ang^3
#
#
#
# Elastic Constant Matrix: (Units=GPa)
#
#
# Indices 1 2 3 4 5 6 
#
# 1 81.1458 27.4809 44.9243 0.0000 0.0000 2.0044
# 2 27.4809 81.1458 44.9243 0.0000 0.0000 -2.0044
# 3 44.9243 44.9243 146.7537 0.0000 0.0000 0.0000
# 4 0.0000 0.0000 0.0000 15.0113 0.0000 0.0000
# 5 0.0000 0.0000 0.0000 0.0000 15.0113 0.0000
# 6 2.0044 -2.0044 0.0000 0.0000 0.0000 31.3802
#
#
#
# Elastic Compliance Matrix: (Units=1/GPa)
#
#
# Indices 1 2 3 4 5 6 
#
# 1 0.015525 -0.003198 -0.003774 0.000000 0.000000 -0.001196
# 2 -0.003198 0.015525 -0.003774 0.000000 0.000000 0.001196
# 3 -0.003774 -0.003774 0.009124 0.000000 0.000000 0.000000
# 4 0.000000 0.000000 0.000000 0.066616 0.000000 0.000000
# 5 0.000000 0.000000 0.000000 0.000000 0.066616 0.000000
# 6 -0.001196 0.001196 0.000000 0.000000 0.000000 0.032020
#
#
# Mechanical properties :
#
#
# Convention : Reuss Voigt Hill
#
# Bulk Modulus (GPa) = 53.52071 60.41157 56.96614
# Shear Modulus (GPa) = 21.44571 25.06161 23.25366
#
# Velocity S-wave (km/s) = 3.24846 3.51165 3.38261
# Velocity P-wave (km/s) = 6.35650 6.79471 6.57925
#
# Compressibility (1/GPa) = 0.01868436
#
# Stress axis : x y z
#
# Youngs Moduli (GPa) = 64.41101 64.41101 109.59539
#
# Poissons Ratio (x) = 0.20600 0.41357
# Poissons Ratio (y) = 0.20600 0.41357
# Poissons Ratio (z) = 0.24306 0.24306
#
# Static dielectric constant tensor:
#      x y z
#    x 3.723970 0.000000 0.000000 
#    y 0.000000 3.723970 0.000000 
#    z 0.000000 0.000000 3.974930 
# 
# 
# High freq. dielectric constant tensor:
#      x y z
#    x 1.798200 0.000000 0.000000 
#    y 0.000000 1.798200 0.000000 
#    z 0.000000 0.000000 1.811240 
# 
# From -- ./inp_files/5827.got.cif
#   From: 2010.03.12/outbox.cif.g09.slc.cpg/sg84_3_cif.got.tgz:5827.got - 2010.04.08 20:07:29.
