data_PCOD8303120
_publ_section_title
;
Structure prediction by ZEFSAII (Michael W. Deem and Ramdas Pophale) SiO2 
 PCOD8303120
Probable space group: P 42/M
;
_chemical_formula_sum "Si O2"
_cell_formula_units_Z 48
_cell_length_a 16.504813
_cell_length_b 16.504813
_cell_length_c 10.012966
_cell_angle_alpha 90.000000
_cell_angle_beta 90.000000
_cell_angle_gamma 90.000000
_cell_volume 2727.620575
_symmetry_space_group_name_H-M "P 42/M"
_symmetry_group_IT_number 84
_symmetry_cell_setting 'tetragonal'
loop_
_space_group_symop_operation_xyz
x,y,z
-y,x,1/2+z
-x,-y,z
y,-x,1/2+z
-x,-y,-z
y,-x,1/2-z
x,y,-z
-y,x,1/2-z
loop_
_atom_site_type_symbol
_atom_site_label
_atom_site_fract_x
_atom_site_fract_y
_atom_site_fract_z
Si Si1 0.890248 0.325802 0.153983
Si Si2 0.073117 0.322515 0.156397
Si Si3 0.247146 0.796553 0.843880
Si Si4 0.339234 0.372482 0.352589
Si Si5 0.305606 0.494117 0.855121
Si Si6 0.877724 0.504397 0.850633
O O1 0.828321 0.257822 0.211785
O O2 0.885853 0.416322 0.223005
O O3 0.980952 0.291559 0.170617
O O4 0.864156 0.336913 0.000000
O O5 0.125807 0.261422 0.248434
O O6 0.074704 0.417143 0.208789
O O7 0.101221 0.318335 0.000000
O O8 0.328832 0.745319 0.827702
O O9 0.234115 0.822311 0.000000
O O10 0.341708 0.410104 0.500000
O O11 0.409734 0.306780 0.330631
O O12 0.356786 0.446476 0.254096
O O13 0.213928 0.465336 0.847664
O O14 0.342866 0.472995 0.000000
O O15 0.911076 0.490958 0.000000
#
# Coordination Sequence:
#
# PCOD8303120 Si02
#       6
#     8   8   8   8   8   8
#     4   9  17  31  52  77 102 131 165 200 244 297
#     4  10  19  31  53  81 102 124 164 210 245 286
#     4  10  19  33  52  72 101 135 161 192 246 306
#     4  10  20  33  49  69  96 133 171 205 244 292
#     4  10  19  32  50  70  96 129 170 212 245 284
#     4   9  15  27  49  77 101 123 158 206 248 284
#
# _framework density 17.597754999999999
#
# number of rings (size 3 to 8) (size 9 to 14) (size 15 to 20)
#    0.000    2.333    3.333    0.500    0.000    3.000 
#    0.000    2.500    0.000    4.500    0.000    3.500 
#    0.000    0.000    0.000    0.000    0.000    0.000 
#
# Total GULP energy -594629.583746 kJ/mol
# GULP energy per Si atom -12388.116328 kJ/mol
# Density = 1.755770 g / cm^3
# Si number density = 17.597755 Si / 1000 Ang^3
#
#
#
# Elastic Constant Matrix: (Units=GPa)
#
#
# Indices 1 2 3 4 5 6 
#
# 1 80.1456 32.8300 35.9592 0.0000 0.0000 1.3062
# 2 32.8300 80.1456 35.9592 0.0000 0.0000 -1.3062
# 3 35.9592 35.9592 61.7564 0.0000 0.0000 0.0000
# 4 0.0000 0.0000 0.0000 22.6682 0.0000 0.0000
# 5 0.0000 0.0000 0.0000 0.0000 22.6682 0.0000
# 6 1.3062 -1.3062 0.0000 0.0000 0.0000 21.0844
#
#
#
# Elastic Compliance Matrix: (Units=1/GPa)
#
#
# Indices 1 2 3 4 5 6 
#
# 1 0.017636 -0.003571 -0.008190 0.000000 0.000000 -0.001314
# 2 -0.003571 0.017636 -0.008190 0.000000 0.000000 0.001314
# 3 -0.008190 -0.008190 0.025730 0.000000 0.000000 0.000000
# 4 0.000000 0.000000 0.000000 0.044115 0.000000 0.000000
# 5 0.000000 0.000000 0.000000 0.000000 0.044115 0.000000
# 6 -0.001314 0.001314 0.000000 0.000000 0.000000 0.047591
#
#
# Mechanical properties :
#
#
# Convention : Reuss Voigt Hill
#
# Bulk Modulus (GPa) = 47.39085 47.94938 47.67011
# Shear Modulus (GPa) = 20.51221 21.10407 20.80814
#
# Velocity S-wave (km/s) = 3.41781 3.46677 3.44238
# Velocity P-wave (km/s) = 6.52409 6.58265 6.55344
#
# Compressibility (1/GPa) = 0.02110112
#
# Stress axis : x y z
#
# Youngs Moduli (GPa) = 56.70206 56.70206 38.86534
#
# Poissons Ratio (x) = 0.20249 0.31829
# Poissons Ratio (y) = 0.20249 0.31829
# Poissons Ratio (z) = 0.46437 0.46437
#
# Static dielectric constant tensor:
#      x y z
#    x 3.162100 0.000000 0.000000 
#    y 0.000000 3.162100 0.000000 
#    z 0.000000 0.000000 3.047460 
# 
# 
# High freq. dielectric constant tensor:
#      x y z
#    x 1.672650 0.000000 0.000000 
#    y 0.000000 1.672650 0.000000 
#    z 0.000000 0.000000 1.636890 
# 
# From -- ./inp_files/1006.got.cif
#   From: 2010.03.12/outbox.cif.g09.slc.cpg/sg84_1_cif.got.tgz:1006.got - 2010.04.08 20:07:29.
