data_PCOD8303885
_publ_section_title
;
Structure prediction by ZEFSAII (Michael W. Deem and Ramdas Pophale) SiO2 
 PCOD8303885
Probable space group: I 4/M
;
_chemical_formula_sum "Si O2"
_cell_formula_units_Z 120
_cell_length_a 25.856640
_cell_length_b 25.856640
_cell_length_c 9.930235
_cell_angle_alpha 90.000000
_cell_angle_beta 90.000000
_cell_angle_gamma 90.000000
_cell_volume 6639.015826
_symmetry_space_group_name_H-M "I 4/M"
_symmetry_group_IT_number 87
_symmetry_cell_setting 'tetragonal'
loop_
_space_group_symop_operation_xyz
x,y,z
-y,x,z
-x,-y,z
y,-x,z
-x,-y,-z
y,-x,-z
x,y,-z
-y,x,-z
1/2+x,1/2+y,1/2+z
1/2-y,1/2+x,1/2+z
1/2-x,1/2-y,1/2+z
1/2+y,1/2-x,1/2+z
1/2-x,1/2-y,1/2-z
1/2+y,1/2-x,1/2-z
1/2+x,1/2+y,1/2-z
1/2-y,1/2+x,1/2-z
loop_
_atom_site_type_symbol
_atom_site_label
_atom_site_fract_x
_atom_site_fract_y
_atom_site_fract_z
Si Si1 0.856091 0.659586 0.345190
Si Si2 0.971386 0.826925 0.284422
Si Si3 0.077632 0.805064 0.843960
Si Si4 0.084593 0.978843 0.500000
Si Si5 0.767950 0.298285 0.337155
Si Si6 0.791533 0.465693 0.851177
Si Si7 0.810027 0.554552 0.651777
Si Si8 0.634808 0.672779 0.654348
O O1 0.839617 0.674322 0.500000
O O2 0.816124 0.678722 0.231059
O O3 0.911481 0.683197 0.310192
O O4 0.855382 0.597040 0.330912
O O5 0.963981 0.771012 0.354410
O O6 0.926009 0.832005 0.176175
O O7 0.026283 0.829734 0.215198
O O8 0.968084 0.877611 0.375797
O O9 0.082681 0.744242 0.815446
O O10 0.126483 0.833359 0.772780
O O11 0.075600 0.817573 0.000000
O O12 0.062078 0.037284 0.500000
O O13 0.773095 0.287924 0.500000
O O14 0.750000 0.250000 0.250000
O O15 0.728134 0.344070 0.299756
O O16 0.817112 0.506449 0.750087
O O17 0.809880 0.481352 0.000000
O O18 0.809327 0.532220 0.500000
O O19 0.647918 0.666760 0.500000
#
# Coordination Sequence:
#
# PCOD8303885 Si02
#       8
#    16  16  16   8  16  16  16  16
#     4  10  20  37  57  82 114 151 185 236 290 345
#     4  11  19  35  54  76 101 141 188 231 283 337
#     4   9  18  32  52  76 101 135 177 232 279 332
#     4  11  24  38  52  74 110 150 192 243 296 348
#     4  11  22  35  53  80 115 153 189 231 286 356
#     4  10  20  35  57  84 113 142 187 238 281 339
#     4   9  19  35  57  79 111 147 184 224 285 344
#     4  10  20  34  53  77 105 138 181 232 281 338
#
# _framework density 18.074967999999998
#
# number of rings (size 3 to 8) (size 9 to 14) (size 15 to 20)
#    0.000    1.933    2.000    2.400    0.000    3.733 
#    1.200    0.000    0.000    0.400    0.000    8.400 
#    0.000    0.000    0.000    0.000    0.000    0.000 
#
# Total GULP energy -743484.791144 kJ/mol
# GULP energy per Si atom -12391.413186 kJ/mol
# Density = 1.803383 g / cm^3
# Si number density = 18.074968 Si / 1000 Ang^3
#
#
#
# Elastic Constant Matrix: (Units=GPa)
#
#
# Indices 1 2 3 4 5 6 
#
# 1 80.7083 36.0179 40.1967 0.0000 0.0000 1.5260
# 2 36.0179 80.7083 40.1967 0.0000 0.0000 -1.5260
# 3 40.1967 40.1967 80.9569 0.0000 0.0000 0.0000
# 4 0.0000 0.0000 0.0000 26.4760 0.0000 0.0000
# 5 0.0000 0.0000 0.0000 0.0000 26.4760 0.0000
# 6 1.5260 -1.5260 0.0000 0.0000 0.0000 32.0069
#
#
#
# Elastic Compliance Matrix: (Units=1/GPa)
#
#
# Indices 1 2 3 4 5 6 
#
# 1 0.017734 -0.004715 -0.006464 0.000000 0.000000 -0.001070
# 2 -0.004715 0.017734 -0.006464 0.000000 0.000000 0.001070
# 3 -0.006464 -0.006464 0.018772 0.000000 0.000000 0.000000
# 4 0.000000 0.000000 0.000000 0.037770 0.000000 0.000000
# 5 0.000000 0.000000 0.000000 0.000000 0.037770 0.000000
# 6 -0.001070 0.001070 0.000000 0.000000 0.000000 0.031345
#
#
# Mechanical properties :
#
#
# Convention : Reuss Voigt Hill
#
# Bulk Modulus (GPa) = 52.76259 52.79955 52.78107
# Shear Modulus (GPa) = 24.66332 25.38929 25.02631
#
# Velocity S-wave (km/s) = 3.69792 3.75195 3.72504
# Velocity P-wave (km/s) = 6.89110 6.93140 6.91128
#
# Compressibility (1/GPa) = 0.01895282
#
# Stress axis : x y z
#
# Youngs Moduli (GPa) = 56.38810 56.38810 53.27208
#
# Poissons Ratio (x) = 0.26587 0.34437
# Poissons Ratio (y) = 0.26587 0.34437
# Poissons Ratio (z) = 0.36451 0.36451
#
# Static dielectric constant tensor:
#      x y z
#    x 3.441860 0.000000 0.000000 
#    y 0.000000 3.441860 0.000000 
#    z 0.000000 0.000000 3.377140 
# 
# 
# High freq. dielectric constant tensor:
#      x y z
#    x 1.696580 0.000000 0.000000 
#    y 0.000000 1.696580 0.000000 
#    z 0.000000 0.000000 1.695650 
# 
# From -- ./inp_files/1687.got.cif
#   From: 2010.03.12/outbox.cif.g09.slc.cpg/sg87_1_cif.got.tgz:1687.got - 2010.04.08 20:16:13.
