data_PCOD8303006
_publ_section_title
;
Structure prediction by ZEFSAII (Michael W. Deem and Ramdas Pophale) SiO2 
 PCOD8303006
Probable space group: P 4/M
;
_chemical_formula_sum "Si O2"
_cell_formula_units_Z 40
_cell_length_a 8.220680
_cell_length_b 8.220680
_cell_length_c 27.086697
_cell_angle_alpha 90.000000
_cell_angle_beta 90.000000
_cell_angle_gamma 90.000000
_cell_volume 1830.507598
_symmetry_space_group_name_H-M "P 4/M"
_symmetry_group_IT_number 83
_symmetry_cell_setting 'tetragonal'
loop_
_space_group_symop_operation_xyz
x,y,z
-y,x,z
-x,-y,z
y,-x,z
-x,-y,-z
y,-x,-z
x,y,-z
-y,x,-z
loop_
_atom_site_type_symbol
_atom_site_label
_atom_site_fract_x
_atom_site_fract_y
_atom_site_fract_z
Si Si1 0.112514 0.758124 0.444057
Si Si2 0.079487 0.742859 0.263619
Si Si3 0.405097 0.250075 0.646828
Si Si4 0.244866 0.419207 0.000000
Si Si5 0.000000 0.500000 0.815560
Si Si6 0.578772 0.242196 0.893849
O O1 0.139690 0.697561 0.500000
O O2 0.177631 0.618251 0.407972
O O3 0.923085 0.788786 0.433919
O O4 0.112182 0.646898 0.314282
O O5 0.893123 0.798182 0.260914
O O6 0.109213 0.619937 0.218138
O O7 0.592259 0.293042 0.654632
O O8 0.396748 0.301355 0.000000
O O9 0.152428 0.391431 0.052417
O O10 0.114685 0.388374 0.850239
O O11 0.699844 0.392650 0.888739
#
# Coordination Sequence:
#
# PCOD8303006 Si02
#       6
#     8   8   8   4   4   8
#     4   9  19  37  61  89 120 154 192 233 281 340
#     4  11  24  41  59  79 108 148 191 235 287 349
#     4  11  24  40  59  85 116 149 190 242 292 337
#     4   7  12  27  50  76 108 146 184 220 266 329
#     4  12  22  35  56  84 111 140 186 240 288 332
#     4   9  18  33  54  80 112 148 184 226 277 332
#
# _framework density 21.851863999999999
#
# number of rings (size 3 to 8) (size 9 to 14) (size 15 to 20)
#    0.000    2.100    0.000    5.400    0.000    5.200 
#    0.000    5.000    0.000    0.000    0.000    0.000 
#    0.000   12.800    0.000    0.000    0.000    0.000 
#
# Total GULP energy -495840.991700 kJ/mol
# GULP energy per Si atom -12396.024792 kJ/mol
# Density = 2.180213 g / cm^3
# Si number density = 21.851864 Si / 1000 Ang^3
#
#
#
# Elastic Constant Matrix: (Units=GPa)
#
#
# Indices 1 2 3 4 5 6 
#
# 1 56.9832 11.3671 42.2613 0.0000 0.0000 -4.1215
# 2 11.3671 56.9832 42.2613 0.0000 0.0000 4.1215
# 3 42.2613 42.2613 177.9447 0.0000 0.0000 0.0000
# 4 0.0000 0.0000 0.0000 19.0357 0.0000 0.0000
# 5 0.0000 0.0000 0.0000 0.0000 19.0357 0.0000
# 6 -4.1215 4.1215 0.0000 0.0000 0.0000 27.9698
#
#
#
# Elastic Compliance Matrix: (Units=1/GPa)
#
#
# Indices 1 2 3 4 5 6 
#
# 1 0.021618 -0.000904 -0.004920 0.000000 0.000000 0.003319
# 2 -0.000904 0.021618 -0.004920 0.000000 0.000000 -0.003319
# 3 -0.004920 -0.004920 0.007956 0.000000 0.000000 0.000000
# 4 0.000000 0.000000 0.000000 0.052533 0.000000 0.000000
# 5 0.000000 0.000000 0.000000 0.000000 0.052533 0.000000
# 6 0.003319 -0.003319 0.000000 0.000000 0.000000 0.036731
#
#
# Mechanical properties :
#
#
# Convention : Reuss Voigt Hill
#
# Bulk Modulus (GPa) = 33.66271 53.74339 43.70305
# Shear Modulus (GPa) = 22.28391 26.27631 24.28011
#
# Velocity S-wave (km/s) = 3.19685 3.47143 3.33697
# Velocity P-wave (km/s) = 5.39119 6.38088 5.90680
#
# Compressibility (1/GPa) = 0.02970646
#
# Stress axis : x y z
#
# Youngs Moduli (GPa) = 46.25793 46.25793 125.68402
#
# Poissons Ratio (x) = 0.04181 0.61830
# Poissons Ratio (y) = 0.04181 0.61830
# Poissons Ratio (z) = 0.22757 0.22757
#
# Static dielectric constant tensor:
#      x y z
#    x 3.673980 0.000000 0.000000 
#    y 0.000000 3.673980 0.000000 
#    z 0.000000 0.000000 4.256080 
# 
# 
# High freq. dielectric constant tensor:
#      x y z
#    x 1.840690 0.000000 0.000000 
#    y 0.000000 1.840690 0.000000 
#    z 0.000000 0.000000 1.879540 
# 
# From -- ./inp_files/3138.got.cif
#   From: 2010.03.12/outbox.cif.g09.slc.cpg/sg83_2_cif.got.tgz:3138.got - 2010.04.08 20:05:18.
