data_PCOD8303049
_publ_section_title
;
Structure prediction by ZEFSAII (Michael W. Deem and Ramdas Pophale) SiO2 
 PCOD8303049
Probable space group: P 42/M
;
_chemical_formula_sum "Si O2"
_cell_formula_units_Z 44
_cell_length_a 8.412071
_cell_length_b 8.412071
_cell_length_c 28.753795
_cell_angle_alpha 90.000000
_cell_angle_beta 90.000000
_cell_angle_gamma 90.000000
_cell_volume 2034.703027
_symmetry_space_group_name_H-M "P 42/M"
_symmetry_group_IT_number 84
_symmetry_cell_setting 'tetragonal'
loop_
_space_group_symop_operation_xyz
x,y,z
-y,x,1/2+z
-x,-y,z
y,-x,1/2+z
-x,-y,-z
y,-x,1/2-z
x,y,-z
-y,x,1/2-z
loop_
_atom_site_type_symbol
_atom_site_label
_atom_site_fract_x
_atom_site_fract_y
_atom_site_fract_z
Si Si1 0.254122 0.567102 0.825736
Si Si2 0.179132 0.036558 0.000000
Si Si3 0.065181 0.244096 0.174603
Si Si4 0.183891 0.427991 0.500000
Si Si5 0.911844 0.259519 0.399557
Si Si6 0.500000 0.500000 0.250000
Si Si7 0.241949 0.422715 0.399225
Si Si8 0.000000 0.000000 0.250000
O O1 0.187087 0.390048 0.825980
O O2 0.367283 0.587875 0.781163
O O3 0.358637 0.603296 0.872066
O O4 0.115302 0.696865 0.824689
O O5 0.233597 0.134008 0.953981
O O6 0.242000 0.855453 0.000000
O O7 0.000000 0.000000 0.000000
O O8 0.102526 0.136489 0.129278
O O9 0.090245 0.132831 0.219410
O O10 0.283364 0.462668 0.453304
O O11 0.000000 0.500000 0.500000
O O12 0.815738 0.409214 0.377996
O O13 0.099959 0.293572 0.395191
#
# Coordination Sequence:
#
# PCOD8303049 Si02
#       8
#     8   4   8   4   8   2   8   2
#     4  11  25  42  65  92 125 161 210 267 326 378
#     4  10  20  30  57  94 127 170 208 259 305 361
#     4  11  25  42  62  96 125 154 206 271 325 382
#     4  10  16  36  59  96 133 168 223 253 296 390
#     4  10  20  37  61  93 128 165 214 252 307 378
#     4  12  24  48  68  82 116 180 216 252 320 410
#     4  10  19  37  64  94 127 173 211 257 305 382
#     4  12  24  44  68  86 120 164 204 260 328 394
#
# _framework density 21.624775
#
# number of rings (size 3 to 8) (size 9 to 14) (size 15 to 20)
#    0.000    1.455    3.636    3.273    6.364    0.000 
#    0.000    4.545    0.000    4.909    0.000    0.000 
#    0.000    0.000    0.000    0.000    0.000    0.000 
#
# Total GULP energy -545244.934469 kJ/mol
# GULP energy per Si atom -12391.930329 kJ/mol
# Density = 2.157556 g / cm^3
# Si number density = 21.624775 Si / 1000 Ang^3
#
#
#
# Elastic Constant Matrix: (Units=GPa)
#
#
# Indices 1 2 3 4 5 6 
#
# 1 96.5733 42.6575 58.8167 0.0000 0.0000 -8.2467
# 2 42.6575 96.5733 58.8167 0.0000 0.0000 8.2467
# 3 58.8167 58.8167 174.3823 0.0000 0.0000 0.0000
# 4 0.0000 0.0000 0.0000 35.5473 0.0000 0.0000
# 5 0.0000 0.0000 0.0000 0.0000 35.5473 0.0000
# 6 -8.2467 8.2467 0.0000 0.0000 0.0000 42.9483
#
#
#
# Elastic Compliance Matrix: (Units=1/GPa)
#
#
# Indices 1 2 3 4 5 6 
#
# 1 0.014875 -0.004830 -0.003388 0.000000 0.000000 0.003784
# 2 -0.004830 0.014875 -0.003388 0.000000 0.000000 -0.003784
# 3 -0.003388 -0.003388 0.008020 0.000000 0.000000 0.000000
# 4 0.000000 0.000000 0.000000 0.028132 0.000000 0.000000
# 5 0.000000 0.000000 0.000000 0.000000 0.028132 0.000000
# 6 0.003784 -0.003784 0.000000 0.000000 0.000000 0.024737
#
#
# Mechanical properties :
#
#
# Convention : Reuss Voigt Hill
#
# Bulk Modulus (GPa) = 68.69258 76.45674 72.57466
# Shear Modulus (GPa) = 34.05208 36.62444 35.33826
#
# Velocity S-wave (km/s) = 3.97253 4.11984 4.04686
# Velocity P-wave (km/s) = 7.27158 7.61995 7.44780
#
# Compressibility (1/GPa) = 0.01455761
#
# Stress axis : x y z
#
# Youngs Moduli (GPa) = 67.22785 67.22785 124.68917
#
# Poissons Ratio (x) = 0.32471 0.42244
# Poissons Ratio (y) = 0.32471 0.42244
# Poissons Ratio (z) = 0.22776 0.22776
#
# Static dielectric constant tensor:
#      x y z
#    x 3.823180 0.000000 0.000000 
#    y 0.000000 3.823180 0.000000 
#    z 0.000000 0.000000 3.952850 
# 
# 
# High freq. dielectric constant tensor:
#      x y z
#    x 1.842480 0.000000 0.000000 
#    y 0.000000 1.842480 0.000000 
#    z 0.000000 0.000000 1.851330 
# 
# From -- ./inp_files/5728.got.cif
#   From: 2010.03.12/outbox.cif.g09.slc.cpg/sg84_3_cif.got.tgz:5728.got - 2010.04.08 20:07:29.
