data_PCOD8303515
_publ_section_title
;
Structure prediction by ZEFSAII (Michael W. Deem and Ramdas Pophale) SiO2 
 PCOD8303515
Probable space group: P 42/N
;
_chemical_formula_sum "Si O2"
_cell_formula_units_Z 36
_cell_length_a 7.904702
_cell_length_b 7.904702
_cell_length_c 27.082501
_cell_angle_alpha 90.000000
_cell_angle_beta 90.000000
_cell_angle_gamma 90.000000
_cell_volume 1692.231489
_symmetry_space_group_name_H-M "P 42/N"
_symmetry_group_IT_number 86
_space_group.IT_coordinate_system_code '2'
_symmetry_cell_setting 'tetragonal'
loop_
_space_group_symop_operation_xyz
x,y,z
-y,1/2+x,1/2+z
1/2-x,1/2-y,z
1/2+y,-x,1/2+z
-x,-y,-z
y,1/2-x,1/2-z
1/2+x,1/2+y,-z
1/2-y,x,1/2-z
loop_
_atom_site_type_symbol
_atom_site_label
_atom_site_fract_x
_atom_site_fract_y
_atom_site_fract_z
Si Si1 0.250000 0.750000 0.166727
Si Si2 0.750000 0.250000 0.666727
Si Si3 0.516855 0.166138 0.415978
Si Si4 0.166138 0.983145 0.415978
Si Si5 0.517526 0.336249 0.250000
Si Si6 0.250000 0.750000 0.000000
O O1 0.131027 0.865664 0.131675
O O2 0.132769 0.630534 0.201239
O O3 0.868973 0.134336 0.631675
O O4 0.867231 0.369466 0.701239
O O5 0.460534 0.361803 0.414230
O O6 0.623068 0.139727 0.466099
O O7 0.361803 0.039466 0.414230
O O8 0.139727 0.876932 0.466099
O O9 0.460832 0.139849 0.250000
#
# Coordination Sequence:
#
# PCOD8303515 Si02
#       6
#     4   4   8   8   8   4
#     4  10  20  32  54  80 104 134 176 218 252 306
#     4  10  20  32  54  80 104 134 176 218 252 306
#     4  10  20  35  55  78 106 141 177 214 262 316
#     4  10  20  35  55  78 106 141 177 214 262 316
#     4  10  20  36  58  80 104 138 176 214 262 316
#     4  10  20  34  56  82 108 134 176 226 264 302
#
# _framework density 21.273685
#
# number of rings (size 3 to 8) (size 9 to 14) (size 15 to 20)
#    0.000    2.000    0.000    4.000    0.000    3.556 
#    0.000    0.000    0.000   97.333    0.000    0.000 
#    0.000    0.000    0.000    0.000    0.000    0.000 
#
# Total GULP energy -446354.075171 kJ/mol
# GULP energy per Si atom -12398.724310 kJ/mol
# Density = 2.122527 g / cm^3
# Si number density = 21.273685 Si / 1000 Ang^3
#
#
#
# Elastic Constant Matrix: (Units=GPa)
#
#
# Indices 1 2 3 4 5 6 
#
# 1 79.7986 8.1584 34.1356 0.0000 0.0000 4.3629
# 2 8.1584 79.7986 34.1356 0.0000 0.0000 -4.3629
# 3 34.1356 34.1356 165.8073 0.0000 0.0000 0.0000
# 4 0.0000 0.0000 0.0000 21.1946 0.0000 0.0000
# 5 0.0000 0.0000 0.0000 0.0000 21.1946 0.0000
# 6 4.3629 -4.3629 0.0000 0.0000 0.0000 18.9498
#
#
#
# Elastic Compliance Matrix: (Units=1/GPa)
#
#
# Indices 1 2 3 4 5 6 
#
# 1 0.013946 -0.000415 -0.002786 0.000000 0.000000 -0.003306
# 2 -0.000415 0.013946 -0.002786 0.000000 0.000000 0.003306
# 3 -0.002786 -0.002786 0.007178 0.000000 0.000000 0.000000
# 4 0.000000 0.000000 0.000000 0.047182 0.000000 0.000000
# 5 0.000000 0.000000 0.000000 0.000000 0.047182 0.000000
# 6 -0.003306 0.003306 0.000000 0.000000 0.000000 0.054293
#
#
# Mechanical properties :
#
#
# Convention : Reuss Voigt Hill
#
# Bulk Modulus (GPa) = 43.29389 53.14043 48.21716
# Shear Modulus (GPa) = 24.58205 28.86614 26.72409
#
# Velocity S-wave (km/s) = 3.40297 3.68760 3.54814
# Velocity P-wave (km/s) = 5.98627 6.57000 6.28491
#
# Compressibility (1/GPa) = 0.02309795
#
# Stress axis : x y z
#
# Youngs Moduli (GPa) = 71.70295 71.70295 139.31162
#
# Poissons Ratio (x) = 0.02975 0.38809
# Poissons Ratio (y) = 0.02975 0.38809
# Poissons Ratio (z) = 0.19975 0.19975
#
# Static dielectric constant tensor:
#      x y z
#    x 3.623480 0.000000 0.000000 
#    y 0.000000 3.623480 0.000000 
#    z 0.000000 0.000000 4.134010 
# 
# 
# High freq. dielectric constant tensor:
#      x y z
#    x 1.812390 0.000000 0.000000 
#    y 0.000000 1.812390 0.000000 
#    z 0.000000 0.000000 1.863840 
# 
# From -- ./inp_files/4776.got.cif
#   From: 2010.03.12/outbox.cif.g09.slc.cpg/sg86_3_cif.got.tgz:4776.got - 2010.04.08 20:12:58.
