data_PCOD8303147
_publ_section_title
;
Structure prediction by ZEFSAII (Michael W. Deem and Ramdas Pophale) SiO2 
 PCOD8303147
Probable space group: P 42/M
;
_chemical_formula_sum "Si O2"
_cell_formula_units_Z 58
_cell_length_a 17.872329
_cell_length_b 17.872329
_cell_length_c 9.457365
_cell_angle_alpha 90.000000
_cell_angle_beta 90.000000
_cell_angle_gamma 90.000000
_cell_volume 3020.872889
_symmetry_space_group_name_H-M "P 42/M"
_symmetry_group_IT_number 84
_symmetry_cell_setting 'tetragonal'
loop_
_space_group_symop_operation_xyz
x,y,z
-y,x,1/2+z
-x,-y,z
y,-x,1/2+z
-x,-y,-z
y,-x,1/2-z
x,y,-z
-y,x,1/2-z
loop_
_atom_site_type_symbol
_atom_site_label
_atom_site_fract_x
_atom_site_fract_y
_atom_site_fract_z
Si Si1 0.354093 0.427623 0.340649
Si Si2 0.649600 0.736427 0.339786
Si Si3 0.678455 0.955261 0.835713
Si Si4 0.812961 0.226788 0.664138
Si Si5 0.121889 0.552072 0.161690
Si Si6 0.119121 0.272840 0.660841
Si Si7 0.809970 0.568543 0.337093
Si Si8 0.500000 0.500000 0.750000
O O1 0.328616 0.421869 0.500000
O O2 0.382299 0.345057 0.293890
O O3 0.273619 0.448094 0.270386
O O4 0.422261 0.487044 0.332493
O O5 0.683130 0.736438 0.500000
O O6 0.712346 0.757025 0.227658
O O7 0.582226 0.793979 0.330609
O O8 0.746971 0.898032 0.809392
O O9 0.607448 0.935340 0.739161
O O10 0.706313 0.036218 0.787432
O O11 0.653393 0.953891 0.000000
O O12 0.795010 0.217063 0.500000
O O13 0.795902 0.148639 0.743203
O O14 0.126665 0.473755 0.245022
O O15 0.095148 0.540173 0.000000
O O16 0.116326 0.244488 0.500000
O O17 0.174362 0.343410 0.676718
O O18 0.818611 0.541949 0.500000
#
# Coordination Sequence:
#
# PCOD8303147 Si02
#       8
#     8   8   8   8   8   8   8   2
#     4  10  20  35  51  70  97 137 187 231 270 325
#     4   9  17  34  55  72  99 142 187 220 263 328
#     4   9  20  37  57  82 110 144 181 216 261 322
#     4  10  19  33  56  86 112 132 169 226 270 306
#     4  10  20  33  52  79 111 143 176 225 278 321
#     4  10  20  37  60  81 107 146 185 214 257 327
#     4  10  20  35  55  74 101 142 185 227 266 324
#     4  12  22  32  48  74 108 136 174 244 300 314
#
# _framework density 19.199749000000001
#
# number of rings (size 3 to 8) (size 9 to 14) (size 15 to 20)
#    0.000    2.207    1.379    1.862    0.000    2.759 
#    0.000    4.828    0.000    0.414    0.000    2.897 
#    0.000    0.000    0.000    0.000    0.000    0.000 
#
# Total GULP energy -718779.031280 kJ/mol
# GULP energy per Si atom -12392.741919 kJ/mol
# Density = 1.915605 g / cm^3
# Si number density = 19.199749 Si / 1000 Ang^3
#
#
#
# Elastic Constant Matrix: (Units=GPa)
#
#
# Indices 1 2 3 4 5 6 
#
# 1 84.2023 20.7068 27.6915 0.0000 0.0000 -0.6146
# 2 20.7068 84.2023 27.6915 0.0000 0.0000 0.6146
# 3 27.6915 27.6915 76.8693 0.0000 0.0000 0.0000
# 4 0.0000 0.0000 0.0000 25.7024 0.0000 0.0000
# 5 0.0000 0.0000 0.0000 0.0000 25.7024 0.0000
# 6 -0.6146 0.6146 0.0000 0.0000 0.0000 14.2882
#
#
#
# Elastic Compliance Matrix: (Units=1/GPa)
#
#
# Indices 1 2 3 4 5 6 
#
# 1 0.013766 -0.001996 -0.004240 0.000000 0.000000 0.000678
# 2 -0.001996 0.013766 -0.004240 0.000000 0.000000 -0.000678
# 3 -0.004240 -0.004240 0.016064 0.000000 0.000000 0.000000
# 4 0.000000 0.000000 0.000000 0.038907 0.000000 0.000000
# 5 0.000000 0.000000 0.000000 0.000000 0.038907 0.000000
# 6 0.000678 -0.000678 0.000000 0.000000 0.000000 0.070046
#
#
# Mechanical properties :
#
#
# Convention : Reuss Voigt Hill
#
# Bulk Modulus (GPa) = 44.16131 44.16149 44.16140
# Shear Modulus (GPa) = 22.73166 24.41753 23.57459
#
# Velocity S-wave (km/s) = 3.44460 3.57005 3.50788
# Velocity P-wave (km/s) = 6.23468 6.32809 6.28156
#
# Compressibility (1/GPa) = 0.02264426
#
# Stress axis : x y z
#
# Youngs Moduli (GPa) = 72.64055 72.64055 62.25059
#
# Poissons Ratio (x) = 0.14498 0.26396
# Poissons Ratio (y) = 0.14498 0.26396
# Poissons Ratio (z) = 0.30801 0.30801
#
# Static dielectric constant tensor:
#      x y z
#    x 3.422760 0.000000 0.000000 
#    y 0.000000 3.422760 0.000000 
#    z 0.000000 0.000000 3.485800 
# 
# 
# High freq. dielectric constant tensor:
#      x y z
#    x 1.737970 0.000000 0.000000 
#    y 0.000000 1.737970 0.000000 
#    z 0.000000 0.000000 1.736330 
# 
# From -- ./inp_files/1160.got.cif
#   From: 2010.03.12/outbox.cif.g09.slc.cpg/sg84_1_cif.got.tgz:1160.got - 2010.04.08 20:07:29.
