data_PCOD8303850
_publ_section_title
;
Structure prediction by ZEFSAII (Michael W. Deem and Ramdas Pophale) SiO2 
 PCOD8303850
Probable space group: I 4/M
;
_chemical_formula_sum "Si O2"
_cell_formula_units_Z 88
_cell_length_a 14.197427
_cell_length_b 14.197427
_cell_length_c 19.895653
_cell_angle_alpha 90.000000
_cell_angle_beta 90.000000
_cell_angle_gamma 90.000000
_cell_volume 4010.305764
_symmetry_space_group_name_H-M "I 4/M"
_symmetry_group_IT_number 87
_symmetry_cell_setting 'tetragonal'
loop_
_space_group_symop_operation_xyz
x,y,z
-y,x,z
-x,-y,z
y,-x,z
-x,-y,-z
y,-x,-z
x,y,-z
-y,x,-z
1/2+x,1/2+y,1/2+z
1/2-y,1/2+x,1/2+z
1/2-x,1/2-y,1/2+z
1/2+y,1/2-x,1/2+z
1/2-x,1/2-y,1/2-z
1/2+y,1/2-x,1/2-z
1/2+x,1/2+y,1/2-z
1/2-y,1/2+x,1/2-z
loop_
_atom_site_type_symbol
_atom_site_label
_atom_site_fract_x
_atom_site_fract_y
_atom_site_fract_z
Si Si1 0.648885 0.863260 0.000000
Si Si2 0.081954 0.270622 0.144082
Si Si3 0.744382 0.661897 0.000000
Si Si4 0.122242 0.774634 0.643175
Si Si5 0.758555 0.070387 0.709658
Si Si6 0.417800 0.074601 0.864091
Si Si7 0.242461 0.565382 0.500000
O O1 0.717002 0.773134 0.000000
O O2 0.583637 0.863753 0.933148
O O3 0.710018 0.958495 0.000000
O O4 0.166332 0.346131 0.149991
O O5 0.082137 0.209900 0.212335
O O6 0.980901 0.320898 0.144121
O O7 0.087236 0.208328 0.073723
O O8 0.702399 0.608515 0.935633
O O9 0.859323 0.655836 0.000000
O O10 0.204644 0.839438 0.670738
O O11 0.026609 0.800546 0.681423
O O12 0.645200 0.069225 0.699025
O O13 0.500000 0.000000 0.867149
#
# Coordination Sequence:
#
# PCOD8303850 Si02
#       7
#     8  16   8  16  16  16   8
#     4  10  19  37  60  92 126 166 204 264 315 387
#     4  10  21  39  62  92 125 158 211 270 333 381
#     4  10  20  40  63  93 135 162 216 260 315 397
#     4  11  24  41  62  94 130 177 213 263 316 390
#     4  12  24  40  63  91 132 174 215 267 323 388
#     4  11  21  35  62  95 125 160 206 270 335 375
#     4   8  20  37  59  90 121 160 201 260 326 393
#
# _framework density 21.943463999999999
#
# number of rings (size 3 to 8) (size 9 to 14) (size 15 to 20)
#    0.000    1.455    3.636    1.909    0.000    1.818 
#    3.273    0.000    0.000    1.364    0.000    0.000 
#    0.000    0.000    0.000    0.000    0.000    0.000 
#
# Total GULP energy -545095.196589 kJ/mol
# GULP energy per Si atom -12388.527195 kJ/mol
# Density = 2.189352 g / cm^3
# Si number density = 21.943464 Si / 1000 Ang^3
#
#
#
# Elastic Constant Matrix: (Units=GPa)
#
#
# Indices 1 2 3 4 5 6 
#
# 1 50.0275 30.3534 29.2179 0.0000 0.0000 -4.0701
# 2 30.3534 50.0275 29.2179 0.0000 0.0000 4.0701
# 3 29.2179 29.2179 216.2539 0.0000 0.0000 0.0000
# 4 0.0000 0.0000 0.0000 20.0356 0.0000 0.0000
# 5 0.0000 0.0000 0.0000 0.0000 20.0356 0.0000
# 6 -4.0701 4.0701 0.0000 0.0000 0.0000 22.7088
#
#
#
# Elastic Compliance Matrix: (Units=1/GPa)
#
#
# Indices 1 2 3 4 5 6 
#
# 1 0.034348 -0.020552 -0.001864 0.000000 0.000000 0.009840
# 2 -0.020552 0.034348 -0.001864 0.000000 0.000000 -0.009840
# 3 -0.001864 -0.001864 0.005128 0.000000 0.000000 0.000000
# 4 0.000000 0.000000 0.000000 0.049911 0.000000 0.000000
# 5 0.000000 0.000000 0.000000 0.000000 0.049911 0.000000
# 6 0.009840 -0.009840 0.000000 0.000000 0.000000 0.047563
#
#
# Mechanical properties :
#
#
# Convention : Reuss Voigt Hill
#
# Bulk Modulus (GPa) = 39.58243 54.87638 47.22941
# Shear Modulus (GPa) = 17.97341 27.72400 22.84871
#
# Velocity S-wave (km/s) = 2.86506 3.55833 3.23035
# Velocity P-wave (km/s) = 5.38723 6.47647 5.95680
#
# Compressibility (1/GPa) = 0.02526373
#
# Stress axis : x y z
#
# Youngs Moduli (GPa) = 29.11411 29.11411 195.01290
#
# Poissons Ratio (x) = 0.59835 0.36349
# Poissons Ratio (y) = 0.59835 0.36349
# Poissons Ratio (z) = 0.05427 0.05427
#
# Static dielectric constant tensor:
#      x y z
#    x 3.634610 0.000000 0.000000 
#    y 0.000000 3.634610 0.000000 
#    z 0.000000 0.000000 4.738880 
# 
# 
# High freq. dielectric constant tensor:
#      x y z
#    x 1.828660 0.000000 0.000000 
#    y 0.000000 1.828660 0.000000 
#    z 0.000000 0.000000 1.898030 
# 
# From -- ./inp_files/5244.got.cif
#   From: 2010.03.12/outbox.cif.g09.slc.cpg/sg87_3_cif.got.tgz:5244.got - 2010.04.08 20:16:13.
