data_PCOD8303832
_publ_section_title
;
Structure prediction by ZEFSAII (Michael W. Deem and Ramdas Pophale) SiO2 
 PCOD8303832
Probable space group: I 4/M
;
_chemical_formula_sum "Si O2"
_cell_formula_units_Z 96
_cell_length_a 23.121014
_cell_length_b 23.121014
_cell_length_c 9.098185
_cell_angle_alpha 90.000000
_cell_angle_beta 90.000000
_cell_angle_gamma 90.000000
_cell_volume 4863.719459
_symmetry_space_group_name_H-M "I 4/M"
_symmetry_group_IT_number 87
_symmetry_cell_setting 'tetragonal'
loop_
_space_group_symop_operation_xyz
x,y,z
-y,x,z
-x,-y,z
y,-x,z
-x,-y,-z
y,-x,-z
x,y,-z
-y,x,-z
1/2+x,1/2+y,1/2+z
1/2-y,1/2+x,1/2+z
1/2-x,1/2-y,1/2+z
1/2+y,1/2-x,1/2+z
1/2-x,1/2-y,1/2-z
1/2+y,1/2-x,1/2-z
1/2+x,1/2+y,1/2-z
1/2-y,1/2+x,1/2-z
loop_
_atom_site_type_symbol
_atom_site_label
_atom_site_fract_x
_atom_site_fract_y
_atom_site_fract_z
Si Si1 0.479626 0.841096 0.829566
Si Si2 0.787849 0.830515 0.170404
Si Si3 0.909076 0.635511 0.827711
Si Si4 0.995630 0.090676 0.326260
Si Si5 0.164860 0.274180 0.670276
Si Si6 0.549373 0.288219 0.828037
O O1 0.417897 0.867915 0.787046
O O2 0.526194 0.875134 0.731103
O O3 0.480805 0.772781 0.791428
O O4 0.493671 0.852050 0.000000
O O5 0.831270 0.788657 0.256860
O O6 0.722594 0.810480 0.198369
O O7 0.795533 0.893791 0.232673
O O8 0.804128 0.829016 0.000000
O O9 0.887443 0.692559 0.745820
O O10 0.909805 0.647002 0.000000
O O11 0.995078 0.086653 0.500000
O O12 0.992199 0.158321 0.280444
O O13 0.054472 0.060473 0.266330
O O14 0.150484 0.265952 0.500000
O O15 0.566109 0.290627 0.000000
#
# Coordination Sequence:
#
# PCOD8303832 Si02
#       6
#    16  16  16  16  16  16
#     4  10  23  40  58  83 114 148 192 244 297 358
#     4  10  20  33  54  84 116 149 186 230 284 343
#     4  11  23  40  61  84 115 150 192 244 295 350
#     4   8  15  29  51  81 114 148 189 234 277 326
#     4  10  20  35  57  82 112 150 189 230 285 347
#     4  10  19  34  57  84 116 151 192 240 288 342
#
# _framework density 19.73798
#
# number of rings (size 3 to 8) (size 9 to 14) (size 15 to 20)
#    0.000    2.167    1.667    2.000    0.000    5.000 
#    0.000    5.000    0.000    1.000    0.000    1.167 
#    0.000    0.000    0.000    0.000    0.000    0.000 
#
# Total GULP energy -595200.993725 kJ/mol
# GULP energy per Si atom -12400.020703 kJ/mol
# Density = 1.969306 g / cm^3
# Si number density = 19.737980 Si / 1000 Ang^3
#
#
#
# Elastic Constant Matrix: (Units=GPa)
#
#
# Indices 1 2 3 4 5 6 
#
# 1 88.2172 33.9545 34.4377 0.0000 0.0000 8.2169
# 2 33.9545 88.2172 34.4377 0.0000 0.0000 -8.2169
# 3 34.4377 34.4377 67.8924 0.0000 0.0000 0.0000
# 4 0.0000 0.0000 0.0000 30.4617 0.0000 0.0000
# 5 0.0000 0.0000 0.0000 0.0000 30.4617 0.0000
# 6 8.2169 -8.2169 0.0000 0.0000 0.0000 17.3237
#
#
#
# Elastic Compliance Matrix: (Units=1/GPa)
#
#
# Indices 1 2 3 4 5 6 
#
# 1 0.016492 -0.005029 -0.005815 0.000000 0.000000 -0.010207
# 2 -0.005029 0.016492 -0.005815 0.000000 0.000000 0.010207
# 3 -0.005815 -0.005815 0.020628 0.000000 0.000000 0.000000
# 4 0.000000 0.000000 0.000000 0.032828 0.000000 0.000000
# 5 0.000000 0.000000 0.000000 0.000000 0.032828 0.000000
# 6 -0.010207 0.010207 0.000000 0.000000 0.000000 0.067407
#
#
# Mechanical properties :
#
#
# Convention : Reuss Voigt Hill
#
# Bulk Modulus (GPa) = 49.27071 49.99851 49.63461
# Shear Modulus (GPa) = 22.05014 25.08254 23.56634
#
# Velocity S-wave (km/s) = 3.34599 3.56866 3.45912
# Velocity P-wave (km/s) = 6.32014 6.50896 6.41524
#
# Compressibility (1/GPa) = 0.02029603
#
# Stress axis : x y z
#
# Youngs Moduli (GPa) = 60.63635 60.63635 48.47783
#
# Poissons Ratio (x) = 0.30491 0.28188
# Poissons Ratio (y) = 0.30491 0.28188
# Poissons Ratio (z) = 0.35258 0.35258
#
# Static dielectric constant tensor:
#      x y z
#    x 3.669890 0.000000 0.000000 
#    y 0.000000 3.669890 0.000000 
#    z 0.000000 0.000000 3.413710 
# 
# 
# High freq. dielectric constant tensor:
#      x y z
#    x 1.768650 0.000000 0.000000 
#    y 0.000000 1.768650 0.000000 
#    z 0.000000 0.000000 1.751240 
# 
# From -- ./inp_files/1420.got.cif
#   From: 2010.03.12/outbox.cif.g09.slc.cpg/sg87_1_cif.got.tgz:1420.got - 2010.04.08 20:16:13.
