data_PCOD8303931
_publ_section_title
;
Structure prediction by ZEFSAII (Michael W. Deem and Ramdas Pophale) SiO2 
 PCOD8303931
Probable space group: I 4/M
;
_chemical_formula_sum "Si O2"
_cell_formula_units_Z 80
_cell_length_a 23.177654
_cell_length_b 23.177654
_cell_length_c 7.760883
_cell_angle_alpha 90.000000
_cell_angle_beta 90.000000
_cell_angle_gamma 90.000000
_cell_volume 4169.174636
_symmetry_space_group_name_H-M "I 4/M"
_symmetry_group_IT_number 87
_symmetry_cell_setting 'tetragonal'
loop_
_space_group_symop_operation_xyz
x,y,z
-y,x,z
-x,-y,z
y,-x,z
-x,-y,-z
y,-x,-z
x,y,-z
-y,x,-z
1/2+x,1/2+y,1/2+z
1/2-y,1/2+x,1/2+z
1/2-x,1/2-y,1/2+z
1/2+y,1/2-x,1/2+z
1/2-x,1/2-y,1/2-z
1/2+y,1/2-x,1/2-z
1/2+x,1/2+y,1/2-z
1/2-y,1/2+x,1/2-z
loop_
_atom_site_type_symbol
_atom_site_label
_atom_site_fract_x
_atom_site_fract_y
_atom_site_fract_z
Si Si1 0.375140 0.277639 0.198797
Si Si2 0.339703 0.150921 0.195739
Si Si3 0.063321 0.435228 0.802258
Si Si4 0.564729 0.661223 0.500000
Si Si5 0.716118 0.626928 0.190442
Si Si6 0.567123 0.339920 0.500000
O O1 0.365702 0.211812 0.255264
O O2 0.423548 0.302376 0.326518
O O3 0.315538 0.312315 0.228637
O O4 0.396269 0.282500 0.000000
O O5 0.387452 0.101508 0.210775
O O6 0.284592 0.136138 0.310531
O O7 0.318238 0.155491 0.000000
O O8 0.078577 0.502771 0.789255
O O9 0.058911 0.416929 0.000000
O O10 0.601521 0.603068 0.500000
O O11 0.498946 0.641935 0.500000
O O12 0.697927 0.579746 0.330459
O O13 0.698754 0.604319 0.000000
#
# Coordination Sequence:
#
# PCOD8303931 Si02
#       6
#    16  16  16   8  16   8
#     4   9  21  37  58  88 121 154 188 237 292 351
#     4  11  21  36  58  87 115 149 199 234 286 354
#     4  11  23  40  57  75 105 149 195 246 293 332
#     4  10  22  39  64  82 125 153 201 245 302 346
#     4  10  20  37  59  87 122 154 187 237 296 348
#     4  10  22  41  58  92 115 161 197 249 294 354
#
# _framework density 19.188451000000001
#
# number of rings (size 3 to 8) (size 9 to 14) (size 15 to 20)
#    0.000    1.800    1.000    3.600    2.800    2.600 
#    0.000    2.000    0.000    0.000    0.000    5.600 
#    0.000    0.000    0.000    0.000    0.000    0.000 
#
# Total GULP energy -496149.245261 kJ/mol
# GULP energy per Si atom -12403.731132 kJ/mol
# Density = 1.914478 g / cm^3
# Si number density = 19.188451 Si / 1000 Ang^3
#
#
#
# Elastic Constant Matrix: (Units=GPa)
#
#
# Indices 1 2 3 4 5 6 
#
# 1 92.9438 42.0572 37.7211 0.0000 0.0000 -2.5055
# 2 42.0572 92.9438 37.7211 0.0000 0.0000 2.5055
# 3 37.7211 37.7211 110.0935 0.0000 0.0000 0.0000
# 4 0.0000 0.0000 0.0000 15.6836 0.0000 0.0000
# 5 0.0000 0.0000 0.0000 0.0000 15.6836 0.0000
# 6 -2.5055 2.5055 0.0000 0.0000 0.0000 19.2667
#
#
#
# Elastic Compliance Matrix: (Units=1/GPa)
#
#
# Indices 1 2 3 4 5 6 
#
# 1 0.014534 -0.005372 -0.003139 0.000000 0.000000 0.002589
# 2 -0.005372 0.014534 -0.003139 0.000000 0.000000 -0.002589
# 3 -0.003139 -0.003139 0.011234 0.000000 0.000000 0.000000
# 4 0.000000 0.000000 0.000000 0.063761 0.000000 0.000000
# 5 0.000000 0.000000 0.000000 0.000000 0.063761 0.000000
# 6 0.002589 -0.002589 0.000000 0.000000 0.000000 0.052576
#
#
# Mechanical properties :
#
#
# Convention : Reuss Voigt Hill
#
# Bulk Modulus (GPa) = 58.81918 58.99777 58.90848
# Shear Modulus (GPa) = 20.05065 22.02554 21.03809
#
# Velocity S-wave (km/s) = 3.23605 3.39167 3.31478
# Velocity P-wave (km/s) = 6.68451 6.79347 6.73921
#
# Compressibility (1/GPa) = 0.01700126
#
# Stress axis : x y z
#
# Youngs Moduli (GPa) = 68.80423 68.80423 89.01389
#
# Poissons Ratio (x) = 0.36965 0.27941
# Poissons Ratio (y) = 0.36965 0.27941
# Poissons Ratio (z) = 0.21598 0.21598
#
# Static dielectric constant tensor:
#      x y z
#    x 3.329940 0.000000 0.000000 
#    y 0.000000 3.329940 0.000000 
#    z 0.000000 0.000000 3.706690 
# 
# 
# High freq. dielectric constant tensor:
#      x y z
#    x 1.734850 0.000000 0.000000 
#    y 0.000000 1.734850 0.000000 
#    z 0.000000 0.000000 1.766550 
# 
# From -- ./inp_files/1287.got.cif
#   From: 2010.03.12/outbox.cif.g09.slc.cpg/sg87_1_cif.got.tgz:1287.got - 2010.04.08 20:16:13.
