data_PCOD8303131
_publ_section_title
;
Structure prediction by ZEFSAII (Michael W. Deem and Ramdas Pophale) SiO2 
 PCOD8303131
Probable space group: P 42/M
;
_chemical_formula_sum "Si O2"
_cell_formula_units_Z 40
_cell_length_a 14.270219
_cell_length_b 14.270219
_cell_length_c 8.858710
_cell_angle_alpha 90.000000
_cell_angle_beta 90.000000
_cell_angle_gamma 90.000000
_cell_volume 1803.980177
_symmetry_space_group_name_H-M "P 42/M"
_symmetry_group_IT_number 84
_symmetry_cell_setting 'tetragonal'
loop_
_space_group_symop_operation_xyz
x,y,z
-y,x,1/2+z
-x,-y,z
y,-x,1/2+z
-x,-y,-z
y,-x,1/2-z
x,y,-z
-y,x,1/2-z
loop_
_atom_site_type_symbol
_atom_site_label
_atom_site_fract_x
_atom_site_fract_y
_atom_site_fract_z
Si Si1 0.204682 0.343902 0.832693
Si Si2 0.470872 0.623871 0.666467
Si Si3 0.955229 0.134880 0.181747
Si Si4 0.299701 0.153622 0.181583
Si Si5 0.505533 0.109314 0.163966
O O1 0.272612 0.433053 0.833331
O O2 0.254536 0.252549 0.762653
O O3 0.120922 0.392403 0.742701
O O4 0.169797 0.317637 0.000000
O O5 0.554665 0.613939 0.785661
O O6 0.506024 0.595772 0.500000
O O7 0.926718 0.238465 0.236811
O O8 0.059900 0.115860 0.243460
O O9 0.953828 0.126909 0.000000
O O10 0.407916 0.147244 0.239690
O O11 0.295762 0.142025 0.000000
O O12 0.500000 0.000000 0.147175
O O13 0.512555 0.157794 0.000000
#
# Coordination Sequence:
#
# PCOD8303131 Si02
#       5
#     8   8   8   8   8
#     4  10  22  38  58  84 119 162 206 258 313 372
#     4  10  19  32  52  80 112 149 192 243 300 356
#     4  11  23  41  66  96 128 165 210 264 324 386
#     4  10  22  41  63  92 131 170 214 268 326 385
#     4  10  23  42  64  91 126 168 214 267 324 386
#
# _framework density 22.173193999999999
#
# number of rings (size 3 to 8) (size 9 to 14) (size 15 to 20)
#    0.000    1.800    0.000    4.800    2.800    5.200 
#    0.000    0.000    0.000    0.000    0.000    0.000 
#    0.000    0.000    0.000    0.000    0.000    0.000 
#
# Total GULP energy -495585.798492 kJ/mol
# GULP energy per Si atom -12389.644962 kJ/mol
# Density = 2.212273 g / cm^3
# Si number density = 22.173194 Si / 1000 Ang^3
#
#
#
# Elastic Constant Matrix: (Units=GPa)
#
#
# Indices 1 2 3 4 5 6 
#
# 1 72.3033 14.6780 15.5023 0.0000 0.0000 9.4887
# 2 14.6780 72.3033 15.5023 0.0000 0.0000 -9.4887
# 3 15.5023 15.5023 84.1459 0.0000 0.0000 0.0000
# 4 0.0000 0.0000 0.0000 -5.6601 0.0000 0.0000
# 5 0.0000 0.0000 0.0000 0.0000 -5.6601 0.0000
# 6 9.4887 -9.4887 0.0000 0.0000 0.0000 38.5729
#
#
#
# Elastic Compliance Matrix: (Units=1/GPa)
#
#
# Indices 1 2 3 4 5 6 
#
# 1 0.015594 -0.003289 -0.002267 0.000000 0.000000 -0.004645
# 2 -0.003289 0.015594 -0.002267 0.000000 0.000000 0.004645
# 3 -0.002267 -0.002267 0.012719 0.000000 0.000000 0.000000
# 4 0.000000 0.000000 0.000000 -0.176674 0.000000 0.000000
# 5 0.000000 0.000000 0.000000 0.000000 -0.176674 0.000000
# 6 -0.004645 0.004645 0.000000 0.000000 0.000000 0.028210
#
#
# Mechanical properties :
#
#
# Convention : Reuss Voigt Hill
#
# Bulk Modulus (GPa) = 35.38415 35.56864 35.47639
# Shear Modulus (GPa) = -19.51877 17.65517 -0.93180
#
# Velocity S-wave (km/s) = -2.97018 2.82483 -0.64896
# Velocity P-wave (km/s) = 2.05672 5.16872 3.93356
#
# Compressibility (1/GPa) = 0.02826124
#
# Stress axis : x y z
#
# Youngs Moduli (GPa) = 64.12712 64.12712 78.62005
#
# Poissons Ratio (x) = 0.21093 0.17823
# Poissons Ratio (y) = 0.21093 0.17823
# Poissons Ratio (z) = 0.14537 0.14537
#
# Static dielectric constant tensor:
#      x y z
#    x 4.024700 0.000000 0.000000 
#    y 0.000000 4.024700 0.000000 
#    z 0.000000 0.000000 4.228930 
# 
# 
# High freq. dielectric constant tensor:
#      x y z
#    x 1.876000 0.000000 0.000000 
#    y 0.000000 1.876000 0.000000 
#    z 0.000000 0.000000 1.857250 
# 
# From -- ./inp_files/783.got.cif
#   From: 2010.03.12/outbox.cif.g09.slc.cpg/sg84_1_cif.got.tgz:783.got - 2010.04.08 20:07:29.
