data_PCOD8303678
_publ_section_title
;
Structure prediction by ZEFSAII (Michael W. Deem and Ramdas Pophale) SiO2 
 PCOD8303678
Probable space group: P 42/N
;
_chemical_formula_sum "Si O2"
_cell_formula_units_Z 48
_cell_length_a 8.576919
_cell_length_b 8.576919
_cell_length_c 29.650970
_cell_angle_alpha 90.000000
_cell_angle_beta 90.000000
_cell_angle_gamma 90.000000
_cell_volume 2181.230304
_symmetry_space_group_name_H-M "P 42/N"
_symmetry_group_IT_number 86
_space_group.IT_coordinate_system_code '2'
_symmetry_cell_setting 'tetragonal'
loop_
_space_group_symop_operation_xyz
x,y,z
-y,1/2+x,1/2+z
1/2-x,1/2-y,z
1/2+y,-x,1/2+z
-x,-y,-z
y,1/2-x,1/2-z
1/2+x,1/2+y,-z
1/2-y,x,1/2-z
loop_
_atom_site_type_symbol
_atom_site_label
_atom_site_fract_x
_atom_site_fract_y
_atom_site_fract_z
Si Si1 0.550296 0.938208 0.432451
Si Si2 0.104583 0.472317 0.341403
Si Si3 0.849085 0.088527 0.413349
Si Si4 0.615528 0.956411 0.829695
Si Si5 0.431385 0.762289 0.508797
Si Si6 0.109678 0.036162 0.754905
O O1 0.519536 0.776236 0.460481
O O2 0.438383 0.950032 0.389054
O O3 0.732340 0.943065 0.419247
O O4 0.512900 0.086372 0.463620
O O5 0.032614 0.300887 0.335636
O O6 0.288187 0.458898 0.335385
O O7 0.037455 0.586716 0.303771
O O8 0.750000 0.250000 0.407959
O O9 0.963555 0.113436 0.457527
O O10 0.941921 0.040635 0.369233
O O11 0.572883 0.024122 0.781206
O O12 0.250000 0.750000 0.496760
O O13 0.036879 0.207607 0.754996
#
# Coordination Sequence:
#
# PCOD8303678 Si02
#       6
#     8   8   8   8   8   8
#     4   9  16  31  57  86 118 162 212 258 305 370
#     4  11  22  38  63  96 123 163 210 263 313 375
#     4   9  16  32  59  89 115 168 209 257 318 361
#     4  11  22  38  63  94 126 159 214 261 314 384
#     4   8  15  29  53  87 116 159 219 253 308 364
#     4  11  26  44  63  90 126 164 203 255 320 390
#
# _framework density 22.005931
#
# number of rings (size 3 to 8) (size 9 to 14) (size 15 to 20)
#    0.000    2.500    3.333    2.000    0.000    3.333 
#    3.000    0.000    0.000   20.000   17.333    0.000 
#    0.000    0.000    0.000    0.000    0.000    0.000 
#
# Total GULP energy -594785.023353 kJ/mol
# GULP energy per Si atom -12391.354653 kJ/mol
# Density = 2.195584 g / cm^3
# Si number density = 22.005931 Si / 1000 Ang^3
#
#
#
# Elastic Constant Matrix: (Units=GPa)
#
#
# Indices 1 2 3 4 5 6 
#
# 1 41.7759 21.5250 41.3865 0.0000 0.0000 3.2007
# 2 21.5250 41.7759 41.3865 0.0000 0.0000 -3.2007
# 3 41.3865 41.3865 155.5039 0.0000 0.0000 0.0000
# 4 0.0000 0.0000 0.0000 19.5967 0.0000 0.0000
# 5 0.0000 0.0000 0.0000 0.0000 19.5967 0.0000
# 6 3.2007 -3.2007 0.0000 0.0000 0.0000 17.9794
#
#
#
# Elastic Compliance Matrix: (Units=1/GPa)
#
#
# Indices 1 2 3 4 5 6 
#
# 1 0.038277 -0.014048 -0.006449 0.000000 0.000000 -0.009315
# 2 -0.014048 0.038277 -0.006449 0.000000 0.000000 0.009315
# 3 -0.006449 -0.006449 0.009863 0.000000 0.000000 0.000000
# 4 0.000000 0.000000 0.000000 0.051029 0.000000 0.000000
# 5 0.000000 0.000000 0.000000 0.000000 0.051029 0.000000
# 6 -0.009315 0.009315 0.000000 0.000000 0.000000 0.058936
#
#
# Mechanical properties :
#
#
# Convention : Reuss Voigt Hill
#
# Bulk Modulus (GPa) = 30.74236 49.73910 40.24073
# Shear Modulus (GPa) = 16.01823 20.41841 18.21832
#
# Velocity S-wave (km/s) = 2.70090 3.04938 2.88042
# Velocity P-wave (km/s) = 4.87102 5.92030 5.42111
#
# Compressibility (1/GPa) = 0.03252841
#
# Stress axis : x y z
#
# Youngs Moduli (GPa) = 26.12506 26.12506 101.38648
#
# Poissons Ratio (x) = 0.36699 0.65381
# Poissons Ratio (y) = 0.36699 0.65381
# Poissons Ratio (z) = 0.16847 0.16847
#
# Static dielectric constant tensor:
#      x y z
#    x 3.843560 0.000000 0.000000 
#    y 0.000000 3.843560 0.000000 
#    z 0.000000 0.000000 4.250100 
# 
# 
# High freq. dielectric constant tensor:
#      x y z
#    x 1.849190 0.000000 0.000000 
#    y 0.000000 1.849190 0.000000 
#    z 0.000000 0.000000 1.883370 
# 
# From -- ./inp_files/5188.got.cif
#   From: 2010.03.12/outbox.cif.g09.slc.cpg/sg86_3_cif.got.tgz:5188.got - 2010.04.08 20:12:58.
