data_PCOD8303455
_publ_section_title
;
Structure prediction by ZEFSAII (Michael W. Deem and Ramdas Pophale) SiO2 
 PCOD8303455
Probable space group: P 4/N
;
_chemical_formula_sum "Si O2"
_cell_formula_units_Z 50
_cell_length_a 8.963215
_cell_length_b 8.963215
_cell_length_c 31.705607
_cell_angle_alpha 90.000000
_cell_angle_beta 90.000000
_cell_angle_gamma 90.000000
_cell_volume 2547.203835
_symmetry_space_group_name_H-M "P 4/N"
_symmetry_group_IT_number 85
_symmetry_cell_setting 'tetragonal'
loop_
_space_group_symop_operation_xyz
x,y,z
1/2-y,x,z
1/2-x,1/2-y,z
y,1/2-x,z
-x,-y,-z
1/2+y,-x,-z
1/2+x,1/2+y,-z
-y,1/2+x,-z
loop_
_atom_site_type_symbol
_atom_site_label
_atom_site_fract_x
_atom_site_fract_y
_atom_site_fract_z
Si Si1 0.886908 0.952039 0.290468
Si Si2 0.571368 0.583796 0.538810
Si Si3 0.816299 0.983936 0.055894
Si Si4 0.250000 0.750000 0.000000
Si Si5 0.062387 0.403660 0.612842
Si Si6 0.153961 0.027401 0.847120
Si Si7 0.135314 0.468520 0.219285
O O1 0.710937 0.952878 0.280169
O O2 0.926432 0.986578 0.338866
O O3 0.958968 0.083401 0.263150
O O4 0.742556 0.541589 0.535586
O O5 0.500000 0.500000 0.500000
O O6 0.502112 0.541635 0.583640
O O7 0.648222 0.931041 0.045383
O O8 0.847816 0.024129 0.104415
O O9 0.842632 0.132456 0.028523
O O10 0.044409 0.229702 0.602891
O O11 0.325663 0.058114 0.836313
O O12 0.081159 0.899151 0.819030
O O13 0.051002 0.311615 0.216393
#
# Coordination Sequence:
#
# PCOD8303455 Si02
#       7
#     8   8   8   2   8   8   8
#     4   9  19  37  60  84 110 144 186 226 268 325
#     4  11  24  39  56  81 112 146 186 232 280 331
#     4   9  20  37  55  81 114 145 183 228 272 326
#     4  12  20  32  60  88 112 148 184 224 280 332
#     4   9  19  37  60  85 112 142 181 229 275 325
#     4   9  19  37  59  79 103 140 185 228 269 322
#     4  11  24  37  51  79 116 146 178 226 277 324
#
# _framework density 19.629369000000001
#
# number of rings (size 3 to 8) (size 9 to 14) (size 15 to 20)
#    0.000    2.240    0.000    4.320    0.000   11.200 
#    0.000    4.800    0.000    1.920    0.000    0.000 
#    0.000    0.000    0.000    0.000    0.000    0.000 
#
# Total GULP energy -619890.587645 kJ/mol
# GULP energy per Si atom -12397.811753 kJ/mol
# Density = 1.958469 g / cm^3
# Si number density = 19.629369 Si / 1000 Ang^3
#
#
#
# Elastic Constant Matrix: (Units=GPa)
#
#
# Indices 1 2 3 4 5 6 
#
# 1 82.0445 33.3859 56.3446 0.0000 0.0000 0.1372
# 2 33.3859 82.0445 56.3446 0.0000 0.0000 -0.1372
# 3 56.3446 56.3446 118.2548 0.0000 0.0000 0.0000
# 4 0.0000 0.0000 0.0000 33.2264 0.0000 0.0000
# 5 0.0000 0.0000 0.0000 0.0000 33.2264 0.0000
# 6 0.1372 -0.1372 0.0000 0.0000 0.0000 32.3505
#
#
#
# Elastic Compliance Matrix: (Units=1/GPa)
#
#
# Indices 1 2 3 4 5 6 
#
# 1 0.018375 -0.002177 -0.007718 0.000000 0.000000 -0.000087
# 2 -0.002177 0.018375 -0.007718 0.000000 0.000000 0.000087
# 3 -0.007718 -0.007718 0.015811 0.000000 0.000000 0.000000
# 4 0.000000 0.000000 0.000000 0.030097 0.000000 0.000000
# 5 0.000000 0.000000 0.000000 0.000000 0.030097 0.000000
# 6 -0.000087 0.000087 0.000000 0.000000 0.000000 0.030912
#
#
# Mechanical properties :
#
#
# Convention : Reuss Voigt Hill
#
# Bulk Modulus (GPa) = 57.68551 63.83269 60.75910
# Shear Modulus (GPa) = 27.07552 28.84524 27.96038
#
# Velocity S-wave (km/s) = 3.71797 3.83756 3.77824
# Velocity P-wave (km/s) = 6.91970 7.22671 7.07487
#
# Compressibility (1/GPa) = 0.01733538
#
# Stress axis : x y z
#
# Youngs Moduli (GPa) = 54.42260 54.42260 63.24818
#
# Poissons Ratio (x) = 0.11848 0.48813
# Poissons Ratio (y) = 0.11848 0.48813
# Poissons Ratio (z) = 0.42001 0.42001
#
# Static dielectric constant tensor:
#      x y z
#    x 3.479670 0.000000 0.000000 
#    y 0.000000 3.479670 0.000000 
#    z 0.000000 0.000000 3.558130 
# 
# 
# High freq. dielectric constant tensor:
#      x y z
#    x 1.760560 0.000000 0.000000 
#    y 0.000000 1.760560 0.000000 
#    z 0.000000 0.000000 1.774910 
# 
# From -- ./inp_files/2480.got.cif
#   From: 2010.03.12/outbox.cif.g09.slc.cpg/sg85_cif.got.tgz:2480.got - 2010.04.08 20:10:46.
