data_PCOD8303958
_publ_section_title
;
Structure prediction by ZEFSAII (Michael W. Deem and Ramdas Pophale) SiO2 
 PCOD8303958
Probable space group: I 4/M
;
_chemical_formula_sum "Si O2"
_cell_formula_units_Z 96
_cell_length_a 23.785893
_cell_length_b 23.785893
_cell_length_c 8.814879
_cell_angle_alpha 90.000000
_cell_angle_beta 90.000000
_cell_angle_gamma 90.000000
_cell_volume 4987.182684
_symmetry_space_group_name_H-M "I 4/M"
_symmetry_group_IT_number 87
_symmetry_cell_setting 'tetragonal'
loop_
_space_group_symop_operation_xyz
x,y,z
-y,x,z
-x,-y,z
y,-x,z
-x,-y,-z
y,-x,-z
x,y,-z
-y,x,-z
1/2+x,1/2+y,1/2+z
1/2-y,1/2+x,1/2+z
1/2-x,1/2-y,1/2+z
1/2+y,1/2-x,1/2+z
1/2-x,1/2-y,1/2-z
1/2+y,1/2-x,1/2-z
1/2+x,1/2+y,1/2-z
1/2-y,1/2+x,1/2-z
loop_
_atom_site_type_symbol
_atom_site_label
_atom_site_fract_x
_atom_site_fract_y
_atom_site_fract_z
Si Si1 0.956478 0.301259 0.676390
Si Si2 0.049363 0.208793 0.323486
Si Si3 0.086457 0.980432 0.319605
Si Si4 0.730650 0.334314 0.321880
Si Si5 0.240366 0.335155 0.178104
Si Si6 0.014239 0.582825 0.819972
O O1 0.955977 0.319242 0.500000
O O2 0.895086 0.282512 0.732803
O O3 0.976589 0.352659 0.778705
O O4 0.997337 0.249392 0.706465
O O5 0.064000 0.204136 0.500000
O O6 0.033679 0.147851 0.253999
O O7 0.102906 0.233492 0.238978
O O8 0.088634 0.981391 0.500000
O O9 0.041993 0.933497 0.262513
O O10 0.724332 0.335527 0.500000
O O11 0.677567 0.300410 0.254792
O O12 0.788534 0.304730 0.270627
O O13 0.250858 0.335029 0.000000
O O14 0.063675 0.545828 0.745865
O O15 0.014609 0.574595 0.000000
#
# Coordination Sequence:
#
# PCOD8303958 Si02
#       6
#    16  16  16  16  16  16
#     4  10  22  38  58  89 119 151 195 243 292 345
#     4  10  21  34  56  85 114 147 188 237 286 339
#     4   8  15  29  52  82 111 141 183 233 281 330
#     4  10  21  37  57  83 114 151 190 232 288 345
#     4   9  20  39  61  82 111 150 192 238 287 338
#     4  11  23  41  64  88 117 154 194 240 291 348
#
# _framework density 19.249345000000002
#
# number of rings (size 3 to 8) (size 9 to 14) (size 15 to 20)
#    0.000    2.333    0.000    3.000    4.667    2.000 
#    0.000    0.000    0.000    0.000    0.000    1.167 
#    0.000    0.000    0.000    0.000    0.000    0.000 
#
# Total GULP energy -595308.841844 kJ/mol
# GULP energy per Si atom -12402.267538 kJ/mol
# Density = 1.920553 g / cm^3
# Si number density = 19.249345 Si / 1000 Ang^3
#
#
#
# Elastic Constant Matrix: (Units=GPa)
#
#
# Indices 1 2 3 4 5 6 
#
# 1 115.6564 39.6171 28.8250 0.0000 0.0000 -1.6245
# 2 39.6171 115.6564 28.8250 0.0000 0.0000 1.6245
# 3 28.8250 28.8250 55.8685 0.0000 0.0000 0.0000
# 4 0.0000 0.0000 0.0000 26.0137 0.0000 0.0000
# 5 0.0000 0.0000 0.0000 0.0000 26.0137 0.0000
# 6 -1.6245 1.6245 0.0000 0.0000 0.0000 23.8703
#
#
#
# Elastic Compliance Matrix: (Units=1/GPa)
#
#
# Indices 1 2 3 4 5 6 
#
# 1 0.010578 -0.002612 -0.004110 0.000000 0.000000 0.000898
# 2 -0.002612 0.010578 -0.004110 0.000000 0.000000 -0.000898
# 3 -0.004110 -0.004110 0.022140 0.000000 0.000000 0.000000
# 4 0.000000 0.000000 0.000000 0.038441 0.000000 0.000000
# 5 0.000000 0.000000 0.000000 0.000000 0.038441 0.000000
# 6 0.000898 -0.000898 0.000000 0.000000 0.000000 0.042015
#
#
# Mechanical properties :
#
#
# Convention : Reuss Voigt Hill
#
# Bulk Modulus (GPa) = 46.22707 53.52393 49.87550
# Shear Modulus (GPa) = 26.16862 27.84047 27.00454
#
# Velocity S-wave (km/s) = 3.69108 3.80716 3.74957
# Velocity P-wave (km/s) = 6.49865 6.86964 6.68672
#
# Compressibility (1/GPa) = 0.02163235
#
# Stress axis : x y z
#
# Youngs Moduli (GPa) = 94.53707 94.53707 45.16631
#
# Poissons Ratio (x) = 0.24689 0.18564
# Poissons Ratio (y) = 0.24689 0.18564
# Poissons Ratio (z) = 0.38856 0.38856
#
# Static dielectric constant tensor:
#      x y z
#    x 3.650240 0.000000 0.000000 
#    y 0.000000 3.650240 0.000000 
#    z 0.000000 0.000000 3.276900 
# 
# 
# High freq. dielectric constant tensor:
#      x y z
#    x 1.756910 0.000000 0.000000 
#    y 0.000000 1.756910 0.000000 
#    z 0.000000 0.000000 1.725610 
# 
# From -- ./inp_files/1386.got.cif
#   From: 2010.03.12/outbox.cif.g09.slc.cpg/sg87_1_cif.got.tgz:1386.got - 2010.04.08 20:16:13.
