data_PCOD8303239
_publ_section_title
;
Structure prediction by ZEFSAII (Michael W. Deem and Ramdas Pophale) SiO2 
 PCOD8303239
Probable space group: P 42/M
;
_chemical_formula_sum "Si O2"
_cell_formula_units_Z 40
_cell_length_a 12.002466
_cell_length_b 12.002466
_cell_length_c 13.961943
_cell_angle_alpha 90.000000
_cell_angle_beta 90.000000
_cell_angle_gamma 90.000000
_cell_volume 2011.346201
_symmetry_space_group_name_H-M "P 42/M"
_symmetry_group_IT_number 84
_symmetry_cell_setting 'tetragonal'
loop_
_space_group_symop_operation_xyz
x,y,z
-y,x,1/2+z
-x,-y,z
y,-x,1/2+z
-x,-y,-z
y,-x,1/2-z
x,y,-z
-y,x,1/2-z
loop_
_atom_site_type_symbol
_atom_site_label
_atom_site_fract_x
_atom_site_fract_y
_atom_site_fract_z
Si Si1 0.589934 0.341996 0.753214
Si Si2 0.922246 0.343201 0.311696
Si Si3 0.211860 0.266773 0.108155
Si Si4 0.853778 0.581536 0.387097
Si Si5 0.026208 0.629763 0.104921
O O1 0.459950 0.352732 0.729293
O O2 0.641080 0.284578 0.660791
O O3 0.614027 0.267422 0.847178
O O4 0.857604 0.235483 0.351409
O O5 0.874547 0.453122 0.362107
O O6 0.897341 0.344143 0.196915
O O7 0.054077 0.339110 0.335692
O O8 0.082434 0.294059 0.117106
O O9 0.253170 0.271206 0.000000
O O10 0.858269 0.601204 0.500000
O O11 0.000000 0.500000 0.109463
O O12 0.081299 0.656382 0.000000
#
# Coordination Sequence:
#
# PCOD8303239 Si02
#       5
#     8   8   8   8   8
#     4  11  23  37  54  84 130 173 209 255 304 377
#     4  11  19  36  62  88 116 155 208 262 303 369
#     4  11  22  38  62  91 122 164 210 258 317 372
#     4  11  21  36  58  85 118 164 210 260 311 362
#     4  10  20  37  62  89 121 162 206 254 315 377
#
# _framework density 19.887177000000001
#
# number of rings (size 3 to 8) (size 9 to 14) (size 15 to 20)
#    0.000    1.200    6.000    2.400    0.000    0.800 
#    0.000    3.000    0.000    0.600    0.000    2.800 
#    0.000    0.000    0.000    0.000    0.000    0.000 
#
# Total GULP energy -495871.343727 kJ/mol
# GULP energy per Si atom -12396.783593 kJ/mol
# Density = 1.984191 g / cm^3
# Si number density = 19.887177 Si / 1000 Ang^3
#
#
#
# Elastic Constant Matrix: (Units=GPa)
#
#
# Indices 1 2 3 4 5 6 
#
# 1 46.9956 22.8871 22.4323 0.0000 0.0000 8.8248
# 2 22.8871 46.9956 22.4323 0.0000 0.0000 -8.8248
# 3 22.4323 22.4323 165.9660 0.0000 0.0000 0.0000
# 4 0.0000 0.0000 0.0000 33.1758 0.0000 0.0000
# 5 0.0000 0.0000 0.0000 0.0000 33.1758 0.0000
# 6 8.8248 -8.8248 0.0000 0.0000 0.0000 34.0609
#
#
#
# Elastic Compliance Matrix: (Units=1/GPa)
#
#
# Indices 1 2 3 4 5 6 
#
# 1 0.033429 -0.017760 -0.002118 0.000000 0.000000 -0.013262
# 2 -0.017760 0.033429 -0.002118 0.000000 0.000000 0.013262
# 3 -0.002118 -0.002118 0.006598 0.000000 0.000000 0.000000
# 4 0.000000 0.000000 0.000000 0.030142 0.000000 0.000000
# 5 0.000000 0.000000 0.000000 0.000000 0.030142 0.000000
# 6 -0.013262 0.013262 0.000000 0.000000 0.000000 0.036232
#
#
# Mechanical properties :
#
#
# Convention : Reuss Voigt Hill
#
# Bulk Modulus (GPa) = 33.93855 43.94004 38.93930
# Shear Modulus (GPa) = 22.34288 32.89620 27.61954
#
# Velocity S-wave (km/s) = 3.35547 4.07153 3.73072
# Velocity P-wave (km/s) = 5.66700 6.65175 6.17902
#
# Compressibility (1/GPa) = 0.02946502
#
# Stress axis : x y z
#
# Youngs Moduli (GPa) = 29.91412 29.91412 151.56451
#
# Poissons Ratio (x) = 0.53126 0.32100
# Poissons Ratio (y) = 0.53126 0.32100
# Poissons Ratio (z) = 0.06336 0.06336
#
# Static dielectric constant tensor:
#      x y z
#    x 3.824120 0.000000 0.000000 
#    y 0.000000 3.824120 0.000000 
#    z 0.000000 0.000000 4.020040 
# 
# 
# High freq. dielectric constant tensor:
#      x y z
#    x 1.757540 0.000000 0.000000 
#    y 0.000000 1.757540 0.000000 
#    z 0.000000 0.000000 1.796730 
# 
# From -- ./inp_files/2913.got.cif
#   From: 2010.03.12/outbox.cif.g09.slc.cpg/sg84_2_cif.got.tgz:2913.got - 2010.04.08 20:07:29.
