data_PCOD8303152
_publ_section_title
;
Structure prediction by ZEFSAII (Michael W. Deem and Ramdas Pophale) SiO2 
 PCOD8303152
Probable space group: P 42/M
;
_chemical_formula_sum "Si O2"
_cell_formula_units_Z 48
_cell_length_a 11.372043
_cell_length_b 11.372043
_cell_length_c 19.140773
_cell_angle_alpha 90.000000
_cell_angle_beta 90.000000
_cell_angle_gamma 90.000000
_cell_volume 2475.349116
_symmetry_space_group_name_H-M "P 42/M"
_symmetry_group_IT_number 84
_symmetry_cell_setting 'tetragonal'
loop_
_space_group_symop_operation_xyz
x,y,z
-y,x,1/2+z
-x,-y,z
y,-x,1/2+z
-x,-y,-z
y,-x,1/2-z
x,y,-z
-y,x,1/2-z
loop_
_atom_site_type_symbol
_atom_site_label
_atom_site_fract_x
_atom_site_fract_y
_atom_site_fract_z
Si Si1 0.521179 0.870044 0.168300
Si Si2 0.858188 0.735378 0.312174
Si Si3 0.270138 0.231208 0.079308
Si Si4 0.313698 0.074273 0.717589
Si Si5 0.993591 0.870022 0.579772
Si Si6 0.632987 0.044069 0.578047
O O1 0.394957 0.806955 0.172688
O O2 0.613891 0.786170 0.127589
O O3 0.559930 0.893389 0.249007
O O4 0.500000 0.000000 0.132418
O O5 0.759626 0.807362 0.271916
O O6 0.972482 0.741178 0.264116
O O7 0.891164 0.794717 0.385185
O O8 0.188922 0.119074 0.090403
O O9 0.183744 0.343808 0.096884
O O10 0.316676 0.242104 0.000000
O O11 0.309526 0.038114 0.636570
O O12 0.955538 0.879113 0.500000
O O13 0.000000 0.000000 0.613527
O O14 0.688131 0.023275 0.500000
O O15 0.500000 0.000000 0.576426
#
# Coordination Sequence:
#
# PCOD8303152 Si02
#       6
#     8   8   8   8   8   8
#     4  10  20  37  53  82 112 151 198 236 285 359
#     4  11  23  35  56  82 115 154 189 239 297 354
#     4  10  19  34  56  81 114 152 190 238 290 358
#     4  11  22  35  55  81 113 148 194 242 291 355
#     4  10  20  33  51  82 120 151 182 225 290 363
#     4  10  21  38  60  83 110 150 198 245 295 347
#
# _framework density 19.391203999999998
#
# number of rings (size 3 to 8) (size 9 to 14) (size 15 to 20)
#    0.000    1.667    3.333    3.500    2.333    3.000 
#    0.000    0.000    0.000    3.500    0.000    3.500 
#    0.000    0.000    0.000    0.000    0.000    0.000 
#
# Total GULP energy -594699.654083 kJ/mol
# GULP energy per Si atom -12389.576127 kJ/mol
# Density = 1.934707 g / cm^3
# Si number density = 19.391204 Si / 1000 Ang^3
#
#
#
# Elastic Constant Matrix: (Units=GPa)
#
#
# Indices 1 2 3 4 5 6 
#
# 1 108.1927 62.2701 43.0130 0.0000 0.0000 4.1355
# 2 62.2701 108.1927 43.0130 0.0000 0.0000 -4.1355
# 3 43.0130 43.0130 98.0808 0.0000 0.0000 0.0000
# 4 0.0000 0.0000 0.0000 20.9343 0.0000 0.0000
# 5 0.0000 0.0000 0.0000 0.0000 20.9343 0.0000
# 6 4.1355 -4.1355 0.0000 0.0000 0.0000 33.4308
#
#
#
# Elastic Compliance Matrix: (Units=1/GPa)
#
#
# Indices 1 2 3 4 5 6 
#
# 1 0.014903 -0.007369 -0.003304 0.000000 0.000000 -0.002755
# 2 -0.007369 0.014903 -0.003304 0.000000 0.000000 0.002755
# 3 -0.003304 -0.003304 0.013093 0.000000 0.000000 0.000000
# 4 0.000000 0.000000 0.000000 0.047769 0.000000 0.000000
# 5 0.000000 0.000000 0.000000 0.000000 0.047769 0.000000
# 6 -0.002755 0.002755 0.000000 0.000000 0.000000 0.030594
#
#
# Mechanical properties :
#
#
# Convention : Reuss Voigt Hill
#
# Bulk Modulus (GPa) = 66.91026 67.89538 67.40282
# Shear Modulus (GPa) = 24.75664 26.13788 25.44726
#
# Velocity S-wave (km/s) = 3.57696 3.67539 3.62651
# Velocity P-wave (km/s) = 7.18609 7.28703 7.23674
#
# Compressibility (1/GPa) = 0.01494539
#
# Stress axis : x y z
#
# Youngs Moduli (GPa) = 67.10127 67.10127 76.37381
#
# Poissons Ratio (x) = 0.49448 0.25233
# Poissons Ratio (y) = 0.49448 0.25233
# Poissons Ratio (z) = 0.22170 0.22170
#
# Static dielectric constant tensor:
#      x y z
#    x 3.564900 0.000000 0.000000 
#    y 0.000000 3.564900 0.000000 
#    z 0.000000 0.000000 3.877810 
# 
# 
# High freq. dielectric constant tensor:
#      x y z
#    x 1.737920 0.000000 0.000000 
#    y 0.000000 1.737920 0.000000 
#    z 0.000000 0.000000 1.762630 
# 
# From -- ./inp_files/3740.got.cif
#   From: 2010.03.12/outbox.cif.g09.slc.cpg/sg84_2_cif.got.tgz:3740.got - 2010.04.08 20:07:29.
