data_PCOD8303276
_publ_section_title
;
Structure prediction by ZEFSAII (Michael W. Deem and Ramdas Pophale) SiO2 
 PCOD8303276
Probable space group: P 42/M
;
_chemical_formula_sum "Si O2"
_cell_formula_units_Z 48
_cell_length_a 9.445802
_cell_length_b 9.445802
_cell_length_c 28.124931
_cell_angle_alpha 90.000000
_cell_angle_beta 90.000000
_cell_angle_gamma 90.000000
_cell_volume 2509.395652
_symmetry_space_group_name_H-M "P 42/M"
_symmetry_group_IT_number 84
_symmetry_cell_setting 'tetragonal'
loop_
_space_group_symop_operation_xyz
x,y,z
-y,x,1/2+z
-x,-y,z
y,-x,1/2+z
-x,-y,-z
y,-x,1/2-z
x,y,-z
-y,x,1/2-z
loop_
_atom_site_type_symbol
_atom_site_label
_atom_site_fract_x
_atom_site_fract_y
_atom_site_fract_z
Si Si1 0.177562 0.240647 0.696039
Si Si2 0.907568 0.640947 0.948770
Si Si3 0.786937 0.846750 0.201383
Si Si4 0.670728 0.989453 0.648243
Si Si5 0.421593 0.354687 0.946680
Si Si6 0.481723 0.160115 0.139987
O O1 0.254297 0.205001 0.745818
O O2 0.189282 0.404050 0.681454
O O3 0.015365 0.184550 0.698799
O O4 0.272302 0.168434 0.655030
O O5 0.963774 0.728762 0.903757
O O6 0.743329 0.610675 0.938851
O O7 0.000000 0.500000 0.950615
O O8 0.925654 0.720363 0.000000
O O9 0.922900 0.753282 0.188346
O O10 0.666047 0.805225 0.164545
O O11 0.500000 0.000000 0.653460
O O12 0.500000 0.500000 0.939481
O O13 0.489825 0.249842 0.908176
O O14 0.447067 0.293301 0.000000
O O15 0.500000 0.000000 0.122636
#
# Coordination Sequence:
#
# PCOD8303276 Si02
#       6
#     8   8   8   8   8   8
#     4  11  24  38  62  85 120 162 200 243 298 357
#     4   9  19  37  60  88 120 153 194 248 299 348
#     4  11  22  41  60  85 118 162 202 242 295 359
#     4  11  23  36  62  91 116 157 200 246 292 353
#     4  10  21  39  64  89 118 157 198 243 304 363
#     4  10  24  41  59  88 123 155 198 252 297 352
#
# _framework density 19.128111000000001
#
# number of rings (size 3 to 8) (size 9 to 14) (size 15 to 20)
#    0.000    1.667    3.333    0.500    7.000    0.333 
#    0.000    0.000    0.000    3.000    0.000    0.000 
#    0.000    0.000    0.000    0.000    0.000    0.000 
#
# Total GULP energy -594829.995136 kJ/mol
# GULP energy per Si atom -12392.291565 kJ/mol
# Density = 1.908457 g / cm^3
# Si number density = 19.128111 Si / 1000 Ang^3
#
#
#
# Elastic Constant Matrix: (Units=GPa)
#
#
# Indices 1 2 3 4 5 6 
#
# 1 59.7602 17.3714 31.8053 0.0000 0.0000 -0.5581
# 2 17.3714 59.7602 31.8053 0.0000 0.0000 0.5581
# 3 31.8053 31.8053 138.0783 0.0000 0.0000 0.0000
# 4 0.0000 0.0000 0.0000 56.4436 0.0000 0.0000
# 5 0.0000 0.0000 0.0000 0.0000 56.4436 0.0000
# 6 -0.5581 0.5581 0.0000 0.0000 0.0000 29.9608
#
#
#
# Elastic Compliance Matrix: (Units=1/GPa)
#
#
# Indices 1 2 3 4 5 6 
#
# 1 0.019804 -0.003799 -0.003687 0.000000 0.000000 0.000440
# 2 -0.003799 0.019804 -0.003687 0.000000 0.000000 -0.000440
# 3 -0.003687 -0.003687 0.008941 0.000000 0.000000 0.000000
# 4 0.000000 0.000000 0.000000 0.017717 0.000000 0.000000
# 5 0.000000 0.000000 0.000000 0.000000 0.017717 0.000000
# 6 0.000440 -0.000440 0.000000 0.000000 0.000000 0.033393
#
#
# Mechanical properties :
#
#
# Convention : Reuss Voigt Hill
#
# Bulk Modulus (GPa) = 38.16146 46.61808 42.38977
# Shear Modulus (GPa) = 33.68032 40.34403 37.01217
#
# Velocity S-wave (km/s) = 4.20071 4.59753 4.40359
# Velocity P-wave (km/s) = 6.59710 7.25310 6.93286
#
# Compressibility (1/GPa) = 0.02620445
#
# Stress axis : x y z
#
# Youngs Moduli (GPa) = 50.49488 50.49488 111.84846
#
# Poissons Ratio (x) = 0.19182 0.41235
# Poissons Ratio (y) = 0.19182 0.41235
# Poissons Ratio (z) = 0.18616 0.18616
#
# Static dielectric constant tensor:
#      x y z
#    x 3.442420 0.000000 0.000000 
#    y 0.000000 3.442420 0.000000 
#    z 0.000000 0.000000 3.985450 
# 
# 
# High freq. dielectric constant tensor:
#      x y z
#    x 1.734990 0.000000 0.000000 
#    y 0.000000 1.734990 0.000000 
#    z 0.000000 0.000000 1.764000 
# 
# From -- ./inp_files/5735.got.cif
#   From: 2010.03.12/outbox.cif.g09.slc.cpg/sg84_3_cif.got.tgz:5735.got - 2010.04.08 20:07:29.
