data_PCOD8303609
_publ_section_title
;
Structure prediction by ZEFSAII (Michael W. Deem and Ramdas Pophale) SiO2 
 PCOD8303609
Probable space group: P 42/N
;
_chemical_formula_sum "Si O2"
_cell_formula_units_Z 36
_cell_length_a 11.136626
_cell_length_b 11.136626
_cell_length_c 13.509961
_cell_angle_alpha 90.000000
_cell_angle_beta 90.000000
_cell_angle_gamma 90.000000
_cell_volume 1675.565329
_symmetry_space_group_name_H-M "P 42/N"
_symmetry_group_IT_number 86
_space_group.IT_coordinate_system_code '2'
_symmetry_cell_setting 'tetragonal'
loop_
_space_group_symop_operation_xyz
x,y,z
-y,1/2+x,1/2+z
1/2-x,1/2-y,z
1/2+y,-x,1/2+z
-x,-y,-z
y,1/2-x,1/2-z
1/2+x,1/2+y,-z
1/2-y,x,1/2-z
loop_
_atom_site_type_symbol
_atom_site_label
_atom_site_fract_x
_atom_site_fract_y
_atom_site_fract_z
Si Si1 0.154452 0.022793 0.586922
Si Si2 0.366798 0.489653 0.046829
Si Si3 0.250000 0.250000 0.485341
Si Si4 0.865536 0.184916 0.794877
Si Si5 0.644014 0.085804 0.076711
O O1 0.198744 0.152312 0.558356
O O2 0.014017 0.043783 0.607786
O O3 0.229443 0.980234 0.682758
O O4 0.174114 0.922917 0.500605
O O5 0.318713 0.355357 0.076067
O O6 0.374824 0.557557 0.150839
O O7 0.500000 0.500000 0.000000
O O8 0.269707 0.542483 0.969753
O O9 0.750000 0.250000 0.839480
O O10 0.845808 0.169746 0.678137
#
# Coordination Sequence:
#
# PCOD8303609 Si02
#       5
#     8   8   4   8   8
#     4  10  22  45  63  97 132 171 220 280 336 394
#     4  11  23  43  67 100 134 175 224 283 340 403
#     4  10  22  42  72  90 132 174 216 286 338 396
#     4  12  25  40  70  99 130 181 226 265 345 414
#     4  10  25  43  65  93 139 172 220 282 332 404
#
# _framework density 21.485288000000001
#
# number of rings (size 3 to 8) (size 9 to 14) (size 15 to 20)
#    0.000    1.333    4.444    0.000    6.222    0.000 
#    0.000    2.222    0.000    0.000    0.000    0.000 
#    0.000    0.000    0.000    0.000    0.000    0.000 
#
# Total GULP energy -446092.217814 kJ/mol
# GULP energy per Si atom -12391.450495 kJ/mol
# Density = 2.143639 g / cm^3
# Si number density = 21.485288 Si / 1000 Ang^3
#
#
#
# Elastic Constant Matrix: (Units=GPa)
#
#
# Indices 1 2 3 4 5 6 
#
# 1 108.0341 32.3344 25.8689 0.0000 0.0000 -7.3095
# 2 32.3344 108.0341 25.8689 0.0000 0.0000 7.3095
# 3 25.8689 25.8689 92.0151 0.0000 0.0000 0.0000
# 4 0.0000 0.0000 0.0000 23.1838 0.0000 0.0000
# 5 0.0000 0.0000 0.0000 0.0000 23.1838 0.0000
# 6 -7.3095 7.3095 0.0000 0.0000 0.0000 42.1099
#
#
#
# Elastic Compliance Matrix: (Units=1/GPa)
#
#
# Indices 1 2 3 4 5 6 
#
# 1 0.010808 -0.002860 -0.002234 0.000000 0.000000 0.002373
# 2 -0.002860 0.010808 -0.002234 0.000000 0.000000 -0.002373
# 3 -0.002234 -0.002234 0.012124 0.000000 0.000000 0.000000
# 4 0.000000 0.000000 0.000000 0.043133 0.000000 0.000000
# 5 0.000000 0.000000 0.000000 0.000000 0.043133 0.000000
# 6 0.002373 -0.002373 0.000000 0.000000 0.000000 0.024571
#
#
# Mechanical properties :
#
#
# Convention : Reuss Voigt Hill
#
# Bulk Modulus (GPa) = 52.40565 52.91418 52.65992
# Shear Modulus (GPa) = 30.19380 32.62959 31.41170
#
# Velocity S-wave (km/s) = 3.75283 3.90127 3.82777
# Velocity P-wave (km/s) = 6.57440 6.70632 6.64069
#
# Compressibility (1/GPa) = 0.01908191
#
# Stress axis : x y z
#
# Youngs Moduli (GPa) = 92.52432 92.52432 82.48020
#
# Poissons Ratio (x) = 0.26465 0.18429
# Poissons Ratio (y) = 0.26465 0.18429
# Poissons Ratio (z) = 0.20674 0.20674
#
# Static dielectric constant tensor:
#      x y z
#    x 4.335800 0.000000 0.000000 
#    y 0.000000 4.335800 0.000000 
#    z 0.000000 0.000000 3.436380 
# 
# 
# High freq. dielectric constant tensor:
#      x y z
#    x 1.858630 0.000000 0.000000 
#    y 0.000000 1.858630 0.000000 
#    z 0.000000 0.000000 1.811650 
# 
# From -- ./inp_files/2082.got.cif
#   From: 2010.03.12/outbox.cif.g09.slc.cpg/sg86_2_cif.got.tgz:2082.got - 2010.04.08 20:12:58.
