data_PCOD8303127
_publ_section_title
;
Structure prediction by ZEFSAII (Michael W. Deem and Ramdas Pophale) SiO2 
 PCOD8303127
Probable space group: P 42/M
;
_chemical_formula_sum "Si O2"
_cell_formula_units_Z 48
_cell_length_a 14.756021
_cell_length_b 14.756021
_cell_length_c 13.359862
_cell_angle_alpha 90.000000
_cell_angle_beta 90.000000
_cell_angle_gamma 90.000000
_cell_volume 2908.978433
_symmetry_space_group_name_H-M "P 42/M"
_symmetry_group_IT_number 84
_symmetry_cell_setting 'tetragonal'
loop_
_space_group_symop_operation_xyz
x,y,z
-y,x,1/2+z
-x,-y,z
y,-x,1/2+z
-x,-y,-z
y,-x,1/2-z
x,y,-z
-y,x,1/2-z
loop_
_atom_site_type_symbol
_atom_site_label
_atom_site_fract_x
_atom_site_fract_y
_atom_site_fract_z
Si Si1 0.214648 0.994507 0.118125
Si Si2 0.085836 0.303763 0.890321
Si Si3 0.418183 0.930417 0.892004
Si Si4 0.166287 0.163578 0.255023
Si Si5 0.325558 0.125567 0.383566
Si Si6 0.106241 0.484418 0.806094
O O1 0.322598 0.979380 0.136419
O O2 0.152648 0.913184 0.162386
O O3 0.179745 0.080946 0.179352
O O4 0.193845 0.006279 0.000000
O O5 0.144200 0.250444 0.810696
O O6 0.120877 0.407426 0.889450
O O7 0.979296 0.300252 0.864280
O O8 0.103006 0.263097 0.000000
O O9 0.446796 0.860484 0.803228
O O10 0.500000 0.000000 0.905023
O O11 0.405522 0.880277 0.000000
O O12 0.256011 0.184865 0.319276
O O13 0.319725 0.150489 0.500000
O O14 0.424363 0.153986 0.342514
O O15 0.000000 0.500000 0.793012
#
# Coordination Sequence:
#
# PCOD8303127 Si02
#       6
#     8   8   8   8   8   8
#     4  11  23  36  50  68  96 134 172 208 246 284
#     4  10  19  32  50  70  93 125 164 206 252 295
#     4   9  16  29  50  73  93 120 155 198 258 310
#     4  12  20  37  47  69  95 133 171 209 240 280
#     4  10  20  33  51  71  96 128 165 205 251 295
#     4   9  15  30  50  74  94 116 152 205 254 304
#
# _framework density 16.500637999999999
#
# number of rings (size 3 to 8) (size 9 to 14) (size 15 to 20)
#    0.000    1.833    3.333    3.500    0.000    2.333 
#    0.000    1.667    0.000    0.000    0.000    0.000 
#    0.000    0.667    0.000    3.167    1.000    0.000 
#
# Total GULP energy -594636.307488 kJ/mol
# GULP energy per Si atom -12388.256406 kJ/mol
# Density = 1.646308 g / cm^3
# Si number density = 16.500638 Si / 1000 Ang^3
#
#
#
# Elastic Constant Matrix: (Units=GPa)
#
#
# Indices 1 2 3 4 5 6 
#
# 1 59.4416 23.4699 42.5004 0.0000 0.0000 -2.5675
# 2 23.4699 59.4416 42.5004 0.0000 0.0000 2.5675
# 3 42.5004 42.5004 139.3656 0.0000 0.0000 0.0000
# 4 0.0000 0.0000 0.0000 27.1136 0.0000 0.0000
# 5 0.0000 0.0000 0.0000 0.0000 27.1136 0.0000
# 6 -2.5675 2.5675 0.0000 0.0000 0.0000 4.0727
#
#
#
# Elastic Compliance Matrix: (Units=1/GPa)
#
#
# Indices 1 2 3 4 5 6 
#
# 1 0.024048 -0.006501 -0.005351 0.000000 0.000000 0.019259
# 2 -0.006501 0.024048 -0.005351 0.000000 0.000000 -0.019259
# 3 -0.005351 -0.005351 0.010439 0.000000 0.000000 0.000000
# 4 0.000000 0.000000 0.000000 0.036882 0.000000 0.000000
# 5 0.000000 0.000000 0.000000 0.000000 0.036882 0.000000
# 6 0.019259 -0.019259 0.000000 0.000000 0.000000 0.269818
#
#
# Mechanical properties :
#
#
# Convention : Reuss Voigt Hill
#
# Bulk Modulus (GPa) = 41.44437 52.79893 47.12165
# Shear Modulus (GPa) = 11.24693 21.64517 16.44605
#
# Velocity S-wave (km/s) = 2.61359 3.62578 3.16047
# Velocity P-wave (km/s) = 5.85484 7.04244 6.47592
#
# Compressibility (1/GPa) = 0.02412873
#
# Stress axis : x y z
#
# Youngs Moduli (GPa) = 41.58366 41.58366 95.79422
#
# Poissons Ratio (x) = 0.27033 0.51260
# Poissons Ratio (y) = 0.27033 0.51260
# Poissons Ratio (z) = 0.22252 0.22252
#
# Static dielectric constant tensor:
#      x y z
#    x 2.964380 0.000000 0.000000 
#    y 0.000000 2.964380 0.000000 
#    z 0.000000 0.000000 3.758410 
# 
# 
# High freq. dielectric constant tensor:
#      x y z
#    x 1.597900 0.000000 0.000000 
#    y 0.000000 1.597900 0.000000 
#    z 0.000000 0.000000 1.675130 
# 
# From -- ./inp_files/3063.got.cif
#   From: 2010.03.12/outbox.cif.g09.slc.cpg/sg84_2_cif.got.tgz:3063.got - 2010.04.08 20:07:29.
