data_PCOD8303729
_publ_section_title
;
Structure prediction by ZEFSAII (Michael W. Deem and Ramdas Pophale) SiO2 
 PCOD8303729
Probable space group: I 4/M
;
_chemical_formula_sum "Si O2"
_cell_formula_units_Z 120
_cell_length_a 14.967732
_cell_length_b 14.967732
_cell_length_c 27.104845
_cell_angle_alpha 90.000000
_cell_angle_beta 90.000000
_cell_angle_gamma 90.000000
_cell_volume 6072.379773
_symmetry_space_group_name_H-M "I 4/M"
_symmetry_group_IT_number 87
_symmetry_cell_setting 'tetragonal'
loop_
_space_group_symop_operation_xyz
x,y,z
-y,x,z
-x,-y,z
y,-x,z
-x,-y,-z
y,-x,-z
x,y,-z
-y,x,-z
1/2+x,1/2+y,1/2+z
1/2-y,1/2+x,1/2+z
1/2-x,1/2-y,1/2+z
1/2+y,1/2-x,1/2+z
1/2-x,1/2-y,1/2-z
1/2+y,1/2-x,1/2-z
1/2+x,1/2+y,1/2-z
1/2-y,1/2+x,1/2-z
loop_
_atom_site_type_symbol
_atom_site_label
_atom_site_fract_x
_atom_site_fract_y
_atom_site_fract_z
Si Si1 0.734671 0.667224 0.555411
Si Si2 0.600237 0.702451 0.945336
Si Si3 0.364625 0.221581 0.377929
Si Si4 0.438753 0.827879 0.636750
Si Si5 0.266641 0.785517 0.304364
Si Si6 0.673608 0.933510 0.554478
Si Si7 0.383670 0.585949 0.845391
Si Si8 0.000000 0.500000 0.910777
O O1 0.718681 0.632747 0.500000
O O2 0.805730 0.747656 0.557851
O O3 0.640799 0.703580 0.578371
O O4 0.773400 0.587499 0.587874
O O5 0.522263 0.772087 0.933031
O O6 0.599294 0.624658 0.904673
O O7 0.588112 0.660263 0.000000
O O8 0.461310 0.208739 0.352938
O O9 0.303131 0.253782 0.334634
O O10 0.316137 0.133891 0.400232
O O11 0.368703 0.817642 0.682485
O O12 0.446230 0.932482 0.624810
O O13 0.250000 0.750000 0.250000
O O14 0.195809 0.863423 0.316844
O O15 0.700999 0.895338 0.500000
O O16 0.568251 0.952893 0.552270
O O17 0.376547 0.481149 0.830844
#
# Coordination Sequence:
#
# PCOD8303729 Si02
#       8
#    16  16  16  16  16  16  16   8
#     4  10  19  34  53  81 121 165 208 248 293 353
#     4  10  19  32  53  83 124 172 211 242 284 347
#     4  10  21  37  56  85 117 155 204 254 311 369
#     4  10  21  37  60  90 120 161 203 254 314 377
#     4  11  24  45  68  87 118 156 201 264 329 379
#     4  10  18  28  50  83 122 164 202 241 288 352
#     4  11  23  40  63  92 126 166 207 248 304 376
#     4  10  17  30  52  85 128 158 198 241 295 362
#
# _framework density 19.761610999999998
#
# number of rings (size 3 to 8) (size 9 to 14) (size 15 to 20)
#    0.000    1.733    4.000    1.400    0.000    5.333 
#    0.000    0.667    0.000    7.200    0.000    3.733 
#    0.000    0.000    0.000    0.000    0.000    0.000 
#
# Total GULP energy -743378.985279 kJ/mol
# GULP energy per Si atom -12389.649755 kJ/mol
# Density = 1.971663 g / cm^3
# Si number density = 19.761611 Si / 1000 Ang^3
#
#
#
# Elastic Constant Matrix: (Units=GPa)
#
#
# Indices 1 2 3 4 5 6 
#
# 1 82.6589 41.9175 27.7101 0.0000 0.0000 0.3479
# 2 41.9175 82.6589 27.7101 0.0000 0.0000 -0.3479
# 3 27.7101 27.7101 90.5419 0.0000 0.0000 0.0000
# 4 0.0000 0.0000 0.0000 13.1438 0.0000 0.0000
# 5 0.0000 0.0000 0.0000 0.0000 13.1438 0.0000
# 6 0.3479 -0.3479 0.0000 0.0000 0.0000 34.9512
#
#
#
# Elastic Compliance Matrix: (Units=1/GPa)
#
#
# Indices 1 2 3 4 5 6 
#
# 1 0.016921 -0.007628 -0.002844 0.000000 0.000000 -0.000244
# 2 -0.007628 0.016921 -0.002844 0.000000 0.000000 0.000244
# 3 -0.002844 -0.002844 0.012785 0.000000 0.000000 0.000000
# 4 0.000000 0.000000 0.000000 0.076081 0.000000 0.000000
# 5 0.000000 0.000000 0.000000 0.000000 0.076081 0.000000
# 6 -0.000244 0.000244 0.000000 0.000000 0.000000 0.028616
#
#
# Mechanical properties :
#
#
# Convention : Reuss Voigt Hill
#
# Bulk Modulus (GPa) = 50.01382 50.05944 50.03663
# Shear Modulus (GPa) = 19.17892 22.81592 20.99742
#
# Velocity S-wave (km/s) = 3.11869 3.40156 3.26319
# Velocity P-wave (km/s) = 6.19127 6.38860 6.29071
#
# Compressibility (1/GPa) = 0.01999448
#
# Stress axis : x y z
#
# Youngs Moduli (GPa) = 59.09884 59.09884 78.21455
#
# Poissons Ratio (x) = 0.45083 0.22243
# Poissons Ratio (y) = 0.45083 0.22243
# Poissons Ratio (z) = 0.16807 0.16807
#
# Static dielectric constant tensor:
#      x y z
#    x 4.093280 0.000000 0.000000 
#    y 0.000000 4.093280 0.000000 
#    z 0.000000 0.000000 3.736460 
# 
# 
# High freq. dielectric constant tensor:
#      x y z
#    x 1.770310 0.000000 0.000000 
#    y 0.000000 1.770310 0.000000 
#    z 0.000000 0.000000 1.744980 
# 
# From -- ./inp_files/6763.got.cif
#   From: 2010.03.12/outbox.cif.g09.slc.cpg/sg87_4_cif.got.tgz:6763.got - 2010.04.08 20:16:13.
