data_PCOD8303173
_publ_section_title
;
Structure prediction by ZEFSAII (Michael W. Deem and Ramdas Pophale) SiO2 
 PCOD8303173
Probable space group: P 42/M
;
_chemical_formula_sum "Si O2"
_cell_formula_units_Z 48
_cell_length_a 9.493719
_cell_length_b 9.493719
_cell_length_c 28.085995
_cell_angle_alpha 90.000000
_cell_angle_beta 90.000000
_cell_angle_gamma 90.000000
_cell_volume 2531.410402
_symmetry_space_group_name_H-M "P 42/M"
_symmetry_group_IT_number 84
_symmetry_cell_setting 'tetragonal'
loop_
_space_group_symop_operation_xyz
x,y,z
-y,x,1/2+z
-x,-y,z
y,-x,1/2+z
-x,-y,-z
y,-x,1/2-z
x,y,-z
-y,x,1/2-z
loop_
_atom_site_type_symbol
_atom_site_label
_atom_site_fract_x
_atom_site_fract_y
_atom_site_fract_z
Si Si1 0.757209 0.327801 0.846152
Si Si2 0.833366 0.530992 0.397328
Si Si3 0.285067 0.352373 0.856743
Si Si4 0.139677 0.409558 0.500000
Si Si5 0.657729 0.662211 0.753558
Si Si6 0.990402 0.657814 0.086965
Si Si7 0.147134 0.078086 0.500000
O O1 0.676898 0.198530 0.870871
O O2 0.683385 0.479569 0.857082
O O3 0.766691 0.299053 0.789369
O O4 0.913732 0.330698 0.866308
O O5 0.736832 0.416392 0.373292
O O6 0.779063 0.547570 0.451918
O O7 0.000000 0.500000 0.393597
O O8 0.252263 0.309379 0.801608
O O9 0.163931 0.308396 0.893419
O O10 0.111998 0.242760 0.500000
O O11 0.000000 0.500000 0.500000
O O12 0.683998 0.505793 0.733084
O O13 0.000000 0.500000 0.065398
O O14 0.033672 0.766997 0.046615
O O15 0.000000 0.000000 0.500000
#
# Coordination Sequence:
#
# PCOD8303173 Si02
#       7
#     8   8   8   4   8   8   4
#     4  10  19  39  59  85 122 159 194 247 298 348
#     4  11  22  38  60  87 118 152 200 254 292 347
#     4  10  21  37  59  89 121 157 198 242 299 356
#     4  10  24  41  60  87 119 149 204 247 295 352
#     4   9  16  31  58  85 116 155 197 238 294 351
#     4  10  23  40  62  88 122 156 200 246 292 361
#     4  12  25  41  67  84 118 168 194 236 311 361
#
# _framework density 18.961760000000002
#
# number of rings (size 3 to 8) (size 9 to 14) (size 15 to 20)
#    0.000    1.833    3.333    0.750    4.667    0.000 
#    3.000    2.500    0.000    0.000    0.000    0.000 
#    0.000    0.000    0.000    0.000    0.000    0.000 
#
# Total GULP energy -594953.697775 kJ/mol
# GULP energy per Si atom -12394.868704 kJ/mol
# Density = 1.891860 g / cm^3
# Si number density = 18.961760 Si / 1000 Ang^3
#
#
#
# Elastic Constant Matrix: (Units=GPa)
#
#
# Indices 1 2 3 4 5 6 
#
# 1 56.9858 22.2645 31.8615 0.0000 0.0000 2.8752
# 2 22.2645 56.9858 31.8615 0.0000 0.0000 -2.8752
# 3 31.8615 31.8615 136.2001 0.0000 0.0000 0.0000
# 4 0.0000 0.0000 0.0000 22.5612 0.0000 0.0000
# 5 0.0000 0.0000 0.0000 0.0000 22.5612 0.0000
# 6 2.8752 -2.8752 0.0000 0.0000 0.0000 24.3228
#
#
#
# Elastic Compliance Matrix: (Units=1/GPa)
#
#
# Indices 1 2 3 4 5 6 
#
# 1 0.022459 -0.006917 -0.003636 0.000000 0.000000 -0.003473
# 2 -0.006917 0.022459 -0.003636 0.000000 0.000000 0.003473
# 3 -0.003636 -0.003636 0.009043 0.000000 0.000000 0.000000
# 4 0.000000 0.000000 0.000000 0.044324 0.000000 0.000000
# 5 0.000000 0.000000 0.000000 0.000000 0.044324 0.000000
# 6 -0.003473 0.003473 0.000000 0.000000 0.000000 0.041935
#
#
# Mechanical properties :
#
#
# Convention : Reuss Voigt Hill
#
# Bulk Modulus (GPa) = 39.08751 46.90522 42.99636
# Shear Modulus (GPa) = 22.57868 24.83465 23.70666
#
# Velocity S-wave (km/s) = 3.45447 3.62294 3.53970
# Velocity P-wave (km/s) = 6.04729 6.50318 6.27937
#
# Compressibility (1/GPa) = 0.02558362
#
# Stress axis : x y z
#
# Youngs Moduli (GPa) = 44.52614 44.52614 110.58105
#
# Poissons Ratio (x) = 0.30799 0.40204
# Poissons Ratio (y) = 0.30799 0.40204
# Poissons Ratio (z) = 0.16188 0.16188
#
# Static dielectric constant tensor:
#      x y z
#    x 2.897710 0.000000 0.000000 
#    y 0.000000 2.897710 0.000000 
#    z 0.000000 0.000000 3.807790 
# 
# 
# High freq. dielectric constant tensor:
#      x y z
#    x 1.721470 0.000000 0.000000 
#    y 0.000000 1.721470 0.000000 
#    z 0.000000 0.000000 1.756420 
# 
# From -- ./inp_files/5856.got.cif
#   From: 2010.03.12/outbox.cif.g09.slc.cpg/sg84_3_cif.got.tgz:5856.got - 2010.04.08 20:07:29.
