data_PCOD8303282
_publ_section_title
;
Structure prediction by ZEFSAII (Michael W. Deem and Ramdas Pophale) SiO2 
 PCOD8303282
Probable space group: P 42/M
;
_chemical_formula_sum "Si O2"
_cell_formula_units_Z 40
_cell_length_a 14.772435
_cell_length_b 14.772435
_cell_length_c 8.699819
_cell_angle_alpha 90.000000
_cell_angle_beta 90.000000
_cell_angle_gamma 90.000000
_cell_volume 1898.516573
_symmetry_space_group_name_H-M "P 42/M"
_symmetry_group_IT_number 84
_symmetry_cell_setting 'tetragonal'
loop_
_space_group_symop_operation_xyz
x,y,z
-y,x,1/2+z
-x,-y,z
y,-x,1/2+z
-x,-y,-z
y,-x,1/2-z
x,y,-z
-y,x,1/2-z
loop_
_atom_site_type_symbol
_atom_site_label
_atom_site_fract_x
_atom_site_fract_y
_atom_site_fract_z
Si Si1 0.617450 0.265245 0.176868
Si Si2 0.708770 0.102952 0.675161
Si Si3 0.254885 0.587822 0.322892
Si Si4 0.060139 0.583307 0.822719
Si Si5 0.072791 0.110818 0.678124
O O1 0.633333 0.175610 0.277685
O O2 0.682600 0.346822 0.223416
O O3 0.513282 0.292524 0.204327
O O4 0.635190 0.241071 0.000000
O O5 0.737334 0.119722 0.500000
O O6 0.795029 0.121025 0.783178
O O7 0.672819 0.000934 0.695888
O O8 0.262593 0.616522 0.500000
O O9 0.150169 0.596379 0.275649
O O10 0.000000 0.500000 0.759912
O O11 0.086926 0.565940 0.000000
O O12 0.085126 0.087077 0.500000
O O13 0.967267 0.119076 0.721243
#
# Coordination Sequence:
#
# PCOD8303282 Si02
#       5
#     8   8   8   8   8
#     4  11  25  44  66  94 129 168 215 269 325 386
#     4  11  23  40  64  93 126 165 211 262 318 381
#     4  11  25  43  67  97 129 169 214 266 322 382
#     4  10  21  40  66  94 126 164 203 252 313 372
#     4  11  23  41  62  87 124 167 213 261 314 376
#
# _framework density 21.069082000000002
#
# number of rings (size 3 to 8) (size 9 to 14) (size 15 to 20)
#    0.000    1.200    2.000    4.200    2.800    4.800 
#    0.000    2.000    0.000    0.000    0.000    0.000 
#    0.000    0.000    0.000    0.000    0.000    0.000 
#
# Total GULP energy -496211.835571 kJ/mol
# GULP energy per Si atom -12405.295889 kJ/mol
# Density = 2.102113 g / cm^3
# Si number density = 21.069082 Si / 1000 Ang^3
#
#
#
# Elastic Constant Matrix: (Units=GPa)
#
#
# Indices 1 2 3 4 5 6 
#
# 1 87.2957 23.4036 26.1219 0.0000 0.0000 -6.4068
# 2 23.4036 87.2957 26.1219 0.0000 0.0000 6.4068
# 3 26.1219 26.1219 82.1481 0.0000 0.0000 0.0000
# 4 0.0000 0.0000 0.0000 34.0065 0.0000 0.0000
# 5 0.0000 0.0000 0.0000 0.0000 34.0065 0.0000
# 6 -6.4068 6.4068 0.0000 0.0000 0.0000 31.1998
#
#
#
# Elastic Compliance Matrix: (Units=1/GPa)
#
#
# Indices 1 2 3 4 5 6 
#
# 1 0.013476 -0.002848 -0.003380 0.000000 0.000000 0.003352
# 2 -0.002848 0.013476 -0.003380 0.000000 0.000000 -0.003352
# 3 -0.003380 -0.003380 0.014323 0.000000 0.000000 0.000000
# 4 0.000000 0.000000 0.000000 0.029406 0.000000 0.000000
# 5 0.000000 0.000000 0.000000 0.000000 0.029406 0.000000
# 6 0.003352 -0.003352 0.000000 0.000000 0.000000 0.033428
#
#
# Mechanical properties :
#
#
# Convention : Reuss Voigt Hill
#
# Bulk Modulus (GPa) = 45.32949 45.33718 45.33333
# Shear Modulus (GPa) = 31.23384 31.91535 31.57460
#
# Velocity S-wave (km/s) = 3.85444 3.89626 3.87540
# Velocity P-wave (km/s) = 6.43197 6.46577 6.44889
#
# Compressibility (1/GPa) = 0.02206070
#
# Stress axis : x y z
#
# Youngs Moduli (GPa) = 74.20557 74.20557 69.82000
#
# Poissons Ratio (x) = 0.21131 0.23597
# Poissons Ratio (y) = 0.21131 0.23597
# Poissons Ratio (z) = 0.25079 0.25079
#
# Static dielectric constant tensor:
#      x y z
#    x 3.766480 0.000000 0.000000 
#    y 0.000000 3.766480 0.000000 
#    z 0.000000 0.000000 3.813660 
# 
# 
# High freq. dielectric constant tensor:
#      x y z
#    x 1.828050 0.000000 0.000000 
#    y 0.000000 1.828050 0.000000 
#    z 0.000000 0.000000 1.830600 
# 
# From -- ./inp_files/808.got.cif
#   From: 2010.03.12/outbox.cif.g09.slc.cpg/sg84_1_cif.got.tgz:808.got - 2010.04.08 20:07:29.
