data_PCOD8303048
_publ_section_title
;
Structure prediction by ZEFSAII (Michael W. Deem and Ramdas Pophale) SiO2 
 PCOD8303048
Probable space group: P 42/M
;
_chemical_formula_sum "Si O2"
_cell_formula_units_Z 28
_cell_length_a 9.098945
_cell_length_b 9.098945
_cell_length_c 18.630108
_cell_angle_alpha 90.000000
_cell_angle_beta 90.000000
_cell_angle_gamma 90.000000
_cell_volume 1542.401548
_symmetry_space_group_name_H-M "P 42/M"
_symmetry_group_IT_number 84
_symmetry_cell_setting 'tetragonal'
loop_
_space_group_symop_operation_xyz
x,y,z
-y,x,1/2+z
-x,-y,z
y,-x,1/2+z
-x,-y,-z
y,-x,1/2-z
x,y,-z
-y,x,1/2-z
loop_
_atom_site_type_symbol
_atom_site_label
_atom_site_fract_x
_atom_site_fract_y
_atom_site_fract_z
Si Si1 0.000000 0.000000 0.250000
Si Si2 0.500000 0.500000 0.750000
Si Si3 0.947272 0.734220 0.154720
Si Si4 0.013527 0.173340 0.000000
Si Si5 0.431163 0.167473 0.500000
Si Si6 0.771344 0.455783 0.844733
O O1 0.878690 0.078641 0.298702
O O2 0.623257 0.425751 0.800546
O O3 0.840678 0.607625 0.184161
O O4 0.115842 0.679790 0.163120
O O5 0.903902 0.773097 0.072339
O O6 0.853814 0.253264 0.000000
O O7 0.000000 0.000000 0.000000
O O8 0.477594 0.259536 0.429918
O O9 0.500000 0.000000 0.500000
#
# Coordination Sequence:
#
# PCOD8303048 Si02
#       6
#     2   2   8   4   4   8
#     4  12  20  26  48  84 104 134 168 224 264 322
#     4  12  24  34  52  80 120 138 172 232 268 314
#     4  10  19  33  53  75 105 136 180 212 265 316
#     4  10  16  30  52  82 100 124 172 236 252 294
#     4  10  16  35  62  73  97 143 187 219 252 321
#     4  10  20  37  53  76 104 148 178 218 263 316
#
# _framework density 18.153510000000001
#
# number of rings (size 3 to 8) (size 9 to 14) (size 15 to 20)
#    0.000    1.714    7.143    1.714    0.000    0.571 
#    0.000    0.000    0.000    0.000    0.000    4.000 
#    0.000    0.000    0.000    0.000    0.000    0.000 
#
# Total GULP energy -346967.234051 kJ/mol
# GULP energy per Si atom -12391.686930 kJ/mol
# Density = 1.811219 g / cm^3
# Si number density = 18.153510 Si / 1000 Ang^3
#
#
#
# Elastic Constant Matrix: (Units=GPa)
#
#
# Indices 1 2 3 4 5 6 
#
# 1 67.6289 3.5582 24.1904 0.0000 0.0000 -0.1057
# 2 3.5582 67.6289 24.1904 0.0000 0.0000 0.1057
# 3 24.1904 24.1904 111.8577 0.0000 0.0000 0.0000
# 4 0.0000 0.0000 0.0000 21.8894 0.0000 0.0000
# 5 0.0000 0.0000 0.0000 0.0000 21.8894 0.0000
# 6 -0.1057 0.1057 0.0000 0.0000 0.0000 14.3652
#
#
#
# Elastic Compliance Matrix: (Units=1/GPa)
#
#
# Indices 1 2 3 4 5 6 
#
# 1 0.016038 0.000430 -0.003561 0.000000 0.000000 0.000115
# 2 0.000430 0.016038 -0.003561 0.000000 0.000000 -0.000115
# 3 -0.003561 -0.003561 0.010480 0.000000 0.000000 0.000000
# 4 0.000000 0.000000 0.000000 0.045684 0.000000 0.000000
# 5 0.000000 0.000000 0.000000 0.000000 0.045684 0.000000
# 6 0.000115 -0.000115 0.000000 0.000000 0.000000 0.069615
#
#
# Mechanical properties :
#
#
# Convention : Reuss Voigt Hill
#
# Bulk Modulus (GPa) = 34.28104 38.99927 36.64016
# Shear Modulus (GPa) = 22.06061 24.64058 23.35059
#
# Velocity S-wave (km/s) = 3.48979 3.68821 3.59037
# Velocity P-wave (km/s) = 5.92985 6.29817 6.11678
#
# Compressibility (1/GPa) = 0.02917064
#
# Stress axis : x y z
#
# Youngs Moduli (GPa) = 62.35192 62.35192 95.41725
#
# Poissons Ratio (x) = -0.02680 0.33981
# Poissons Ratio (y) = -0.02680 0.33981
# Poissons Ratio (z) = 0.22206 0.22206
#
# Static dielectric constant tensor:
#      x y z
#    x 3.137350 0.000000 0.000000 
#    y 0.000000 3.137350 0.000000 
#    z 0.000000 0.000000 3.524170 
# 
# 
# High freq. dielectric constant tensor:
#      x y z
#    x 1.677540 0.000000 0.000000 
#    y 0.000000 1.677540 0.000000 
#    z 0.000000 0.000000 1.717580 
# 
# From -- ./inp_files/4070.got.cif
#   From: 2010.03.12/outbox.cif.g09.slc.cpg/sg84_3_cif.got.tgz:4070.got - 2010.04.08 20:07:29.
