data_PCOD8303002
_publ_section_title
;
Structure prediction by ZEFSAII (Michael W. Deem and Ramdas Pophale) SiO2 
 PCOD8303002
Probable space group: P 4/M
;
_chemical_formula_sum "Si O2"
_cell_formula_units_Z 48
_cell_length_a 8.112724
_cell_length_b 8.112724
_cell_length_c 32.758133
_cell_angle_alpha 90.000000
_cell_angle_beta 90.000000
_cell_angle_gamma 90.000000
_cell_volume 2156.018804
_symmetry_space_group_name_H-M "P 4/M"
_symmetry_group_IT_number 83
_symmetry_cell_setting 'tetragonal'
loop_
_space_group_symop_operation_xyz
x,y,z
-y,x,z
-x,-y,z
y,-x,z
-x,-y,-z
y,-x,-z
x,y,-z
-y,x,-z
loop_
_atom_site_type_symbol
_atom_site_label
_atom_site_fract_x
_atom_site_fract_y
_atom_site_fract_z
Si Si1 0.500000 0.000000 0.317985
Si Si2 0.500000 0.000000 0.892371
Si Si3 0.734534 0.047890 0.754593
Si Si4 0.244829 0.591107 0.953927
Si Si5 0.766549 0.529236 0.391178
Si Si6 0.261936 0.932536 0.546449
Si Si7 0.765469 0.570264 0.176850
O O1 0.662020 0.029279 0.290750
O O2 0.505272 0.161608 0.345939
O O3 0.371235 0.098906 0.921718
O O4 0.600083 0.129672 0.864325
O O5 0.591130 0.107435 0.785419
O O6 0.870357 0.188029 0.762221
O O7 0.293709 0.400673 0.946188
O O8 0.179076 0.614793 0.000000
O O9 0.641776 0.678561 0.398334
O O10 0.906134 0.580339 0.424043
O O11 0.323296 0.913006 0.500000
O O12 0.115633 0.803179 0.555157
O O13 0.616268 0.699315 0.178065
#
# Coordination Sequence:
#
# PCOD8303002 Si02
#       7
#     4   4   8   8   8   8   8
#     4  12  23  42  63  87 124 167 205 250 313 382
#     4  12  20  32  58  91 122 159 212 264 314 380
#     4  11  24  43  68  96 126 163 210 262 315 378
#     4   9  19  36  57  83 118 163 217 276 337 399
#     4  11  24  39  58  88 124 162 208 259 308 365
#     4   9  19  38  64  92 123 162 207 256 317 386
#     4  11  24  42  65  95 132 170 209 259 324 397
#
# _framework density 22.263258
#
# number of rings (size 3 to 8) (size 9 to 14) (size 15 to 20)
#    0.000    1.500    0.000    6.750    0.000    2.000 
#    0.000    6.250    0.000    4.500    0.000    9.333 
#    0.000    0.000    0.000    0.000    0.000    0.000 
#
# Total GULP energy -594768.345373 kJ/mol
# GULP energy per Si atom -12391.007195 kJ/mol
# Density = 2.221259 g / cm^3
# Si number density = 22.263258 Si / 1000 Ang^3
#
#
#
# Elastic Constant Matrix: (Units=GPa)
#
#
# Indices 1 2 3 4 5 6 
#
# 1 112.0104 47.7771 59.7539 0.0000 0.0000 -6.5826
# 2 47.7771 112.0104 59.7539 0.0000 0.0000 6.5826
# 3 59.7539 59.7539 162.7667 0.0000 0.0000 0.0000
# 4 0.0000 0.0000 0.0000 -5.0657 0.0000 0.0000
# 5 0.0000 0.0000 0.0000 0.0000 -5.0657 0.0000
# 6 -6.5826 6.5826 0.0000 0.0000 0.0000 39.2776
#
#
#
# Elastic Compliance Matrix: (Units=1/GPa)
#
#
# Indices 1 2 3 4 5 6 
#
# 1 0.012375 -0.003747 -0.003167 0.000000 0.000000 0.002702
# 2 -0.003747 0.012375 -0.003167 0.000000 0.000000 -0.002702
# 3 -0.003167 -0.003167 0.008469 0.000000 0.000000 0.000000
# 4 0.000000 0.000000 0.000000 -0.197407 0.000000 0.000000
# 5 0.000000 0.000000 0.000000 0.000000 -0.197407 0.000000
# 6 0.002702 -0.002702 0.000000 0.000000 0.000000 0.026365
#
#
# Mechanical properties :
#
#
# Convention : Reuss Voigt Hill
#
# Bulk Modulus (GPa) = 76.60014 80.15080 78.37547
# Shear Modulus (GPa) = -16.09189 20.46277 2.18544
#
# Velocity S-wave (km/s) = -2.69141 3.03500 0.99185
# Velocity P-wave (km/s) = 4.98227 6.95422 6.04914
#
# Compressibility (1/GPa) = 0.01305481
#
# Stress axis : x y z
#
# Youngs Moduli (GPa) = 80.81110 80.81110 118.07571
#
# Poissons Ratio (x) = 0.30284 0.37396
# Poissons Ratio (y) = 0.30284 0.37396
# Poissons Ratio (z) = 0.25594 0.25594
#
# Static dielectric constant tensor:
#      x y z
#    x 3.998870 0.000000 0.000000 
#    y 0.000000 3.998870 0.000000 
#    z 0.000000 0.000000 4.034730 
# 
# 
# High freq. dielectric constant tensor:
#      x y z
#    x 1.881210 0.000000 0.000000 
#    y 0.000000 1.881210 0.000000 
#    z 0.000000 0.000000 1.882600 
# 
# From -- ./inp_files/3458.got.cif
#   From: 2010.03.12/outbox.cif.g09.slc.cpg/sg83_2_cif.got.tgz:3458.got - 2010.04.08 20:05:18.
