data_PCOD8303752
_publ_section_title
;
Structure prediction by ZEFSAII (Michael W. Deem and Ramdas Pophale) SiO2 
 PCOD8303752
Probable space group: I 4/M
;
_chemical_formula_sum "Si O2"
_cell_formula_units_Z 120
_cell_length_a 27.229872
_cell_length_b 27.229872
_cell_length_c 7.944527
_cell_angle_alpha 90.000000
_cell_angle_beta 90.000000
_cell_angle_gamma 90.000000
_cell_volume 5890.596094
_symmetry_space_group_name_H-M "I 4/M"
_symmetry_group_IT_number 87
_symmetry_cell_setting 'tetragonal'
loop_
_space_group_symop_operation_xyz
x,y,z
-y,x,z
-x,-y,z
y,-x,z
-x,-y,-z
y,-x,-z
x,y,-z
-y,x,-z
1/2+x,1/2+y,1/2+z
1/2-y,1/2+x,1/2+z
1/2-x,1/2-y,1/2+z
1/2+y,1/2-x,1/2+z
1/2-x,1/2-y,1/2-z
1/2+y,1/2-x,1/2-z
1/2+x,1/2+y,1/2-z
1/2-y,1/2+x,1/2-z
loop_
_atom_site_type_symbol
_atom_site_label
_atom_site_fract_x
_atom_site_fract_y
_atom_site_fract_z
Si Si1 0.536725 0.572763 0.500000
Si Si2 0.452170 0.250292 0.805784
Si Si3 0.034849 0.681618 0.192921
Si Si4 0.675260 0.665641 0.306699
Si Si5 0.923656 0.510374 0.303359
Si Si6 0.136908 0.718727 0.799173
Si Si7 0.156696 0.270947 0.698773
Si Si8 0.428644 0.360975 0.192315
O O1 0.478467 0.565464 0.500000
O O2 0.550945 0.600856 0.328447
O O3 0.494952 0.224542 0.702091
O O4 0.400725 0.225401 0.753461
O O5 0.452012 0.308110 0.763690
O O6 0.463182 0.241118 0.000000
O O7 0.016042 0.630731 0.277660
O O8 0.085955 0.698528 0.277811
O O9 0.046495 0.670963 0.000000
O O10 0.666473 0.650992 0.500000
O O11 0.725591 0.643004 0.234408
O O12 0.680021 0.724272 0.291247
O O13 0.630343 0.643529 0.200045
O O14 0.920481 0.514820 0.500000
O O15 0.945324 0.457526 0.259278
O O16 0.180799 0.684088 0.732812
O O17 0.137489 0.718841 0.000000
O O18 0.162961 0.263378 0.500000
O O19 0.442227 0.376966 0.000000
#
# Coordination Sequence:
#
# PCOD8303752 Si02
#       8
#     8  16  16  16  16  16  16  16
#     4  11  26  46  70 102 132 166 212 255 306 364
#     4   9  20  36  58  86 116 156 200 247 303 366
#     4  10  22  36  54  81 112 151 198 251 306 365
#     4  10  18  33  59  89 120 157 205 248 300 369
#     4  10  21  37  58  79 104 146 198 252 311 368
#     4   9  19  34  52  80 116 156 199 245 305 369
#     4   9  18  34  56  79 112 157 197 242 308 375
#     4  10  22  43  68  96 129 169 211 250 312 371
#
# _framework density 20.371452000000001
#
# number of rings (size 3 to 8) (size 9 to 14) (size 15 to 20)
#    0.000    2.333    0.667    2.400    2.800    3.200 
#    0.000    4.667    0.000    0.000    0.000    0.000 
#    0.000    0.000    0.000    0.000    0.000    0.000 
#
# Total GULP energy -743937.514851 kJ/mol
# GULP energy per Si atom -12398.958581 kJ/mol
# Density = 2.032509 g / cm^3
# Si number density = 20.371452 Si / 1000 Ang^3
#
#
#
# Elastic Constant Matrix: (Units=GPa)
#
#
# Indices 1 2 3 4 5 6 
#
# 1 139.6082 85.1688 37.3932 0.0000 0.0000 -7.1425
# 2 85.1688 139.6082 37.3932 0.0000 0.0000 7.1425
# 3 37.3932 37.3932 62.3775 0.0000 0.0000 0.0000
# 4 0.0000 0.0000 0.0000 22.1612 0.0000 0.0000
# 5 0.0000 0.0000 0.0000 0.0000 22.1612 0.0000
# 6 -7.1425 7.1425 0.0000 0.0000 0.0000 30.2829
#
#
#
# Elastic Compliance Matrix: (Units=1/GPa)
#
#
# Indices 1 2 3 4 5 6 
#
# 1 0.012569 -0.007012 -0.003331 0.000000 0.000000 0.004618
# 2 -0.007012 0.012569 -0.003331 0.000000 0.000000 -0.004618
# 3 -0.003331 -0.003331 0.020026 0.000000 0.000000 0.000000
# 4 0.000000 0.000000 0.000000 0.045124 0.000000 0.000000
# 5 0.000000 0.000000 0.000000 0.000000 0.045124 0.000000
# 6 0.004618 -0.004618 0.000000 0.000000 0.000000 0.035201
#
#
# Mechanical properties :
#
#
# Convention : Reuss Voigt Hill
#
# Bulk Modulus (GPa) = 56.13406 73.50047 64.81727
# Shear Modulus (GPa) = 24.52189 27.03029 25.77609
#
# Velocity S-wave (km/s) = 3.47326 3.64658 3.56097
# Velocity P-wave (km/s) = 6.61058 7.34088 6.98528
#
# Compressibility (1/GPa) = 0.01781450
#
# Stress axis : x y z
#
# Youngs Moduli (GPa) = 79.56044 79.56044 49.93626
#
# Poissons Ratio (x) = 0.55786 0.16636
# Poissons Ratio (y) = 0.55786 0.16636
# Poissons Ratio (z) = 0.26505 0.26505
#
# Static dielectric constant tensor:
#      x y z
#    x 5.307980 0.000000 0.000000 
#    y 0.000000 5.307980 0.000000 
#    z 0.000000 0.000000 3.454540 
# 
# 
# High freq. dielectric constant tensor:
#      x y z
#    x 1.796980 0.000000 0.000000 
#    y 0.000000 1.796980 0.000000 
#    z 0.000000 0.000000 1.781720 
# 
# From -- ./inp_files/1692.got.cif
#   From: 2010.03.12/outbox.cif.g09.slc.cpg/sg87_1_cif.got.tgz:1692.got - 2010.04.08 20:16:13.
