data_PCOD8303140
_publ_section_title
;
Structure prediction by ZEFSAII (Michael W. Deem and Ramdas Pophale) SiO2 
 PCOD8303140
Probable space group: P 42/M
;
_chemical_formula_sum "Si O2"
_cell_formula_units_Z 32
_cell_length_a 14.683624
_cell_length_b 14.683624
_cell_length_c 8.674231
_cell_angle_alpha 90.000000
_cell_angle_beta 90.000000
_cell_angle_gamma 90.000000
_cell_volume 1870.240656
_symmetry_space_group_name_H-M "P 42/M"
_symmetry_group_IT_number 84
_symmetry_cell_setting 'tetragonal'
loop_
_space_group_symop_operation_xyz
x,y,z
-y,x,1/2+z
-x,-y,z
y,-x,1/2+z
-x,-y,-z
y,-x,1/2-z
x,y,-z
-y,x,1/2-z
loop_
_atom_site_type_symbol
_atom_site_label
_atom_site_fract_x
_atom_site_fract_y
_atom_site_fract_z
Si Si1 0.779409 0.866001 0.325855
Si Si2 0.058693 0.251336 0.674169
Si Si3 0.563794 0.379269 0.181750
Si Si4 0.316169 0.770814 0.319161
O O1 0.741836 0.865134 0.500000
O O2 0.888859 0.846665 0.323790
O O3 0.731294 0.783467 0.231270
O O4 0.757221 0.961662 0.251506
O O5 0.046074 0.286468 0.500000
O O6 0.122694 0.322998 0.767375
O O7 0.458540 0.380761 0.231482
O O8 0.605250 0.282774 0.229999
O O9 0.571300 0.394097 0.000000
O O10 0.330268 0.760745 0.500000
#
# Coordination Sequence:
#
# PCOD8303140 Si02
#       4
#     8   8   8   8
#     4   9  18  30  46  70 100 135 175 214 253 296
#     4   9  18  30  46  70 100 135 175 214 253 296
#     4  11  21  36  57  83 107 129 162 203 253 304
#     4  10  19  33  51  73 103 137 168 208 255 298
#
# _framework density 17.110099000000002
#
# number of rings (size 3 to 8) (size 9 to 14) (size 15 to 20)
#    1.500    0.750    0.000    6.000    0.000    0.500 
#    0.000    2.500    0.000    1.500    0.000   10.500 
#    0.000    0.000    0.000    0.000    0.000    0.000 
#
# Total GULP energy -396478.995478 kJ/mol
# GULP energy per Si atom -12389.968609 kJ/mol
# Density = 1.707116 g / cm^3
# Si number density = 17.110099 Si / 1000 Ang^3
#
#
#
# Elastic Constant Matrix: (Units=GPa)
#
#
# Indices 1 2 3 4 5 6 
#
# 1 3.6204 9.8771 8.5623 0.0000 0.0000 -2.2199
# 2 9.8771 3.6204 8.5623 0.0000 0.0000 2.2199
# 3 8.5623 8.5623 120.3243 0.0000 0.0000 0.0000
# 4 0.0000 0.0000 0.0000 29.3019 0.0000 0.0000
# 5 0.0000 0.0000 0.0000 0.0000 29.3019 0.0000
# 6 -2.2199 2.2199 0.0000 0.0000 0.0000 21.0633
#
#
#
# Elastic Compliance Matrix: (Units=1/GPa)
#
#
# Indices 1 2 3 4 5 6 
#
# 1 -0.033634 0.115074 -0.005795 0.000000 0.000000 -0.015673
# 2 0.115074 -0.033634 -0.005795 0.000000 0.000000 0.015673
# 3 -0.005795 -0.005795 0.009136 0.000000 0.000000 0.000000
# 4 0.000000 0.000000 0.000000 0.034128 0.000000 0.000000
# 5 0.000000 0.000000 0.000000 0.000000 0.034128 0.000000
# 6 -0.015673 0.015673 0.000000 0.000000 0.000000 0.044172
#
#
# Mechanical properties :
#
#
# Convention : Reuss Voigt Hill
#
# Bulk Modulus (GPa) = 6.71884 20.17426 13.44655
# Shear Modulus (GPa) = -48.51546 22.63764 -12.93891
#
# Velocity S-wave (km/s) = -5.33071 3.64133 -2.75292
# Velocity P-wave (km/s) = 5.82694 5.43098 1.49293
#
# Compressibility (1/GPa) = 0.14883522
#
# Stress axis : x y z
#
# Youngs Moduli (GPa) = -29.73202 -29.73202 109.46117
#
# Poissons Ratio (x) = 3.42139 0.63436
# Poissons Ratio (y) = 3.42139 0.63436
# Poissons Ratio (z) = -0.17231 -0.17231
#
# Static dielectric constant tensor:
#      x y z
#    x 2.956420 0.000000 0.000000 
#    y 0.000000 2.956420 0.000000 
#    z 0.000000 0.000000 3.306460 
# 
# 
# High freq. dielectric constant tensor:
#      x y z
#    x 1.634320 0.000000 0.000000 
#    y 0.000000 1.634320 0.000000 
#    z 0.000000 0.000000 1.684910 
# 
# From -- ./inp_files/608.got.cif
#   From: 2010.03.12/outbox.cif.g09.slc.cpg/sg84_1_cif.got.tgz:608.got - 2010.04.08 20:07:29.
