data_PCOD8303973
_publ_section_title
;
Structure prediction by ZEFSAII (Michael W. Deem and Ramdas Pophale) SiO2 
 PCOD8303973
Probable space group: I 4/M
;
_chemical_formula_sum "Si O2"
_cell_formula_units_Z 64
_cell_length_a 17.073620
_cell_length_b 17.073620
_cell_length_c 12.900037
_cell_angle_alpha 90.000000
_cell_angle_beta 90.000000
_cell_angle_gamma 90.000000
_cell_volume 3760.470435
_symmetry_space_group_name_H-M "I 4/M"
_symmetry_group_IT_number 87
_symmetry_cell_setting 'tetragonal'
loop_
_space_group_symop_operation_xyz
x,y,z
-y,x,z
-x,-y,z
y,-x,z
-x,-y,-z
y,-x,-z
x,y,-z
-y,x,-z
1/2+x,1/2+y,1/2+z
1/2-y,1/2+x,1/2+z
1/2-x,1/2-y,1/2+z
1/2+y,1/2-x,1/2+z
1/2-x,1/2-y,1/2-z
1/2+y,1/2-x,1/2-z
1/2+x,1/2+y,1/2-z
1/2-y,1/2+x,1/2-z
loop_
_atom_site_type_symbol
_atom_site_label
_atom_site_fract_x
_atom_site_fract_y
_atom_site_fract_z
Si Si1 0.408861 0.999248 0.379457
Si Si2 0.413637 0.717146 0.618883
Si Si3 0.405914 0.286450 0.618681
Si Si4 0.857908 0.642049 0.754881
O O1 0.397960 0.987388 0.500000
O O2 0.364957 0.928238 0.325552
O O3 0.500000 0.000000 0.347736
O O4 0.367869 0.079424 0.346403
O O5 0.407860 0.747023 0.500000
O O6 0.503679 0.707503 0.652685
O O7 0.371707 0.633198 0.631246
O O8 0.370068 0.777585 0.693778
O O9 0.399617 0.257165 0.500000
O O10 0.359297 0.226924 0.692457
#
# Coordination Sequence:
#
# PCOD8303973 Si02
#       4
#    16  16  16  16
#     4  11  20  30  48  76 109 146 179 207 252 321
#     4  10  21  36  55  79 107 139 178 223 267 316
#     4  10  21  36  55  79 107 139 178 223 267 316
#     4  12  18  34  50  78 108 141 173 216 266 314
#
# _framework density 17.019148000000001
#
# number of rings (size 3 to 8) (size 9 to 14) (size 15 to 20)
#    0.000    1.250    5.000    2.250    0.000    4.500 
#    0.000    2.500    0.000    0.000    0.000    0.000 
#    0.000    2.000    0.000    0.000    0.000    0.000 
#
# Total GULP energy -396873.115580 kJ/mol
# GULP energy per Si atom -12402.284862 kJ/mol
# Density = 1.698041 g / cm^3
# Si number density = 17.019148 Si / 1000 Ang^3
#
#
#
# Elastic Constant Matrix: (Units=GPa)
#
#
# Indices 1 2 3 4 5 6 
#
# 1 86.4393 51.2072 33.4382 0.0000 0.0000 0.8300
# 2 51.2072 86.4393 33.4382 0.0000 0.0000 -0.8300
# 3 33.4382 33.4382 68.7293 0.0000 0.0000 0.0000
# 4 0.0000 0.0000 0.0000 39.9999 0.0000 0.0000
# 5 0.0000 0.0000 0.0000 0.0000 39.9999 0.0000
# 6 0.8300 -0.8300 0.0000 0.0000 0.0000 29.8727
#
#
#
# Elastic Compliance Matrix: (Units=1/GPa)
#
#
# Indices 1 2 3 4 5 6 
#
# 1 0.018967 -0.009453 -0.004629 0.000000 0.000000 -0.000790
# 2 -0.009453 0.018967 -0.004629 0.000000 0.000000 0.000790
# 3 -0.004629 -0.004629 0.019054 0.000000 0.000000 0.000000
# 4 0.000000 0.000000 0.000000 0.025000 0.000000 0.000000
# 5 0.000000 0.000000 0.000000 0.000000 0.025000 0.000000
# 6 -0.000790 0.000790 0.000000 0.000000 0.000000 0.033519
#
#
# Mechanical properties :
#
#
# Convention : Reuss Voigt Hill
#
# Bulk Modulus (GPa) = 51.10722 53.08614 52.09668
# Shear Modulus (GPa) = 27.10747 30.20944 28.65845
#
# Velocity S-wave (km/s) = 3.99527 4.21768 4.10798
# Velocity P-wave (km/s) = 7.16780 7.41472 7.29231
#
# Compressibility (1/GPa) = 0.01956671
#
# Stress axis : x y z
#
# Youngs Moduli (GPa) = 52.72275 52.72275 52.48313
#
# Poissons Ratio (x) = 0.49840 0.24293
# Poissons Ratio (y) = 0.49840 0.24293
# Poissons Ratio (z) = 0.24404 0.24404
#
# Static dielectric constant tensor:
#      x y z
#    x 3.133330 0.000000 0.000000 
#    y 0.000000 3.133330 0.000000 
#    z 0.000000 0.000000 3.225200 
# 
# 
# High freq. dielectric constant tensor:
#      x y z
#    x 1.651590 0.000000 0.000000 
#    y 0.000000 1.651590 0.000000 
#    z 0.000000 0.000000 1.662010 
# 
# From -- ./inp_files/3348.got.cif
#   From: 2010.03.12/outbox.cif.g09.slc.cpg/sg87_2_cif.got.tgz:3348.got - 2010.04.08 20:16:13.
