data_PCOD8303682
_publ_section_title
;
Structure prediction by ZEFSAII (Michael W. Deem and Ramdas Pophale) SiO2 
 PCOD8303682
Probable space group: P 42/N
;
_chemical_formula_sum "Si O2"
_cell_formula_units_Z 32
_cell_length_a 8.829418
_cell_length_b 8.829418
_cell_length_c 18.505223
_cell_angle_alpha 90.000000
_cell_angle_beta 90.000000
_cell_angle_gamma 90.000000
_cell_volume 1442.641689
_symmetry_space_group_name_H-M "P 42/N"
_symmetry_group_IT_number 86
_space_group.IT_coordinate_system_code '2'
_symmetry_cell_setting 'tetragonal'
loop_
_space_group_symop_operation_xyz
x,y,z
-y,1/2+x,1/2+z
1/2-x,1/2-y,z
1/2+y,-x,1/2+z
-x,-y,-z
y,1/2-x,1/2-z
1/2+x,1/2+y,-z
1/2-y,x,1/2-z
loop_
_atom_site_type_symbol
_atom_site_label
_atom_site_fract_x
_atom_site_fract_y
_atom_site_fract_z
Si Si1 0.030895 0.296978 0.720551
Si Si2 0.678643 0.087191 0.074292
Si Si3 0.913436 0.819984 0.566723
Si Si4 0.694665 0.974674 0.775982
O O1 0.161990 0.425184 0.724019
O O2 0.020532 0.232306 0.639712
O O3 0.871232 0.368087 0.745880
O O4 0.750000 0.250000 0.084704
O O5 0.499426 0.099376 0.071885
O O6 0.737178 0.015638 0.999473
O O7 0.750000 0.750000 0.555903
O O8 0.989885 0.757687 0.640314
O O9 0.841080 0.931850 0.728674
#
# Coordination Sequence:
#
# PCOD8303682 Si02
#       4
#     8   8   8   8
#     4  11  25  43  68 100 137 181 234 291 351 412
#     4  11  26  47  68 103 140 184 234 292 352 418
#     4  11  24  46  71  97 144 182 229 289 351 422
#     4  11  22  43  69 102 135 184 233 285 350 420
#
# _framework density 22.181529999999999
#
# number of rings (size 3 to 8) (size 9 to 14) (size 15 to 20)
#    0.000    1.000    5.000    1.500    3.500    1.000 
#    4.500    0.000    0.000    0.000    0.000    0.000 
#    0.000    0.000    0.000    0.000    0.000    0.000 
#
# Total GULP energy -396941.736817 kJ/mol
# GULP energy per Si atom -12404.429276 kJ/mol
# Density = 2.213104 g / cm^3
# Si number density = 22.181530 Si / 1000 Ang^3
#
#
#
# Elastic Constant Matrix: (Units=GPa)
#
#
# Indices 1 2 3 4 5 6 
#
# 1 63.9527 39.0625 50.1752 0.0000 0.0000 7.1452
# 2 39.0625 63.9527 50.1752 0.0000 0.0000 -7.1452
# 3 50.1752 50.1752 176.7945 0.0000 0.0000 0.0000
# 4 0.0000 0.0000 0.0000 50.8330 0.0000 0.0000
# 5 0.0000 0.0000 0.0000 0.0000 50.8330 0.0000
# 6 7.1452 -7.1452 0.0000 0.0000 0.0000 54.7890
#
#
#
# Elastic Compliance Matrix: (Units=1/GPa)
#
#
# Indices 1 2 3 4 5 6 
#
# 1 0.028422 -0.015006 -0.003808 0.000000 0.000000 -0.005664
# 2 -0.015006 0.028422 -0.003808 0.000000 0.000000 0.005664
# 3 -0.003808 -0.003808 0.007818 0.000000 0.000000 0.000000
# 4 0.000000 0.000000 0.000000 0.019672 0.000000 0.000000
# 5 0.000000 0.000000 0.000000 0.000000 0.019672 0.000000
# 6 -0.005664 0.005664 0.000000 0.000000 0.000000 0.019729
#
#
# Mechanical properties :
#
#
# Convention : Reuss Voigt Hill
#
# Bulk Modulus (GPa) = 51.49372 64.83621 58.16497
# Shear Modulus (GPa) = 28.49792 42.31011 35.40402
#
# Velocity S-wave (km/s) = 3.58824 4.37217 3.99946
# Velocity P-wave (km/s) = 6.35865 7.40143 6.89976
#
# Compressibility (1/GPa) = 0.01941984
#
# Stress axis : x y z
#
# Youngs Moduli (GPa) = 35.18362 35.18362 127.91721
#
# Poissons Ratio (x) = 0.52796 0.48707
# Poissons Ratio (y) = 0.52796 0.48707
# Poissons Ratio (z) = 0.13397 0.13397
#
# Static dielectric constant tensor:
#      x y z
#    x 3.776060 0.000000 0.000000 
#    y 0.000000 3.776060 0.000000 
#    z 0.000000 0.000000 4.321360 
# 
# 
# High freq. dielectric constant tensor:
#      x y z
#    x 1.874640 0.000000 0.000000 
#    y 0.000000 1.874640 0.000000 
#    z 0.000000 0.000000 1.882950 
# 
# From -- ./inp_files/3821.got.cif
#   From: 2010.03.12/outbox.cif.g09.slc.cpg/sg86_2_cif.got.tgz:3821.got - 2010.04.08 20:12:58.
