data_PCOD8303467
_publ_section_title
;
Structure prediction by ZEFSAII (Michael W. Deem and Ramdas Pophale) SiO2 
 PCOD8303467
Probable space group: P 4/N
;
_chemical_formula_sum "Si O2"
_cell_formula_units_Z 32
_cell_length_a 15.476934
_cell_length_b 15.476934
_cell_length_c 7.485798
_cell_angle_alpha 90.000000
_cell_angle_beta 90.000000
_cell_angle_gamma 90.000000
_cell_volume 1793.114262
_symmetry_space_group_name_H-M "P 4/N"
_symmetry_group_IT_number 85
_symmetry_cell_setting 'tetragonal'
loop_
_space_group_symop_operation_xyz
x,y,z
1/2-y,x,z
1/2-x,1/2-y,z
y,1/2-x,z
-x,-y,-z
1/2+y,-x,-z
1/2+x,1/2+y,-z
-y,1/2+x,-z
loop_
_atom_site_type_symbol
_atom_site_label
_atom_site_fract_x
_atom_site_fract_y
_atom_site_fract_z
Si Si1 0.091950 0.012629 0.294847
Si Si2 0.480238 0.098273 0.690208
Si Si3 0.372312 0.823046 0.501627
Si Si4 0.176668 0.127925 0.996413
O O1 0.085889 0.059880 0.489917
O O2 0.141783 0.920908 0.320183
O O3 0.144528 0.071003 0.160053
O O4 0.995467 0.996072 0.220615
O O5 0.571684 0.149477 0.673133
O O6 0.414482 0.152847 0.807911
O O7 0.367037 0.720404 0.512780
O O8 0.279279 0.132671 0.008863
#
# Coordination Sequence:
#
# PCOD8303467 Si02
#       4
#     8   8   8   8
#     4   9  21  38  62  83 113 157 186 229 293 334
#     4   9  21  38  62  83 113 157 186 229 293 334
#     4   9  19  36  62  91 112 144 192 237 279 344
#     4  11  25  38  56  87 116 150 196 239 273 336
#
# _framework density 17.846046999999999
#
# number of rings (size 3 to 8) (size 9 to 14) (size 15 to 20)
#    1.500    1.000    0.000    0.750    7.000    2.000 
#    0.000    2.500    0.000    3.000    0.000    0.000 
#    0.000    0.000    0.000    0.000    0.000    0.000 
#
# Total GULP energy -396593.054842 kJ/mol
# GULP energy per Si atom -12393.532964 kJ/mol
# Density = 1.780543 g / cm^3
# Si number density = 17.846047 Si / 1000 Ang^3
#
#
#
# Elastic Constant Matrix: (Units=GPa)
#
#
# Indices 1 2 3 4 5 6 
#
# 1 68.2613 30.9725 2.4914 0.0000 0.0000 -4.8979
# 2 30.9725 68.2613 2.4914 0.0000 0.0000 4.8979
# 3 2.4914 2.4914 41.8017 0.0000 0.0000 0.0000
# 4 0.0000 0.0000 0.0000 9.9673 0.0000 0.0000
# 5 0.0000 0.0000 0.0000 0.0000 9.9673 0.0000
# 6 -4.8979 4.8979 0.0000 0.0000 0.0000 26.3104
#
#
#
# Elastic Compliance Matrix: (Units=1/GPa)
#
#
# Indices 1 2 3 4 5 6 
#
# 1 0.019152 -0.009045 -0.000602 0.000000 0.000000 0.005249
# 2 -0.009045 0.019152 -0.000602 0.000000 0.000000 -0.005249
# 3 -0.000602 -0.000602 0.023994 0.000000 0.000000 0.000000
# 4 0.000000 0.000000 0.000000 0.100328 0.000000 0.000000
# 5 0.000000 0.000000 0.000000 0.000000 0.100328 0.000000
# 6 0.005249 -0.005249 0.000000 0.000000 0.000000 0.039962
#
#
# Mechanical properties :
#
#
# Convention : Reuss Voigt Hill
#
# Bulk Modulus (GPa) = 23.92367 27.80385 25.86376
# Shear Modulus (GPa) = 14.82146 18.74027 16.78087
#
# Velocity S-wave (km/s) = 2.88500 3.24405 3.06978
# Velocity P-wave (km/s) = 4.95301 5.44477 5.20470
#
# Compressibility (1/GPa) = 0.04179961
#
# Stress axis : x y z
#
# Youngs Moduli (GPa) = 52.21378 52.21378 41.67659
#
# Poissons Ratio (x) = 0.47225 0.02511
# Poissons Ratio (y) = 0.47225 0.02511
# Poissons Ratio (z) = 0.03145 0.03145
#
# Static dielectric constant tensor:
#      x y z
#    x 3.295600 0.000000 0.000000 
#    y 0.000000 3.295600 0.000000 
#    z 0.000000 0.000000 3.045680 
# 
# 
# High freq. dielectric constant tensor:
#      x y z
#    x 1.695470 0.000000 0.000000 
#    y 0.000000 1.695470 0.000000 
#    z 0.000000 0.000000 1.671870 
# 
# From -- ./inp_files/736.got.cif
#   From: 2010.03.12/outbox.cif.g09.slc.cpg/sg85_cif.got.tgz:736.got - 2010.04.08 20:10:46.
