data_PCOD8303529
_publ_section_title
;
Structure prediction by ZEFSAII (Michael W. Deem and Ramdas Pophale) SiO2 
 PCOD8303529
Probable space group: P 42/N
;
_chemical_formula_sum "Si O2"
_cell_formula_units_Z 44
_cell_length_a 8.154628
_cell_length_b 8.154628
_cell_length_c 32.028115
_cell_angle_alpha 90.000000
_cell_angle_beta 90.000000
_cell_angle_gamma 90.000000
_cell_volume 2129.804240
_symmetry_space_group_name_H-M "P 42/N"
_symmetry_group_IT_number 86
_space_group.IT_coordinate_system_code '2'
_symmetry_cell_setting 'tetragonal'
loop_
_space_group_symop_operation_xyz
x,y,z
-y,1/2+x,1/2+z
1/2-x,1/2-y,z
1/2+y,-x,1/2+z
-x,-y,-z
y,1/2-x,1/2-z
1/2+x,1/2+y,-z
1/2-y,x,1/2-z
loop_
_atom_site_type_symbol
_atom_site_label
_atom_site_fract_x
_atom_site_fract_y
_atom_site_fract_z
Si Si1 0.250000 0.750000 1.000000
Si Si2 0.487809 0.679744 0.429530
Si Si3 0.487809 0.679743 0.070470
Si Si4 0.750000 0.250000 0.639891
Si Si5 0.250000 0.750000 0.139892
Si Si6 0.495594 0.838763 0.297141
Si Si7 0.995594 0.338762 0.797141
O O1 0.383747 0.656106 0.028288
O O2 0.156106 0.616253 0.971712
O O3 0.550724 0.866503 0.428025
O O4 0.633497 0.550725 0.428025
O O5 0.373015 0.646527 0.389478
O O6 0.373015 0.646527 0.110522
O O7 0.649159 0.124119 0.669894
O O8 0.350841 0.875881 0.169894
O O9 0.545523 0.649780 0.305110
O O10 0.649780 0.954478 0.305110
O O11 0.430191 0.861786 0.250000
#
# Coordination Sequence:
#
# PCOD8303529 Si02
#       7
#     4   8   8   4   4   8   8
#     4  10  20  36  62  84  98 128 170 212 256 302
#     4  10  21  36  54  78 107 135 166 207 254 307
#     4  10  21  36  54  78 107 135 166 207 254 307
#     4  11  19  29  51  78 102 136 175 207 247 299
#     4  11  19  29  51  78 102 136 175 207 247 299
#     4   9  18  33  53  76 102 135 176 218 258 302
#     4   9  18  33  53  76 102 135 176 218 258 302
#
# _framework density 20.659174
#
# number of rings (size 3 to 8) (size 9 to 14) (size 15 to 20)
#    0.000    2.182    0.000    4.909    0.000    2.909 
#    0.000    0.000    0.000   48.000    0.000   20.364 
#    0.000    0.000    0.000    0.000    0.000    0.000 
#
# Total GULP energy -545501.594435 kJ/mol
# GULP energy per Si atom -12397.763510 kJ/mol
# Density = 2.061215 g / cm^3
# Si number density = 20.659174 Si / 1000 Ang^3
#
#
#
# Elastic Constant Matrix: (Units=GPa)
#
#
# Indices 1 2 3 4 5 6 
#
# 1 73.1888 5.1197 40.4531 0.0000 0.0000 -0.9369
# 2 5.1197 73.1888 40.4531 0.0000 0.0000 0.9369
# 3 40.4531 40.4531 156.5634 0.0000 0.0000 0.0000
# 4 0.0000 0.0000 0.0000 29.4725 0.0000 0.0000
# 5 0.0000 0.0000 0.0000 0.0000 29.4725 0.0000
# 6 -0.9369 0.9369 0.0000 0.0000 0.0000 13.8025
#
#
#
# Elastic Compliance Matrix: (Units=1/GPa)
#
#
# Indices 1 2 3 4 5 6 
#
# 1 0.016069 0.001351 -0.004501 0.000000 0.000000 0.000999
# 2 0.001351 0.016069 -0.004501 0.000000 0.000000 -0.000999
# 3 -0.004501 -0.004501 0.008713 0.000000 0.000000 0.000000
# 4 0.000000 0.000000 0.000000 0.033930 0.000000 0.000000
# 5 0.000000 0.000000 0.000000 0.000000 0.033930 0.000000
# 6 0.000999 -0.000999 0.000000 0.000000 0.000000 0.072586
#
#
# Mechanical properties :
#
#
# Convention : Reuss Voigt Hill
#
# Bulk Modulus (GPa) = 39.13960 52.77701 45.95830
# Shear Modulus (GPa) = 24.37634 29.01053 26.69343
#
# Velocity S-wave (km/s) = 3.43873 3.75139 3.59846
# Velocity P-wave (km/s) = 5.89517 6.66077 6.28963
#
# Compressibility (1/GPa) = 0.02554957
#
# Stress axis : x y z
#
# Youngs Moduli (GPa) = 62.22993 62.22993 114.76841
#
# Poissons Ratio (x) = -0.08407 0.51659
# Poissons Ratio (y) = -0.08407 0.51659
# Poissons Ratio (z) = 0.28010 0.28010
#
# Static dielectric constant tensor:
#      x y z
#    x 3.519030 0.000000 0.000000 
#    y 0.000000 3.519030 0.000000 
#    z 0.000000 0.000000 4.055960 
# 
# 
# High freq. dielectric constant tensor:
#      x y z
#    x 1.781340 0.000000 0.000000 
#    y 0.000000 1.781340 0.000000 
#    z 0.000000 0.000000 1.839600 
# 
# From -- ./inp_files/5065.got.cif
#   From: 2010.03.12/outbox.cif.g09.slc.cpg/sg86_3_cif.got.tgz:5065.got - 2010.04.08 20:12:58.
