data_PCOD8303962
_publ_section_title
;
Structure prediction by ZEFSAII (Michael W. Deem and Ramdas Pophale) SiO2 
 PCOD8303962
Probable space group: I 4/M
;
_chemical_formula_sum "Si O2"
_cell_formula_units_Z 96
_cell_length_a 13.527010
_cell_length_b 13.527010
_cell_length_c 25.429119
_cell_angle_alpha 90.000000
_cell_angle_beta 90.000000
_cell_angle_gamma 90.000000
_cell_volume 4653.020183
_symmetry_space_group_name_H-M "I 4/M"
_symmetry_group_IT_number 87
_symmetry_cell_setting 'tetragonal'
loop_
_space_group_symop_operation_xyz
x,y,z
-y,x,z
-x,-y,z
y,-x,z
-x,-y,-z
y,-x,-z
x,y,-z
-y,x,-z
1/2+x,1/2+y,1/2+z
1/2-y,1/2+x,1/2+z
1/2-x,1/2-y,1/2+z
1/2+y,1/2-x,1/2+z
1/2-x,1/2-y,1/2-z
1/2+y,1/2-x,1/2-z
1/2+x,1/2+y,1/2-z
1/2-y,1/2+x,1/2-z
loop_
_atom_site_type_symbol
_atom_site_label
_atom_site_fract_x
_atom_site_fract_y
_atom_site_fract_z
Si Si1 0.110579 0.595427 0.389871
Si Si2 0.630305 0.940988 0.272710
Si Si3 0.054942 0.850473 0.709212
Si Si4 0.909567 0.619272 0.562788
Si Si5 0.859514 0.930054 0.414659
Si Si6 0.760898 0.263914 0.442227
O O1 0.100896 0.590410 0.327687
O O2 0.112834 0.488907 0.415959
O O3 0.218605 0.642829 0.404098
O O4 0.013939 0.655753 0.412443
O O5 0.560427 0.887609 0.229248
O O6 0.746308 0.916041 0.263246
O O7 0.071401 0.836611 0.647383
O O8 0.941752 0.875249 0.725988
O O9 0.916674 0.618913 0.500000
O O10 0.818456 0.688165 0.582314
O O11 0.777742 0.872438 0.447414
O O12 0.957549 0.869649 0.431245
O O13 0.724040 0.298037 0.500000
#
# Coordination Sequence:
#
# PCOD8303962 Si02
#       6
#    16  16  16  16  16  16
#     4  11  21  39  59  76 119 158 184 240 304 341
#     4  11  23  38  56  86 114 144 199 258 291 336
#     4   9  19  37  59  82 113 152 188 227 291 359
#     4  10  21  35  55  84 115 152 195 231 279 352
#     4   9  17  30  48  76 114 148 175 213 269 337
#     4  11  21  32  54  86 113 150 197 228 273 350
#
# _framework density 20.63176
#
# number of rings (size 3 to 8) (size 9 to 14) (size 15 to 20)
#    0.000    1.833    1.667    6.000    2.333    2.667 
#    0.000    2.500    0.000    0.500    0.000    2.333 
#    0.000    0.000    0.000    0.000    0.000    0.000 
#
# Total GULP energy -594640.537663 kJ/mol
# GULP energy per Si atom -12388.344535 kJ/mol
# Density = 2.058480 g / cm^3
# Si number density = 20.631760 Si / 1000 Ang^3
#
#
#
# Elastic Constant Matrix: (Units=GPa)
#
#
# Indices 1 2 3 4 5 6 
#
# 1 53.3309 35.7368 16.5401 0.0000 0.0000 9.2962
# 2 35.7368 53.3309 16.5401 0.0000 0.0000 -9.2962
# 3 16.5401 16.5401 51.8301 0.0000 0.0000 0.0000
# 4 0.0000 0.0000 0.0000 22.4181 0.0000 0.0000
# 5 0.0000 0.0000 0.0000 0.0000 22.4181 0.0000
# 6 9.2962 -9.2962 0.0000 0.0000 0.0000 38.8685
#
#
#
# Elastic Compliance Matrix: (Units=1/GPa)
#
#
# Indices 1 2 3 4 5 6 
#
# 1 0.044399 -0.031662 -0.004065 0.000000 0.000000 -0.018192
# 2 -0.031662 0.044399 -0.004065 0.000000 0.000000 0.018192
# 3 -0.004065 -0.004065 0.021888 0.000000 0.000000 0.000000
# 4 0.000000 0.000000 0.000000 0.044607 0.000000 0.000000
# 5 0.000000 0.000000 0.000000 0.000000 0.044607 0.000000
# 6 -0.018192 0.018192 0.000000 0.000000 0.000000 0.034430
#
#
# Mechanical properties :
#
#
# Convention : Reuss Voigt Hill
#
# Bulk Modulus (GPa) = 32.15075 32.90289 32.52682
# Shear Modulus (GPa) = 15.41876 22.71928 19.06902
#
# Velocity S-wave (km/s) = 2.73670 3.32200 3.04346
# Velocity P-wave (km/s) = 5.05994 5.54045 5.30564
#
# Compressibility (1/GPa) = 0.03110347
#
# Stress axis : x y z
#
# Youngs Moduli (GPa) = 22.52293 22.52293 45.68703
#
# Poissons Ratio (x) = 0.71312 0.18570
# Poissons Ratio (y) = 0.71312 0.18570
# Poissons Ratio (z) = 0.09155 0.09155
#
# Static dielectric constant tensor:
#      x y z
#    x 3.847920 0.000000 0.000000 
#    y 0.000000 3.847920 0.000000 
#    z 0.000000 0.000000 3.439770 
# 
# 
# High freq. dielectric constant tensor:
#      x y z
#    x 1.802110 0.000000 0.000000 
#    y 0.000000 1.802110 0.000000 
#    z 0.000000 0.000000 1.780170 
# 
# From -- ./inp_files/5323.got.cif
#   From: 2010.03.12/outbox.cif.g09.slc.cpg/sg87_3_cif.got.tgz:5323.got - 2010.04.08 20:16:13.
