data_PCOD8303257
_publ_section_title
;
Structure prediction by ZEFSAII (Michael W. Deem and Ramdas Pophale) SiO2 
 PCOD8303257
Probable space group: P 42/M
;
_chemical_formula_sum "Si O2"
_cell_formula_units_Z 40
_cell_length_a 14.940345
_cell_length_b 14.940345
_cell_length_c 8.383353
_cell_angle_alpha 90.000000
_cell_angle_beta 90.000000
_cell_angle_gamma 90.000000
_cell_volume 1871.280991
_symmetry_space_group_name_H-M "P 42/M"
_symmetry_group_IT_number 84
_symmetry_cell_setting 'tetragonal'
loop_
_space_group_symop_operation_xyz
x,y,z
-y,x,1/2+z
-x,-y,z
y,-x,1/2+z
-x,-y,-z
y,-x,1/2-z
x,y,-z
-y,x,1/2-z
loop_
_atom_site_type_symbol
_atom_site_label
_atom_site_fract_x
_atom_site_fract_y
_atom_site_fract_z
Si Si1 0.798888 0.607383 0.313992
Si Si2 0.117330 0.221356 0.184970
Si Si3 0.452089 0.092805 0.312316
Si Si4 0.748650 0.922461 0.686233
Si Si5 0.388616 0.423105 0.813512
O O1 0.805736 0.628659 0.500000
O O2 0.861033 0.674925 0.215174
O O3 0.828587 0.506063 0.276520
O O4 0.698655 0.625023 0.254180
O O5 0.184725 0.158442 0.280586
O O6 0.015594 0.207767 0.248647
O O7 0.127060 0.197482 0.000000
O O8 0.454595 0.112198 0.500000
O O9 0.350764 0.094153 0.242071
O O10 0.500000 0.000000 0.269047
O O11 0.733765 0.934463 0.500000
O O12 0.381732 0.529051 0.783747
O O13 0.401027 0.403365 0.000000
#
# Coordination Sequence:
#
# PCOD8303257 Si02
#       5
#     8   8   8   8   8
#     4  12  25  40  62  94 129 166 213 263 315 380
#     4  11  24  44  67  93 129 169 215 269 326 387
#     4  10  20  41  67  90 125 165 205 256 317 374
#     4  10  23  43  67  95 128 169 213 265 327 386
#     4  11  23  42  64  89 125 167 212 258 313 374
#
# _framework density 21.375734000000001
#
# number of rings (size 3 to 8) (size 9 to 14) (size 15 to 20)
#    0.000    1.200    2.000    4.800    2.800    3.200 
#    0.000    2.000    0.000    0.000    0.000    0.000 
#    0.000    0.000    0.000    0.000    0.000    0.000 
#
# Total GULP energy -496162.799096 kJ/mol
# GULP energy per Si atom -12404.069977 kJ/mol
# Density = 2.132708 g / cm^3
# Si number density = 21.375734 Si / 1000 Ang^3
#
#
#
# Elastic Constant Matrix: (Units=GPa)
#
#
# Indices 1 2 3 4 5 6 
#
# 1 96.6314 37.2708 1.5860 0.0000 0.0000 9.5948
# 2 37.2708 96.6314 1.5860 0.0000 0.0000 -9.5948
# 3 1.5860 1.5860 41.8977 0.0000 0.0000 0.0000
# 4 0.0000 0.0000 0.0000 29.3401 0.0000 0.0000
# 5 0.0000 0.0000 0.0000 0.0000 29.3401 0.0000
# 6 9.5948 -9.5948 0.0000 0.0000 0.0000 34.7236
#
#
#
# Elastic Compliance Matrix: (Units=1/GPa)
#
#
# Indices 1 2 3 4 5 6 
#
# 1 0.012987 -0.005512 -0.000283 0.000000 0.000000 -0.005112
# 2 -0.005512 0.012987 -0.000283 0.000000 0.000000 0.005112
# 3 -0.000283 -0.000283 0.023889 0.000000 0.000000 0.000000
# 4 0.000000 0.000000 0.000000 0.034083 0.000000 0.000000
# 5 0.000000 0.000000 0.000000 0.000000 0.034083 0.000000
# 6 -0.005112 0.005112 0.000000 0.000000 0.000000 0.031624
#
#
# Mechanical properties :
#
#
# Convention : Reuss Voigt Hill
#
# Bulk Modulus (GPa) = 26.52032 35.11624 30.81828
# Shear Modulus (GPa) = 28.67351 31.66192 30.16771
#
# Velocity S-wave (km/s) = 3.66649 3.85282 3.76081
# Velocity P-wave (km/s) = 5.50980 6.02130 5.77122
#
# Compressibility (1/GPa) = 0.03770693
#
# Stress axis : x y z
#
# Youngs Moduli (GPa) = 77.00173 77.00173 41.86012
#
# Poissons Ratio (x) = 0.42442 0.01184
# Poissons Ratio (y) = 0.42442 0.01184
# Poissons Ratio (z) = 0.02179 0.02179
#
# Static dielectric constant tensor:
#      x y z
#    x 3.898900 0.000000 0.000000 
#    y 0.000000 3.898900 0.000000 
#    z 0.000000 0.000000 3.620690 
# 
# 
# High freq. dielectric constant tensor:
#      x y z
#    x 1.843950 0.000000 0.000000 
#    y 0.000000 1.843950 0.000000 
#    z 0.000000 0.000000 1.828440 
# 
# From -- ./inp_files/810.got.cif
#   From: 2010.03.12/outbox.cif.g09.slc.cpg/sg84_1_cif.got.tgz:810.got - 2010.04.08 20:07:29.
