data_PCOD8303230
_publ_section_title
;
Structure prediction by ZEFSAII (Michael W. Deem and Ramdas Pophale) SiO2 
 PCOD8303230
Probable space group: P 42/M
;
_chemical_formula_sum "Si O2"
_cell_formula_units_Z 64
_cell_length_a 19.520246
_cell_length_b 19.520246
_cell_length_c 8.828108
_cell_angle_alpha 90.000000
_cell_angle_beta 90.000000
_cell_angle_gamma 90.000000
_cell_volume 3363.862307
_symmetry_space_group_name_H-M "P 42/M"
_symmetry_group_IT_number 84
_symmetry_cell_setting 'tetragonal'
loop_
_space_group_symop_operation_xyz
x,y,z
-y,x,1/2+z
-x,-y,z
y,-x,1/2+z
-x,-y,-z
y,-x,1/2-z
x,y,-z
-y,x,1/2-z
loop_
_atom_site_type_symbol
_atom_site_label
_atom_site_fract_x
_atom_site_fract_y
_atom_site_fract_z
Si Si1 0.814592 0.706277 0.676113
Si Si2 0.858335 0.214842 0.179498
Si Si3 0.378599 0.946621 0.173686
Si Si4 0.909989 0.951079 0.319061
Si Si5 0.544561 0.410570 0.676733
Si Si6 0.258148 0.416245 0.824126
Si Si7 0.853086 0.494968 0.322461
Si Si8 0.910331 0.360635 0.178320
O O1 0.794830 0.699863 0.500000
O O2 0.805477 0.783004 0.739168
O O3 0.892794 0.682570 0.700829
O O4 0.763584 0.658657 0.769581
O O5 0.912509 0.158387 0.235654
O O6 0.880264 0.289138 0.242572
O O7 0.857632 0.215445 0.000000
O O8 0.451423 0.913251 0.218148
O O9 0.365549 0.010030 0.282110
O O10 0.380310 0.971803 0.000000
O O11 0.915390 0.957641 0.500000
O O12 0.974411 0.908127 0.257106
O O13 0.466150 0.411165 0.732372
O O14 0.546603 0.428291 0.500000
O O15 0.577360 0.337744 0.712712
O O16 0.218659 0.476446 0.737297
O O17 0.241591 0.424561 0.000000
O O18 0.846816 0.485377 0.500000
O O19 0.867469 0.421951 0.249697
O O20 0.901754 0.364638 0.000000
#
# Coordination Sequence:
#
# PCOD8303230 Si02
#       8
#     8   8   8   8   8   8   8   8
#     4   9  19  38  59  77 105 147 186 221 271 335
#     4   9  21  38  55  80 115 150 184 227 282 341
#     4   9  19  35  57  80 103 139 186 227 269 328
#     4  10  20  37  59  82 110 144 187 234 281 336
#     4  10  21  36  56  82 112 144 183 227 269 317
#     4  10  21  37  57  84 113 143 180 227 278 324
#     4  10  21  38  58  80 109 146 187 225 268 331
#     4  11  22  35  54  82 114 145 180 228 282 327
#
# _framework density 19.025749000000001
#
# number of rings (size 3 to 8) (size 9 to 14) (size 15 to 20)
#    0.000    2.250    0.000    3.750    1.750    7.000 
#    0.000    8.125    0.000    0.000    0.000    0.000 
#    0.000    0.000    0.000    0.000    0.000    0.000 
#
# Total GULP energy -793757.435569 kJ/mol
# GULP energy per Si atom -12402.459931 kJ/mol
# Density = 1.898245 g / cm^3
# Si number density = 19.025749 Si / 1000 Ang^3
#
#
#
# Elastic Constant Matrix: (Units=GPa)
#
#
# Indices 1 2 3 4 5 6 
#
# 1 92.6988 41.9962 25.0725 0.0000 0.0000 7.9073
# 2 41.9962 92.6988 25.0725 0.0000 0.0000 -7.9073
# 3 25.0725 25.0725 50.7254 0.0000 0.0000 0.0000
# 4 0.0000 0.0000 0.0000 27.2067 0.0000 0.0000
# 5 0.0000 0.0000 0.0000 0.0000 27.2067 0.0000
# 6 7.9073 -7.9073 0.0000 0.0000 0.0000 24.0211
#
#
#
# Elastic Compliance Matrix: (Units=1/GPa)
#
#
# Indices 1 2 3 4 5 6 
#
# 1 0.015539 -0.006441 -0.004497 0.000000 0.000000 -0.007235
# 2 -0.006441 0.015539 -0.004497 0.000000 0.000000 0.007235
# 3 -0.004497 -0.004497 0.024160 0.000000 0.000000 0.000000
# 4 0.000000 0.000000 0.000000 0.036756 0.000000 0.000000
# 5 0.000000 0.000000 0.000000 0.000000 0.036756 0.000000
# 6 -0.007235 0.007235 0.000000 0.000000 0.000000 0.046394
#
#
# Mechanical properties :
#
#
# Convention : Reuss Voigt Hill
#
# Bulk Modulus (GPa) = 41.03762 46.71171 43.87467
# Shear Modulus (GPa) = 23.34976 25.28570 24.31773
#
# Velocity S-wave (km/s) = 3.50704 3.64953 3.57900
# Velocity P-wave (km/s) = 6.16567 6.50876 6.33954
#
# Compressibility (1/GPa) = 0.02436789
#
# Stress axis : x y z
#
# Youngs Moduli (GPa) = 64.35412 64.35412 41.39122
#
# Poissons Ratio (x) = 0.41448 0.18614
# Poissons Ratio (y) = 0.41448 0.18614
# Poissons Ratio (z) = 0.28941 0.28941
#
# Static dielectric constant tensor:
#      x y z
#    x 3.599820 0.000000 0.000000 
#    y 0.000000 3.599820 0.000000 
#    z 0.000000 0.000000 3.409550 
# 
# 
# High freq. dielectric constant tensor:
#      x y z
#    x 1.744070 0.000000 0.000000 
#    y 0.000000 1.744070 0.000000 
#    z 0.000000 0.000000 1.735690 
# 
# From -- ./inp_files/1346.got.cif
#   From: 2010.03.12/outbox.cif.g09.slc.cpg/sg84_1_cif.got.tgz:1346.got - 2010.04.08 20:07:29.
