data_PCOD8303868
_publ_section_title
;
Structure prediction by ZEFSAII (Michael W. Deem and Ramdas Pophale) SiO2 
 PCOD8303868
Probable space group: I 4/M
;
_chemical_formula_sum "Si O2"
_cell_formula_units_Z 96
_cell_length_a 24.178143
_cell_length_b 24.178143
_cell_length_c 8.763944
_cell_angle_alpha 90.000000
_cell_angle_beta 90.000000
_cell_angle_gamma 90.000000
_cell_volume 5123.249160
_symmetry_space_group_name_H-M "I 4/M"
_symmetry_group_IT_number 87
_symmetry_cell_setting 'tetragonal'
loop_
_space_group_symop_operation_xyz
x,y,z
-y,x,z
-x,-y,z
y,-x,z
-x,-y,-z
y,-x,-z
x,y,-z
-y,x,-z
1/2+x,1/2+y,1/2+z
1/2-y,1/2+x,1/2+z
1/2-x,1/2-y,1/2+z
1/2+y,1/2-x,1/2+z
1/2-x,1/2-y,1/2-z
1/2+y,1/2-x,1/2-z
1/2+x,1/2+y,1/2-z
1/2-y,1/2+x,1/2-z
loop_
_atom_site_type_symbol
_atom_site_label
_atom_site_fract_x
_atom_site_fract_y
_atom_site_fract_z
Si Si1 0.350827 0.272621 0.179776
Si Si2 0.556756 0.938044 0.182595
Si Si3 0.065259 0.149659 0.174360
Si Si4 0.851288 0.350279 0.819531
Si Si5 0.264928 0.362138 0.178336
Si Si6 0.440279 0.652045 0.324590
O O1 0.406881 0.303256 0.224185
O O2 0.354551 0.210888 0.249098
O O3 0.296959 0.306867 0.240638
O O4 0.346633 0.269850 0.000000
O O5 0.496780 0.922736 0.250710
O O6 0.599815 0.890694 0.237464
O O7 0.552988 0.942077 0.000000
O O8 0.094042 0.090656 0.198564
O O9 0.002683 0.142481 0.227719
O O10 0.069665 0.169254 0.000000
O O11 0.874335 0.291828 0.764657
O O12 0.849884 0.351409 0.000000
O O13 0.302420 0.415033 0.212794
O O14 0.253156 0.357394 0.000000
O O15 0.435558 0.672164 0.500000
#
# Coordination Sequence:
#
# PCOD8303868 Si02
#       6
#    16  16  16  16  16  16
#     4   9  19  35  52  74 106 138 168 207 255 302
#     4  10  21  38  58  78 103 134 166 206 255 303
#     4   9  18  32  51  74 101 136 175 215 257 299
#     4  10  21  36  55  78 103 133 168 207 251 301
#     4  10  20  33  52  77 104 136 171 209 254 302
#     4   9  18  33  51  73 103 137 174 215 257 300
#
# _framework density 18.738108
#
# number of rings (size 3 to 8) (size 9 to 14) (size 15 to 20)
#    0.000    2.500    0.000    2.000    0.000    5.000 
#    0.000    5.000    0.000    0.000    0.000    4.667 
#    0.000    0.000    0.000    0.000    0.000    0.000 
#
# Total GULP energy -595128.865167 kJ/mol
# GULP energy per Si atom -12398.518024 kJ/mol
# Density = 1.869546 g / cm^3
# Si number density = 18.738108 Si / 1000 Ang^3
#
#
#
# Elastic Constant Matrix: (Units=GPa)
#
#
# Indices 1 2 3 4 5 6 
#
# 1 116.8062 66.2661 20.2064 0.0000 0.0000 -2.0592
# 2 66.2661 116.8062 20.2064 0.0000 0.0000 2.0592
# 3 20.2064 20.2064 16.9279 0.0000 0.0000 0.0000
# 4 0.0000 0.0000 0.0000 27.3872 0.0000 0.0000
# 5 0.0000 0.0000 0.0000 0.0000 27.3872 0.0000
# 6 -2.0592 2.0592 0.0000 0.0000 0.0000 23.8565
#
#
#
# Elastic Compliance Matrix: (Units=1/GPa)
#
#
# Indices 1 2 3 4 5 6 
#
# 1 0.013672 -0.006255 -0.008853 0.000000 0.000000 0.001720
# 2 -0.006255 0.013672 -0.008853 0.000000 0.000000 -0.001720
# 3 -0.008853 -0.008853 0.080209 0.000000 0.000000 0.000000
# 4 0.000000 0.000000 0.000000 0.036513 0.000000 0.000000
# 5 0.000000 0.000000 0.000000 0.000000 0.036513 0.000000
# 6 0.001720 -0.001720 0.000000 0.000000 0.000000 0.042214
#
#
# Mechanical properties :
#
#
# Convention : Reuss Voigt Hill
#
# Bulk Modulus (GPa) = 16.76993 51.54421 34.15707
# Shear Modulus (GPa) = 17.20625 25.31695 21.26160
#
# Velocity S-wave (km/s) = 3.03355 3.67971 3.37214
# Velocity P-wave (km/s) = 4.60858 6.75434 5.78187
#
# Compressibility (1/GPa) = 0.05963055
#
# Stress axis : x y z
#
# Youngs Moduli (GPa) = 73.14476 73.14476 12.46737
#
# Poissons Ratio (x) = 0.45751 0.11037
# Poissons Ratio (y) = 0.45751 0.11037
# Poissons Ratio (z) = 0.64755 0.64755
#
# Static dielectric constant tensor:
#      x y z
#    x 3.557770 0.000000 0.000000 
#    y 0.000000 3.557770 0.000000 
#    z 0.000000 0.000000 3.317210 
# 
# 
# High freq. dielectric constant tensor:
#      x y z
#    x 1.729220 0.000000 0.000000 
#    y 0.000000 1.729220 0.000000 
#    z 0.000000 0.000000 1.718260 
# 
# From -- ./inp_files/1354.got.cif
#   From: 2010.03.12/outbox.cif.g09.slc.cpg/sg87_1_cif.got.tgz:1354.got - 2010.04.08 20:16:13.
