data_PCOD8303785
_publ_section_title
;
Structure prediction by ZEFSAII (Michael W. Deem and Ramdas Pophale) SiO2 
 PCOD8303785
Probable space group: I 4/M
;
_chemical_formula_sum "Si O2"
_cell_formula_units_Z 96
_cell_length_a 23.238186
_cell_length_b 23.238186
_cell_length_c 9.355210
_cell_angle_alpha 90.000000
_cell_angle_beta 90.000000
_cell_angle_gamma 90.000000
_cell_volume 5051.937717
_symmetry_space_group_name_H-M "I 4/M"
_symmetry_group_IT_number 87
_symmetry_cell_setting 'tetragonal'
loop_
_space_group_symop_operation_xyz
x,y,z
-y,x,z
-x,-y,z
y,-x,z
-x,-y,-z
y,-x,-z
x,y,-z
-y,x,-z
1/2+x,1/2+y,1/2+z
1/2-y,1/2+x,1/2+z
1/2-x,1/2-y,1/2+z
1/2+y,1/2-x,1/2+z
1/2-x,1/2-y,1/2-z
1/2+y,1/2-x,1/2-z
1/2+x,1/2+y,1/2-z
1/2-y,1/2+x,1/2-z
loop_
_atom_site_type_symbol
_atom_site_label
_atom_site_fract_x
_atom_site_fract_y
_atom_site_fract_z
Si Si1 0.468237 0.837843 0.831588
Si Si2 0.791589 0.830413 0.165592
Si Si3 0.907747 0.625777 0.662863
Si Si4 0.994207 0.090271 0.669225
Si Si5 0.172187 0.271840 0.660100
Si Si6 0.553782 0.291077 0.831059
O O1 0.415902 0.871400 0.761570
O O2 0.526274 0.870899 0.785866
O O3 0.470488 0.771041 0.781588
O O4 0.459352 0.840399 0.000000
O O5 0.831758 0.779647 0.226919
O O6 0.725428 0.813947 0.192583
O O7 0.805165 0.887325 0.252006
O O8 0.805924 0.839733 0.000000
O O9 0.902715 0.603675 0.500000
O O10 0.885142 0.690859 0.675346
O O11 0.993564 0.087032 0.500000
O O12 0.989724 0.157412 0.715906
O O13 0.053184 0.061006 0.726813
O O14 0.178002 0.246109 0.500000
O O15 0.565251 0.291914 0.000000
#
# Coordination Sequence:
#
# PCOD8303785 Si02
#       6
#    16  16  16  16  16  16
#     4  10  22  37  56  81 106 137 180 227 273 327
#     4  10  19  31  51  79 108 140 174 213 262 319
#     4  10  21  39  58  78 108 143 180 223 274 326
#     4   8  15  29  51  80 110 140 177 221 265 308
#     4   9  18  33  53  76 104 140 174 214 265 317
#     4  10  19  32  53  81 110 140 177 223 268 316
#
# _framework density 19.002609
#
# number of rings (size 3 to 8) (size 9 to 14) (size 15 to 20)
#    0.000    2.500    1.667    1.000    0.000    3.667 
#    0.000    6.667    0.000    3.000    0.000    1.167 
#    0.000    0.000    0.000    0.000    0.000    0.000 
#
# Total GULP energy -595041.183876 kJ/mol
# GULP energy per Si atom -12396.691331 kJ/mol
# Density = 1.895936 g / cm^3
# Si number density = 19.002609 Si / 1000 Ang^3
#
#
#
# Elastic Constant Matrix: (Units=GPa)
#
#
# Indices 1 2 3 4 5 6 
#
# 1 96.4940 46.0617 26.3991 0.0000 0.0000 3.5395
# 2 46.0617 96.4940 26.3991 0.0000 0.0000 -3.5395
# 3 26.3991 26.3991 34.3465 0.0000 0.0000 0.0000
# 4 0.0000 0.0000 0.0000 22.5564 0.0000 0.0000
# 5 0.0000 0.0000 0.0000 0.0000 22.5564 0.0000
# 6 3.5395 -3.5395 0.0000 0.0000 0.0000 16.9946
#
#
#
# Elastic Compliance Matrix: (Units=1/GPa)
#
#
# Indices 1 2 3 4 5 6 
#
# 1 0.015116 -0.005310 -0.007537 0.000000 0.000000 -0.004254
# 2 -0.005310 0.015116 -0.007537 0.000000 0.000000 0.004254
# 3 -0.007537 -0.007537 0.040702 0.000000 0.000000 0.000000
# 4 0.000000 0.000000 0.000000 0.044333 0.000000 0.000000
# 5 0.000000 0.000000 0.000000 0.000000 0.044333 0.000000
# 6 -0.004254 0.004254 0.000000 0.000000 0.000000 0.060614
#
#
# Mechanical properties :
#
#
# Convention : Reuss Voigt Hill
#
# Bulk Modulus (GPa) = 33.15081 47.22823 40.18952
# Shear Modulus (GPa) = 18.44759 20.98645 19.71702
#
# Velocity S-wave (km/s) = 3.11913 3.32685 3.22467
# Velocity P-wave (km/s) = 5.51863 6.29800 5.92115
#
# Compressibility (1/GPa) = 0.03016517
#
# Stress axis : x y z
#
# Youngs Moduli (GPa) = 66.15484 66.15484 24.56908
#
# Poissons Ratio (x) = 0.35126 0.18518
# Poissons Ratio (y) = 0.35126 0.18518
# Poissons Ratio (z) = 0.49863 0.49863
#
# Static dielectric constant tensor:
#      x y z
#    x 3.554850 0.000000 0.000000 
#    y 0.000000 3.554850 0.000000 
#    z 0.000000 0.000000 3.262870 
# 
# 
# High freq. dielectric constant tensor:
#      x y z
#    x 1.736820 0.000000 0.000000 
#    y 0.000000 1.736820 0.000000 
#    z 0.000000 0.000000 1.712150 
# 
# From -- ./inp_files/1423.got.cif
#   From: 2010.03.12/outbox.cif.g09.slc.cpg/sg87_1_cif.got.tgz:1423.got - 2010.04.08 20:16:13.
