data_PCOD8303910
_publ_section_title
;
Structure prediction by ZEFSAII (Michael W. Deem and Ramdas Pophale) SiO2 
 PCOD8303910
Probable space group: I 4/M
;
_chemical_formula_sum "Si O2"
_cell_formula_units_Z 88
_cell_length_a 14.332256
_cell_length_b 14.332256
_cell_length_c 20.357512
_cell_angle_alpha 90.000000
_cell_angle_beta 90.000000
_cell_angle_gamma 90.000000
_cell_volume 4181.709054
_symmetry_space_group_name_H-M "I 4/M"
_symmetry_group_IT_number 87
_symmetry_cell_setting 'tetragonal'
loop_
_space_group_symop_operation_xyz
x,y,z
-y,x,z
-x,-y,z
y,-x,z
-x,-y,-z
y,-x,-z
x,y,-z
-y,x,-z
1/2+x,1/2+y,1/2+z
1/2-y,1/2+x,1/2+z
1/2-x,1/2-y,1/2+z
1/2+y,1/2-x,1/2+z
1/2-x,1/2-y,1/2-z
1/2+y,1/2-x,1/2-z
1/2+x,1/2+y,1/2-z
1/2-y,1/2+x,1/2-z
loop_
_atom_site_type_symbol
_atom_site_label
_atom_site_fract_x
_atom_site_fract_y
_atom_site_fract_z
Si Si1 0.352489 0.551144 0.000000
Si Si2 0.274690 0.626099 0.131782
Si Si3 0.400073 0.612899 0.247015
Si Si4 0.083872 0.376699 0.740814
Si Si5 0.455970 0.357638 0.576697
Si Si6 0.328760 0.251234 0.340353
O O1 0.382058 0.442931 0.000000
O O2 0.287655 0.570874 0.936336
O O3 0.373992 0.624015 0.170302
O O4 0.189755 0.583705 0.175863
O O5 0.254638 0.734925 0.116807
O O6 0.369336 0.506933 0.264151
O O7 0.337968 0.682794 0.289949
O O8 0.119982 0.480801 0.726511
O O9 0.153432 0.339769 0.796971
O O10 0.559786 0.385018 0.598731
O O11 0.454012 0.341614 0.500000
O O12 0.417674 0.265407 0.611728
#
# Coordination Sequence:
#
# PCOD8303910 Si02
#       6
#     8  16  16  16  16  16
#     4  11  26  48  72  95 129 172 211 270 330 373
#     4  11  25  38  65  94 126 163 217 264 315 386
#     4  10  20  35  60  90 121 155 199 264 328 380
#     4  10  24  43  64  88 125 173 210 258 320 378
#     4   9  19  36  57  84 121 160 197 252 320 381
#     4  11  23  33  61  90 121 158 205 261 312 373
#
# _framework density 21.044028000000001
#
# number of rings (size 3 to 8) (size 9 to 14) (size 15 to 20)
#    0.000    1.727    0.000    4.909   16.545    2.909 
#    0.000    0.000    0.000    1.091    0.000    0.000 
#    0.000    0.000    0.000    0.000    0.000    0.000 
#
# Total GULP energy -545433.251722 kJ/mol
# GULP energy per Si atom -12396.210266 kJ/mol
# Density = 2.099613 g / cm^3
# Si number density = 21.044028 Si / 1000 Ang^3
#
#
#
# Elastic Constant Matrix: (Units=GPa)
#
#
# Indices 1 2 3 4 5 6 
#
# 1 77.9322 21.6416 22.7793 0.0000 0.0000 4.3211
# 2 21.6416 77.9322 22.7793 0.0000 0.0000 -4.3211
# 3 22.7793 22.7793 75.9340 0.0000 0.0000 0.0000
# 4 0.0000 0.0000 0.0000 29.1507 0.0000 0.0000
# 5 0.0000 0.0000 0.0000 0.0000 29.1507 0.0000
# 6 4.3211 -4.3211 0.0000 0.0000 0.0000 31.8226
#
#
#
# Elastic Compliance Matrix: (Units=1/GPa)
#
#
# Indices 1 2 3 4 5 6 
#
# 1 0.014892 -0.003251 -0.003492 0.000000 0.000000 -0.002464
# 2 -0.003251 0.014892 -0.003492 0.000000 0.000000 0.002464
# 3 -0.003492 -0.003492 0.015264 0.000000 0.000000 0.000000
# 4 0.000000 0.000000 0.000000 0.034305 0.000000 0.000000
# 5 0.000000 0.000000 0.000000 0.000000 0.034305 0.000000
# 6 -0.002464 0.002464 0.000000 0.000000 0.000000 0.032093
#
#
# Mechanical properties :
#
#
# Convention : Reuss Voigt Hill
#
# Bulk Modulus (GPa) = 40.68773 40.68875 40.68824
# Shear Modulus (GPa) = 28.66747 28.99800 28.83273
#
# Velocity S-wave (km/s) = 3.69489 3.71613 3.70552
# Velocity P-wave (km/s) = 6.13021 6.14734 6.13878
#
# Compressibility (1/GPa) = 0.02457744
#
# Stress axis : x y z
#
# Youngs Moduli (GPa) = 67.15083 67.15083 65.51165
#
# Poissons Ratio (x) = 0.21833 0.22877
# Poissons Ratio (y) = 0.21833 0.22877
# Poissons Ratio (z) = 0.23449 0.23449
#
# Static dielectric constant tensor:
#      x y z
#    x 3.815150 0.000000 0.000000 
#    y 0.000000 3.815150 0.000000 
#    z 0.000000 0.000000 3.721790 
# 
# 
# High freq. dielectric constant tensor:
#      x y z
#    x 1.821170 0.000000 0.000000 
#    y 0.000000 1.821170 0.000000 
#    z 0.000000 0.000000 1.813780 
# 
# From -- ./inp_files/5148.got.cif
#   From: 2010.03.12/outbox.cif.g09.slc.cpg/sg87_3_cif.got.tgz:5148.got - 2010.04.08 20:16:13.
