data_PCOD8303017
_publ_section_title
;
Structure prediction by ZEFSAII (Michael W. Deem and Ramdas Pophale) SiO2 
 PCOD8303017
Probable space group: P 4/M
;
_chemical_formula_sum "Si O2"
_cell_formula_units_Z 56
_cell_length_a 11.468652
_cell_length_b 11.468652
_cell_length_c 22.561916
_cell_angle_alpha 90.000000
_cell_angle_beta 90.000000
_cell_angle_gamma 90.000000
_cell_volume 2967.568331
_symmetry_space_group_name_H-M "P 4/M"
_symmetry_group_IT_number 83
_symmetry_cell_setting 'tetragonal'
loop_
_space_group_symop_operation_xyz
x,y,z
-y,x,z
-x,-y,z
y,-x,z
-x,-y,-z
y,-x,-z
x,y,-z
-y,x,-z
loop_
_atom_site_type_symbol
_atom_site_label
_atom_site_fract_x
_atom_site_fract_y
_atom_site_fract_z
Si Si1 0.686040 0.465651 0.930774
Si Si2 0.049673 0.815691 0.790821
Si Si3 0.921574 0.394954 0.433375
Si Si4 0.311300 0.525614 0.254925
Si Si5 0.684872 0.466091 0.608457
Si Si6 0.184810 0.044014 0.655082
Si Si7 0.574488 0.882709 0.838253
O O1 0.633397 0.591832 0.913442
O O2 0.806742 0.443708 0.897178
O O3 0.713874 0.460626 0.000000
O O4 0.057607 0.773137 0.722737
O O5 0.081355 0.709654 0.833768
O O6 0.919068 0.859349 0.803759
O O7 0.957951 0.357621 0.500000
O O8 0.790804 0.442421 0.434973
O O9 0.931766 0.288136 0.389384
O O10 0.000000 0.500000 0.409312
O O11 0.370976 0.401826 0.239734
O O12 0.275432 0.536263 0.323219
O O13 0.193461 0.535691 0.217954
O O14 0.633426 0.591829 0.594261
O O15 0.085006 0.138261 0.642638
O O16 0.500000 0.000000 0.841716
#
# Coordination Sequence:
#
# PCOD8303017 Si02
#       7
#     8   8   8   8   8   8   8
#     4   9  20  41  66  88 116 158 202 246 292 327
#     4   9  21  40  58  80 118 157 189 227 279 343
#     4  11  25  39  54  82 113 140 181 239 293 343
#     4   9  19  36  57  83 116 146 182 237 294 342
#     4   9  20  39  60  81 107 146 186 225 284 357
#     4   9  20  41  64  82 104 146 194 236 281 334
#     4  12  24  32  56  93 124 152 191 234 283 338
#
# _framework density 18.870667999999998
#
# number of rings (size 3 to 8) (size 9 to 14) (size 15 to 20)
#    0.000    2.286    0.000    3.857    6.000    4.857 
#    0.000    1.429    0.000    0.000    0.000    1.000 
#    0.000    0.000    0.000    0.000    0.000    0.000 
#
# Total GULP energy -694444.651052 kJ/mol
# GULP energy per Si atom -12400.797340 kJ/mol
# Density = 1.882772 g / cm^3
# Si number density = 18.870668 Si / 1000 Ang^3
#
#
#
# Elastic Constant Matrix: (Units=GPa)
#
#
# Indices 1 2 3 4 5 6 
#
# 1 118.4027 63.0585 43.3507 0.0000 0.0000 5.8712
# 2 63.0585 118.4027 43.3507 0.0000 0.0000 -5.8712
# 3 43.3507 43.3507 51.8893 0.0000 0.0000 0.0000
# 4 0.0000 0.0000 0.0000 26.6516 0.0000 0.0000
# 5 0.0000 0.0000 0.0000 0.0000 26.6516 0.0000
# 6 5.8712 -5.8712 0.0000 0.0000 0.0000 18.8835
#
#
#
# Elastic Compliance Matrix: (Units=1/GPa)
#
#
# Indices 1 2 3 4 5 6 
#
# 1 0.014258 -0.005086 -0.007663 0.000000 0.000000 -0.006015
# 2 -0.005086 0.014258 -0.007663 0.000000 0.000000 0.006015
# 3 -0.007663 -0.007663 0.032075 0.000000 0.000000 0.000000
# 4 0.000000 0.000000 0.000000 0.037521 0.000000 0.000000
# 5 0.000000 0.000000 0.000000 0.000000 0.037521 0.000000
# 6 -0.006015 0.006015 0.000000 0.000000 0.000000 0.056696
#
#
# Mechanical properties :
#
#
# Convention : Reuss Voigt Hill
#
# Bulk Modulus (GPa) = 50.58545 65.35716 57.97130
# Shear Modulus (GPa) = 20.85553 23.69965 22.27759
#
# Velocity S-wave (km/s) = 3.32803 3.54771 3.43963
# Velocity P-wave (km/s) = 6.45231 7.17573 6.82362
#
# Compressibility (1/GPa) = 0.01976853
#
# Stress axis : x y z
#
# Youngs Moduli (GPa) = 70.13378 70.13378 31.17649
#
# Poissons Ratio (x) = 0.35673 0.23890
# Poissons Ratio (y) = 0.35673 0.23890
# Poissons Ratio (z) = 0.53742 0.53742
#
# Static dielectric constant tensor:
#      x y z
#    x 3.455480 0.000000 0.000000 
#    y 0.000000 3.455480 0.000000 
#    z 0.000000 0.000000 3.292240 
# 
# 
# High freq. dielectric constant tensor:
#      x y z
#    x 1.736420 0.000000 0.000000 
#    y 0.000000 1.736420 0.000000 
#    z 0.000000 0.000000 1.720960 
# 
# From -- ./inp_files/2986.got.cif
#   From: 2010.03.12/outbox.cif.g09.slc.cpg/sg83_2_cif.got.tgz:2986.got - 2010.04.08 20:05:18.
