data_PCOD8303980
_publ_section_title
;
Structure prediction by ZEFSAII (Michael W. Deem and Ramdas Pophale) SiO2 
 PCOD8303980
Probable space group: I 4/M
;
_chemical_formula_sum "Si O2"
_cell_formula_units_Z 56
_cell_length_a 15.962129
_cell_length_b 15.962129
_cell_length_c 12.263536
_cell_angle_alpha 90.000000
_cell_angle_beta 90.000000
_cell_angle_gamma 90.000000
_cell_volume 3124.620969
_symmetry_space_group_name_H-M "I 4/M"
_symmetry_group_IT_number 87
_symmetry_cell_setting 'tetragonal'
loop_
_space_group_symop_operation_xyz
x,y,z
-y,x,z
-x,-y,z
y,-x,z
-x,-y,-z
y,-x,-z
x,y,-z
-y,x,-z
1/2+x,1/2+y,1/2+z
1/2-y,1/2+x,1/2+z
1/2-x,1/2-y,1/2+z
1/2+y,1/2-x,1/2+z
1/2-x,1/2-y,1/2-z
1/2+y,1/2-x,1/2-z
1/2+x,1/2+y,1/2-z
1/2-y,1/2+x,1/2-z
loop_
_atom_site_type_symbol
_atom_site_label
_atom_site_fract_x
_atom_site_fract_y
_atom_site_fract_z
Si Si1 0.338735 0.720919 0.125337
Si Si2 0.138772 0.014951 0.000000
Si Si3 0.635734 0.806131 0.227287
Si Si4 0.738447 0.959188 0.799836
O O1 0.273808 0.645508 0.147699
O O2 0.293163 0.807744 0.163041
O O3 0.423110 0.708301 0.196927
O O4 0.364398 0.724797 0.000000
O O5 0.073657 0.091437 0.000000
O O6 0.197074 0.019831 0.105351
O O7 0.540015 0.813965 0.262837
O O8 0.668166 0.890241 0.164956
#
# Coordination Sequence:
#
# PCOD8303980 Si02
#       4
#    16   8  16  16
#     4   9  20  37  56  82 114 154 195 237 289 353
#     4  11  24  38  62  89 118 156 208 263 300 340
#     4   9  21  35  57  84 113 154 193 239 294 355
#     4  10  21  36  57  87 115 153 190 246 291 359
#
# _framework density 17.922173999999998
#
# number of rings (size 3 to 8) (size 9 to 14) (size 15 to 20)
#    1.714    0.714    0.000    1.714    4.000    1.714 
#    0.000    0.000    0.000    3.429    0.000    6.000 
#    0.000    0.000    0.000    0.000    0.000    0.000 
#
# Total GULP energy -346931.283030 kJ/mol
# GULP energy per Si atom -12390.402965 kJ/mol
# Density = 1.788138 g / cm^3
# Si number density = 17.922174 Si / 1000 Ang^3
#
#
#
# Elastic Constant Matrix: (Units=GPa)
#
#
# Indices 1 2 3 4 5 6 
#
# 1 85.2791 54.8342 20.1445 0.0000 0.0000 10.6263
# 2 54.8342 85.2791 20.1445 0.0000 0.0000 -10.6263
# 3 20.1445 20.1445 88.0946 0.0000 0.0000 0.0000
# 4 0.0000 0.0000 0.0000 18.6644 0.0000 0.0000
# 5 0.0000 0.0000 0.0000 0.0000 18.6644 0.0000
# 6 10.6263 -10.6263 0.0000 0.0000 0.0000 22.6692
#
#
#
# Elastic Compliance Matrix: (Units=1/GPa)
#
#
# Indices 1 2 3 4 5 6 
#
# 1 0.028231 -0.020591 -0.001747 0.000000 0.000000 -0.022885
# 2 -0.020591 0.028231 -0.001747 0.000000 0.000000 0.022885
# 3 -0.001747 -0.001747 0.012150 0.000000 0.000000 0.000000
# 4 0.000000 0.000000 0.000000 0.053578 0.000000 0.000000
# 5 0.000000 0.000000 0.000000 0.000000 0.053578 0.000000
# 6 -0.022885 0.022885 0.000000 0.000000 0.000000 0.065568
#
#
# Mechanical properties :
#
#
# Convention : Reuss Voigt Hill
#
# Bulk Modulus (GPa) = 48.91994 49.87771 49.39883
# Shear Modulus (GPa) = 16.87370 22.90159 19.88765
#
# Velocity S-wave (km/s) = 3.07171 3.57856 3.33478
# Velocity P-wave (km/s) = 6.31946 6.70562 6.51540
#
# Compressibility (1/GPa) = 0.02044156
#
# Stress axis : x y z
#
# Youngs Moduli (GPa) = 35.42257 35.42257 82.30214
#
# Poissons Ratio (x) = 0.72939 0.14377
# Poissons Ratio (y) = 0.72939 0.14377
# Poissons Ratio (z) = 0.06188 0.06188
#
# Static dielectric constant tensor:
#      x y z
#    x 3.158320 0.000000 0.000000 
#    y 0.000000 3.158320 0.000000 
#    z 0.000000 0.000000 3.086660 
# 
# 
# High freq. dielectric constant tensor:
#      x y z
#    x 1.684370 0.000000 0.000000 
#    y 0.000000 1.684370 0.000000 
#    z 0.000000 0.000000 1.679560 
# 
# From -- ./inp_files/3292.got.cif
#   From: 2010.03.12/outbox.cif.g09.slc.cpg/sg87_2_cif.got.tgz:3292.got - 2010.04.08 20:16:13.
