data_PCOD8303986
_publ_section_title
;
Structure prediction by ZEFSAII (Michael W. Deem and Ramdas Pophale) SiO2 
 PCOD8303986
Probable space group: I 4/M
;
_chemical_formula_sum "Si O2"
_cell_formula_units_Z 96
_cell_length_a 23.716956
_cell_length_b 23.716956
_cell_length_c 8.792645
_cell_angle_alpha 90.000000
_cell_angle_beta 90.000000
_cell_angle_gamma 90.000000
_cell_volume 4945.810073
_symmetry_space_group_name_H-M "I 4/M"
_symmetry_group_IT_number 87
_symmetry_cell_setting 'tetragonal'
loop_
_space_group_symop_operation_xyz
x,y,z
-y,x,z
-x,-y,z
y,-x,z
-x,-y,-z
y,-x,-z
x,y,-z
-y,x,-z
1/2+x,1/2+y,1/2+z
1/2-y,1/2+x,1/2+z
1/2-x,1/2-y,1/2+z
1/2+y,1/2-x,1/2+z
1/2-x,1/2-y,1/2-z
1/2+y,1/2-x,1/2-z
1/2+x,1/2+y,1/2-z
1/2-y,1/2+x,1/2-z
loop_
_atom_site_type_symbol
_atom_site_label
_atom_site_fract_x
_atom_site_fract_y
_atom_site_fract_z
Si Si1 0.445859 0.573825 0.330652
Si Si2 0.361075 0.357985 0.174327
Si Si3 0.654894 0.052445 0.174727
Si Si4 0.457535 0.272912 0.179753
Si Si5 0.139153 0.425461 0.325782
Si Si6 0.422124 0.731839 0.321682
O O1 0.422640 0.511720 0.308504
O O2 0.429393 0.595902 0.500000
O O3 0.419052 0.610931 0.198394
O O4 0.405003 0.311548 0.240169
O O5 0.301514 0.366216 0.262279
O O6 0.347394 0.345622 0.000000
O O7 0.709416 0.059804 0.279754
O O8 0.609074 0.099083 0.215090
O O9 0.626771 0.991434 0.200278
O O10 0.673969 0.058946 0.000000
O O11 0.517822 0.289659 0.253189
O O12 0.463456 0.280247 0.000000
O O13 0.127625 0.408018 0.500000
O O14 0.203273 0.412036 0.278347
O O15 0.427982 0.723969 0.500000
#
# Coordination Sequence:
#
# PCOD8303986 Si02
#       6
#    16  16  16  16  16  16
#     4   9  18  31  46  66  94 130 172 221 277 329
#     4  11  22  33  49  75 103 138 184 227 273 325
#     4  10  21  37  60  88 114 145 182 217 263 323
#     4  10  21  37  56  79 111 147 183 229 279 325
#     4   9  20  38  58  84 115 143 175 217 266 320
#     4  10  21  37  57  80 108 145 187 229 275 327
#
# _framework density 19.41037
#
# number of rings (size 3 to 8) (size 9 to 14) (size 15 to 20)
#    0.000    2.167    0.000    4.500    0.000   10.333 
#    0.000    3.333    0.000    0.000    0.000    0.000 
#    0.000    0.000    0.000    0.000    0.000    0.000 
#
# Total GULP energy -594949.534124 kJ/mol
# GULP energy per Si atom -12394.781961 kJ/mol
# Density = 1.936619 g / cm^3
# Si number density = 19.410370 Si / 1000 Ang^3
#
#
#
# Elastic Constant Matrix: (Units=GPa)
#
#
# Indices 1 2 3 4 5 6 
#
# 1 62.5722 44.9023 21.9371 0.0000 0.0000 0.8924
# 2 44.9023 62.5722 21.9371 0.0000 0.0000 -0.8924
# 3 21.9371 21.9371 60.6372 0.0000 0.0000 0.0000
# 4 0.0000 0.0000 0.0000 29.2869 0.0000 0.0000
# 5 0.0000 0.0000 0.0000 0.0000 29.2869 0.0000
# 6 0.8924 -0.8924 0.0000 0.0000 0.0000 36.9616
#
#
#
# Elastic Compliance Matrix: (Units=1/GPa)
#
#
# Indices 1 2 3 4 5 6 
#
# 1 0.033824 -0.022907 -0.003949 0.000000 0.000000 -0.001370
# 2 -0.022907 0.033824 -0.003949 0.000000 0.000000 0.001370
# 3 -0.003949 -0.003949 0.019349 0.000000 0.000000 0.000000
# 4 0.000000 0.000000 0.000000 0.034145 0.000000 0.000000
# 5 0.000000 0.000000 0.000000 0.000000 0.034145 0.000000
# 6 -0.001370 0.001370 0.000000 0.000000 0.000000 0.027121
#
#
# Mechanical properties :
#
#
# Convention : Reuss Voigt Hill
#
# Bulk Modulus (GPa) = 39.39332 40.37049 39.88191
# Shear Modulus (GPa) = 19.80329 25.57409 22.68869
#
# Velocity S-wave (km/s) = 3.19759 3.63374 3.42262
# Velocity P-wave (km/s) = 5.82853 6.20073 6.01751
#
# Compressibility (1/GPa) = 0.02538501
#
# Stress axis : x y z
#
# Youngs Moduli (GPa) = 29.56454 29.56454 51.68185
#
# Poissons Ratio (x) = 0.67725 0.20411
# Poissons Ratio (y) = 0.67725 0.20411
# Poissons Ratio (z) = 0.11676 0.11676
#
# Static dielectric constant tensor:
#      x y z
#    x 3.555600 0.000000 0.000000 
#    y 0.000000 3.555600 0.000000 
#    z 0.000000 0.000000 3.471380 
# 
# 
# High freq. dielectric constant tensor:
#      x y z
#    x 1.749940 0.000000 0.000000 
#    y 0.000000 1.749940 0.000000 
#    z 0.000000 0.000000 1.755150 
# 
# From -- ./inp_files/1331.got.cif
#   From: 2010.03.12/outbox.cif.g09.slc.cpg/sg87_1_cif.got.tgz:1331.got - 2010.04.08 20:16:13.
