data_PCOD8303220
_publ_section_title
;
Structure prediction by ZEFSAII (Michael W. Deem and Ramdas Pophale) SiO2 
 PCOD8303220
Probable space group: P 42/M
;
_chemical_formula_sum "Si O2"
_cell_formula_units_Z 48
_cell_length_a 16.894660
_cell_length_b 16.894660
_cell_length_c 8.587085
_cell_angle_alpha 90.000000
_cell_angle_beta 90.000000
_cell_angle_gamma 90.000000
_cell_volume 2451.007692
_symmetry_space_group_name_H-M "P 42/M"
_symmetry_group_IT_number 84
_symmetry_cell_setting 'tetragonal'
loop_
_space_group_symop_operation_xyz
x,y,z
-y,x,1/2+z
-x,-y,z
y,-x,1/2+z
-x,-y,-z
y,-x,1/2-z
x,y,-z
-y,x,1/2-z
loop_
_atom_site_type_symbol
_atom_site_label
_atom_site_fract_x
_atom_site_fract_y
_atom_site_fract_z
Si Si1 0.114527 0.019338 0.818747
Si Si2 0.695951 0.847474 0.184250
Si Si3 0.996981 0.724902 0.183617
Si Si4 0.598752 0.298946 0.816366
Si Si5 0.732467 0.178337 0.184230
Si Si6 0.578346 0.710187 0.816360
O O1 0.199570 0.041817 0.757293
O O2 0.056805 0.091455 0.783515
O O3 0.112769 0.997814 0.000000
O O4 0.666844 0.931207 0.264405
O O5 0.780538 0.809867 0.240201
O O6 0.626876 0.787462 0.236487
O O7 0.701110 0.859726 0.000000
O O8 0.911355 0.715301 0.260257
O O9 0.986163 0.727329 0.000000
O O10 0.654641 0.226537 0.763512
O O11 0.510798 0.283483 0.750148
O O12 0.631229 0.381427 0.750215
O O13 0.597322 0.305680 0.000000
O O14 0.745212 0.177251 0.000000
O O15 0.577958 0.703119 0.000000
#
# Coordination Sequence:
#
# PCOD8303220 Si02
#       6
#     8   8   8   8   8   8
#     4  11  21  34  49  69  97 129 168 216 271 321
#     4  10  20  36  56  78 106 141 181 224 270 317
#     4  12  23  35  51  73 101 136 180 223 266 318
#     4   9  19  36  58  84 113 144 177 215 262 317
#     4  10  20  36  56  78 106 141 181 224 270 317
#     4   9  19  36  58  84 113 144 177 215 262 317
#
# _framework density 19.583781999999999
#
# number of rings (size 3 to 8) (size 9 to 14) (size 15 to 20)
#    0.000    1.833    0.000    5.500    0.000    2.333 
#    0.000    2.500    0.000    5.000    0.000    0.000 
#    0.000    0.000    0.000    0.000    0.000    0.000 
#
# Total GULP energy -594915.781174 kJ/mol
# GULP energy per Si atom -12394.078774 kJ/mol
# Density = 1.953921 g / cm^3
# Si number density = 19.583782 Si / 1000 Ang^3
#
#
#
# Elastic Constant Matrix: (Units=GPa)
#
#
# Indices 1 2 3 4 5 6 
#
# 1 112.4636 34.4776 24.6317 0.0000 0.0000 1.4277
# 2 34.4776 112.4636 24.6317 0.0000 0.0000 -1.4277
# 3 24.6317 24.6317 68.4770 0.0000 0.0000 0.0000
# 4 0.0000 0.0000 0.0000 27.1126 0.0000 0.0000
# 5 0.0000 0.0000 0.0000 0.0000 27.1126 0.0000
# 6 1.4277 -1.4277 0.0000 0.0000 0.0000 24.9859
#
#
#
# Elastic Compliance Matrix: (Units=1/GPa)
#
#
# Indices 1 2 3 4 5 6 
#
# 1 0.010294 -0.002556 -0.002784 0.000000 0.000000 -0.000734
# 2 -0.002556 0.010294 -0.002784 0.000000 0.000000 0.000734
# 3 -0.002784 -0.002784 0.016606 0.000000 0.000000 0.000000
# 4 0.000000 0.000000 0.000000 0.036883 0.000000 0.000000
# 5 0.000000 0.000000 0.000000 0.000000 0.036883 0.000000
# 6 -0.000734 0.000734 0.000000 0.000000 0.000000 0.040107
#
#
# Mechanical properties :
#
#
# Convention : Reuss Voigt Hill
#
# Bulk Modulus (GPa) = 47.73551 51.20961 49.47256
# Shear Modulus (GPa) = 28.68684 29.81977 29.25331
#
# Velocity S-wave (km/s) = 3.83146 3.90638 3.86910
# Velocity P-wave (km/s) = 6.63335 6.82292 6.72880
#
# Compressibility (1/GPa) = 0.02094877
#
# Stress axis : x y z
#
# Youngs Moduli (GPa) = 97.14211 97.14211 60.21893
#
# Poissons Ratio (x) = 0.24825 0.16763
# Poissons Ratio (y) = 0.24825 0.16763
# Poissons Ratio (z) = 0.27041 0.27041
#
# Static dielectric constant tensor:
#      x y z
#    x 3.640960 0.000000 0.000000 
#    y 0.000000 3.640960 0.000000 
#    z 0.000000 0.000000 3.552350 
# 
# 
# High freq. dielectric constant tensor:
#      x y z
#    x 1.759460 0.000000 0.000000 
#    y 0.000000 1.759460 0.000000 
#    z 0.000000 0.000000 1.766480 
# 
# From -- ./inp_files/989.got.cif
#   From: 2010.03.12/outbox.cif.g09.slc.cpg/sg84_1_cif.got.tgz:989.got - 2010.04.08 20:07:29.
