data_PCOD8303549
_publ_section_title
;
Structure prediction by ZEFSAII (Michael W. Deem and Ramdas Pophale) SiO2 
 PCOD8303549
Probable space group: P 42/N
;
_chemical_formula_sum "Si O2"
_cell_formula_units_Z 32
_cell_length_a 8.818026
_cell_length_b 8.818026
_cell_length_c 18.094920
_cell_angle_alpha 90.000000
_cell_angle_beta 90.000000
_cell_angle_gamma 90.000000
_cell_volume 1407.017235
_symmetry_space_group_name_H-M "P 42/N"
_symmetry_group_IT_number 86
_space_group.IT_coordinate_system_code '2'
_symmetry_cell_setting 'tetragonal'
loop_
_space_group_symop_operation_xyz
x,y,z
-y,1/2+x,1/2+z
1/2-x,1/2-y,z
1/2+y,-x,1/2+z
-x,-y,-z
y,1/2-x,1/2-z
1/2+x,1/2+y,-z
1/2-y,x,1/2-z
loop_
_atom_site_type_symbol
_atom_site_label
_atom_site_fract_x
_atom_site_fract_y
_atom_site_fract_z
Si Si1 0.108787 0.395028 0.906217
Si Si2 0.276408 0.921971 0.036368
Si Si3 0.917556 0.264875 0.710037
Si Si4 0.013181 0.892538 0.145670
O O1 0.145446 0.468755 0.827300
O O2 0.936157 0.441026 0.923367
O O3 0.113147 0.209183 0.899664
O O4 0.225472 0.462750 0.967274
O O5 0.250000 0.750000 0.008026
O O6 0.140013 0.964704 0.092386
O O7 0.750000 0.250000 0.676772
O O8 0.912816 0.228602 0.797415
O O9 0.971851 0.434911 0.690408
#
# Coordination Sequence:
#
# PCOD8303549 Si02
#       4
#     8   8   8   8
#     4  10  20  39  68  97 130 172 217 270 338 404
#     4   9  20  40  66  99 136 172 215 278 336 395
#     4  12  24  40  65  96 129 173 225 276 336 401
#     4  11  23  41  67  97 131 176 229 280 331 404
#
# _framework density 22.743148000000001
#
# number of rings (size 3 to 8) (size 9 to 14) (size 15 to 20)
#    0.000    1.500    2.500    3.750    0.000    1.000 
#    0.000    6.250    0.000    0.000    0.000    0.000 
#    0.000    0.000    0.000    0.000    0.000    0.000 
#
# Total GULP energy -396762.853271 kJ/mol
# GULP energy per Si atom -12398.839165 kJ/mol
# Density = 2.269138 g / cm^3
# Si number density = 22.743148 Si / 1000 Ang^3
#
#
#
# Elastic Constant Matrix: (Units=GPa)
#
#
# Indices 1 2 3 4 5 6 
#
# 1 97.7464 50.0162 40.8054 0.0000 0.0000 15.4122
# 2 50.0162 97.7464 40.8054 0.0000 0.0000 -15.4122
# 3 40.8054 40.8054 115.5175 0.0000 0.0000 0.0000
# 4 0.0000 0.0000 0.0000 34.7898 0.0000 0.0000
# 5 0.0000 0.0000 0.0000 0.0000 34.7898 0.0000
# 6 15.4122 -15.4122 0.0000 0.0000 0.0000 30.4151
#
#
#
# Elastic Compliance Matrix: (Units=1/GPa)
#
#
# Indices 1 2 3 4 5 6 
#
# 1 0.019775 -0.011367 -0.002970 0.000000 0.000000 -0.015781
# 2 -0.011367 0.019775 -0.002970 0.000000 0.000000 0.015781
# 3 -0.002970 -0.002970 0.010755 0.000000 0.000000 0.000000
# 4 0.000000 0.000000 0.000000 0.028744 0.000000 0.000000
# 5 0.000000 0.000000 0.000000 0.000000 0.028744 0.000000
# 6 -0.015781 0.015781 0.000000 0.000000 0.000000 0.048871
#
#
# Mechanical properties :
#
#
# Convention : Reuss Voigt Hill
#
# Bulk Modulus (GPa) = 63.73159 63.80713 63.76936
# Shear Modulus (GPa) = 25.44404 31.95781 28.70092
#
# Velocity S-wave (km/s) = 3.34841 3.75262 3.55626
# Velocity P-wave (km/s) = 6.55990 6.84782 6.70540
#
# Compressibility (1/GPa) = 0.01569080
#
# Stress axis : x y z
#
# Youngs Moduli (GPa) = 50.56847 50.56847 92.98022
#
# Poissons Ratio (x) = 0.57482 0.27616
# Poissons Ratio (y) = 0.57482 0.27616
# Poissons Ratio (z) = 0.15019 0.15019
#
# Static dielectric constant tensor:
#      x y z
#    x 4.060010 0.000000 0.000000 
#    y 0.000000 4.060010 0.000000 
#    z 0.000000 0.000000 4.109420 
# 
# 
# High freq. dielectric constant tensor:
#      x y z
#    x 1.897300 0.000000 0.000000 
#    y 0.000000 1.897300 0.000000 
#    z 0.000000 0.000000 1.903330 
# 
# From -- ./inp_files/3842.got.cif
#   From: 2010.03.12/outbox.cif.g09.slc.cpg/sg86_2_cif.got.tgz:3842.got - 2010.04.08 20:12:58.
