data_PCOD8303226
_publ_section_title
;
Structure prediction by ZEFSAII (Michael W. Deem and Ramdas Pophale) SiO2 
 PCOD8303226
Probable space group: P 42/M
;
_chemical_formula_sum "Si O2"
_cell_formula_units_Z 40
_cell_length_a 14.983095
_cell_length_b 14.983095
_cell_length_c 9.089394
_cell_angle_alpha 90.000000
_cell_angle_beta 90.000000
_cell_angle_gamma 90.000000
_cell_volume 2040.506561
_symmetry_space_group_name_H-M "P 42/M"
_symmetry_group_IT_number 84
_symmetry_cell_setting 'tetragonal'
loop_
_space_group_symop_operation_xyz
x,y,z
-y,x,1/2+z
-x,-y,z
y,-x,1/2+z
-x,-y,-z
y,-x,1/2-z
x,y,-z
-y,x,1/2-z
loop_
_atom_site_type_symbol
_atom_site_label
_atom_site_fract_x
_atom_site_fract_y
_atom_site_fract_z
Si Si1 0.411779 0.052355 0.173223
Si Si2 0.255269 0.570602 0.673876
Si Si3 0.274270 0.390059 0.825906
Si Si4 0.891496 0.063023 0.330186
Si Si5 0.692664 0.090403 0.331565
O O1 0.413389 0.154109 0.231068
O O2 0.500000 0.000000 0.224473
O O3 0.329166 0.999062 0.241925
O O4 0.399602 0.050964 0.000000
O O5 0.255835 0.555869 0.500000
O O6 0.297400 0.483210 0.748768
O O7 0.315849 0.653901 0.722086
O O8 0.176772 0.359084 0.770002
O O9 0.275756 0.402946 0.000000
O O10 0.922140 0.059419 0.500000
O O11 0.797163 0.112082 0.315086
O O12 0.962643 0.117020 0.233088
O O13 0.666812 0.072712 0.500000
#
# Coordination Sequence:
#
# PCOD8303226 Si02
#       5
#     8   8   8   8   8
#     4  10  20  36  60  86 112 146 185 230 283 334
#     4  10  22  40  61  87 116 150 192 236 287 345
#     4  10  22  40  60  83 116 153 190 238 292 342
#     4  10  21  37  56  80 113 153 194 234 281 339
#     4  10  22  37  56  84 115 149 189 234 287 344
#
# _framework density 19.602975000000001
#
# number of rings (size 3 to 8) (size 9 to 14) (size 15 to 20)
#    0.000    2.000    2.000    1.200    2.800    4.000 
#    0.000    2.000    0.000    0.000    0.000    0.000 
#    0.000    0.000    0.000    0.000    0.000    0.000 
#
# Total GULP energy -496072.255116 kJ/mol
# GULP energy per Si atom -12401.806378 kJ/mol
# Density = 1.955836 g / cm^3
# Si number density = 19.602975 Si / 1000 Ang^3
#
#
#
# Elastic Constant Matrix: (Units=GPa)
#
#
# Indices 1 2 3 4 5 6 
#
# 1 109.1372 52.3774 24.7644 0.0000 0.0000 -4.6492
# 2 52.3774 109.1372 24.7644 0.0000 0.0000 4.6492
# 3 24.7644 24.7644 36.1848 0.0000 0.0000 0.0000
# 4 0.0000 0.0000 0.0000 28.0985 0.0000 0.0000
# 5 0.0000 0.0000 0.0000 0.0000 28.0985 0.0000
# 6 -4.6492 4.6492 0.0000 0.0000 0.0000 34.3257
#
#
#
# Elastic Compliance Matrix: (Units=1/GPa)
#
#
# Indices 1 2 3 4 5 6 
#
# 1 0.012927 -0.005091 -0.005363 0.000000 0.000000 0.002440
# 2 -0.005091 0.012927 -0.005363 0.000000 0.000000 -0.002440
# 3 -0.005363 -0.005363 0.034976 0.000000 0.000000 0.000000
# 4 0.000000 0.000000 0.000000 0.035589 0.000000 0.000000
# 5 0.000000 0.000000 0.000000 0.000000 0.035589 0.000000
# 6 0.002440 -0.002440 0.000000 0.000000 0.000000 0.029794
#
#
# Mechanical properties :
#
#
# Convention : Reuss Voigt Hill
#
# Bulk Modulus (GPa) = 34.25008 50.91906 42.58457
# Shear Modulus (GPa) = 24.61021 28.27473 26.44247
#
# Velocity S-wave (km/s) = 3.54705 3.80197 3.67672
# Velocity P-wave (km/s) = 5.85536 6.73089 6.30833
#
# Compressibility (1/GPa) = 0.02919701
#
# Stress axis : x y z
#
# Youngs Moduli (GPa) = 77.35803 77.35803 28.59074
#
# Poissons Ratio (x) = 0.39383 0.15333
# Poissons Ratio (y) = 0.39383 0.15333
# Poissons Ratio (z) = 0.41485 0.41485
#
# Static dielectric constant tensor:
#      x y z
#    x 3.576340 0.000000 0.000000 
#    y 0.000000 3.576340 0.000000 
#    z 0.000000 0.000000 3.408850 
# 
# 
# High freq. dielectric constant tensor:
#      x y z
#    x 1.766770 0.000000 0.000000 
#    y 0.000000 1.766770 0.000000 
#    z 0.000000 0.000000 1.753180 
# 
# From -- ./inp_files/739.got.cif
#   From: 2010.03.12/outbox.cif.g09.slc.cpg/sg84_1_cif.got.tgz:739.got - 2010.04.08 20:07:29.
