data_PCOD8303669
_publ_section_title
;
Structure prediction by ZEFSAII (Michael W. Deem and Ramdas Pophale) SiO2 
 PCOD8303669
Probable space group: P 42/N
;
_chemical_formula_sum "Si O2"
_cell_formula_units_Z 48
_cell_length_a 9.213279
_cell_length_b 9.213279
_cell_length_c 27.439240
_cell_angle_alpha 90.000000
_cell_angle_beta 90.000000
_cell_angle_gamma 90.000000
_cell_volume 2329.166440
_symmetry_space_group_name_H-M "P 42/N"
_symmetry_group_IT_number 86
_space_group.IT_coordinate_system_code '2'
_symmetry_cell_setting 'tetragonal'
loop_
_space_group_symop_operation_xyz
x,y,z
-y,1/2+x,1/2+z
1/2-x,1/2-y,z
1/2+y,-x,1/2+z
-x,-y,-z
y,1/2-x,1/2-z
1/2+x,1/2+y,-z
1/2-y,x,1/2-z
loop_
_atom_site_type_symbol
_atom_site_label
_atom_site_fract_x
_atom_site_fract_y
_atom_site_fract_z
Si Si1 0.914939 0.425078 0.287506
Si Si2 0.940797 0.592348 0.386385
Si Si3 0.909249 0.414610 0.792570
Si Si4 0.064971 0.477727 0.891461
Si Si5 0.423066 0.772410 0.044660
Si Si6 0.731980 0.083238 0.562857
O O1 0.945893 0.536917 0.331106
O O2 0.746881 0.431323 0.270941
O O3 0.954152 0.259373 0.301056
O O4 0.016221 0.469733 0.242702
O O5 0.812888 0.513579 0.414374
O O6 0.926908 0.766782 0.389220
O O7 0.082736 0.536127 0.413734
O O8 0.986664 0.417761 0.844259
O O9 0.046872 0.650446 0.895720
O O10 0.975740 0.432467 0.940272
O O11 0.250000 0.750000 0.050783
O O12 0.488167 0.741501 0.990951
O O13 0.750000 0.250000 0.549619
#
# Coordination Sequence:
#
# PCOD8303669 Si02
#       6
#     8   8   8   8   8   8
#     4  11  25  44  66  93 125 162 207 264 323 381
#     4  11  22  40  65  93 127 168 217 261 317 382
#     4  11  25  44  66  93 125 162 207 264 323 381
#     4  11  22  40  65  93 127 168 217 261 317 382
#     4  11  21  39  63  93 133 171 213 265 312 371
#     4   9  22  39  61  93 131 171 213 263 318 371
#
# _framework density 20.608229999999999
#
# number of rings (size 3 to 8) (size 9 to 14) (size 15 to 20)
#    0.000    1.333    1.667    3.500    2.333    2.000 
#    0.000    7.500    0.000    0.000    0.000    0.000 
#    0.000    0.000    0.000    0.000    0.000    0.000 
#
# Total GULP energy -594952.486256 kJ/mol
# GULP energy per Si atom -12394.843464 kJ/mol
# Density = 2.056132 g / cm^3
# Si number density = 20.608230 Si / 1000 Ang^3
#
#
#
# Elastic Constant Matrix: (Units=GPa)
#
#
# Indices 1 2 3 4 5 6 
#
# 1 90.6608 34.1093 39.7946 0.0000 0.0000 -4.6017
# 2 34.1093 90.6608 39.7946 0.0000 0.0000 4.6017
# 3 39.7946 39.7946 70.8763 0.0000 0.0000 0.0000
# 4 0.0000 0.0000 0.0000 13.5554 0.0000 0.0000
# 5 0.0000 0.0000 0.0000 0.0000 13.5554 0.0000
# 6 -4.6017 4.6017 0.0000 0.0000 0.0000 17.8395
#
#
#
# Elastic Compliance Matrix: (Units=1/GPa)
#
#
# Indices 1 2 3 4 5 6 
#
# 1 0.015472 -0.002985 -0.007011 0.000000 0.000000 0.004761
# 2 -0.002985 0.015472 -0.007011 0.000000 0.000000 -0.004761
# 3 -0.007011 -0.007011 0.021982 0.000000 0.000000 0.000000
# 4 0.000000 0.000000 0.000000 0.073771 0.000000 0.000000
# 5 0.000000 0.000000 0.000000 0.000000 0.073771 0.000000
# 6 0.004761 -0.004761 0.000000 0.000000 0.000000 0.058511
#
#
# Mechanical properties :
#
#
# Convention : Reuss Voigt Hill
#
# Bulk Modulus (GPa) = 52.87678 53.28831 53.08254
# Shear Modulus (GPa) = 16.70564 18.22334 17.46449
#
# Velocity S-wave (km/s) = 2.85024 2.97690 2.91426
# Velocity P-wave (km/s) = 6.04530 6.14246 6.09407
#
# Compressibility (1/GPa) = 0.01891189
#
# Stress axis : x y z
#
# Youngs Moduli (GPa) = 64.63116 64.63116 45.49179
#
# Poissons Ratio (x) = 0.19295 0.31894
# Poissons Ratio (y) = 0.19295 0.31894
# Poissons Ratio (z) = 0.45313 0.45313
#
# Static dielectric constant tensor:
#      x y z
#    x 4.241810 0.000000 0.000000 
#    y 0.000000 4.241810 0.000000 
#    z 0.000000 0.000000 3.670640 
# 
# 
# High freq. dielectric constant tensor:
#      x y z
#    x 1.809830 0.000000 0.000000 
#    y 0.000000 1.809830 0.000000 
#    z 0.000000 0.000000 1.815130 
# 
# From -- ./inp_files/5186.got.cif
#   From: 2010.03.12/outbox.cif.g09.slc.cpg/sg86_3_cif.got.tgz:5186.got - 2010.04.08 20:12:58.
