data_PCOD8303564
_publ_section_title
;
Structure prediction by ZEFSAII (Michael W. Deem and Ramdas Pophale) SiO2 
 PCOD8303564
Probable space group: P 42/N
;
_chemical_formula_sum "Si O2"
_cell_formula_units_Z 40
_cell_length_a 10.659024
_cell_length_b 10.659024
_cell_length_c 18.087614
_cell_angle_alpha 90.000000
_cell_angle_beta 90.000000
_cell_angle_gamma 90.000000
_cell_volume 2055.020514
_symmetry_space_group_name_H-M "P 42/N"
_symmetry_group_IT_number 86
_space_group.IT_coordinate_system_code '2'
_symmetry_cell_setting 'tetragonal'
loop_
_space_group_symop_operation_xyz
x,y,z
-y,1/2+x,1/2+z
1/2-x,1/2-y,z
1/2+y,-x,1/2+z
-x,-y,-z
y,1/2-x,1/2-z
1/2+x,1/2+y,-z
1/2-y,x,1/2-z
loop_
_atom_site_type_symbol
_atom_site_label
_atom_site_fract_x
_atom_site_fract_y
_atom_site_fract_z
Si Si1 0.859140 0.341404 0.372283
Si Si2 0.506100 0.709073 0.504139
Si Si3 0.489996 0.857606 0.918725
Si Si4 0.048293 0.133493 0.975292
Si Si5 0.553506 0.814153 0.755683
O O1 0.750000 0.250000 0.341651
O O2 0.904981 0.286280 0.449997
O O3 0.820636 0.484580 0.397087
O O4 0.964318 0.354183 0.310754
O O5 0.434820 0.635319 0.438992
O O6 0.562722 0.613024 0.563227
O O7 0.615719 0.799453 0.469853
O O8 0.479847 0.830487 0.832060
O O9 0.505053 0.728177 0.961535
O O10 0.000000 0.000000 0.000000
O O11 0.671302 0.906228 0.754258
#
# Coordination Sequence:
#
# PCOD8303564 Si02
#       5
#     8   8   8   8   8
#     4  11  21  42  57  87 128 155 196 260 309 368
#     4  10  21  38  63  88 118 161 205 251 304 367
#     4  11  21  39  62  89 121 160 211 254 302 377
#     4  10  21  35  61  88 119 155 202 249 303 363
#     4  11  23  39  62  90 123 157 204 255 317 369
#
# _framework density 19.464524000000001
#
# number of rings (size 3 to 8) (size 9 to 14) (size 15 to 20)
#    0.000    1.400    4.000    3.000    2.800    0.000 
#   10.800    0.000    0.000    0.000    0.000    0.000 
#    0.000    0.000    0.000    0.000    0.000    0.000 
#
# Total GULP energy -495773.137136 kJ/mol
# GULP energy per Si atom -12394.328428 kJ/mol
# Density = 1.942022 g / cm^3
# Si number density = 19.464524 Si / 1000 Ang^3
#
#
#
# Elastic Constant Matrix: (Units=GPa)
#
#
# Indices 1 2 3 4 5 6 
#
# 1 78.9812 19.6228 39.4610 0.0000 0.0000 -6.9780
# 2 19.6228 78.9812 39.4610 0.0000 0.0000 6.9780
# 3 39.4610 39.4610 121.7847 0.0000 0.0000 0.0000
# 4 0.0000 0.0000 0.0000 29.3660 0.0000 0.0000
# 5 0.0000 0.0000 0.0000 0.0000 29.3660 0.0000
# 6 -6.9780 6.9780 0.0000 0.0000 0.0000 20.3536
#
#
#
# Elastic Compliance Matrix: (Units=1/GPa)
#
#
# Indices 1 2 3 4 5 6 
#
# 1 0.016008 -0.002316 -0.004437 0.000000 0.000000 0.006282
# 2 -0.002316 0.016008 -0.004437 0.000000 0.000000 -0.006282
# 3 -0.004437 -0.004437 0.011086 0.000000 0.000000 0.000000
# 4 0.000000 0.000000 0.000000 0.034053 0.000000 0.000000
# 5 0.000000 0.000000 0.000000 0.000000 0.034053 0.000000
# 6 0.006282 -0.006282 0.000000 0.000000 0.000000 0.053439
#
#
# Mechanical properties :
#
#
# Convention : Reuss Voigt Hill
#
# Bulk Modulus (GPa) = 48.25123 52.98187 50.61655
# Shear Modulus (GPa) = 25.78190 27.89725 26.83957
#
# Velocity S-wave (km/s) = 3.64340 3.78992 3.71738
# Velocity P-wave (km/s) = 6.52244 6.81396 6.66980
#
# Compressibility (1/GPa) = 0.02072486
#
# Stress axis : x y z
#
# Youngs Moduli (GPa) = 62.46767 62.46767 90.20030
#
# Poissons Ratio (x) = 0.14465 0.40020
# Poissons Ratio (y) = 0.14465 0.40020
# Poissons Ratio (z) = 0.27715 0.27715
#
# Static dielectric constant tensor:
#      x y z
#    x 4.173310 0.000000 0.000000 
#    y 0.000000 4.173310 0.000000 
#    z 0.000000 0.000000 3.378180 
# 
# 
# High freq. dielectric constant tensor:
#      x y z
#    x 1.765510 0.000000 0.000000 
#    y 0.000000 1.765510 0.000000 
#    z 0.000000 0.000000 1.736550 
# 
# From -- ./inp_files/2900.got.cif
#   From: 2010.03.12/outbox.cif.g09.slc.cpg/sg86_2_cif.got.tgz:2900.got - 2010.04.08 20:12:58.
