data_PCOD8303236
_publ_section_title
;
Structure prediction by ZEFSAII (Michael W. Deem and Ramdas Pophale) SiO2 
 PCOD8303236
Probable space group: P 42/M
;
_chemical_formula_sum "Si O2"
_cell_formula_units_Z 40
_cell_length_a 15.187976
_cell_length_b 15.187976
_cell_length_c 9.256490
_cell_angle_alpha 90.000000
_cell_angle_beta 90.000000
_cell_angle_gamma 90.000000
_cell_volume 2135.237267
_symmetry_space_group_name_H-M "P 42/M"
_symmetry_group_IT_number 84
_symmetry_cell_setting 'tetragonal'
loop_
_space_group_symop_operation_xyz
x,y,z
-y,x,1/2+z
-x,-y,z
y,-x,1/2+z
-x,-y,-z
y,-x,1/2-z
x,y,-z
-y,x,1/2-z
loop_
_atom_site_type_symbol
_atom_site_label
_atom_site_fract_x
_atom_site_fract_y
_atom_site_fract_z
Si Si1 0.798408 0.844362 0.832095
Si Si2 0.688523 0.330121 0.668488
Si Si3 0.435859 0.918722 0.337266
Si Si4 0.526417 0.251054 0.168762
Si Si5 0.020753 0.246588 0.832326
O O1 0.732592 0.767838 0.775469
O O2 0.899501 0.819911 0.801478
O O3 0.782516 0.935096 0.752168
O O4 0.780141 0.859707 0.000000
O O5 0.672132 0.311873 0.500000
O O6 0.708523 0.431293 0.700600
O O7 0.599893 0.309379 0.754133
O O8 0.425683 0.880090 0.500000
O O9 0.475275 0.846811 0.231080
O O10 0.341851 0.948903 0.277004
O O11 0.500000 0.000000 0.336747
O O12 0.547214 0.247424 0.000000
O O13 0.995793 0.250191 0.000000
#
# Coordination Sequence:
#
# PCOD8303236 Si02
#       5
#     8   8   8   8   8
#     4  10  21  39  60  82 117 159 193 242 301 348
#     4  10  22  42  61  83 123 161 194 244 304 358
#     4  10  20  37  61  87 119 157 195 244 302 355
#     4  11  23  37  61  91 117 156 203 248 295 350
#     4  10  21  37  58  85 116 155 198 239 294 353
#
# _framework density 18.733281999999999
#
# number of rings (size 3 to 8) (size 9 to 14) (size 15 to 20)
#    0.000    1.800    2.000    1.800    0.000    5.200 
#    0.000    4.000    0.000    0.000    0.000    0.000 
#    0.000    0.000    0.000    0.000    0.000    0.000 
#
# Total GULP energy -496132.669805 kJ/mol
# GULP energy per Si atom -12403.316745 kJ/mol
# Density = 1.869064 g / cm^3
# Si number density = 18.733282 Si / 1000 Ang^3
#
#
#
# Elastic Constant Matrix: (Units=GPa)
#
#
# Indices 1 2 3 4 5 6 
#
# 1 127.8962 51.4376 61.8686 0.0000 0.0000 6.3934
# 2 51.4376 127.8962 61.8686 0.0000 0.0000 -6.3934
# 3 61.8686 61.8686 69.9447 0.0000 0.0000 0.0000
# 4 0.0000 0.0000 0.0000 42.0318 0.0000 0.0000
# 5 0.0000 0.0000 0.0000 0.0000 42.0318 0.0000
# 6 6.3934 -6.3934 0.0000 0.0000 0.0000 31.8832
#
#
#
# Elastic Compliance Matrix: (Units=1/GPa)
#
#
# Indices 1 2 3 4 5 6 
#
# 1 0.013921 0.000388 -0.012657 0.000000 0.000000 -0.002714
# 2 0.000388 0.013921 -0.012657 0.000000 0.000000 0.002714
# 3 -0.012657 -0.012657 0.036689 0.000000 0.000000 0.000000
# 4 0.000000 0.000000 0.000000 0.023792 0.000000 0.000000
# 5 0.000000 0.000000 0.000000 0.000000 0.023792 0.000000
# 6 -0.002714 0.002714 0.000000 0.000000 0.000000 0.032453
#
#
# Mechanical properties :
#
#
# Convention : Reuss Voigt Hill
#
# Bulk Modulus (GPa) = 68.12658 75.12075 71.62366
# Shear Modulus (GPa) = 25.08629 33.22683 29.15656
#
# Velocity S-wave (km/s) = 3.66338 4.21608 3.94941
# Velocity P-wave (km/s) = 7.37152 7.99297 7.68853
#
# Compressibility (1/GPa) = 0.01467856
#
# Stress axis : x y z
#
# Youngs Moduli (GPa) = 71.83311 71.83311 27.25637
#
# Poissons Ratio (x) = -0.02790 0.34499
# Poissons Ratio (y) = -0.02790 0.34499
# Poissons Ratio (z) = 0.90921 0.90921
#
# Static dielectric constant tensor:
#      x y z
#    x 3.562610 0.000000 0.000000 
#    y 0.000000 3.562610 0.000000 
#    z 0.000000 0.000000 3.440170 
# 
# 
# High freq. dielectric constant tensor:
#      x y z
#    x 1.739400 0.000000 0.000000 
#    y 0.000000 1.739400 0.000000 
#    z 0.000000 0.000000 1.721440 
# 
# From -- ./inp_files/747.got.cif
#   From: 2010.03.12/outbox.cif.g09.slc.cpg/sg84_1_cif.got.tgz:747.got - 2010.04.08 20:07:29.
