data_PCOD8303192
_publ_section_title
;
Structure prediction by ZEFSAII (Michael W. Deem and Ramdas Pophale) SiO2 
 PCOD8303192
Probable space group: P 42/M
;
_chemical_formula_sum "Si O2"
_cell_formula_units_Z 64
_cell_length_a 20.616691
_cell_length_b 20.616691
_cell_length_c 8.694423
_cell_angle_alpha 90.000000
_cell_angle_beta 90.000000
_cell_angle_gamma 90.000000
_cell_volume 3695.546653
_symmetry_space_group_name_H-M "P 42/M"
_symmetry_group_IT_number 84
_symmetry_cell_setting 'tetragonal'
loop_
_space_group_symop_operation_xyz
x,y,z
-y,x,1/2+z
-x,-y,z
y,-x,1/2+z
-x,-y,-z
y,-x,1/2-z
x,y,-z
-y,x,1/2-z
loop_
_atom_site_type_symbol
_atom_site_label
_atom_site_fract_x
_atom_site_fract_y
_atom_site_fract_z
Si Si1 0.621978 0.718236 0.326091
Si Si2 0.723101 0.809701 0.181210
Si Si3 0.250258 0.494991 0.330358
Si Si4 0.076242 0.647417 0.818668
Si Si5 0.378915 0.699681 0.670978
Si Si6 0.898097 0.492147 0.325874
Si Si7 0.941332 0.633220 0.318701
Si Si8 0.825138 0.708957 0.826908
O O1 0.596985 0.725252 0.500000
O O2 0.679619 0.767231 0.293751
O O3 0.568891 0.735765 0.201979
O O4 0.646487 0.645628 0.292831
O O5 0.704416 0.882834 0.231450
O O6 0.797231 0.782531 0.210815
O O7 0.706890 0.799843 0.000000
O O8 0.275060 0.476497 0.500000
O O9 0.288049 0.453809 0.203912
O O10 0.174475 0.481982 0.318815
O O11 0.094222 0.572884 0.774760
O O12 0.002593 0.661818 0.771602
O O13 0.086279 0.655332 0.000000
O O14 0.371037 0.671738 0.500000
O O15 0.339753 0.765670 0.691030
O O16 0.918928 0.474021 0.500000
O O17 0.936143 0.556757 0.267188
O O18 0.952656 0.635568 0.500000
O O19 0.881447 0.681565 0.282727
O O20 0.852702 0.707976 0.000000
#
# Coordination Sequence:
#
# PCOD8303192 Si02
#       8
#     8   8   8   8   8   8   8   8
#     4  11  21  33  51  75  99 128 167 210 259 311
#     4  10  20  36  54  74 101 134 170 215 262 302
#     4  11  20  33  53  75 101 130 166 214 259 308
#     4  12  24  35  51  75 104 141 180 217 255 303
#     4  10  20  34  52  74 100 129 164 211 261 308
#     4  10  21  35  50  71 102 140 178 213 255 301
#     4  11  22  36  53  73 103 142 177 212 256 307
#     4   9  19  34  53  75 100 129 167 213 256 299
#
# _framework density 17.318142999999999
#
# number of rings (size 3 to 8) (size 9 to 14) (size 15 to 20)
#    0.000    1.500    2.500    4.875    0.000    5.500 
#    0.000    0.000    0.000    0.375    0.000    2.625 
#    0.000    0.500    0.000    5.250    0.000    2.250 
#
# Total GULP energy -793005.028471 kJ/mol
# GULP energy per Si atom -12390.703570 kJ/mol
# Density = 1.727873 g / cm^3
# Si number density = 17.318143 Si / 1000 Ang^3
#
#
#
# Elastic Constant Matrix: (Units=GPa)
#
#
# Indices 1 2 3 4 5 6 
#
# 1 40.9299 25.5008 27.5210 0.0000 0.0000 -6.1551
# 2 25.5008 40.9299 27.5210 0.0000 0.0000 6.1551
# 3 27.5210 27.5210 81.9340 0.0000 0.0000 0.0000
# 4 0.0000 0.0000 0.0000 24.4696 0.0000 0.0000
# 5 0.0000 0.0000 0.0000 0.0000 24.4696 0.0000
# 6 -6.1551 6.1551 0.0000 0.0000 0.0000 15.0674
#
#
#
# Elastic Compliance Matrix: (Units=1/GPa)
#
#
# Indices 1 2 3 4 5 6 
#
# 1 0.058505 -0.037646 -0.007006 0.000000 0.000000 0.039278
# 2 -0.037646 0.058505 -0.007006 0.000000 0.000000 -0.039278
# 3 -0.007006 -0.007006 0.016912 0.000000 0.000000 0.000000
# 4 0.000000 0.000000 0.000000 0.040867 0.000000 0.000000
# 5 0.000000 0.000000 0.000000 0.000000 0.040867 0.000000
# 6 0.039278 -0.039278 0.000000 0.000000 0.000000 0.098459
#
#
# Mechanical properties :
#
#
# Convention : Reuss Voigt Hill
#
# Bulk Modulus (GPa) = 32.67589 36.09769 34.38679
# Shear Modulus (GPa) = 11.69230 18.35138 15.02184
#
# Velocity S-wave (km/s) = 2.60118 3.25878 2.94837
# Velocity P-wave (km/s) = 5.28493 5.92019 5.61155
#
# Compressibility (1/GPa) = 0.03060361
#
# Stress axis : x y z
#
# Youngs Moduli (GPa) = 17.09268 17.09268 59.13121
#
# Poissons Ratio (x) = 0.64348 0.41428
# Poissons Ratio (y) = 0.64348 0.41428
# Poissons Ratio (z) = 0.11975 0.11975
#
# Static dielectric constant tensor:
#      x y z
#    x 3.256710 0.000000 0.000000 
#    y 0.000000 3.256710 0.000000 
#    z 0.000000 0.000000 3.289740 
# 
# 
# High freq. dielectric constant tensor:
#      x y z
#    x 1.647640 0.000000 0.000000 
#    y 0.000000 1.647640 0.000000 
#    z 0.000000 0.000000 1.679130 
# 
# From -- ./inp_files/1348.got.cif
#   From: 2010.03.12/outbox.cif.g09.slc.cpg/sg84_1_cif.got.tgz:1348.got - 2010.04.08 20:07:29.
