data_PCOD8303784
_publ_section_title
;
Structure prediction by ZEFSAII (Michael W. Deem and Ramdas Pophale) SiO2 
 PCOD8303784
Probable space group: I 4/M
;
_chemical_formula_sum "Si O2"
_cell_formula_units_Z 128
_cell_length_a 20.287310
_cell_length_b 20.287310
_cell_length_c 16.726805
_cell_angle_alpha 90.000000
_cell_angle_beta 90.000000
_cell_angle_gamma 90.000000
_cell_volume 6884.333882
_symmetry_space_group_name_H-M "I 4/M"
_symmetry_group_IT_number 87
_symmetry_cell_setting 'tetragonal'
loop_
_space_group_symop_operation_xyz
x,y,z
-y,x,z
-x,-y,z
y,-x,z
-x,-y,-z
y,-x,-z
x,y,-z
-y,x,-z
1/2+x,1/2+y,1/2+z
1/2-y,1/2+x,1/2+z
1/2-x,1/2-y,1/2+z
1/2+y,1/2-x,1/2+z
1/2-x,1/2-y,1/2-z
1/2+y,1/2-x,1/2-z
1/2+x,1/2+y,1/2-z
1/2-y,1/2+x,1/2-z
loop_
_atom_site_type_symbol
_atom_site_label
_atom_site_fract_x
_atom_site_fract_y
_atom_site_fract_z
Si Si1 0.410355 0.560618 0.231159
Si Si2 0.708883 0.449268 0.327772
Si Si3 0.986370 0.102615 0.906723
Si Si4 0.099235 0.540576 0.741171
Si Si5 0.472289 0.225037 0.829548
Si Si6 0.386818 0.753125 0.091952
Si Si7 0.887786 0.834790 0.405677
Si Si8 0.670470 0.107096 0.093488
O O1 0.408081 0.481589 0.250205
O O2 0.349340 0.592066 0.282113
O O3 0.392894 0.570495 0.137572
O O4 0.678002 0.510647 0.378932
O O5 0.753365 0.483210 0.261658
O O6 0.752068 0.403999 0.386955
O O7 0.927342 0.056916 0.873715
O O8 0.981180 0.097204 0.000000
O O9 0.082555 0.463694 0.732172
O O10 0.148898 0.548830 0.817236
O O11 0.125523 0.564711 0.654191
O O12 0.542198 0.237593 0.869136
O O13 0.413833 0.263238 0.876172
O O14 0.346147 0.688540 0.120042
O O15 0.341558 0.815976 0.109954
O O16 0.403381 0.745369 0.000000
O O17 0.898891 0.840925 0.500000
O O18 0.655743 0.088957 0.000000
#
# Coordination Sequence:
#
# PCOD8303784 Si02
#       8
#    16  16  16  16  16  16  16  16
#     4  10  20  33  51  79 115 153 199 245 286 335
#     4  10  19  31  51  76 106 143 184 230 279 333
#     4   9  17  29  47  71 100 139 184 226 272 322
#     4  10  20  39  65  90 116 145 191 249 304 357
#     4  10  20  35  56  84 112 148 190 233 294 343
#     4  10  20  37  59  82 114 152 192 234 285 353
#     4  10  20  34  55  81 114 155 196 237 290 354
#     4  10  21  38  60  84 113 151 191 232 288 356
#
# _framework density 18.592939000000001
#
# number of rings (size 3 to 8) (size 9 to 14) (size 15 to 20)
#    0.000    2.125    1.250    3.375    0.000    3.500 
#    0.000    8.750    5.500    0.000    0.000    0.000 
#    0.000    0.000    0.000    0.000    0.000    0.000 
#
# Total GULP energy -792871.554106 kJ/mol
# GULP energy per Si atom -12388.618033 kJ/mol
# Density = 1.855062 g / cm^3
# Si number density = 18.592939 Si / 1000 Ang^3
#
#
#
# Elastic Constant Matrix: (Units=GPa)
#
#
# Indices 1 2 3 4 5 6 
#
# 1 109.8979 46.8312 48.3185 0.0000 0.0000 -9.1208
# 2 46.8312 109.8979 48.3185 0.0000 0.0000 9.1208
# 3 48.3185 48.3185 85.2602 0.0000 0.0000 0.0000
# 4 0.0000 0.0000 0.0000 26.7081 0.0000 0.0000
# 5 0.0000 0.0000 0.0000 0.0000 26.7081 0.0000
# 6 -9.1208 9.1208 0.0000 0.0000 0.0000 26.3086
#
#
#
# Elastic Compliance Matrix: (Units=1/GPa)
#
#
# Indices 1 2 3 4 5 6 
#
# 1 0.013715 -0.003908 -0.005558 0.000000 0.000000 0.006110
# 2 -0.003908 0.013715 -0.005558 0.000000 0.000000 -0.006110
# 3 -0.005558 -0.005558 0.018029 0.000000 0.000000 0.000000
# 4 0.000000 0.000000 0.000000 0.037442 0.000000 0.000000
# 5 0.000000 0.000000 0.000000 0.000000 0.037442 0.000000
# 6 0.006110 -0.006110 0.000000 0.000000 0.000000 0.042247
#
#
# Mechanical properties :
#
#
# Convention : Reuss Voigt Hill
#
# Bulk Modulus (GPa) = 64.88799 65.77694 65.33247
# Shear Modulus (GPa) = 25.28122 26.71746 25.99934
#
# Velocity S-wave (km/s) = 3.69144 3.79485 3.74350
# Velocity P-wave (km/s) = 7.28999 7.39293 7.34164
#
# Compressibility (1/GPa) = 0.01541117
#
# Stress axis : x y z
#
# Youngs Moduli (GPa) = 72.91049 72.91049 55.46762
#
# Poissons Ratio (x) = 0.28493 0.30829
# Poissons Ratio (y) = 0.28493 0.30829
# Poissons Ratio (z) = 0.40524 0.40524
#
# Static dielectric constant tensor:
#      x y z
#    x 3.558460 0.000000 0.000000 
#    y 0.000000 3.558460 0.000000 
#    z 0.000000 0.000000 3.669020 
# 
# 
# High freq. dielectric constant tensor:
#      x y z
#    x 1.710950 0.000000 0.000000 
#    y 0.000000 1.710950 0.000000 
#    z 0.000000 0.000000 1.744900 
# 
# From -- ./inp_files/4732.got.cif
#   From: 2010.03.12/outbox.cif.g09.slc.cpg/sg87_3_cif.got.tgz:4732.got - 2010.04.08 20:16:13.
