data_PCOD8303625
_publ_section_title
;
Structure prediction by ZEFSAII (Michael W. Deem and Ramdas Pophale) SiO2 
 PCOD8303625
Probable space group: P 42/N
;
_chemical_formula_sum "Si O2"
_cell_formula_units_Z 40
_cell_length_a 9.887837
_cell_length_b 9.887837
_cell_length_c 21.706593
_cell_angle_alpha 90.000000
_cell_angle_beta 90.000000
_cell_angle_gamma 90.000000
_cell_volume 2122.238849
_symmetry_space_group_name_H-M "P 42/N"
_symmetry_group_IT_number 86
_space_group.IT_coordinate_system_code '2'
_symmetry_cell_setting 'tetragonal'
loop_
_space_group_symop_operation_xyz
x,y,z
-y,1/2+x,1/2+z
1/2-x,1/2-y,z
1/2+y,-x,1/2+z
-x,-y,-z
y,1/2-x,1/2-z
1/2+x,1/2+y,-z
1/2-y,x,1/2-z
loop_
_atom_site_type_symbol
_atom_site_label
_atom_site_fract_x
_atom_site_fract_y
_atom_site_fract_z
Si Si1 0.591739 0.771660 0.672187
Si Si2 0.344606 0.377091 0.036099
Si Si3 0.873919 0.345981 0.549312
Si Si4 0.487291 0.005634 0.230189
Si Si5 0.767368 0.096064 0.189077
O O1 0.750000 0.750000 0.685046
O O2 0.562799 0.821411 0.603701
O O3 0.514066 0.630733 0.679830
O O4 0.529925 0.877406 0.719617
O O5 0.250000 0.250000 0.021837
O O6 0.501030 0.331742 0.032098
O O7 0.305086 0.492029 0.987523
O O8 0.750000 0.250000 0.529840
O O9 0.907275 0.331303 0.621309
O O10 0.624040 0.020942 0.191325
O O11 0.484509 0.862351 0.264010
O O12 0.750000 0.250000 0.211340
#
# Coordination Sequence:
#
# PCOD8303625 Si02
#       5
#     8   8   8   8   8
#     4  11  19  36  65  90 113 157 210 253 286 356
#     4  10  23  42  65  89 119 163 212 257 301 365
#     4  10  23  44  62  88 127 160 205 258 314 363
#     4  12  21  39  61  92 126 153 205 248 306 365
#     4  11  23  40  63  91 123 165 196 253 310 359
#
# _framework density 18.848018
#
# number of rings (size 3 to 8) (size 9 to 14) (size 15 to 20)
#    0.000    1.200    6.000    0.000    8.400    1.200 
#    7.200    0.000    0.000    0.000    0.000    0.000 
#    0.000    0.000    0.000    0.000    0.000    0.000 
#
# Total GULP energy -496131.895376 kJ/mol
# GULP energy per Si atom -12403.297384 kJ/mol
# Density = 1.880512 g / cm^3
# Si number density = 18.848018 Si / 1000 Ang^3
#
#
#
# Elastic Constant Matrix: (Units=GPa)
#
#
# Indices 1 2 3 4 5 6 
#
# 1 108.8684 43.2179 31.6746 0.0000 0.0000 -0.6216
# 2 43.2179 108.8684 31.6746 0.0000 0.0000 0.6216
# 3 31.6746 31.6746 49.0716 0.0000 0.0000 0.0000
# 4 0.0000 0.0000 0.0000 30.4423 0.0000 0.0000
# 5 0.0000 0.0000 0.0000 0.0000 30.4423 0.0000
# 6 -0.6216 0.6216 0.0000 0.0000 0.0000 31.8103
#
#
#
# Elastic Compliance Matrix: (Units=1/GPa)
#
#
# Indices 1 2 3 4 5 6 
#
# 1 0.012115 -0.003122 -0.005805 0.000000 0.000000 0.000298
# 2 -0.003122 0.012115 -0.005805 0.000000 0.000000 -0.000298
# 3 -0.005805 -0.005805 0.027872 0.000000 0.000000 0.000000
# 4 0.000000 0.000000 0.000000 0.032849 0.000000 0.000000
# 5 0.000000 0.000000 0.000000 0.000000 0.032849 0.000000
# 6 0.000298 -0.000298 0.000000 0.000000 0.000000 0.031448
#
#
# Mechanical properties :
#
#
# Convention : Reuss Voigt Hill
#
# Bulk Modulus (GPa) = 44.17151 53.32695 48.74923
# Shear Modulus (GPa) = 26.84424 29.22174 28.03299
#
# Velocity S-wave (km/s) = 3.77801 3.94177 3.86076
# Velocity P-wave (km/s) = 6.52056 7.00509 6.76716
#
# Compressibility (1/GPa) = 0.02263902
#
# Stress axis : x y z
#
# Youngs Moduli (GPa) = 82.53907 82.53907 35.87801
#
# Poissons Ratio (x) = 0.25771 0.20827
# Poissons Ratio (y) = 0.25771 0.20827
# Poissons Ratio (z) = 0.47913 0.47913
#
# Static dielectric constant tensor:
#      x y z
#    x 3.530760 0.000000 0.000000 
#    y 0.000000 3.530760 0.000000 
#    z 0.000000 0.000000 3.466340 
# 
# 
# High freq. dielectric constant tensor:
#      x y z
#    x 1.732500 0.000000 0.000000 
#    y 0.000000 1.732500 0.000000 
#    z 0.000000 0.000000 1.731620 
# 
# From -- ./inp_files/4431.got.cif
#   From: 2010.03.12/outbox.cif.g09.slc.cpg/sg86_3_cif.got.tgz:4431.got - 2010.04.08 20:12:58.
