data_PCOD8303112
_publ_section_title
;
Structure prediction by ZEFSAII (Michael W. Deem and Ramdas Pophale) SiO2 
 PCOD8303112
Probable space group: P 42/M
;
_chemical_formula_sum "Si O2"
_cell_formula_units_Z 64
_cell_length_a 19.632996
_cell_length_b 19.632996
_cell_length_c 9.022653
_cell_angle_alpha 90.000000
_cell_angle_beta 90.000000
_cell_angle_gamma 90.000000
_cell_volume 3477.822489
_symmetry_space_group_name_H-M "P 42/M"
_symmetry_group_IT_number 84
_symmetry_cell_setting 'tetragonal'
loop_
_space_group_symop_operation_xyz
x,y,z
-y,x,1/2+z
-x,-y,z
y,-x,1/2+z
-x,-y,-z
y,-x,1/2-z
x,y,-z
-y,x,1/2-z
loop_
_atom_site_type_symbol
_atom_site_label
_atom_site_fract_x
_atom_site_fract_y
_atom_site_fract_z
Si Si1 0.929554 0.816268 0.670928
Si Si2 0.191766 0.423983 0.669112
Si Si3 0.725455 0.827863 0.831021
Si Si4 0.204041 0.572261 0.668741
Si Si5 0.820244 0.928746 0.329544
Si Si6 0.672777 0.570070 0.164416
Si Si7 0.338277 0.578242 0.836516
Si Si8 0.285593 0.831091 0.672944
O O1 0.933717 0.795340 0.500000
O O2 0.889230 0.886458 0.693293
O O3 0.892880 0.755383 0.755994
O O4 0.004261 0.827701 0.733074
O O5 0.182849 0.401023 0.500000
O O6 0.160353 0.501284 0.693997
O O7 0.270855 0.431350 0.708714
O O8 0.162594 0.363048 0.768562
O O9 0.643854 0.835130 0.811702
O O10 0.756093 0.884497 0.723758
O O11 0.758326 0.752759 0.791175
O O12 0.746261 0.844449 0.000000
O O13 0.233647 0.569042 0.500000
O O14 0.259195 0.573745 0.797875
O O15 0.808317 0.948225 0.500000
O O16 0.618978 0.627049 0.205624
O O17 0.632922 0.498534 0.160950
O O18 0.702780 0.587286 0.000000
O O19 0.347253 0.611534 0.000000
O O20 0.288981 0.843870 0.500000
#
# Coordination Sequence:
#
# PCOD8303112 Si02
#       8
#     8   8   8   8   8   8   8   8
#     4  10  21  37  57  82 114 149 181 214 254 303
#     4  10  19  31  49  73 100 130 168 214 263 314
#     4   9  18  33  53  76 103 138 177 216 263 316
#     4   9  18  32  50  72  99 131 167 211 263 318
#     4  10  21  36  56  84 114 144 179 215 252 298
#     4  10  20  32  44  60  85 117 155 201 256 315
#     4  10  20  31  44  62  84 115 156 203 255 312
#     4  10  19  32  53  79 107 140 179 222 266 314
#
# _framework density 18.402318999999999
#
# number of rings (size 3 to 8) (size 9 to 14) (size 15 to 20)
#    0.000    2.250    0.000    3.000    0.000    6.000 
#    0.000    2.500    0.000    0.750    0.000    5.250 
#    0.000    0.000    0.000    0.000    0.000    0.000 
#
# Total GULP energy -793033.034014 kJ/mol
# GULP energy per Si atom -12391.141156 kJ/mol
# Density = 1.836043 g / cm^3
# Si number density = 18.402319 Si / 1000 Ang^3
#
#
#
# Elastic Constant Matrix: (Units=GPa)
#
#
# Indices 1 2 3 4 5 6 
#
# 1 97.1843 37.2271 48.4063 0.0000 0.0000 -0.2112
# 2 37.2271 97.1843 48.4063 0.0000 0.0000 0.2112
# 3 48.4063 48.4063 104.0038 0.0000 0.0000 0.0000
# 4 0.0000 0.0000 0.0000 29.4402 0.0000 0.0000
# 5 0.0000 0.0000 0.0000 0.0000 29.4402 0.0000
# 6 -0.2112 0.2112 0.0000 0.0000 0.0000 14.4751
#
#
#
# Elastic Compliance Matrix: (Units=1/GPa)
#
#
# Indices 1 2 3 4 5 6 
#
# 1 0.013936 -0.002744 -0.005209 0.000000 0.000000 0.000243
# 2 -0.002744 0.013936 -0.005209 0.000000 0.000000 -0.000243
# 3 -0.005209 -0.005209 0.014464 0.000000 0.000000 0.000000
# 4 0.000000 0.000000 0.000000 0.033967 0.000000 0.000000
# 5 0.000000 0.000000 0.000000 0.000000 0.033967 0.000000
# 6 0.000243 -0.000243 0.000000 0.000000 0.000000 0.069091
#
#
# Mechanical properties :
#
#
# Convention : Reuss Voigt Hill
#
# Bulk Modulus (GPa) = 62.45528 62.93910 62.69719
# Shear Modulus (GPa) = 23.69413 25.62660 24.66037
#
# Velocity S-wave (km/s) = 3.59215 3.73577 3.66467
# Velocity P-wave (km/s) = 7.15662 7.27213 7.21461
#
# Compressibility (1/GPa) = 0.01601146
#
# Stress axis : x y z
#
# Youngs Moduli (GPa) = 71.75671 71.75671 69.13811
#
# Poissons Ratio (x) = 0.19692 0.36014
# Poissons Ratio (y) = 0.19692 0.36014
# Poissons Ratio (z) = 0.37378 0.37378
#
# Static dielectric constant tensor:
#      x y z
#    x 3.294090 0.000000 0.000000 
#    y 0.000000 3.294090 0.000000 
#    z 0.000000 0.000000 3.513310 
# 
# 
# High freq. dielectric constant tensor:
#      x y z
#    x 1.693470 0.000000 0.000000 
#    y 0.000000 1.693470 0.000000 
#    z 0.000000 0.000000 1.730960 
# 
# From -- ./inp_files/1384.got.cif
#   From: 2010.03.12/outbox.cif.g09.slc.cpg/sg84_1_cif.got.tgz:1384.got - 2010.04.08 20:07:29.
