data_PCOD8303551
_publ_section_title
;
Structure prediction by ZEFSAII (Michael W. Deem and Ramdas Pophale) SiO2 
 PCOD8303551
Probable space group: P 42/N
;
_chemical_formula_sum "Si O2"
_cell_formula_units_Z 48
_cell_length_a 8.099156
_cell_length_b 8.099156
_cell_length_c 33.105072
_cell_angle_alpha 90.000000
_cell_angle_beta 90.000000
_cell_angle_gamma 90.000000
_cell_volume 2171.571158
_symmetry_space_group_name_H-M "P 42/N"
_symmetry_group_IT_number 86
_space_group.IT_coordinate_system_code '2'
_symmetry_cell_setting 'tetragonal'
loop_
_space_group_symop_operation_xyz
x,y,z
-y,1/2+x,1/2+z
1/2-x,1/2-y,z
1/2+y,-x,1/2+z
-x,-y,-z
y,1/2-x,1/2-z
1/2+x,1/2+y,-z
1/2-y,x,1/2-z
loop_
_atom_site_type_symbol
_atom_site_label
_atom_site_fract_x
_atom_site_fract_y
_atom_site_fract_z
Si Si1 0.498908 0.144850 0.256051
Si Si2 0.522489 0.528679 0.840779
Si Si3 0.250000 0.250000 0.387190
Si Si4 0.750000 0.250000 0.196346
Si Si5 0.415235 0.153801 0.583835
Si Si6 0.738393 0.434889 0.473641
Si Si7 0.549064 0.111177 0.058976
O O1 0.339553 0.043412 0.241211
O O2 0.649141 0.120499 0.224686
O O3 0.562133 0.075726 0.299363
O O4 0.689692 0.608594 0.857456
O O5 0.379056 0.659987 0.832322
O O6 0.458016 0.412469 0.876164
O O7 0.315015 0.407499 0.412473
O O8 0.250000 0.250000 0.590133
O O9 0.579844 0.269904 0.579975
O O10 0.394001 0.039185 0.543700
O O11 0.750000 0.250000 0.457281
O O12 0.741713 0.438962 0.522349
O O13 0.568350 0.507560 0.457564
#
# Coordination Sequence:
#
# PCOD8303551 Si02
#       7
#     8   8   4   4   8   8   8
#     4   9  19  39  64  93 121 161 205 250 312 387
#     4  11  22  40  64  94 125 162 200 268 309 380
#     4  12  24  38  63  98 120 164 214 258 325 370
#     4  10  20  40  66  92 122 162 200 248 312 390
#     4  10  23  43  59  90 127 165 211 266 325 369
#     4  10  22  40  62  83 122 170 213 266 314 382
#     4  10  24  38  60  90 121 167 215 265 313 387
#
# _framework density 22.103812999999999
#
# number of rings (size 3 to 8) (size 9 to 14) (size 15 to 20)
#    0.000    1.833    0.000    4.000    8.167    0.667 
#   13.500    0.000    0.000    0.000    0.000    0.000 
#    0.000    0.000    0.000    0.000    0.000    0.000 
#
# Total GULP energy -594888.821393 kJ/mol
# GULP energy per Si atom -12393.517112 kJ/mol
# Density = 2.205350 g / cm^3
# Si number density = 22.103813 Si / 1000 Ang^3
#
#
#
# Elastic Constant Matrix: (Units=GPa)
#
#
# Indices 1 2 3 4 5 6 
#
# 1 84.7201 19.6780 38.0409 0.0000 0.0000 2.5176
# 2 19.6780 84.7201 38.0409 0.0000 0.0000 -2.5176
# 3 38.0409 38.0409 125.4329 0.0000 0.0000 0.0000
# 4 0.0000 0.0000 0.0000 24.5273 0.0000 0.0000
# 5 0.0000 0.0000 0.0000 0.0000 24.5273 0.0000
# 6 2.5176 -2.5176 0.0000 0.0000 0.0000 27.5449
#
#
#
# Elastic Compliance Matrix: (Units=1/GPa)
#
#
# Indices 1 2 3 4 5 6 
#
# 1 0.013890 -0.001594 -0.003729 0.000000 0.000000 -0.001415
# 2 -0.001594 0.013890 -0.003729 0.000000 0.000000 0.001415
# 3 -0.003729 -0.003729 0.010234 0.000000 0.000000 0.000000
# 4 0.000000 0.000000 0.000000 0.040771 0.000000 0.000000
# 5 0.000000 0.000000 0.000000 0.000000 0.040771 0.000000
# 6 -0.001415 0.001415 0.000000 0.000000 0.000000 0.036563
#
#
# Mechanical properties :
#
#
# Convention : Reuss Voigt Hill
#
# Bulk Modulus (GPa) = 50.22512 54.04364 52.13438
# Shear Modulus (GPa) = 27.64549 28.59413 28.11981
#
# Velocity S-wave (km/s) = 3.54038 3.60061 3.57062
# Velocity P-wave (km/s) = 6.28363 6.46443 6.37467
#
# Compressibility (1/GPa) = 0.01991035
#
# Stress axis : x y z
#
# Youngs Moduli (GPa) = 71.99253 71.99253 97.71001
#
# Poissons Ratio (x) = 0.11475 0.36438
# Poissons Ratio (y) = 0.11475 0.36438
# Poissons Ratio (z) = 0.26848 0.26848
#
# Static dielectric constant tensor:
#      x y z
#    x 4.048670 0.000000 0.000000 
#    y 0.000000 4.048670 0.000000 
#    z 0.000000 0.000000 4.244950 
# 
# 
# High freq. dielectric constant tensor:
#      x y z
#    x 1.866350 0.000000 0.000000 
#    y 0.000000 1.866350 0.000000 
#    z 0.000000 0.000000 1.878790 
# 
# From -- ./inp_files/5223.got.cif
#   From: 2010.03.12/outbox.cif.g09.slc.cpg/sg86_3_cif.got.tgz:5223.got - 2010.04.08 20:12:58.
