data_PCOD8303169
_publ_section_title
;
Structure prediction by ZEFSAII (Michael W. Deem and Ramdas Pophale) SiO2 
 PCOD8303169
Probable space group: P 42/M
;
_chemical_formula_sum "Si O2"
_cell_formula_units_Z 56
_cell_length_a 11.020052
_cell_length_b 11.020052
_cell_length_c 23.695375
_cell_angle_alpha 90.000000
_cell_angle_beta 90.000000
_cell_angle_gamma 90.000000
_cell_volume 2877.602975
_symmetry_space_group_name_H-M "P 42/M"
_symmetry_group_IT_number 84
_symmetry_cell_setting 'tetragonal'
loop_
_space_group_symop_operation_xyz
x,y,z
-y,x,1/2+z
-x,-y,z
y,-x,1/2+z
-x,-y,-z
y,-x,1/2-z
x,y,-z
-y,x,1/2-z
loop_
_atom_site_type_symbol
_atom_site_label
_atom_site_fract_x
_atom_site_fract_y
_atom_site_fract_z
Si Si1 0.611130 0.092410 0.333659
Si Si2 0.312519 0.064709 0.136841
Si Si3 0.987459 0.190662 0.749643
Si Si4 0.266810 0.785783 0.564959
Si Si5 0.424213 0.822011 0.859599
Si Si6 0.481538 0.369364 0.936059
Si Si7 0.563031 0.309043 0.747167
O O1 0.714017 0.027994 0.296648
O O2 0.661827 0.117039 0.396696
O O3 0.569819 0.222148 0.307519
O O4 0.500000 0.000000 0.338264
O O5 0.231981 0.130118 0.088907
O O6 0.442833 0.123449 0.143586
O O7 0.253167 0.080577 0.197695
O O8 0.326886 0.922939 0.121238
O O9 0.886283 0.100485 0.775356
O O10 0.261236 0.831164 0.500000
O O11 0.333199 0.657495 0.569444
O O12 0.422778 0.717761 0.905950
O O13 0.385954 0.769992 0.798956
O O14 0.500000 0.500000 0.907089
O O15 0.525900 0.372808 0.000000
O O16 0.425721 0.350825 0.761245
#
# Coordination Sequence:
#
# PCOD8303169 Si02
#       7
#     8   8   8   8   8   8   8
#     4  12  25  39  64  93 125 163 208 254 310 379
#     4  10  19  37  57  86 115 154 205 256 305 356
#     4  11  23  40  63  87 121 160 204 253 310 366
#     4  10  22  41  63  85 120 164 210 261 303 363
#     4  10  20  31  56  85 121 156 197 254 304 362
#     4   9  19  35  56  83 120 164 206 247 301 370
#     4  11  24  36  56  90 128 165 196 246 318 381
#
# _framework density 19.460640000000001
#
# number of rings (size 3 to 8) (size 9 to 14) (size 15 to 20)
#    0.000    1.571    2.857    2.571    6.000    0.857 
#    0.000    2.857    0.000    1.714    0.000    0.000 
#    0.000    0.000    0.000    0.000    0.000    0.000 
#
# Total GULP energy -694334.523935 kJ/mol
# GULP energy per Si atom -12398.830785 kJ/mol
# Density = 1.941635 g / cm^3
# Si number density = 19.460640 Si / 1000 Ang^3
#
#
#
# Elastic Constant Matrix: (Units=GPa)
#
#
# Indices 1 2 3 4 5 6 
#
# 1 93.9423 36.8062 49.8751 0.0000 0.0000 -3.8366
# 2 36.8062 93.9423 49.8751 0.0000 0.0000 3.8366
# 3 49.8751 49.8751 130.9976 0.0000 0.0000 0.0000
# 4 0.0000 0.0000 0.0000 28.2818 0.0000 0.0000
# 5 0.0000 0.0000 0.0000 0.0000 28.2818 0.0000
# 6 -3.8366 3.8366 0.0000 0.0000 0.0000 18.9929
#
#
#
# Elastic Compliance Matrix: (Units=1/GPa)
#
#
# Indices 1 2 3 4 5 6 
#
# 1 0.014385 -0.003605 -0.004104 0.000000 0.000000 0.003634
# 2 -0.003605 0.014385 -0.004104 0.000000 0.000000 -0.003634
# 3 -0.004104 -0.004104 0.010759 0.000000 0.000000 0.000000
# 4 0.000000 0.000000 0.000000 0.035358 0.000000 0.000000
# 5 0.000000 0.000000 0.000000 0.000000 0.035358 0.000000
# 6 0.003634 -0.003634 0.000000 0.000000 0.000000 0.054119
#
#
# Mechanical properties :
#
#
# Convention : Reuss Voigt Hill
#
# Bulk Modulus (GPa) = 62.88803 65.77724 64.33263
# Shear Modulus (GPa) = 25.86760 27.26634 26.56697
#
# Velocity S-wave (km/s) = 3.64981 3.74719 3.69882
# Velocity P-wave (km/s) = 7.08147 7.25227 7.16738
#
# Compressibility (1/GPa) = 0.01590128
#
# Stress axis : x y z
#
# Youngs Moduli (GPa) = 69.51825 69.51825 92.94703
#
# Poissons Ratio (x) = 0.25064 0.38146
# Poissons Ratio (y) = 0.25064 0.38146
# Poissons Ratio (z) = 0.28531 0.28531
#
# Static dielectric constant tensor:
#      x y z
#    x 3.740810 0.000000 0.000000 
#    y 0.000000 3.740810 0.000000 
#    z 0.000000 0.000000 3.543740 
# 
# 
# High freq. dielectric constant tensor:
#      x y z
#    x 1.758970 0.000000 0.000000 
#    y 0.000000 1.758970 0.000000 
#    z 0.000000 0.000000 1.745340 
# 
# From -- ./inp_files/4518.got.cif
#   From: 2010.03.12/outbox.cif.g09.slc.cpg/sg84_3_cif.got.tgz:4518.got - 2010.04.08 20:07:29.
