data_PCOD8303280
_publ_section_title
;
Structure prediction by ZEFSAII (Michael W. Deem and Ramdas Pophale) SiO2 
 PCOD8303280
Probable space group: P 42/M
;
_chemical_formula_sum "Si O2"
_cell_formula_units_Z 34
_cell_length_a 9.438827
_cell_length_b 9.438827
_cell_length_c 19.481115
_cell_angle_alpha 90.000000
_cell_angle_beta 90.000000
_cell_angle_gamma 90.000000
_cell_volume 1735.600883
_symmetry_space_group_name_H-M "P 42/M"
_symmetry_group_IT_number 84
_symmetry_cell_setting 'tetragonal'
loop_
_space_group_symop_operation_xyz
x,y,z
-y,x,1/2+z
-x,-y,z
y,-x,1/2+z
-x,-y,-z
y,-x,1/2-z
x,y,-z
-y,x,1/2-z
loop_
_atom_site_type_symbol
_atom_site_label
_atom_site_fract_x
_atom_site_fract_y
_atom_site_fract_z
Si Si1 0.903210 0.126150 0.577585
Si Si2 0.298405 0.256027 0.699490
Si Si3 0.500000 0.500000 0.250000
Si Si4 0.935300 0.356841 0.077859
Si Si5 0.983261 0.343434 0.309934
O O1 0.948762 0.168158 0.500000
O O2 0.919905 0.258738 0.626503
O O3 0.744510 0.070758 0.580535
O O4 0.000000 0.000000 0.606172
O O5 0.400983 0.393628 0.705482
O O6 0.306359 0.200097 0.621436
O O7 0.135213 0.289515 0.717224
O O8 0.345488 0.127907 0.748030
O O9 0.000000 0.500000 0.108515
O O10 0.879593 0.374164 0.000000
O O11 0.000000 0.500000 0.339250
#
# Coordination Sequence:
#
# PCOD8303280 Si02
#       5
#     8   8   2   8   8
#     4  10  21  40  63  92 126 160 207 262 309 362
#     4  12  25  43  64  93 127 164 212 262 311 377
#     4  12  28  44  62  88 136 168 196 266 324 368
#     4  10  22  40  67  96 126 166 209 258 314 373
#     4  12  25  39  62  93 123 166 212 257 318 371
#
# _framework density 19.589756000000001
#
# number of rings (size 3 to 8) (size 9 to 14) (size 15 to 20)
#    0.000    0.941    4.706    2.118    3.294    0.471 
#    0.000    0.588    0.000    0.000    0.000    0.000 
#    0.000    0.000    0.000    0.000    0.000    0.000 
#
# Total GULP energy -421623.839674 kJ/mol
# GULP energy per Si atom -12400.701167 kJ/mol
# Density = 1.954517 g / cm^3
# Si number density = 19.589756 Si / 1000 Ang^3
#
#
#
# Elastic Constant Matrix: (Units=GPa)
#
#
# Indices 1 2 3 4 5 6 
#
# 1 119.6551 32.1808 37.5591 0.0000 0.0000 -8.7588
# 2 32.1808 119.6551 37.5591 0.0000 0.0000 8.7588
# 3 37.5591 37.5591 88.9693 0.0000 0.0000 0.0000
# 4 0.0000 0.0000 0.0000 10.4537 0.0000 0.0000
# 5 0.0000 0.0000 0.0000 0.0000 10.4537 0.0000
# 6 -8.7588 8.7588 0.0000 0.0000 0.0000 34.9430
#
#
#
# Elastic Compliance Matrix: (Units=1/GPa)
#
#
# Indices 1 2 3 4 5 6 
#
# 1 0.010180 -0.001856 -0.003514 0.000000 0.000000 0.003017
# 2 -0.001856 0.010180 -0.003514 0.000000 0.000000 -0.003017
# 3 -0.003514 -0.003514 0.014207 0.000000 0.000000 0.000000
# 4 0.000000 0.000000 0.000000 0.095660 0.000000 0.000000
# 5 0.000000 0.000000 0.000000 0.000000 0.095660 0.000000
# 6 0.003017 -0.003017 0.000000 0.000000 0.000000 0.030130
#
#
# Mechanical properties :
#
#
# Convention : Reuss Voigt Hill
#
# Bulk Modulus (GPa) = 59.52697 60.31971 59.92334
# Shear Modulus (GPa) = 17.89640 25.90213 21.89927
#
# Velocity S-wave (km/s) = 3.02579 3.64019 3.34712
# Velocity P-wave (km/s) = 6.53146 6.96608 6.75227
#
# Compressibility (1/GPa) = 0.01679911
#
# Stress axis : x y z
#
# Youngs Moduli (GPa) = 98.22783 98.22783 70.38756
#
# Poissons Ratio (x) = 0.18228 0.24737
# Poissons Ratio (y) = 0.18228 0.24737
# Poissons Ratio (z) = 0.34521 0.34521
#
# Static dielectric constant tensor:
#      x y z
#    x 3.772520 0.000000 0.000000 
#    y 0.000000 3.772520 0.000000 
#    z 0.000000 0.000000 3.503640 
# 
# 
# High freq. dielectric constant tensor:
#      x y z
#    x 1.771570 0.000000 0.000000 
#    y 0.000000 1.771570 0.000000 
#    z 0.000000 0.000000 1.757950 
# 
# From -- ./inp_files/4228.got.cif
#   From: 2010.03.12/outbox.cif.g09.slc.cpg/sg84_3_cif.got.tgz:4228.got - 2010.04.08 20:07:29.
