data_PCOD8303687
_publ_section_title
;
Structure prediction by ZEFSAII (Michael W. Deem and Ramdas Pophale) SiO2 
 PCOD8303687
Probable space group: P 42/N
;
_chemical_formula_sum "Si O2"
_cell_formula_units_Z 40
_cell_length_a 19.577043
_cell_length_b 19.577043
_cell_length_c 4.898762
_cell_angle_alpha 90.000000
_cell_angle_beta 90.000000
_cell_angle_gamma 90.000000
_cell_volume 1877.502525
_symmetry_space_group_name_H-M "P 42/N"
_symmetry_group_IT_number 86
_space_group.IT_coordinate_system_code '2'
_symmetry_cell_setting 'tetragonal'
loop_
_space_group_symop_operation_xyz
x,y,z
-y,1/2+x,1/2+z
1/2-x,1/2-y,z
1/2+y,-x,1/2+z
-x,-y,-z
y,1/2-x,1/2-z
1/2+x,1/2+y,-z
1/2-y,x,1/2-z
loop_
_atom_site_type_symbol
_atom_site_label
_atom_site_fract_x
_atom_site_fract_y
_atom_site_fract_z
Si Si1 0.817664 0.561543 0.829845
Si Si2 0.858685 0.371849 0.553258
Si Si3 0.647428 0.713677 0.181059
Si Si4 0.912976 0.222980 0.505879
Si Si5 0.993224 0.049172 0.244267
O O1 0.778938 0.612849 0.618842
O O2 0.896053 0.554503 0.736742
O O3 0.821301 0.592056 0.129877
O O4 0.782400 0.488036 0.869105
O O5 0.900652 0.302585 0.539566
O O6 0.825455 0.402273 0.273647
O O7 0.910138 0.422710 0.710708
O O8 0.798557 0.359049 0.771965
O O9 0.665834 0.786139 0.318173
O O10 0.000000 0.000000 0.500000
O O11 0.000000 0.000000 0.000000
#
# Coordination Sequence:
#
# PCOD8303687 Si02
#       5
#     8   8   8   8   8
#     4  11  23  42  64  92 126 163 209 261 315 380
#     4  11  24  42  64  95 130 169 217 268 322 387
#     4  11  24  42  64  92 125 162 209 263 318 380
#     4  11  24  42  65  95 131 169 215 268 322 387
#     4  11  23  41  63  90 125 162 206 257 310 372
#
# _framework density 21.304898999999999
#
# number of rings (size 3 to 8) (size 9 to 14) (size 15 to 20)
#    0.000    1.000    0.000    8.400    0.000    8.800 
#    0.000    4.000    0.000    0.000    0.000    0.000 
#    0.000    0.000    0.000    0.000    0.000    0.000 
#
# Total GULP energy -495603.467835 kJ/mol
# GULP energy per Si atom -12390.086696 kJ/mol
# Density = 2.125641 g / cm^3
# Si number density = 21.304899 Si / 1000 Ang^3
#
#
#
# Elastic Constant Matrix: (Units=GPa)
#
#
# Indices 1 2 3 4 5 6 
#
# 1 110.5600 44.4372 39.1250 0.0000 0.0000 6.4679
# 2 44.4372 110.5600 39.1250 0.0000 0.0000 -6.4679
# 3 39.1250 39.1250 141.7541 0.0000 0.0000 0.0000
# 4 0.0000 0.0000 0.0000 43.7628 0.0000 0.0000
# 5 0.0000 0.0000 0.0000 0.0000 43.7628 0.0000
# 6 6.4679 -6.4679 0.0000 0.0000 0.0000 21.8235
#
#
#
# Elastic Compliance Matrix: (Units=1/GPa)
#
#
# Indices 1 2 3 4 5 6 
#
# 1 0.011775 -0.004279 -0.002069 0.000000 0.000000 -0.004758
# 2 -0.004279 0.011775 -0.002069 0.000000 0.000000 0.004758
# 3 -0.002069 -0.002069 0.008197 0.000000 0.000000 0.000000
# 4 0.000000 0.000000 0.000000 0.022850 0.000000 0.000000
# 5 0.000000 0.000000 0.000000 0.000000 0.022850 0.000000
# 6 -0.004758 0.004758 0.000000 0.000000 0.000000 0.048643
#
#
# Mechanical properties :
#
#
# Convention : Reuss Voigt Hill
#
# Bulk Modulus (GPa) = 67.05533 67.58320 67.31926
# Shear Modulus (GPa) = 33.80764 37.88226 35.84495
#
# Velocity S-wave (km/s) = 3.98785 4.22133 4.10625
# Velocity P-wave (km/s) = 7.26267 7.45320 7.35855
#
# Compressibility (1/GPa) = 0.01491306
#
# Stress axis : x y z
#
# Youngs Moduli (GPa) = 84.92393 84.92393 122.00195
#
# Poissons Ratio (x) = 0.36339 0.25242
# Poissons Ratio (y) = 0.36339 0.25242
# Poissons Ratio (z) = 0.17571 0.17571
#
# Static dielectric constant tensor:
#      x y z
#    x 3.951390 0.000000 0.000000 
#    y 0.000000 3.951390 0.000000 
#    z 0.000000 0.000000 4.080290 
# 
# 
# High freq. dielectric constant tensor:
#      x y z
#    x 1.839710 0.000000 0.000000 
#    y 0.000000 1.839710 0.000000 
#    z 0.000000 0.000000 1.858520 
# 
# From -- ./inp_files/313.got.cif
#   From: 2010.03.12/outbox.cif.g09.slc.cpg/sg86_1_cif.got.tgz:313.got - 2010.04.08 20:12:58.
