data_PCOD8303156
_publ_section_title
;
Structure prediction by ZEFSAII (Michael W. Deem and Ramdas Pophale) SiO2 
 PCOD8303156
Probable space group: P 42/M
;
_chemical_formula_sum "Si O2"
_cell_formula_units_Z 58
_cell_length_a 17.227259
_cell_length_b 17.227259
_cell_length_c 9.068168
_cell_angle_alpha 90.000000
_cell_angle_beta 90.000000
_cell_angle_gamma 90.000000
_cell_volume 2691.236867
_symmetry_space_group_name_H-M "P 42/M"
_symmetry_group_IT_number 84
_symmetry_cell_setting 'tetragonal'
loop_
_space_group_symop_operation_xyz
x,y,z
-y,x,1/2+z
-x,-y,z
y,-x,1/2+z
-x,-y,-z
y,-x,1/2-z
x,y,-z
-y,x,1/2-z
loop_
_atom_site_type_symbol
_atom_site_label
_atom_site_fract_x
_atom_site_fract_y
_atom_site_fract_z
Si Si1 0.054107 0.330861 0.328958
Si Si2 0.394649 0.107463 0.827051
Si Si3 0.593785 0.351062 0.834138
Si Si4 0.185588 0.454958 0.329985
Si Si5 0.688277 0.739476 0.832192
Si Si6 0.145514 0.211046 0.171605
Si Si7 0.089055 0.072113 0.322627
Si Si8 0.500000 0.500000 0.750000
O O1 0.042451 0.307134 0.500000
O O2 0.130777 0.381819 0.308895
O O3 0.069096 0.255145 0.230386
O O4 0.976874 0.371669 0.262900
O O5 0.473571 0.140295 0.753258
O O6 0.330276 0.171698 0.789817
O O7 0.407258 0.094242 0.000000
O O8 0.555932 0.272785 0.761597
O O9 0.676287 0.363765 0.754000
O O10 0.538398 0.427373 0.836212
O O11 0.615701 0.331007 0.000000
O O12 0.198107 0.476610 0.500000
O O13 0.780137 0.732974 0.802773
O O14 0.665637 0.723594 0.000000
O O15 0.154949 0.132553 0.268675
O O16 0.136195 0.189479 0.000000
O O17 0.085037 0.064744 0.500000
O O18 0.009656 0.106278 0.253669
#
# Coordination Sequence:
#
# PCOD8303156 Si02
#       8
#     8   8   8   8   8   8   8   2
#     4  10  19  34  60  88 114 153 201 253 309 369
#     4   9  18  33  57  88 115 148 195 250 309 370
#     4  11  23  41  64  91 124 162 209 257 315 386
#     4   9  17  33  58  88 118 147 193 253 307 370
#     4  10  22  40  61  86 123 164 206 257 314 373
#     4  11  23  38  57  86 123 166 210 255 309 370
#     4  11  23  41  64  92 127 167 212 263 315 371
#     4  12  26  40  64  98 130 164 208 266 326 392
#
# _framework density 21.55143
#
# number of rings (size 3 to 8) (size 9 to 14) (size 15 to 20)
#    0.000    1.793    1.379    3.517    1.931    4.414 
#    0.000    0.690    0.000    2.483    0.000    0.000 
#    0.000    0.000    0.000    0.000    0.000    0.000 
#
# Total GULP energy -718649.047972 kJ/mol
# GULP energy per Si atom -12390.500827 kJ/mol
# Density = 2.150238 g / cm^3
# Si number density = 21.551430 Si / 1000 Ang^3
#
#
#
# Elastic Constant Matrix: (Units=GPa)
#
#
# Indices 1 2 3 4 5 6 
#
# 1 101.6936 20.7525 29.3943 0.0000 0.0000 -4.6772
# 2 20.7525 101.6936 29.3943 0.0000 0.0000 4.6772
# 3 29.3943 29.3943 80.1730 0.0000 0.0000 0.0000
# 4 0.0000 0.0000 0.0000 23.0809 0.0000 0.0000
# 5 0.0000 0.0000 0.0000 0.0000 23.0809 0.0000
# 6 -4.6772 4.6772 0.0000 0.0000 0.0000 25.4839
#
#
#
# Elastic Compliance Matrix: (Units=1/GPa)
#
#
# Indices 1 2 3 4 5 6 
#
# 1 0.011267 -0.001355 -0.003634 0.000000 0.000000 0.002317
# 2 -0.001355 0.011267 -0.003634 0.000000 0.000000 -0.002317
# 3 -0.003634 -0.003634 0.015138 0.000000 0.000000 0.000000
# 4 0.000000 0.000000 0.000000 0.043326 0.000000 0.000000
# 5 0.000000 0.000000 0.000000 0.000000 0.043326 0.000000
# 6 0.002317 -0.002317 0.000000 0.000000 0.000000 0.040091
#
#
# Mechanical properties :
#
#
# Convention : Reuss Voigt Hill
#
# Bulk Modulus (GPa) = 48.95938 49.18247 49.07092
# Shear Modulus (GPa) = 26.52955 27.93042 27.22999
#
# Velocity S-wave (km/s) = 3.51235 3.60389 3.55841
# Velocity P-wave (km/s) = 6.26223 6.33939 6.30093
#
# Compressibility (1/GPa) = 0.02042510
#
# Stress axis : x y z
#
# Youngs Moduli (GPa) = 88.75483 88.75483 66.06027
#
# Poissons Ratio (x) = 0.12030 0.24006
# Poissons Ratio (y) = 0.12030 0.24006
# Poissons Ratio (z) = 0.32253 0.32253
#
# Static dielectric constant tensor:
#      x y z
#    x 4.043010 0.000000 0.000000 
#    y 0.000000 4.043010 0.000000 
#    z 0.000000 0.000000 3.429580 
# 
# 
# High freq. dielectric constant tensor:
#      x y z
#    x 1.857390 0.000000 0.000000 
#    y 0.000000 1.857390 0.000000 
#    z 0.000000 0.000000 1.798700 
# 
# From -- ./inp_files/1185.got.cif
#   From: 2010.03.12/outbox.cif.g09.slc.cpg/sg84_1_cif.got.tgz:1185.got - 2010.04.08 20:07:29.
