data_PCOD8303018
_publ_section_title
;
Structure prediction by ZEFSAII (Michael W. Deem and Ramdas Pophale) SiO2 
 PCOD8303018
Probable space group: P 4/M
;
_chemical_formula_sum "Si O2"
_cell_formula_units_Z 36
_cell_length_a 10.885129
_cell_length_b 10.885129
_cell_length_c 18.567558
_cell_angle_alpha 90.000000
_cell_angle_beta 90.000000
_cell_angle_gamma 90.000000
_cell_volume 2199.996296
_symmetry_space_group_name_H-M "P 4/M"
_symmetry_group_IT_number 83
_symmetry_cell_setting 'tetragonal'
loop_
_space_group_symop_operation_xyz
x,y,z
-y,x,z
-x,-y,z
y,-x,z
-x,-y,-z
y,-x,-z
x,y,-z
-y,x,-z
loop_
_atom_site_type_symbol
_atom_site_label
_atom_site_fract_x
_atom_site_fract_y
_atom_site_fract_z
Si Si1 0.512942 0.297517 0.424068
Si Si2 0.183888 0.923201 0.916321
Si Si3 0.702901 0.503994 0.000000
Si Si4 0.556433 0.133127 0.134040
Si Si5 0.296125 0.486832 0.732054
O O1 0.627361 0.387953 0.424819
O O2 0.518062 0.218482 0.500000
O O3 0.517471 0.227951 0.346940
O O4 0.296005 0.873755 0.869171
O O5 0.065211 0.841936 0.897659
O O6 0.218914 0.910292 0.000000
O O7 0.619313 0.624169 0.000000
O O8 0.784436 0.500370 0.071100
O O9 0.517798 0.188601 0.210191
O O10 0.500000 0.000000 0.124991
O O11 0.387633 0.372097 0.741829
#
# Coordination Sequence:
#
# PCOD8303018 Si02
#       5
#     8   8   4   8   8
#     4   7  10  20  42  69  93 121 157 188 225 286
#     4   9  20  37  54  68  86 119 163 212 248 269
#     4  11  25  40  54  71  96 128 160 199 251 298
#     4  12  24  32  51  72  97 127 164 199 234 285
#     4   9  18  32  48  70 102 132 154 193 247 289
#
# _framework density 16.363665000000001
#
# number of rings (size 3 to 8) (size 9 to 14) (size 15 to 20)
#    0.000    2.556    1.111    4.333    6.222    1.778 
#    0.000    0.000    0.000    0.667    0.000    0.000 
#    0.000    0.000    0.000    2.444    0.000    0.000 
#
# Total GULP energy -446021.865233 kJ/mol
# GULP energy per Si atom -12389.496256 kJ/mol
# Density = 1.632642 g / cm^3
# Si number density = 16.363665 Si / 1000 Ang^3
#
#
#
# Elastic Constant Matrix: (Units=GPa)
#
#
# Indices 1 2 3 4 5 6 
#
# 1 58.7092 16.6371 41.1762 0.0000 0.0000 -2.3758
# 2 16.6371 58.7092 41.1762 0.0000 0.0000 2.3758
# 3 41.1762 41.1762 154.3694 0.0000 0.0000 0.0000
# 4 0.0000 0.0000 0.0000 -10.6452 0.0000 0.0000
# 5 0.0000 0.0000 0.0000 0.0000 -10.6452 0.0000
# 6 -2.3758 2.3758 0.0000 0.0000 0.0000 13.2418
#
#
#
# Elastic Compliance Matrix: (Units=1/GPa)
#
#
# Indices 1 2 3 4 5 6 
#
# 1 0.021497 -0.002763 -0.004997 0.000000 0.000000 0.004353
# 2 -0.002763 0.021497 -0.004997 0.000000 0.000000 -0.004353
# 3 -0.004997 -0.004997 0.009144 0.000000 0.000000 0.000000
# 4 0.000000 0.000000 0.000000 -0.093939 0.000000 0.000000
# 5 0.000000 0.000000 0.000000 0.000000 -0.093939 0.000000
# 6 0.004353 -0.004353 0.000000 0.000000 0.000000 0.077080
#
#
# Mechanical properties :
#
#
# Convention : Reuss Voigt Hill
#
# Bulk Modulus (GPa) = 37.56127 52.19631 44.87879
# Shear Modulus (GPa) = -206.00160 9.91017 -98.04571
#
# Velocity S-wave (km/s) = -11.23223 2.46361 -7.74899
# Velocity P-wave (km/s) = 12.05045 6.32925 7.25100
#
# Compressibility (1/GPa) = 0.02662317
#
# Stress axis : x y z
#
# Youngs Moduli (GPa) = 46.51813 46.51813 109.36438
#
# Poissons Ratio (x) = 0.12854 0.54649
# Poissons Ratio (y) = 0.12854 0.54649
# Poissons Ratio (z) = 0.23245 0.23245
#
# Static dielectric constant tensor:
#      x y z
#    x 2.887810 0.000000 0.000000 
#    y 0.000000 2.887810 0.000000 
#    z 0.000000 0.000000 3.518920 
# 
# 
# High freq. dielectric constant tensor:
#      x y z
#    x 1.605920 0.000000 0.000000 
#    y 0.000000 1.605920 0.000000 
#    z 0.000000 0.000000 1.635470 
# 
# From -- ./inp_files/2561.got.cif
#   From: 2010.03.12/outbox.cif.g09.slc.cpg/sg83_2_cif.got.tgz:2561.got - 2010.04.08 20:05:18.
