data_PCOD8303701
_publ_section_title
;
Structure prediction by ZEFSAII (Michael W. Deem and Ramdas Pophale) SiO2 
 PCOD8303701
Probable space group: P 42/N
;
_chemical_formula_sum "Si O2"
_cell_formula_units_Z 20
_cell_length_a 9.583850
_cell_length_b 9.583850
_cell_length_c 8.212230
_cell_angle_alpha 90.000000
_cell_angle_beta 90.000000
_cell_angle_gamma 90.000000
_cell_volume 754.294810
_symmetry_space_group_name_H-M "P 42/N"
_symmetry_group_IT_number 86
_space_group.IT_coordinate_system_code '2'
_symmetry_cell_setting 'tetragonal'
loop_
_space_group_symop_operation_xyz
x,y,z
-y,1/2+x,1/2+z
1/2-x,1/2-y,z
1/2+y,-x,1/2+z
-x,-y,-z
y,1/2-x,1/2-z
1/2+x,1/2+y,-z
1/2-y,x,1/2-z
loop_
_atom_site_type_symbol
_atom_site_label
_atom_site_fract_x
_atom_site_fract_y
_atom_site_fract_z
Si Si1 0.787186 0.455091 0.302187
Si Si2 0.535617 0.284004 0.423860
Si Si3 0.750000 0.750000 0.250000
Si Si4 0.750000 0.750000 0.750000
O O1 0.633651 0.391044 0.325265
O O2 0.904543 0.372050 0.400354
O O3 0.791986 0.616898 0.363129
O O4 0.825498 0.456550 0.111869
O O5 0.378713 0.298990 0.361408
#
# Coordination Sequence:
#
# PCOD8303701 Si02
#       4
#     8   8   2   2
#     4  11  25  45  68  96 132 173 217 267 324 386
#     4  11  25  45  68  96 132 173 217 267 324 386
#     4  12  26  40  68 102 130 168 220 270 322 384
#     4  12  26  40  68 102 130 168 220 270 322 384
#
# _framework density 26.514828999999999
#
# number of rings (size 3 to 8) (size 9 to 14) (size 15 to 20)
#    0.000    0.800    0.000    8.400    0.000   19.200 
#    0.000    0.000    0.000    0.000    0.000    0.000 
#    0.000    0.000    0.000    0.000    0.000    0.000 
#
# Total GULP energy -248098.693755 kJ/mol
# GULP energy per Si atom -12404.934688 kJ/mol
# Density = 2.645448 g / cm^3
# Si number density = 26.514829 Si / 1000 Ang^3
#
#
#
# Elastic Constant Matrix: (Units=GPa)
#
#
# Indices 1 2 3 4 5 6 
#
# 1 121.5720 -28.4546 -14.8272 0.0000 0.0000 -2.2677
# 2 -28.4546 121.5720 -14.8272 0.0000 0.0000 2.2677
# 3 -14.8272 -14.8272 96.2100 0.0000 0.0000 0.0000
# 4 0.0000 0.0000 0.0000 16.5331 0.0000 0.0000
# 5 0.0000 0.0000 0.0000 0.0000 16.5331 0.0000
# 6 -2.2677 2.2677 0.0000 0.0000 0.0000 20.6112
#
#
#
# Elastic Compliance Matrix: (Units=1/GPa)
#
#
# Indices 1 2 3 4 5 6 
#
# 1 0.008991 0.002303 0.001740 0.000000 0.000000 0.000736
# 2 0.002303 0.008991 0.001740 0.000000 0.000000 -0.000736
# 3 0.001740 0.001740 0.010930 0.000000 0.000000 0.000000
# 4 0.000000 0.000000 0.000000 0.060485 0.000000 0.000000
# 5 0.000000 0.000000 0.000000 0.000000 0.060485 0.000000
# 6 0.000736 -0.000736 0.000000 0.000000 0.000000 0.048679
#
#
# Mechanical properties :
#
#
# Convention : Reuss Voigt Hill
#
# Bulk Modulus (GPa) = 24.70415 24.79289 24.74852
# Shear Modulus (GPa) = 24.93941 37.23299 31.08620
#
# Velocity S-wave (km/s) = 3.07022 3.75137 3.42776
# Velocity P-wave (km/s) = 4.68035 5.30421 5.00201
#
# Compressibility (1/GPa) = 0.04047903
#
# Stress axis : x y z
#
# Youngs Moduli (GPa) = 111.22771 111.22771 91.48805
#
# Poissons Ratio (x) = -0.25614 -0.15923
# Poissons Ratio (y) = -0.25614 -0.15923
# Poissons Ratio (z) = -0.19359 -0.19359
#
# Static dielectric constant tensor:
#      x y z
#    x 5.202340 0.000000 0.000000 
#    y 0.000000 5.202340 0.000000 
#    z 0.000000 0.000000 4.519070 
# 
# 
# High freq. dielectric constant tensor:
#      x y z
#    x 2.081810 0.000000 0.000000 
#    y 0.000000 2.081810 0.000000 
#    z 0.000000 0.000000 2.050820 
# 
# From -- ./inp_files/655.got.cif
#   From: 2010.03.12/outbox.cif.g09.slc.cpg/sg86_1_cif.got.tgz:655.got - 2010.04.08 20:12:58.
