data_PCOD8303234
_publ_section_title
;
Structure prediction by ZEFSAII (Michael W. Deem and Ramdas Pophale) SiO2 
 PCOD8303234
Probable space group: P 42/M
;
_chemical_formula_sum "Si O2"
_cell_formula_units_Z 34
_cell_length_a 9.416353
_cell_length_b 9.416353
_cell_length_c 18.518070
_cell_angle_alpha 90.000000
_cell_angle_beta 90.000000
_cell_angle_gamma 90.000000
_cell_volume 1641.954746
_symmetry_space_group_name_H-M "P 42/M"
_symmetry_group_IT_number 84
_symmetry_cell_setting 'tetragonal'
loop_
_space_group_symop_operation_xyz
x,y,z
-y,x,1/2+z
-x,-y,z
y,-x,1/2+z
-x,-y,-z
y,-x,1/2-z
x,y,-z
-y,x,1/2-z
loop_
_atom_site_type_symbol
_atom_site_label
_atom_site_fract_x
_atom_site_fract_y
_atom_site_fract_z
Si Si1 0.221388 0.055772 0.752811
Si Si2 0.854868 0.414268 0.500000
Si Si3 0.360699 0.934693 0.380425
Si Si4 0.633442 0.722351 0.147341
Si Si5 0.914543 0.859385 0.000000
Si Si6 0.500000 0.500000 0.250000
O O1 0.304479 0.132245 0.817971
O O2 0.095075 0.155718 0.721640
O O3 0.337312 0.025171 0.691920
O O4 0.762688 0.447368 0.572544
O O5 0.895989 0.250154 0.500000
O O6 0.000000 0.500000 0.500000
O O7 0.382304 0.766223 0.368006
O O8 0.224971 0.960033 0.429433
O O9 0.500000 0.000000 0.418053
O O10 0.526235 0.639023 0.200304
O O11 0.000000 0.000000 0.000000
#
# Coordination Sequence:
#
# PCOD8303234 Si02
#       6
#     8   4   8   8   4   2
#     4   9  19  34  60  90 121 157 206 267 327 377
#     4  10  24  44  63  92 129 168 214 268 326 395
#     4  10  20  37  60  89 123 161 206 264 326 377
#     4  10  23  40  61  89 130 163 220 266 314 393
#     4  10  23  39  63  92 128 162 213 269 317 383
#     4  12  24  42  60  88 124 178 216 264 324 382
#
# _framework density 20.707025999999999
#
# number of rings (size 3 to 8) (size 9 to 14) (size 15 to 20)
#    0.000    2.118    0.000    1.765    9.882    5.176 
#    4.235    0.000    0.000    0.000    0.000    0.000 
#    0.000    0.000    0.000    0.000    0.000    0.000 
#
# Total GULP energy -421549.357525 kJ/mol
# GULP energy per Si atom -12398.510515 kJ/mol
# Density = 2.065990 g / cm^3
# Si number density = 20.707026 Si / 1000 Ang^3
#
#
#
# Elastic Constant Matrix: (Units=GPa)
#
#
# Indices 1 2 3 4 5 6 
#
# 1 85.7114 50.5351 47.6598 0.0000 0.0000 2.8550
# 2 50.5351 85.7114 47.6598 0.0000 0.0000 -2.8550
# 3 47.6598 47.6598 126.5267 0.0000 0.0000 0.0000
# 4 0.0000 0.0000 0.0000 69.8752 0.0000 0.0000
# 5 0.0000 0.0000 0.0000 0.0000 69.8752 0.0000
# 6 2.8550 -2.8550 0.0000 0.0000 0.0000 36.1564
#
#
#
# Elastic Compliance Matrix: (Units=1/GPa)
#
#
# Indices 1 2 3 4 5 6 
#
# 1 0.019382 -0.009416 -0.003754 0.000000 0.000000 -0.002274
# 2 -0.009416 0.019382 -0.003754 0.000000 0.000000 0.002274
# 3 -0.003754 -0.003754 0.010732 0.000000 0.000000 0.000000
# 4 0.000000 0.000000 0.000000 0.014311 0.000000 0.000000
# 5 0.000000 0.000000 0.000000 0.000000 0.014311 0.000000
# 6 -0.002274 0.002274 0.000000 0.000000 0.000000 0.028017
#
#
# Mechanical properties :
#
#
# Convention : Reuss Voigt Hill
#
# Bulk Modulus (GPa) = 63.90748 65.51765 64.71257
# Shear Modulus (GPa) = 34.43597 45.32103 39.87850
#
# Velocity S-wave (km/s) = 4.08242 4.68341 4.39320
# Velocity P-wave (km/s) = 7.29049 7.80735 7.55334
#
# Compressibility (1/GPa) = 0.01564762
#
# Stress axis : x y z
#
# Youngs Moduli (GPa) = 51.59522 51.59522 93.18341
#
# Poissons Ratio (x) = 0.48580 0.34981
# Poissons Ratio (y) = 0.48580 0.34981
# Poissons Ratio (z) = 0.19369 0.19369
#
# Static dielectric constant tensor:
#      x y z
#    x 3.657870 0.000000 0.000000 
#    y 0.000000 3.657870 0.000000 
#    z 0.000000 0.000000 3.968770 
# 
# 
# High freq. dielectric constant tensor:
#      x y z
#    x 1.803490 0.000000 0.000000 
#    y 0.000000 1.803490 0.000000 
#    z 0.000000 0.000000 1.814410 
# 
# From -- ./inp_files/4294.got.cif
#   From: 2010.03.12/outbox.cif.g09.slc.cpg/sg84_3_cif.got.tgz:4294.got - 2010.04.08 20:07:29.
