data_PCOD8303913
_publ_section_title
;
Structure prediction by ZEFSAII (Michael W. Deem and Ramdas Pophale) SiO2 
 PCOD8303913
Probable space group: I 4/M
;
_chemical_formula_sum "Si O2"
_cell_formula_units_Z 96
_cell_length_a 23.140084
_cell_length_b 23.140084
_cell_length_c 9.563280
_cell_angle_alpha 90.000000
_cell_angle_beta 90.000000
_cell_angle_gamma 90.000000
_cell_volume 5120.787261
_symmetry_space_group_name_H-M "I 4/M"
_symmetry_group_IT_number 87
_symmetry_cell_setting 'tetragonal'
loop_
_space_group_symop_operation_xyz
x,y,z
-y,x,z
-x,-y,z
y,-x,z
-x,-y,-z
y,-x,-z
x,y,-z
-y,x,-z
1/2+x,1/2+y,1/2+z
1/2-y,1/2+x,1/2+z
1/2-x,1/2-y,1/2+z
1/2+y,1/2-x,1/2+z
1/2-x,1/2-y,1/2-z
1/2+y,1/2-x,1/2-z
1/2+x,1/2+y,1/2-z
1/2-y,1/2+x,1/2-z
loop_
_atom_site_type_symbol
_atom_site_label
_atom_site_fract_x
_atom_site_fract_y
_atom_site_fract_z
Si Si1 0.811321 0.677962 0.658744
Si Si2 0.901343 0.382358 0.342228
Si Si3 0.494473 0.728129 0.342131
Si Si4 0.359844 0.005112 0.151679
Si Si5 0.632484 0.312802 0.339261
Si Si6 0.389608 0.288613 0.166093
O O1 0.828051 0.661719 0.500000
O O2 0.830504 0.627402 0.760545
O O3 0.742058 0.676365 0.677567
O O4 0.844049 0.737129 0.700263
O O5 0.911710 0.362852 0.500000
O O6 0.963200 0.396470 0.271878
O O7 0.860050 0.436864 0.325872
O O8 0.513988 0.710198 0.500000
O O9 0.474943 0.794235 0.341269
O O10 0.434988 0.696281 0.298291
O O11 0.546846 0.719207 0.233341
O O12 0.387140 0.020138 0.000000
O O13 0.636027 0.333708 0.500000
O O14 0.654176 0.362666 0.235204
O O15 0.397105 0.296683 0.000000
#
# Coordination Sequence:
#
# PCOD8303913 Si02
#       6
#    16  16  16  16  16  16
#     4  10  20  36  56  83 118 152 185 228 282 335
#     4  11  22  34  55  81 106 147 195 241 284 328
#     4  10  20  38  61  81 110 153 191 226 275 339
#     4  10  21  38  55  76 110 149 193 239 282 331
#     4  10  21  38  60  83 113 154 192 228 274 335
#     4  11  23  36  57  89 121 149 182 234 285 331
#
# _framework density 18.747115999999998
#
# number of rings (size 3 to 8) (size 9 to 14) (size 15 to 20)
#    0.000    1.667    3.333    1.500    0.000    4.333 
#    0.000    1.667    0.000    0.500    0.000    3.500 
#    0.000    0.000    0.000    0.000    0.000    0.000 
#
# Total GULP energy -594848.394583 kJ/mol
# GULP energy per Si atom -12392.674887 kJ/mol
# Density = 1.870445 g / cm^3
# Si number density = 18.747116 Si / 1000 Ang^3
#
#
#
# Elastic Constant Matrix: (Units=GPa)
#
#
# Indices 1 2 3 4 5 6 
#
# 1 74.5166 34.7972 52.7400 0.0000 0.0000 -0.0337
# 2 34.7972 74.5166 52.7400 0.0000 0.0000 0.0337
# 3 52.7400 52.7400 118.7746 0.0000 0.0000 0.0000
# 4 0.0000 0.0000 0.0000 32.7324 0.0000 0.0000
# 5 0.0000 0.0000 0.0000 0.0000 32.7324 0.0000
# 6 -0.0337 0.0337 0.0000 0.0000 0.0000 19.6021
#
#
#
# Elastic Compliance Matrix: (Units=1/GPa)
#
#
# Indices 1 2 3 4 5 6 
#
# 1 0.020591 -0.004585 -0.007107 0.000000 0.000000 0.000043
# 2 -0.004585 0.020591 -0.007107 0.000000 0.000000 -0.000043
# 3 -0.007107 -0.007107 0.014731 0.000000 0.000000 0.000000
# 4 0.000000 0.000000 0.000000 0.030551 0.000000 0.000000
# 5 0.000000 0.000000 0.000000 0.000000 0.030551 0.000000
# 6 0.000043 -0.000043 0.000000 0.000000 0.000000 0.051015
#
#
# Mechanical properties :
#
#
# Convention : Reuss Voigt Hill
#
# Bulk Modulus (GPa) = 54.60282 60.92915 57.76599
# Shear Modulus (GPa) = 23.61450 25.51542 24.56496
#
# Velocity S-wave (km/s) = 3.55298 3.69322 3.62378
# Velocity P-wave (km/s) = 6.78386 7.12444 6.95623
#
# Compressibility (1/GPa) = 0.01831407
#
# Stress axis : x y z
#
# Youngs Moduli (GPa) = 48.56420 48.56420 67.88422
#
# Poissons Ratio (x) = 0.22269 0.48246
# Poissons Ratio (y) = 0.22269 0.48246
# Poissons Ratio (z) = 0.34515 0.34515
#
# Static dielectric constant tensor:
#      x y z
#    x 3.252670 0.000000 0.000000 
#    y 0.000000 3.252670 0.000000 
#    z 0.000000 0.000000 3.671500 
# 
# 
# High freq. dielectric constant tensor:
#      x y z
#    x 1.713120 0.000000 0.000000 
#    y 0.000000 1.713120 0.000000 
#    z 0.000000 0.000000 1.735670 
# 
# From -- ./inp_files/1367.got.cif
#   From: 2010.03.12/outbox.cif.g09.slc.cpg/sg87_1_cif.got.tgz:1367.got - 2010.04.08 20:16:13.
