data_PCOD8303247
_publ_section_title
;
Structure prediction by ZEFSAII (Michael W. Deem and Ramdas Pophale) SiO2 
 PCOD8303247
Probable space group: P 42/M
;
_chemical_formula_sum "Si O2"
_cell_formula_units_Z 48
_cell_length_a 9.509316
_cell_length_b 9.509316
_cell_length_c 27.645427
_cell_angle_alpha 90.000000
_cell_angle_beta 90.000000
_cell_angle_gamma 90.000000
_cell_volume 2499.895537
_symmetry_space_group_name_H-M "P 42/M"
_symmetry_group_IT_number 84
_symmetry_cell_setting 'tetragonal'
loop_
_space_group_symop_operation_xyz
x,y,z
-y,x,1/2+z
-x,-y,z
y,-x,1/2+z
-x,-y,-z
y,-x,1/2-z
x,y,-z
-y,x,1/2-z
loop_
_atom_site_type_symbol
_atom_site_label
_atom_site_fract_x
_atom_site_fract_y
_atom_site_fract_z
Si Si1 0.255735 0.326101 0.609112
Si Si2 0.832488 0.662793 0.714565
Si Si3 0.660315 0.838258 0.209795
Si Si4 0.515384 0.834472 0.556743
Si Si5 0.991717 0.335233 0.448195
Si Si6 0.349773 0.280533 0.896517
O O1 0.259274 0.303377 0.666658
O O2 0.334731 0.209845 0.577513
O O3 0.095952 0.294655 0.594434
O O4 0.308412 0.483564 0.595628
O O5 0.814916 0.498803 0.728618
O O6 0.770961 0.761117 0.755975
O O7 0.996799 0.697091 0.706970
O O8 0.678051 0.768265 0.157762
O O9 0.498963 0.796648 0.500000
O O10 0.414944 0.741980 0.590684
O O11 0.500000 0.000000 0.565566
O O12 0.027018 0.262675 0.500000
O O13 0.000000 0.500000 0.454934
O O14 0.836188 0.290679 0.432963
#
# Coordination Sequence:
#
# PCOD8303247 Si02
#       6
#     8   8   8   8   8   8
#     4  10  20  38  62  88 117 151 197 248 296 351
#     4  10  22  40  61  88 120 154 196 247 300 355
#     4  10  22  40  61  88 120 154 196 247 300 355
#     4  11  25  41  57  85 127 165 197 239 296 357
#     4   9  16  30  59  91 115 143 187 241 294 345
#     4  10  20  38  62  88 117 151 197 248 296 351
#
# _framework density 19.200804000000002
#
# number of rings (size 3 to 8) (size 9 to 14) (size 15 to 20)
#    0.000    2.000    1.667    1.500    2.333    4.667 
#    0.000    0.833    0.000    3.000    0.000    0.000 
#    0.000    0.000    0.000    0.000    0.000    0.000 
#
# Total GULP energy -594946.383365 kJ/mol
# GULP energy per Si atom -12394.716320 kJ/mol
# Density = 1.915710 g / cm^3
# Si number density = 19.200804 Si / 1000 Ang^3
#
#
#
# Elastic Constant Matrix: (Units=GPa)
#
#
# Indices 1 2 3 4 5 6 
#
# 1 75.7027 38.1073 41.9871 0.0000 0.0000 0.0426
# 2 38.1073 75.7027 41.9871 0.0000 0.0000 -0.0426
# 3 41.9871 41.9871 104.3416 0.0000 0.0000 0.0000
# 4 0.0000 0.0000 0.0000 39.3971 0.0000 0.0000
# 5 0.0000 0.0000 0.0000 0.0000 39.3971 0.0000
# 6 0.0426 -0.0426 0.0000 0.0000 0.0000 20.8394
#
#
#
# Elastic Compliance Matrix: (Units=1/GPa)
#
#
# Indices 1 2 3 4 5 6 
#
# 1 0.019548 -0.007051 -0.005029 0.000000 0.000000 -0.000054
# 2 -0.007051 0.019548 -0.005029 0.000000 0.000000 0.000054
# 3 -0.005029 -0.005029 0.013631 0.000000 0.000000 0.000000
# 4 0.000000 0.000000 0.000000 0.025383 0.000000 0.000000
# 5 0.000000 0.000000 0.000000 0.000000 0.025383 0.000000
# 6 -0.000054 0.000054 0.000000 0.000000 0.000000 0.047986
#
#
# Mechanical properties :
#
#
# Convention : Reuss Voigt Hill
#
# Bulk Modulus (GPa) = 54.02500 55.54556 54.78528
# Shear Modulus (GPa) = 26.05982 28.83772 27.44877
#
# Velocity S-wave (km/s) = 3.68805 3.87964 3.78506
# Velocity P-wave (km/s) = 6.80688 7.00431 6.90630
#
# Compressibility (1/GPa) = 0.01850995
#
# Stress axis : x y z
#
# Youngs Moduli (GPa) = 51.15581 51.15581 73.36164
#
# Poissons Ratio (x) = 0.36070 0.36892
# Poissons Ratio (y) = 0.36070 0.36892
# Poissons Ratio (z) = 0.25725 0.25725
#
# Static dielectric constant tensor:
#      x y z
#    x 3.470830 0.000000 0.000000 
#    y 0.000000 3.470830 0.000000 
#    z 0.000000 0.000000 3.636700 
# 
# 
# High freq. dielectric constant tensor:
#      x y z
#    x 1.736560 0.000000 0.000000 
#    y 0.000000 1.736560 0.000000 
#    z 0.000000 0.000000 1.760990 
# 
# From -- ./inp_files/5738.got.cif
#   From: 2010.03.12/outbox.cif.g09.slc.cpg/sg84_3_cif.got.tgz:5738.got - 2010.04.08 20:07:29.
