data_PCOD8303612
_publ_section_title
;
Structure prediction by ZEFSAII (Michael W. Deem and Ramdas Pophale) SiO2 
 PCOD8303612
Probable space group: P 42/N
;
_chemical_formula_sum "Si O2"
_cell_formula_units_Z 48
_cell_length_a 9.099762
_cell_length_b 9.099762
_cell_length_c 28.176774
_cell_angle_alpha 90.000000
_cell_angle_beta 90.000000
_cell_angle_gamma 90.000000
_cell_volume 2333.196606
_symmetry_space_group_name_H-M "P 42/N"
_symmetry_group_IT_number 86
_space_group.IT_coordinate_system_code '2'
_symmetry_cell_setting 'tetragonal'
loop_
_space_group_symop_operation_xyz
x,y,z
-y,1/2+x,1/2+z
1/2-x,1/2-y,z
1/2+y,-x,1/2+z
-x,-y,-z
y,1/2-x,1/2-z
1/2+x,1/2+y,-z
1/2-y,x,1/2-z
loop_
_atom_site_type_symbol
_atom_site_label
_atom_site_fract_x
_atom_site_fract_y
_atom_site_fract_z
Si Si1 0.019573 0.434349 0.296541
Si Si2 0.045345 0.903578 0.695199
Si Si3 0.404918 0.324423 0.040562
Si Si4 0.595532 0.332017 0.949902
Si Si5 0.078089 0.210574 0.854616
Si Si6 0.585436 0.777197 0.863543
O O1 0.021053 0.484885 0.242571
O O2 0.185795 0.434563 0.315274
O O3 0.943920 0.273300 0.300490
O O4 0.948203 0.556658 0.330892
O O5 0.943469 0.947725 0.650563
O O6 0.196753 0.980596 0.682682
O O7 0.250000 0.250000 0.027994
O O8 0.373894 0.495454 0.049580
O O9 0.495647 0.265168 0.087369
O O10 0.514953 0.286763 0.998059
O O11 0.750000 0.250000 0.944442
O O12 0.489261 0.284203 0.906928
O O13 0.250000 0.250000 0.855861
O O14 0.750000 0.750000 0.881593
#
# Coordination Sequence:
#
# PCOD8303612 Si02
#       6
#     8   8   8   8   8   8
#     4  11  21  41  67  96 131 171 224 266 325 390
#     4  11  23  40  69  97 131 174 222 272 324 390
#     4  10  22  43  69 100 135 165 220 282 327 393
#     4  11  24  45  71  98 130 179 218 269 341 403
#     4  12  28  45  62  94 139 179 216 271 334 394
#     4   9  19  38  66  99 124 165 216 276 319 377
#
# _framework density 20.572635999999999
#
# number of rings (size 3 to 8) (size 9 to 14) (size 15 to 20)
#    0.000    1.333    3.333    2.000    7.000    0.667 
#    6.000    0.833    0.000    0.000    0.000    0.000 
#    0.000    0.000    0.000    0.000    0.000    0.000 
#
# Total GULP energy -594912.752627 kJ/mol
# GULP energy per Si atom -12394.015680 kJ/mol
# Density = 2.052581 g / cm^3
# Si number density = 20.572636 Si / 1000 Ang^3
#
#
#
# Elastic Constant Matrix: (Units=GPa)
#
#
# Indices 1 2 3 4 5 6 
#
# 1 75.6687 29.3280 33.1144 0.0000 0.0000 2.9219
# 2 29.3280 75.6687 33.1144 0.0000 0.0000 -2.9219
# 3 33.1144 33.1144 153.7433 0.0000 0.0000 0.0000
# 4 0.0000 0.0000 0.0000 -320.7292 0.0000 0.0000
# 5 0.0000 0.0000 0.0000 0.0000 -320.7292 0.0000
# 6 2.9219 -2.9219 0.0000 0.0000 0.0000 26.8180
#
#
#
# Elastic Compliance Matrix: (Units=1/GPa)
#
#
# Indices 1 2 3 4 5 6 
#
# 1 0.016451 -0.005429 -0.002374 0.000000 0.000000 -0.002384
# 2 -0.005429 0.016451 -0.002374 0.000000 0.000000 0.002384
# 3 -0.002374 -0.002374 0.007527 0.000000 0.000000 0.000000
# 4 0.000000 0.000000 0.000000 -0.003118 0.000000 0.000000
# 5 0.000000 0.000000 0.000000 0.000000 -0.003118 0.000000
# 6 -0.002384 0.002384 0.000000 0.000000 0.000000 0.037808
#
#
# Mechanical properties :
#
#
# Convention : Reuss Voigt Hill
#
# Bulk Modulus (GPa) = 49.81473 55.13267 52.47370
# Shear Modulus (GPa) = 50.48161 -108.95984 -29.23912
#
# Velocity S-wave (km/s) = 4.95898 -7.28550 -3.77405
# Velocity P-wave (km/s) = 7.55350 6.62677 2.56332
#
# Compressibility (1/GPa) = 0.02007438
#
# Stress axis : x y z
#
# Youngs Moduli (GPa) = 60.78764 60.78764 132.85573
#
# Poissons Ratio (x) = 0.33003 0.31539
# Poissons Ratio (y) = 0.33003 0.31539
# Poissons Ratio (z) = 0.14430 0.14430
#
# Static dielectric constant tensor:
#      x y z
#    x 2.143860 0.000000 0.000000 
#    y 0.000000 2.143860 0.000000 
#    z 0.000000 0.000000 3.924460 
# 
# 
# High freq. dielectric constant tensor:
#      x y z
#    x 1.795080 0.000000 0.000000 
#    y 0.000000 1.795080 0.000000 
#    z 0.000000 0.000000 1.830700 
# 
# From -- ./inp_files/5138.got.cif
#   From: 2010.03.12/outbox.cif.g09.slc.cpg/sg86_3_cif.got.tgz:5138.got - 2010.04.08 20:12:58.
