data_PCOD8303688
_publ_section_title
;
Structure prediction by ZEFSAII (Michael W. Deem and Ramdas Pophale) SiO2 
 PCOD8303688
Probable space group: P 42/N
;
_chemical_formula_sum "Si O2"
_cell_formula_units_Z 40
_cell_length_a 8.464746
_cell_length_b 8.464746
_cell_length_c 24.311401
_cell_angle_alpha 90.000000
_cell_angle_beta 90.000000
_cell_angle_gamma 90.000000
_cell_volume 1741.958677
_symmetry_space_group_name_H-M "P 42/N"
_symmetry_group_IT_number 86
_space_group.IT_coordinate_system_code '2'
_symmetry_cell_setting 'tetragonal'
loop_
_space_group_symop_operation_xyz
x,y,z
-y,1/2+x,1/2+z
1/2-x,1/2-y,z
1/2+y,-x,1/2+z
-x,-y,-z
y,1/2-x,1/2-z
1/2+x,1/2+y,-z
1/2-y,x,1/2-z
loop_
_atom_site_type_symbol
_atom_site_label
_atom_site_fract_x
_atom_site_fract_y
_atom_site_fract_z
Si Si1 0.432016 0.817838 0.500060
Si Si2 0.710851 0.985765 0.229358
Si Si3 0.074716 0.814265 0.611375
Si Si4 0.523315 0.793534 0.725709
Si Si5 0.423923 0.313576 0.609152
O O1 0.250000 0.750000 0.506058
O O2 0.510283 0.748249 0.555608
O O3 0.481482 0.741792 0.443394
O O4 0.500000 0.000000 0.500000
O O5 0.856066 0.930243 0.266819
O O6 0.755351 0.002850 0.164985
O O7 0.649789 0.149206 0.255100
O O8 0.250000 0.750000 0.619055
O O9 0.969488 0.755037 0.662235
O O10 0.077572 0.000441 0.610258
O O11 0.649409 0.934062 0.733905
O O12 0.250000 0.250000 0.603616
#
# Coordination Sequence:
#
# PCOD8303688 Si02
#       5
#     8   8   8   8   8
#     4  11  27  49  73 110 145 194 254 312 382 460
#     4  11  23  41  68 100 137 182 243 290 359 441
#     4  11  24  46  73 100 145 192 239 305 371 443
#     4  11  25  44  63 102 145 183 237 293 369 432
#     4  12  23  46  73 105 140 191 243 307 371 452
#
# _framework density 22.962655000000002
#
# number of rings (size 3 to 8) (size 9 to 14) (size 15 to 20)
#    0.000    0.800    4.000    4.200    2.800    1.600 
#    3.600    0.000    0.000    0.000    0.000    0.000 
#    0.000    0.000    0.000    0.000    0.000    0.000 
#
# Total GULP energy -495543.008376 kJ/mol
# GULP energy per Si atom -12388.575209 kJ/mol
# Density = 2.291039 g / cm^3
# Si number density = 22.962655 Si / 1000 Ang^3
#
#
#
# Elastic Constant Matrix: (Units=GPa)
#
#
# Indices 1 2 3 4 5 6 
#
# 1 -13.1016 116.6603 50.3246 0.0000 0.0000 5.7226
# 2 116.6603 -13.1016 50.3246 0.0000 0.0000 -5.7226
# 3 50.3246 50.3246 220.9840 0.0000 0.0000 0.0000
# 4 0.0000 0.0000 0.0000 42.7975 0.0000 0.0000
# 5 0.0000 0.0000 0.0000 0.0000 42.7975 0.0000
# 6 5.7226 -5.7226 0.0000 0.0000 0.0000 55.9850
#
#
#
# Elastic Compliance Matrix: (Units=1/GPa)
#
#
# Indices 1 2 3 4 5 6 
#
# 1 0.002382 0.010019 -0.002824 0.000000 0.000000 0.000781
# 2 0.010019 0.002382 -0.002824 0.000000 0.000000 -0.000781
# 3 -0.002824 -0.002824 0.005811 0.000000 0.000000 0.000000
# 4 0.000000 0.000000 0.000000 0.023366 0.000000 0.000000
# 5 0.000000 0.000000 0.000000 0.000000 0.023366 0.000000
# 6 0.000781 -0.000781 0.000000 0.000000 0.000000 0.017702
#
#
# Mechanical properties :
#
#
# Convention : Reuss Voigt Hill
#
# Bulk Modulus (GPa) = 51.76704 69.93332 60.85018
# Shear Modulus (GPa) = 68.77023 26.81409 47.79216
#
# Velocity S-wave (km/s) = 5.47848 3.42091 4.56708
# Velocity P-wave (km/s) = 7.91273 6.79153 7.37347
#
# Compressibility (1/GPa) = 0.01931731
#
# Stress axis : x y z
#
# Youngs Moduli (GPa) = 419.85382 419.85382 172.07317
#
# Poissons Ratio (x) = -4.20666 0.48595
# Poissons Ratio (y) = -4.20666 0.48595
# Poissons Ratio (z) = 1.18571 1.18571
#
# Static dielectric constant tensor:
#      x y z
#    x 5.431690 0.000000 0.000000 
#    y 0.000000 5.431690 0.000000 
#    z 0.000000 0.000000 4.992910 
# 
# 
# High freq. dielectric constant tensor:
#      x y z
#    x 1.910110 0.000000 0.000000 
#    y 0.000000 1.910110 0.000000 
#    z 0.000000 0.000000 1.931460 
# 
# From -- ./inp_files/4498.got.cif
#   From: 2010.03.12/outbox.cif.g09.slc.cpg/sg86_3_cif.got.tgz:4498.got - 2010.04.08 20:12:58.
