data_PCOD8303764
_publ_section_title
;
Structure prediction by ZEFSAII (Michael W. Deem and Ramdas Pophale) SiO2 
 PCOD8303764
Probable space group: I 4/M
;
_chemical_formula_sum "Si O2"
_cell_formula_units_Z 96
_cell_length_a 26.811336
_cell_length_b 26.811336
_cell_length_c 9.063178
_cell_angle_alpha 90.000000
_cell_angle_beta 90.000000
_cell_angle_gamma 90.000000
_cell_volume 6515.045005
_symmetry_space_group_name_H-M "I 4/M"
_symmetry_group_IT_number 87
_symmetry_cell_setting 'tetragonal'
loop_
_space_group_symop_operation_xyz
x,y,z
-y,x,z
-x,-y,z
y,-x,z
-x,-y,-z
y,-x,-z
x,y,-z
-y,x,-z
1/2+x,1/2+y,1/2+z
1/2-y,1/2+x,1/2+z
1/2-x,1/2-y,1/2+z
1/2+y,1/2-x,1/2+z
1/2-x,1/2-y,1/2-z
1/2+y,1/2-x,1/2-z
1/2+x,1/2+y,1/2-z
1/2-y,1/2+x,1/2-z
loop_
_atom_site_type_symbol
_atom_site_label
_atom_site_fract_x
_atom_site_fract_y
_atom_site_fract_z
Si Si1 0.803197 0.400851 0.325960
Si Si2 0.175178 0.236504 0.665429
Si Si3 0.519821 0.935989 0.163877
Si Si4 0.003769 0.325087 0.664985
Si Si5 0.825950 0.247725 0.834766
Si Si6 0.610315 0.174154 0.174228
O O1 0.797239 0.399845 0.500000
O O2 0.756870 0.371894 0.255183
O O3 0.796285 0.458249 0.272316
O O4 0.855738 0.373782 0.279409
O O5 0.158485 0.221673 0.500000
O O6 0.197004 0.187756 0.747782
O O7 0.217565 0.277929 0.658157
O O8 0.462822 0.944102 0.219289
O O9 0.530711 0.878235 0.158773
O O10 0.526269 0.958913 0.000000
O O11 0.003098 0.301531 0.500000
O O12 0.947385 0.330902 0.726383
O O13 0.870328 0.275674 0.750605
O O14 0.843689 0.234069 0.000000
O O15 0.613580 0.181387 0.000000
#
# Coordination Sequence:
#
# PCOD8303764 Si02
#       6
#    16  16  16  16  16  16
#     4  10  19  30  44  60  78 101 132 169 205 240
#     4   9  16  27  43  61  81 102 123 152 194 240
#     4  10  19  30  42  54  68  90 124 166 208 245
#     4  10  20  31  41  54  75 102 131 163 201 244
#     4   9  16  26  42  63  81  97 123 158 194 234
#     4   9  18  31  43  56  77 104 132 164 204 246
#
# _framework density 14.735125
#
# number of rings (size 3 to 8) (size 9 to 14) (size 15 to 20)
#    0.000    2.500    0.000    3.500    0.000    8.000 
#    0.000    0.000    0.000    0.000    0.000    0.000 
#    0.000    0.000    0.000    0.000    0.000    0.833 
#
# Total GULP energy -594783.639083 kJ/mol
# GULP energy per Si atom -12391.325814 kJ/mol
# Density = 1.470159 g / cm^3
# Si number density = 14.735125 Si / 1000 Ang^3
#
#
#
# Elastic Constant Matrix: (Units=GPa)
#
#
# Indices 1 2 3 4 5 6 
#
# 1 48.4613 30.9410 28.5234 0.0000 0.0000 -1.0503
# 2 30.9410 48.4613 28.5234 0.0000 0.0000 1.0503
# 3 28.5234 28.5234 72.8937 0.0000 0.0000 0.0000
# 4 0.0000 0.0000 0.0000 20.2244 0.0000 0.0000
# 5 0.0000 0.0000 0.0000 0.0000 20.2244 0.0000
# 6 -1.0503 1.0503 0.0000 0.0000 0.0000 12.4988
#
#
#
# Elastic Compliance Matrix: (Units=1/GPa)
#
#
# Indices 1 2 3 4 5 6 
#
# 1 0.037589 -0.020069 -0.006855 0.000000 0.000000 0.004845
# 2 -0.020069 0.037589 -0.006855 0.000000 0.000000 -0.004845
# 3 -0.006855 -0.006855 0.019084 0.000000 0.000000 0.000000
# 4 0.000000 0.000000 0.000000 0.049445 0.000000 0.000000
# 5 0.000000 0.000000 0.000000 0.000000 0.049445 0.000000
# 6 0.004845 -0.004845 0.000000 0.000000 0.000000 0.080822
#
#
# Mechanical properties :
#
#
# Convention : Reuss Voigt Hill
#
# Bulk Modulus (GPa) = 37.45189 38.42132 37.93660
# Shear Modulus (GPa) = 14.26804 16.04474 15.15639
#
# Velocity S-wave (km/s) = 3.11513 3.30339 3.21064
# Velocity P-wave (km/s) = 6.19763 6.37818 6.28855
#
# Compressibility (1/GPa) = 0.02670092
#
# Stress axis : x y z
#
# Youngs Moduli (GPa) = 26.60382 26.60382 52.40095
#
# Poissons Ratio (x) = 0.53392 0.35923
# Poissons Ratio (y) = 0.53392 0.35923
# Poissons Ratio (z) = 0.18238 0.18238
#
# Static dielectric constant tensor:
#      x y z
#    x 2.661180 0.000000 0.000000 
#    y 0.000000 2.661180 0.000000 
#    z 0.000000 0.000000 3.065190 
# 
# 
# High freq. dielectric constant tensor:
#      x y z
#    x 1.526070 0.000000 0.000000 
#    y 0.000000 1.526070 0.000000 
#    z 0.000000 0.000000 1.580400 
# 
# From -- ./inp_files/1559.got.cif
#   From: 2010.03.12/outbox.cif.g09.slc.cpg/sg87_1_cif.got.tgz:1559.got - 2010.04.08 20:16:13.
