data_PCOD8303866
_publ_section_title
;
Structure prediction by ZEFSAII (Michael W. Deem and Ramdas Pophale) SiO2 
 PCOD8303866
Probable space group: I 4/M
;
_chemical_formula_sum "Si O2"
_cell_formula_units_Z 64
_cell_length_a 20.156959
_cell_length_b 20.156959
_cell_length_c 8.842765
_cell_angle_alpha 90.000000
_cell_angle_beta 90.000000
_cell_angle_gamma 90.000000
_cell_volume 3592.841914
_symmetry_space_group_name_H-M "I 4/M"
_symmetry_group_IT_number 87
_symmetry_cell_setting 'tetragonal'
loop_
_space_group_symop_operation_xyz
x,y,z
-y,x,z
-x,-y,z
y,-x,z
-x,-y,-z
y,-x,-z
x,y,-z
-y,x,-z
1/2+x,1/2+y,1/2+z
1/2-y,1/2+x,1/2+z
1/2-x,1/2-y,1/2+z
1/2+y,1/2-x,1/2+z
1/2-x,1/2-y,1/2-z
1/2+y,1/2-x,1/2-z
1/2+x,1/2+y,1/2-z
1/2-y,1/2+x,1/2-z
loop_
_atom_site_type_symbol
_atom_site_label
_atom_site_fract_x
_atom_site_fract_y
_atom_site_fract_z
Si Si1 0.179895 0.429236 0.821682
Si Si2 0.326031 0.932023 0.177496
Si Si3 0.924901 0.180630 0.180317
Si Si4 0.426718 0.323197 0.322465
O O1 0.124263 0.376833 0.771491
O O2 0.156069 0.500968 0.765556
O O3 0.248005 0.405545 0.745828
O O4 0.189596 0.430401 0.000000
O O5 0.252037 0.907776 0.221781
O O6 0.330058 0.947801 0.000000
O O7 0.874191 0.126281 0.249180
O O8 0.998915 0.160641 0.234998
O O9 0.921624 0.185775 0.000000
O O10 0.424085 0.333511 0.500000
#
# Coordination Sequence:
#
# PCOD8303866 Si02
#       4
#    16  16  16  16
#     4  10  20  33  50  72  97 125 159 199 241 285
#     4   9  19  35  51  70  98 127 159 199 238 282
#     4   9  17  31  50  71  98 129 161 197 236 280
#     4   8  15  29  49  71  95 126 162 198 234 275
#
# _framework density 17.813196999999999
#
# number of rings (size 3 to 8) (size 9 to 14) (size 15 to 20)
#    0.000    3.000    0.000    2.250    0.000    4.000 
#    0.000   10.000    0.000    0.000    0.000    7.000 
#    0.000    0.000    0.000    0.000    0.000    0.000 
#
# Total GULP energy -396722.494552 kJ/mol
# GULP energy per Si atom -12397.577955 kJ/mol
# Density = 1.777265 g / cm^3
# Si number density = 17.813197 Si / 1000 Ang^3
#
#
#
# Elastic Constant Matrix: (Units=GPa)
#
#
# Indices 1 2 3 4 5 6 
#
# 1 143.2578 118.3310 30.8241 0.0000 0.0000 -0.7152
# 2 118.3310 143.2578 30.8241 0.0000 0.0000 0.7152
# 3 30.8241 30.8241 30.3457 0.0000 0.0000 0.0000
# 4 0.0000 0.0000 0.0000 22.0683 0.0000 0.0000
# 5 0.0000 0.0000 0.0000 0.0000 22.0683 0.0000
# 6 -0.7152 0.7152 0.0000 0.0000 0.0000 45.5349
#
#
#
# Elastic Compliance Matrix: (Units=1/GPa)
#
#
# Indices 1 2 3 4 5 6 
#
# 1 0.022590 -0.017564 -0.005105 0.000000 0.000000 0.000631
# 2 -0.017564 0.022590 -0.005105 0.000000 0.000000 -0.000631
# 3 -0.005105 -0.005105 0.043325 0.000000 0.000000 0.000000
# 4 0.000000 0.000000 0.000000 0.045314 0.000000 0.000000
# 5 0.000000 0.000000 0.000000 0.000000 0.045314 0.000000
# 6 0.000631 -0.000631 0.000000 0.000000 0.000000 0.021981
#
#
# Mechanical properties :
#
#
# Convention : Reuss Voigt Hill
#
# Bulk Modulus (GPa) = 30.34343 75.20219 52.77281
# Shear Modulus (GPa) = 18.68135 27.05978 22.87056
#
# Velocity S-wave (km/s) = 3.24193 3.90177 3.58706
# Velocity P-wave (km/s) = 5.57537 7.91247 6.84441
#
# Compressibility (1/GPa) = 0.03295607
#
# Stress axis : x y z
#
# Youngs Moduli (GPa) = 44.26794 44.26794 23.08147
#
# Poissons Ratio (x) = 0.77751 0.11783
# Poissons Ratio (y) = 0.77751 0.11783
# Poissons Ratio (z) = 0.22599 0.22599
#
# Static dielectric constant tensor:
#      x y z
#    x 3.509240 0.000000 0.000000 
#    y 0.000000 3.509240 0.000000 
#    z 0.000000 0.000000 3.012480 
# 
# 
# High freq. dielectric constant tensor:
#      x y z
#    x 1.694090 0.000000 0.000000 
#    y 0.000000 1.694090 0.000000 
#    z 0.000000 0.000000 1.661540 
# 
# From -- ./inp_files/930.got.cif
#   From: 2010.03.12/outbox.cif.g09.slc.cpg/sg87_1_cif.got.tgz:930.got - 2010.04.08 20:16:13.
