data_PCOD8303213
_publ_section_title
;
Structure prediction by ZEFSAII (Michael W. Deem and Ramdas Pophale) SiO2 
 PCOD8303213
Probable space group: P 42/M
;
_chemical_formula_sum "Si O2"
_cell_formula_units_Z 56
_cell_length_a 14.658853
_cell_length_b 14.658853
_cell_length_c 13.762641
_cell_angle_alpha 90.000000
_cell_angle_beta 90.000000
_cell_angle_gamma 90.000000
_cell_volume 2957.343428
_symmetry_space_group_name_H-M "P 42/M"
_symmetry_group_IT_number 84
_symmetry_cell_setting 'tetragonal'
loop_
_space_group_symop_operation_xyz
x,y,z
-y,x,1/2+z
-x,-y,z
y,-x,1/2+z
-x,-y,-z
y,-x,1/2-z
x,y,-z
-y,x,1/2-z
loop_
_atom_site_type_symbol
_atom_site_label
_atom_site_fract_x
_atom_site_fract_y
_atom_site_fract_z
Si Si1 0.270284 0.115699 0.613154
Si Si2 0.683701 0.214655 0.111772
Si Si3 0.690403 0.004933 0.111748
Si Si4 0.853004 0.983791 0.754578
Si Si5 0.280240 0.478267 0.271345
Si Si6 0.085438 0.562971 0.763283
Si Si7 0.572032 0.419325 0.386755
O O1 0.258884 0.101253 0.500000
O O2 0.233016 0.213753 0.647453
O O3 0.211927 0.037155 0.664097
O O4 0.375155 0.104739 0.642941
O O5 0.618751 0.279864 0.174030
O O6 0.657735 0.108873 0.126563
O O7 0.672783 0.243826 0.000000
O O8 0.794329 0.995070 0.147597
O O9 0.623415 0.937414 0.168713
O O10 0.687042 0.975894 0.000000
O O11 0.923374 0.902841 0.773857
O O12 0.176051 0.506328 0.257167
O O13 0.332162 0.551322 0.338987
O O14 0.329992 0.466757 0.167576
O O15 0.000000 0.500000 0.789673
O O16 0.500000 0.500000 0.371487
O O17 0.586311 0.395590 0.500000
#
# Coordination Sequence:
#
# PCOD8303213 Si02
#       7
#     8   8   8   8   8   8   8
#     4  10  22  39  59  85 118 159 202 239 293 365
#     4  10  20  36  63  89 117 160 205 247 300 363
#     4  10  21  39  58  85 122 159 202 251 297 355
#     4  10  20  35  59  87 116 154 199 252 302 347
#     4  12  21  42  65  90 125 161 198 255 310 361
#     4  11  24  40  61  88 123 160 202 247 301 362
#     4  11  24  42  65  96 125 156 202 255 314 374
#
# _framework density 18.935912999999999
#
# number of rings (size 3 to 8) (size 9 to 14) (size 15 to 20)
#    0.000    1.429    4.286    1.286    0.000    2.857 
#    0.000    1.429    0.000    0.000    0.000    0.000 
#    0.000    0.000    0.000    0.000    0.000    0.000 
#
# Total GULP energy -694636.938865 kJ/mol
# GULP energy per Si atom -12404.231051 kJ/mol
# Density = 1.889281 g / cm^3
# Si number density = 18.935913 Si / 1000 Ang^3
#
#
#
# Elastic Constant Matrix: (Units=GPa)
#
#
# Indices 1 2 3 4 5 6 
#
# 1 89.7438 27.1947 39.1285 0.0000 0.0000 -4.0291
# 2 27.1947 89.7438 39.1285 0.0000 0.0000 4.0291
# 3 39.1285 39.1285 97.9253 0.0000 0.0000 0.0000
# 4 0.0000 0.0000 0.0000 22.2995 0.0000 0.0000
# 5 0.0000 0.0000 0.0000 0.0000 22.2995 0.0000
# 6 -4.0291 4.0291 0.0000 0.0000 0.0000 34.0172
#
#
#
# Elastic Compliance Matrix: (Units=1/GPa)
#
#
# Indices 1 2 3 4 5 6 
#
# 1 0.013954 -0.002281 -0.004664 0.000000 0.000000 0.001923
# 2 -0.002281 0.013954 -0.004664 0.000000 0.000000 -0.001923
# 3 -0.004664 -0.004664 0.013939 0.000000 0.000000 0.000000
# 4 0.000000 0.000000 0.000000 0.044844 0.000000 0.000000
# 5 0.000000 0.000000 0.000000 0.000000 0.044844 0.000000
# 6 0.001923 -0.001923 0.000000 0.000000 0.000000 0.029852
#
#
# Mechanical properties :
#
#
# Convention : Reuss Voigt Hill
#
# Bulk Modulus (GPa) = 53.68202 54.25739 53.96970
# Shear Modulus (GPa) = 26.20323 27.18732 26.69527
#
# Velocity S-wave (km/s) = 3.72396 3.79325 3.75876
# Velocity P-wave (km/s) = 6.84846 6.92101 6.88483
#
# Compressibility (1/GPa) = 0.01862821
#
# Stress axis : x y z
#
# Youngs Moduli (GPa) = 71.66393 71.66393 71.73991
#
# Poissons Ratio (x) = 0.16348 0.33461
# Poissons Ratio (y) = 0.16348 0.33461
# Poissons Ratio (z) = 0.33425 0.33425
#
# Static dielectric constant tensor:
#      x y z
#    x 3.522390 0.000000 0.000000 
#    y 0.000000 3.522390 0.000000 
#    z 0.000000 0.000000 3.405270 
# 
# 
# High freq. dielectric constant tensor:
#      x y z
#    x 1.742460 0.000000 0.000000 
#    y 0.000000 1.742460 0.000000 
#    z 0.000000 0.000000 1.731150 
# 
# From -- ./inp_files/2239.got.cif
#   From: 2010.03.12/outbox.cif.g09.slc.cpg/sg84_2_cif.got.tgz:2239.got - 2010.04.08 20:07:29.
