data_PCOD8303756
_publ_section_title
;
Structure prediction by ZEFSAII (Michael W. Deem and Ramdas Pophale) SiO2 
 PCOD8303756
Probable space group: I 4/M
;
_chemical_formula_sum "Si O2"
_cell_formula_units_Z 112
_cell_length_a 15.399762
_cell_length_b 15.399762
_cell_length_c 21.823567
_cell_angle_alpha 90.000000
_cell_angle_beta 90.000000
_cell_angle_gamma 90.000000
_cell_volume 5175.517175
_symmetry_space_group_name_H-M "I 4/M"
_symmetry_group_IT_number 87
_symmetry_cell_setting 'tetragonal'
loop_
_space_group_symop_operation_xyz
x,y,z
-y,x,z
-x,-y,z
y,-x,z
-x,-y,-z
y,-x,-z
x,y,-z
-y,x,-z
1/2+x,1/2+y,1/2+z
1/2-y,1/2+x,1/2+z
1/2-x,1/2-y,1/2+z
1/2+y,1/2-x,1/2+z
1/2-x,1/2-y,1/2-z
1/2+y,1/2-x,1/2-z
1/2+x,1/2+y,1/2-z
1/2-y,1/2+x,1/2-z
loop_
_atom_site_type_symbol
_atom_site_label
_atom_site_fract_x
_atom_site_fract_y
_atom_site_fract_z
Si Si1 0.805656 0.728019 0.570974
Si Si2 0.920147 0.329376 0.291617
Si Si3 0.477335 0.361783 0.570938
Si Si4 0.652411 0.671928 0.229146
Si Si5 0.574670 0.617210 0.886581
Si Si6 0.369203 0.249010 0.645034
Si Si7 0.350873 0.886147 0.323954
O O1 0.794899 0.702838 0.500000
O O2 0.871097 0.809071 0.578238
O O3 0.712184 0.750210 0.599059
O O4 0.848492 0.644563 0.606819
O O5 0.889823 0.231030 0.288889
O O6 0.847522 0.384578 0.328424
O O7 0.931531 0.366044 0.221497
O O8 0.010909 0.334376 0.326878
O O9 0.570247 0.400876 0.588384
O O10 0.474990 0.339639 0.500000
O O11 0.456603 0.273991 0.608016
O O12 0.574310 0.633907 0.187452
O O13 0.635757 0.677340 0.301457
O O14 0.669190 0.771034 0.206588
O O15 0.474171 0.618056 0.905922
#
# Coordination Sequence:
#
# PCOD8303756 Si02
#       7
#    16  16  16  16  16  16  16
#     4  11  22  37  57  84 123 170 214 253 300 378
#     4  11  20  38  60  87 122 156 204 275 314 372
#     4   9  20  39  60  85 119 153 192 248 311 377
#     4  10  18  35  57  83 109 148 196 260 317 355
#     4  10  21  36  54  84 126 164 202 254 312 368
#     4  11  20  35  58  90 117 157 200 249 313 377
#     4  10  21  37  60  87 118 159 210 259 322 366
#
# _framework density 21.640349000000001
#
# number of rings (size 3 to 8) (size 9 to 14) (size 15 to 20)
#    0.000    1.714    4.286    3.429    0.000    4.286 
#    0.000    2.857    0.000    0.000    0.000    2.000 
#    0.000    0.000    0.000    0.000    0.000    0.000 
#
# Total GULP energy -693928.422173 kJ/mol
# GULP energy per Si atom -12391.578967 kJ/mol
# Density = 2.159109 g / cm^3
# Si number density = 21.640349 Si / 1000 Ang^3
#
#
#
# Elastic Constant Matrix: (Units=GPa)
#
#
# Indices 1 2 3 4 5 6 
#
# 1 37.6538 -2.5846 18.4917 0.0000 0.0000 -2.5884
# 2 -2.5846 37.6538 18.4917 0.0000 0.0000 2.5883
# 3 18.4917 18.4917 123.8791 0.0000 0.0000 0.0000
# 4 0.0000 0.0000 0.0000 25.4447 0.0000 0.0000
# 5 0.0000 0.0000 0.0000 0.0000 25.4447 0.0000
# 6 -2.5884 2.5883 0.0000 0.0000 0.0000 24.6340
#
#
#
# Elastic Compliance Matrix: (Units=1/GPa)
#
#
# Indices 1 2 3 4 5 6 
#
# 1 0.029518 0.004325 -0.005052 0.000000 0.000000 0.002647
# 2 0.004325 0.029518 -0.005052 0.000000 0.000000 -0.002647
# 3 -0.005052 -0.005052 0.009581 0.000000 0.000000 0.000000
# 4 0.000000 0.000000 0.000000 0.039301 0.000000 0.000000
# 5 0.000000 0.000000 0.000000 0.000000 0.039301 0.000000
# 6 0.002647 -0.002647 0.000000 0.000000 0.000000 0.041150
#
#
# Mechanical properties :
#
#
# Convention : Reuss Voigt Hill
#
# Bulk Modulus (GPa) = 17.52580 29.77603 23.65092
# Shear Modulus (GPa) = 22.83684 26.09053 24.46369
#
# Velocity S-wave (km/s) = 3.25205 3.47600 3.36589
# Velocity P-wave (km/s) = 4.71353 5.46804 5.10474
#
# Compressibility (1/GPa) = 0.05705873
#
# Stress axis : x y z
#
# Youngs Moduli (GPa) = 33.87820 33.87820 104.37803
#
# Poissons Ratio (x) = -0.14653 0.52729
# Poissons Ratio (y) = -0.14653 0.52729
# Poissons Ratio (z) = 0.17114 0.17114
#
# Static dielectric constant tensor:
#      x y z
#    x 3.809470 0.000000 0.000000 
#    y 0.000000 3.809470 0.000000 
#    z 0.000000 0.000000 4.050040 
# 
# 
# High freq. dielectric constant tensor:
#      x y z
#    x 1.836570 0.000000 0.000000 
#    y 0.000000 1.836570 0.000000 
#    z 0.000000 0.000000 1.840120 
# 
# From -- ./inp_files/5903.got.cif
#   From: 2010.03.12/outbox.cif.g09.slc.cpg/sg87_3_cif.got.tgz:5903.got - 2010.04.08 20:16:13.
