data_PCOD8303903
_publ_section_title
;
Structure prediction by ZEFSAII (Michael W. Deem and Ramdas Pophale) SiO2 
 PCOD8303903
Probable space group: I 4/M
;
_chemical_formula_sum "Si O2"
_cell_formula_units_Z 116
_cell_length_a 26.913035
_cell_length_b 26.913035
_cell_length_c 8.880192
_cell_angle_alpha 90.000000
_cell_angle_beta 90.000000
_cell_angle_gamma 90.000000
_cell_volume 6432.024770
_symmetry_space_group_name_H-M "I 4/M"
_symmetry_group_IT_number 87
_symmetry_cell_setting 'tetragonal'
loop_
_space_group_symop_operation_xyz
x,y,z
-y,x,z
-x,-y,z
y,-x,z
-x,-y,-z
y,-x,-z
x,y,-z
-y,x,-z
1/2+x,1/2+y,1/2+z
1/2-y,1/2+x,1/2+z
1/2-x,1/2-y,1/2+z
1/2+y,1/2-x,1/2+z
1/2-x,1/2-y,1/2-z
1/2+y,1/2-x,1/2-z
1/2+x,1/2+y,1/2-z
1/2-y,1/2+x,1/2-z
loop_
_atom_site_type_symbol
_atom_site_label
_atom_site_fract_x
_atom_site_fract_y
_atom_site_fract_z
Si Si1 0.000000 0.000000 0.730301
Si Si2 0.661610 0.419333 0.172607
Si Si3 0.243646 0.547388 0.328253
Si Si4 0.558519 0.133092 0.823437
Si Si5 0.568475 0.235692 0.325499
Si Si6 0.455113 0.131982 0.675251
Si Si7 0.992273 0.106900 0.177789
Si Si8 0.592597 0.331049 0.826152
O O1 0.054215 0.024652 0.751244
O O2 0.718862 0.422166 0.222898
O O3 0.626308 0.454199 0.271096
O O4 0.642954 0.362786 0.193761
O O5 0.656757 0.436453 0.000000
O O6 0.256937 0.560222 0.500000
O O7 0.249589 0.488903 0.298930
O O8 0.187651 0.563796 0.287820
O O9 0.579491 0.181201 0.738496
O O10 0.503360 0.118416 0.772014
O O11 0.594074 0.087725 0.779751
O O12 0.558773 0.143918 0.000000
O O13 0.582968 0.236523 0.500000
O O14 0.602192 0.275497 0.235709
O O15 0.470172 0.128749 0.500000
O O16 0.951740 0.146605 0.227951
O O17 0.992495 0.100415 0.000000
O O18 0.575864 0.329696 0.000000
#
# Coordination Sequence:
#
# PCOD8303903 Si02
#       8
#     4  16  16  16  16  16  16  16
#     4  12  25  36  49  70 101 144 189 222 273 352
#     4  11  23  35  49  74 103 133 175 229 280 327
#     4   9  18  34  55  76 102 139 181 224 266 319
#     4  10  20  35  58  86 117 152 182 219 264 310
#     4  10  20  35  56  80 106 140 182 228 272 326
#     4   9  20  37  56  84 119 151 185 218 259 317
#     4  12  22  35  50  68  96 136 180 223 271 330
#     4  11  23  36  50  73 102 135 177 228 281 328
#
# _framework density 18.034756999999999
#
# number of rings (size 3 to 8) (size 9 to 14) (size 15 to 20)
#    0.000    1.655    2.759    3.517    0.000    5.241 
#    0.000    2.759    0.000    0.828    0.000    0.000 
#    0.000    0.000    0.000    0.000    0.000    0.000 
#
# Total GULP energy -718519.552740 kJ/mol
# GULP energy per Si atom -12388.268151 kJ/mol
# Density = 1.799371 g / cm^3
# Si number density = 18.034757 Si / 1000 Ang^3
#
#
#
# Elastic Constant Matrix: (Units=GPa)
#
#
# Indices 1 2 3 4 5 6 
#
# 1 85.1417 46.9367 28.2198 0.0000 0.0000 -2.4121
# 2 46.9367 85.1417 28.2198 0.0000 0.0000 2.4121
# 3 28.2198 28.2198 54.7221 0.0000 0.0000 0.0000
# 4 0.0000 0.0000 0.0000 21.0371 0.0000 0.0000
# 5 0.0000 0.0000 0.0000 0.0000 21.0371 0.0000
# 6 -2.4121 2.4121 0.0000 0.0000 0.0000 22.5866
#
#
#
# Elastic Compliance Matrix: (Units=1/GPa)
#
#
# Indices 1 2 3 4 5 6 
#
# 1 0.018122 -0.008411 -0.005008 0.000000 0.000000 0.002833
# 2 -0.008411 0.018122 -0.005008 0.000000 0.000000 -0.002833
# 3 -0.005008 -0.005008 0.023439 0.000000 0.000000 0.000000
# 4 0.000000 0.000000 0.000000 0.047535 0.000000 0.000000
# 5 0.000000 0.000000 0.000000 0.000000 0.047535 0.000000
# 6 0.002833 -0.002833 0.000000 0.000000 0.000000 0.044879
#
#
# Mechanical properties :
#
#
# Convention : Reuss Voigt Hill
#
# Bulk Modulus (GPa) = 43.80247 47.97315 45.88781
# Shear Modulus (GPa) = 20.48377 21.04077 20.76227
#
# Velocity S-wave (km/s) = 3.37381 3.41937 3.39667
# Velocity P-wave (km/s) = 6.28628 6.49982 6.39394
#
# Compressibility (1/GPa) = 0.02282976
#
# Stress axis : x y z
#
# Youngs Moduli (GPa) = 55.18205 55.18205 42.66325
#
# Poissons Ratio (x) = 0.46411 0.21366
# Poissons Ratio (y) = 0.46411 0.21366
# Poissons Ratio (z) = 0.27635 0.27635
#
# Static dielectric constant tensor:
#      x y z
#    x 3.419500 0.000000 0.000000 
#    y 0.000000 3.419500 0.000000 
#    z 0.000000 0.000000 3.342980 
# 
# 
# High freq. dielectric constant tensor:
#      x y z
#    x 1.690600 0.000000 0.000000 
#    y 0.000000 1.690600 0.000000 
#    z 0.000000 0.000000 1.699020 
# 
# From -- ./inp_files/1731.got.cif
#   From: 2010.03.12/outbox.cif.g09.slc.cpg/sg87_1_cif.got.tgz:1731.got - 2010.04.08 20:16:13.
