data_PCOD8303548
_publ_section_title
;
Structure prediction by ZEFSAII (Michael W. Deem and Ramdas Pophale) SiO2 
 PCOD8303548
Probable space group: P 42/N
;
_chemical_formula_sum "Si O2"
_cell_formula_units_Z 58
_cell_length_a 16.532754
_cell_length_b 16.532754
_cell_length_c 9.056494
_cell_angle_alpha 90.000000
_cell_angle_beta 90.000000
_cell_angle_gamma 90.000000
_cell_volume 2475.429209
_symmetry_space_group_name_H-M "P 42/N"
_symmetry_group_IT_number 86
_space_group.IT_coordinate_system_code '2'
_symmetry_cell_setting 'tetragonal'
loop_
_space_group_symop_operation_xyz
x,y,z
-y,1/2+x,1/2+z
1/2-x,1/2-y,z
1/2+y,-x,1/2+z
-x,-y,-z
y,1/2-x,1/2-z
1/2+x,1/2+y,-z
1/2-y,x,1/2-z
loop_
_atom_site_type_symbol
_atom_site_label
_atom_site_fract_x
_atom_site_fract_y
_atom_site_fract_z
Si Si1 0.750000 0.750000 0.250000
Si Si2 0.335760 0.714033 0.489557
Si Si3 0.859044 0.148785 0.198150
Si Si4 0.707956 0.454726 0.604206
Si Si5 0.827931 0.889836 0.415045
Si Si6 0.853146 0.828243 0.713761
Si Si7 0.601486 0.521025 0.856443
Si Si8 0.576004 0.517446 0.188395
O O1 0.758143 0.831194 0.349566
O O2 0.250000 0.750000 0.442190
O O3 0.342053 0.711662 0.667095
O O4 0.386701 0.781444 0.396829
O O5 0.349142 0.622061 0.435270
O O6 0.923397 0.199256 0.099549
O O7 0.902790 0.069060 0.261373
O O8 0.705206 0.526011 0.482560
O O9 0.677047 0.485339 0.764170
O O10 0.874645 0.837881 0.540880
O O11 0.892104 0.909434 0.287775
O O12 0.862339 0.738199 0.769743
O O13 0.911636 0.884940 0.810051
O O14 0.520292 0.471017 0.822352
O O15 0.619736 0.519189 0.029375
#
# Coordination Sequence:
#
# PCOD8303548 Si02
#       8
#     2   8   8   8   8   8   8   8
#     4  12  28  48  74 100 136 180 234 296 356 424
#     4  10  20  39  66  99 140 178 234 280 335 424
#     4  11  22  40  68 100 140 183 228 281 350 420
#     4  10  22  44  68  99 136 188 231 283 347 413
#     4  11  26  46  71 103 136 181 236 297 355 415
#     4  10  23  44  72 102 134 182 237 293 351 422
#     4  10  25  44  68  99 141 187 228 287 354 414
#     4  11  25  45  66 104 143 180 229 290 354 418
#
# _framework density 23.43028
#
# number of rings (size 3 to 8) (size 9 to 14) (size 15 to 20)
#    0.000    1.517    1.379    2.897    7.724    4.414 
#    2.483    0.000    0.000    0.000    0.000    0.000 
#    0.000    0.000    0.000    0.000    0.000    0.000 
#
# Total GULP energy -718706.758324 kJ/mol
# GULP energy per Si atom -12391.495833 kJ/mol
# Density = 2.337695 g / cm^3
# Si number density = 23.430280 Si / 1000 Ang^3
#
#
#
# Elastic Constant Matrix: (Units=GPa)
#
#
# Indices 1 2 3 4 5 6 
#
# 1 78.9086 29.9755 44.1724 0.0000 0.0000 -5.6792
# 2 29.9755 78.9086 44.1724 0.0000 0.0000 5.6792
# 3 44.1724 44.1724 131.7933 0.0000 0.0000 0.0000
# 4 0.0000 0.0000 0.0000 28.0952 0.0000 0.0000
# 5 0.0000 0.0000 0.0000 0.0000 28.0952 0.0000
# 6 -5.6792 5.6792 0.0000 0.0000 0.0000 31.6483
#
#
#
# Elastic Compliance Matrix: (Units=1/GPa)
#
#
# Indices 1 2 3 4 5 6 
#
# 1 0.016969 -0.004355 -0.004228 0.000000 0.000000 0.003827
# 2 -0.004355 0.016969 -0.004228 0.000000 0.000000 -0.003827
# 3 -0.004228 -0.004228 0.010422 0.000000 0.000000 0.000000
# 4 0.000000 0.000000 0.000000 0.035593 0.000000 0.000000
# 5 0.000000 0.000000 0.000000 0.000000 0.035593 0.000000
# 6 0.003827 -0.003827 0.000000 0.000000 0.000000 0.032971
#
#
# Mechanical properties :
#
#
# Convention : Reuss Voigt Hill
#
# Bulk Modulus (GPa) = 53.36465 58.47233 55.91849
# Shear Modulus (GPa) = 27.71844 28.98711 28.35277
#
# Velocity S-wave (km/s) = 3.44323 3.52115 3.48241
# Velocity P-wave (km/s) = 6.21556 6.44526 6.33145
#
# Compressibility (1/GPa) = 0.01873899
#
# Stress axis : x y z
#
# Youngs Moduli (GPa) = 58.92975 58.92975 95.95341
#
# Poissons Ratio (x) = 0.25663 0.40568
# Poissons Ratio (y) = 0.25663 0.40568
# Poissons Ratio (z) = 0.24915 0.24915
#
# Static dielectric constant tensor:
#      x y z
#    x 4.165460 0.000000 0.000000 
#    y 0.000000 4.165460 0.000000 
#    z 0.000000 0.000000 4.240330 
# 
# 
# High freq. dielectric constant tensor:
#      x y z
#    x 1.918180 0.000000 0.000000 
#    y 0.000000 1.918180 0.000000 
#    z 0.000000 0.000000 1.932430 
# 
# From -- ./inp_files/1478.got.cif
#   From: 2010.03.12/outbox.cif.g09.slc.cpg/sg86_1_cif.got.tgz:1478.got - 2010.04.08 20:12:58.
