data_PCOD8303789
_publ_section_title
;
Structure prediction by ZEFSAII (Michael W. Deem and Ramdas Pophale) SiO2 
 PCOD8303789
Probable space group: I 4/M
;
_chemical_formula_sum "Si O2"
_cell_formula_units_Z 96
_cell_length_a 23.273322
_cell_length_b 23.273322
_cell_length_c 9.133331
_cell_angle_alpha 90.000000
_cell_angle_beta 90.000000
_cell_angle_gamma 90.000000
_cell_volume 4947.046057
_symmetry_space_group_name_H-M "I 4/M"
_symmetry_group_IT_number 87
_symmetry_cell_setting 'tetragonal'
loop_
_space_group_symop_operation_xyz
x,y,z
-y,x,z
-x,-y,z
y,-x,z
-x,-y,-z
y,-x,-z
x,y,-z
-y,x,-z
1/2+x,1/2+y,1/2+z
1/2-y,1/2+x,1/2+z
1/2-x,1/2-y,1/2+z
1/2+y,1/2-x,1/2+z
1/2-x,1/2-y,1/2-z
1/2+y,1/2-x,1/2-z
1/2+x,1/2+y,1/2-z
1/2-y,1/2+x,1/2-z
loop_
_atom_site_type_symbol
_atom_site_label
_atom_site_fract_x
_atom_site_fract_y
_atom_site_fract_z
Si Si1 0.211169 0.957794 0.829481
Si Si2 0.912253 0.365134 0.328769
Si Si3 0.213630 0.332368 0.667232
Si Si4 0.023164 0.338956 0.827341
Si Si5 0.004200 0.090897 0.825431
Si Si6 0.328905 0.275858 0.333947
O O1 0.273414 0.975417 0.764129
O O2 0.156336 0.992144 0.762091
O O3 0.197987 0.890865 0.799754
O O4 0.215097 0.970823 0.000000
O O5 0.921534 0.358512 0.500000
O O6 0.885885 0.306395 0.264385
O O7 0.869523 0.416922 0.289049
O O8 0.973795 0.374988 0.253614
O O9 0.195668 0.343579 0.500000
O O10 0.282485 0.326801 0.683200
O O11 0.183561 0.274241 0.719974
O O12 0.011855 0.340341 0.000000
O O13 0.946103 0.059665 0.771234
O O14 0.006348 0.093100 0.000000
O O15 0.326918 0.250274 0.500000
#
# Coordination Sequence:
#
# PCOD8303789 Si02
#       6
#    16  16  16  16  16  16
#     4   9  16  30  51  74 106 143 180 224 270 317
#     4  11  23  40  59  79 110 142 178 230 280 333
#     4  10  19  31  53  81 109 143 182 219 266 332
#     4  10  22  39  58  79 104 138 181 227 277 338
#     4   8  14  24  41  70 106 142 179 218 260 307
#     4   9  17  31  51  78 110 144 181 222 271 321
#
# _framework density 19.405519999999999
#
# number of rings (size 3 to 8) (size 9 to 14) (size 15 to 20)
#    0.000    2.500    1.667    1.500    0.000    3.667 
#    0.000    6.667    0.000    0.000    0.000    0.000 
#    0.000    0.000    0.000    8.833    0.000    8.333 
#
# Total GULP energy -594986.659199 kJ/mol
# GULP energy per Si atom -12395.555400 kJ/mol
# Density = 1.936135 g / cm^3
# Si number density = 19.405520 Si / 1000 Ang^3
#
#
#
# Elastic Constant Matrix: (Units=GPa)
#
#
# Indices 1 2 3 4 5 6 
#
# 1 100.6622 40.4879 31.7502 0.0000 0.0000 -9.0987
# 2 40.4879 100.6622 31.7502 0.0000 0.0000 9.0987
# 3 31.7502 31.7502 45.5681 0.0000 0.0000 0.0000
# 4 0.0000 0.0000 0.0000 23.9579 0.0000 0.0000
# 5 0.0000 0.0000 0.0000 0.0000 23.9579 0.0000
# 6 -9.0987 9.0987 0.0000 0.0000 0.0000 20.3668
#
#
#
# Elastic Compliance Matrix: (Units=1/GPa)
#
#
# Indices 1 2 3 4 5 6 
#
# 1 0.014767 -0.004447 -0.007190 0.000000 0.000000 0.008584
# 2 -0.004447 0.014767 -0.007190 0.000000 0.000000 -0.008584
# 3 -0.007190 -0.007190 0.031965 0.000000 0.000000 0.000000
# 4 0.000000 0.000000 0.000000 0.041740 0.000000 0.000000
# 5 0.000000 0.000000 0.000000 0.000000 0.041740 0.000000
# 6 0.008584 -0.008584 0.000000 0.000000 0.000000 0.056769
#
#
# Mechanical properties :
#
#
# Convention : Reuss Voigt Hill
#
# Bulk Modulus (GPa) = 41.94109 50.54099 46.24104
# Shear Modulus (GPa) = 20.21421 23.18345 21.69883
#
# Velocity S-wave (km/s) = 3.23100 3.46017 3.34755
# Velocity P-wave (km/s) = 5.96482 6.48574 6.23073
#
# Compressibility (1/GPa) = 0.02384297
#
# Stress axis : x y z
#
# Youngs Moduli (GPa) = 67.71945 67.71945 31.28431
#
# Poissons Ratio (x) = 0.30118 0.22494
# Poissons Ratio (y) = 0.30118 0.22494
# Poissons Ratio (z) = 0.48691 0.48691
#
# Static dielectric constant tensor:
#      x y z
#    x 3.677230 0.000000 0.000000 
#    y 0.000000 3.677230 0.000000 
#    z 0.000000 0.000000 3.182250 
# 
# 
# High freq. dielectric constant tensor:
#      x y z
#    x 1.755710 0.000000 0.000000 
#    y 0.000000 1.755710 0.000000 
#    z 0.000000 0.000000 1.711740 
# 
# From -- ./inp_files/1351.got.cif
#   From: 2010.03.12/outbox.cif.g09.slc.cpg/sg87_1_cif.got.tgz:1351.got - 2010.04.08 20:16:13.
