data_PCOD8303953
_publ_section_title
;
Structure prediction by ZEFSAII (Michael W. Deem and Ramdas Pophale) SiO2 
 PCOD8303953
Probable space group: I 4/M
;
_chemical_formula_sum "Si O2"
_cell_formula_units_Z 96
_cell_length_a 14.536438
_cell_length_b 14.536438
_cell_length_c 23.598735
_cell_angle_alpha 90.000000
_cell_angle_beta 90.000000
_cell_angle_gamma 90.000000
_cell_volume 4986.602197
_symmetry_space_group_name_H-M "I 4/M"
_symmetry_group_IT_number 87
_symmetry_cell_setting 'tetragonal'
loop_
_space_group_symop_operation_xyz
x,y,z
-y,x,z
-x,-y,z
y,-x,z
-x,-y,-z
y,-x,-z
x,y,-z
-y,x,-z
1/2+x,1/2+y,1/2+z
1/2-y,1/2+x,1/2+z
1/2-x,1/2-y,1/2+z
1/2+y,1/2-x,1/2+z
1/2-x,1/2-y,1/2-z
1/2+y,1/2-x,1/2-z
1/2+x,1/2+y,1/2-z
1/2-y,1/2+x,1/2-z
loop_
_atom_site_type_symbol
_atom_site_label
_atom_site_fract_x
_atom_site_fract_y
_atom_site_fract_z
Si Si1 0.283619 0.812480 0.618774
Si Si2 0.525978 0.223377 0.000000
Si Si3 0.178996 0.211985 0.500000
Si Si4 0.710909 0.660541 0.278700
Si Si5 0.891684 0.493594 0.107946
Si Si6 0.587939 0.621425 0.186010
Si Si7 0.364815 0.046195 0.730020
O O1 0.260550 0.777900 0.555554
O O2 0.322518 0.723570 0.653810
O O3 0.192643 0.858685 0.645916
O O4 0.365040 0.887158 0.616921
O O5 0.430777 0.278281 0.000000
O O6 0.604440 0.299885 0.000000
O O7 0.537241 0.159139 0.945474
O O8 0.750000 0.750000 0.250000
O O9 0.608272 0.644254 0.253260
O O10 0.768396 0.572415 0.257367
O O11 0.861626 0.554083 0.162103
O O12 0.000000 0.500000 0.098408
O O13 0.480328 0.626898 0.172751
O O14 0.441328 0.114889 0.753946
#
# Coordination Sequence:
#
# PCOD8303953 Si02
#       7
#    16   8   8  16  16  16  16
#     4  10  21  38  55  83 117 153 196 248 293 348
#     4  10  25  39  58  78 116 158 202 247 281 352
#     4  10  24  39  56  82 114 157 202 242 286 342
#     4  10  21  33  54  78 111 149 187 236 292 346
#     4  11  20  37  58  84 113 148 195 245 301 355
#     4  10  22  37  56  83 120 158 197 238 286 349
#     4  11  19  33  56  85 112 141 187 239 300 364
#
# _framework density 19.251584999999999
#
# number of rings (size 3 to 8) (size 9 to 14) (size 15 to 20)
#    0.000    1.667    3.333    1.250   11.667    0.167 
#    0.000    0.000    0.000    0.000    0.000    0.000 
#    0.000    1.333    0.000    0.000    0.000    0.000 
#
# Total GULP energy -594943.082781 kJ/mol
# GULP energy per Si atom -12394.647558 kJ/mol
# Density = 1.920777 g / cm^3
# Si number density = 19.251585 Si / 1000 Ang^3
#
#
#
# Elastic Constant Matrix: (Units=GPa)
#
#
# Indices 1 2 3 4 5 6 
#
# 1 59.2236 16.8789 35.4088 0.0000 0.0000 10.9927
# 2 16.8789 59.2236 35.4088 0.0000 0.0000 -10.9927
# 3 35.4088 35.4088 166.0125 0.0000 0.0000 0.0000
# 4 0.0000 0.0000 0.0000 21.4680 0.0000 0.0000
# 5 0.0000 0.0000 0.0000 0.0000 21.4680 0.0000
# 6 10.9927 -10.9927 0.0000 0.0000 0.0000 25.6869
#
#
#
# Elastic Compliance Matrix: (Units=1/GPa)
#
#
# Indices 1 2 3 4 5 6 
#
# 1 0.023378 -0.006984 -0.003497 0.000000 0.000000 -0.012993
# 2 -0.006984 0.023378 -0.003497 0.000000 0.000000 0.012993
# 3 -0.003497 -0.003497 0.007515 0.000000 0.000000 0.000000
# 4 0.000000 0.000000 0.000000 0.046581 0.000000 0.000000
# 5 0.000000 0.000000 0.000000 0.000000 0.046581 0.000000
# 6 -0.012993 0.012993 0.000000 0.000000 0.000000 0.050051
#
#
# Mechanical properties :
#
#
# Convention : Reuss Voigt Hill
#
# Bulk Modulus (GPa) = 37.99885 51.09474 44.54680
# Shear Modulus (GPa) = 21.34828 26.84213 24.09521
#
# Velocity S-wave (km/s) = 3.33364 3.73806 3.54163
# Velocity P-wave (km/s) = 5.88205 6.72525 6.31773
#
# Compressibility (1/GPa) = 0.02631658
#
# Stress axis : x y z
#
# Youngs Moduli (GPa) = 42.77540 42.77540 133.06275
#
# Poissons Ratio (x) = 0.29874 0.46528
# Poissons Ratio (y) = 0.29874 0.46528
# Poissons Ratio (z) = 0.14957 0.14957
#
# Static dielectric constant tensor:
#      x y z
#    x 3.485330 0.000000 0.000000 
#    y 0.000000 3.485330 0.000000 
#    z 0.000000 0.000000 3.974820 
# 
# 
# High freq. dielectric constant tensor:
#      x y z
#    x 1.738120 0.000000 0.000000 
#    y 0.000000 1.738120 0.000000 
#    z 0.000000 0.000000 1.751070 
# 
# From -- ./inp_files/5330.got.cif
#   From: 2010.03.12/outbox.cif.g09.slc.cpg/sg87_3_cif.got.tgz:5330.got - 2010.04.08 20:16:13.
