data_PCOD8303772
_publ_section_title
;
Structure prediction by ZEFSAII (Michael W. Deem and Ramdas Pophale) SiO2 
 PCOD8303772
Probable space group: I 4/M
;
_chemical_formula_sum "Si O2"
_cell_formula_units_Z 112
_cell_length_a 16.700635
_cell_length_b 16.700635
_cell_length_c 21.801203
_cell_angle_alpha 90.000000
_cell_angle_beta 90.000000
_cell_angle_gamma 90.000000
_cell_volume 6080.599895
_symmetry_space_group_name_H-M "I 4/M"
_symmetry_group_IT_number 87
_symmetry_cell_setting 'tetragonal'
loop_
_space_group_symop_operation_xyz
x,y,z
-y,x,z
-x,-y,z
y,-x,z
-x,-y,-z
y,-x,-z
x,y,-z
-y,x,-z
1/2+x,1/2+y,1/2+z
1/2-y,1/2+x,1/2+z
1/2-x,1/2-y,1/2+z
1/2+y,1/2-x,1/2+z
1/2-x,1/2-y,1/2-z
1/2+y,1/2-x,1/2-z
1/2+x,1/2+y,1/2-z
1/2-y,1/2+x,1/2-z
loop_
_atom_site_type_symbol
_atom_site_label
_atom_site_fract_x
_atom_site_fract_y
_atom_site_fract_z
Si Si1 0.773028 0.206646 0.932038
Si Si2 0.589947 0.164039 0.432386
Si Si3 0.988974 0.127638 0.188316
Si Si4 0.662523 0.099247 0.319051
Si Si5 0.708462 0.278419 0.187093
Si Si6 0.701686 0.477369 0.568049
Si Si7 0.056927 0.720816 0.259684
O O1 0.849997 0.261853 0.925843
O O2 0.717488 0.222954 0.873213
O O3 0.802894 0.117061 0.925753
O O4 0.732216 0.220065 0.000000
O O5 0.592903 0.124384 0.500000
O O6 0.614313 0.096169 0.383467
O O7 0.504173 0.205497 0.418974
O O8 0.987608 0.217100 0.215182
O O9 0.072347 0.085630 0.208664
O O10 0.984772 0.138160 0.115037
O O11 0.752672 0.134849 0.327735
O O12 0.611574 0.155516 0.273955
O O13 0.670027 0.008667 0.296588
O O14 0.750000 0.250000 0.250000
O O15 0.612773 0.276971 0.197198
O O16 0.677224 0.507041 0.500000
#
# Coordination Sequence:
#
# PCOD8303772 Si02
#       7
#    16  16  16  16  16  16  16
#     4   9  18  32  52  76 105 141 182 223 263 320
#     4   9  17  32  51  75 104 138 180 217 261 317
#     4  11  23  34  50  77 113 148 179 224 272 323
#     4  10  21  36  55  79 102 140 173 220 276 319
#     4   9  20  34  56  79 102 138 182 222 269 325
#     4  10  19  30  50  76 109 148 182 218 259 317
#     4  11  22  36  54  78 105 137 180 227 270 329
#
# _framework density 18.419235
#
# number of rings (size 3 to 8) (size 9 to 14) (size 15 to 20)
#    0.000    2.143    1.429    1.714    8.000    2.000 
#    0.000    1.429    0.000    0.000    0.000    4.000 
#    0.000    0.000    0.000   17.429    0.000    0.000 
#
# Total GULP energy -693865.488565 kJ/mol
# GULP energy per Si atom -12390.455153 kJ/mol
# Density = 1.837731 g / cm^3
# Si number density = 18.419235 Si / 1000 Ang^3
#
#
#
# Elastic Constant Matrix: (Units=GPa)
#
#
# Indices 1 2 3 4 5 6 
#
# 1 77.1143 21.6065 29.8515 0.0000 0.0000 7.7664
# 2 21.6065 77.1143 29.8515 0.0000 0.0000 -7.7664
# 3 29.8515 29.8515 100.6133 0.0000 0.0000 0.0000
# 4 0.0000 0.0000 0.0000 25.1761 0.0000 0.0000
# 5 0.0000 0.0000 0.0000 0.0000 25.1761 0.0000
# 6 7.7664 -7.7664 0.0000 0.0000 0.0000 17.9673
#
#
#
# Elastic Compliance Matrix: (Units=1/GPa)
#
#
# Indices 1 2 3 4 5 6 
#
# 1 0.016419 -0.004075 -0.003663 0.000000 0.000000 -0.008859
# 2 -0.004075 0.016419 -0.003663 0.000000 0.000000 0.008859
# 3 -0.003663 -0.003663 0.012112 0.000000 0.000000 0.000000
# 4 0.000000 0.000000 0.000000 0.039720 0.000000 0.000000
# 5 0.000000 0.000000 0.000000 0.000000 0.039720 0.000000
# 6 -0.008859 0.008859 0.000000 0.000000 0.000000 0.063315
#
#
# Mechanical properties :
#
#
# Convention : Reuss Voigt Hill
#
# Bulk Modulus (GPa) = 45.14421 46.38454 45.76438
# Shear Modulus (GPa) = 22.94729 25.23275 24.09002
#
# Velocity S-wave (km/s) = 3.53347 3.70525 3.62038
# Velocity P-wave (km/s) = 6.41947 6.59867 6.50969
#
# Compressibility (1/GPa) = 0.02215123
#
# Stress axis : x y z
#
# Youngs Moduli (GPa) = 60.90324 60.90324 82.56017
#
# Poissons Ratio (x) = 0.24818 0.30238
# Poissons Ratio (y) = 0.24818 0.30238
# Poissons Ratio (z) = 0.22306 0.22306
#
# Static dielectric constant tensor:
#      x y z
#    x 3.272100 0.000000 0.000000 
#    y 0.000000 3.272100 0.000000 
#    z 0.000000 0.000000 3.773130 
# 
# 
# High freq. dielectric constant tensor:
#      x y z
#    x 1.692910 0.000000 0.000000 
#    y 0.000000 1.692910 0.000000 
#    z 0.000000 0.000000 1.717350 
# 
# From -- ./inp_files/5889.got.cif
#   From: 2010.03.12/outbox.cif.g09.slc.cpg/sg87_3_cif.got.tgz:5889.got - 2010.04.08 20:16:13.
