data_PCOD8303194
_publ_section_title
;
Structure prediction by ZEFSAII (Michael W. Deem and Ramdas Pophale) SiO2 
 PCOD8303194
Probable space group: P 42/M
;
_chemical_formula_sum "Si O2"
_cell_formula_units_Z 40
_cell_length_a 15.684824
_cell_length_b 15.684824
_cell_length_c 8.972389
_cell_angle_alpha 90.000000
_cell_angle_beta 90.000000
_cell_angle_gamma 90.000000
_cell_volume 2207.330651
_symmetry_space_group_name_H-M "P 42/M"
_symmetry_group_IT_number 84
_symmetry_cell_setting 'tetragonal'
loop_
_space_group_symop_operation_xyz
x,y,z
-y,x,1/2+z
-x,-y,z
y,-x,1/2+z
-x,-y,-z
y,-x,1/2-z
x,y,-z
-y,x,1/2-z
loop_
_atom_site_type_symbol
_atom_site_label
_atom_site_fract_x
_atom_site_fract_y
_atom_site_fract_z
Si Si1 0.908399 0.468833 0.325860
Si Si2 0.716817 0.847437 0.827112
Si Si3 0.255687 0.476165 0.826517
Si Si4 0.664462 0.682886 0.326613
Si Si5 0.113987 0.052461 0.177016
O O1 0.896522 0.486379 0.500000
O O2 0.898918 0.369011 0.287079
O O3 0.838993 0.525386 0.240573
O O4 0.000000 0.500000 0.269060
O O5 0.722139 0.759774 0.735658
O O6 0.795701 0.906478 0.781603
O O7 0.719616 0.822851 0.000000
O O8 0.299776 0.565960 0.791206
O O9 0.313339 0.404851 0.752142
O O10 0.248879 0.457495 0.000000
O O11 0.683317 0.674316 0.500000
O O12 0.040233 0.111490 0.246767
O O13 0.100641 0.043922 0.000000
#
# Coordination Sequence:
#
# PCOD8303194 Si02
#       5
#     8   8   8   8   8
#     4   9  18  34  55  78 105 138 175 214 258 309
#     4   9  19  35  53  75 104 135 170 215 262 307
#     4  10  21  36  54  78 107 138 174 216 260 306
#     4  10  21  36  55  78 104 137 174 212 257 309
#     4  10  20  34  52  75 104 138 175 216 261 308
#
# _framework density 18.121435999999999
#
# number of rings (size 3 to 8) (size 9 to 14) (size 15 to 20)
#    0.000    2.400    0.000    2.400    0.000    6.400 
#    0.000    4.000    0.000    0.000    0.000    0.000 
#    0.000    0.000    0.000    0.000    0.000    0.000 
#
# Total GULP energy -496140.744396 kJ/mol
# GULP energy per Si atom -12403.518610 kJ/mol
# Density = 1.808019 g / cm^3
# Si number density = 18.121436 Si / 1000 Ang^3
#
#
#
# Elastic Constant Matrix: (Units=GPa)
#
#
# Indices 1 2 3 4 5 6 
#
# 1 110.5269 62.8726 55.7638 0.0000 0.0000 14.9094
# 2 62.8726 110.5269 55.7638 0.0000 0.0000 -14.9094
# 3 55.7638 55.7638 85.4802 0.0000 0.0000 0.0000
# 4 0.0000 0.0000 0.0000 29.7104 0.0000 0.0000
# 5 0.0000 0.0000 0.0000 0.0000 29.7104 0.0000
# 6 14.9094 -14.9094 0.0000 0.0000 0.0000 30.8980
#
#
#
# Elastic Compliance Matrix: (Units=1/GPa)
#
#
# Indices 1 2 3 4 5 6 
#
# 1 0.019999 -0.010062 -0.006482 0.000000 0.000000 -0.014506
# 2 -0.010062 0.019999 -0.006482 0.000000 0.000000 0.014506
# 3 -0.006482 -0.006482 0.020156 0.000000 0.000000 0.000000
# 4 0.000000 0.000000 0.000000 0.033658 0.000000 0.000000
# 5 0.000000 0.000000 0.000000 0.000000 0.033658 0.000000
# 6 -0.014506 0.014506 0.000000 0.000000 0.000000 0.046363
#
#
# Mechanical properties :
#
#
# Convention : Reuss Voigt Hill
#
# Bulk Modulus (GPa) = 70.92072 72.81490 71.86781
# Shear Modulus (GPa) = 22.26327 26.87270 24.56799
#
# Velocity S-wave (km/s) = 3.50888 3.85505 3.68603
# Velocity P-wave (km/s) = 7.45907 7.75139 7.60664
#
# Compressibility (1/GPa) = 0.01410025
#
# Stress axis : x y z
#
# Youngs Moduli (GPa) = 50.00362 50.00362 49.61388
#
# Poissons Ratio (x) = 0.50316 0.32159
# Poissons Ratio (y) = 0.50316 0.32159
# Poissons Ratio (z) = 0.32412 0.32412
#
# Static dielectric constant tensor:
#      x y z
#    x 3.371010 0.000000 0.000000 
#    y 0.000000 3.371010 0.000000 
#    z 0.000000 0.000000 3.414700 
# 
# 
# High freq. dielectric constant tensor:
#      x y z
#    x 1.703490 0.000000 0.000000 
#    y 0.000000 1.703490 0.000000 
#    z 0.000000 0.000000 1.710030 
# 
# From -- ./inp_files/730.got.cif
#   From: 2010.03.12/outbox.cif.g09.slc.cpg/sg84_1_cif.got.tgz:730.got - 2010.04.08 20:07:29.
