data_PCOD8303057
_publ_section_title
;
Structure prediction by ZEFSAII (Michael W. Deem and Ramdas Pophale) SiO2 
 PCOD8303057
Probable space group: P 42/M
;
_chemical_formula_sum "Si O2"
_cell_formula_units_Z 60
_cell_length_a 15.474168
_cell_length_b 15.474168
_cell_length_c 13.673922
_cell_angle_alpha 90.000000
_cell_angle_beta 90.000000
_cell_angle_gamma 90.000000
_cell_volume 3274.218918
_symmetry_space_group_name_H-M "P 42/M"
_symmetry_group_IT_number 84
_symmetry_cell_setting 'tetragonal'
loop_
_space_group_symop_operation_xyz
x,y,z
-y,x,1/2+z
-x,-y,z
y,-x,1/2+z
-x,-y,-z
y,-x,1/2-z
x,y,-z
-y,x,1/2-z
loop_
_atom_site_type_symbol
_atom_site_label
_atom_site_fract_x
_atom_site_fract_y
_atom_site_fract_z
Si Si1 0.015085 0.314074 0.782361
Si Si2 0.431500 0.292636 0.747650
Si Si3 0.500000 0.000000 0.210537
Si Si4 0.526021 0.171464 0.890729
Si Si5 0.184589 0.275388 0.889778
Si Si6 0.326854 0.415693 0.114614
Si Si7 0.126656 0.277442 0.607864
Si Si8 0.267172 0.180125 0.282891
O O1 0.083620 0.288496 0.865750
O O2 0.045345 0.272116 0.679914
O O3 0.013813 0.417761 0.779424
O O4 0.921096 0.276849 0.803587
O O5 0.498031 0.246260 0.819116
O O6 0.485182 0.321179 0.651457
O O7 0.394976 0.371186 0.812061
O O8 0.358690 0.227771 0.708103
O O9 0.482622 0.081324 0.140505
O O10 0.628632 0.168778 0.884510
O O11 0.493567 0.192371 0.000000
O O12 0.235170 0.366006 0.874629
O O13 0.226723 0.200611 0.823379
O O14 0.193200 0.242055 0.000000
O O15 0.356370 0.414744 0.000000
O O16 0.091530 0.257217 0.500000
O O17 0.202205 0.211077 0.633426
#
# Coordination Sequence:
#
# PCOD8303057 Si02
#       8
#     8   8   4   8   8   8   8   8
#     4  10  19  33  56  83 109 140 177 224 271 324
#     4  11  20  37  55  78 108 147 184 232 269 320
#     4  10  17  30  47  82 116 136 169 224 277 316
#     4  10  18  30  51  78 110 144 176 220 273 321
#     4   9  20  38  55  77 113 149 179 221 274 329
#     4  10  22  39  57  78 107 146 188 229 278 330
#     4   9  20  36  52  76 111 142 172 219 275 320
#     4  10  20  34  57  81 106 141 184 218 264 325
#
# _framework density 18.324981000000001
#
# number of rings (size 3 to 8) (size 9 to 14) (size 15 to 20)
#    0.000    2.133    1.333    3.800    0.000    2.933 
#    0.000    2.333    0.000    6.400    0.000    7.467 
#    0.000    0.000    0.000    0.000    0.000    0.000 
#
# Total GULP energy -743920.287381 kJ/mol
# GULP energy per Si atom -12398.671456 kJ/mol
# Density = 1.828327 g / cm^3
# Si number density = 18.324981 Si / 1000 Ang^3
#
#
#
# Elastic Constant Matrix: (Units=GPa)
#
#
# Indices 1 2 3 4 5 6 
#
# 1 80.2803 25.7963 18.7631 0.0000 0.0000 4.8781
# 2 25.7963 80.2803 18.7631 0.0000 0.0000 -4.8781
# 3 18.7631 18.7631 64.9404 0.0000 0.0000 0.0000
# 4 0.0000 0.0000 0.0000 18.7722 0.0000 0.0000
# 5 0.0000 0.0000 0.0000 0.0000 18.7722 0.0000
# 6 4.8781 -4.8781 0.0000 0.0000 0.0000 18.8169
#
#
#
# Elastic Compliance Matrix: (Units=1/GPa)
#
#
# Indices 1 2 3 4 5 6 
#
# 1 0.014874 -0.004374 -0.003034 0.000000 0.000000 -0.004990
# 2 -0.004374 0.014874 -0.003034 0.000000 0.000000 0.004990
# 3 -0.003034 -0.003034 0.017152 0.000000 0.000000 0.000000
# 4 0.000000 0.000000 0.000000 0.053270 0.000000 0.000000
# 5 0.000000 0.000000 0.000000 0.000000 0.053270 0.000000
# 6 -0.004990 0.004990 0.000000 0.000000 0.000000 0.055731
#
#
# Mechanical properties :
#
#
# Convention : Reuss Voigt Hill
#
# Bulk Modulus (GPa) = 38.43606 39.12736 38.78171
# Shear Modulus (GPa) = 20.94449 22.08415 21.51432
#
# Velocity S-wave (km/s) = 3.38442 3.47528 3.43015
# Velocity P-wave (km/s) = 6.02433 6.12386 6.07430
#
# Compressibility (1/GPa) = 0.02601724
#
# Stress axis : x y z
#
# Youngs Moduli (GPa) = 67.23150 67.23150 58.30264
#
# Poissons Ratio (x) = 0.29404 0.17688
# Poissons Ratio (y) = 0.29404 0.17688
# Poissons Ratio (z) = 0.20397 0.20397
#
# Static dielectric constant tensor:
#      x y z
#    x 3.304840 0.000000 0.000000 
#    y 0.000000 3.304840 0.000000 
#    z 0.000000 0.000000 3.464160 
# 
# 
# High freq. dielectric constant tensor:
#      x y z
#    x 1.701000 0.000000 0.000000 
#    y 0.000000 1.701000 0.000000 
#    z 0.000000 0.000000 1.710620 
# 
# From -- ./inp_files/3180.got.cif
#   From: 2010.03.12/outbox.cif.g09.slc.cpg/sg84_2_cif.got.tgz:3180.got - 2010.04.08 20:07:29.
