data_PCOD8303900
_publ_section_title
;
Structure prediction by ZEFSAII (Michael W. Deem and Ramdas Pophale) SiO2 
 PCOD8303900
Probable space group: I 4/M
;
_chemical_formula_sum "Si O2"
_cell_formula_units_Z 96
_cell_length_a 23.529618
_cell_length_b 23.529618
_cell_length_c 8.707047
_cell_angle_alpha 90.000000
_cell_angle_beta 90.000000
_cell_angle_gamma 90.000000
_cell_volume 4820.594954
_symmetry_space_group_name_H-M "I 4/M"
_symmetry_group_IT_number 87
_symmetry_cell_setting 'tetragonal'
loop_
_space_group_symop_operation_xyz
x,y,z
-y,x,z
-x,-y,z
y,-x,z
-x,-y,-z
y,-x,-z
x,y,-z
-y,x,-z
1/2+x,1/2+y,1/2+z
1/2-y,1/2+x,1/2+z
1/2-x,1/2-y,1/2+z
1/2+y,1/2-x,1/2+z
1/2-x,1/2-y,1/2-z
1/2+y,1/2-x,1/2-z
1/2+x,1/2+y,1/2-z
1/2-y,1/2+x,1/2-z
loop_
_atom_site_type_symbol
_atom_site_label
_atom_site_fract_x
_atom_site_fract_y
_atom_site_fract_z
Si Si1 0.976204 0.831100 0.183690
Si Si2 0.677646 0.282613 0.676230
Si Si3 0.715581 0.165396 0.320267
Si Si4 0.501708 0.914003 0.182261
Si Si5 0.708793 0.040795 0.681976
Si Si6 0.124975 0.092726 0.824156
O O1 0.982615 0.767206 0.247061
O O2 0.921507 0.865034 0.252420
O O3 0.029199 0.869902 0.242696
O O4 0.975251 0.825838 0.000000
O O5 0.698984 0.283812 0.500000
O O6 0.675089 0.217350 0.736883
O O7 0.720316 0.320259 0.775103
O O8 0.616578 0.311120 0.694502
O O9 0.711088 0.159409 0.500000
O O10 0.698072 0.104587 0.250600
O O11 0.446187 0.941361 0.260198
O O12 0.504572 0.847143 0.228863
O O13 0.498101 0.921534 0.000000
O O14 0.716318 0.040867 0.500000
O O15 0.106233 0.088873 0.000000
#
# Coordination Sequence:
#
# PCOD8303900 Si02
#       6
#    16  16  16  16  16  16
#     4  10  20  35  55  78 105 141 181 227 276 325
#     4   9  16  29  48  72 100 130 168 209 255 315
#     4   9  17  29  48  72 101 134 165 207 260 311
#     4  10  21  38  59  83 113 148 186 224 265 315
#     4  10  21  36  54  81 112 142 179 223 271 323
#     4   9  18  32  52  78 105 135 178 225 269 320
#
# _framework density 19.914555
#
# number of rings (size 3 to 8) (size 9 to 14) (size 15 to 20)
#    0.000    2.500    1.667    1.000    0.000    3.000 
#    0.000    6.667    0.000    4.000    0.000    1.167 
#    0.000    0.000    0.000    0.000    0.000    0.000 
#
# Total GULP energy -594668.829504 kJ/mol
# GULP energy per Si atom -12388.933948 kJ/mol
# Density = 1.986923 g / cm^3
# Si number density = 19.914555 Si / 1000 Ang^3
#
#
#
# Elastic Constant Matrix: (Units=GPa)
#
#
# Indices 1 2 3 4 5 6 
#
# 1 114.4758 50.5352 14.6557 0.0000 0.0000 4.8887
# 2 50.5352 114.4758 14.6557 0.0000 0.0000 -4.8887
# 3 14.6557 14.6557 16.0310 0.0000 0.0000 0.0000
# 4 0.0000 0.0000 0.0000 22.3224 0.0000 0.0000
# 5 0.0000 0.0000 0.0000 0.0000 22.3224 0.0000
# 6 4.8887 -4.8887 0.0000 0.0000 0.0000 18.7929
#
#
#
# Elastic Compliance Matrix: (Units=1/GPa)
#
#
# Indices 1 2 3 4 5 6 
#
# 1 0.011761 -0.004526 -0.006614 0.000000 0.000000 -0.004237
# 2 -0.004526 0.011761 -0.006614 0.000000 0.000000 0.004237
# 3 -0.006614 -0.006614 0.074473 0.000000 0.000000 0.000000
# 4 0.000000 0.000000 0.000000 0.044798 0.000000 0.000000
# 5 0.000000 0.000000 0.000000 0.000000 0.044798 0.000000
# 6 -0.004237 0.004237 0.000000 0.000000 0.000000 0.055416
#
#
# Mechanical properties :
#
#
# Convention : Reuss Voigt Hill
#
# Bulk Modulus (GPa) = 16.00370 44.96400 30.48385
# Shear Modulus (GPa) = 16.70308 23.69662 20.19985
#
# Velocity S-wave (km/s) = 2.89924 3.45326 3.18830
# Velocity P-wave (km/s) = 4.38874 6.20705 5.37534
#
# Compressibility (1/GPa) = 0.06248557
#
# Stress axis : x y z
#
# Youngs Moduli (GPa) = 85.02483 85.02483 13.42767
#
# Poissons Ratio (x) = 0.38483 0.08882
# Poissons Ratio (y) = 0.38483 0.08882
# Poissons Ratio (z) = 0.56239 0.56239
#
# Static dielectric constant tensor:
#      x y z
#    x 3.837620 0.000000 0.000000 
#    y 0.000000 3.837620 0.000000 
#    z 0.000000 0.000000 3.325920 
# 
# 
# High freq. dielectric constant tensor:
#      x y z
#    x 1.777570 0.000000 0.000000 
#    y 0.000000 1.777570 0.000000 
#    z 0.000000 0.000000 1.742640 
# 
# From -- ./inp_files/1362.got.cif
#   From: 2010.03.12/outbox.cif.g09.slc.cpg/sg87_1_cif.got.tgz:1362.got - 2010.04.08 20:16:13.
