data_PCOD8303251
_publ_section_title
;
Structure prediction by ZEFSAII (Michael W. Deem and Ramdas Pophale) SiO2 
 PCOD8303251
Probable space group: P 42/M
;
_chemical_formula_sum "Si O2"
_cell_formula_units_Z 44
_cell_length_a 8.721205
_cell_length_b 8.721205
_cell_length_c 25.518371
_cell_angle_alpha 90.000000
_cell_angle_beta 90.000000
_cell_angle_gamma 90.000000
_cell_volume 1940.912412
_symmetry_space_group_name_H-M "P 42/M"
_symmetry_group_IT_number 84
_symmetry_cell_setting 'tetragonal'
loop_
_space_group_symop_operation_xyz
x,y,z
-y,x,1/2+z
-x,-y,z
y,-x,1/2+z
-x,-y,-z
y,-x,1/2-z
x,y,-z
-y,x,1/2-z
loop_
_atom_site_type_symbol
_atom_site_label
_atom_site_fract_x
_atom_site_fract_y
_atom_site_fract_z
Si Si1 0.213013 0.142795 0.500000
Si Si2 0.244794 0.810432 0.202930
Si Si3 0.292819 0.639122 0.597755
Si Si4 0.709924 0.363281 0.097503
Si Si5 0.000000 0.000000 0.250000
Si Si6 0.425762 0.187864 0.793357
Si Si7 0.789847 0.869038 0.000000
Si Si8 0.500000 0.500000 0.250000
O O1 0.315141 0.181971 0.550109
O O2 0.052189 0.234208 0.500000
O O3 0.179350 0.964540 0.500000
O O4 0.229439 0.729995 0.147388
O O5 0.184273 0.691358 0.246312
O O6 0.409953 0.905417 0.210533
O O7 0.131388 0.952372 0.208939
O O8 0.454142 0.726462 0.606760
O O9 0.320246 0.463100 0.583002
O O10 0.187565 0.655044 0.650087
O O11 0.197078 0.712260 0.551555
O O12 0.515434 0.355446 0.789194
#
# Coordination Sequence:
#
# PCOD8303251 Si02
#       8
#     4   8   8   8   2   8   4   2
#     4  11  26  43  56  80 128 173 200 239 300 366
#     4  10  22  40  63  91 124 160 199 244 299 358
#     4  10  20  38  68  97 116 146 204 264 305 352
#     4  10  21  40  66  94 121 152 198 257 310 357
#     4  12  28  40  52  86 136 172 200 236 288 366
#     4   9  17  36  65  92 118 152 197 249 300 349
#     4  11  26  43  60  86 122 165 206 245 296 362
#     4   8  12  28  60  94 120 140 180 240 304 350
#
# _framework density 22.669753
#
# number of rings (size 3 to 8) (size 9 to 14) (size 15 to 20)
#    0.000    2.000    0.000    5.455    0.000    9.455 
#    0.000    5.455    0.000    0.000    0.000    0.000 
#    0.000    0.000    0.000    0.000    0.000    0.000 
#
# Total GULP energy -545564.693224 kJ/mol
# GULP energy per Si atom -12399.197573 kJ/mol
# Density = 2.261816 g / cm^3
# Si number density = 22.669753 Si / 1000 Ang^3
#
#
#
# Elastic Constant Matrix: (Units=GPa)
#
#
# Indices 1 2 3 4 5 6 
#
# 1 66.2931 53.8362 49.9926 0.0000 0.0000 -0.4514
# 2 53.8362 66.2931 49.9926 0.0000 0.0000 0.4514
# 3 49.9926 49.9926 169.7732 0.0000 0.0000 0.0000
# 4 0.0000 0.0000 0.0000 18.4248 0.0000 0.0000
# 5 0.0000 0.0000 0.0000 0.0000 18.4248 0.0000
# 6 -0.4514 0.4514 0.0000 0.0000 0.0000 39.6679
#
#
#
# Elastic Compliance Matrix: (Units=1/GPa)
#
#
# Indices 1 2 3 4 5 6 
#
# 1 0.045685 -0.034658 -0.003247 0.000000 0.000000 0.000914
# 2 -0.034658 0.045685 -0.003247 0.000000 0.000000 -0.000914
# 3 -0.003247 -0.003247 0.007803 0.000000 0.000000 0.000000
# 4 0.000000 0.000000 0.000000 0.054275 0.000000 0.000000
# 5 0.000000 0.000000 0.000000 0.000000 0.054275 0.000000
# 6 0.000914 -0.000914 0.000000 0.000000 0.000000 0.025230
#
#
# Mechanical properties :
#
#
# Convention : Reuss Voigt Hill
#
# Bulk Modulus (GPa) = 59.28341 67.77802 63.53071
# Shear Modulus (GPa) = 15.58217 25.20603 20.39410
#
# Velocity S-wave (km/s) = 2.62459 3.33810 3.00262
# Velocity P-wave (km/s) = 5.94914 6.69478 6.33295
#
# Compressibility (1/GPa) = 0.01686813
#
# Stress axis : x y z
#
# Youngs Moduli (GPa) = 21.88896 21.88896 128.16362
#
# Poissons Ratio (x) = 0.75863 0.41616
# Poissons Ratio (y) = 0.75863 0.41616
# Poissons Ratio (z) = 0.07108 0.07108
#
# Static dielectric constant tensor:
#      x y z
#    x 4.482380 0.000000 0.000000 
#    y 0.000000 4.482380 0.000000 
#    z 0.000000 0.000000 4.025150 
# 
# 
# High freq. dielectric constant tensor:
#      x y z
#    x 1.909260 0.000000 0.000000 
#    y 0.000000 1.909260 0.000000 
#    z 0.000000 0.000000 1.893310 
# 
# From -- ./inp_files/5724.got.cif
#   From: 2010.03.12/outbox.cif.g09.slc.cpg/sg84_3_cif.got.tgz:5724.got - 2010.04.08 20:07:29.
