data_PCOD8303517
_publ_section_title
;
Structure prediction by ZEFSAII (Michael W. Deem and Ramdas Pophale) SiO2 
 PCOD8303517
Probable space group: P 42/N
;
_chemical_formula_sum "Si O2"
_cell_formula_units_Z 40
_cell_length_a 20.694615
_cell_length_b 20.694615
_cell_length_c 5.173594
_cell_angle_alpha 90.000000
_cell_angle_beta 90.000000
_cell_angle_gamma 90.000000
_cell_volume 2215.680047
_symmetry_space_group_name_H-M "P 42/N"
_symmetry_group_IT_number 86
_space_group.IT_coordinate_system_code '2'
_symmetry_cell_setting 'tetragonal'
loop_
_space_group_symop_operation_xyz
x,y,z
-y,1/2+x,1/2+z
1/2-x,1/2-y,z
1/2+y,-x,1/2+z
-x,-y,-z
y,1/2-x,1/2-z
1/2+x,1/2+y,-z
1/2-y,x,1/2-z
loop_
_atom_site_type_symbol
_atom_site_label
_atom_site_fract_x
_atom_site_fract_y
_atom_site_fract_z
Si Si1 0.500893 0.586912 0.747588
Si Si2 0.050922 0.432512 0.749190
Si Si3 0.327017 0.608803 0.297913
Si Si4 0.968582 0.322956 0.682298
Si Si5 0.581362 0.297355 0.452948
O O1 0.553952 0.586836 0.518001
O O2 0.460112 0.521666 0.740328
O O3 0.454724 0.648220 0.710246
O O4 0.536907 0.593822 0.021197
O O5 0.040087 0.355485 0.697624
O O6 0.336183 0.564519 0.545941
O O7 0.366111 0.674727 0.345689
O O8 0.250496 0.620573 0.242483
O O9 0.358284 0.572556 0.048501
O O10 0.970844 0.246261 0.614492
#
# Coordination Sequence:
#
# PCOD8303517 Si02
#       5
#     8   8   8   8   8
#     4  10  21  32  58  78 104 138 185 226 286 331
#     4  10  20  34  54  81 104 136 179 234 281 333
#     4  10  23  35  57  72 111 147 193 221 264 318
#     4  10  22  36  56  75 113 142 180 236 268 324
#     4  10  24  37  59  76 113 150 193 228 274 316
#
# _framework density 18.053148
#
# number of rings (size 3 to 8) (size 9 to 14) (size 15 to 20)
#    1.200    0.800    2.000    1.200   11.200    0.000 
#    0.000    3.000    0.000    0.000    0.000    0.000 
#    0.000    4.800    0.000    0.000    0.000    0.000 
#
# Total GULP energy -495551.295528 kJ/mol
# GULP energy per Si atom -12388.782388 kJ/mol
# Density = 1.801206 g / cm^3
# Si number density = 18.053148 Si / 1000 Ang^3
#
#
#
# Elastic Constant Matrix: (Units=GPa)
#
#
# Indices 1 2 3 4 5 6 
#
# 1 68.2643 48.2902 28.1431 0.0000 0.0000 -11.2812
# 2 48.2902 68.2643 28.1431 0.0000 0.0000 11.2812
# 3 28.1431 28.1431 121.7088 0.0000 0.0000 0.0000
# 4 0.0000 0.0000 0.0000 20.1933 0.0000 0.0000
# 5 0.0000 0.0000 0.0000 0.0000 20.1933 0.0000
# 6 -11.2812 11.2812 0.0000 0.0000 0.0000 19.2476
#
#
#
# Elastic Compliance Matrix: (Units=1/GPa)
#
#
# Indices 1 2 3 4 5 6 
#
# 1 0.078902 -0.069244 -0.002233 0.000000 0.000000 0.086829
# 2 -0.069244 0.078902 -0.002233 0.000000 0.000000 -0.086829
# 3 -0.002233 -0.002233 0.009249 0.000000 0.000000 0.000000
# 4 0.000000 0.000000 0.000000 0.049521 0.000000 0.000000
# 5 0.000000 0.000000 0.000000 0.000000 0.049521 0.000000
# 6 0.086829 -0.086829 0.000000 0.000000 0.000000 0.153737
#
#
# Mechanical properties :
#
#
# Convention : Reuss Voigt Hill
#
# Bulk Modulus (GPa) = 50.93637 51.93225 51.43431
# Shear Modulus (GPa) = 8.71389 22.17091 15.44240
#
# Velocity S-wave (km/s) = 2.19938 3.50821 2.92787
# Velocity P-wave (km/s) = 5.89285 6.72598 6.32315
#
# Compressibility (1/GPa) = 0.01963234
#
# Stress axis : x y z
#
# Youngs Moduli (GPa) = 12.67398 12.67398 108.11804
#
# Poissons Ratio (x) = 0.87759 0.24146
# Poissons Ratio (y) = 0.87759 0.24146
# Poissons Ratio (z) = 0.02830 0.02830
#
# Static dielectric constant tensor:
#      x y z
#    x 3.197520 0.000000 0.000000 
#    y 0.000000 3.197520 0.000000 
#    z 0.000000 0.000000 3.610390 
# 
# 
# High freq. dielectric constant tensor:
#      x y z
#    x 1.662910 0.000000 0.000000 
#    y 0.000000 1.662910 0.000000 
#    z 0.000000 0.000000 1.724930 
# 
# From -- ./inp_files/365.got.cif
#   From: 2010.03.12/outbox.cif.g09.slc.cpg/sg86_1_cif.got.tgz:365.got - 2010.04.08 20:12:58.
