data_PCOD8303206
_publ_section_title
;
Structure prediction by ZEFSAII (Michael W. Deem and Ramdas Pophale) SiO2 
 PCOD8303206
Probable space group: P 42/M
;
_chemical_formula_sum "Si O2"
_cell_formula_units_Z 40
_cell_length_a 12.563922
_cell_length_b 12.563922
_cell_length_c 13.816839
_cell_angle_alpha 90.000000
_cell_angle_beta 90.000000
_cell_angle_gamma 90.000000
_cell_volume 2181.017549
_symmetry_space_group_name_H-M "P 42/M"
_symmetry_group_IT_number 84
_symmetry_cell_setting 'tetragonal'
loop_
_space_group_symop_operation_xyz
x,y,z
-y,x,1/2+z
-x,-y,z
y,-x,1/2+z
-x,-y,-z
y,-x,1/2-z
x,y,-z
-y,x,1/2-z
loop_
_atom_site_type_symbol
_atom_site_label
_atom_site_fract_x
_atom_site_fract_y
_atom_site_fract_z
Si Si1 0.884104 0.996536 0.613425
Si Si2 0.794665 0.753735 0.111522
Si Si3 0.204287 0.754235 0.113034
Si Si4 0.622690 0.874308 0.775866
Si Si5 0.622934 0.124676 0.776997
O O1 0.894108 0.977579 0.500000
O O2 0.822722 0.894492 0.654042
O O3 0.827594 0.106119 0.637491
O O4 0.000000 0.000000 0.662201
O O5 0.689070 0.819860 0.137542
O O6 0.812634 0.649160 0.177089
O O7 0.790378 0.718599 0.000000
O O8 0.189791 0.646442 0.175623
O O9 0.310739 0.820722 0.136029
O O10 0.200102 0.725340 0.000000
O O11 0.499866 0.857551 0.801445
O O12 0.649906 0.999604 0.767894
#
# Coordination Sequence:
#
# PCOD8303206 Si02
#       5
#     8   8   8   8   8
#     4   9  16  28  49  77 108 139 173 214 266 332
#     4  10  20  35  54  80 111 147 187 227 276 331
#     4  10  20  35  54  80 111 147 187 227 276 331
#     4  10  21  36  54  81 115 149 186 229 277 330
#     4  10  21  36  54  81 115 149 186 229 277 330
#
# _framework density 18.340063000000001
#
# number of rings (size 3 to 8) (size 9 to 14) (size 15 to 20)
#    0.000    2.200    2.000    1.200    0.000    4.000 
#    0.000    4.000    0.000    9.600    0.000   11.200 
#    0.000    0.000    0.000    0.000    0.000    0.000 
#
# Total GULP energy -495863.395795 kJ/mol
# GULP energy per Si atom -12396.584895 kJ/mol
# Density = 1.829832 g / cm^3
# Si number density = 18.340063 Si / 1000 Ang^3
#
#
#
# Elastic Constant Matrix: (Units=GPa)
#
#
# Indices 1 2 3 4 5 6 
#
# 1 88.9129 26.8518 11.8296 0.0000 0.0000 -0.6839
# 2 26.8518 88.9129 11.8296 0.0000 0.0000 0.6839
# 3 11.8296 11.8296 74.2089 0.0000 0.0000 0.0000
# 4 0.0000 0.0000 0.0000 20.0731 0.0000 0.0000
# 5 0.0000 0.0000 0.0000 0.0000 20.0731 0.0000
# 6 -0.6839 0.6839 0.0000 0.0000 0.0000 23.9687
#
#
#
# Elastic Compliance Matrix: (Units=1/GPa)
#
#
# Indices 1 2 3 4 5 6 
#
# 1 0.012526 -0.003597 -0.001423 0.000000 0.000000 0.000460
# 2 -0.003597 0.012526 -0.001423 0.000000 0.000000 -0.000460
# 3 -0.001423 -0.001423 0.013929 0.000000 0.000000 0.000000
# 4 0.000000 0.000000 0.000000 0.049818 0.000000 0.000000
# 5 0.000000 0.000000 0.000000 0.000000 0.049818 0.000000
# 6 0.000460 -0.000460 0.000000 0.000000 0.000000 0.041747
#
#
# Mechanical properties :
#
#
# Convention : Reuss Voigt Hill
#
# Bulk Modulus (GPa) = 38.32306 39.22854 38.77580
# Shear Modulus (GPa) = 24.75853 26.25789 25.50821
#
# Velocity S-wave (km/s) = 3.67818 3.78792 3.73345
# Velocity P-wave (km/s) = 6.24339 6.36923 6.30662
#
# Compressibility (1/GPa) = 0.02609395
#
# Stress axis : x y z
#
# Youngs Moduli (GPa) = 79.83265 79.83265 71.79125
#
# Poissons Ratio (x) = 0.28717 0.10219
# Poissons Ratio (y) = 0.28717 0.10219
# Poissons Ratio (z) = 0.11363 0.11363
#
# Static dielectric constant tensor:
#      x y z
#    x 3.338870 0.000000 0.000000 
#    y 0.000000 3.338870 0.000000 
#    z 0.000000 0.000000 3.236310 
# 
# 
# High freq. dielectric constant tensor:
#      x y z
#    x 1.699190 0.000000 0.000000 
#    y 0.000000 1.699190 0.000000 
#    z 0.000000 0.000000 1.715060 
# 
# From -- ./inp_files/2884.got.cif
#   From: 2010.03.12/outbox.cif.g09.slc.cpg/sg84_2_cif.got.tgz:2884.got - 2010.04.08 20:07:29.
