data_PCOD8303711
_publ_section_title
;
Structure prediction by ZEFSAII (Michael W. Deem and Ramdas Pophale) SiO2 
 PCOD8303711
Probable space group: P 42/N
;
_chemical_formula_sum "Si O2"
_cell_formula_units_Z 40
_cell_length_a 9.251445
_cell_length_b 9.251445
_cell_length_c 22.047781
_cell_angle_alpha 90.000000
_cell_angle_beta 90.000000
_cell_angle_gamma 90.000000
_cell_volume 1887.052700
_symmetry_space_group_name_H-M "P 42/N"
_symmetry_group_IT_number 86
_space_group.IT_coordinate_system_code '2'
_symmetry_cell_setting 'tetragonal'
loop_
_space_group_symop_operation_xyz
x,y,z
-y,1/2+x,1/2+z
1/2-x,1/2-y,z
1/2+y,-x,1/2+z
-x,-y,-z
y,1/2-x,1/2-z
1/2+x,1/2+y,-z
1/2-y,x,1/2-z
loop_
_atom_site_type_symbol
_atom_site_label
_atom_site_fract_x
_atom_site_fract_y
_atom_site_fract_z
Si Si1 0.163039 0.398134 0.066180
Si Si2 0.055779 0.499346 0.747631
Si Si3 0.280874 0.412699 0.844694
Si Si4 0.915541 0.222291 0.317459
Si Si5 0.102522 0.830269 0.451071
O O1 0.250000 0.250000 0.055746
O O2 0.226747 0.478429 0.124885
O O3 0.992383 0.365083 0.072234
O O4 0.181045 0.502551 0.009379
O O5 0.199498 0.460503 0.783800
O O6 0.072814 0.445297 0.677840
O O7 0.034308 0.669792 0.736461
O O8 0.932111 0.426387 0.786862
O O9 0.250000 0.250000 0.867058
O O10 0.255247 0.523043 0.898214
O O11 0.750000 0.250000 0.338080
O O12 0.250000 0.750000 0.466969
#
# Coordination Sequence:
#
# PCOD8303711 Si02
#       5
#     8   8   8   8   8
#     4  11  27  50  70 103 136 179 229 288 347 405
#     4  12  25  41  68 101 143 184 229 274 348 406
#     4  12  22  44  68 102 135 185 232 279 331 413
#     4  12  26  44  68 100 143 181 226 286 342 407
#     4  11  27  48  75  99 136 180 233 284 343 413
#
# _framework density 21.197078000000001
#
# number of rings (size 3 to 8) (size 9 to 14) (size 15 to 20)
#    0.000    0.400    6.000    1.200    8.400    0.800 
#    0.000    0.000    0.000    0.000    0.000    0.000 
#    0.000    0.000    0.000    0.000    0.000    0.000 
#
# Total GULP energy -496027.796296 kJ/mol
# GULP energy per Si atom -12400.694907 kJ/mol
# Density = 2.114883 g / cm^3
# Si number density = 21.197078 Si / 1000 Ang^3
#
#
#
# Elastic Constant Matrix: (Units=GPa)
#
#
# Indices 1 2 3 4 5 6 
#
# 1 82.7748 31.8026 25.2316 0.0000 0.0000 0.4297
# 2 31.8026 82.7748 25.2316 0.0000 0.0000 -0.4297
# 3 25.2316 25.2316 67.9220 0.0000 0.0000 0.0000
# 4 0.0000 0.0000 0.0000 22.0857 0.0000 0.0000
# 5 0.0000 0.0000 0.0000 0.0000 22.0857 0.0000
# 6 0.4297 -0.4297 0.0000 0.0000 0.0000 36.6402
#
#
#
# Elastic Compliance Matrix: (Units=1/GPa)
#
#
# Indices 1 2 3 4 5 6 
#
# 1 0.015029 -0.004594 -0.003876 0.000000 0.000000 -0.000230
# 2 -0.004594 0.015029 -0.003876 0.000000 0.000000 0.000230
# 3 -0.003876 -0.003876 0.017603 0.000000 0.000000 0.000000
# 4 0.000000 0.000000 0.000000 0.045278 0.000000 0.000000
# 5 0.000000 0.000000 0.000000 0.000000 0.045278 0.000000
# 6 -0.000230 0.000230 0.000000 0.000000 0.000000 0.027298
#
#
# Mechanical properties :
#
#
# Convention : Reuss Voigt Hill
#
# Bulk Modulus (GPa) = 43.54033 44.22260 43.88147
# Shear Modulus (GPa) = 25.27001 26.24271 25.75636
#
# Velocity S-wave (km/s) = 3.45649 3.52239 3.48960
# Velocity P-wave (km/s) = 6.04277 6.11971 6.08136
#
# Compressibility (1/GPa) = 0.02296721
#
# Stress axis : x y z
#
# Youngs Moduli (GPa) = 66.53932 66.53932 56.80919
#
# Poissons Ratio (x) = 0.30566 0.22021
# Poissons Ratio (y) = 0.30566 0.22021
# Poissons Ratio (z) = 0.25793 0.25793
#
# Static dielectric constant tensor:
#      x y z
#    x 3.995810 0.000000 0.000000 
#    y 0.000000 3.995810 0.000000 
#    z 0.000000 0.000000 3.776610 
# 
# 
# High freq. dielectric constant tensor:
#      x y z
#    x 1.843690 0.000000 0.000000 
#    y 0.000000 1.843690 0.000000 
#    z 0.000000 0.000000 1.832990 
# 
# From -- ./inp_files/4502.got.cif
#   From: 2010.03.12/outbox.cif.g09.slc.cpg/sg86_3_cif.got.tgz:4502.got - 2010.04.08 20:12:58.
