data_PCOD8303922
_publ_section_title
;
Structure prediction by ZEFSAII (Michael W. Deem and Ramdas Pophale) SiO2 
 PCOD8303922
Probable space group: I 4/M
;
_chemical_formula_sum "Si O2"
_cell_formula_units_Z 112
_cell_length_a 15.272144
_cell_length_b 15.272144
_cell_length_c 22.338200
_cell_angle_alpha 90.000000
_cell_angle_beta 90.000000
_cell_angle_gamma 90.000000
_cell_volume 5210.125633
_symmetry_space_group_name_H-M "I 4/M"
_symmetry_group_IT_number 87
_symmetry_cell_setting 'tetragonal'
loop_
_space_group_symop_operation_xyz
x,y,z
-y,x,z
-x,-y,z
y,-x,z
-x,-y,-z
y,-x,-z
x,y,-z
-y,x,-z
1/2+x,1/2+y,1/2+z
1/2-y,1/2+x,1/2+z
1/2-x,1/2-y,1/2+z
1/2+y,1/2-x,1/2+z
1/2-x,1/2-y,1/2-z
1/2+y,1/2-x,1/2-z
1/2+x,1/2+y,1/2-z
1/2-y,1/2+x,1/2-z
loop_
_atom_site_type_symbol
_atom_site_label
_atom_site_fract_x
_atom_site_fract_y
_atom_site_fract_z
Si Si1 0.180657 0.289631 0.568407
Si Si2 0.947200 0.133718 0.262937
Si Si3 0.302743 0.046460 0.677731
Si Si4 0.626515 0.808142 0.251914
Si Si5 0.614860 0.420176 0.928920
Si Si6 0.329938 0.706796 0.325835
Si Si7 0.512837 0.899303 0.067777
O O1 0.210043 0.275542 0.500000
O O2 0.134531 0.199952 0.593149
O O3 0.269302 0.317797 0.604092
O O4 0.114143 0.371720 0.573421
O O5 0.913520 0.204570 0.312803
O O6 0.927086 0.175093 0.196267
O O7 0.048519 0.112340 0.272177
O O8 0.375942 0.100060 0.713628
O O9 0.296941 0.954171 0.709137
O O10 0.332917 0.043457 0.608757
O O11 0.629700 0.735018 0.304270
O O12 0.706227 0.799855 0.207028
O O13 0.620832 0.521986 0.905695
O O14 0.615383 0.422391 0.000000
O O15 0.500000 0.000000 0.088283
O O16 0.478677 0.886380 0.000000
#
# Coordination Sequence:
#
# PCOD8303922 Si02
#       7
#    16  16  16  16  16  16  16
#     4  10  20  36  62  89 127 181 227 271 326 396
#     4  10  21  40  69  99 127 165 210 269 346 413
#     4  11  22  38  64  95 129 162 219 268 327 386
#     4  10  22  35  59  92 124 159 205 270 329 380
#     4   8  15  30  54  84 120 168 224 272 322 394
#     4  10  20  40  59  88 130 163 211 270 332 389
#     4  10  23  41  60  87 130 180 223 264 320 387
#
# _framework density 21.496600999999998
#
# number of rings (size 3 to 8) (size 9 to 14) (size 15 to 20)
#    0.000    2.143    2.857    0.429    2.000    1.143 
#    0.000    2.143    0.000    6.857    0.000    4.000 
#    0.000    0.000    0.000    0.000    0.000    0.000 
#
# Total GULP energy -693780.576086 kJ/mol
# GULP energy per Si atom -12388.938859 kJ/mol
# Density = 2.144767 g / cm^3
# Si number density = 21.496601 Si / 1000 Ang^3
#
#
#
# Elastic Constant Matrix: (Units=GPa)
#
#
# Indices 1 2 3 4 5 6 
#
# 1 87.6961 38.6331 42.9357 0.0000 0.0000 1.5150
# 2 38.6331 87.6961 42.9357 0.0000 0.0000 -1.5150
# 3 42.9357 42.9357 109.2811 0.0000 0.0000 0.0000
# 4 0.0000 0.0000 0.0000 30.4528 0.0000 0.0000
# 5 0.0000 0.0000 0.0000 0.0000 30.4528 0.0000
# 6 1.5150 -1.5150 0.0000 0.0000 0.0000 30.9212
#
#
#
# Elastic Compliance Matrix: (Units=1/GPa)
#
#
# Indices 1 2 3 4 5 6 
#
# 1 0.015622 -0.004822 -0.004243 0.000000 0.000000 -0.001002
# 2 -0.004822 0.015622 -0.004243 0.000000 0.000000 0.001002
# 3 -0.004243 -0.004243 0.012485 0.000000 0.000000 0.000000
# 4 0.000000 0.000000 0.000000 0.032838 0.000000 0.000000
# 5 0.000000 0.000000 0.000000 0.000000 0.032838 0.000000
# 6 -0.001002 0.001002 0.000000 0.000000 0.000000 0.032438
#
#
# Mechanical properties :
#
#
# Convention : Reuss Voigt Hill
#
# Bulk Modulus (GPa) = 58.43792 59.29802 58.86797
# Shear Modulus (GPa) = 28.70861 29.04328 28.87595
#
# Velocity S-wave (km/s) = 3.65841 3.67967 3.66905
# Velocity P-wave (km/s) = 6.71483 6.76003 6.73747
#
# Compressibility (1/GPa) = 0.01711218
#
# Stress axis : x y z
#
# Youngs Moduli (GPa) = 64.01230 64.01230 80.09587
#
# Poissons Ratio (x) = 0.30866 0.33987
# Poissons Ratio (y) = 0.30866 0.33987
# Poissons Ratio (z) = 0.27162 0.27162
#
# Static dielectric constant tensor:
#      x y z
#    x 4.084270 0.000000 0.000000 
#    y 0.000000 4.084270 0.000000 
#    z 0.000000 0.000000 3.974550 
# 
# 
# High freq. dielectric constant tensor:
#      x y z
#    x 1.835880 0.000000 0.000000 
#    y 0.000000 1.835880 0.000000 
#    z 0.000000 0.000000 1.832730 
# 
# From -- ./inp_files/5900.got.cif
#   From: 2010.03.12/outbox.cif.g09.slc.cpg/sg87_3_cif.got.tgz:5900.got - 2010.04.08 20:16:13.
