data_PCOD8303633
_publ_section_title
;
Structure prediction by ZEFSAII (Michael W. Deem and Ramdas Pophale) SiO2 
 PCOD8303633
Probable space group: P 42/N
;
_chemical_formula_sum "Si O2"
_cell_formula_units_Z 34
_cell_length_a 9.231952
_cell_length_b 9.231952
_cell_length_c 18.908906
_cell_angle_alpha 90.000000
_cell_angle_beta 90.000000
_cell_angle_gamma 90.000000
_cell_volume 1611.585972
_symmetry_space_group_name_H-M "P 42/N"
_symmetry_group_IT_number 86
_space_group.IT_coordinate_system_code '2'
_symmetry_cell_setting 'tetragonal'
loop_
_space_group_symop_operation_xyz
x,y,z
-y,1/2+x,1/2+z
1/2-x,1/2-y,z
1/2+y,-x,1/2+z
-x,-y,-z
y,1/2-x,1/2-z
1/2+x,1/2+y,-z
1/2-y,x,1/2-z
loop_
_atom_site_type_symbol
_atom_site_label
_atom_site_fract_x
_atom_site_fract_y
_atom_site_fract_z
Si Si1 0.250000 0.250000 0.750000
Si Si2 0.823881 0.599895 0.970480
Si Si3 0.997006 0.043465 0.721720
Si Si4 0.257340 0.583853 0.165007
Si Si5 0.878679 0.139285 0.579001
O O1 0.359848 0.357931 0.709798
O O2 0.750000 0.750000 0.973549
O O3 0.757130 0.509664 0.905541
O O4 0.993067 0.639549 0.965723
O O5 0.787534 0.521109 0.044763
O O6 0.911161 0.056206 0.795889
O O7 0.889179 0.097882 0.660988
O O8 0.042902 0.875858 0.716457
O O9 0.250000 0.750000 0.141975
O O10 0.750000 0.250000 0.567551
#
# Coordination Sequence:
#
# PCOD8303633 Si02
#       5
#     2   8   8   8   8
#     4  12  24  40  60 100 128 176 216 278 336 400
#     4  10  24  42  66  99 128 174 224 268 330 403
#     4  11  25  40  67  95 132 173 224 272 338 396
#     4  11  23  42  64  94 134 171 218 281 334 395
#     4  10  23  44  65  93 135 173 218 272 329 399
#
# _framework density 21.097232000000002
#
# number of rings (size 3 to 8) (size 9 to 14) (size 15 to 20)
#    0.000    1.412    2.353    1.412    8.235    0.941 
#    0.000    0.000    0.000    0.000    0.000    0.000 
#    0.000    0.000    0.000    0.000    0.000    0.000 
#
# Total GULP energy -421372.805118 kJ/mol
# GULP energy per Si atom -12393.317798 kJ/mol
# Density = 2.104921 g / cm^3
# Si number density = 21.097232 Si / 1000 Ang^3
#
#
#
# Elastic Constant Matrix: (Units=GPa)
#
#
# Indices 1 2 3 4 5 6 
#
# 1 116.5007 55.1287 30.5640 0.0000 0.0000 4.0515
# 2 55.1287 116.5007 30.5640 0.0000 0.0000 -4.0515
# 3 30.5640 30.5640 64.9534 0.0000 0.0000 0.0000
# 4 0.0000 0.0000 0.0000 13.7897 0.0000 0.0000
# 5 0.0000 0.0000 0.0000 0.0000 13.7897 0.0000
# 6 4.0515 -4.0515 0.0000 0.0000 0.0000 40.0997
#
#
#
# Elastic Compliance Matrix: (Units=1/GPa)
#
#
# Indices 1 2 3 4 5 6 
#
# 1 0.011757 -0.004757 -0.003294 0.000000 0.000000 -0.001669
# 2 -0.004757 0.011757 -0.003294 0.000000 0.000000 0.001669
# 3 -0.003294 -0.003294 0.018495 0.000000 0.000000 0.000000
# 4 0.000000 0.000000 0.000000 0.072518 0.000000 0.000000
# 5 0.000000 0.000000 0.000000 0.000000 0.072518 0.000000
# 6 -0.001669 0.001669 0.000000 0.000000 0.000000 0.025275
#
#
# Mechanical properties :
#
#
# Convention : Reuss Voigt Hill
#
# Bulk Modulus (GPa) = 51.76033 58.94093 55.35063
# Shear Modulus (GPa) = 20.70829 25.64904 23.17866
#
# Velocity S-wave (km/s) = 3.13639 3.49055 3.31820
# Velocity P-wave (km/s) = 6.14031 6.65159 6.40106
#
# Compressibility (1/GPa) = 0.01931982
#
# Stress axis : x y z
#
# Youngs Moduli (GPa) = 85.05585 85.05585 54.06763
#
# Poissons Ratio (x) = 0.40464 0.17808
# Poissons Ratio (y) = 0.40464 0.17808
# Poissons Ratio (z) = 0.28015 0.28015
#
# Static dielectric constant tensor:
#      x y z
#    x 4.081880 0.000000 0.000000 
#    y 0.000000 4.081880 0.000000 
#    z 0.000000 0.000000 3.705960 
# 
# 
# High freq. dielectric constant tensor:
#      x y z
#    x 1.838270 0.000000 0.000000 
#    y 0.000000 1.838270 0.000000 
#    z 0.000000 0.000000 1.817200 
# 
# From -- ./inp_files/3973.got.cif
#   From: 2010.03.12/outbox.cif.g09.slc.cpg/sg86_2_cif.got.tgz:3973.got - 2010.04.08 20:12:58.
