data_PCOD8303310
_publ_section_title
;
Structure prediction by ZEFSAII (Michael W. Deem and Ramdas Pophale) SiO2 
 PCOD8303310
Probable space group: P 42/M
;
_chemical_formula_sum "Si O2"
_cell_formula_units_Z 40
_cell_length_a 14.940678
_cell_length_b 14.940678
_cell_length_c 8.573002
_cell_angle_alpha 90.000000
_cell_angle_beta 90.000000
_cell_angle_gamma 90.000000
_cell_volume 1913.698591
_symmetry_space_group_name_H-M "P 42/M"
_symmetry_group_IT_number 84
_symmetry_cell_setting 'tetragonal'
loop_
_space_group_symop_operation_xyz
x,y,z
-y,x,1/2+z
-x,-y,z
y,-x,1/2+z
-x,-y,-z
y,-x,1/2-z
x,y,-z
-y,x,1/2-z
loop_
_atom_site_type_symbol
_atom_site_label
_atom_site_fract_x
_atom_site_fract_y
_atom_site_fract_z
Si Si1 0.386299 0.732828 0.183126
Si Si2 0.103221 0.290349 0.181096
Si Si3 0.254895 0.574032 0.184868
Si Si4 0.108895 0.925662 0.179657
Si Si5 0.947050 0.415778 0.816585
O O1 0.364357 0.823748 0.275212
O O2 0.317494 0.656028 0.236060
O O3 0.486251 0.705034 0.231949
O O4 0.379803 0.750469 0.000000
O O5 0.122920 0.201676 0.281080
O O6 0.004045 0.326932 0.222255
O O7 0.110055 0.266683 0.000000
O O8 0.154008 0.593184 0.248277
O O9 0.257020 0.559903 0.000000
O O10 0.030865 0.882158 0.283093
O O11 0.084728 0.910283 0.000000
O O12 0.000000 0.500000 0.741267
O O13 0.940806 0.431145 0.000000
#
# Coordination Sequence:
#
# PCOD8303310 Si02
#       5
#     8   8   8   8   8
#     4  11  24  40  62  92 124 161 208 266 321 374
#     4  11  22  38  63  91 123 164 205 255 314 376
#     4  10  22  42  64  88 121 163 206 254 316 384
#     4  11  23  41  61  87 123 165 212 257 308 369
#     4   9  17  35  63  88 112 154 200 240 299 367
#
# _framework density 20.901933
#
# number of rings (size 3 to 8) (size 9 to 14) (size 15 to 20)
#    0.000    1.600    2.000    3.600    2.800    2.000 
#    0.000    5.000    0.000    0.000    0.000    0.000 
#    0.000    0.000    0.000    0.000    0.000    0.000 
#
# Total GULP energy -496125.392097 kJ/mol
# GULP energy per Si atom -12403.134802 kJ/mol
# Density = 2.085436 g / cm^3
# Si number density = 20.901933 Si / 1000 Ang^3
#
#
#
# Elastic Constant Matrix: (Units=GPa)
#
#
# Indices 1 2 3 4 5 6 
#
# 1 109.7180 42.4101 22.0403 0.0000 0.0000 -5.6491
# 2 42.4101 109.7180 22.0403 0.0000 0.0000 5.6491
# 3 22.0403 22.0403 55.2572 0.0000 0.0000 0.0000
# 4 0.0000 0.0000 0.0000 30.7125 0.0000 0.0000
# 5 0.0000 0.0000 0.0000 0.0000 30.7125 0.0000
# 6 -5.6491 5.6491 0.0000 0.0000 0.0000 33.1547
#
#
#
# Elastic Compliance Matrix: (Units=1/GPa)
#
#
# Indices 1 2 3 4 5 6 
#
# 1 0.011363 -0.003931 -0.002965 0.000000 0.000000 0.002606
# 2 -0.003931 0.011363 -0.002965 0.000000 0.000000 -0.002606
# 3 -0.002965 -0.002965 0.020462 0.000000 0.000000 0.000000
# 4 0.000000 0.000000 0.000000 0.032560 0.000000 0.000000
# 5 0.000000 0.000000 0.000000 0.000000 0.032560 0.000000
# 6 0.002606 -0.002606 0.000000 0.000000 0.000000 0.031050
#
#
# Mechanical properties :
#
#
# Convention : Reuss Voigt Hill
#
# Bulk Modulus (GPa) = 42.60982 49.74159 46.17571
# Shear Modulus (GPa) = 29.95768 31.46276 30.71022
#
# Velocity S-wave (km/s) = 3.78993 3.88397 3.83724
# Velocity P-wave (km/s) = 6.29137 6.63045 6.46314
#
# Compressibility (1/GPa) = 0.02346877
#
# Stress axis : x y z
#
# Youngs Moduli (GPa) = 88.00129 88.00129 48.87078
#
# Poissons Ratio (x) = 0.34594 0.14488
# Poissons Ratio (y) = 0.34594 0.14488
# Poissons Ratio (z) = 0.26088 0.26088
#
# Static dielectric constant tensor:
#      x y z
#    x 3.820070 0.000000 0.000000 
#    y 0.000000 3.820070 0.000000 
#    z 0.000000 0.000000 3.498440 
# 
# 
# High freq. dielectric constant tensor:
#      x y z
#    x 1.822670 0.000000 0.000000 
#    y 0.000000 1.822670 0.000000 
#    z 0.000000 0.000000 1.796650 
# 
# From -- ./inp_files/765.got.cif
#   From: 2010.03.12/outbox.cif.g09.slc.cpg/sg84_1_cif.got.tgz:765.got - 2010.04.08 20:07:29.
