data_PCOD8303031
_publ_section_title
;
Structure prediction by ZEFSAII (Michael W. Deem and Ramdas Pophale) SiO2 
 PCOD8303031
Probable space group: P 4/M
;
_chemical_formula_sum "Si O2"
_cell_formula_units_Z 36
_cell_length_a 8.820265
_cell_length_b 8.820265
_cell_length_c 23.611586
_cell_angle_alpha 90.000000
_cell_angle_beta 90.000000
_cell_angle_gamma 90.000000
_cell_volume 1836.912319
_symmetry_space_group_name_H-M "P 4/M"
_symmetry_group_IT_number 83
_symmetry_cell_setting 'tetragonal'
loop_
_space_group_symop_operation_xyz
x,y,z
-y,x,z
-x,-y,z
y,-x,z
-x,-y,-z
y,-x,-z
x,y,-z
-y,x,-z
loop_
_atom_site_type_symbol
_atom_site_label
_atom_site_fract_x
_atom_site_fract_y
_atom_site_fract_z
Si Si1 0.741516 0.444413 0.064498
Si Si2 0.265927 0.419733 0.435058
Si Si3 0.239661 0.938224 0.225663
Si Si4 0.000000 0.500000 0.145728
Si Si5 0.925818 0.763690 0.644970
O O1 0.678869 0.612519 0.076137
O O2 0.880597 0.411453 0.106280
O O3 0.798948 0.430885 0.000000
O O4 0.408109 0.310980 0.421862
O O5 0.215160 0.401403 0.500000
O O6 0.124532 0.373956 0.395495
O O7 0.381418 0.908510 0.184796
O O8 0.292270 0.915914 0.290332
O O9 0.107847 0.818332 0.213436
O O10 0.096611 0.813509 0.632224
#
# Coordination Sequence:
#
# PCOD8303031 Si02
#       5
#     8   8   8   4   8
#     4   9  19  35  52  74 107 139 167 207 255 298
#     4   9  19  35  53  75 103 131 162 207 259 303
#     4   9  20  36  50  71 105 137 165 208 260 299
#     4  12  19  30  56  82  97 130 180 214 242 300
#     4   9  19  35  52  71  99 134 170 206 249 304
#
# _framework density 19.598105
#
# number of rings (size 3 to 8) (size 9 to 14) (size 15 to 20)
#    0.000    2.667    0.000    4.333    0.000    5.333 
#    0.000    3.333    0.000    2.667    0.000    9.333 
#    0.000    0.000    0.000    0.000    0.000    0.000 
#
# Total GULP energy -446401.326350 kJ/mol
# GULP energy per Si atom -12400.036843 kJ/mol
# Density = 1.955350 g / cm^3
# Si number density = 19.598105 Si / 1000 Ang^3
#
#
#
# Elastic Constant Matrix: (Units=GPa)
#
#
# Indices 1 2 3 4 5 6 
#
# 1 47.4642 8.4031 40.0957 0.0000 0.0000 2.2303
# 2 8.4031 47.4642 40.0957 0.0000 0.0000 -2.2303
# 3 40.0957 40.0957 105.6214 0.0000 0.0000 0.0000
# 4 0.0000 0.0000 0.0000 31.3697 0.0000 0.0000
# 5 0.0000 0.0000 0.0000 0.0000 31.3697 0.0000
# 6 2.2303 -2.2303 0.0000 0.0000 0.0000 28.0002
#
#
#
# Elastic Compliance Matrix: (Units=1/GPa)
#
#
# Indices 1 2 3 4 5 6 
#
# 1 0.032583 0.006748 -0.014931 0.000000 0.000000 -0.002058
# 2 0.006748 0.032583 -0.014931 0.000000 0.000000 0.002058
# 3 -0.014931 -0.014931 0.020804 0.000000 0.000000 0.000000
# 4 0.000000 0.000000 0.000000 0.031878 0.000000 0.000000
# 5 0.000000 0.000000 0.000000 0.000000 0.031878 0.000000
# 6 -0.002058 0.002058 0.000000 0.000000 0.000000 0.036042
#
#
# Mechanical properties :
#
#
# Convention : Reuss Voigt Hill
#
# Bulk Modulus (GPa) = 25.16181 41.97098 33.56640
# Shear Modulus (GPa) = 20.38789 25.61160 22.99975
#
# Velocity S-wave (km/s) = 3.22887 3.61895 3.42946
# Velocity P-wave (km/s) = 5.17374 6.23897 5.73115
#
# Compressibility (1/GPa) = 0.03974277
#
# Stress axis : x y z
#
# Youngs Moduli (GPa) = 30.69046 30.69046 48.06841
#
# Poissons Ratio (x) = -0.20709 0.71770
# Poissons Ratio (y) = -0.20709 0.71770
# Poissons Ratio (z) = 0.45823 0.45823
#
# Static dielectric constant tensor:
#      x y z
#    x 3.324760 0.000000 0.000000 
#    y 0.000000 3.324760 0.000000 
#    z 0.000000 0.000000 3.497250 
# 
# 
# High freq. dielectric constant tensor:
#      x y z
#    x 1.751900 0.000000 0.000000 
#    y 0.000000 1.751900 0.000000 
#    z 0.000000 0.000000 1.766940 
# 
# From -- ./inp_files/3093.got.cif
#   From: 2010.03.12/outbox.cif.g09.slc.cpg/sg83_2_cif.got.tgz:3093.got - 2010.04.08 20:05:18.
