data_PCOD8303183
_publ_section_title
;
Structure prediction by ZEFSAII (Michael W. Deem and Ramdas Pophale) SiO2 
 PCOD8303183
Probable space group: P 42/M
;
_chemical_formula_sum "Si O2"
_cell_formula_units_Z 64
_cell_length_a 20.202381
_cell_length_b 20.202381
_cell_length_c 8.944371
_cell_angle_alpha 90.000000
_cell_angle_beta 90.000000
_cell_angle_gamma 90.000000
_cell_volume 3650.521574
_symmetry_space_group_name_H-M "P 42/M"
_symmetry_group_IT_number 84
_symmetry_cell_setting 'tetragonal'
loop_
_space_group_symop_operation_xyz
x,y,z
-y,x,1/2+z
-x,-y,z
y,-x,1/2+z
-x,-y,-z
y,-x,1/2-z
x,y,-z
-y,x,1/2-z
loop_
_atom_site_type_symbol
_atom_site_label
_atom_site_fract_x
_atom_site_fract_y
_atom_site_fract_z
Si Si1 0.402668 0.123900 0.825608
Si Si2 0.553879 0.133626 0.825185
Si Si3 0.087144 0.027994 0.829730
Si Si4 0.914941 0.742496 0.666975
Si Si5 0.333405 0.777166 0.834254
Si Si6 0.151926 0.842469 0.671389
Si Si7 0.014836 0.371780 0.822584
Si Si8 0.289538 0.221046 0.175258
O O1 0.477187 0.148270 0.797363
O O2 0.356129 0.184385 0.769250
O O3 0.389804 0.058190 0.731851
O O4 0.389539 0.108147 0.000000
O O5 0.594534 0.199516 0.770742
O O6 0.574595 0.067292 0.738214
O O7 0.570196 0.121004 0.000000
O O8 0.153758 0.071938 0.811749
O O9 0.028296 0.081261 0.795090
O O10 0.079994 0.001616 0.000000
O O11 0.943773 0.750630 0.500000
O O12 0.844433 0.707631 0.667023
O O13 0.902761 0.814940 0.735705
O O14 0.967245 0.701347 0.764280
O O15 0.295345 0.720398 0.740562
O O16 0.340780 0.747756 0.000000
O O17 0.174032 0.851601 0.500000
O O18 0.174405 0.770762 0.729557
O O19 0.016910 0.373022 0.000000
O O20 0.291491 0.230269 0.000000
#
# Coordination Sequence:
#
# PCOD8303183 Si02
#       8
#     8   8   8   8   8   8   8   8
#     4  10  20  33  48  68  97 130 161 192 230 279
#     4   9  18  33  51  69  92 127 167 197 226 274
#     4  10  20  33  47  62  81 106 141 188 239 288
#     4   9  17  30  48  67  87 118 158 191 225 274
#     4   8  15  29  48  67  87 116 153 190 225 263
#     4   9  18  32  48  67  89 112 144 189 238 283
#     4  11  21  31  45  68  98 129 162 199 236 271
#     4   9  18  32  49  69  93 120 148 183 227 270
#
# _framework density 17.531739999999999
#
# number of rings (size 3 to 8) (size 9 to 14) (size 15 to 20)
#    0.000    2.625    0.000    3.375    0.000    7.500 
#    0.000    1.250    0.000    0.000    0.000    0.000 
#    0.000    0.500    0.000    6.250    0.000    0.000 
#
# Total GULP energy -793095.177191 kJ/mol
# GULP energy per Si atom -12392.112144 kJ/mol
# Density = 1.749184 g / cm^3
# Si number density = 17.531740 Si / 1000 Ang^3
#
#
#
# Elastic Constant Matrix: (Units=GPa)
#
#
# Indices 1 2 3 4 5 6 
#
# 1 74.4523 44.3077 27.9206 0.0000 0.0000 -3.2550
# 2 44.3077 74.4523 27.9206 0.0000 0.0000 3.2550
# 3 27.9206 27.9206 71.9206 0.0000 0.0000 0.0000
# 4 0.0000 0.0000 0.0000 19.7871 0.0000 0.0000
# 5 0.0000 0.0000 0.0000 0.0000 19.7871 0.0000
# 6 -3.2550 3.2550 0.0000 0.0000 0.0000 21.5182
#
#
#
# Elastic Compliance Matrix: (Units=1/GPa)
#
#
# Indices 1 2 3 4 5 6 
#
# 1 0.022297 -0.011997 -0.003999 0.000000 0.000000 0.005187
# 2 -0.011997 0.022297 -0.003999 0.000000 0.000000 -0.005187
# 3 -0.003999 -0.003999 0.017009 0.000000 0.000000 0.000000
# 4 0.000000 0.000000 0.000000 0.050538 0.000000 0.000000
# 5 0.000000 0.000000 0.000000 0.000000 0.050538 0.000000
# 6 0.005187 -0.005187 0.000000 0.000000 0.000000 0.048042
#
#
# Mechanical properties :
#
#
# Convention : Reuss Voigt Hill
#
# Bulk Modulus (GPa) = 46.26446 46.79149 46.52798
# Shear Modulus (GPa) = 19.38627 20.26356 19.82491
#
# Velocity S-wave (km/s) = 3.32894 3.40343 3.36639
# Velocity P-wave (km/s) = 6.42044 6.49553 6.45809
#
# Compressibility (1/GPa) = 0.02161486
#
# Stress axis : x y z
#
# Youngs Moduli (GPa) = 44.84878 44.84878 58.79229
#
# Poissons Ratio (x) = 0.53803 0.23510
# Poissons Ratio (y) = 0.53803 0.23510
# Poissons Ratio (z) = 0.17934 0.17934
#
# Static dielectric constant tensor:
#      x y z
#    x 3.299650 0.000000 0.000000 
#    y 0.000000 3.299650 0.000000 
#    z 0.000000 0.000000 3.294660 
# 
# 
# High freq. dielectric constant tensor:
#      x y z
#    x 1.656170 0.000000 0.000000 
#    y 0.000000 1.656170 0.000000 
#    z 0.000000 0.000000 1.674250 
# 
# From -- ./inp_files/1414.got.cif
#   From: 2010.03.12/outbox.cif.g09.slc.cpg/sg84_1_cif.got.tgz:1414.got - 2010.04.08 20:07:29.
