data_PCOD8303500
_publ_section_title
;
Structure prediction by ZEFSAII (Michael W. Deem and Ramdas Pophale) SiO2 
 PCOD8303500
Probable space group: P 42/N
;
_chemical_formula_sum "Si O2"
_cell_formula_units_Z 48
_cell_length_a 8.724582
_cell_length_b 8.724582
_cell_length_c 29.351891
_cell_angle_alpha 90.000000
_cell_angle_beta 90.000000
_cell_angle_gamma 90.000000
_cell_volume 2234.216957
_symmetry_space_group_name_H-M "P 42/N"
_symmetry_group_IT_number 86
_space_group.IT_coordinate_system_code '2'
_symmetry_cell_setting 'tetragonal'
loop_
_space_group_symop_operation_xyz
x,y,z
-y,1/2+x,1/2+z
1/2-x,1/2-y,z
1/2+y,-x,1/2+z
-x,-y,-z
y,1/2-x,1/2-z
1/2+x,1/2+y,-z
1/2-y,x,1/2-z
loop_
_atom_site_type_symbol
_atom_site_label
_atom_site_fract_x
_atom_site_fract_y
_atom_site_fract_z
Si Si1 0.562750 0.916545 0.751349
Si Si2 0.099880 0.351027 0.580284
Si Si3 0.071242 0.733978 0.017104
Si Si4 0.093595 0.563219 0.659612
Si Si5 0.441434 0.553506 0.433826
Si Si6 0.953530 0.091331 0.345771
O O1 0.736857 0.957651 0.738483
O O2 0.448702 0.978473 0.711777
O O3 0.518290 0.003496 0.797359
O O4 0.250000 0.250000 0.592837
O O5 0.129439 0.471768 0.539278
O O6 0.030645 0.436862 0.624574
O O7 0.967352 0.237024 0.563726
O O8 0.250000 0.750000 0.025546
O O9 0.036044 0.578921 0.043231
O O10 0.025366 0.713668 0.963394
O O11 0.013262 0.727284 0.650872
O O12 0.273571 0.564107 0.648065
O O13 0.436421 0.493336 0.382096
#
# Coordination Sequence:
#
# PCOD8303500 Si02
#       6
#     8   8   8   8   8   8
#     4   9  20  38  59  85 121 152 189 236 291 356
#     4  10  19  35  59  84 115 147 196 247 289 347
#     4  10  20  37  58  79 114 158 193 244 300 354
#     4  10  19  35  61  85 108 160 195 234 303 355
#     4  10  21  36  58  83 116 155 194 253 296 345
#     4  10  19  36  60  82 116 152 197 239 293 361
#
# _framework density 21.484036
#
# number of rings (size 3 to 8) (size 9 to 14) (size 15 to 20)
#    0.000    2.167    3.333    1.000    0.000    2.000 
#    3.000    3.333   22.000    0.000    0.000    0.000 
#    0.000    0.000    0.000    0.000    0.000    0.000 
#
# Total GULP energy -594972.269717 kJ/mol
# GULP energy per Si atom -12395.255619 kJ/mol
# Density = 2.143514 g / cm^3
# Si number density = 21.484036 Si / 1000 Ang^3
#
#
#
# Elastic Constant Matrix: (Units=GPa)
#
#
# Indices 1 2 3 4 5 6 
#
# 1 59.7318 23.0983 55.1861 0.0000 0.0000 0.7934
# 2 23.0983 59.7318 55.1861 0.0000 0.0000 -0.7934
# 3 55.1861 55.1861 166.5476 0.0000 0.0000 0.0000
# 4 0.0000 0.0000 0.0000 27.9448 0.0000 0.0000
# 5 0.0000 0.0000 0.0000 0.0000 27.9448 0.0000
# 6 0.7934 -0.7934 0.0000 0.0000 0.0000 15.3477
#
#
#
# Elastic Compliance Matrix: (Units=1/GPa)
#
#
# Indices 1 2 3 4 5 6 
#
# 1 0.024488 -0.002870 -0.007163 0.000000 0.000000 -0.001414
# 2 -0.002870 0.024488 -0.007163 0.000000 0.000000 0.001414
# 3 -0.007163 -0.007163 0.010751 0.000000 0.000000 0.000000
# 4 0.000000 0.000000 0.000000 0.035785 0.000000 0.000000
# 5 0.000000 0.000000 0.000000 0.000000 0.035785 0.000000
# 6 -0.001414 0.001414 0.000000 0.000000 0.000000 0.065303
#
#
# Mechanical properties :
#
#
# Convention : Reuss Voigt Hill
#
# Bulk Modulus (GPa) = 39.47181 61.43912 50.45547
# Shear Modulus (GPa) = 20.88218 24.41684 22.64951
#
# Velocity S-wave (km/s) = 3.12105 3.37488 3.25044
# Velocity P-wave (km/s) = 5.60361 6.62163 6.13378
#
# Compressibility (1/GPa) = 0.02533453
#
# Stress axis : x y z
#
# Youngs Moduli (GPa) = 40.83577 40.83577 93.01139
#
# Poissons Ratio (x) = 0.11722 0.66626
# Poissons Ratio (y) = 0.11722 0.66626
# Poissons Ratio (z) = 0.29251 0.29251
#
# Static dielectric constant tensor:
#      x y z
#    x 3.806590 0.000000 0.000000 
#    y 0.000000 3.806590 0.000000 
#    z 0.000000 0.000000 4.225470 
# 
# 
# High freq. dielectric constant tensor:
#      x y z
#    x 1.826970 0.000000 0.000000 
#    y 0.000000 1.826970 0.000000 
#    z 0.000000 0.000000 1.853730 
# 
# From -- ./inp_files/5144.got.cif
#   From: 2010.03.12/outbox.cif.g09.slc.cpg/sg86_3_cif.got.tgz:5144.got - 2010.04.08 20:12:58.
