data_PCOD8303508
_publ_section_title
;
Structure prediction by ZEFSAII (Michael W. Deem and Ramdas Pophale) SiO2 
 PCOD8303508
Probable space group: P 42/N
;
_chemical_formula_sum "Si O2"
_cell_formula_units_Z 36
_cell_length_a 10.510146
_cell_length_b 10.510146
_cell_length_c 16.285978
_cell_angle_alpha 90.000000
_cell_angle_beta 90.000000
_cell_angle_gamma 90.000000
_cell_volume 1799.000739
_symmetry_space_group_name_H-M "P 42/N"
_symmetry_group_IT_number 86
_space_group.IT_coordinate_system_code '2'
_symmetry_cell_setting 'tetragonal'
loop_
_space_group_symop_operation_xyz
x,y,z
-y,1/2+x,1/2+z
1/2-x,1/2-y,z
1/2+y,-x,1/2+z
-x,-y,-z
y,1/2-x,1/2-z
1/2+x,1/2+y,-z
1/2-y,x,1/2-z
loop_
_atom_site_type_symbol
_atom_site_label
_atom_site_fract_x
_atom_site_fract_y
_atom_site_fract_z
Si Si1 0.941816 0.408685 0.101609
Si Si2 0.615291 0.470992 0.939830
Si Si3 0.163372 0.368715 0.987817
Si Si4 0.145649 0.069064 0.237642
Si Si5 0.750000 0.250000 0.005692
O O1 0.814754 0.344774 0.069614
O O2 0.062047 0.335628 0.059154
O O3 0.959852 0.394534 0.198482
O O4 0.921709 0.560225 0.082143
O O5 0.742354 0.535599 0.969630
O O6 0.587101 0.519407 0.848094
O O7 0.500000 0.500000 0.000000
O O8 0.647354 0.320263 0.946208
O O9 0.250000 0.250000 0.955740
O O10 0.081621 0.201840 0.264413
#
# Coordination Sequence:
#
# PCOD8303508 Si02
#       5
#     8   8   8   8   4
#     4  10  21  36  61  91 116 158 204 248 306 366
#     4  11  22  37  60  88 121 160 201 249 313 369
#     4  10  19  37  62  85 119 158 199 245 305 371
#     4  11  21  36  60  92 119 151 205 262 306 361
#     4  10  22  38  58  86 122 164 198 248 304 374
#
# _framework density 20.011106999999999
#
# number of rings (size 3 to 8) (size 9 to 14) (size 15 to 20)
#    0.000    1.556    2.222    4.000    0.000    0.889 
#    0.000    0.000    0.000    0.000    0.000    0.000 
#    0.000    0.000    0.000    0.000    0.000    0.000 
#
# Total GULP energy -446068.213541 kJ/mol
# GULP energy per Si atom -12390.783709 kJ/mol
# Density = 1.996556 g / cm^3
# Si number density = 20.011107 Si / 1000 Ang^3
#
#
#
# Elastic Constant Matrix: (Units=GPa)
#
#
# Indices 1 2 3 4 5 6 
#
# 1 82.1911 26.0114 45.0944 0.0000 0.0000 4.6396
# 2 26.0114 82.1911 45.0944 0.0000 0.0000 -4.6396
# 3 45.0944 45.0944 145.7811 0.0000 0.0000 0.0000
# 4 0.0000 0.0000 0.0000 26.7861 0.0000 0.0000
# 5 0.0000 0.0000 0.0000 0.0000 26.7861 0.0000
# 6 4.6396 -4.6396 0.0000 0.0000 0.0000 42.1078
#
#
#
# Elastic Compliance Matrix: (Units=1/GPa)
#
#
# Indices 1 2 3 4 5 6 
#
# 1 0.015291 -0.002839 -0.003852 0.000000 0.000000 -0.001998
# 2 -0.002839 0.015291 -0.003852 0.000000 0.000000 0.001998
# 3 -0.003852 -0.003852 0.009243 0.000000 0.000000 0.000000
# 4 0.000000 0.000000 0.000000 0.037333 0.000000 0.000000
# 5 0.000000 0.000000 0.000000 0.000000 0.037333 0.000000
# 6 -0.001998 0.001998 0.000000 0.000000 0.000000 0.024189
#
#
# Mechanical properties :
#
#
# Convention : Reuss Voigt Hill
#
# Bulk Modulus (GPa) = 53.36172 60.28488 56.82330
# Shear Modulus (GPa) = 30.11840 32.06687 31.09263
#
# Velocity S-wave (km/s) = 3.88375 4.00741 3.94606
# Velocity P-wave (km/s) = 6.84363 7.18356 7.01566
#
# Compressibility (1/GPa) = 0.01874002
#
# Stress axis : x y z
#
# Youngs Moduli (GPa) = 65.39674 65.39674 108.19399
#
# Poissons Ratio (x) = 0.18564 0.41676
# Poissons Ratio (y) = 0.18564 0.41676
# Poissons Ratio (z) = 0.25191 0.25191
#
# Static dielectric constant tensor:
#      x y z
#    x 3.748520 0.000000 0.000000 
#    y 0.000000 3.748520 0.000000 
#    z 0.000000 0.000000 3.565750 
# 
# 
# High freq. dielectric constant tensor:
#      x y z
#    x 1.785000 0.000000 0.000000 
#    y 0.000000 1.785000 0.000000 
#    z 0.000000 0.000000 1.756590 
# 
# From -- ./inp_files/2808.got.cif
#   From: 2010.03.12/outbox.cif.g09.slc.cpg/sg86_2_cif.got.tgz:2808.got - 2010.04.08 20:12:58.
