data_PCOD8303269
_publ_section_title
;
Structure prediction by ZEFSAII (Michael W. Deem and Ramdas Pophale) SiO2 
 PCOD8303269
Probable space group: P 42/M
;
_chemical_formula_sum "Si O2"
_cell_formula_units_Z 40
_cell_length_a 16.092003
_cell_length_b 16.092003
_cell_length_c 7.664197
_cell_angle_alpha 90.000000
_cell_angle_beta 90.000000
_cell_angle_gamma 90.000000
_cell_volume 1984.663438
_symmetry_space_group_name_H-M "P 42/M"
_symmetry_group_IT_number 84
_symmetry_cell_setting 'tetragonal'
loop_
_space_group_symop_operation_xyz
x,y,z
-y,x,1/2+z
-x,-y,z
y,-x,1/2+z
-x,-y,-z
y,-x,1/2-z
x,y,-z
-y,x,1/2-z
loop_
_atom_site_type_symbol
_atom_site_label
_atom_site_fract_x
_atom_site_fract_y
_atom_site_fract_z
Si Si1 0.138382 0.808353 0.796437
Si Si2 0.124931 0.547468 0.500000
Si Si3 0.054106 0.371653 0.500000
Si Si4 0.220322 0.636581 0.796323
Si Si5 0.754867 0.043665 0.302831
Si Si6 0.562409 0.609641 0.693157
O O1 0.195035 0.729685 0.744500
O O2 0.171912 0.888496 0.694972
O O3 0.044007 0.791794 0.737035
O O4 0.143883 0.827616 0.000000
O O5 0.117826 0.448064 0.500000
O O6 0.171178 0.571345 0.678077
O O7 0.038312 0.594586 0.500000
O O8 0.071887 0.318312 0.673720
O O9 0.317851 0.625738 0.750344
O O10 0.199780 0.619196 0.000000
O O11 0.719520 0.033915 0.500000
O O12 0.609213 0.521047 0.691642
O O13 0.530022 0.628071 0.500000
#
# Coordination Sequence:
#
# PCOD8303269 Si02
#       6
#     8   4   4   8   8   8
#     4  10  22  42  64  92 129 168 211 265 313 380
#     4  11  24  40  72  86 124 175 202 264 316 373
#     4  11  24  44  62  98 125 164 219 256 311 386
#     4  10  23  41  62  91 125 162 211 261 314 377
#     4  11  24  41  66  95 132 169 209 265 319 374
#     4  10  21  37  58  86 121 159 204 259 314 375
#
# _framework density 20.154551000000001
#
# number of rings (size 3 to 8) (size 9 to 14) (size 15 to 20)
#    0.000    1.600    3.000    1.200    5.600    2.800 
#    0.000    6.000    0.000    0.000    0.000    0.000 
#    0.000    0.000    0.000    0.000    0.000    0.000 
#
# Total GULP energy -496051.641633 kJ/mol
# GULP energy per Si atom -12401.291041 kJ/mol
# Density = 2.010868 g / cm^3
# Si number density = 20.154551 Si / 1000 Ang^3
#
#
#
# Elastic Constant Matrix: (Units=GPa)
#
#
# Indices 1 2 3 4 5 6 
#
# 1 125.2480 81.6944 33.9800 0.0000 0.0000 -12.8725
# 2 81.6944 125.2480 33.9800 0.0000 0.0000 12.8725
# 3 33.9800 33.9800 83.7109 0.0000 0.0000 0.0000
# 4 0.0000 0.0000 0.0000 19.1493 0.0000 0.0000
# 5 0.0000 0.0000 0.0000 0.0000 19.1493 0.0000
# 6 -12.8725 12.8725 0.0000 0.0000 0.0000 33.7908
#
#
#
# Elastic Compliance Matrix: (Units=1/GPa)
#
#
# Indices 1 2 3 4 5 6 
#
# 1 0.017604 -0.012029 -0.002263 0.000000 0.000000 0.011289
# 2 -0.012029 0.017604 -0.002263 0.000000 0.000000 -0.011289
# 3 -0.002263 -0.002263 0.013783 0.000000 0.000000 0.000000
# 4 0.000000 0.000000 0.000000 0.052221 0.000000 0.000000
# 5 0.000000 0.000000 0.000000 0.000000 0.052221 0.000000
# 6 0.011289 -0.011289 0.000000 0.000000 0.000000 0.038194
#
#
# Mechanical properties :
#
#
# Convention : Reuss Voigt Hill
#
# Bulk Modulus (GPa) = 62.96673 70.39063 66.67868
# Shear Modulus (GPa) = 21.73603 26.72139 24.22871
#
# Velocity S-wave (km/s) = 3.28757 3.64514 3.47096
# Velocity P-wave (km/s) = 6.76170 7.26067 7.01562
#
# Compressibility (1/GPa) = 0.01588140
#
# Stress axis : x y z
#
# Youngs Moduli (GPa) = 56.80454 56.80454 72.55186
#
# Poissons Ratio (x) = 0.68329 0.16420
# Poissons Ratio (y) = 0.68329 0.16420
# Poissons Ratio (z) = 0.12856 0.12856
#
# Static dielectric constant tensor:
#      x y z
#    x 3.710210 0.000000 0.000000 
#    y 0.000000 3.710210 0.000000 
#    z 0.000000 0.000000 3.716000 
# 
# 
# High freq. dielectric constant tensor:
#      x y z
#    x 1.783800 0.000000 0.000000 
#    y 0.000000 1.783800 0.000000 
#    z 0.000000 0.000000 1.796170 
# 
# From -- ./inp_files/826.got.cif
#   From: 2010.03.12/outbox.cif.g09.slc.cpg/sg84_1_cif.got.tgz:826.got - 2010.04.08 20:07:29.
