data_PCOD8303990
_publ_section_title
;
Structure prediction by ZEFSAII (Michael W. Deem and Ramdas Pophale) SiO2 
 PCOD8303990
Probable space group: I 4/M
;
_chemical_formula_sum "Si O2"
_cell_formula_units_Z 48
_cell_length_a 17.029084
_cell_length_b 17.029084
_cell_length_c 8.579177
_cell_angle_alpha 90.000000
_cell_angle_beta 90.000000
_cell_angle_gamma 90.000000
_cell_volume 2487.872981
_symmetry_space_group_name_H-M "I 4/M"
_symmetry_group_IT_number 87
_symmetry_cell_setting 'tetragonal'
loop_
_space_group_symop_operation_xyz
x,y,z
-y,x,z
-x,-y,z
y,-x,z
-x,-y,-z
y,-x,-z
x,y,-z
-y,x,-z
1/2+x,1/2+y,1/2+z
1/2-y,1/2+x,1/2+z
1/2-x,1/2-y,1/2+z
1/2+y,1/2-x,1/2+z
1/2-x,1/2-y,1/2-z
1/2+y,1/2-x,1/2-z
1/2+x,1/2+y,1/2-z
1/2-y,1/2+x,1/2-z
loop_
_atom_site_type_symbol
_atom_site_label
_atom_site_fract_x
_atom_site_fract_y
_atom_site_fract_z
Si Si1 0.836598 0.748469 0.315427
Si Si2 0.098471 0.565602 0.816393
Si Si3 0.932397 0.896123 0.685376
O O1 0.832887 0.753103 0.500000
O O2 0.750000 0.750000 0.250000
O O3 0.879274 0.669218 0.260013
O O4 0.884549 0.822561 0.245676
O O5 0.107612 0.482531 0.729724
O O6 0.100735 0.550021 0.000000
O O7 0.931583 0.893314 0.500000
O O8 0.022785 0.892473 0.743754
#
# Coordination Sequence:
#
# PCOD8303990 Si02
#       3
#    16  16  16
#     4  10  22  35  54  83 110 142 180 221 272 324
#     4  10  21  37  57  82 109 146 188 227 278 330
#     4   8  15  30  53  78 102 133 175 218 260 313
#
# _framework density 19.293589000000001
#
# number of rings (size 3 to 8) (size 9 to 14) (size 15 to 20)
#    0.000    2.667    0.000    3.000    4.667    2.667 
#    0.000    0.000    0.000    0.000    0.000    2.333 
#    0.000    0.000    0.000    0.000    0.000    0.000 
#
# Total GULP energy -297569.705119 kJ/mol
# GULP energy per Si atom -12398.737713 kJ/mol
# Density = 1.924968 g / cm^3
# Si number density = 19.293589 Si / 1000 Ang^3
#
#
#
# Elastic Constant Matrix: (Units=GPa)
#
#
# Indices 1 2 3 4 5 6 
#
# 1 171.4288 119.3929 16.0868 0.0000 0.0000 1.8388
# 2 119.3929 171.4288 16.0868 0.0000 0.0000 -1.8388
# 3 16.0868 16.0868 17.5867 0.0000 0.0000 0.0000
# 4 0.0000 0.0000 0.0000 23.8488 0.0000 0.0000
# 5 0.0000 0.0000 0.0000 0.0000 23.8488 0.0000
# 6 1.8388 -1.8388 0.0000 0.0000 0.0000 41.1700
#
#
#
# Elastic Compliance Matrix: (Units=1/GPa)
#
#
# Indices 1 2 3 4 5 6 
#
# 1 0.011552 -0.007726 -0.003499 0.000000 0.000000 -0.000861
# 2 -0.007726 0.011552 -0.003499 0.000000 0.000000 0.000861
# 3 -0.003499 -0.003499 0.063263 0.000000 0.000000 0.000000
# 4 0.000000 0.000000 0.000000 0.041931 0.000000 0.000000
# 5 0.000000 0.000000 0.000000 0.000000 0.041931 0.000000
# 6 -0.000861 0.000861 0.000000 0.000000 0.000000 0.024366
#
#
# Mechanical properties :
#
#
# Convention : Reuss Voigt Hill
#
# Bulk Modulus (GPa) = 17.56949 73.73080 45.65015
# Shear Modulus (GPa) = 20.57461 31.69868 26.13665
#
# Velocity S-wave (km/s) = 3.26911 4.05775 3.68459
# Velocity P-wave (km/s) = 4.83484 7.76221 6.46636
#
# Compressibility (1/GPa) = 0.05691683
#
# Stress axis : x y z
#
# Youngs Moduli (GPa) = 86.56496 86.56496 15.80700
#
# Poissons Ratio (x) = 0.66883 0.05532
# Poissons Ratio (y) = 0.66883 0.05532
# Poissons Ratio (z) = 0.30293 0.30293
#
# Static dielectric constant tensor:
#      x y z
#    x 3.845200 0.000000 0.000000 
#    y 0.000000 3.845200 0.000000 
#    z 0.000000 0.000000 3.159210 
# 
# 
# High freq. dielectric constant tensor:
#      x y z
#    x 1.761640 0.000000 0.000000 
#    y 0.000000 1.761640 0.000000 
#    z 0.000000 0.000000 1.713430 
# 
# From -- ./inp_files/559.got.cif
#   From: 2010.03.12/outbox.cif.g09.slc.cpg/sg87_1_cif.got.tgz:559.got - 2010.04.08 20:16:13.
