data_PCOD8303336
_publ_section_title
;
Structure prediction by ZEFSAII (Michael W. Deem and Ramdas Pophale) SiO2 
 PCOD8303336
Probable space group: P 42/M
;
_chemical_formula_sum "Si O2"
_cell_formula_units_Z 40
_cell_length_a 14.803480
_cell_length_b 14.803480
_cell_length_c 8.660073
_cell_angle_alpha 90.000000
_cell_angle_beta 90.000000
_cell_angle_gamma 90.000000
_cell_volume 1897.794552
_symmetry_space_group_name_H-M "P 42/M"
_symmetry_group_IT_number 84
_symmetry_cell_setting 'tetragonal'
loop_
_space_group_symop_operation_xyz
x,y,z
-y,x,1/2+z
-x,-y,z
y,-x,1/2+z
-x,-y,-z
y,-x,1/2-z
x,y,-z
-y,x,1/2-z
loop_
_atom_site_type_symbol
_atom_site_label
_atom_site_fract_x
_atom_site_fract_y
_atom_site_fract_z
Si Si1 0.891188 0.076298 0.679188
Si Si2 0.950385 0.408696 0.818740
Si Si3 0.380305 0.718199 0.823476
Si Si4 0.710907 0.096635 0.176991
Si Si5 0.580070 0.754215 0.179416
O O1 0.913377 0.089597 0.500000
O O2 0.880392 0.970610 0.719550
O O3 0.798351 0.125263 0.723773
O O4 0.845271 0.406862 0.776188
O O5 0.000000 0.500000 0.764655
O O6 0.000972 0.327372 0.733341
O O7 0.960598 0.393999 0.000000
O O8 0.361217 0.824170 0.797896
O O9 0.317817 0.657884 0.714698
O O10 0.485144 0.706061 0.778162
O O11 0.361536 0.689581 0.000000
O O12 0.739931 0.086321 0.000000
O O13 0.582170 0.780635 0.000000
#
# Coordination Sequence:
#
# PCOD8303336 Si02
#       5
#     8   8   8   8   8
#     4  11  23  41  62  88 124 166 213 258 313 376
#     4  11  23  40  65  95 128 163 204 256 314 374
#     4  10  24  44  65  93 129 167 214 269 322 380
#     4  11  23  41  64  90 126 167 212 263 316 378
#     4  11  24  43  68  96 128 170 214 263 322 383
#
# _framework density 21.077097999999999
#
# number of rings (size 3 to 8) (size 9 to 14) (size 15 to 20)
#    0.000    1.200    2.000    4.200    2.800    4.400 
#    0.000    2.000    0.000    0.000    0.000    0.000 
#    0.000    0.000    0.000    0.000    0.000    0.000 
#
# Total GULP energy -496224.825464 kJ/mol
# GULP energy per Si atom -12405.620637 kJ/mol
# Density = 2.102913 g / cm^3
# Si number density = 21.077098 Si / 1000 Ang^3
#
#
#
# Elastic Constant Matrix: (Units=GPa)
#
#
# Indices 1 2 3 4 5 6 
#
# 1 86.3727 23.7028 21.7288 0.0000 0.0000 -8.1501
# 2 23.7028 86.3727 21.7288 0.0000 0.0000 8.1501
# 3 21.7288 21.7288 76.2891 0.0000 0.0000 0.0000
# 4 0.0000 0.0000 0.0000 34.6490 0.0000 0.0000
# 5 0.0000 0.0000 0.0000 0.0000 34.6490 0.0000
# 6 -8.1501 8.1501 0.0000 0.0000 0.0000 32.6149
#
#
#
# Elastic Compliance Matrix: (Units=1/GPa)
#
#
# Indices 1 2 3 4 5 6 
#
# 1 0.013651 -0.003415 -0.002915 0.000000 0.000000 0.004265
# 2 -0.003415 0.013651 -0.002915 0.000000 0.000000 -0.004265
# 3 -0.002915 -0.002915 0.014769 0.000000 0.000000 0.000000
# 4 0.000000 0.000000 0.000000 0.028861 0.000000 0.000000
# 5 0.000000 0.000000 0.000000 0.000000 0.028861 0.000000
# 6 0.004265 -0.004265 0.000000 0.000000 0.000000 0.032792
#
#
# Mechanical properties :
#
#
# Convention : Reuss Voigt Hill
#
# Bulk Modulus (GPa) = 42.41117 42.59502 42.50310
# Shear Modulus (GPa) = 31.45939 32.50753 31.98346
#
# Velocity S-wave (km/s) = 3.86759 3.93149 3.89967
# Velocity P-wave (km/s) = 6.33324 6.39233 6.36285
#
# Compressibility (1/GPa) = 0.02357869
#
# Stress axis : x y z
#
# Youngs Moduli (GPa) = 73.25616 73.25616 67.71061
#
# Poissons Ratio (x) = 0.25018 0.19740
# Poissons Ratio (y) = 0.25018 0.19740
# Poissons Ratio (z) = 0.21357 0.21357
#
# Static dielectric constant tensor:
#      x y z
#    x 3.772380 0.000000 0.000000 
#    y 0.000000 3.772380 0.000000 
#    z 0.000000 0.000000 3.794340 
# 
# 
# High freq. dielectric constant tensor:
#      x y z
#    x 1.828350 0.000000 0.000000 
#    y 0.000000 1.828350 0.000000 
#    z 0.000000 0.000000 1.830320 
# 
# From -- ./inp_files/801.got.cif
#   From: 2010.03.12/outbox.cif.g09.slc.cpg/sg84_1_cif.got.tgz:801.got - 2010.04.08 20:07:29.
