data_PCOD8303208
_publ_section_title
;
Structure prediction by ZEFSAII (Michael W. Deem and Ramdas Pophale) SiO2 
 PCOD8303208
Probable space group: P 42/M
;
_chemical_formula_sum "Si O2"
_cell_formula_units_Z 32
_cell_length_a 14.000232
_cell_length_b 14.000232
_cell_length_c 9.086237
_cell_angle_alpha 90.000000
_cell_angle_beta 90.000000
_cell_angle_gamma 90.000000
_cell_volume 1780.961477
_symmetry_space_group_name_H-M "P 42/M"
_symmetry_group_IT_number 84
_symmetry_cell_setting 'tetragonal'
loop_
_space_group_symop_operation_xyz
x,y,z
-y,x,1/2+z
-x,-y,z
y,-x,1/2+z
-x,-y,-z
y,-x,1/2-z
x,y,-z
-y,x,1/2-z
loop_
_atom_site_type_symbol
_atom_site_label
_atom_site_fract_x
_atom_site_fract_y
_atom_site_fract_z
Si Si1 0.247133 0.612107 0.826530
Si Si2 0.257453 0.101422 0.829072
Si Si3 0.607337 0.257545 0.670025
Si Si4 0.751969 0.094122 0.667482
O O1 0.151938 0.656893 0.757602
O O2 0.342837 0.661005 0.766431
O O3 0.249643 0.501694 0.780883
O O4 0.242286 0.625983 0.000000
O O5 0.158307 0.155538 0.798468
O O6 0.246288 0.993269 0.778598
O O7 0.283776 0.104898 0.000000
O O8 0.618584 0.287437 0.500000
O O9 0.656758 0.155395 0.697290
O O10 0.753930 0.056336 0.500000
#
# Coordination Sequence:
#
# PCOD8303208 Si02
#       4
#     8   8   8   8
#     4  10  20  35  56  78 104 140 176 213 260 311
#     4  10  21  36  54  78 107 136 172 218 260 306
#     4   9  20  37  54  77 108 139 174 216 260 307
#     4   9  19  36  54  73 103 139 172 211 260 312
#
# _framework density 17.967822999999999
#
# number of rings (size 3 to 8) (size 9 to 14) (size 15 to 20)
#    0.000    2.500    0.000    3.000    0.000    9.000 
#    0.000   10.000    0.000    0.000    0.000    0.000 
#    0.000    0.000    0.000    0.000    0.000    0.000 
#
# Total GULP energy -396906.882214 kJ/mol
# GULP energy per Si atom -12403.340069 kJ/mol
# Density = 1.792693 g / cm^3
# Si number density = 17.967823 Si / 1000 Ang^3
#
#
#
# Elastic Constant Matrix: (Units=GPa)
#
#
# Indices 1 2 3 4 5 6 
#
# 1 134.5992 60.2456 59.9292 0.0000 0.0000 -0.2344
# 2 60.2456 134.5992 59.9292 0.0000 0.0000 0.2344
# 3 59.9292 59.9292 83.1325 0.0000 0.0000 0.0000
# 4 0.0000 0.0000 0.0000 32.1376 0.0000 0.0000
# 5 0.0000 0.0000 0.0000 0.0000 32.1376 0.0000
# 6 -0.2344 0.2344 0.0000 0.0000 0.0000 11.1826
#
#
#
# Elastic Compliance Matrix: (Units=1/GPa)
#
#
# Indices 1 2 3 4 5 6 
#
# 1 0.011336 -0.002115 -0.006648 0.000000 0.000000 0.000282
# 2 -0.002115 0.011336 -0.006648 0.000000 0.000000 -0.000282
# 3 -0.006648 -0.006648 0.021614 0.000000 0.000000 0.000000
# 4 0.000000 0.000000 0.000000 0.031116 0.000000 0.000000
# 5 0.000000 0.000000 0.000000 0.000000 0.031116 0.000000
# 6 0.000282 -0.000282 0.000000 0.000000 0.000000 0.089437
#
#
# Mechanical properties :
#
#
# Convention : Reuss Voigt Hill
#
# Bulk Modulus (GPa) = 74.26223 79.17097 76.71660
# Shear Modulus (GPa) = 21.62027 26.57335 24.09681
#
# Velocity S-wave (km/s) = 3.47259 3.84987 3.66609
# Velocity P-wave (km/s) = 7.58280 7.99502 7.79164
#
# Compressibility (1/GPa) = 0.01346580
#
# Stress axis : x y z
#
# Youngs Moduli (GPa) = 88.21182 88.21182 46.26712
#
# Poissons Ratio (x) = 0.18654 0.30757
# Poissons Ratio (y) = 0.18654 0.30757
# Poissons Ratio (z) = 0.58641 0.58641
#
# Static dielectric constant tensor:
#      x y z
#    x 3.325740 0.000000 0.000000 
#    y 0.000000 3.325740 0.000000 
#    z 0.000000 0.000000 3.332270 
# 
# 
# High freq. dielectric constant tensor:
#      x y z
#    x 1.696790 0.000000 0.000000 
#    y 0.000000 1.696790 0.000000 
#    z 0.000000 0.000000 1.703530 
# 
# From -- ./inp_files/590.got.cif
#   From: 2010.03.12/outbox.cif.g09.slc.cpg/sg84_1_cif.got.tgz:590.got - 2010.04.08 20:07:29.
