data_PCOD8303560
_publ_section_title
;
Structure prediction by ZEFSAII (Michael W. Deem and Ramdas Pophale) SiO2 
 PCOD8303560
Probable space group: P 42/N
;
_chemical_formula_sum "Si O2"
_cell_formula_units_Z 40
_cell_length_a 14.070050
_cell_length_b 14.070050
_cell_length_c 8.831327
_cell_angle_alpha 90.000000
_cell_angle_beta 90.000000
_cell_angle_gamma 90.000000
_cell_volume 1748.305192
_symmetry_space_group_name_H-M "P 42/N"
_symmetry_group_IT_number 86
_space_group.IT_coordinate_system_code '2'
_symmetry_cell_setting 'tetragonal'
loop_
_space_group_symop_operation_xyz
x,y,z
-y,1/2+x,1/2+z
1/2-x,1/2-y,z
1/2+y,-x,1/2+z
-x,-y,-z
y,1/2-x,1/2-z
1/2+x,1/2+y,-z
1/2-y,x,1/2-z
loop_
_atom_site_type_symbol
_atom_site_label
_atom_site_fract_x
_atom_site_fract_y
_atom_site_fract_z
Si Si1 0.746503 0.894174 0.487790
Si Si2 0.759379 0.394833 0.961838
Si Si3 0.750000 0.250000 0.213972
Si Si4 0.906724 0.464059 0.418694
Si Si5 0.250000 0.250000 0.250000
Si Si6 0.466368 0.405298 0.576291
Si Si7 0.250000 0.250000 0.750000
O O1 0.742247 0.845201 0.651076
O O2 0.853325 0.906650 0.429887
O O3 0.698466 0.827386 0.358564
O O4 0.688079 0.992333 0.497687
O O5 0.793445 0.335156 0.815845
O O6 0.647746 0.408220 0.942783
O O7 0.787030 0.336314 0.112085
O O8 0.815009 0.494384 0.979008
O O9 0.904574 0.493651 0.244926
O O10 0.000000 0.500000 0.500000
O O11 0.500000 0.500000 0.500000
#
# Coordination Sequence:
#
# PCOD8303560 Si02
#       7
#     8   8   4   8   2   8   2
#     4  11  26  49  76 111 152 202 261 321 402 465
#     4  11  26  49  75 112 152 202 260 319 396 468
#     4  10  24  46  76 104 154 206 250 320 386 468
#     4  12  30  48  79 111 155 206 267 330 393 486
#     4  10  28  46  76 110 152 210 252 334 380 478
#     4  12  30  48  78 113 156 205 265 329 397 485
#     4  10  20  46  76  98 152 202 252 310 392 478
#
# _framework density 22.879300000000001
#
# number of rings (size 3 to 8) (size 9 to 14) (size 15 to 20)
#    0.000    0.800    4.000    0.000   19.600    0.000 
#    0.000    0.000    0.000    0.000    0.000    0.000 
#    0.000    0.000    0.000    0.000    0.000    0.000 
#
# Total GULP energy -496011.680476 kJ/mol
# GULP energy per Si atom -12400.292012 kJ/mol
# Density = 2.282723 g / cm^3
# Si number density = 22.879300 Si / 1000 Ang^3
#
#
#
# Elastic Constant Matrix: (Units=GPa)
#
#
# Indices 1 2 3 4 5 6 
#
# 1 151.5630 46.5667 48.3106 0.0000 0.0000 -0.4121
# 2 46.5667 151.5630 48.3106 0.0000 0.0000 0.4121
# 3 48.3106 48.3106 142.2524 0.0000 0.0000 0.0000
# 4 0.0000 0.0000 0.0000 27.6674 0.0000 0.0000
# 5 0.0000 0.0000 0.0000 0.0000 27.6674 0.0000
# 6 -0.4121 0.4121 0.0000 0.0000 0.0000 46.4973
#
#
#
# Elastic Compliance Matrix: (Units=1/GPa)
#
#
# Indices 1 2 3 4 5 6 
#
# 1 0.007787 -0.001738 -0.002054 0.000000 0.000000 0.000084
# 2 -0.001738 0.007787 -0.002054 0.000000 0.000000 -0.000084
# 3 -0.002054 -0.002054 0.008425 0.000000 0.000000 0.000000
# 4 0.000000 0.000000 0.000000 0.036144 0.000000 0.000000
# 5 0.000000 0.000000 0.000000 0.000000 0.036144 0.000000
# 6 0.000084 -0.000084 0.000000 0.000000 0.000000 0.021508
#
#
# Mechanical properties :
#
#
# Convention : Reuss Voigt Hill
#
# Bulk Modulus (GPa) = 81.26205 81.30602 81.28404
# Shear Modulus (GPa) = 37.42817 40.51247 38.97032
#
# Velocity S-wave (km/s) = 4.04901 4.21254 4.13158
# Velocity P-wave (km/s) = 7.57985 7.69901 7.63966
#
# Compressibility (1/GPa) = 0.01230587
#
# Stress axis : x y z
#
# Youngs Moduli (GPa) = 128.42060 128.42060 118.69298
#
# Poissons Ratio (x) = 0.22318 0.24383
# Poissons Ratio (y) = 0.22318 0.24383
# Poissons Ratio (z) = 0.26382 0.26382
#
# Static dielectric constant tensor:
#      x y z
#    x 4.526400 0.000000 0.000000 
#    y 0.000000 4.526400 0.000000 
#    z 0.000000 0.000000 3.923600 
# 
# 
# High freq. dielectric constant tensor:
#      x y z
#    x 1.906050 0.000000 0.000000 
#    y 0.000000 1.906050 0.000000 
#    z 0.000000 0.000000 1.923660 
# 
# From -- ./inp_files/1212.got.cif
#   From: 2010.03.12/outbox.cif.g09.slc.cpg/sg86_1_cif.got.tgz:1212.got - 2010.04.08 20:12:58.
