data_PCOD8303579
_publ_section_title
;
Structure prediction by ZEFSAII (Michael W. Deem and Ramdas Pophale) SiO2 
 PCOD8303579
Probable space group: P 42/N
;
_chemical_formula_sum "Si O2"
_cell_formula_units_Z 44
_cell_length_a 8.645252
_cell_length_b 8.645252
_cell_length_c 28.339610
_cell_angle_alpha 90.000000
_cell_angle_beta 90.000000
_cell_angle_gamma 90.000000
_cell_volume 2118.113281
_symmetry_space_group_name_H-M "P 42/N"
_symmetry_group_IT_number 86
_space_group.IT_coordinate_system_code '2'
_symmetry_cell_setting 'tetragonal'
loop_
_space_group_symop_operation_xyz
x,y,z
-y,1/2+x,1/2+z
1/2-x,1/2-y,z
1/2+y,-x,1/2+z
-x,-y,-z
y,1/2-x,1/2-z
1/2+x,1/2+y,-z
1/2-y,x,1/2-z
loop_
_atom_site_type_symbol
_atom_site_label
_atom_site_fract_x
_atom_site_fract_y
_atom_site_fract_z
Si Si1 0.184282 0.909677 0.861272
Si Si2 0.750000 0.250000 0.814099
Si Si3 0.235017 0.006354 0.758958
Si Si4 0.681488 0.586462 0.047203
Si Si5 0.818417 0.085164 0.956391
Si Si6 0.321983 0.419175 0.135323
O O1 0.250000 0.750000 0.881112
O O2 0.001779 0.897356 0.854878
O O3 0.267657 0.944494 0.811602
O O4 0.232235 0.036653 0.900218
O O5 0.617584 0.193096 0.779557
O O6 0.723081 0.412869 0.841600
O O7 0.088668 0.116422 0.762317
O O8 0.750000 0.750000 0.034684
O O9 0.500230 0.604754 0.043463
O O10 0.742998 0.464655 0.008023
O O11 0.750000 0.250000 0.941198
O O12 0.776488 0.948400 0.919273
O O13 0.250000 0.250000 0.151660
#
# Coordination Sequence:
#
# PCOD8303579 Si02
#       6
#     8   4   8   8   8   8
#     4  11  24  43  62  95 129 170 220 278 331 412
#     4  12  24  44  66 100 128 176 230 284 338 426
#     4  11  25  42  66  91 128 170 217 275 339 397
#     4  10  23  38  63  95 130 172 221 268 335 400
#     4  10  21  41  64  94 134 172 218 276 332 408
#     4  11  25  43  68  98 134 175 222 282 346 405
#
# _framework density 20.773205999999998
#
# number of rings (size 3 to 8) (size 9 to 14) (size 15 to 20)
#    0.000    1.273    3.636    1.091    5.091    2.182 
#    0.000    0.000    0.000    0.000    0.000    0.000 
#    0.000    0.000    0.000    0.000    0.000    0.000 
#
# Total GULP energy -545111.658175 kJ/mol
# GULP energy per Si atom -12388.901322 kJ/mol
# Density = 2.072593 g / cm^3
# Si number density = 20.773206 Si / 1000 Ang^3
#
#
#
# Elastic Constant Matrix: (Units=GPa)
#
#
# Indices 1 2 3 4 5 6 
#
# 1 95.1522 37.4935 33.6148 0.0000 0.0000 -17.6448
# 2 37.4935 95.1522 33.6148 0.0000 0.0000 17.6448
# 3 33.6148 33.6148 115.4794 0.0000 0.0000 0.0000
# 4 0.0000 0.0000 0.0000 30.1492 0.0000 0.0000
# 5 0.0000 0.0000 0.0000 0.0000 30.1492 0.0000
# 6 -17.6448 17.6448 0.0000 0.0000 0.0000 -14.3320
#
#
#
# Elastic Compliance Matrix: (Units=1/GPa)
#
#
# Indices 1 2 3 4 5 6 
#
# 1 0.009367 -0.000524 -0.002574 0.000000 0.000000 -0.012177
# 2 -0.000524 0.009367 -0.002574 0.000000 0.000000 0.012177
# 3 -0.002574 -0.002574 0.010158 0.000000 0.000000 0.000000
# 4 0.000000 0.000000 0.000000 0.033168 0.000000 0.000000
# 5 0.000000 0.000000 0.000000 0.000000 0.033168 0.000000
# 6 -0.012177 0.012177 0.000000 0.000000 0.000000 -0.039791
#
#
# Mechanical properties :
#
#
# Convention : Reuss Voigt Hill
#
# Bulk Modulus (GPa) = 56.98542 57.24780 57.11661
# Shear Modulus (GPa) = 68.84022 22.59732 45.71877
#
# Velocity S-wave (km/s) = 5.76289 3.30178 4.69641
# Velocity P-wave (km/s) = 8.47189 6.49261 7.54741
#
# Compressibility (1/GPa) = 0.01754835
#
# Stress axis : x y z
#
# Youngs Moduli (GPa) = 106.75605 106.75605 98.44216
#
# Poissons Ratio (x) = 0.05589 0.25342
# Poissons Ratio (y) = 0.05589 0.25342
# Poissons Ratio (z) = 0.27482 0.27482
#
# Static dielectric constant tensor:
#      x y z
#    x 3.836940 0.000000 0.000000 
#    y 0.000000 3.836940 0.000000 
#    z 0.000000 0.000000 3.972170 
# 
# 
# High freq. dielectric constant tensor:
#      x y z
#    x 1.815000 0.000000 0.000000 
#    y 0.000000 1.815000 0.000000 
#    z 0.000000 0.000000 1.826040 
# 
# From -- ./inp_files/5046.got.cif
#   From: 2010.03.12/outbox.cif.g09.slc.cpg/sg86_3_cif.got.tgz:5046.got - 2010.04.08 20:12:58.
