data_PCOD8303157
_publ_section_title
;
Structure prediction by ZEFSAII (Michael W. Deem and Ramdas Pophale) SiO2 
 PCOD8303157
Probable space group: P 42/M
;
_chemical_formula_sum "Si O2"
_cell_formula_units_Z 36
_cell_length_a 11.733941
_cell_length_b 11.733941
_cell_length_c 12.833969
_cell_angle_alpha 90.000000
_cell_angle_beta 90.000000
_cell_angle_gamma 90.000000
_cell_volume 1767.049788
_symmetry_space_group_name_H-M "P 42/M"
_symmetry_group_IT_number 84
_symmetry_cell_setting 'tetragonal'
loop_
_space_group_symop_operation_xyz
x,y,z
-y,x,1/2+z
-x,-y,z
y,-x,1/2+z
-x,-y,-z
y,-x,1/2-z
x,y,-z
-y,x,1/2-z
loop_
_atom_site_type_symbol
_atom_site_label
_atom_site_fract_x
_atom_site_fract_y
_atom_site_fract_z
Si Si1 0.294167 0.279851 0.786374
Si Si2 0.759548 0.480632 0.121110
Si Si3 0.951940 0.330025 0.385502
Si Si4 0.150335 0.925058 0.218336
Si Si5 0.500000 0.000000 0.284081
O O1 0.375997 0.293487 0.686090
O O2 0.295742 0.400000 0.844927
O O3 0.340456 0.183428 0.865359
O O4 0.167629 0.242761 0.753399
O O5 0.894260 0.483902 0.139930
O O6 0.734044 0.458315 0.000000
O O7 0.976516 0.380141 0.500000
O O8 0.002954 0.201047 0.379750
O O9 0.019714 0.394769 0.294368
O O10 0.026701 0.868177 0.193862
#
# Coordination Sequence:
#
# PCOD8303157 Si02
#       5
#     8   8   8   8   4
#     4  10  22  40  59  89 125 155 204 257 296 361
#     4  11  23  42  65  90 121 163 202 247 310 362
#     4  10  19  34  60  89 123 166 204 251 306 354
#     4   9  18  36  58  82 125 162 197 251 302 355
#     4  10  20  38  60  92 128 156 202 258 294 362
#
# _framework density 20.372941000000001
#
# number of rings (size 3 to 8) (size 9 to 14) (size 15 to 20)
#    0.000    2.000    2.222    1.333    0.000    1.333 
#    0.000   13.333    0.000    0.000    0.000    0.000 
#    0.000    0.000    0.000    0.000    0.000    0.000 
#
# Total GULP energy -445983.054010 kJ/mol
# GULP energy per Si atom -12388.418167 kJ/mol
# Density = 2.032657 g / cm^3
# Si number density = 20.372941 Si / 1000 Ang^3
#
#
#
# Elastic Constant Matrix: (Units=GPa)
#
#
# Indices 1 2 3 4 5 6 
#
# 1 83.7082 24.5142 37.2688 0.0000 0.0000 8.0875
# 2 24.5142 83.7082 37.2688 0.0000 0.0000 -8.0875
# 3 37.2688 37.2688 120.3584 0.0000 0.0000 0.0000
# 4 0.0000 0.0000 0.0000 6.8327 0.0000 0.0000
# 5 0.0000 0.0000 0.0000 0.0000 6.8327 0.0000
# 6 8.0875 -8.0875 0.0000 0.0000 0.0000 29.2117
#
#
#
# Elastic Compliance Matrix: (Units=1/GPa)
#
#
# Indices 1 2 3 4 5 6 
#
# 1 0.015011 -0.003266 -0.003637 0.000000 0.000000 -0.005060
# 2 -0.003266 0.015011 -0.003637 0.000000 0.000000 0.005060
# 3 -0.003637 -0.003637 0.010561 0.000000 0.000000 0.000000
# 4 0.000000 0.000000 0.000000 0.146355 0.000000 0.000000
# 5 0.000000 0.000000 0.000000 0.000000 0.146355 0.000000
# 6 -0.005060 0.005060 0.000000 0.000000 0.000000 0.037035
#
#
# Mechanical properties :
#
#
# Convention : Reuss Voigt Hill
#
# Bulk Modulus (GPa) = 51.27261 53.98650 52.62956
# Shear Modulus (GPa) = 12.56579 21.15696 16.86138
#
# Velocity S-wave (km/s) = 2.48622 3.22605 2.87999
# Velocity P-wave (km/s) = 5.78475 6.35871 6.07851
#
# Compressibility (1/GPa) = 0.01950359
#
# Stress axis : x y z
#
# Youngs Moduli (GPa) = 66.61930 66.61930 94.68972
#
# Poissons Ratio (x) = 0.21755 0.34437
# Poissons Ratio (y) = 0.21755 0.34437
# Poissons Ratio (z) = 0.24228 0.24228
#
# Static dielectric constant tensor:
#      x y z
#    x 3.810390 0.000000 0.000000 
#    y 0.000000 3.810390 0.000000 
#    z 0.000000 0.000000 3.324520 
# 
# 
# High freq. dielectric constant tensor:
#      x y z
#    x 1.804050 0.000000 0.000000 
#    y 0.000000 1.804050 0.000000 
#    z 0.000000 0.000000 1.759280 
# 
# From -- ./inp_files/1943.got.cif
#   From: 2010.03.12/outbox.cif.g09.slc.cpg/sg84_1_cif.got.tgz:1943.got - 2010.04.08 20:07:29.
