data_PCOD8303570
_publ_section_title
;
Structure prediction by ZEFSAII (Michael W. Deem and Ramdas Pophale) SiO2 
 PCOD8303570
Probable space group: P 42/N
;
_chemical_formula_sum "Si O2"
_cell_formula_units_Z 32
_cell_length_a 8.985517
_cell_length_b 8.985517
_cell_length_c 19.576747
_cell_angle_alpha 90.000000
_cell_angle_beta 90.000000
_cell_angle_gamma 90.000000
_cell_volume 1580.617073
_symmetry_space_group_name_H-M "P 42/N"
_symmetry_group_IT_number 86
_space_group.IT_coordinate_system_code '2'
_symmetry_cell_setting 'tetragonal'
loop_
_space_group_symop_operation_xyz
x,y,z
-y,1/2+x,1/2+z
1/2-x,1/2-y,z
1/2+y,-x,1/2+z
-x,-y,-z
y,1/2-x,1/2-z
1/2+x,1/2+y,-z
1/2-y,x,1/2-z
loop_
_atom_site_type_symbol
_atom_site_label
_atom_site_fract_x
_atom_site_fract_y
_atom_site_fract_z
Si Si1 0.229509 0.077313 0.966190
Si Si2 0.438670 0.439223 0.095291
Si Si3 0.961561 0.630567 0.743769
Si Si4 0.893666 0.349698 0.121307
O O1 0.250000 0.250000 0.949625
O O2 0.365198 0.978547 0.935307
O O3 0.208166 0.045534 0.047342
O O4 0.075498 0.031506 0.932422
O O5 0.408068 0.517297 0.167991
O O6 0.472333 0.260345 0.098364
O O7 0.806745 0.548862 0.753687
O O8 0.070272 0.575949 0.804800
O O9 0.750000 0.250000 0.131210
#
# Coordination Sequence:
#
# PCOD8303570 Si02
#       4
#     8   8   8   8
#     4  10  21  37  57  84 117 154 185 245 297 342
#     4   9  20  39  56  83 115 147 198 235 286 356
#     4   9  18  35  60  81 103 150 196 234 276 343
#     4   9  19  38  57  81 118 153 186 245 295 339
#
# _framework density 20.245259000000001
#
# number of rings (size 3 to 8) (size 9 to 14) (size 15 to 20)
#    0.000    2.750    0.000    0.000    7.000    1.000 
#   13.500    3.750    0.000    0.000    0.000    0.000 
#    0.000    0.000    0.000    0.000    0.000    0.000 
#
# Total GULP energy -396566.230315 kJ/mol
# GULP energy per Si atom -12392.694697 kJ/mol
# Density = 2.019918 g / cm^3
# Si number density = 20.245259 Si / 1000 Ang^3
#
#
#
# Elastic Constant Matrix: (Units=GPa)
#
#
# Indices 1 2 3 4 5 6 
#
# 1 59.7854 15.0726 50.6717 0.0000 0.0000 -6.7345
# 2 15.0726 59.7854 50.6717 0.0000 0.0000 6.7345
# 3 50.6717 50.6717 179.0205 0.0000 0.0000 0.0000
# 4 0.0000 0.0000 0.0000 29.0177 0.0000 0.0000
# 5 0.0000 0.0000 0.0000 0.0000 29.0177 0.0000
# 6 -6.7345 6.7345 0.0000 0.0000 0.0000 24.5128
#
#
#
# Elastic Compliance Matrix: (Units=1/GPa)
#
#
# Indices 1 2 3 4 5 6 
#
# 1 0.023020 -0.001363 -0.006130 0.000000 0.000000 0.006699
# 2 -0.001363 0.023020 -0.006130 0.000000 0.000000 -0.006699
# 3 -0.006130 -0.006130 0.009056 0.000000 0.000000 0.000000
# 4 0.000000 0.000000 0.000000 0.034462 0.000000 0.000000
# 5 0.000000 0.000000 0.000000 0.000000 0.034462 0.000000
# 6 0.006699 -0.006699 0.000000 0.000000 0.000000 0.044476
#
#
# Mechanical properties :
#
#
# Convention : Reuss Voigt Hill
#
# Bulk Modulus (GPa) = 35.90550 59.04703 47.47626
# Shear Modulus (GPa) = 24.38719 28.65466 26.52093
#
# Velocity S-wave (km/s) = 3.47448 3.76623 3.62329
# Velocity P-wave (km/s) = 5.81978 6.93843 6.40358
#
# Compressibility (1/GPa) = 0.02785089
#
# Stress axis : x y z
#
# Youngs Moduli (GPa) = 43.43991 43.43991 110.42081
#
# Poissons Ratio (x) = 0.05919 0.67690
# Poissons Ratio (y) = 0.05919 0.67690
# Poissons Ratio (z) = 0.26630 0.26630
#
# Static dielectric constant tensor:
#      x y z
#    x 3.623150 0.000000 0.000000 
#    y 0.000000 3.623150 0.000000 
#    z 0.000000 0.000000 4.158210 
# 
# 
# High freq. dielectric constant tensor:
#      x y z
#    x 1.771720 0.000000 0.000000 
#    y 0.000000 1.771720 0.000000 
#    z 0.000000 0.000000 1.809010 
# 
# From -- ./inp_files/3804.got.cif
#   From: 2010.03.12/outbox.cif.g09.slc.cpg/sg86_2_cif.got.tgz:3804.got - 2010.04.08 20:12:58.
