data_PCOD8303297
_publ_section_title
;
Structure prediction by ZEFSAII (Michael W. Deem and Ramdas Pophale) SiO2 
 PCOD8303297
Probable space group: P 42/M
;
_chemical_formula_sum "Si O2"
_cell_formula_units_Z 48
_cell_length_a 9.630212
_cell_length_b 9.630212
_cell_length_c 26.987328
_cell_angle_alpha 90.000000
_cell_angle_beta 90.000000
_cell_angle_gamma 90.000000
_cell_volume 2502.831332
_symmetry_space_group_name_H-M "P 42/M"
_symmetry_group_IT_number 84
_symmetry_cell_setting 'tetragonal'
loop_
_space_group_symop_operation_xyz
x,y,z
-y,x,1/2+z
-x,-y,z
y,-x,1/2+z
-x,-y,-z
y,-x,1/2-z
x,y,-z
-y,x,1/2-z
loop_
_atom_site_type_symbol
_atom_site_label
_atom_site_fract_x
_atom_site_fract_y
_atom_site_fract_z
Si Si1 0.405355 0.633400 0.920885
Si Si2 0.411534 0.859188 0.000000
Si Si3 0.339464 0.472970 0.310305
Si Si4 0.636089 0.910104 0.418281
Si Si5 0.142523 0.085510 0.500000
Si Si6 0.262978 0.245890 0.767641
Si Si7 0.015914 0.661989 0.806316
O O1 0.500000 0.500000 0.932927
O O2 0.452668 0.766167 0.952547
O O3 0.410643 0.679704 0.864250
O O4 0.246666 0.593222 0.932508
O O5 0.500000 0.000000 0.000000
O O6 0.248441 0.896258 0.000000
O O7 0.500000 0.500000 0.298220
O O8 0.251151 0.613559 0.307451
O O9 0.274154 0.372997 0.269932
O O10 0.766667 0.956025 0.451752
O O11 0.500000 0.000000 0.429968
O O12 0.682451 0.922499 0.361087
O O13 0.000000 0.000000 0.500000
O O14 0.128990 0.258316 0.802191
O O15 0.264548 0.107491 0.735491
O O16 0.000000 0.500000 0.794241
#
# Coordination Sequence:
#
# PCOD8303297 Si02
#       7
#     8   4   8   8   4   8   8
#     4  10  22  38  65  93 121 156 198 255 308 360
#     4  10  23  46  62  90 130 150 195 258 312 370
#     4  11  19  35  62  87 118 158 209 241 291 358
#     4  10  22  40  64  92 121 153 207 258 301 358
#     4  10  23  46  66  86 118 166 203 250 304 376
#     4  12  21  39  59  86 126 165 199 250 295 356
#     4  11  23  39  60  90 124 158 205 252 297 355
#
# _framework density 19.178279
#
# number of rings (size 3 to 8) (size 9 to 14) (size 15 to 20)
#    0.000    1.333    5.000    0.500    7.000    1.667 
#    6.000    0.000    0.000    0.000    0.000    0.000 
#    0.000    0.000    0.000    0.000    0.000    0.000 
#
# Total GULP energy -595197.726717 kJ/mol
# GULP energy per Si atom -12399.952640 kJ/mol
# Density = 1.913463 g / cm^3
# Si number density = 19.178279 Si / 1000 Ang^3
#
#
#
# Elastic Constant Matrix: (Units=GPa)
#
#
# Indices 1 2 3 4 5 6 
#
# 1 107.5517 42.1393 33.9496 0.0000 0.0000 -0.9861
# 2 42.1393 107.5517 33.9496 0.0000 0.0000 0.9861
# 3 33.9496 33.9496 77.1856 0.0000 0.0000 0.0000
# 4 0.0000 0.0000 0.0000 24.9606 0.0000 0.0000
# 5 0.0000 0.0000 0.0000 0.0000 24.9606 0.0000
# 6 -0.9861 0.9861 0.0000 0.0000 0.0000 35.3418
#
#
#
# Elastic Compliance Matrix: (Units=1/GPa)
#
#
# Indices 1 2 3 4 5 6 
#
# 1 0.011823 -0.003478 -0.003671 0.000000 0.000000 0.000427
# 2 -0.003478 0.011823 -0.003671 0.000000 0.000000 -0.000427
# 3 -0.003671 -0.003671 0.016185 0.000000 0.000000 0.000000
# 4 0.000000 0.000000 0.000000 0.040063 0.000000 0.000000
# 5 0.000000 0.000000 0.000000 0.000000 0.040063 0.000000
# 6 0.000427 -0.000427 0.000000 0.000000 0.000000 0.028319
#
#
# Mechanical properties :
#
#
# Convention : Reuss Voigt Hill
#
# Bulk Modulus (GPa) = 54.96630 56.92955 55.94793
# Shear Modulus (GPa) = 28.41264 29.20264 28.80764
#
# Velocity S-wave (km/s) = 3.85320 3.90640 3.87989
# Velocity P-wave (km/s) = 6.96557 7.07782 7.02192
#
# Compressibility (1/GPa) = 0.01819296
#
# Stress axis : x y z
#
# Youngs Moduli (GPa) = 84.58112 84.58112 61.78621
#
# Poissons Ratio (x) = 0.29413 0.22680
# Poissons Ratio (y) = 0.29413 0.22680
# Poissons Ratio (z) = 0.31047 0.31047
#
# Static dielectric constant tensor:
#      x y z
#    x 3.412880 0.000000 0.000000 
#    y 0.000000 3.412880 0.000000 
#    z 0.000000 0.000000 3.628010 
# 
# 
# High freq. dielectric constant tensor:
#      x y z
#    x 1.740910 0.000000 0.000000 
#    y 0.000000 1.740910 0.000000 
#    z 0.000000 0.000000 1.756710 
# 
# From -- ./inp_files/5852.got.cif
#   From: 2010.03.12/outbox.cif.g09.slc.cpg/sg84_3_cif.got.tgz:5852.got - 2010.04.08 20:07:29.
