data_PCOD8303203
_publ_section_title
;
Structure prediction by ZEFSAII (Michael W. Deem and Ramdas Pophale) SiO2 
 PCOD8303203
Probable space group: P 42/M
;
_chemical_formula_sum "Si O2"
_cell_formula_units_Z 64
_cell_length_a 19.701996
_cell_length_b 19.701996
_cell_length_c 8.739217
_cell_angle_alpha 90.000000
_cell_angle_beta 90.000000
_cell_angle_gamma 90.000000
_cell_volume 3392.290033
_symmetry_space_group_name_H-M "P 42/M"
_symmetry_group_IT_number 84
_symmetry_cell_setting 'tetragonal'
loop_
_space_group_symop_operation_xyz
x,y,z
-y,x,1/2+z
-x,-y,z
y,-x,1/2+z
-x,-y,-z
y,-x,1/2-z
x,y,-z
-y,x,1/2-z
loop_
_atom_site_type_symbol
_atom_site_label
_atom_site_fract_x
_atom_site_fract_y
_atom_site_fract_z
Si Si1 0.788110 0.286605 0.322742
Si Si2 0.699159 0.413195 0.324508
Si Si3 0.937924 0.633753 0.177878
Si Si4 0.569983 0.431376 0.176221
Si Si5 0.798144 0.674298 0.320140
Si Si6 0.652228 0.926864 0.821550
Si Si7 0.541697 0.242760 0.329007
Si Si8 0.092224 0.513029 0.830598
O O1 0.780432 0.266947 0.500000
O O2 0.759396 0.361658 0.289639
O O3 0.749238 0.229281 0.225619
O O4 0.867122 0.294771 0.274889
O O5 0.676967 0.412992 0.500000
O O6 0.635659 0.387417 0.221700
O O7 0.719208 0.489766 0.281509
O O8 0.876489 0.665937 0.273203
O O9 0.954569 0.552968 0.213171
O O10 0.006117 0.673308 0.227461
O O11 0.921683 0.644764 0.000000
O O12 0.509017 0.409632 0.286332
O O13 0.549790 0.422405 0.000000
O O14 0.791980 0.664541 0.500000
O O15 0.751275 0.617961 0.237191
O O16 0.573973 0.906648 0.789341
O O17 0.658125 0.942086 0.000000
O O18 0.539396 0.274344 0.500000
O O19 0.522822 0.164588 0.335633
O O20 0.073142 0.541464 0.000000
#
# Coordination Sequence:
#
# PCOD8303203 Si02
#       8
#     8   8   8   8   8   8   8   8
#     4  10  23  40  56  78 113 147 180 226 281 329
#     4  11  22  37  55  76 101 135 177 221 274 330
#     4  10  21  37  56  79 110 148 184 225 276 329
#     4  11  23  40  57  73  93 121 165 224 284 340
#     4  11  23  38  58  81 107 143 188 231 272 327
#     4  11  21  34  54  82 111 144 183 227 273 324
#     4  10  20  35  54  75 105 140 177 222 272 325
#     4   9  18  32  50  74 106 143 179 217 265 319
#
# _framework density 18.866311
#
# number of rings (size 3 to 8) (size 9 to 14) (size 15 to 20)
#    0.000    1.625    1.250    5.250    1.750    6.000 
#    0.000    0.000    0.000    0.000    0.000    0.000 
#    0.000    0.500    0.000    5.250    0.000    2.250 
#
# Total GULP energy -793513.376231 kJ/mol
# GULP energy per Si atom -12398.646504 kJ/mol
# Density = 1.882337 g / cm^3
# Si number density = 18.866311 Si / 1000 Ang^3
#
#
#
# Elastic Constant Matrix: (Units=GPa)
#
#
# Indices 1 2 3 4 5 6 
#
# 1 91.3503 -8.1923 24.5715 0.0000 0.0000 4.9273
# 2 -8.1923 91.3503 24.5715 0.0000 0.0000 -4.9273
# 3 24.5715 24.5715 85.8941 0.0000 0.0000 0.0000
# 4 0.0000 0.0000 0.0000 28.3514 0.0000 0.0000
# 5 0.0000 0.0000 0.0000 0.0000 28.3514 0.0000
# 6 4.9273 -4.9273 0.0000 0.0000 0.0000 20.3032
#
#
#
# Elastic Compliance Matrix: (Units=1/GPa)
#
#
# Indices 1 2 3 4 5 6 
#
# 1 0.012383 0.002089 -0.004140 0.000000 0.000000 -0.002498
# 2 0.002089 0.012383 -0.004140 0.000000 0.000000 0.002498
# 3 -0.004140 -0.004140 0.014011 0.000000 0.000000 0.000000
# 4 0.000000 0.000000 0.000000 0.035272 0.000000 0.000000
# 5 0.000000 0.000000 0.000000 0.000000 0.035272 0.000000
# 6 -0.002498 0.002498 0.000000 0.000000 0.000000 0.050466
#
#
# Mechanical properties :
#
#
# Convention : Reuss Voigt Hill
#
# Bulk Modulus (GPa) = 37.88624 38.94403 38.41514
# Shear Modulus (GPa) = 27.62974 30.57745 29.10359
#
# Velocity S-wave (km/s) = 3.83103 4.03021 3.93188
# Velocity P-wave (km/s) = 6.30033 6.50721 6.40460
#
# Compressibility (1/GPa) = 0.02639480
#
# Stress axis : x y z
#
# Youngs Moduli (GPa) = 80.75884 80.75884 71.37330
#
# Poissons Ratio (x) = -0.16873 0.29548
# Poissons Ratio (y) = -0.16873 0.29548
# Poissons Ratio (z) = 0.33434 0.33434
#
# Static dielectric constant tensor:
#      x y z
#    x 3.476720 0.000000 0.000000 
#    y 0.000000 3.476720 0.000000 
#    z 0.000000 0.000000 3.476480 
# 
# 
# High freq. dielectric constant tensor:
#      x y z
#    x 1.714770 0.000000 0.000000 
#    y 0.000000 1.714770 0.000000 
#    z 0.000000 0.000000 1.738300 
# 
# From -- ./inp_files/1357.got.cif
#   From: 2010.03.12/outbox.cif.g09.slc.cpg/sg84_1_cif.got.tgz:1357.got - 2010.04.08 20:07:29.
