data_PCOD8303527
_publ_section_title
;
Structure prediction by ZEFSAII (Michael W. Deem and Ramdas Pophale) SiO2 
 PCOD8303527
Probable space group: P 42/N
;
_chemical_formula_sum "Si O2"
_cell_formula_units_Z 28
_cell_length_a 9.610225
_cell_length_b 9.610225
_cell_length_c 17.646700
_cell_angle_alpha 90.000000
_cell_angle_beta 90.000000
_cell_angle_gamma 90.000000
_cell_volume 1629.786117
_symmetry_space_group_name_H-M "P 42/N"
_symmetry_group_IT_number 86
_space_group.IT_coordinate_system_code '2'
_symmetry_cell_setting 'tetragonal'
loop_
_space_group_symop_operation_xyz
x,y,z
-y,1/2+x,1/2+z
1/2-x,1/2-y,z
1/2+y,-x,1/2+z
-x,-y,-z
y,1/2-x,1/2-z
1/2+x,1/2+y,-z
1/2-y,x,1/2-z
loop_
_atom_site_type_symbol
_atom_site_label
_atom_site_fract_x
_atom_site_fract_y
_atom_site_fract_z
Si Si1 0.037932 0.215241 0.720996
Si Si2 0.836846 0.374535 0.944107
Si Si3 0.614946 0.658002 0.445789
Si Si4 0.750000 0.250000 0.799449
O O1 0.101765 0.368604 0.734724
O O2 0.033417 0.183031 0.632165
O O3 0.879571 0.203443 0.748566
O O4 0.750000 0.250000 0.984229
O O5 0.795501 0.378960 0.854525
O O6 0.998815 0.339208 0.953110
O O7 0.797960 0.518930 0.983730
O O8 0.750000 0.750000 0.449183
#
# Coordination Sequence:
#
# PCOD8303527 Si02
#       4
#     8   8   8   4
#     4  11  19  36  58  81 104 141 185 219 264 315
#     4   9  21  38  51  81 113 138 175 224 269 313
#     4  11  20  36  59  80 106 143 184 220 260 324
#     4  10  20  36  54  78 116 134 176 230 266 310
#
# _framework density 17.180167999999998
#
# number of rings (size 3 to 8) (size 9 to 14) (size 15 to 20)
#    0.857    0.857    5.714    0.000    2.000    1.143 
#    0.000    0.000    0.000    0.000    0.000    0.000 
#    0.000    0.000    0.000    0.000    0.000    0.000 
#
# Total GULP energy -347066.183812 kJ/mol
# GULP energy per Si atom -12395.220850 kJ/mol
# Density = 1.714107 g / cm^3
# Si number density = 17.180168 Si / 1000 Ang^3
#
#
#
# Elastic Constant Matrix: (Units=GPa)
#
#
# Indices 1 2 3 4 5 6 
#
# 1 103.0363 51.2091 51.2688 0.0000 0.0000 3.1083
# 2 51.2091 103.0363 51.2688 0.0000 0.0000 -3.1083
# 3 51.2688 51.2688 100.3593 0.0000 0.0000 0.0000
# 4 0.0000 0.0000 0.0000 454.0277 0.0000 0.0000
# 5 0.0000 0.0000 0.0000 0.0000 454.0277 0.0000
# 6 3.1083 -3.1083 0.0000 0.0000 0.0000 21.0581
#
#
#
# Elastic Compliance Matrix: (Units=1/GPa)
#
#
# Indices 1 2 3 4 5 6 
#
# 1 0.014730 -0.004913 -0.005015 0.000000 0.000000 -0.002899
# 2 -0.004913 0.014730 -0.005015 0.000000 0.000000 0.002899
# 3 -0.005015 -0.005015 0.015088 0.000000 0.000000 0.000000
# 4 0.000000 0.000000 0.000000 0.002203 0.000000 0.000000
# 5 0.000000 0.000000 0.000000 0.000000 0.002203 0.000000
# 6 -0.002899 0.002899 0.000000 0.000000 0.000000 0.048344
#
#
# Mechanical properties :
#
#
# Convention : Reuss Voigt Hill
#
# Bulk Modulus (GPa) = 68.20377 68.21393 68.20885
# Shear Modulus (GPa) = 37.85882 196.00172 116.93027
#
# Velocity S-wave (km/s) = 4.69938 10.69269 8.25887
# Velocity P-wave (km/s) = 8.32051 13.86493 11.43388
#
# Compressibility (1/GPa) = 0.01466195
#
# Stress axis : x y z
#
# Youngs Moduli (GPa) = 67.88938 67.88938 66.27736
#
# Poissons Ratio (x) = 0.33353 0.33238
# Poissons Ratio (y) = 0.33353 0.33238
# Poissons Ratio (z) = 0.34047 0.34047
#
# Static dielectric constant tensor:
#      x y z
#    x 3.140840 0.000000 0.000000 
#    y 0.000000 3.140840 0.000000 
#    z 0.000000 0.000000 3.323840 
# 
# 
# High freq. dielectric constant tensor:
#      x y z
#    x 1.656950 0.000000 0.000000 
#    y 0.000000 1.656950 0.000000 
#    z 0.000000 0.000000 1.665230 
# 
# From -- ./inp_files/3269.got.cif
#   From: 2010.03.12/outbox.cif.g09.slc.cpg/sg86_2_cif.got.tgz:3269.got - 2010.04.08 20:12:58.
