data_PCOD8303429
_publ_section_title
;
Structure prediction by ZEFSAII (Michael W. Deem and Ramdas Pophale) SiO2 
 PCOD8303429
Probable space group: P 4/N
;
_chemical_formula_sum "Si O2"
_cell_formula_units_Z 48
_cell_length_a 14.983139
_cell_length_b 14.983139
_cell_length_c 8.809545
_cell_angle_alpha 90.000000
_cell_angle_beta 90.000000
_cell_angle_gamma 90.000000
_cell_volume 1977.693997
_symmetry_space_group_name_H-M "P 4/N"
_symmetry_group_IT_number 85
_symmetry_cell_setting 'tetragonal'
loop_
_space_group_symop_operation_xyz
x,y,z
1/2-y,x,z
1/2-x,1/2-y,z
y,1/2-x,z
-x,-y,-z
1/2+y,-x,-z
1/2+x,1/2+y,-z
-y,1/2+x,-z
loop_
_atom_site_type_symbol
_atom_site_label
_atom_site_fract_x
_atom_site_fract_y
_atom_site_fract_z
Si Si1 0.045257 0.917357 0.672537
Si Si2 0.642388 0.340525 0.051514
Si Si3 0.218729 0.112097 0.276040
Si Si4 0.846684 0.642300 0.122232
Si Si5 0.010525 0.406533 0.104331
Si Si6 0.110433 0.093167 0.548372
O O1 0.107765 0.847822 0.770841
O O2 0.988518 0.980151 0.782902
O O3 0.974035 0.870227 0.556416
O O4 0.105206 0.986353 0.576691
O O5 0.745815 0.370489 0.031526
O O6 0.584604 0.411440 0.959055
O O7 0.315025 0.143354 0.221045
O O8 0.188676 0.021748 0.192140
O O9 0.204316 0.106941 0.457646
O O10 0.874817 0.743873 0.080992
O O11 0.851691 0.617346 0.298878
O O12 0.916177 0.582360 0.029009
#
# Coordination Sequence:
#
# PCOD8303429 Si02
#       6
#     8   8   8   8   8   8
#     4  10  23  43  65  99 128 170 239 272 341 416
#     4  11  26  45  68  98 130 174 240 307 345 382
#     4  10  21  38  61 100 140 172 210 261 341 424
#     4  11  23  37  60 105 144 174 215 267 345 423
#     4  11  23  39  70  98 130 179 223 287 338 412
#     4  10  21  38  63  91 136 179 208 264 325 415
#
# _framework density 24.270690999999999
#
# number of rings (size 3 to 8) (size 9 to 14) (size 15 to 20)
#    0.000    1.500    1.667    2.500    7.000    2.667 
#    3.000    0.000    0.000    0.000    0.000   21.000 
#    0.000    0.000    0.000    0.000    0.000    0.000 
#
# Total GULP energy -594678.570825 kJ/mol
# GULP energy per Si atom -12389.136892 kJ/mol
# Density = 2.421545 g / cm^3
# Si number density = 24.270691 Si / 1000 Ang^3
#
#
#
# Elastic Constant Matrix: (Units=GPa)
#
#
# Indices 1 2 3 4 5 6 
#
# 1 61.7680 -0.2237 5.3217 0.0000 0.0000 2.4494
# 2 -0.2237 61.7680 5.3217 0.0000 0.0000 -2.4494
# 3 5.3217 5.3217 89.8195 0.0000 0.0000 0.0000
# 4 0.0000 0.0000 0.0000 37.7069 0.0000 0.0000
# 5 0.0000 0.0000 0.0000 0.0000 37.7069 0.0000
# 6 2.4494 -2.4494 0.0000 0.0000 0.0000 18.7569
#
#
#
# Elastic Compliance Matrix: (Units=1/GPa)
#
#
# Indices 1 2 3 4 5 6 
#
# 1 0.016358 0.000059 -0.000973 0.000000 0.000000 -0.002128
# 2 0.000059 0.016358 -0.000973 0.000000 0.000000 0.002128
# 3 -0.000973 -0.000973 0.011249 0.000000 0.000000 0.000000
# 4 0.000000 0.000000 0.000000 0.026520 0.000000 0.000000
# 5 0.000000 0.000000 0.000000 0.000000 0.026520 0.000000
# 6 -0.002128 0.002128 0.000000 0.000000 0.000000 0.053870
#
#
# Mechanical properties :
#
#
# Convention : Reuss Voigt Hill
#
# Bulk Modulus (GPa) = 24.88096 26.02166 25.45131
# Shear Modulus (GPa) = 29.75382 32.36318 31.05850
#
# Velocity S-wave (km/s) = 3.50511 3.65557 3.58113
# Velocity P-wave (km/s) = 5.16282 5.34437 5.25438
#
# Compressibility (1/GPa) = 0.04019137
#
# Stress axis : x y z
#
# Youngs Moduli (GPa) = 61.13203 61.13203 88.89918
#
# Poissons Ratio (x) = -0.00359 0.08647
# Poissons Ratio (y) = -0.00359 0.08647
# Poissons Ratio (z) = 0.05946 0.05946
#
# Static dielectric constant tensor:
#      x y z
#    x 4.348800 0.000000 0.000000 
#    y 0.000000 4.348800 0.000000 
#    z 0.000000 0.000000 4.737830 
# 
# 
# High freq. dielectric constant tensor:
#      x y z
#    x 1.955930 0.000000 0.000000 
#    y 0.000000 1.955930 0.000000 
#    z 0.000000 0.000000 1.980800 
# 
# From -- ./inp_files/1069.got.cif
#   From: 2010.03.12/outbox.cif.g09.slc.cpg/sg85_cif.got.tgz:1069.got - 2010.04.08 20:10:46.
