data_PCOD8303875
_publ_section_title
;
Structure prediction by ZEFSAII (Michael W. Deem and Ramdas Pophale) SiO2 
 PCOD8303875
Probable space group: I 4/M
;
_chemical_formula_sum "Si O2"
_cell_formula_units_Z 96
_cell_length_a 15.483805
_cell_length_b 15.483805
_cell_length_c 17.645290
_cell_angle_alpha 90.000000
_cell_angle_beta 90.000000
_cell_angle_gamma 90.000000
_cell_volume 4230.426821
_symmetry_space_group_name_H-M "I 4/M"
_symmetry_group_IT_number 87
_symmetry_cell_setting 'tetragonal'
loop_
_space_group_symop_operation_xyz
x,y,z
-y,x,z
-x,-y,z
y,-x,z
-x,-y,-z
y,-x,-z
x,y,-z
-y,x,-z
1/2+x,1/2+y,1/2+z
1/2-y,1/2+x,1/2+z
1/2-x,1/2-y,1/2+z
1/2+y,1/2-x,1/2+z
1/2-x,1/2-y,1/2-z
1/2+y,1/2-x,1/2-z
1/2+x,1/2+y,1/2-z
1/2-y,1/2+x,1/2-z
loop_
_atom_site_type_symbol
_atom_site_label
_atom_site_fract_x
_atom_site_fract_y
_atom_site_fract_z
Si Si1 0.360716 0.527342 0.272143
Si Si2 0.361331 0.783674 0.912204
Si Si3 0.087841 0.897892 0.410993
Si Si4 0.402047 0.029597 0.151011
Si Si5 0.752782 0.062077 0.915273
Si Si6 0.518994 0.813915 0.806379
O O1 0.399054 0.431876 0.257160
O O2 0.327670 0.531598 0.358680
O O3 0.282651 0.546676 0.214847
O O4 0.349267 0.681931 0.890529
O O5 0.273762 0.837768 0.897930
O O6 0.435047 0.821680 0.858949
O O7 0.390650 0.791973 0.000000
O O8 0.080783 0.908198 0.500000
O O9 0.990038 0.878928 0.377937
O O10 0.403394 0.135258 0.150483
O O11 0.369201 0.996420 0.231435
O O12 0.500000 0.000000 0.133812
O O13 0.334159 0.996063 0.088611
O O14 0.790426 0.053656 0.000000
#
# Coordination Sequence:
#
# PCOD8303875 Si02
#       6
#    16  16  16  16  16  16
#     4  10  24  46  69  91 118 164 223 274 327 385
#     4  10  20  33  54  88 130 169 208 257 316 378
#     4   8  15  30  50  72 108 162 213 253 305 373
#     4  11  18  35  64  88 125 168 207 247 313 386
#     4  10  22  39  64  98 131 165 209 262 320 388
#     4  11  19  35  60  89 120 163 210 264 307 371
#
# _framework density 22.692746
#
# number of rings (size 3 to 8) (size 9 to 14) (size 15 to 20)
#    0.000    2.000    3.333    1.500    0.000    3.000 
#    0.000   13.333    0.000    2.000    0.000    0.000 
#    0.000    0.000    0.000    0.000    0.000    0.000 
#
# Total GULP energy -594816.729082 kJ/mol
# GULP energy per Si atom -12392.015189 kJ/mol
# Density = 2.264110 g / cm^3
# Si number density = 22.692746 Si / 1000 Ang^3
#
#
#
# Elastic Constant Matrix: (Units=GPa)
#
#
# Indices 1 2 3 4 5 6 
#
# 1 116.9801 43.5735 12.0411 0.0000 0.0000 -0.5622
# 2 43.5735 116.9800 12.0411 0.0000 0.0000 0.5622
# 3 12.0411 12.0411 40.3089 0.0000 0.0000 0.0000
# 4 0.0000 0.0000 0.0000 27.4245 0.0000 0.0000
# 5 0.0000 0.0000 0.0000 0.0000 27.4245 0.0000
# 6 -0.5622 0.5622 0.0000 0.0000 0.0000 24.6239
#
#
#
# Elastic Compliance Matrix: (Units=1/GPa)
#
#
# Indices 1 2 3 4 5 6 
#
# 1 0.010074 -0.003553 -0.001948 0.000000 0.000000 0.000311
# 2 -0.003553 0.010074 -0.001948 0.000000 0.000000 -0.000311
# 3 -0.001948 -0.001948 0.025972 0.000000 0.000000 0.000000
# 4 0.000000 0.000000 0.000000 0.036464 0.000000 0.000000
# 5 0.000000 0.000000 0.000000 0.000000 0.036464 0.000000
# 6 0.000311 -0.000311 0.000000 0.000000 0.000000 0.040625
#
#
# Mechanical properties :
#
#
# Convention : Reuss Voigt Hill
#
# Bulk Modulus (GPa) = 32.02871 45.50894 38.76883
# Shear Modulus (GPa) = 27.03018 29.66882 28.34950
#
# Velocity S-wave (km/s) = 3.45503 3.61974 3.53834
# Velocity P-wave (km/s) = 5.48279 6.12927 5.81502
#
# Compressibility (1/GPa) = 0.03122199
#
# Stress axis : x y z
#
# Youngs Moduli (GPa) = 99.26469 99.26469 38.50283
#
# Poissons Ratio (x) = 0.35273 0.07500
# Poissons Ratio (y) = 0.35273 0.07500
# Poissons Ratio (z) = 0.19335 0.19335
#
# Static dielectric constant tensor:
#      x y z
#    x 4.273800 0.000000 0.000000 
#    y 0.000000 4.273800 0.000000 
#    z 0.000000 0.000000 4.214210 
# 
# 
# High freq. dielectric constant tensor:
#      x y z
#    x 1.883760 0.000000 0.000000 
#    y 0.000000 1.883760 0.000000 
#    z 0.000000 0.000000 1.906570 
# 
# From -- ./inp_files/5312.got.cif
#   From: 2010.03.12/outbox.cif.g09.slc.cpg/sg87_3_cif.got.tgz:5312.got - 2010.04.08 20:16:13.
