data_PCOD8303804
_publ_section_title
;
Structure prediction by ZEFSAII (Michael W. Deem and Ramdas Pophale) SiO2 
 PCOD8303804
Probable space group: I 4/M
;
_chemical_formula_sum "Si O2"
_cell_formula_units_Z 96
_cell_length_a 21.191471
_cell_length_b 21.191471
_cell_length_c 10.862951
_cell_angle_alpha 90.000000
_cell_angle_beta 90.000000
_cell_angle_gamma 90.000000
_cell_volume 4878.317123
_symmetry_space_group_name_H-M "I 4/M"
_symmetry_group_IT_number 87
_symmetry_cell_setting 'tetragonal'
loop_
_space_group_symop_operation_xyz
x,y,z
-y,x,z
-x,-y,z
y,-x,z
-x,-y,-z
y,-x,-z
x,y,-z
-y,x,-z
1/2+x,1/2+y,1/2+z
1/2-y,1/2+x,1/2+z
1/2-x,1/2-y,1/2+z
1/2+y,1/2-x,1/2+z
1/2-x,1/2-y,1/2-z
1/2+y,1/2-x,1/2-z
1/2+x,1/2+y,1/2-z
1/2-y,1/2+x,1/2-z
loop_
_atom_site_type_symbol
_atom_site_label
_atom_site_fract_x
_atom_site_fract_y
_atom_site_fract_z
Si Si1 0.810447 0.304185 0.637087
Si Si2 0.351885 0.965539 0.631691
Si Si3 0.319872 0.670354 0.765553
Si Si4 0.921926 0.349269 0.793792
Si Si5 0.942025 0.209507 0.861365
Si Si6 0.038931 0.206760 0.358948
O O1 0.799984 0.326671 0.500000
O O2 0.749064 0.327681 0.707319
O O3 0.823041 0.229011 0.640809
O O4 0.872155 0.339014 0.685150
O O5 0.356387 0.000350 0.500000
O O6 0.395349 0.903835 0.620002
O O7 0.280075 0.945083 0.655365
O O8 0.374721 0.012729 0.737176
O O9 0.374303 0.677228 0.662664
O O10 0.330537 0.604241 0.836049
O O11 0.933155 0.284922 0.867770
O O12 0.988509 0.188446 0.748797
O O13 0.965251 0.189021 0.000000
O O14 0.014923 0.191366 0.500000
#
# Coordination Sequence:
#
# PCOD8303804 Si02
#       6
#    16  16  16  16  16  16
#     4  10  19  32  54  84 115 142 184 238 288 344
#     4  10  20  36  54  73 106 148 195 243 286 334
#     4  10  20  35  56  87 113 147 186 233 291 341
#     4  10  20  36  52  78 109 151 195 238 285 339
#     4  10  22  37  57  86 120 152 188 237 290 344
#     4  10  21  38  60  84 115 155 193 233 285 346
#
# _framework density 19.678916999999998
#
# number of rings (size 3 to 8) (size 9 to 14) (size 15 to 20)
#    0.000    2.000    1.667    2.000    0.000    6.333 
#    0.000    3.333    0.000    0.500    0.000    2.333 
#    0.000    0.000    0.000    0.000    0.000    0.000 
#
# Total GULP energy -594833.610457 kJ/mol
# GULP energy per Si atom -12392.366885 kJ/mol
# Density = 1.963413 g / cm^3
# Si number density = 19.678917 Si / 1000 Ang^3
#
#
#
# Elastic Constant Matrix: (Units=GPa)
#
#
# Indices 1 2 3 4 5 6 
#
# 1 60.2317 19.3168 25.9697 0.0000 0.0000 -4.6308
# 2 19.3168 60.2317 25.9697 0.0000 0.0000 4.6308
# 3 25.9697 25.9697 118.1068 0.0000 0.0000 0.0000
# 4 0.0000 0.0000 0.0000 13.1685 0.0000 0.0000
# 5 0.0000 0.0000 0.0000 0.0000 13.1685 0.0000
# 6 -4.6308 4.6308 0.0000 0.0000 0.0000 22.2971
#
#
#
# Elastic Compliance Matrix: (Units=1/GPa)
#
#
# Indices 1 2 3 4 5 6 
#
# 1 0.020163 -0.005484 -0.003228 0.000000 0.000000 0.005327
# 2 -0.005484 0.020163 -0.003228 0.000000 0.000000 -0.005327
# 3 -0.003228 -0.003228 0.009886 0.000000 0.000000 0.000000
# 4 0.000000 0.000000 0.000000 0.075939 0.000000 0.000000
# 5 0.000000 0.000000 0.000000 0.000000 0.075939 0.000000
# 6 0.005327 -0.005327 0.000000 0.000000 0.000000 0.047061
#
#
# Mechanical properties :
#
#
# Convention : Reuss Voigt Hill
#
# Bulk Modulus (GPa) = 37.97547 42.34250 40.15899
# Shear Modulus (GPa) = 17.74266 20.88107 19.31186
#
# Velocity S-wave (km/s) = 3.00594 3.26097 3.13605
# Velocity P-wave (km/s) = 5.60241 5.97846 5.79348
#
# Compressibility (1/GPa) = 0.02633279
#
# Stress axis : x y z
#
# Youngs Moduli (GPa) = 49.59700 49.59700 101.15050
#
# Poissons Ratio (x) = 0.27200 0.32646
# Poissons Ratio (y) = 0.27200 0.32646
# Poissons Ratio (z) = 0.16007 0.16007
#
# Static dielectric constant tensor:
#      x y z
#    x 3.442440 0.000000 0.000000 
#    y 0.000000 3.442440 0.000000 
#    z 0.000000 0.000000 3.488590 
# 
# 
# High freq. dielectric constant tensor:
#      x y z
#    x 1.747820 0.000000 0.000000 
#    y 0.000000 1.747820 0.000000 
#    z 0.000000 0.000000 1.770590 
# 
# From -- ./inp_files/2742.got.cif
#   From: 2010.03.12/outbox.cif.g09.slc.cpg/sg87_2_cif.got.tgz:2742.got - 2010.04.08 20:16:13.
