data_PCOD8303041
_publ_section_title
;
Structure prediction by ZEFSAII (Michael W. Deem and Ramdas Pophale) SiO2 
 PCOD8303041
Probable space group: P 4/M
;
_chemical_formula_sum "Si O2"
_cell_formula_units_Z 40
_cell_length_a 15.965299
_cell_length_b 15.965299
_cell_length_c 9.388029
_cell_angle_alpha 90.000000
_cell_angle_beta 90.000000
_cell_angle_gamma 90.000000
_cell_volume 2392.921961
_symmetry_space_group_name_H-M "P 4/M"
_symmetry_group_IT_number 83
_symmetry_cell_setting 'tetragonal'
loop_
_space_group_symop_operation_xyz
x,y,z
-y,x,z
-x,-y,z
y,-x,z
-x,-y,-z
y,-x,-z
x,y,-z
-y,x,-z
loop_
_atom_site_type_symbol
_atom_site_label
_atom_site_fract_x
_atom_site_fract_y
_atom_site_fract_z
Si Si1 0.183768 0.161182 0.669214
Si Si2 0.438701 0.378653 0.834728
Si Si3 0.015833 0.241962 0.669790
Si Si4 0.044446 0.581629 0.669185
Si Si5 0.637834 0.775271 0.668138
O O1 0.179395 0.161831 0.500000
O O2 0.189284 0.064973 0.722277
O O3 0.265609 0.213344 0.717055
O O4 0.100420 0.202751 0.736008
O O5 0.536372 0.389363 0.796773
O O6 0.401013 0.304416 0.743160
O O7 0.427807 0.357031 0.000000
O O8 0.019867 0.240638 0.500000
O O9 0.006016 0.337178 0.724790
O O10 0.039617 0.579260 0.500000
O O11 0.141808 0.586234 0.714806
O O12 0.000000 0.500000 0.736502
O O13 0.632023 0.761325 0.500000
#
# Coordination Sequence:
#
# PCOD8303041 Si02
#       5
#     8   8   8   8   8
#     4   8  14  23  35  56  85 113 142 177 214 252
#     4   9  19  35  50  63  84 115 145 172 211 264
#     4   8  13  21  32  49  79 115 145 173 209 255
#     4   8  14  24  37  56  85 118 144 168 211 266
#     4   9  17  28  44  68  91 110 142 185 217 245
#
# _framework density 16.715965000000001
#
# number of rings (size 3 to 8) (size 9 to 14) (size 15 to 20)
#    0.000    3.600    0.000    3.000    0.000    2.800 
#    0.000    7.000    0.000    0.600    0.000    5.600 
#    0.000    0.000    0.000    7.200    0.000    8.000 
#
# Total GULP energy -495688.577940 kJ/mol
# GULP energy per Si atom -12392.214449 kJ/mol
# Density = 1.667792 g / cm^3
# Si number density = 16.715965 Si / 1000 Ang^3
#
#
#
# Elastic Constant Matrix: (Units=GPa)
#
#
# Indices 1 2 3 4 5 6 
#
# 1 156.7442 106.6107 32.2774 0.0000 0.0000 -14.3736
# 2 106.6107 156.7442 32.2774 0.0000 0.0000 14.3736
# 3 32.2774 32.2774 20.8076 0.0000 0.0000 0.0000
# 4 0.0000 0.0000 0.0000 7.9106 0.0000 0.0000
# 5 0.0000 0.0000 0.0000 0.0000 7.9106 0.0000
# 6 -14.3736 14.3736 0.0000 0.0000 0.0000 33.5839
#
#
#
# Elastic Compliance Matrix: (Units=1/GPa)
#
#
# Indices 1 2 3 4 5 6 
#
# 1 0.016280 -0.010154 -0.009504 0.000000 0.000000 0.011314
# 2 -0.010154 0.016280 -0.009504 0.000000 0.000000 -0.011314
# 3 -0.009504 -0.009504 0.077546 0.000000 0.000000 0.000000
# 4 0.000000 0.000000 0.000000 0.126413 0.000000 0.000000
# 5 0.000000 0.000000 0.000000 0.000000 0.126413 0.000000
# 6 0.011314 -0.011314 0.000000 0.000000 0.000000 0.039460
#
#
# Mechanical properties :
#
#
# Convention : Reuss Voigt Hill
#
# Bulk Modulus (GPa) = 19.31150 75.18080 47.24615
# Shear Modulus (GPa) = 10.46075 20.75639 15.60857
#
# Velocity S-wave (km/s) = 2.50430 3.52761 3.05905
# Velocity P-wave (km/s) = 4.46541 7.85272 6.38768
#
# Compressibility (1/GPa) = 0.05178262
#
# Stress axis : x y z
#
# Youngs Moduli (GPa) = 61.42320 61.42320 12.89564
#
# Poissons Ratio (x) = 0.62367 0.12256
# Poissons Ratio (y) = 0.62367 0.12256
# Poissons Ratio (z) = 0.58378 0.58378
#
# Static dielectric constant tensor:
#      x y z
#    x 3.438340 0.000000 0.000000 
#    y 0.000000 3.438340 0.000000 
#    z 0.000000 0.000000 2.479150 
# 
# 
# High freq. dielectric constant tensor:
#      x y z
#    x 1.653000 0.000000 0.000000 
#    y 0.000000 1.653000 0.000000 
#    z 0.000000 0.000000 1.573370 
# 
# From -- ./inp_files/1664.got.cif
#   From: 2010.03.12/outbox.cif.g09.slc.cpg/sg83_1_cif.got.tgz:1664.got - 2010.04.08 20:05:18.
