data_PCOD8303460
_publ_section_title
;
Structure prediction by ZEFSAII (Michael W. Deem and Ramdas Pophale) SiO2 
 PCOD8303460
Probable space group: P 4/N
;
_chemical_formula_sum "Si O2"
_cell_formula_units_Z 48
_cell_length_a 9.164749
_cell_length_b 9.164749
_cell_length_c 28.833796
_cell_angle_alpha 90.000000
_cell_angle_beta 90.000000
_cell_angle_gamma 90.000000
_cell_volume 2421.826193
_symmetry_space_group_name_H-M "P 4/N"
_symmetry_group_IT_number 85
_symmetry_cell_setting 'tetragonal'
loop_
_space_group_symop_operation_xyz
x,y,z
1/2-y,x,z
1/2-x,1/2-y,z
y,1/2-x,z
-x,-y,-z
1/2+y,-x,-z
1/2+x,1/2+y,-z
-y,1/2+x,-z
loop_
_atom_site_type_symbol
_atom_site_label
_atom_site_fract_x
_atom_site_fract_y
_atom_site_fract_z
Si Si1 0.413672 0.873695 0.520471
Si Si2 0.647240 0.535987 0.622083
Si Si3 0.067637 0.091866 0.855793
Si Si4 0.420624 0.414116 0.960432
Si Si5 0.456894 0.379473 0.694271
Si Si6 0.397058 0.443806 0.223821
O O1 0.424144 0.753842 0.478967
O O2 0.482567 0.835751 0.569498
O O3 0.500000 0.000000 0.500000
O O4 0.816244 0.559821 0.634592
O O5 0.560022 0.413784 0.650287
O O6 0.235623 0.048195 0.845751
O O7 0.028382 0.046637 0.908408
O O8 0.952633 0.001387 0.825582
O O9 0.253869 0.453007 0.967594
O O10 0.500000 0.500000 0.000000
O O11 0.295535 0.448353 0.693837
O O12 0.535759 0.445997 0.738847
O O13 0.222366 0.451790 0.229255
#
# Coordination Sequence:
#
# PCOD8303460 Si02
#       6
#     8   8   8   8   8   8
#     4  11  24  41  64  94 126 164 204 246 298 350
#     4  11  24  43  66  93 126 163 201 248 299 350
#     4   9  19  37  60  84 115 156 202 251 301 357
#     4   9  19  35  54  80 116 157 201 251 304 356
#     4  11  26  44  65  94 123 156 198 247 297 355
#     4  11  24  41  61  90 123 156 195 243 300 360
#
# _framework density 19.819752000000001
#
# number of rings (size 3 to 8) (size 9 to 14) (size 15 to 20)
#    0.000    1.667    1.667    3.000    2.333    9.333 
#    0.000    5.000    0.000    0.000    0.000    0.000 
#    0.000    0.000    0.000    0.000    0.000    0.000 
#
# Total GULP energy -594706.143849 kJ/mol
# GULP energy per Si atom -12389.711330 kJ/mol
# Density = 1.977464 g / cm^3
# Si number density = 19.819752 Si / 1000 Ang^3
#
#
#
# Elastic Constant Matrix: (Units=GPa)
#
#
# Indices 1 2 3 4 5 6 
#
# 1 78.4662 46.4318 37.4553 0.0000 0.0000 -1.8880
# 2 46.4318 78.4662 37.4553 0.0000 0.0000 1.8880
# 3 37.4553 37.4553 99.2239 0.0000 0.0000 0.0000
# 4 0.0000 0.0000 0.0000 42.7404 0.0000 0.0000
# 5 0.0000 0.0000 0.0000 0.0000 42.7404 0.0000
# 6 -1.8880 1.8880 0.0000 0.0000 0.0000 39.1676
#
#
#
# Elastic Compliance Matrix: (Units=1/GPa)
#
#
# Indices 1 2 3 4 5 6 
#
# 1 0.020872 -0.010523 -0.003907 0.000000 0.000000 0.001513
# 2 -0.010523 0.020872 -0.003907 0.000000 0.000000 -0.001513
# 3 -0.003907 -0.003907 0.013028 0.000000 0.000000 0.000000
# 4 0.000000 0.000000 0.000000 0.023397 0.000000 0.000000
# 5 0.000000 0.000000 0.000000 0.000000 0.023397 0.000000
# 6 0.001513 -0.001513 0.000000 0.000000 0.000000 0.025677
#
#
# Mechanical properties :
#
#
# Convention : Reuss Voigt Hill
#
# Bulk Modulus (GPa) = 55.24902 55.42677 55.33789
# Shear Modulus (GPa) = 29.42050 33.91729 31.66889
#
# Velocity S-wave (km/s) = 3.85697 4.14126 4.00164
# Velocity P-wave (km/s) = 6.91168 7.13392 7.02368
#
# Compressibility (1/GPa) = 0.01809987
#
# Stress axis : x y z
#
# Youngs Moduli (GPa) = 47.91034 47.91034 76.75916
#
# Poissons Ratio (x) = 0.50414 0.29989
# Poissons Ratio (y) = 0.50414 0.29989
# Poissons Ratio (z) = 0.18718 0.18718
#
# Static dielectric constant tensor:
#      x y z
#    x 3.855530 0.000000 0.000000 
#    y 0.000000 3.855530 0.000000 
#    z 0.000000 0.000000 3.311110 
# 
# 
# High freq. dielectric constant tensor:
#      x y z
#    x 1.781200 0.000000 0.000000 
#    y 0.000000 1.781200 0.000000 
#    z 0.000000 0.000000 1.778930 
# 
# From -- ./inp_files/2427.got.cif
#   From: 2010.03.12/outbox.cif.g09.slc.cpg/sg85_cif.got.tgz:2427.got - 2010.04.08 20:10:46.
