data_PCOD8303648
_publ_section_title
;
Structure prediction by ZEFSAII (Michael W. Deem and Ramdas Pophale) SiO2 
 PCOD8303648
Probable space group: P 42/N
;
_chemical_formula_sum "Si O2"
_cell_formula_units_Z 48
_cell_length_a 8.540163
_cell_length_b 8.540163
_cell_length_c 28.386470
_cell_angle_alpha 90.000000
_cell_angle_beta 90.000000
_cell_angle_gamma 90.000000
_cell_volume 2070.349705
_symmetry_space_group_name_H-M "P 42/N"
_symmetry_group_IT_number 86
_space_group.IT_coordinate_system_code '2'
_symmetry_cell_setting 'tetragonal'
loop_
_space_group_symop_operation_xyz
x,y,z
-y,1/2+x,1/2+z
1/2-x,1/2-y,z
1/2+y,-x,1/2+z
-x,-y,-z
y,1/2-x,1/2-z
1/2+x,1/2+y,-z
1/2-y,x,1/2-z
loop_
_atom_site_type_symbol
_atom_site_label
_atom_site_fract_x
_atom_site_fract_y
_atom_site_fract_z
Si Si1 0.406970 0.347367 0.678841
Si Si2 0.282877 0.570244 0.199141
Si Si3 0.250000 0.250000 0.146396
Si Si4 0.250000 0.250000 0.995883
Si Si5 0.590947 0.450103 0.232702
Si Si6 0.001033 0.810180 0.930078
Si Si7 0.492236 0.693007 0.424815
O O1 0.250000 0.250000 0.682743
O O2 0.545650 0.250558 0.703800
O O3 0.383738 0.498733 0.711672
O O4 0.450418 0.379629 0.624770
O O5 0.250000 0.750000 0.178743
O O6 0.213600 0.415406 0.172624
O O7 0.468955 0.546840 0.201646
O O8 0.229643 0.551859 0.254683
O O9 0.093099 0.215456 0.117609
O O10 0.162045 0.374395 0.963105
O O11 0.121464 0.159044 0.027612
O O12 0.120125 0.955307 0.922038
O O13 0.099544 0.657025 0.942890
#
# Coordination Sequence:
#
# PCOD8303648 Si02
#       7
#     8   8   4   4   8   8   8
#     4  12  21  39  60  89 129 168 219 274 319 383
#     4  12  24  41  65  96 134 183 240 277 354 417
#     4  11  24  47  64  99 140 183 222 291 342 415
#     4  11  22  44  70  96 132 166 214 272 342 419
#     4  12  23  39  60  90 132 172 222 284 330 388
#     4  10  24  43  67  96 140 162 213 283 340 407
#     4  11  23  41  70  99 122 177 219 265 342 418
#
# _framework density 23.184488000000002
#
# number of rings (size 3 to 8) (size 9 to 14) (size 15 to 20)
#    0.000    0.667    4.167    4.000    0.000    2.667 
#    3.000    0.000    7.333    0.000    0.000    0.000 
#    0.000    0.000    0.000    0.000    0.000    0.000 
#
# Total GULP energy -594657.034419 kJ/mol
# GULP energy per Si atom -12388.688217 kJ/mol
# Density = 2.313172 g / cm^3
# Si number density = 23.184488 Si / 1000 Ang^3
#
#
#
# Elastic Constant Matrix: (Units=GPa)
#
#
# Indices 1 2 3 4 5 6 
#
# 1 64.6301 -5.2622 5.5872 0.0000 0.0000 1.2147
# 2 -5.2622 64.6301 5.5872 0.0000 0.0000 -1.2147
# 3 5.5872 5.5872 93.1189 0.0000 0.0000 0.0000
# 4 0.0000 0.0000 0.0000 25.6762 0.0000 0.0000
# 5 0.0000 0.0000 0.0000 0.0000 25.6762 0.0000
# 6 1.2147 -1.2147 0.0000 0.0000 0.0000 32.9034
#
#
#
# Elastic Compliance Matrix: (Units=1/GPa)
#
#
# Indices 1 2 3 4 5 6 
#
# 1 0.015681 0.001355 -0.001022 0.000000 0.000000 -0.000529
# 2 0.001355 0.015681 -0.001022 0.000000 0.000000 0.000529
# 3 -0.001022 -0.001022 0.010862 0.000000 0.000000 0.000000
# 4 0.000000 0.000000 0.000000 0.038947 0.000000 0.000000
# 5 0.000000 0.000000 0.000000 0.000000 0.038947 0.000000
# 6 -0.000529 0.000529 0.000000 0.000000 0.000000 0.030431
#
#
# Mechanical properties :
#
#
# Convention : Reuss Voigt Hill
#
# Bulk Modulus (GPa) = 24.48231 26.02264 25.25247
# Shear Modulus (GPa) = 30.20380 31.28230 30.74305
#
# Velocity S-wave (km/s) = 3.61329 3.67724 3.64540
# Velocity P-wave (km/s) = 5.29061 5.41091 5.35110
#
# Compressibility (1/GPa) = 0.04084582
#
# Stress axis : x y z
#
# Youngs Moduli (GPa) = 63.77018 63.77018 92.06729
#
# Poissons Ratio (x) = -0.08642 0.09411
# Poissons Ratio (y) = -0.08642 0.09411
# Poissons Ratio (z) = 0.06519 0.06519
#
# Static dielectric constant tensor:
#      x y z
#    x 4.454590 0.000000 0.000000 
#    y 0.000000 4.454590 0.000000 
#    z 0.000000 0.000000 4.041040 
# 
# 
# High freq. dielectric constant tensor:
#      x y z
#    x 1.929110 0.000000 0.000000 
#    y 0.000000 1.929110 0.000000 
#    z 0.000000 0.000000 1.895790 
# 
# From -- ./inp_files/5224.got.cif
#   From: 2010.03.12/outbox.cif.g09.slc.cpg/sg86_3_cif.got.tgz:5224.got - 2010.04.08 20:12:58.
