data_PCOD8303056
_publ_section_title
;
Structure prediction by ZEFSAII (Michael W. Deem and Ramdas Pophale) SiO2 
 PCOD8303056
Probable space group: P 42/M
;
_chemical_formula_sum "Si O2"
_cell_formula_units_Z 64
_cell_length_a 20.666716
_cell_length_b 20.666716
_cell_length_c 9.098125
_cell_angle_alpha 90.000000
_cell_angle_beta 90.000000
_cell_angle_gamma 90.000000
_cell_volume 3885.928830
_symmetry_space_group_name_H-M "P 42/M"
_symmetry_group_IT_number 84
_symmetry_cell_setting 'tetragonal'
loop_
_space_group_symop_operation_xyz
x,y,z
-y,x,1/2+z
-x,-y,z
y,-x,1/2+z
-x,-y,-z
y,-x,1/2-z
x,y,-z
-y,x,1/2-z
loop_
_atom_site_type_symbol
_atom_site_label
_atom_site_fract_x
_atom_site_fract_y
_atom_site_fract_z
Si Si1 0.306965 0.233012 0.838001
Si Si2 0.999391 0.742199 0.174087
Si Si3 0.438199 0.862644 0.171633
Si Si4 0.384860 0.997932 0.828291
Si Si5 0.887871 0.804576 0.330561
Si Si6 0.142279 0.580248 0.675126
Si Si7 0.881493 0.208647 0.336799
Si Si8 0.210331 0.313352 0.669151
O O1 0.368444 0.195452 0.762847
O O2 0.249109 0.183130 0.854646
O O3 0.278718 0.293483 0.745201
O O4 0.326779 0.258757 0.000000
O O5 0.953708 0.797554 0.239521
O O6 0.972627 0.673753 0.228445
O O7 0.069698 0.747936 0.244891
O O8 0.002285 0.746967 0.000000
O O9 0.508142 0.838089 0.229886
O O10 0.379227 0.820286 0.240938
O O11 0.436784 0.940614 0.198340
O O12 0.432877 0.850217 0.000000
O O13 0.407202 0.068483 0.771358
O O14 0.364270 0.000764 0.000000
O O15 0.903364 0.818857 0.500000
O O16 0.855035 0.867365 0.258431
O O17 0.843458 0.741640 0.312196
O O18 0.142176 0.585640 0.500000
O O19 0.908023 0.191124 0.500000
O O20 0.227923 0.323610 0.500000
#
# Coordination Sequence:
#
# PCOD8303056 Si02
#       8
#     8   8   8   8   8   8   8   8
#     4   9  17  29  46  67  91 119 153 193 234 276
#     4  12  22  31  47  70  95 126 159 194 233 282
#     4   9  16  27  46  70  93 122 161 199 234 276
#     4  10  17  30  46  66  93 125 161 198 233 271
#     4  10  19  33  50  70  92 118 153 197 243 285
#     4   9  16  27  46  70  93 122 161 199 234 276
#     4  10  19  33  50  70  92 118 153 197 243 285
#     4   9  17  29  46  67  91 119 153 193 234 276
#
# _framework density 16.469678999999999
#
# number of rings (size 3 to 8) (size 9 to 14) (size 15 to 20)
#    0.000    2.250    2.500    2.250    0.000    2.500 
#    0.000    0.000    0.000    4.125    0.000    2.625 
#    0.000    0.500    0.000    6.250    0.000    0.000 
#
# Total GULP energy -793016.939044 kJ/mol
# GULP energy per Si atom -12390.889673 kJ/mol
# Density = 1.643219 g / cm^3
# Si number density = 16.469679 Si / 1000 Ang^3
#
#
#
# Elastic Constant Matrix: (Units=GPa)
#
#
# Indices 1 2 3 4 5 6 
#
# 1 66.2499 40.9945 22.9152 0.0000 0.0000 0.3261
# 2 40.9945 66.2499 22.9152 0.0000 0.0000 -0.3261
# 3 22.9152 22.9152 79.2202 0.0000 0.0000 0.0000
# 4 0.0000 0.0000 0.0000 16.8831 0.0000 0.0000
# 5 0.0000 0.0000 0.0000 0.0000 16.8831 0.0000
# 6 0.3261 -0.3261 0.0000 0.0000 0.0000 22.2348
#
#
#
# Elastic Compliance Matrix: (Units=1/GPa)
#
#
# Indices 1 2 3 4 5 6 
#
# 1 0.025125 -0.014485 -0.003078 0.000000 0.000000 -0.000581
# 2 -0.014485 0.025125 -0.003078 0.000000 0.000000 0.000581
# 3 -0.003078 -0.003078 0.014404 0.000000 0.000000 0.000000
# 4 0.000000 0.000000 0.000000 0.059231 0.000000 0.000000
# 5 0.000000 0.000000 0.000000 0.000000 0.059231 0.000000
# 6 -0.000581 0.000581 0.000000 0.000000 0.000000 0.044992
#
#
# Mechanical properties :
#
#
# Convention : Reuss Voigt Hill
#
# Bulk Modulus (GPa) = 42.78554 42.81887 42.80220
# Shear Modulus (GPa) = 18.03888 19.52654 18.78271
#
# Velocity S-wave (km/s) = 3.31309 3.44700 3.38071
# Velocity P-wave (km/s) = 6.37732 6.47282 6.42525
#
# Compressibility (1/GPa) = 0.02337238
#
# Stress axis : x y z
#
# Youngs Moduli (GPa) = 39.80084 39.80084 69.42745
#
# Poissons Ratio (x) = 0.57653 0.21367
# Poissons Ratio (y) = 0.57653 0.21367
# Poissons Ratio (z) = 0.12249 0.12249
#
# Static dielectric constant tensor:
#      x y z
#    x 3.124490 0.000000 0.000000 
#    y 0.000000 3.124490 0.000000 
#    z 0.000000 0.000000 3.028620 
# 
# 
# High freq. dielectric constant tensor:
#      x y z
#    x 1.612930 0.000000 0.000000 
#    y 0.000000 1.612930 0.000000 
#    z 0.000000 0.000000 1.612420 
# 
# From -- ./inp_files/1387.got.cif
#   From: 2010.03.12/outbox.cif.g09.slc.cpg/sg84_1_cif.got.tgz:1387.got - 2010.04.08 20:07:29.
