data_PCOD8303094
_publ_section_title
;
Structure prediction by ZEFSAII (Michael W. Deem and Ramdas Pophale) SiO2 
 PCOD8303094
Probable space group: P 42/M
;
_chemical_formula_sum "Si O2"
_cell_formula_units_Z 56
_cell_length_a 21.571883
_cell_length_b 21.571883
_cell_length_c 9.062568
_cell_angle_alpha 90.000000
_cell_angle_beta 90.000000
_cell_angle_gamma 90.000000
_cell_volume 4217.231003
_symmetry_space_group_name_H-M "P 42/M"
_symmetry_group_IT_number 84
_symmetry_cell_setting 'tetragonal'
loop_
_space_group_symop_operation_xyz
x,y,z
-y,x,1/2+z
-x,-y,z
y,-x,1/2+z
-x,-y,-z
y,-x,1/2-z
x,y,-z
-y,x,1/2-z
loop_
_atom_site_type_symbol
_atom_site_label
_atom_site_fract_x
_atom_site_fract_y
_atom_site_fract_z
Si Si1 0.155565 0.151809 0.664996
Si Si2 0.749473 0.053763 0.174227
Si Si3 0.926124 0.504902 0.333289
Si Si4 0.065194 0.375119 0.834681
Si Si5 0.960544 0.073321 0.163854
Si Si6 0.259360 0.088350 0.174080
Si Si7 0.384718 0.081222 0.334389
O O1 0.175511 0.173287 0.500000
O O2 0.100389 0.195660 0.726244
O O3 0.133278 0.081180 0.658696
O O4 0.214250 0.144330 0.772597
O O5 0.688202 0.080678 0.250447
O O6 0.762153 0.981885 0.220822
O O7 0.740212 0.057048 0.000000
O O8 0.900701 0.505914 0.500000
O O9 0.903888 0.567550 0.251965
O O10 0.895834 0.446585 0.248638
O O11 0.000000 0.500000 0.333478
O O12 0.992364 0.385428 0.841004
O O13 0.092750 0.372052 0.000000
O O14 0.015711 0.081925 0.280825
O O15 0.986537 0.059088 0.000000
O O16 0.325248 0.104648 0.245223
O O17 0.265564 0.092579 0.000000
O O18 0.383429 0.108779 0.500000
#
# Coordination Sequence:
#
# PCOD8303094 Si02
#       7
#     8   8   8   8   8   8   8
#     4  10  20  31  41  52  67  88 113 142 179 219
#     4   9  18  31  42  52  69  91 114 143 180 220
#     4   9  15  23  37  56  76  96 114 131 158 198
#     4   9  16  25  38  56  74  91 112 137 166 202
#     4  10  19  30  42  54  66  80 102 136 178 222
#     4  10  19  30  43  56  70  89 115 146 180 219
#     4   9  16  26  39  55  75  94 112 136 166 202
#
# _framework density 13.278855999999999
#
# number of rings (size 3 to 8) (size 9 to 14) (size 15 to 20)
#    0.000    2.571    0.000    3.429    0.000    8.571 
#    0.000    0.000    0.000    0.000    0.000    0.000 
#    0.000    0.000    0.000    0.000    0.000    0.000 
#
# Total GULP energy -693954.671276 kJ/mol
# GULP energy per Si atom -12392.047701 kJ/mol
# Density = 1.324863 g / cm^3
# Si number density = 13.278856 Si / 1000 Ang^3
#
#
#
# Elastic Constant Matrix: (Units=GPa)
#
#
# Indices 1 2 3 4 5 6 
#
# 1 47.3062 22.8726 27.1123 0.0000 0.0000 -0.8768
# 2 22.8726 47.3062 27.1123 0.0000 0.0000 0.8768
# 3 27.1123 27.1123 75.2173 0.0000 0.0000 0.0000
# 4 0.0000 0.0000 0.0000 18.5337 0.0000 0.0000
# 5 0.0000 0.0000 0.0000 0.0000 18.5337 0.0000
# 6 -0.8768 0.8768 0.0000 0.0000 0.0000 5.2282
#
#
#
# Elastic Compliance Matrix: (Units=1/GPa)
#
#
# Indices 1 2 3 4 5 6 
#
# 1 0.030588 -0.010838 -0.007119 0.000000 0.000000 0.006948
# 2 -0.010838 0.030588 -0.007119 0.000000 0.000000 -0.006948
# 3 -0.007119 -0.007119 0.018427 0.000000 0.000000 0.000000
# 4 0.000000 0.000000 0.000000 0.053956 0.000000 0.000000
# 5 0.000000 0.000000 0.000000 0.000000 0.053956 0.000000
# 6 0.006948 -0.006948 0.000000 0.000000 0.000000 0.193601
#
#
# Mechanical properties :
#
#
# Convention : Reuss Voigt Hill
#
# Bulk Modulus (GPa) = 33.95474 36.00268 34.97871
# Shear Modulus (GPa) = 11.33571 14.64127 12.98849
#
# Velocity S-wave (km/s) = 2.92493 3.32415 3.13091
# Velocity P-wave (km/s) = 6.08547 6.47340 6.28243
#
# Compressibility (1/GPa) = 0.02945097
#
# Stress axis : x y z
#
# Youngs Moduli (GPa) = 32.69264 32.69264 54.26855
#
# Poissons Ratio (x) = 0.35433 0.38633
# Poissons Ratio (y) = 0.35433 0.38633
# Poissons Ratio (z) = 0.23274 0.23274
#
# Static dielectric constant tensor:
#      x y z
#    x 2.456420 0.000000 0.000000 
#    y 0.000000 2.456420 0.000000 
#    z 0.000000 0.000000 2.864450 
# 
# 
# High freq. dielectric constant tensor:
#      x y z
#    x 1.464930 0.000000 0.000000 
#    y 0.000000 1.464930 0.000000 
#    z 0.000000 0.000000 1.524300 
# 
# From -- ./inp_files/1304.got.cif
#   From: 2010.03.12/outbox.cif.g09.slc.cpg/sg84_1_cif.got.tgz:1304.got - 2010.04.08 20:07:29.
