data_PCOD8303805
_publ_section_title
;
Structure prediction by ZEFSAII (Michael W. Deem and Ramdas Pophale) SiO2 
 PCOD8303805
Probable space group: I 4/M
;
_chemical_formula_sum "Si O2"
_cell_formula_units_Z 96
_cell_length_a 16.829285
_cell_length_b 16.829285
_cell_length_c 18.756386
_cell_angle_alpha 90.000000
_cell_angle_beta 90.000000
_cell_angle_gamma 90.000000
_cell_volume 5312.274304
_symmetry_space_group_name_H-M "I 4/M"
_symmetry_group_IT_number 87
_symmetry_cell_setting 'tetragonal'
loop_
_space_group_symop_operation_xyz
x,y,z
-y,x,z
-x,-y,z
y,-x,z
-x,-y,-z
y,-x,-z
x,y,-z
-y,x,-z
1/2+x,1/2+y,1/2+z
1/2-y,1/2+x,1/2+z
1/2-x,1/2-y,1/2+z
1/2+y,1/2-x,1/2+z
1/2-x,1/2-y,1/2-z
1/2+y,1/2-x,1/2-z
1/2+x,1/2+y,1/2-z
1/2-y,1/2+x,1/2-z
loop_
_atom_site_type_symbol
_atom_site_label
_atom_site_fract_x
_atom_site_fract_y
_atom_site_fract_z
Si Si1 0.172932 0.107973 0.421032
Si Si2 0.669833 0.994183 0.420209
Si Si3 0.338644 0.754898 0.721139
Si Si4 0.101877 0.439500 0.780403
Si Si5 0.896019 0.927325 0.275961
Si Si6 0.176163 0.291673 0.420027
O O1 0.135359 0.095493 0.500000
O O2 0.251714 0.057369 0.411497
O O3 0.110558 0.081474 0.361494
O O4 0.196223 0.199404 0.410047
O O5 0.634357 0.985667 0.500000
O O6 0.604732 0.964276 0.363675
O O7 0.693765 0.084117 0.402938
O O8 0.250000 0.750000 0.750000
O O9 0.384008 0.824207 0.762693
O O10 0.381306 0.671584 0.733491
O O11 0.340497 0.771436 0.636452
O O12 0.106074 0.519020 0.731894
O O13 0.980543 0.890720 0.253894
O O14 0.197866 0.320255 0.500000
#
# Coordination Sequence:
#
# PCOD8303805 Si02
#       6
#    16  16  16  16  16  16
#     4  10  19  32  55  84 118 158 193 233 286 353
#     4  10  19  35  56  82 121 158 191 240 298 355
#     4  12  23  38  64  85 117 160 200 237 298 349
#     4  11  23  38  58  89 118 151 201 248 291 355
#     4  11  24  38  57  89 122 153 198 247 289 347
#     4  10  20  36  58  86 115 153 201 241 291 357
#
# _framework density 18.071356000000002
#
# number of rings (size 3 to 8) (size 9 to 14) (size 15 to 20)
#    0.000    1.333    5.000    1.000    2.333    2.000 
#    0.000    3.333    0.000    1.000    0.000    1.167 
#    0.000    0.000    0.000    0.000    0.000    0.000 
#
# Total GULP energy -595211.334595 kJ/mol
# GULP energy per Si atom -12400.236137 kJ/mol
# Density = 1.803022 g / cm^3
# Si number density = 18.071356 Si / 1000 Ang^3
#
#
#
# Elastic Constant Matrix: (Units=GPa)
#
#
# Indices 1 2 3 4 5 6 
#
# 1 102.8617 62.8153 60.1457 0.0000 0.0000 8.9459
# 2 62.8153 102.8617 60.1457 0.0000 0.0000 -8.9459
# 3 60.1457 60.1457 137.7692 0.0000 0.0000 0.0000
# 4 0.0000 0.0000 0.0000 29.0196 0.0000 0.0000
# 5 0.0000 0.0000 0.0000 0.0000 29.0196 0.0000
# 6 8.9459 -8.9459 0.0000 0.0000 0.0000 31.0571
#
#
#
# Elastic Compliance Matrix: (Units=1/GPa)
#
#
# Indices 1 2 3 4 5 6 
#
# 1 0.018748 -0.009911 -0.003858 0.000000 0.000000 -0.008255
# 2 -0.009911 0.018748 -0.003858 0.000000 0.000000 0.008255
# 3 -0.003858 -0.003858 0.010627 0.000000 0.000000 0.000000
# 4 0.000000 0.000000 0.000000 0.034460 0.000000 0.000000
# 5 0.000000 0.000000 0.000000 0.000000 0.034460 0.000000
# 6 -0.008255 0.008255 0.000000 0.000000 0.000000 0.036954
#
#
# Mechanical properties :
#
#
# Convention : Reuss Voigt Hill
#
# Bulk Modulus (GPa) = 77.70509 78.85621 78.28065
# Shear Modulus (GPa) = 25.83440 28.51163 27.17302
#
# Velocity S-wave (km/s) = 3.78508 3.97637 3.88190
# Velocity P-wave (km/s) = 7.88637 8.05064 7.96893
#
# Compressibility (1/GPa) = 0.01286917
#
# Stress axis : x y z
#
# Youngs Moduli (GPa) = 53.33881 53.33882 94.09978
#
# Poissons Ratio (x) = 0.52865 0.36303
# Poissons Ratio (y) = 0.52865 0.36303
# Poissons Ratio (z) = 0.20578 0.20578
#
# Static dielectric constant tensor:
#      x y z
#    x 3.309220 0.000000 0.000000 
#    y 0.000000 3.309220 0.000000 
#    z 0.000000 0.000000 3.633060 
# 
# 
# High freq. dielectric constant tensor:
#      x y z
#    x 1.695140 0.000000 0.000000 
#    y 0.000000 1.695140 0.000000 
#    z 0.000000 0.000000 1.702370 
# 
# From -- ./inp_files/4428.got.cif
#   From: 2010.03.12/outbox.cif.g09.slc.cpg/sg87_3_cif.got.tgz:4428.got - 2010.04.08 20:16:13.
