data_PCOD8303620
_publ_section_title
;
Structure prediction by ZEFSAII (Michael W. Deem and Ramdas Pophale) SiO2 
 PCOD8303620
Probable space group: P 42/N
;
_chemical_formula_sum "Si O2"
_cell_formula_units_Z 48
_cell_length_a 8.745746
_cell_length_b 8.745746
_cell_length_c 29.136045
_cell_angle_alpha 90.000000
_cell_angle_beta 90.000000
_cell_angle_gamma 90.000000
_cell_volume 2228.559940
_symmetry_space_group_name_H-M "P 42/N"
_symmetry_group_IT_number 86
_space_group.IT_coordinate_system_code '2'
_symmetry_cell_setting 'tetragonal'
loop_
_space_group_symop_operation_xyz
x,y,z
-y,1/2+x,1/2+z
1/2-x,1/2-y,z
1/2+y,-x,1/2+z
-x,-y,-z
y,1/2-x,1/2-z
1/2+x,1/2+y,-z
1/2-y,x,1/2-z
loop_
_atom_site_type_symbol
_atom_site_label
_atom_site_fract_x
_atom_site_fract_y
_atom_site_fract_z
Si Si1 0.250000 0.250000 0.584034
Si Si2 0.567496 0.273596 0.374182
Si Si3 0.006172 0.959156 0.447455
Si Si4 0.018442 0.440684 0.634310
Si Si5 0.471509 0.308658 0.272018
Si Si6 0.250000 0.750000 0.906649
Si Si7 0.956709 0.654398 0.265345
O O1 0.120956 0.171653 0.553863
O O2 0.323032 0.119503 0.614764
O O3 0.750000 0.250000 0.367447
O O4 0.527397 0.398152 0.413293
O O5 0.476799 0.312087 0.327192
O O6 0.494742 0.108968 0.387530
O O7 0.170192 0.881972 0.436962
O O8 0.000000 0.000000 0.500000
O O9 0.875422 0.330702 0.625130
O O10 0.049939 0.443956 0.688277
O O11 0.434196 0.150309 0.247136
O O12 0.635476 0.374162 0.255966
O O13 0.833344 0.581087 0.229267
#
# Coordination Sequence:
#
# PCOD8303620 Si02
#       7
#     4   8   8   8   8   4   8
#     4  10  22  46  71 102 140 182 237 296 360 456
#     4  12  25  46  75 104 141 198 247 305 376 446
#     4  11  27  47  77 108 145 189 247 312 386 451
#     4  11  23  45  69 102 143 192 241 300 365 447
#     4  11  26  42  60  99 142 181 234 289 354 433
#     4  10  28  44  72 106 144 188 240 308 382 440
#     4  11  24  39  65  97 135 182 242 285 342 426
#
# _framework density 21.538574000000001
#
# number of rings (size 3 to 8) (size 9 to 14) (size 15 to 20)
#    0.000    1.000    3.333    2.000    8.167    2.000 
#    0.000    3.333    0.000    0.000    0.000    0.000 
#    0.000    0.000    0.000    0.000    0.000    0.000 
#
# Total GULP energy -594793.631205 kJ/mol
# GULP energy per Si atom -12391.533983 kJ/mol
# Density = 2.148955 g / cm^3
# Si number density = 21.538574 Si / 1000 Ang^3
#
#
#
# Elastic Constant Matrix: (Units=GPa)
#
#
# Indices 1 2 3 4 5 6 
#
# 1 96.9616 31.4516 48.2746 0.0000 0.0000 -5.3499
# 2 31.4516 96.9616 48.2746 0.0000 0.0000 5.3499
# 3 48.2746 48.2746 138.2828 0.0000 0.0000 0.0000
# 4 0.0000 0.0000 0.0000 13.8934 0.0000 0.0000
# 5 0.0000 0.0000 0.0000 0.0000 13.8934 0.0000
# 6 -5.3499 5.3499 0.0000 0.0000 0.0000 42.3101
#
#
#
# Elastic Compliance Matrix: (Units=1/GPa)
#
#
# Indices 1 2 3 4 5 6 
#
# 1 0.013073 -0.002514 -0.003686 0.000000 0.000000 0.001971
# 2 -0.002514 0.013073 -0.003686 0.000000 0.000000 -0.001971
# 3 -0.003686 -0.003686 0.009805 0.000000 0.000000 0.000000
# 4 0.000000 0.000000 0.000000 0.071976 0.000000 0.000000
# 5 0.000000 0.000000 0.000000 0.000000 0.071976 0.000000
# 6 0.001971 -0.001971 0.000000 0.000000 0.000000 0.024133
#
#
# Mechanical properties :
#
#
# Convention : Reuss Voigt Hill
#
# Bulk Modulus (GPa) = 61.81063 65.35640 63.58352
# Shear Modulus (GPa) = 21.81481 27.63307 24.72394
#
# Velocity S-wave (km/s) = 3.18594 3.58573 3.39173
# Velocity P-wave (km/s) = 6.50335 6.89587 6.70248
#
# Compressibility (1/GPa) = 0.01617845
#
# Stress axis : x y z
#
# Youngs Moduli (GPa) = 76.49488 76.49488 101.98691
#
# Poissons Ratio (x) = 0.19231 0.37593
# Poissons Ratio (y) = 0.19231 0.37593
# Poissons Ratio (z) = 0.28197 0.28197
#
# Static dielectric constant tensor:
#      x y z
#    x 3.999150 0.000000 0.000000 
#    y 0.000000 3.999150 0.000000 
#    z 0.000000 0.000000 3.709600 
# 
# 
# High freq. dielectric constant tensor:
#      x y z
#    x 1.862340 0.000000 0.000000 
#    y 0.000000 1.862340 0.000000 
#    z 0.000000 0.000000 1.824180 
# 
# From -- ./inp_files/5229.got.cif
#   From: 2010.03.12/outbox.cif.g09.slc.cpg/sg86_3_cif.got.tgz:5229.got - 2010.04.08 20:12:58.
