data_PCOD8303480
_publ_section_title
;
Structure prediction by ZEFSAII (Michael W. Deem and Ramdas Pophale) SiO2 
 PCOD8303480
Probable space group: P 42/N
;
_chemical_formula_sum "Si O2"
_cell_formula_units_Z 56
_cell_length_a 14.721936
_cell_length_b 14.721936
_cell_length_c 13.823855
_cell_angle_alpha 90.000000
_cell_angle_beta 90.000000
_cell_angle_gamma 90.000000
_cell_volume 2996.118737
_symmetry_space_group_name_H-M "P 42/N"
_symmetry_group_IT_number 86
_space_group.IT_coordinate_system_code '2'
_symmetry_cell_setting 'tetragonal'
loop_
_space_group_symop_operation_xyz
x,y,z
-y,1/2+x,1/2+z
1/2-x,1/2-y,z
1/2+y,-x,1/2+z
-x,-y,-z
y,1/2-x,1/2-z
1/2+x,1/2+y,-z
1/2-y,x,1/2-z
loop_
_atom_site_type_symbol
_atom_site_label
_atom_site_fract_x
_atom_site_fract_y
_atom_site_fract_z
Si Si1 0.115781 0.637254 0.858492
Si Si2 0.607960 0.709420 0.575308
Si Si3 0.893005 0.792023 0.918437
Si Si4 0.293674 0.976479 0.252481
Si Si5 0.543169 0.571615 0.428592
Si Si6 0.787789 0.032605 0.446595
Si Si7 0.277019 0.653466 0.726228
O O1 0.052432 0.692541 0.784843
O O2 0.088717 0.531474 0.845941
O O3 0.221644 0.642550 0.827143
O O4 0.099456 0.673438 0.968449
O O5 0.692775 0.647421 0.610890
O O6 0.639740 0.812139 0.554681
O O7 0.525695 0.708822 0.650332
O O8 0.566701 0.668150 0.477784
O O9 0.950435 0.832599 0.829046
O O10 0.961380 0.784052 0.009167
O O11 0.355291 0.885243 0.247185
O O12 0.500000 0.500000 0.500000
O O13 0.634681 0.525447 0.391058
O O14 0.742575 0.086900 0.358742
O O15 0.250000 0.750000 0.681786
#
# Coordination Sequence:
#
# PCOD8303480 Si02
#       7
#     8   8   8   8   8   8   8
#     4   9  19  34  50  73 100 132 175 219 262 315
#     4  10  18  31  51  77 104 134 170 211 267 323
#     4   9  19  31  49  76 106 133 165 218 272 317
#     4  10  18  29  48  74 101 131 170 212 260 315
#     4   9  17  32  54  74  98 135 175 214 260 317
#     4   9  18  34  54  73  99 137 177 216 265 323
#     4  10  21  34  52  75 103 142 180 217 266 323
#
# _framework density 18.690847999999999
#
# number of rings (size 3 to 8) (size 9 to 14) (size 15 to 20)
#    0.000    2.571    0.000    3.429    0.000    5.143 
#    0.000    1.429    0.000    4.286    0.000    0.000 
#    0.000    0.000    0.000    0.000    0.000    0.000 
#
# Total GULP energy -693830.544452 kJ/mol
# GULP energy per Si atom -12389.831151 kJ/mol
# Density = 1.864831 g / cm^3
# Si number density = 18.690848 Si / 1000 Ang^3
#
#
#
# Elastic Constant Matrix: (Units=GPa)
#
#
# Indices 1 2 3 4 5 6 
#
# 1 98.8319 25.4994 35.9094 0.0000 0.0000 -2.2263
# 2 25.4994 98.8319 35.9094 0.0000 0.0000 2.2263
# 3 35.9094 35.9094 59.4658 0.0000 0.0000 0.0000
# 4 0.0000 0.0000 0.0000 27.4774 0.0000 0.0000
# 5 0.0000 0.0000 0.0000 0.0000 27.4774 0.0000
# 6 -2.2263 2.2263 0.0000 0.0000 0.0000 22.0330
#
#
#
# Elastic Compliance Matrix: (Units=1/GPa)
#
#
# Indices 1 2 3 4 5 6 
#
# 1 0.013036 -0.000685 -0.007459 0.000000 0.000000 0.001386
# 2 -0.000685 0.013036 -0.007459 0.000000 0.000000 -0.001386
# 3 -0.007459 -0.007459 0.025824 0.000000 0.000000 0.000000
# 4 0.000000 0.000000 0.000000 0.036394 0.000000 0.000000
# 5 0.000000 0.000000 0.000000 0.000000 0.036394 0.000000
# 6 0.001386 -0.001386 0.000000 0.000000 0.000000 0.045667
#
#
# Mechanical properties :
#
#
# Convention : Reuss Voigt Hill
#
# Bulk Modulus (GPa) = 48.32600 50.19625 49.26113
# Shear Modulus (GPa) = 23.98636 26.05163 25.01899
#
# Velocity S-wave (km/s) = 3.58623 3.73744 3.66262
# Velocity P-wave (km/s) = 6.56199 6.74825 6.65577
#
# Compressibility (1/GPa) = 0.02069279
#
# Stress axis : x y z
#
# Youngs Moduli (GPa) = 76.71027 76.71027 38.72305
#
# Poissons Ratio (x) = 0.05252 0.28882
# Poissons Ratio (y) = 0.05252 0.28882
# Poissons Ratio (z) = 0.57215 0.57215
#
# Static dielectric constant tensor:
#      x y z
#    x 3.797430 0.000000 0.000000 
#    y 0.000000 3.797430 0.000000 
#    z 0.000000 0.000000 3.247090 
# 
# 
# High freq. dielectric constant tensor:
#      x y z
#    x 1.725040 0.000000 0.000000 
#    y 0.000000 1.725040 0.000000 
#    z 0.000000 0.000000 1.691340 
# 
# From -- ./inp_files/3061.got.cif
#   From: 2010.03.12/outbox.cif.g09.slc.cpg/sg86_2_cif.got.tgz:3061.got - 2010.04.08 20:12:58.
