data_PCOD8303311
_publ_section_title
;
Structure prediction by ZEFSAII (Michael W. Deem and Ramdas Pophale) SiO2 
 PCOD8303311
Probable space group: P 42/M
;
_chemical_formula_sum "Si O2"
_cell_formula_units_Z 48
_cell_length_a 11.189087
_cell_length_b 11.189087
_cell_length_c 17.465620
_cell_angle_alpha 90.000000
_cell_angle_beta 90.000000
_cell_angle_gamma 90.000000
_cell_volume 2186.619961
_symmetry_space_group_name_H-M "P 42/M"
_symmetry_group_IT_number 84
_symmetry_cell_setting 'tetragonal'
loop_
_space_group_symop_operation_xyz
x,y,z
-y,x,1/2+z
-x,-y,z
y,-x,1/2+z
-x,-y,-z
y,-x,1/2-z
x,y,-z
-y,x,1/2-z
loop_
_atom_site_type_symbol
_atom_site_label
_atom_site_fract_x
_atom_site_fract_y
_atom_site_fract_z
Si Si1 0.745746 0.677497 0.088925
Si Si2 0.214766 0.778380 0.085486
Si Si3 0.360328 0.995902 0.659331
Si Si4 0.447861 0.279941 0.807123
Si Si5 0.573007 0.641498 0.639723
Si Si6 0.387689 0.931263 0.827323
O O1 0.877067 0.694216 0.122516
O O2 0.659233 0.767012 0.137642
O O3 0.691821 0.546517 0.102272
O O4 0.744059 0.712011 0.000000
O O5 0.318109 0.678576 0.082634
O O6 0.271066 0.901587 0.121259
O O7 0.103012 0.722138 0.130082
O O8 0.173856 0.811099 0.000000
O O9 0.349355 0.003693 0.751412
O O10 0.500000 0.000000 0.633618
O O11 0.400057 0.299300 0.722259
O O12 0.497776 0.405279 0.845875
O O13 0.560243 0.194250 0.798622
O O14 0.500000 0.000000 0.869033
#
# Coordination Sequence:
#
# PCOD8303311 Si02
#       6
#     8   8   8   8   8   8
#     4  12  23  33  54  86 124 167 208 263 330 389
#     4  11  23  38  62  96 130 161 213 281 335 388
#     4  11  21  39  63  91 126 170 218 267 330 401
#     4  11  21  35  56  84 123 167 217 260 314 398
#     4  11  19  34  54  81 124 170 206 253 325 397
#     4  10  22  42  68  90 121 173 220 264 324 401
#
# _framework density 21.951689999999999
#
# number of rings (size 3 to 8) (size 9 to 14) (size 15 to 20)
#    0.000    1.000    5.000    3.500    0.000    5.000 
#    0.000    0.000    0.000    3.500    0.000    5.833 
#    0.000    0.000    0.000    0.000    0.000    0.000 
#
# Total GULP energy -594687.459157 kJ/mol
# GULP energy per Si atom -12389.322066 kJ/mol
# Density = 2.190173 g / cm^3
# Si number density = 21.951690 Si / 1000 Ang^3
#
#
#
# Elastic Constant Matrix: (Units=GPa)
#
#
# Indices 1 2 3 4 5 6 
#
# 1 78.3359 24.5353 32.2651 0.0000 0.0000 1.7286
# 2 24.5353 78.3359 32.2651 0.0000 0.0000 -1.7286
# 3 32.2651 32.2651 111.6360 0.0000 0.0000 0.0000
# 4 0.0000 0.0000 0.0000 28.5905 0.0000 0.0000
# 5 0.0000 0.0000 0.0000 0.0000 28.5905 0.0000
# 6 1.7286 -1.7286 0.0000 0.0000 0.0000 40.2314
#
#
#
# Elastic Compliance Matrix: (Units=1/GPa)
#
#
# Indices 1 2 3 4 5 6 
#
# 1 0.015256 -0.003383 -0.003432 0.000000 0.000000 -0.000801
# 2 -0.003383 0.015256 -0.003432 0.000000 0.000000 0.000801
# 3 -0.003432 -0.003432 0.010941 0.000000 0.000000 0.000000
# 4 0.000000 0.000000 0.000000 0.034977 0.000000 0.000000
# 5 0.000000 0.000000 0.000000 0.000000 0.034977 0.000000
# 6 -0.000801 0.000801 0.000000 0.000000 0.000000 0.024925
#
#
# Mechanical properties :
#
#
# Convention : Reuss Voigt Hill
#
# Bulk Modulus (GPa) = 47.70613 49.60433 48.65523
# Shear Modulus (GPa) = 30.52299 31.43197 30.97748
#
# Velocity S-wave (km/s) = 3.73294 3.78811 3.76062
# Velocity P-wave (km/s) = 6.35289 6.46368 6.40853
#
# Compressibility (1/GPa) = 0.02096167
#
# Stress axis : x y z
#
# Youngs Moduli (GPa) = 65.54756 65.54756 91.39635
#
# Poissons Ratio (x) = 0.22172 0.31365
# Poissons Ratio (y) = 0.22172 0.31365
# Poissons Ratio (z) = 0.22494 0.22494
#
# Static dielectric constant tensor:
#      x y z
#    x 4.052590 0.000000 0.000000 
#    y 0.000000 4.052590 0.000000 
#    z 0.000000 0.000000 3.925200 
# 
# 
# High freq. dielectric constant tensor:
#      x y z
#    x 1.855140 0.000000 0.000000 
#    y 0.000000 1.855140 0.000000 
#    z 0.000000 0.000000 1.850920 
# 
# From -- ./inp_files/3725.got.cif
#   From: 2010.03.12/outbox.cif.g09.slc.cpg/sg84_2_cif.got.tgz:3725.got - 2010.04.08 20:07:29.
