data_PCOD8303489
_publ_section_title
;
Structure prediction by ZEFSAII (Michael W. Deem and Ramdas Pophale) SiO2 
 PCOD8303489
Probable space group: P 42/N
;
_chemical_formula_sum "Si O2"
_cell_formula_units_Z 54
_cell_length_a 15.943624
_cell_length_b 15.943624
_cell_length_c 9.367536
_cell_angle_alpha 90.000000
_cell_angle_beta 90.000000
_cell_angle_gamma 90.000000
_cell_volume 2381.219654
_symmetry_space_group_name_H-M "P 42/N"
_symmetry_group_IT_number 86
_space_group.IT_coordinate_system_code '2'
_symmetry_cell_setting 'tetragonal'
loop_
_space_group_symop_operation_xyz
x,y,z
-y,1/2+x,1/2+z
1/2-x,1/2-y,z
1/2+y,-x,1/2+z
-x,-y,-z
y,1/2-x,1/2-z
1/2+x,1/2+y,-z
1/2-y,x,1/2-z
loop_
_atom_site_type_symbol
_atom_site_label
_atom_site_fract_x
_atom_site_fract_y
_atom_site_fract_z
Si Si1 0.250000 0.250000 0.250000
Si Si2 0.450037 0.672771 0.063430
Si Si3 0.901123 0.522932 0.904765
Si Si4 0.964641 0.931964 0.294268
Si Si5 0.250000 0.750000 0.830543
Si Si6 0.834212 0.162975 0.419360
Si Si7 0.152709 0.394088 0.366664
Si Si8 0.098826 0.994962 0.970147
O O1 0.217947 0.318834 0.362984
O O2 0.481644 0.639294 0.215717
O O3 0.407006 0.761491 0.083664
O O4 0.531129 0.685738 0.965034
O O5 0.381864 0.603997 0.996784
O O6 0.875866 0.425742 0.919294
O O7 0.844544 0.573050 0.795325
O O8 0.995617 0.528902 0.844674
O O9 0.892606 0.570485 0.058012
O O10 0.890735 0.973205 0.194556
O O11 0.175768 0.781970 0.725281
O O12 0.215921 0.676299 0.934271
O O13 0.061440 0.358517 0.421519
O O14 0.000000 0.000000 0.000000
#
# Coordination Sequence:
#
# PCOD8303489 Si02
#       8
#     2   8   8   8   4   8   8   8
#     4  12  28  44  64 102 132 168 224 294 328 392
#     4  10  18  40  62  91 121 170 216 266 324 394
#     4  11  19  35  60  97 118 167 214 265 312 403
#     4   9  18  32  62  92 124 149 225 259 308 381
#     4  10  24  42  48  90 138 158 204 272 324 400
#     4  11  23  38  62  88 132 170 212 264 339 386
#     4  10  21  42  64  90 128 168 226 262 337 387
#     4   8  15  36  63  89 116 163 207 264 315 393
#
# _framework density 22.677454999999998
#
# number of rings (size 3 to 8) (size 9 to 14) (size 15 to 20)
#    0.000    2.370    4.444    1.778    0.000    2.370 
#    8.000    2.963    0.000    3.556    0.000    0.000 
#    0.000    0.000    0.000    0.000    0.000    0.000 
#
# Total GULP energy -668963.073076 kJ/mol
# GULP energy per Si atom -12388.205057 kJ/mol
# Density = 2.262584 g / cm^3
# Si number density = 22.677455 Si / 1000 Ang^3
#
#
#
# Elastic Constant Matrix: (Units=GPa)
#
#
# Indices 1 2 3 4 5 6 
#
# 1 63.9225 34.9013 38.3022 0.0000 0.0000 8.9565
# 2 34.9013 63.9225 38.3022 0.0000 0.0000 -8.9565
# 3 38.3022 38.3022 187.8102 0.0000 0.0000 0.0000
# 4 0.0000 0.0000 0.0000 13.6916 0.0000 0.0000
# 5 0.0000 0.0000 0.0000 0.0000 13.6916 0.0000
# 6 8.9565 -8.9565 0.0000 0.0000 0.0000 31.3582
#
#
#
# Elastic Compliance Matrix: (Units=1/GPa)
#
#
# Indices 1 2 3 4 5 6 
#
# 1 0.026926 -0.014907 -0.002451 0.000000 0.000000 -0.011948
# 2 -0.014907 0.026926 -0.002451 0.000000 0.000000 0.011948
# 3 -0.002451 -0.002451 0.006324 0.000000 0.000000 0.000000
# 4 0.000000 0.000000 0.000000 0.073038 0.000000 0.000000
# 5 0.000000 0.000000 0.000000 0.000000 0.073038 0.000000
# 6 -0.011948 0.011948 0.000000 0.000000 0.000000 0.038715
#
#
# Mechanical properties :
#
#
# Convention : Reuss Voigt Hill
#
# Bulk Modulus (GPa) = 48.64343 59.85184 54.24764
# Shear Modulus (GPa) = 17.15642 25.35825 21.25733
#
# Velocity S-wave (km/s) = 2.75351 3.34760 3.06498
# Velocity P-wave (km/s) = 5.62190 6.43365 6.04143
#
# Compressibility (1/GPa) = 0.02055776
#
# Stress axis : x y z
#
# Youngs Moduli (GPa) = 37.13926 37.13926 158.11981
#
# Poissons Ratio (x) = 0.55362 0.38758
# Poissons Ratio (y) = 0.55362 0.38758
# Poissons Ratio (z) = 0.09104 0.09104
#
# Static dielectric constant tensor:
#      x y z
#    x 4.003480 0.000000 0.000000 
#    y 0.000000 4.003480 0.000000 
#    z 0.000000 0.000000 4.829600 
# 
# 
# High freq. dielectric constant tensor:
#      x y z
#    x 1.865050 0.000000 0.000000 
#    y 0.000000 1.865050 0.000000 
#    z 0.000000 0.000000 1.919420 
# 
# From -- ./inp_files/1441.got.cif
#   From: 2010.03.12/outbox.cif.g09.slc.cpg/sg86_1_cif.got.tgz:1441.got - 2010.04.08 20:12:58.
