data_PCOD8303095
_publ_section_title
;
Structure prediction by ZEFSAII (Michael W. Deem and Ramdas Pophale) SiO2 
 PCOD8303095
Probable space group: P 42/M
;
_chemical_formula_sum "Si O2"
_cell_formula_units_Z 40
_cell_length_a 19.461791
_cell_length_b 19.461791
_cell_length_c 7.857983
_cell_angle_alpha 90.000000
_cell_angle_beta 90.000000
_cell_angle_gamma 90.000000
_cell_volume 2976.299927
_symmetry_space_group_name_H-M "P 42/M"
_symmetry_group_IT_number 84
_symmetry_cell_setting 'tetragonal'
loop_
_space_group_symop_operation_xyz
x,y,z
-y,x,1/2+z
-x,-y,z
y,-x,1/2+z
-x,-y,-z
y,-x,1/2-z
x,y,-z
-y,x,1/2-z
loop_
_atom_site_type_symbol
_atom_site_label
_atom_site_fract_x
_atom_site_fract_y
_atom_site_fract_z
Si Si1 0.420029 0.317480 0.700981
Si Si2 0.922117 0.581803 0.000000
Si Si3 0.168141 0.582231 0.690428
Si Si4 0.580954 0.166312 0.186907
Si Si5 0.574601 0.310691 0.694780
Si Si6 0.582356 0.922780 0.500000
O O1 0.412492 0.321839 0.500000
O O2 0.391212 0.244472 0.766264
O O3 0.498383 0.328792 0.763094
O O4 0.376291 0.377561 0.785503
O O5 0.884109 0.611028 0.831491
O O6 0.921776 0.499763 0.000000
O O7 0.999567 0.610374 0.000000
O O8 0.147019 0.606742 0.500000
O O9 0.167673 0.500630 0.703074
O O10 0.114706 0.611316 0.830272
O O11 0.606786 0.244774 0.208990
O O12 0.604007 0.139683 0.000000
O O13 0.567615 0.288192 0.500000
#
# Coordination Sequence:
#
# PCOD8303095 Si02
#       6
#     8   4   8   8   8   4
#     4  10  19  30  42  55  73  97 128 166 205 243
#     4   9  16  26  40  58  77  95 117 145 183 232
#     4   9  16  27  41  55  74  97 119 148 188 231
#     4   9  16  27  41  55  74  97 119 148 188 231
#     4  10  19  30  42  55  73  97 128 166 205 243
#     4   9  16  26  40  58  77  95 117 145 183 232
#
# _framework density 13.439506
#
# number of rings (size 3 to 8) (size 9 to 14) (size 15 to 20)
#    0.000    2.600    2.000    1.200    0.000    3.600 
#    0.000    6.000    0.000    0.000    0.000    0.000 
#    0.000    0.000    0.000    0.000    0.000    0.000 
#
# Total GULP energy -495838.919460 kJ/mol
# GULP energy per Si atom -12395.972986 kJ/mol
# Density = 1.340892 g / cm^3
# Si number density = 13.439506 Si / 1000 Ang^3
#
#
#
# Elastic Constant Matrix: (Units=GPa)
#
#
# Indices 1 2 3 4 5 6 
#
# 1 61.2056 25.1859 28.6984 0.0000 0.0000 0.2295
# 2 25.1859 61.2056 28.6984 0.0000 0.0000 -0.2295
# 3 28.6984 28.6984 87.5722 0.0000 0.0000 0.0000
# 4 0.0000 0.0000 0.0000 14.0440 0.0000 0.0000
# 5 0.0000 0.0000 0.0000 0.0000 14.0440 0.0000
# 6 0.2295 -0.2295 0.0000 0.0000 0.0000 0.0698
#
#
#
# Elastic Compliance Matrix: (Units=1/GPa)
#
#
# Indices 1 2 3 4 5 6 
#
# 1 0.021887 -0.007090 -0.004849 0.000000 0.000000 -0.095261
# 2 -0.007090 0.021887 -0.004849 0.000000 0.000000 0.095261
# 3 -0.004849 -0.004849 0.014597 0.000000 0.000000 0.000000
# 4 0.000000 0.000000 0.000000 0.071205 0.000000 0.000000
# 5 0.000000 0.000000 0.000000 0.000000 0.071205 0.000000
# 6 -0.095261 0.095261 0.000000 0.000000 0.000000 14.950237
#
#
# Mechanical properties :
#
#
# Convention : Reuss Voigt Hill
#
# Bulk Modulus (GPa) = 40.33123 41.68320 41.00721
# Shear Modulus (GPa) = 0.32910 14.12496 7.22703
#
# Velocity S-wave (km/s) = 0.49539 3.24543 2.32145
# Velocity P-wave (km/s) = 5.51378 6.71763 6.14526
#
# Compressibility (1/GPa) = 0.02479468
#
# Stress axis : x y z
#
# Youngs Moduli (GPa) = 45.68991 45.68991 68.50560
#
# Poissons Ratio (x) = 0.32393 0.33219
# Poissons Ratio (y) = 0.32393 0.33219
# Poissons Ratio (z) = 0.22155 0.22155
#
# Static dielectric constant tensor:
#      x y z
#    x 2.435880 0.000000 0.000000 
#    y 0.000000 2.435880 0.000000 
#    z 0.000000 0.000000 2.938660 
# 
# 
# High freq. dielectric constant tensor:
#      x y z
#    x 1.466800 0.000000 0.000000 
#    y 0.000000 1.466800 0.000000 
#    z 0.000000 0.000000 1.536770 
# 
# From -- ./inp_files/926.got.cif
#   From: 2010.03.12/outbox.cif.g09.slc.cpg/sg84_1_cif.got.tgz:926.got - 2010.04.08 20:07:29.
