data_PCOD8303393
_publ_section_title
;
Structure prediction by ZEFSAII (Michael W. Deem and Ramdas Pophale) SiO2 
 PCOD8303393
Probable space group: P 42/M
;
_chemical_formula_sum "Si O2"
_cell_formula_units_Z 26
_cell_length_a 11.707931
_cell_length_b 11.707931
_cell_length_c 8.876409
_cell_angle_alpha 90.000000
_cell_angle_beta 90.000000
_cell_angle_gamma 90.000000
_cell_volume 1216.739518
_symmetry_space_group_name_H-M "P 42/M"
_symmetry_group_IT_number 84
_symmetry_cell_setting 'tetragonal'
loop_
_space_group_symop_operation_xyz
x,y,z
-y,x,1/2+z
-x,-y,z
y,-x,1/2+z
-x,-y,-z
y,-x,1/2-z
x,y,-z
-y,x,1/2-z
loop_
_atom_site_type_symbol
_atom_site_label
_atom_site_fract_x
_atom_site_fract_y
_atom_site_fract_z
Si Si1 0.127832 0.288935 0.675947
Si Si2 0.705086 0.863980 0.823892
Si Si3 0.494592 0.751671 0.332639
Si Si4 0.500000 0.500000 0.250000
O O1 0.144776 0.264707 0.500000
O O2 0.170354 0.179177 0.770550
O O3 0.199366 0.400098 0.720433
O O4 0.996156 0.310293 0.715422
O O5 0.616367 0.788815 0.730751
O O6 0.688257 0.840043 0.000000
O O7 0.476587 0.802469 0.500000
O O8 0.488511 0.614653 0.348733
#
# Coordination Sequence:
#
# PCOD8303393 Si02
#       4
#     8   8   8   2
#     4  11  25  44  67  96 132 173 219 273 327 385
#     4  11  25  44  67  96 132 173 219 273 327 385
#     4  12  25  42  68  99 135 173 213 266 330 395
#     4  12  26  40  68 106 134 164 206 264 326 388
#
# _framework density 21.368584999999999
#
# number of rings (size 3 to 8) (size 9 to 14) (size 15 to 20)
#    0.000    0.615    3.077    4.154    0.000   11.692 
#    0.000    3.077    0.000    0.000    0.000    0.000 
#    0.000    0.000    0.000    0.000    0.000    0.000 
#
# Total GULP energy -322498.887579 kJ/mol
# GULP energy per Si atom -12403.803368 kJ/mol
# Density = 2.131995 g / cm^3
# Si number density = 21.368585 Si / 1000 Ang^3
#
#
#
# Elastic Constant Matrix: (Units=GPa)
#
#
# Indices 1 2 3 4 5 6 
#
# 1 118.4378 40.9113 29.9867 0.0000 0.0000 3.6140
# 2 40.9113 118.4378 29.9867 0.0000 0.0000 -3.6140
# 3 29.9867 29.9867 75.4998 0.0000 0.0000 0.0000
# 4 0.0000 0.0000 0.0000 29.1894 0.0000 0.0000
# 5 0.0000 0.0000 0.0000 0.0000 29.1894 0.0000
# 6 3.6140 -3.6140 0.0000 0.0000 0.0000 26.3744
#
#
#
# Elastic Compliance Matrix: (Units=1/GPa)
#
#
# Indices 1 2 3 4 5 6 
#
# 1 0.010222 -0.002844 -0.002931 0.000000 0.000000 -0.001790
# 2 -0.002844 0.010222 -0.002931 0.000000 0.000000 0.001790
# 3 -0.002931 -0.002931 0.015573 0.000000 0.000000 0.000000
# 4 0.000000 0.000000 0.000000 0.034259 0.000000 0.000000
# 5 0.000000 0.000000 0.000000 0.000000 0.034259 0.000000
# 6 -0.001790 0.001790 0.000000 0.000000 0.000000 0.038406
#
#
# Mechanical properties :
#
#
# Convention : Reuss Voigt Hill
#
# Bulk Modulus (GPa) = 53.74118 57.12722 55.43420
# Shear Modulus (GPa) = 30.02040 31.05003 30.53521
#
# Velocity S-wave (km/s) = 3.75225 3.81605 3.78428
# Velocity P-wave (km/s) = 6.63149 6.79769 6.71510
#
# Compressibility (1/GPa) = 0.01860771
#
# Stress axis : x y z
#
# Youngs Moduli (GPa) = 97.82716 97.82716 64.21380
#
# Poissons Ratio (x) = 0.27818 0.18818
# Poissons Ratio (y) = 0.27818 0.18818
# Poissons Ratio (z) = 0.28669 0.28669
#
# Static dielectric constant tensor:
#      x y z
#    x 3.980010 0.000000 0.000000 
#    y 0.000000 3.980010 0.000000 
#    z 0.000000 0.000000 3.794110 
# 
# 
# High freq. dielectric constant tensor:
#      x y z
#    x 1.845310 0.000000 0.000000 
#    y 0.000000 1.845310 0.000000 
#    z 0.000000 0.000000 1.846250 
# 
# From -- ./inp_files/436.got.cif
#   From: 2010.03.12/outbox.cif.g09.slc.cpg/sg84_1_cif.got.tgz:436.got - 2010.04.08 20:07:29.
