data_PCOD8303375
_publ_section_title
;
Structure prediction by ZEFSAII (Michael W. Deem and Ramdas Pophale) SiO2 
 PCOD8303375
Probable space group: P 42/M
;
_chemical_formula_sum "Si O2"
_cell_formula_units_Z 24
_cell_length_a 8.869027
_cell_length_b 8.869027
_cell_length_c 13.343753
_cell_angle_alpha 90.000000
_cell_angle_beta 90.000000
_cell_angle_gamma 90.000000
_cell_volume 1049.614806
_symmetry_space_group_name_H-M "P 42/M"
_symmetry_group_IT_number 84
_symmetry_cell_setting 'tetragonal'
loop_
_space_group_symop_operation_xyz
x,y,z
-y,x,1/2+z
-x,-y,z
y,-x,1/2+z
-x,-y,-z
y,-x,1/2-z
x,y,-z
-y,x,1/2-z
loop_
_atom_site_type_symbol
_atom_site_label
_atom_site_fract_x
_atom_site_fract_y
_atom_site_fract_z
Si Si1 0.058204 0.222228 0.787628
Si Si2 0.664144 0.071565 0.500000
Si Si3 0.662685 0.429484 0.500000
Si Si4 0.280207 0.451637 0.710162
O O1 0.015912 0.240603 0.904127
O O2 0.124477 0.380018 0.747865
O O3 0.909693 0.182380 0.724427
O O4 0.650508 0.250923 0.500000
O O5 0.500000 0.000000 0.500000
O O6 0.500000 0.500000 0.500000
O O7 0.748970 0.486172 0.598879
O O8 0.326688 0.585571 0.786936
#
# Coordination Sequence:
#
# PCOD8303375 Si02
#       4
#     8   4   4   8
#     4  11  28  48  69 104 149 190 244 298 370 443
#     4  12  28  44  78 106 141 199 243 291 379 434
#     4  12  22  39  66 111 137 180 239 302 360 423
#     4  11  22  40  69 102 143 181 241 304 356 421
#
# _framework density 22.865532000000002
#
# number of rings (size 3 to 8) (size 9 to 14) (size 15 to 20)
#    0.000    0.667    6.667    0.000    9.333    4.000 
#    0.000    1.667    0.000    0.000    0.000    0.000 
#    0.000    0.000    0.000    0.000    0.000    0.000 
#
# Total GULP energy -297702.331518 kJ/mol
# GULP energy per Si atom -12404.263813 kJ/mol
# Density = 2.281349 g / cm^3
# Si number density = 22.865532 Si / 1000 Ang^3
#
#
#
# Elastic Constant Matrix: (Units=GPa)
#
#
# Indices 1 2 3 4 5 6 
#
# 1 72.3073 29.3373 56.3580 0.0000 0.0000 8.9088
# 2 29.3373 72.3073 56.3580 0.0000 0.0000 -8.9088
# 3 56.3580 56.3580 192.0377 0.0000 0.0000 0.0000
# 4 0.0000 0.0000 0.0000 34.0787 0.0000 0.0000
# 5 0.0000 0.0000 0.0000 0.0000 34.0787 0.0000
# 6 8.9088 -8.9088 0.0000 0.0000 0.0000 61.1542
#
#
#
# Elastic Compliance Matrix: (Units=1/GPa)
#
#
# Indices 1 2 3 4 5 6 
#
# 1 0.019676 -0.005092 -0.004280 0.000000 0.000000 -0.003608
# 2 -0.005092 0.019676 -0.004280 0.000000 0.000000 0.003608
# 3 -0.004280 -0.004280 0.007720 0.000000 0.000000 0.000000
# 4 0.000000 0.000000 0.000000 0.029344 0.000000 0.000000
# 5 0.000000 0.000000 0.000000 0.000000 0.029344 0.000000
# 6 -0.003608 0.003608 0.000000 0.000000 0.000000 0.017403
#
#
# Mechanical properties :
#
#
# Convention : Reuss Voigt Hill
#
# Bulk Modulus (GPa) = 50.58684 68.97321 59.78002
# Shear Modulus (GPa) = 31.83559 38.83561 35.33560
#
# Velocity S-wave (km/s) = 3.73540 4.12568 3.93538
# Velocity P-wave (km/s) = 6.38560 7.27497 6.84474
#
# Compressibility (1/GPa) = 0.01976799
#
# Stress axis : x y z
#
# Youngs Moduli (GPa) = 50.82239 50.82239 129.54099
#
# Poissons Ratio (x) = 0.25878 0.55446
# Poissons Ratio (y) = 0.25878 0.55446
# Poissons Ratio (z) = 0.21753 0.21753
#
# Static dielectric constant tensor:
#      x y z
#    x 4.121500 0.000000 0.000000 
#    y 0.000000 4.121500 0.000000 
#    z 0.000000 0.000000 4.832030 
# 
# 
# High freq. dielectric constant tensor:
#      x y z
#    x 1.900660 0.000000 0.000000 
#    y 0.000000 1.900660 0.000000 
#    z 0.000000 0.000000 1.908190 
# 
# From -- ./inp_files/2613.got.cif
#   From: 2010.03.12/outbox.cif.g09.slc.cpg/sg84_2_cif.got.tgz:2613.got - 2010.04.08 20:07:29.
