data_PCOD8303221
_publ_section_title
;
Structure prediction by ZEFSAII (Michael W. Deem and Ramdas Pophale) SiO2 
 PCOD8303221
Probable space group: P 42/M
;
_chemical_formula_sum "Si O2"
_cell_formula_units_Z 48
_cell_length_a 16.870486
_cell_length_b 16.870486
_cell_length_c 8.991790
_cell_angle_alpha 90.000000
_cell_angle_beta 90.000000
_cell_angle_gamma 90.000000
_cell_volume 2559.183006
_symmetry_space_group_name_H-M "P 42/M"
_symmetry_group_IT_number 84
_symmetry_cell_setting 'tetragonal'
loop_
_space_group_symop_operation_xyz
x,y,z
-y,x,1/2+z
-x,-y,z
y,-x,1/2+z
-x,-y,-z
y,-x,1/2-z
x,y,-z
-y,x,1/2-z
loop_
_atom_site_type_symbol
_atom_site_label
_atom_site_fract_x
_atom_site_fract_y
_atom_site_fract_z
Si Si1 0.382594 0.504094 0.177481
Si Si2 0.208764 0.087021 0.829378
Si Si3 0.075115 0.628308 0.173268
Si Si4 0.800662 0.505274 0.172467
Si Si5 0.380173 0.914116 0.829460
Si Si6 0.805192 0.090616 0.166891
O O1 0.424443 0.580219 0.252110
O O2 0.290169 0.507922 0.220087
O O3 0.396119 0.505114 0.000000
O O4 0.285639 0.099830 0.729705
O O5 0.143221 0.150872 0.787607
O O6 0.171274 0.000423 0.804073
O O7 0.234574 0.097742 0.000000
O O8 0.149481 0.572923 0.211179
O O9 0.995689 0.594303 0.249472
O O10 0.057042 0.632194 0.000000
O O11 0.837200 0.578113 0.262336
O O12 0.806323 0.526882 0.000000
O O13 0.287687 0.898886 0.808818
O O14 0.404307 0.923576 0.000000
O O15 0.829638 0.116434 0.000000
#
# Coordination Sequence:
#
# PCOD8303221 Si02
#       6
#     8   8   8   8   8   8
#     4  10  21  39  59  80 108 140 177 220 270 323
#     4  10  21  36  55  80 107 140 185 228 268 319
#     4  10  20  36  56  78 111 148 178 218 273 322
#     4  10  22  37  56  83 110 141 180 218 264 325
#     4  10  21  36  55  81 112 144 181 224 267 316
#     4   9  20  37  53  75 108 142 177 221 273 319
#
# _framework density 18.755986
#
# number of rings (size 3 to 8) (size 9 to 14) (size 15 to 20)
#    0.000    2.167    0.000    4.000    0.000   10.333 
#    0.000    6.667    0.000    0.000    0.000    0.000 
#    0.000    0.000    0.000    0.000    0.000    0.000 
#
# Total GULP energy -595335.768209 kJ/mol
# GULP energy per Si atom -12402.828504 kJ/mol
# Density = 1.871330 g / cm^3
# Si number density = 18.755986 Si / 1000 Ang^3
#
#
#
# Elastic Constant Matrix: (Units=GPa)
#
#
# Indices 1 2 3 4 5 6 
#
# 1 105.6822 63.9491 48.7820 0.0000 0.0000 6.3433
# 2 63.9491 105.6822 48.7820 0.0000 0.0000 -6.3433
# 3 48.7820 48.7820 72.8221 0.0000 0.0000 0.0000
# 4 0.0000 0.0000 0.0000 31.3516 0.0000 0.0000
# 5 0.0000 0.0000 0.0000 0.0000 31.3516 0.0000
# 6 6.3433 -6.3433 0.0000 0.0000 0.0000 10.2554
#
#
#
# Elastic Compliance Matrix: (Units=1/GPa)
#
#
# Indices 1 2 3 4 5 6 
#
# 1 0.019550 -0.009960 -0.006424 0.000000 0.000000 -0.018253
# 2 -0.009960 0.019550 -0.006424 0.000000 0.000000 0.018253
# 3 -0.006424 -0.006424 0.022339 0.000000 0.000000 0.000000
# 4 0.000000 0.000000 0.000000 0.031896 0.000000 0.000000
# 5 0.000000 0.000000 0.000000 0.000000 0.031896 0.000000
# 6 -0.018253 0.018253 0.000000 0.000000 0.000000 0.120090
#
#
# Mechanical properties :
#
#
# Convention : Reuss Voigt Hill
#
# Bulk Modulus (GPa) = 63.20183 67.46809 65.33496
# Shear Modulus (GPa) = 16.87972 22.76997 19.82485
#
# Velocity S-wave (km/s) = 3.00320 3.48805 3.25466
# Velocity P-wave (km/s) = 6.76725 7.22991 7.00240
#
# Compressibility (1/GPa) = 0.01582233
#
# Stress axis : x y z
#
# Youngs Moduli (GPa) = 51.14998 51.14998 44.76498
#
# Poissons Ratio (x) = 0.50947 0.28758
# Poissons Ratio (y) = 0.50947 0.28758
# Poissons Ratio (z) = 0.32859 0.32859
#
# Static dielectric constant tensor:
#      x y z
#    x 3.446290 0.000000 0.000000 
#    y 0.000000 3.446290 0.000000 
#    z 0.000000 0.000000 3.522590 
# 
# 
# High freq. dielectric constant tensor:
#      x y z
#    x 1.728950 0.000000 0.000000 
#    y 0.000000 1.728950 0.000000 
#    z 0.000000 0.000000 1.740090 
# 
# From -- ./inp_files/964.got.cif
#   From: 2010.03.12/outbox.cif.g09.slc.cpg/sg84_1_cif.got.tgz:964.got - 2010.04.08 20:07:29.
