data_PCOD8303712
_publ_section_title
;
Structure prediction by ZEFSAII (Michael W. Deem and Ramdas Pophale) SiO2 
 PCOD8303712
Probable space group: P 42/N
;
_chemical_formula_sum "Si O2"
_cell_formula_units_Z 48
_cell_length_a 11.830131
_cell_length_b 11.830131
_cell_length_c 17.117288
_cell_angle_alpha 90.000000
_cell_angle_beta 90.000000
_cell_angle_gamma 90.000000
_cell_volume 2395.598681
_symmetry_space_group_name_H-M "P 42/N"
_symmetry_group_IT_number 86
_space_group.IT_coordinate_system_code '2'
_symmetry_cell_setting 'tetragonal'
loop_
_space_group_symop_operation_xyz
x,y,z
-y,1/2+x,1/2+z
1/2-x,1/2-y,z
1/2+y,-x,1/2+z
-x,-y,-z
y,1/2-x,1/2-z
1/2+x,1/2+y,-z
1/2-y,x,1/2-z
loop_
_atom_site_type_symbol
_atom_site_label
_atom_site_fract_x
_atom_site_fract_y
_atom_site_fract_z
Si Si1 0.465429 0.406778 0.704995
Si Si2 0.952903 0.619439 0.477161
Si Si3 0.878181 0.771393 0.149255
Si Si4 0.143588 0.500389 0.256700
Si Si5 0.717210 0.372668 0.144063
Si Si6 0.801072 0.874565 0.862962
O O1 0.355049 0.429959 0.649975
O O2 0.427589 0.359518 0.788747
O O3 0.525179 0.526796 0.712801
O O4 0.561783 0.327601 0.671661
O O5 0.831462 0.607691 0.434336
O O6 0.932298 0.699501 0.552053
O O7 0.000000 0.500000 0.500000
O O8 0.050407 0.671207 0.424614
O O9 0.750000 0.750000 0.172290
O O10 0.147938 0.631786 0.282941
O O11 0.145432 0.429500 0.336467
O O12 0.241378 0.460523 0.197641
O O13 0.750000 0.250000 0.110115
O O14 0.750000 0.750000 0.864150
#
# Coordination Sequence:
#
# PCOD8303712 Si02
#       6
#     8   8   8   8   8   8
#     4  12  21  39  72 104 127 169 230 281 335 400
#     4  12  25  44  67  93 136 180 221 276 351 402
#     4  12  18  39  69 100 125 161 226 281 325 398
#     4  12  22  46  69  97 133 177 225 282 332 404
#     4  12  26  42  66 101 143 175 215 288 351 404
#     4  12  25  44  69  98 129 180 237 274 328 423
#
# _framework density 20.036743999999999
#
# number of rings (size 3 to 8) (size 9 to 14) (size 15 to 20)
#    0.000    0.000   10.000    1.500    0.000    0.000 
#    3.000    0.833    0.000    0.000    0.000    0.000 
#    0.000    0.000    0.000    0.000    0.000    0.000 
#
# Total GULP energy -595083.700744 kJ/mol
# GULP energy per Si atom -12397.577099 kJ/mol
# Density = 1.999114 g / cm^3
# Si number density = 20.036744 Si / 1000 Ang^3
#
#
#
# Elastic Constant Matrix: (Units=GPa)
#
#
# Indices 1 2 3 4 5 6 
#
# 1 96.1854 26.6824 28.3719 0.0000 0.0000 4.8456
# 2 26.6824 96.1854 28.3719 0.0000 0.0000 -4.8456
# 3 28.3719 28.3719 96.4334 0.0000 0.0000 0.0000
# 4 0.0000 0.0000 0.0000 33.0406 0.0000 0.0000
# 5 0.0000 0.0000 0.0000 0.0000 33.0406 0.0000
# 6 4.8456 -4.8456 0.0000 0.0000 0.0000 23.2170
#
#
#
# Elastic Compliance Matrix: (Units=1/GPa)
#
#
# Indices 1 2 3 4 5 6 
#
# 1 0.012119 -0.002700 -0.002771 0.000000 0.000000 -0.003093
# 2 -0.002700 0.012119 -0.002771 0.000000 0.000000 0.003093
# 3 -0.002771 -0.002771 0.012000 0.000000 0.000000 0.000000
# 4 0.000000 0.000000 0.000000 0.030266 0.000000 0.000000
# 5 0.000000 0.000000 0.000000 0.000000 0.030266 0.000000
# 6 -0.003093 0.003093 0.000000 0.000000 0.000000 0.044363
#
#
# Mechanical properties :
#
#
# Convention : Reuss Voigt Hill
#
# Bulk Modulus (GPa) = 50.62437 50.62849 50.62643
# Shear Modulus (GPa) = 30.45034 31.55153 31.00093
#
# Velocity S-wave (km/s) = 3.90259 3.97253 3.93772
# Velocity P-wave (km/s) = 6.75482 6.80911 6.78202
#
# Compressibility (1/GPa) = 0.01975333
#
# Stress axis : x y z
#
# Youngs Moduli (GPa) = 82.51605 82.51605 83.33049
#
# Poissons Ratio (x) = 0.22282 0.23091
# Poissons Ratio (y) = 0.22282 0.23091
# Poissons Ratio (z) = 0.22866 0.22866
#
# Static dielectric constant tensor:
#      x y z
#    x 3.679690 0.000000 0.000000 
#    y 0.000000 3.679690 0.000000 
#    z 0.000000 0.000000 2.937730 
# 
# 
# High freq. dielectric constant tensor:
#      x y z
#    x 1.792650 0.000000 0.000000 
#    y 0.000000 1.792650 0.000000 
#    z 0.000000 0.000000 1.769300 
# 
# From -- ./inp_files/3554.got.cif
#   From: 2010.03.12/outbox.cif.g09.slc.cpg/sg86_2_cif.got.tgz:3554.got - 2010.04.08 20:12:58.
