data_PCOD8303626
_publ_section_title
;
Structure prediction by ZEFSAII (Michael W. Deem and Ramdas Pophale) SiO2 
 PCOD8303626
Probable space group: P 42/N
;
_chemical_formula_sum "Si O2"
_cell_formula_units_Z 58
_cell_length_a 17.447049
_cell_length_b 17.447049
_cell_length_c 8.623808
_cell_angle_alpha 90.000000
_cell_angle_beta 90.000000
_cell_angle_gamma 90.000000
_cell_volume 2625.083005
_symmetry_space_group_name_H-M "P 42/N"
_symmetry_group_IT_number 86
_space_group.IT_coordinate_system_code '2'
_symmetry_cell_setting 'tetragonal'
loop_
_space_group_symop_operation_xyz
x,y,z
-y,1/2+x,1/2+z
1/2-x,1/2-y,z
1/2+y,-x,1/2+z
-x,-y,-z
y,1/2-x,1/2-z
1/2+x,1/2+y,-z
1/2-y,x,1/2-z
loop_
_atom_site_type_symbol
_atom_site_label
_atom_site_fract_x
_atom_site_fract_y
_atom_site_fract_z
Si Si1 0.231591 0.855292 0.651296
Si Si2 0.250000 0.250000 0.750000
Si Si3 0.165110 0.001330 0.789726
Si Si4 0.862604 0.709035 0.787946
Si Si5 0.775133 0.141064 0.702346
Si Si6 0.487713 0.440068 0.860582
Si Si7 0.095746 0.220362 0.893448
Si Si8 0.010474 0.649408 0.652477
O O1 0.255966 0.853708 0.471485
O O2 0.175235 0.785336 0.678568
O O3 0.307065 0.851249 0.761639
O O4 0.182047 0.929744 0.682418
O O5 0.185390 0.205371 0.852584
O O6 0.079329 0.030250 0.745948
O O7 0.229003 0.063808 0.748085
O O8 0.165498 0.979489 0.970634
O O9 0.785530 0.658612 0.810638
O O10 0.920391 0.654707 0.691004
O O11 0.903473 0.730958 0.948461
O O12 0.785195 0.052925 0.749361
O O13 0.457984 0.355518 0.914830
O O14 0.571960 0.445638 0.785457
O O15 0.500000 0.500000 0.000000
#
# Coordination Sequence:
#
# PCOD8303626 Si02
#       8
#     8   2   8   8   8   8   8   8
#     4  11  22  39  63  90 125 168 221 282 335 418
#     4  12  24  40  78 100 136 180 250 300 352 420
#     4  11  23  40  65  94 129 175 226 280 346 421
#     4  11  25  43  66  97 137 176 232 292 354 421
#     4  11  22  40  62  92 125 170 224 278 347 409
#     4  10  23  42  65  95 135 176 222 283 359 422
#     4  12  24  43  71 102 135 184 237 296 355 433
#     4  11  24  42  65  95 135 179 222 289 357 428
#
# _framework density 22.094538
#
# number of rings (size 3 to 8) (size 9 to 14) (size 15 to 20)
#    0.000    0.966    1.379    7.448    1.931    4.414 
#    0.000    2.759    0.000    0.000    0.000    0.000 
#    0.000    0.000    0.000    0.000    0.000    0.000 
#
# Total GULP energy -718650.596237 kJ/mol
# GULP energy per Si atom -12390.527521 kJ/mol
# Density = 2.204425 g / cm^3
# Si number density = 22.094538 Si / 1000 Ang^3
#
#
#
# Elastic Constant Matrix: (Units=GPa)
#
#
# Indices 1 2 3 4 5 6 
#
# 1 113.9071 52.4167 26.8242 0.0000 0.0000 8.2067
# 2 52.4167 113.9071 26.8242 0.0000 0.0000 -8.2067
# 3 26.8242 26.8242 85.2349 0.0000 0.0000 0.0000
# 4 0.0000 0.0000 0.0000 33.4791 0.0000 0.0000
# 5 0.0000 0.0000 0.0000 0.0000 33.4791 0.0000
# 6 8.2067 -8.2067 0.0000 0.0000 0.0000 41.5312
#
#
#
# Elastic Compliance Matrix: (Units=1/GPa)
#
#
# Indices 1 2 3 4 5 6 
#
# 1 0.011930 -0.005238 -0.002106 0.000000 0.000000 -0.003392
# 2 -0.005238 0.011930 -0.002106 0.000000 0.000000 0.003392
# 3 -0.002106 -0.002106 0.013058 0.000000 0.000000 0.000000
# 4 0.000000 0.000000 0.000000 0.029869 0.000000 0.000000
# 5 0.000000 0.000000 0.000000 0.000000 0.029869 0.000000
# 6 -0.003392 0.003392 0.000000 0.000000 0.000000 0.025419
#
#
# Mechanical properties :
#
#
# Convention : Reuss Voigt Hill
#
# Bulk Modulus (GPa) = 55.50194 58.35326 56.92760
# Shear Modulus (GPa) = 34.01792 35.49685 34.75738
#
# Velocity S-wave (km/s) = 3.92810 4.01258 3.97056
# Velocity P-wave (km/s) = 6.76373 6.92356 6.84411
#
# Compressibility (1/GPa) = 0.01801739
#
# Stress axis : x y z
#
# Youngs Moduli (GPa) = 83.82277 83.82277 76.58267
#
# Poissons Ratio (x) = 0.43909 0.16128
# Poissons Ratio (y) = 0.43909 0.16128
# Poissons Ratio (z) = 0.17652 0.17652
#
# Static dielectric constant tensor:
#      x y z
#    x 4.731770 0.000000 0.000000 
#    y 0.000000 4.731770 0.000000 
#    z 0.000000 0.000000 3.733560 
# 
# 
# High freq. dielectric constant tensor:
#      x y z
#    x 1.879750 0.000000 0.000000 
#    y 0.000000 1.879750 0.000000 
#    z 0.000000 0.000000 1.849330 
# 
# From -- ./inp_files/1489.got.cif
#   From: 2010.03.12/outbox.cif.g09.slc.cpg/sg86_1_cif.got.tgz:1489.got - 2010.04.08 20:12:58.
