data_PCOD8303482
_publ_section_title
;
Structure prediction by ZEFSAII (Michael W. Deem and Ramdas Pophale) SiO2 
 PCOD8303482
Probable space group: P 42/N
;
_chemical_formula_sum "Si O2"
_cell_formula_units_Z 36
_cell_length_a 13.219538
_cell_length_b 13.219538
_cell_length_c 7.799829
_cell_angle_alpha 90.000000
_cell_angle_beta 90.000000
_cell_angle_gamma 90.000000
_cell_volume 1363.068359
_symmetry_space_group_name_H-M "P 42/N"
_symmetry_group_IT_number 86
_space_group.IT_coordinate_system_code '2'
_symmetry_cell_setting 'tetragonal'
loop_
_space_group_symop_operation_xyz
x,y,z
-y,1/2+x,1/2+z
1/2-x,1/2-y,z
1/2+y,-x,1/2+z
-x,-y,-z
y,1/2-x,1/2-z
1/2+x,1/2+y,-z
1/2-y,x,1/2-z
loop_
_atom_site_type_symbol
_atom_site_label
_atom_site_fract_x
_atom_site_fract_y
_atom_site_fract_z
Si Si1 0.250000 0.750000 0.856565
Si Si2 0.963045 0.871773 0.060494
Si Si3 0.632933 0.970837 0.831597
Si Si4 0.141411 0.026052 0.634626
Si Si5 0.413863 0.819747 0.607025
O O1 0.346170 0.799159 0.769920
O O2 0.202288 0.845598 0.945769
O O3 0.997947 0.759564 0.118085
O O4 0.875657 0.910654 0.189015
O O5 0.061419 0.945381 0.093985
O O6 0.927864 0.872484 0.862424
O O7 0.579002 0.080434 0.852980
O O8 0.750136 0.986444 0.885253
O O9 0.585303 0.890392 0.962103
#
# Coordination Sequence:
#
# PCOD8303482 Si02
#       5
#     4   8   8   8   8
#     4  10  18  30  58 102 148 170 234 302 376 436
#     4  12  27  48  79 108 159 205 261 318 392 464
#     4  11  26  46  75 114 158 195 259 323 394 462
#     4  11  28  49  73 115 156 208 259 321 392 471
#     4  11  21  38  68 110 142 191 243 315 382 445
#
# _framework density 26.411002
#
# number of rings (size 3 to 8) (size 9 to 14) (size 15 to 20)
#    0.000    0.889    2.222    4.667    9.333    2.222 
#    0.000    0.000    0.000    0.000    0.000    0.000 
#    0.000    0.000    0.000    0.000    0.000    0.000 
#
# Total GULP energy -446416.019150 kJ/mol
# GULP energy per Si atom -12400.444976 kJ/mol
# Density = 2.635089 g / cm^3
# Si number density = 26.411002 Si / 1000 Ang^3
#
#
#
# Elastic Constant Matrix: (Units=GPa)
#
#
# Indices 1 2 3 4 5 6 
#
# 1 90.9091 16.6827 30.0630 0.0000 0.0000 0.5738
# 2 16.6827 90.9091 30.0630 0.0000 0.0000 -0.5738
# 3 30.0630 30.0630 200.3060 0.0000 0.0000 0.0000
# 4 0.0000 0.0000 0.0000 30.9604 0.0000 0.0000
# 5 0.0000 0.0000 0.0000 0.0000 30.9604 0.0000
# 6 0.5738 -0.5738 0.0000 0.0000 0.0000 39.5865
#
#
#
# Elastic Compliance Matrix: (Units=1/GPa)
#
#
# Indices 1 2 3 4 5 6 
#
# 1 0.011810 -0.001665 -0.001523 0.000000 0.000000 -0.000195
# 2 -0.001665 0.011810 -0.001523 0.000000 0.000000 0.000195
# 3 -0.001523 -0.001523 0.005449 0.000000 0.000000 0.000000
# 4 0.000000 0.000000 0.000000 0.032299 0.000000 0.000000
# 5 0.000000 0.000000 0.000000 0.000000 0.032299 0.000000
# 6 -0.000195 0.000195 0.000000 0.000000 0.000000 0.025267
#
#
# Mechanical properties :
#
#
# Convention : Reuss Voigt Hill
#
# Bulk Modulus (GPa) = 50.89218 59.52685 55.20951
# Shear Modulus (GPa) = 37.06288 40.65585 38.85937
#
# Velocity S-wave (km/s) = 3.75015 3.92771 3.83996
# Velocity P-wave (km/s) = 6.16949 6.56939 6.37258
#
# Compressibility (1/GPa) = 0.01964938
#
# Stress axis : x y z
#
# Youngs Moduli (GPa) = 84.67182 84.67182 183.50576
#
# Poissons Ratio (x) = 0.14098 0.27942
# Poissons Ratio (y) = 0.14098 0.27942
# Poissons Ratio (z) = 0.12893 0.12893
#
# Static dielectric constant tensor:
#      x y z
#    x 4.704220 0.000000 0.000000 
#    y 0.000000 4.704220 0.000000 
#    z 0.000000 0.000000 5.184340 
# 
# 
# High freq. dielectric constant tensor:
#      x y z
#    x 2.057700 0.000000 0.000000 
#    y 0.000000 2.057700 0.000000 
#    z 0.000000 0.000000 2.084330 
# 
# From -- ./inp_files/1046.got.cif
#   From: 2010.03.12/outbox.cif.g09.slc.cpg/sg86_1_cif.got.tgz:1046.got - 2010.04.08 20:12:58.
