data_PCOD8303074
_publ_section_title
;
Structure prediction by ZEFSAII (Michael W. Deem and Ramdas Pophale) SiO2 
 PCOD8303074
Probable space group: P 42/M
;
_chemical_formula_sum "Si O2"
_cell_formula_units_Z 64
_cell_length_a 12.368948
_cell_length_b 12.368948
_cell_length_c 22.058682
_cell_angle_alpha 90.000000
_cell_angle_beta 90.000000
_cell_angle_gamma 90.000000
_cell_volume 3374.777052
_symmetry_space_group_name_H-M "P 42/M"
_symmetry_group_IT_number 84
_symmetry_cell_setting 'tetragonal'
loop_
_space_group_symop_operation_xyz
x,y,z
-y,x,1/2+z
-x,-y,z
y,-x,1/2+z
-x,-y,-z
y,-x,1/2-z
x,y,-z
-y,x,1/2-z
loop_
_atom_site_type_symbol
_atom_site_label
_atom_site_fract_x
_atom_site_fract_y
_atom_site_fract_z
Si Si1 0.112176 0.039179 0.569087
Si Si2 0.446569 0.763146 0.572078
Si Si3 0.561740 0.682358 0.930024
Si Si4 0.107200 0.264554 0.378727
Si Si5 0.672679 0.678173 0.570279
Si Si6 0.919581 0.840808 0.250826
Si Si7 0.129727 0.249166 0.875003
Si Si8 0.112275 0.676572 0.571366
O O1 0.116630 0.001133 0.500000
O O2 0.113265 0.167020 0.573699
O O3 0.215310 0.990097 0.603574
O O4 0.000000 0.000000 0.600352
O O5 0.433206 0.780857 0.500000
O O6 0.399023 0.650072 0.597334
O O7 0.575102 0.760532 0.588565
O O8 0.376434 0.853817 0.607973
O O9 0.444304 0.631927 0.919320
O O10 0.580224 0.806530 0.906551
O O11 0.590512 0.689299 0.000000
O O12 0.223411 0.319687 0.386554
O O13 0.094988 0.230524 0.309902
O O14 0.004020 0.338707 0.396155
O O15 0.704657 0.696509 0.500000
O O16 0.863864 0.772476 0.196838
O O17 0.046162 0.858930 0.238500
O O18 0.211019 0.169892 0.910565
O O19 0.090424 0.675527 0.500000
#
# Coordination Sequence:
#
# PCOD8303074 Si02
#       8
#     8   8   8   8   8   8   8   8
#     4  11  19  29  48  78 111 140 172 219 278 333
#     4   9  18  34  59  86 109 141 189 234 278 336
#     4   8  16  31  55  84 113 143 176 222 282 340
#     4  12  22  33  51  80 117 149 184 227 276 342
#     4  10  20  35  55  83 117 148 180 229 289 344
#     4  11  21  37  56  78 104 143 187 230 272 332
#     4  11  19  33  55  79 107 142 189 238 271 325
#     4  10  18  30  52  87 118 141 178 231 289 343
#
# _framework density 18.964216
#
# number of rings (size 3 to 8) (size 9 to 14) (size 15 to 20)
#    0.000    1.750    3.750    3.375    0.000    2.000 
#    0.000    2.500    5.500    2.250    0.000    0.000 
#    0.000    0.000    0.000    0.000    0.000    0.000 
#
# Total GULP energy -793088.232387 kJ/mol
# GULP energy per Si atom -12392.003631 kJ/mol
# Density = 1.892105 g / cm^3
# Si number density = 18.964216 Si / 1000 Ang^3
#
#
#
# Elastic Constant Matrix: (Units=GPa)
#
#
# Indices 1 2 3 4 5 6 
#
# 1 65.7086 14.0742 20.2368 0.0000 0.0000 -2.7580
# 2 14.0742 65.7086 20.2368 0.0000 0.0000 2.7580
# 3 20.2368 20.2368 81.9153 0.0000 0.0000 0.0000
# 4 0.0000 0.0000 0.0000 13.8712 0.0000 0.0000
# 5 0.0000 0.0000 0.0000 0.0000 13.8712 0.0000
# 6 -2.7580 2.7580 0.0000 0.0000 0.0000 30.7696
#
#
#
# Elastic Compliance Matrix: (Units=1/GPa)
#
#
# Indices 1 2 3 4 5 6 
#
# 1 0.016942 -0.002612 -0.003540 0.000000 0.000000 0.001753
# 2 -0.002612 0.016942 -0.003540 0.000000 0.000000 -0.001753
# 3 -0.003540 -0.003540 0.013957 0.000000 0.000000 0.000000
# 4 0.000000 0.000000 0.000000 0.072092 0.000000 0.000000
# 5 0.000000 0.000000 0.000000 0.000000 0.072092 0.000000
# 6 0.001753 -0.001753 0.000000 0.000000 0.000000 0.032814
#
#
# Mechanical properties :
#
#
# Convention : Reuss Voigt Hill
#
# Bulk Modulus (GPa) = 35.14173 35.82532 35.48353
# Shear Modulus (GPa) = 19.70762 22.28804 20.99783
#
# Velocity S-wave (km/s) = 3.22716 3.43194 3.33112
# Velocity P-wave (km/s) = 5.69709 5.88526 5.79194
#
# Compressibility (1/GPa) = 0.02845620
#
# Stress axis : x y z
#
# Youngs Moduli (GPa) = 59.02469 59.02469 71.64931
#
# Poissons Ratio (x) = 0.15418 0.25365
# Poissons Ratio (y) = 0.15418 0.25365
# Poissons Ratio (z) = 0.20896 0.20896
#
# Static dielectric constant tensor:
#      x y z
#    x 3.540750 0.000000 0.000000 
#    y 0.000000 3.540750 0.000000 
#    z 0.000000 0.000000 3.175520 
# 
# 
# High freq. dielectric constant tensor:
#      x y z
#    x 1.729010 0.000000 0.000000 
#    y 0.000000 1.729010 0.000000 
#    z 0.000000 0.000000 1.702370 
# 
# From -- ./inp_files/5090.got.cif
#   From: 2010.03.12/outbox.cif.g09.slc.cpg/sg84_3_cif.got.tgz:5090.got - 2010.04.08 20:07:29.
