data_PCOD8303401
_publ_section_title
;
Structure prediction by ZEFSAII (Michael W. Deem and Ramdas Pophale) SiO2 
 PCOD8303401
Probable space group: P 42/M
;
_chemical_formula_sum "Si O2"
_cell_formula_units_Z 40
_cell_length_a 13.985680
_cell_length_b 13.985680
_cell_length_c 9.989840
_cell_angle_alpha 90.000000
_cell_angle_beta 90.000000
_cell_angle_gamma 90.000000
_cell_volume 1954.005162
_symmetry_space_group_name_H-M "P 42/M"
_symmetry_group_IT_number 84
_symmetry_cell_setting 'tetragonal'
loop_
_space_group_symop_operation_xyz
x,y,z
-y,x,1/2+z
-x,-y,z
y,-x,1/2+z
-x,-y,-z
y,-x,1/2-z
x,y,-z
-y,x,1/2-z
loop_
_atom_site_type_symbol
_atom_site_label
_atom_site_fract_x
_atom_site_fract_y
_atom_site_fract_z
Si Si1 0.327419 0.722637 0.750750
Si Si2 0.536793 0.746006 0.656649
Si Si3 0.253910 0.011462 0.500000
Si Si4 0.798838 0.787891 0.000000
Si Si5 0.314896 0.022147 0.000000
Si Si6 0.401715 0.047095 0.717331
Si Si7 0.181042 0.225817 0.500000
O O1 0.437541 0.753867 0.735727
O O2 0.330705 0.607398 0.773085
O O3 0.268972 0.757463 0.624463
O O4 0.277051 0.771656 0.875023
O O5 0.519782 0.722730 0.500000
O O6 0.595803 0.842961 0.675822
O O7 0.316513 0.000930 0.633516
O O8 0.193192 0.110065 0.500000
O O9 0.193776 0.913299 0.500000
O O10 0.759659 0.893376 0.000000
O O11 0.384520 0.027832 0.873050
O O12 0.247649 0.930328 0.000000
O O13 0.500000 0.000000 0.671254
#
# Coordination Sequence:
#
# PCOD8303401 Si02
#       7
#     8   8   4   4   4   8   4
#     4  12  25  45  71 100 137 182 234 286 341 413
#     4  12  24  46  70  99 141 183 222 288 351 405
#     4  12  23  43  72  93 136 185 226 281 343 415
#     4  12  24  43  68 106 135 180 239 282 331 423
#     4  12  25  41  64 101 144 175 222 291 347 401
#     4  12  23  40  67 101 131 175 236 285 340 400
#     4  12  24  47  66 100 145 182 221 290 355 405
#
# _framework density 20.470775
#
# number of rings (size 3 to 8) (size 9 to 14) (size 15 to 20)
#    0.000    0.000    7.000    4.200    0.000    2.400 
#    0.000    1.000    0.000    4.800    0.000    0.000 
#    0.000    0.000    0.000    0.000    0.000    0.000 
#
# Total GULP energy -496047.618956 kJ/mol
# GULP energy per Si atom -12401.190474 kJ/mol
# Density = 2.042418 g / cm^3
# Si number density = 20.470775 Si / 1000 Ang^3
#
#
#
# Elastic Constant Matrix: (Units=GPa)
#
#
# Indices 1 2 3 4 5 6 
#
# 1 125.9369 27.5970 30.5471 0.0000 0.0000 2.1727
# 2 27.5970 125.9369 30.5471 0.0000 0.0000 -2.1727
# 3 30.5471 30.5471 134.8313 0.0000 0.0000 0.0000
# 4 0.0000 0.0000 0.0000 40.4043 0.0000 0.0000
# 5 0.0000 0.0000 0.0000 0.0000 40.4043 0.0000
# 6 2.1727 -2.1727 0.0000 0.0000 0.0000 23.7313
#
#
#
# Elastic Compliance Matrix: (Units=1/GPa)
#
#
# Indices 1 2 3 4 5 6 
#
# 1 0.008684 -0.001526 -0.001622 0.000000 0.000000 -0.000935
# 2 -0.001526 0.008684 -0.001622 0.000000 0.000000 0.000935
# 3 -0.001622 -0.001622 0.008152 0.000000 0.000000 0.000000
# 4 0.000000 0.000000 0.000000 0.024750 0.000000 0.000000
# 5 0.000000 0.000000 0.000000 0.000000 0.024750 0.000000
# 6 -0.000935 0.000935 0.000000 0.000000 0.000000 0.042310
#
#
# Mechanical properties :
#
#
# Convention : Reuss Voigt Hill
#
# Bulk Modulus (GPa) = 62.57281 62.67638 62.62460
# Shear Modulus (GPa) = 37.82278 40.77558 39.29918
#
# Velocity S-wave (km/s) = 4.30309 4.46790 4.38627
# Velocity P-wave (km/s) = 7.43788 7.56969 7.50407
#
# Compressibility (1/GPa) = 0.01598138
#
# Stress axis : x y z
#
# Youngs Moduli (GPa) = 115.14965 115.14965 122.67605
#
# Poissons Ratio (x) = 0.17569 0.19896
# Poissons Ratio (y) = 0.17569 0.19896
# Poissons Ratio (z) = 0.18675 0.18675
#
# Static dielectric constant tensor:
#      x y z
#    x 3.961270 0.000000 0.000000 
#    y 0.000000 3.961270 0.000000 
#    z 0.000000 0.000000 3.824990 
# 
# 
# High freq. dielectric constant tensor:
#      x y z
#    x 1.804550 0.000000 0.000000 
#    y 0.000000 1.804550 0.000000 
#    z 0.000000 0.000000 1.818470 
# 
# From -- ./inp_files/857.got.cif
#   From: 2010.03.12/outbox.cif.g09.slc.cpg/sg84_1_cif.got.tgz:857.got - 2010.04.08 20:07:29.
