data_PCOD8303224
_publ_section_title
;
Structure prediction by ZEFSAII (Michael W. Deem and Ramdas Pophale) SiO2 
 PCOD8303224
Probable space group: P 42/M
;
_chemical_formula_sum "Si O2"
_cell_formula_units_Z 48
_cell_length_a 15.408190
_cell_length_b 15.408190
_cell_length_c 10.600138
_cell_angle_alpha 90.000000
_cell_angle_beta 90.000000
_cell_angle_gamma 90.000000
_cell_volume 2516.603345
_symmetry_space_group_name_H-M "P 42/M"
_symmetry_group_IT_number 84
_symmetry_cell_setting 'tetragonal'
loop_
_space_group_symop_operation_xyz
x,y,z
-y,x,1/2+z
-x,-y,z
y,-x,1/2+z
-x,-y,-z
y,-x,1/2-z
x,y,-z
-y,x,1/2-z
loop_
_atom_site_type_symbol
_atom_site_label
_atom_site_fract_x
_atom_site_fract_y
_atom_site_fract_z
Si Si1 0.194507 0.786784 0.360770
Si Si2 0.449029 0.749494 0.262111
Si Si3 0.142231 0.306214 0.357459
Si Si4 0.378017 0.312918 0.861779
Si Si5 0.662938 0.944055 0.142287
Si Si6 0.094036 0.540432 0.861934
O O1 0.211651 0.830103 0.500000
O O2 0.230121 0.844491 0.246186
O O3 0.237578 0.692444 0.355856
O O4 0.092201 0.762495 0.345278
O O5 0.384703 0.788587 0.154852
O O6 0.402855 0.668344 0.326774
O O7 0.540695 0.710671 0.223024
O O8 0.466906 0.830881 0.355223
O O9 0.150689 0.268560 0.500000
O O10 0.046128 0.341364 0.332336
O O11 0.417146 0.323962 0.000000
O O12 0.605919 0.893490 0.245855
O O13 0.627533 0.924708 0.000000
O O14 0.000000 0.500000 0.848708
O O15 0.102282 0.586084 0.000000
#
# Coordination Sequence:
#
# PCOD8303224 Si02
#       6
#     8   8   8   8   8   8
#     4   9  19  36  57  80 113 149 181 223 283 339
#     4  11  21  38  55  78 111 148 190 235 283 333
#     4  10  21  35  57  86 114 142 185 234 275 329
#     4  10  21  37  56  75 104 147 190 232 284 337
#     4  10  20  36  58  85 112 147 185 228 281 338
#     4  11  22  35  54  84 116 145 181 234 290 337
#
# _framework density 19.073328
#
# number of rings (size 3 to 8) (size 9 to 14) (size 15 to 20)
#    0.000    1.833    3.333    1.000    0.000    3.333 
#    0.000    3.333    0.000    0.500    0.000    3.500 
#    0.000    0.000    0.000    0.000    0.000    0.000 
#
# Total GULP energy -594695.851110 kJ/mol
# GULP energy per Si atom -12389.496898 kJ/mol
# Density = 1.902992 g / cm^3
# Si number density = 19.073328 Si / 1000 Ang^3
#
#
#
# Elastic Constant Matrix: (Units=GPa)
#
#
# Indices 1 2 3 4 5 6 
#
# 1 57.2822 25.8886 25.4329 0.0000 0.0000 3.0471
# 2 25.8886 57.2822 25.4329 0.0000 0.0000 -3.0471
# 3 25.4329 25.4329 126.9968 0.0000 0.0000 0.0000
# 4 0.0000 0.0000 0.0000 20.8246 0.0000 0.0000
# 5 0.0000 0.0000 0.0000 0.0000 20.8246 0.0000
# 6 3.0471 -3.0471 0.0000 0.0000 0.0000 24.5294
#
#
#
# Elastic Compliance Matrix: (Units=1/GPa)
#
#
# Indices 1 2 3 4 5 6 
#
# 1 0.023171 -0.009470 -0.002744 0.000000 0.000000 -0.004055
# 2 -0.009470 0.023171 -0.002744 0.000000 0.000000 0.004055
# 3 -0.002744 -0.002744 0.008973 0.000000 0.000000 0.000000
# 4 0.000000 0.000000 0.000000 0.048020 0.000000 0.000000
# 5 0.000000 0.000000 0.000000 0.000000 0.048020 0.000000
# 6 -0.004055 0.004055 0.000000 0.000000 0.000000 0.041775
#
#
# Mechanical properties :
#
#
# Convention : Reuss Voigt Hill
#
# Bulk Modulus (GPa) = 39.36907 43.89670 41.63288
# Shear Modulus (GPa) = 21.59712 24.22284 22.90998
#
# Velocity S-wave (km/s) = 3.36865 3.56755 3.46952
# Velocity P-wave (km/s) = 5.98465 6.32729 6.15835
#
# Compressibility (1/GPa) = 0.02540065
#
# Stress axis : x y z
#
# Youngs Moduli (GPa) = 43.15710 43.15710 111.44245
#
# Poissons Ratio (x) = 0.40868 0.30579
# Poissons Ratio (y) = 0.40868 0.30579
# Poissons Ratio (z) = 0.11842 0.11842
#
# Static dielectric constant tensor:
#      x y z
#    x 3.438670 0.000000 0.000000 
#    y 0.000000 3.438670 0.000000 
#    z 0.000000 0.000000 3.723450 
# 
# 
# High freq. dielectric constant tensor:
#      x y z
#    x 1.725010 0.000000 0.000000 
#    y 0.000000 1.725010 0.000000 
#    z 0.000000 0.000000 1.751700 
# 
# From -- ./inp_files/2189.got.cif
#   From: 2010.03.12/outbox.cif.g09.slc.cpg/sg84_2_cif.got.tgz:2189.got - 2010.04.08 20:07:29.
