data_PCOD8303943
_publ_section_title
;
Structure prediction by ZEFSAII (Michael W. Deem and Ramdas Pophale) SiO2 
 PCOD8303943
Probable space group: I 4/M
;
_chemical_formula_sum "Si O2"
_cell_formula_units_Z 56
_cell_length_a 19.051432
_cell_length_b 19.051432
_cell_length_c 7.648685
_cell_angle_alpha 90.000000
_cell_angle_beta 90.000000
_cell_angle_gamma 90.000000
_cell_volume 2776.144230
_symmetry_space_group_name_H-M "I 4/M"
_symmetry_group_IT_number 87
_symmetry_cell_setting 'tetragonal'
loop_
_space_group_symop_operation_xyz
x,y,z
-y,x,z
-x,-y,z
y,-x,z
-x,-y,-z
y,-x,-z
x,y,-z
-y,x,-z
1/2+x,1/2+y,1/2+z
1/2-y,1/2+x,1/2+z
1/2-x,1/2-y,1/2+z
1/2+y,1/2-x,1/2+z
1/2-x,1/2-y,1/2-z
1/2+y,1/2-x,1/2-z
1/2+x,1/2+y,1/2-z
1/2-y,1/2+x,1/2-z
loop_
_atom_site_type_symbol
_atom_site_label
_atom_site_fract_x
_atom_site_fract_y
_atom_site_fract_z
Si Si1 0.073506 0.578288 0.803450
Si Si2 0.827551 0.156273 0.700085
Si Si3 0.813635 0.680544 0.802123
Si Si4 0.574592 0.591340 0.500000
O O1 0.092263 0.509439 0.693476
O O2 0.109252 0.643606 0.710904
O O3 0.100842 0.569463 0.000000
O O4 0.854436 0.145515 0.500000
O O5 0.743061 0.144498 0.703436
O O6 0.836877 0.236051 0.771616
O O7 0.870376 0.103775 0.825769
O O8 0.804660 0.705441 0.000000
O O9 0.490077 0.597999 0.500000
#
# Coordination Sequence:
#
# PCOD8303943 Si02
#       4
#    16  16  16   8
#     4  11  22  36  54  81 123 168 208 250 301 362
#     4  10  22  41  67  96 124 159 210 262 318 378
#     4  10  20  38  64  93 125 162 203 259 317 374
#     4  11  26  46  66  92 130 172 216 269 324 378
#
# _framework density 20.171865
#
# number of rings (size 3 to 8) (size 9 to 14) (size 15 to 20)
#    0.000    1.571    1.429    4.286    4.000    3.429 
#    0.000    4.286    0.000    0.000    0.000    0.000 
#    0.000    0.000    0.000    0.000    0.000    0.000 
#
# Total GULP energy -347141.646920 kJ/mol
# GULP energy per Si atom -12397.915961 kJ/mol
# Density = 2.012595 g / cm^3
# Si number density = 20.171865 Si / 1000 Ang^3
#
#
#
# Elastic Constant Matrix: (Units=GPa)
#
#
# Indices 1 2 3 4 5 6 
#
# 1 49.8691 29.8267 28.5120 0.0000 0.0000 -2.8338
# 2 29.8267 49.8691 28.5120 0.0000 0.0000 2.8338
# 3 28.5120 28.5120 111.2176 0.0000 0.0000 0.0000
# 4 0.0000 0.0000 0.0000 27.9780 0.0000 0.0000
# 5 0.0000 0.0000 0.0000 0.0000 27.9780 0.0000
# 6 -2.8338 2.8338 0.0000 0.0000 0.0000 39.8737
#
#
#
# Elastic Compliance Matrix: (Units=1/GPa)
#
#
# Indices 1 2 3 4 5 6 
#
# 1 0.033142 -0.017776 -0.003939 0.000000 0.000000 0.003619
# 2 -0.017776 0.033142 -0.003939 0.000000 0.000000 -0.003619
# 3 -0.003939 -0.003939 0.011011 0.000000 0.000000 0.000000
# 4 0.000000 0.000000 0.000000 0.035742 0.000000 0.000000
# 5 0.000000 0.000000 0.000000 0.000000 0.035742 0.000000
# 6 0.003619 -0.003619 0.000000 0.000000 0.000000 0.025594
#
#
# Mechanical properties :
#
#
# Convention : Reuss Voigt Hill
#
# Bulk Modulus (GPa) = 38.48147 42.73969 40.61058
# Shear Modulus (GPa) = 21.33615 27.43962 24.38788
#
# Velocity S-wave (km/s) = 3.25579 3.69221 3.48085
# Velocity P-wave (km/s) = 5.76643 6.27777 6.02752
#
# Compressibility (1/GPa) = 0.02598653
#
# Stress axis : x y z
#
# Youngs Moduli (GPa) = 30.17326 30.17326 90.81668
#
# Poissons Ratio (x) = 0.53635 0.35776
# Poissons Ratio (y) = 0.53635 0.35776
# Poissons Ratio (z) = 0.11886 0.11886
#
# Static dielectric constant tensor:
#      x y z
#    x 3.580250 0.000000 0.000000 
#    y 0.000000 3.580250 0.000000 
#    z 0.000000 0.000000 3.828360 
# 
# 
# High freq. dielectric constant tensor:
#      x y z
#    x 1.778570 0.000000 0.000000 
#    y 0.000000 1.778570 0.000000 
#    z 0.000000 0.000000 1.801360 
# 
# From -- ./inp_files/739.got.cif
#   From: 2010.03.12/outbox.cif.g09.slc.cpg/sg87_1_cif.got.tgz:739.got - 2010.04.08 20:16:13.
