data_PCOD8303520
_publ_section_title
;
Structure prediction by ZEFSAII (Michael W. Deem and Ramdas Pophale) SiO2 
 PCOD8303520
Probable space group: P 42/N
;
_chemical_formula_sum "Si O2"
_cell_formula_units_Z 48
_cell_length_a 10.028860
_cell_length_b 10.028860
_cell_length_c 26.751001
_cell_angle_alpha 90.000000
_cell_angle_beta 90.000000
_cell_angle_gamma 90.000000
_cell_volume 2690.563059
_symmetry_space_group_name_H-M "P 42/N"
_symmetry_group_IT_number 86
_space_group.IT_coordinate_system_code '2'
_symmetry_cell_setting 'tetragonal'
loop_
_space_group_symop_operation_xyz
x,y,z
-y,1/2+x,1/2+z
1/2-x,1/2-y,z
1/2+y,-x,1/2+z
-x,-y,-z
y,1/2-x,1/2-z
1/2+x,1/2+y,-z
1/2-y,x,1/2-z
loop_
_atom_site_type_symbol
_atom_site_label
_atom_site_fract_x
_atom_site_fract_y
_atom_site_fract_z
Si Si1 0.402218 0.731223 0.541732
Si Si2 0.493187 0.106351 0.886418
Si Si3 0.090760 0.103530 0.192242
Si Si4 0.020292 0.908629 0.110086
Si Si5 0.908083 0.901450 0.693320
Si Si6 0.759201 0.900376 0.049288
O O1 0.250000 0.750000 0.523662
O O2 0.425863 0.589421 0.567443
O O3 0.441844 0.843319 0.581570
O O4 0.496466 0.731328 0.494226
O O5 0.518012 0.258204 0.868500
O O6 0.343454 0.083713 0.905111
O O7 0.514581 0.009298 0.839950
O O8 0.054254 0.257066 0.181051
O O9 0.245745 0.075937 0.182051
O O10 0.056337 0.067976 0.249283
O O11 0.003855 0.009272 0.156429
O O12 0.904349 0.932221 0.070356
O O13 0.750000 0.750000 0.027494
#
# Coordination Sequence:
#
# PCOD8303520 Si02
#       6
#     8   8   8   8   8   8
#     4  10  20  34  56  80 104 144 184 218 263 312
#     4  10  20  36  55  77 111 143 175 221 268 316
#     4   9  18  34  56  80 103 133 177 225 268 317
#     4  10  20  36  55  77 111 143 175 221 268 316
#     4   9  18  34  56  80 103 133 177 225 268 317
#     4  10  22  36  52  78 114 144 178 218 261 318
#
# _framework density 17.840131
#
# number of rings (size 3 to 8) (size 9 to 14) (size 15 to 20)
#    0.000    2.333    1.667    2.000    0.000    2.667 
#    3.000    0.000    0.000    0.000    0.000    0.000 
#    0.000    0.000    0.000    0.000    0.000    0.000 
#
# Total GULP energy -595310.071679 kJ/mol
# GULP energy per Si atom -12402.293160 kJ/mol
# Density = 1.779953 g / cm^3
# Si number density = 17.840131 Si / 1000 Ang^3
#
#
#
# Elastic Constant Matrix: (Units=GPa)
#
#
# Indices 1 2 3 4 5 6 
#
# 1 56.2613 37.4090 39.3855 0.0000 0.0000 -2.9374
# 2 37.4090 56.2613 39.3855 0.0000 0.0000 2.9374
# 3 39.3855 39.3855 84.8515 0.0000 0.0000 0.0000
# 4 0.0000 0.0000 0.0000 15.1340 0.0000 0.0000
# 5 0.0000 0.0000 0.0000 0.0000 15.1340 0.0000
# 6 -2.9374 2.9374 0.0000 0.0000 0.0000 21.8761
#
#
#
# Elastic Compliance Matrix: (Units=1/GPa)
#
#
# Indices 1 2 3 4 5 6 
#
# 1 0.036436 -0.018925 -0.008128 0.000000 0.000000 0.007433
# 2 -0.018925 0.036436 -0.008128 0.000000 0.000000 -0.007433
# 3 -0.008128 -0.008128 0.019331 0.000000 0.000000 0.000000
# 4 0.000000 0.000000 0.000000 0.066077 0.000000 0.000000
# 5 0.000000 0.000000 0.000000 0.000000 0.066077 0.000000
# 6 0.007433 -0.007433 0.000000 0.000000 0.000000 0.047708
#
#
# Mechanical properties :
#
#
# Convention : Reuss Voigt Hill
#
# Bulk Modulus (GPa) = 45.78636 47.74822 46.76729
# Shear Modulus (GPa) = 14.29776 15.84174 15.06975
#
# Velocity S-wave (km/s) = 2.83404 2.98314 2.90954
# Velocity P-wave (km/s) = 6.03569 6.21997 6.12853
#
# Compressibility (1/GPa) = 0.02184057
#
# Stress axis : x y z
#
# Youngs Moduli (GPa) = 27.44568 27.44568 51.73072
#
# Poissons Ratio (x) = 0.51940 0.42047
# Poissons Ratio (y) = 0.51940 0.42047
# Poissons Ratio (z) = 0.22308 0.22308
#
# Static dielectric constant tensor:
#      x y z
#    x 3.316980 0.000000 0.000000 
#    y 0.000000 3.316980 0.000000 
#    z 0.000000 0.000000 3.094310 
# 
# 
# High freq. dielectric constant tensor:
#      x y z
#    x 1.690520 0.000000 0.000000 
#    y 0.000000 1.690520 0.000000 
#    z 0.000000 0.000000 1.683160 
# 
# From -- ./inp_files/5118.got.cif
#   From: 2010.03.12/outbox.cif.g09.slc.cpg/sg86_3_cif.got.tgz:5118.got - 2010.04.08 20:12:58.
