data_PCOD8303679
_publ_section_title
;
Structure prediction by ZEFSAII (Michael W. Deem and Ramdas Pophale) SiO2 
 PCOD8303679
Probable space group: P 42/N
;
_chemical_formula_sum "Si O2"
_cell_formula_units_Z 42
_cell_length_a 14.328771
_cell_length_b 14.328771
_cell_length_c 9.390230
_cell_angle_alpha 90.000000
_cell_angle_beta 90.000000
_cell_angle_gamma 90.000000
_cell_volume 1927.942662
_symmetry_space_group_name_H-M "P 42/N"
_symmetry_group_IT_number 86
_space_group.IT_coordinate_system_code '2'
_symmetry_cell_setting 'tetragonal'
loop_
_space_group_symop_operation_xyz
x,y,z
-y,1/2+x,1/2+z
1/2-x,1/2-y,z
1/2+y,-x,1/2+z
-x,-y,-z
y,1/2-x,1/2-z
1/2+x,1/2+y,-z
1/2-y,x,1/2-z
loop_
_atom_site_type_symbol
_atom_site_label
_atom_site_fract_x
_atom_site_fract_y
_atom_site_fract_z
Si Si1 0.250000 0.250000 0.250000
Si Si2 0.377705 0.722382 0.979435
Si Si3 0.824366 0.628143 0.218078
Si Si4 0.421459 0.255185 0.423220
Si Si5 0.597077 0.951070 0.479340
Si Si6 0.373929 0.719916 0.650703
O O1 0.332052 0.296961 0.342895
O O2 0.483672 0.684969 0.978296
O O3 0.364959 0.821054 0.065853
O O4 0.314361 0.648702 0.065117
O O5 0.341756 0.728234 0.815675
O O6 0.731477 0.637623 0.317064
O O7 0.898269 0.570869 0.310979
O O8 0.801358 0.571319 0.077639
O O9 0.403858 0.143918 0.429621
O O10 0.514701 0.289677 0.345615
O O11 0.500000 0.000000 0.500000
#
# Coordination Sequence:
#
# PCOD8303679 Si02
#       6
#     2   8   8   8   8   8
#     4  12  24  44  66  96 144 176 244 290 352 416
#     4  11  24  42  64  99 133 179 225 291 341 421
#     4   9  20  38  63  89 122 172 221 268 330 404
#     4  11  23  41  66  95 133 186 223 284 347 421
#     4  11  22  39  66  95 136 171 225 286 350 411
#     4  11  24  40  68  95 132 180 228 278 360 401
#
# _framework density 21.784879
#
# number of rings (size 3 to 8) (size 9 to 14) (size 15 to 20)
#    0.000    1.333    1.905    5.714    5.333    0.000 
#    0.000    0.000    0.000    6.857    0.000    0.000 
#    0.000    0.000    0.000    0.000    0.000    0.000 
#
# Total GULP energy -520559.891492 kJ/mol
# GULP energy per Si atom -12394.283131 kJ/mol
# Density = 2.173530 g / cm^3
# Si number density = 21.784879 Si / 1000 Ang^3
#
#
#
# Elastic Constant Matrix: (Units=GPa)
#
#
# Indices 1 2 3 4 5 6 
#
# 1 107.5938 25.8636 37.3906 0.0000 0.0000 -0.0080
# 2 25.8636 107.5938 37.3906 0.0000 0.0000 0.0080
# 3 37.3906 37.3906 140.1716 0.0000 0.0000 0.0000
# 4 0.0000 0.0000 0.0000 26.7676 0.0000 0.0000
# 5 0.0000 0.0000 0.0000 0.0000 26.7676 0.0000
# 6 -0.0080 0.0080 0.0000 0.0000 0.0000 39.2863
#
#
#
# Elastic Compliance Matrix: (Units=1/GPa)
#
#
# Indices 1 2 3 4 5 6 
#
# 1 0.010523 -0.001713 -0.002350 0.000000 0.000000 0.000003
# 2 -0.001713 0.010523 -0.002350 0.000000 0.000000 -0.000003
# 3 -0.002350 -0.002350 0.008388 0.000000 0.000000 0.000000
# 4 0.000000 0.000000 0.000000 0.037359 0.000000 0.000000
# 5 0.000000 0.000000 0.000000 0.000000 0.037359 0.000000
# 6 0.000003 -0.000003 0.000000 0.000000 0.000000 0.025454
#
#
# Mechanical properties :
#
#
# Convention : Reuss Voigt Hill
#
# Bulk Modulus (GPa) = 60.21394 61.84986 61.03190
# Shear Modulus (GPa) = 33.79159 35.54526 34.66843
#
# Velocity S-wave (km/s) = 3.94274 4.04375 3.99356
# Velocity P-wave (km/s) = 6.95896 7.08910 7.02433
#
# Compressibility (1/GPa) = 0.01660745
#
# Stress axis : x y z
#
# Youngs Moduli (GPa) = 95.03350 95.03350 119.22031
#
# Poissons Ratio (x) = 0.16277 0.28017
# Poissons Ratio (y) = 0.16277 0.28017
# Poissons Ratio (z) = 0.22333 0.22333
#
# Static dielectric constant tensor:
#      x y z
#    x 3.887660 0.000000 0.000000 
#    y 0.000000 3.887660 0.000000 
#    z 0.000000 0.000000 4.021140 
# 
# 
# High freq. dielectric constant tensor:
#      x y z
#    x 1.848640 0.000000 0.000000 
#    y 0.000000 1.848640 0.000000 
#    z 0.000000 0.000000 1.864010 
# 
# From -- ./inp_files/1173.got.cif
#   From: 2010.03.12/outbox.cif.g09.slc.cpg/sg86_1_cif.got.tgz:1173.got - 2010.04.08 20:12:58.
