data_PCOD8303395
_publ_section_title
;
Structure prediction by ZEFSAII (Michael W. Deem and Ramdas Pophale) SiO2 
 PCOD8303395
Probable space group: P 42/M
;
_chemical_formula_sum "Si O2"
_cell_formula_units_Z 24
_cell_length_a 10.787090
_cell_length_b 10.787090
_cell_length_c 9.612509
_cell_angle_alpha 90.000000
_cell_angle_beta 90.000000
_cell_angle_gamma 90.000000
_cell_volume 1118.524146
_symmetry_space_group_name_H-M "P 42/M"
_symmetry_group_IT_number 84
_symmetry_cell_setting 'tetragonal'
loop_
_space_group_symop_operation_xyz
x,y,z
-y,x,1/2+z
-x,-y,z
y,-x,1/2+z
-x,-y,-z
y,-x,1/2-z
x,y,-z
-y,x,1/2-z
loop_
_atom_site_type_symbol
_atom_site_label
_atom_site_fract_x
_atom_site_fract_y
_atom_site_fract_z
Si Si1 0.936059 0.367770 0.266716
Si Si2 0.189231 0.020160 0.000000
Si Si3 0.788245 0.986796 0.500000
Si Si4 0.339058 0.563997 0.667013
O O1 0.004831 0.275267 0.369188
O O2 0.795018 0.378300 0.315144
O O3 0.000000 0.500000 0.268673
O O4 0.952211 0.303021 0.121709
O O5 0.128117 0.159326 0.000000
O O6 0.089471 0.913292 0.000000
O O7 0.434770 0.654918 0.747196
O O8 0.369225 0.549531 0.500000
#
# Coordination Sequence:
#
# PCOD8303395 Si02
#       4
#     8   4   4   8
#     4  12  27  42  73 106 139 180 237 294 355 418
#     4  11  25  50  70 101 140 194 234 299 351 416
#     4  11  27  46  74 101 142 188 242 289 357 418
#     4  11  26  45  70 100 140 187 229 286 358 418
#
# _framework density 21.456845999999999
#
# number of rings (size 3 to 8) (size 9 to 14) (size 15 to 20)
#    0.000    0.667    1.667    5.000   14.000    2.667 
#    0.000    0.000    0.000    0.000    0.000    0.000 
#    0.000    0.000    0.000    0.000    0.000    0.000 
#
# Total GULP energy -297429.042190 kJ/mol
# GULP energy per Si atom -12392.876758 kJ/mol
# Density = 2.140801 g / cm^3
# Si number density = 21.456846 Si / 1000 Ang^3
#
#
#
# Elastic Constant Matrix: (Units=GPa)
#
#
# Indices 1 2 3 4 5 6 
#
# 1 104.6278 30.3044 46.1295 0.0000 0.0000 -17.5180
# 2 30.3044 104.6278 46.1295 0.0000 0.0000 17.5180
# 3 46.1295 46.1295 205.7960 0.0000 0.0000 0.0000
# 4 0.0000 0.0000 0.0000 41.8416 0.0000 0.0000
# 5 0.0000 0.0000 0.0000 0.0000 41.8416 0.0000
# 6 -17.5180 17.5180 0.0000 0.0000 0.0000 23.3338
#
#
#
# Elastic Compliance Matrix: (Units=1/GPa)
#
#
# Indices 1 2 3 4 5 6 
#
# 1 0.014789 -0.006036 -0.001962 0.000000 0.000000 0.015634
# 2 -0.006036 0.014789 -0.001962 0.000000 0.000000 -0.015634
# 3 -0.001962 -0.001962 0.005739 0.000000 0.000000 0.000000
# 4 0.000000 0.000000 0.000000 0.023900 0.000000 0.000000
# 5 0.000000 0.000000 0.000000 0.000000 0.023900 0.000000
# 6 0.015634 -0.015634 0.000000 0.000000 0.000000 0.066331
#
#
# Mechanical properties :
#
#
# Convention : Reuss Voigt Hill
#
# Bulk Modulus (GPa) = 64.95095 73.35316 69.15205
# Shear Modulus (GPa) = 28.65356 40.90260 34.77808
#
# Velocity S-wave (km/s) = 3.65828 4.37083 4.03033
# Velocity P-wave (km/s) = 6.94120 7.72870 7.34551
#
# Compressibility (1/GPa) = 0.01539623
#
# Stress axis : x y z
#
# Youngs Moduli (GPa) = 67.61963 67.61963 174.25534
#
# Poissons Ratio (x) = 0.40815 0.34187
# Poissons Ratio (y) = 0.40815 0.34187
# Poissons Ratio (z) = 0.13266 0.13266
#
# Static dielectric constant tensor:
#      x y z
#    x 4.081020 0.000000 0.000000 
#    y 0.000000 4.081020 0.000000 
#    z 0.000000 0.000000 4.270570 
# 
# 
# High freq. dielectric constant tensor:
#      x y z
#    x 1.853600 0.000000 0.000000 
#    y 0.000000 1.853600 0.000000 
#    z 0.000000 0.000000 1.865600 
# 
# From -- ./inp_files/427.got.cif
#   From: 2010.03.12/outbox.cif.g09.slc.cpg/sg84_1_cif.got.tgz:427.got - 2010.04.08 20:07:29.
