data_PCOD8303722
_publ_section_title
;
Structure prediction by ZEFSAII (Michael W. Deem and Ramdas Pophale) SiO2 
 PCOD8303722
Probable space group: I 4/M
;
_chemical_formula_sum "Si O2"
_cell_formula_units_Z 80
_cell_length_a 14.601270
_cell_length_b 14.601270
_cell_length_c 23.453795
_cell_angle_alpha 90.000000
_cell_angle_beta 90.000000
_cell_angle_gamma 90.000000
_cell_volume 5000.280741
_symmetry_space_group_name_H-M "I 4/M"
_symmetry_group_IT_number 87
_symmetry_cell_setting 'tetragonal'
loop_
_space_group_symop_operation_xyz
x,y,z
-y,x,z
-x,-y,z
y,-x,z
-x,-y,-z
y,-x,-z
x,y,-z
-y,x,-z
1/2+x,1/2+y,1/2+z
1/2-y,1/2+x,1/2+z
1/2-x,1/2-y,1/2+z
1/2+y,1/2-x,1/2+z
1/2-x,1/2-y,1/2-z
1/2+y,1/2-x,1/2-z
1/2+x,1/2+y,1/2-z
1/2-y,1/2+x,1/2-z
loop_
_atom_site_type_symbol
_atom_site_label
_atom_site_fract_x
_atom_site_fract_y
_atom_site_fract_z
Si Si1 0.934834 0.776974 0.064422
Si Si2 0.714067 0.619389 0.379145
Si Si3 0.753056 0.795730 0.435033
Si Si4 0.924100 0.129682 0.362155
Si Si5 0.129801 0.075966 0.766631
O O1 0.887269 0.867053 0.092597
O O2 0.858152 0.695624 0.066005
O O3 0.023419 0.744525 0.099403
O O4 0.964052 0.799983 0.000000
O O5 0.780180 0.702789 0.399680
O O6 0.703764 0.618237 0.310480
O O7 0.788735 0.787278 0.500000
O O8 0.796606 0.884199 0.405867
O O9 0.904440 0.162944 0.297709
O O10 0.032065 0.123157 0.373263
O O11 0.032207 0.123036 0.777038
#
# Coordination Sequence:
#
# PCOD8303722 Si02
#       5
#    16  16  16  16  16
#     4   9  17  27  41  67 100 129 154 176 209 266
#     4  10  16  27  44  68  99 131 150 175 217 269
#     4   9  19  31  44  68  95 120 154 196 232 273
#     4   9  19  34  52  69  87 113 153 208 252 275
#     4   9  15  26  43  69  97 120 152 189 227 272
#
# _framework density 15.999101
#
# number of rings (size 3 to 8) (size 9 to 14) (size 15 to 20)
#    1.200    1.600    2.000    2.400    0.000    2.000 
#    0.000    2.000    0.000    1.200    0.000    4.200 
#    0.000    6.400    0.000    0.000    0.000    0.000 
#
# Total GULP energy -495566.488278 kJ/mol
# GULP energy per Si atom -12389.162207 kJ/mol
# Density = 1.596269 g / cm^3
# Si number density = 15.999101 Si / 1000 Ang^3
#
#
#
# Elastic Constant Matrix: (Units=GPa)
#
#
# Indices 1 2 3 4 5 6 
#
# 1 39.3580 25.5191 36.3471 0.0000 0.0000 -4.1451
# 2 25.5191 39.3580 36.3471 0.0000 0.0000 4.1451
# 3 36.3471 36.3471 112.4831 0.0000 0.0000 0.0000
# 4 0.0000 0.0000 0.0000 26.8245 0.0000 0.0000
# 5 0.0000 0.0000 0.0000 0.0000 26.8245 0.0000
# 6 -4.1451 4.1451 0.0000 0.0000 0.0000 21.9340
#
#
#
# Elastic Compliance Matrix: (Units=1/GPa)
#
#
# Indices 1 2 3 4 5 6 
#
# 1 0.052824 -0.028662 -0.007808 0.000000 0.000000 0.015399
# 2 -0.028662 0.052824 -0.007808 0.000000 0.000000 -0.015399
# 3 -0.007808 -0.007808 0.013936 0.000000 0.000000 0.000000
# 4 0.000000 0.000000 0.000000 0.037279 0.000000 0.000000
# 5 0.000000 0.000000 0.000000 0.000000 0.037279 0.000000
# 6 0.015399 -0.015399 0.000000 0.000000 0.000000 0.051412
#
#
# Mechanical properties :
#
#
# Convention : Reuss Voigt Hill
#
# Bulk Modulus (GPa) = 32.22702 43.06954 37.64828
# Shear Modulus (GPa) = 14.51586 21.31562 17.91574
#
# Velocity S-wave (km/s) = 3.01540 3.65403 3.34997
# Velocity P-wave (km/s) = 5.68421 6.69186 6.20851
#
# Compressibility (1/GPa) = 0.03102986
#
# Stress axis : x y z
#
# Youngs Moduli (GPa) = 18.93089 18.93089 71.75637
#
# Poissons Ratio (x) = 0.54259 0.56025
# Poissons Ratio (y) = 0.54259 0.56025
# Poissons Ratio (z) = 0.14781 0.14781
#
# Static dielectric constant tensor:
#      x y z
#    x 2.646450 0.000000 0.000000 
#    y 0.000000 2.646450 0.000000 
#    z 0.000000 0.000000 3.089020 
# 
# 
# High freq. dielectric constant tensor:
#      x y z
#    x 1.576640 0.000000 0.000000 
#    y 0.000000 1.576640 0.000000 
#    z 0.000000 0.000000 1.631610 
# 
# From -- ./inp_files/5737.got.cif
#   From: 2010.03.12/outbox.cif.g09.slc.cpg/sg87_3_cif.got.tgz:5737.got - 2010.04.08 20:16:13.
