data_PCOD8303014
_publ_section_title
;
Structure prediction by ZEFSAII (Michael W. Deem and Ramdas Pophale) SiO2 
 PCOD8303014
Probable space group: P 4/M
;
_chemical_formula_sum "Si O2"
_cell_formula_units_Z 48
_cell_length_a 8.160325
_cell_length_b 8.160325
_cell_length_c 31.988090
_cell_angle_alpha 90.000000
_cell_angle_beta 90.000000
_cell_angle_gamma 90.000000
_cell_volume 2130.115834
_symmetry_space_group_name_H-M "P 4/M"
_symmetry_group_IT_number 83
_symmetry_cell_setting 'tetragonal'
loop_
_space_group_symop_operation_xyz
x,y,z
-y,x,z
-x,-y,z
y,-x,z
-x,-y,-z
y,-x,-z
x,y,-z
-y,x,-z
loop_
_atom_site_type_symbol
_atom_site_label
_atom_site_fract_x
_atom_site_fract_y
_atom_site_fract_z
Si Si1 0.749087 0.098344 0.745073
Si Si2 0.240782 0.877549 0.584287
Si Si3 0.373179 0.739849 0.500000
Si Si4 0.500000 0.000000 0.889258
Si Si5 0.754849 0.413357 0.952956
Si Si6 0.611959 0.255397 0.334079
Si Si7 0.417308 0.758012 0.177614
O O1 0.674542 0.121996 0.699035
O O2 0.612482 0.151423 0.778535
O O3 0.909132 0.209446 0.751265
O O4 0.322965 0.844643 0.539954
O O5 0.364287 0.815340 0.619677
O O6 0.070582 0.782772 0.589017
O O7 0.281463 0.567293 0.500000
O O8 0.623086 0.896385 0.919224
O O9 0.385944 0.884220 0.860265
O O10 0.703483 0.601665 0.945340
O O11 0.822571 0.390311 0.000000
O O12 0.713721 0.420922 0.327267
O O13 0.296275 0.605416 0.173994
#
# Coordination Sequence:
#
# PCOD8303014 Si02
#       7
#     8   8   4   4   8   8   8
#     4  11  24  42  64  92 125 160 202 255 314 374
#     4  11  24  41  62  91 124 160 205 256 311 372
#     4  11  24  41  62  90 124 161 204 253 308 376
#     4  12  21  34  60  92 122 158 206 261 314 364
#     4   9  19  37  61  90 124 163 209 259 312 373
#     4  11  24  41  63  92 124 161 208 256 305 368
#     4  11  24  41  61  87 120 161 209 257 311 377
#
# _framework density 22.533985000000001
#
# number of rings (size 3 to 8) (size 9 to 14) (size 15 to 20)
#    0.000    1.250    0.000    6.250    0.000   12.667 
#    0.000    0.000    0.000    4.500    0.000    9.333 
#    0.000    0.000    0.000    0.000    0.000    0.000 
#
# Total GULP energy -595444.167887 kJ/mol
# GULP energy per Si atom -12405.086831 kJ/mol
# Density = 2.248270 g / cm^3
# Si number density = 22.533985 Si / 1000 Ang^3
#
#
#
# Elastic Constant Matrix: (Units=GPa)
#
#
# Indices 1 2 3 4 5 6 
#
# 1 57.4065 7.8370 43.0717 0.0000 0.0000 -3.1209
# 2 7.8370 57.4065 43.0717 0.0000 0.0000 3.1209
# 3 43.0717 43.0717 165.2297 0.0000 0.0000 0.0000
# 4 0.0000 0.0000 0.0000 20.5178 0.0000 0.0000
# 5 0.0000 0.0000 0.0000 0.0000 20.5178 0.0000
# 6 -3.1209 3.1209 0.0000 0.0000 0.0000 29.5645
#
#
#
# Elastic Compliance Matrix: (Units=1/GPa)
#
#
# Indices 1 2 3 4 5 6 
#
# 1 0.021908 0.001463 -0.006092 0.000000 0.000000 0.002158
# 2 0.001463 0.021908 -0.006092 0.000000 0.000000 -0.002158
# 3 -0.006092 -0.006092 0.009228 0.000000 0.000000 0.000000
# 4 0.000000 0.000000 0.000000 0.048738 0.000000 0.000000
# 5 0.000000 0.000000 0.000000 0.000000 0.048738 0.000000
# 6 0.002158 -0.002158 0.000000 0.000000 0.000000 0.034280
#
#
# Mechanical properties :
#
#
# Convention : Reuss Voigt Hill
#
# Bulk Modulus (GPa) = 31.64423 52.00041 41.82232
# Shear Modulus (GPa) = 23.06500 26.52418 24.79459
#
# Velocity S-wave (km/s) = 3.20279 3.43457 3.32071
# Velocity P-wave (km/s) = 5.26788 6.23337 5.77085
#
# Compressibility (1/GPa) = 0.03160134
#
# Stress axis : x y z
#
# Youngs Moduli (GPa) = 45.64485 45.64485 108.36061
#
# Poissons Ratio (x) = -0.06677 0.66017
# Poissons Ratio (y) = -0.06677 0.66017
# Poissons Ratio (z) = 0.27808 0.27808
#
# Static dielectric constant tensor:
#      x y z
#    x 4.066390 0.000000 0.000000 
#    y 0.000000 4.066390 0.000000 
#    z 0.000000 0.000000 4.176840 
# 
# 
# High freq. dielectric constant tensor:
#      x y z
#    x 1.886590 0.000000 0.000000 
#    y 0.000000 1.886590 0.000000 
#    z 0.000000 0.000000 1.906100 
# 
# From -- ./inp_files/3430.got.cif
#   From: 2010.03.12/outbox.cif.g09.slc.cpg/sg83_2_cif.got.tgz:3430.got - 2010.04.08 20:05:18.
