data_PCOD8303237
_publ_section_title
;
Structure prediction by ZEFSAII (Michael W. Deem and Ramdas Pophale) SiO2 
 PCOD8303237
Probable space group: P 42/M
;
_chemical_formula_sum "Si O2"
_cell_formula_units_Z 56
_cell_length_a 12.391443
_cell_length_b 12.391443
_cell_length_c 18.439978
_cell_angle_alpha 90.000000
_cell_angle_beta 90.000000
_cell_angle_gamma 90.000000
_cell_volume 2831.419153
_symmetry_space_group_name_H-M "P 42/M"
_symmetry_group_IT_number 84
_symmetry_cell_setting 'tetragonal'
loop_
_space_group_symop_operation_xyz
x,y,z
-y,x,1/2+z
-x,-y,z
y,-x,1/2+z
-x,-y,-z
y,-x,1/2-z
x,y,-z
-y,x,1/2-z
loop_
_atom_site_type_symbol
_atom_site_label
_atom_site_fract_x
_atom_site_fract_y
_atom_site_fract_z
Si Si1 0.035660 0.711162 0.417815
Si Si2 0.553944 0.887532 0.697822
Si Si3 0.899954 0.817004 0.917062
Si Si4 0.875706 0.265827 0.082633
Si Si5 0.580548 0.790219 0.152327
Si Si6 0.658074 0.226859 0.318275
Si Si7 0.666157 0.179247 0.153999
O O1 0.990442 0.705968 0.500000
O O2 0.072361 0.834744 0.398496
O O3 0.137998 0.631178 0.411915
O O4 0.948485 0.667542 0.360541
O O5 0.634992 0.906468 0.632849
O O6 0.608678 0.848997 0.771907
O O7 0.468485 0.795924 0.673924
O O8 0.500000 0.000000 0.717372
O O9 0.857582 0.720761 0.867703
O O10 0.030514 0.826035 0.906047
O O11 0.873660 0.786383 0.000000
O O12 0.756075 0.225782 0.100302
O O13 0.876424 0.305965 0.000000
O O14 0.648821 0.678529 0.157011
O O15 0.453301 0.771496 0.138003
O O16 0.697830 0.205573 0.235999
#
# Coordination Sequence:
#
# PCOD8303237 Si02
#       7
#     8   8   8   8   8   8   8
#     4  10  21  37  59  88 122 160 203 247 305 368
#     4  11  20  36  62  89 113 151 207 256 302 365
#     4   9  20  36  56  87 122 158 196 245 301 361
#     4  11  23  38  58  88 125 158 199 248 308 368
#     4  10  21  38  60  87 116 156 205 254 306 361
#     4  10  20  37  62  84 117 153 200 261 302 359
#     4  11  22  36  59  86 118 162 204 250 302 367
#
# _framework density 19.778068999999999
#
# number of rings (size 3 to 8) (size 9 to 14) (size 15 to 20)
#    0.000    1.714    2.857    2.571    0.000    3.143 
#    0.000    2.857    0.000    2.571    0.000    0.000 
#    0.000    0.000    0.000    0.000    0.000    0.000 
#
# Total GULP energy -694067.325697 kJ/mol
# GULP energy per Si atom -12394.059387 kJ/mol
# Density = 1.973305 g / cm^3
# Si number density = 19.778069 Si / 1000 Ang^3
#
#
#
# Elastic Constant Matrix: (Units=GPa)
#
#
# Indices 1 2 3 4 5 6 
#
# 1 96.5951 39.5385 18.8739 0.0000 0.0000 -3.8866
# 2 39.5385 96.5951 18.8739 0.0000 0.0000 3.8866
# 3 18.8739 18.8739 56.9646 0.0000 0.0000 0.0000
# 4 0.0000 0.0000 0.0000 26.0754 0.0000 0.0000
# 5 0.0000 0.0000 0.0000 0.0000 26.0754 0.0000
# 6 -3.8866 3.8866 0.0000 0.0000 0.0000 32.9245
#
#
#
# Elastic Compliance Matrix: (Units=1/GPa)
#
#
# Indices 1 2 3 4 5 6 
#
# 1 0.012951 -0.004862 -0.002680 0.000000 0.000000 0.002103
# 2 -0.004862 0.012951 -0.002680 0.000000 0.000000 -0.002103
# 3 -0.002680 -0.002680 0.019331 0.000000 0.000000 0.000000
# 4 0.000000 0.000000 0.000000 0.038350 0.000000 0.000000
# 5 0.000000 0.000000 0.000000 0.000000 0.038350 0.000000
# 6 0.002103 -0.002103 0.000000 0.000000 0.000000 0.030869
#
#
# Mechanical properties :
#
#
# Convention : Reuss Voigt Hill
#
# Bulk Modulus (GPa) = 40.34173 44.96969 42.65571
# Shear Modulus (GPa) = 27.54682 28.53963 28.04322
#
# Velocity S-wave (km/s) = 3.73607 3.80280 3.76958
# Velocity P-wave (km/s) = 6.24919 6.48600 6.36870
#
# Compressibility (1/GPa) = 0.02478823
#
# Stress axis : x y z
#
# Youngs Moduli (GPa) = 77.21475 77.21475 51.73115
#
# Poissons Ratio (x) = 0.37542 0.13864
# Poissons Ratio (y) = 0.37542 0.13864
# Poissons Ratio (z) = 0.20694 0.20694
#
# Static dielectric constant tensor:
#      x y z
#    x 3.652210 0.000000 0.000000 
#    y 0.000000 3.652210 0.000000 
#    z 0.000000 0.000000 3.616200 
# 
# 
# High freq. dielectric constant tensor:
#      x y z
#    x 1.762620 0.000000 0.000000 
#    y 0.000000 1.762620 0.000000 
#    z 0.000000 0.000000 1.775980 
# 
# From -- ./inp_files/4492.got.cif
#   From: 2010.03.12/outbox.cif.g09.slc.cpg/sg84_3_cif.got.tgz:4492.got - 2010.04.08 20:07:29.
