data_PCOD8303463
_publ_section_title
;
Structure prediction by ZEFSAII (Michael W. Deem and Ramdas Pophale) SiO2 
 PCOD8303463
Probable space group: P 4/N
;
_chemical_formula_sum "Si O2"
_cell_formula_units_Z 34
_cell_length_a 10.677758
_cell_length_b 10.677758
_cell_length_c 12.066472
_cell_angle_alpha 90.000000
_cell_angle_beta 90.000000
_cell_angle_gamma 90.000000
_cell_volume 1375.752964
_symmetry_space_group_name_H-M "P 4/N"
_symmetry_group_IT_number 85
_symmetry_cell_setting 'tetragonal'
loop_
_space_group_symop_operation_xyz
x,y,z
1/2-y,x,z
1/2-x,1/2-y,z
y,1/2-x,z
-x,-y,-z
1/2+y,-x,-z
1/2+x,1/2+y,-z
-y,1/2+x,-z
loop_
_atom_site_type_symbol
_atom_site_label
_atom_site_fract_x
_atom_site_fract_y
_atom_site_fract_z
Si Si1 0.936526 0.822976 0.781815
Si Si2 0.250000 0.750000 0.500000
Si Si3 0.079434 0.865942 0.988796
Si Si4 0.396099 0.395503 0.815790
Si Si5 0.437797 0.934039 0.396936
O O1 0.818952 0.909174 0.810417
O O2 0.976609 0.828991 0.652701
O O3 0.047565 0.877739 0.857282
O O4 0.368390 0.802372 0.427626
O O5 0.978260 0.935271 0.072846
O O6 0.216866 0.923642 0.992539
O O7 0.250744 0.424525 0.820919
O O8 0.436127 0.455481 0.698533
O O9 0.500000 0.000000 0.500000
#
# Coordination Sequence:
#
# PCOD8303463 Si02
#       5
#     8   2   8   8   8
#     4  11  24  42  67  99 138 184 234 294 366 440
#     4  12  28  48  76 108 142 192 248 312 388 450
#     4  11  24  42  69 106 147 191 241 296 358 435
#     4  11  24  43  69 100 139 187 236 294 365 439
#     4  12  26  47  71 100 138 182 242 307 369 444
#
# _framework density 24.713740000000001
#
# number of rings (size 3 to 8) (size 9 to 14) (size 15 to 20)
#    0.000    0.706    0.000    7.059    0.000    8.471 
#    0.000    2.353    0.000    0.000    0.000    0.000 
#    0.000    0.000    0.000    0.000    0.000    0.000 
#
# Total GULP energy -421272.310003 kJ/mol
# GULP energy per Si atom -12390.362059 kJ/mol
# Density = 2.465749 g / cm^3
# Si number density = 24.713740 Si / 1000 Ang^3
#
#
#
# Elastic Constant Matrix: (Units=GPa)
#
#
# Indices 1 2 3 4 5 6 
#
# 1 193.0900 -43.7008 75.3811 0.0000 0.0000 -142.7349
# 2 -43.7008 193.0900 75.3811 0.0000 0.0000 142.7349
# 3 75.3811 75.3811 208.6734 0.0000 0.0000 0.0000
# 4 0.0000 0.0000 0.0000 46.4213 0.0000 0.0000
# 5 0.0000 0.0000 0.0000 0.0000 46.4213 0.0000
# 6 -142.7349 142.7349 0.0000 0.0000 0.0000 259.6576
#
#
#
# Elastic Compliance Matrix: (Units=1/GPa)
#
#
# Indices 1 2 3 4 5 6 
#
# 1 0.011528 -0.000993 -0.003805 0.000000 0.000000 0.006883
# 2 -0.000993 0.011528 -0.003805 0.000000 0.000000 -0.006883
# 3 -0.003805 -0.003805 0.007541 0.000000 0.000000 0.000000
# 4 0.000000 0.000000 0.000000 0.021542 0.000000 0.000000
# 5 0.000000 0.000000 0.000000 0.000000 0.021542 0.000000
# 6 0.006883 -0.006883 0.000000 0.000000 0.000000 0.011418
#
#
# Mechanical properties :
#
#
# Convention : Reuss Voigt Hill
#
# Bulk Modulus (GPa) = 74.69109 89.88625 82.28867
# Shear Modulus (GPa) = 46.82986 103.01950 74.92468
#
# Velocity S-wave (km/s) = 4.35776 6.46341 5.51206
# Velocity P-wave (km/s) = 7.45709 9.59952 8.59532
#
# Compressibility (1/GPa) = 0.01338848
#
# Stress axis : x y z
#
# Youngs Moduli (GPa) = 86.74862 86.74862 132.59965
#
# Poissons Ratio (x) = 0.08616 0.50459
# Poissons Ratio (y) = 0.08616 0.50459
# Poissons Ratio (z) = 0.33011 0.33011
#
# Static dielectric constant tensor:
#      x y z
#    x 4.732430 0.000000 0.000000 
#    y 0.000000 4.732430 0.000000 
#    z 0.000000 0.000000 4.569050 
# 
# 
# High freq. dielectric constant tensor:
#      x y z
#    x 2.010380 0.000000 0.000000 
#    y 0.000000 2.010380 0.000000 
#    z 0.000000 0.000000 1.995440 
# 
# From -- ./inp_files/1480.got.cif
#   From: 2010.03.12/outbox.cif.g09.slc.cpg/sg85_cif.got.tgz:1480.got - 2010.04.08 20:10:46.
