data_PCOD8303877
_publ_section_title
;
Structure prediction by ZEFSAII (Michael W. Deem and Ramdas Pophale) SiO2 
 PCOD8303877
Probable space group: I 4/M
;
_chemical_formula_sum "Si O2"
_cell_formula_units_Z 64
_cell_length_a 21.426197
_cell_length_b 21.426197
_cell_length_c 8.785342
_cell_angle_alpha 90.000000
_cell_angle_beta 90.000000
_cell_angle_gamma 90.000000
_cell_volume 4033.191655
_symmetry_space_group_name_H-M "I 4/M"
_symmetry_group_IT_number 87
_symmetry_cell_setting 'tetragonal'
loop_
_space_group_symop_operation_xyz
x,y,z
-y,x,z
-x,-y,z
y,-x,z
-x,-y,-z
y,-x,-z
x,y,-z
-y,x,-z
1/2+x,1/2+y,1/2+z
1/2-y,1/2+x,1/2+z
1/2-x,1/2-y,1/2+z
1/2+y,1/2-x,1/2+z
1/2-x,1/2-y,1/2-z
1/2+y,1/2-x,1/2-z
1/2+x,1/2+y,1/2-z
1/2-y,1/2+x,1/2-z
loop_
_atom_site_type_symbol
_atom_site_label
_atom_site_fract_x
_atom_site_fract_y
_atom_site_fract_z
Si Si1 0.236053 0.655969 0.168048
Si Si2 0.654222 0.244424 0.831765
Si Si3 0.073117 0.840356 0.821462
Si Si4 0.336474 0.560836 0.180507
O O1 0.287508 0.709713 0.162917
O O2 0.178311 0.676725 0.274066
O O3 0.270335 0.593095 0.225568
O O4 0.208571 0.645268 0.000000
O O5 0.601323 0.272608 0.721548
O O6 0.625455 0.235833 0.000000
O O7 0.106635 0.894341 0.725727
O O8 0.001059 0.841929 0.778358
O O9 0.081936 0.852421 0.000000
O O10 0.340146 0.547902 0.000000
#
# Coordination Sequence:
#
# PCOD8303877 Si02
#       4
#    16  16  16  16
#     4   8  15  27  44  64  84 108 140 180 222 263
#     4   9  16  27  44  64  86 112 141 176 221 266
#     4  11  21  32  46  65  89 117 152 188 221 259
#     4  10  20  34  48  63  87 119 153 186 223 262
#
# _framework density 15.868326
#
# number of rings (size 3 to 8) (size 9 to 14) (size 15 to 20)
#    0.000    2.500    0.000    5.250    0.000    7.500 
#    0.000    2.500    0.000    0.000    0.000    0.000 
#    0.000    1.000    0.000   10.500    0.000    5.000 
#
# Total GULP energy -396641.924447 kJ/mol
# GULP energy per Si atom -12395.060139 kJ/mol
# Density = 1.583221 g / cm^3
# Si number density = 15.868326 Si / 1000 Ang^3
#
#
#
# Elastic Constant Matrix: (Units=GPa)
#
#
# Indices 1 2 3 4 5 6 
#
# 1 40.7681 43.6325 16.7824 0.0000 0.0000 0.4396
# 2 43.6325 40.7681 16.7824 0.0000 0.0000 -0.4396
# 3 16.7824 16.7824 73.7279 0.0000 0.0000 0.0000
# 4 0.0000 0.0000 0.0000 24.2368 0.0000 0.0000
# 5 0.0000 0.0000 0.0000 0.0000 24.2368 0.0000
# 6 0.4396 -0.4396 0.0000 0.0000 0.0000 16.0286
#
#
#
# Elastic Compliance Matrix: (Units=1/GPa)
#
#
# Indices 1 2 3 4 5 6 
#
# 1 -0.166587 0.179615 -0.002965 0.000000 0.000000 0.009495
# 2 0.179615 -0.166587 -0.002965 0.000000 0.000000 -0.009495
# 3 -0.002965 -0.002965 0.014913 0.000000 0.000000 0.000000
# 4 0.000000 0.000000 0.000000 0.041259 0.000000 0.000000
# 5 0.000000 0.000000 0.000000 0.000000 0.041259 0.000000
# 6 0.009495 -0.009495 0.000000 0.000000 0.000000 0.061868
#
#
# Mechanical properties :
#
#
# Convention : Reuss Voigt Hill
#
# Bulk Modulus (GPa) = 34.35615 34.40651 34.38133
# Shear Modulus (GPa) = -9.77442 18.10491 4.16524
#
# Velocity S-wave (km/s) = -2.48457 3.38145 1.62191
# Velocity P-wave (km/s) = 3.66974 6.08073 5.02206
#
# Compressibility (1/GPa) = 0.02910687
#
# Stress axis : x y z
#
# Youngs Moduli (GPa) = -6.00287 -6.00287 67.05380
#
# Poissons Ratio (x) = 1.07820 0.19884
# Poissons Ratio (y) = 1.07820 0.19884
# Poissons Ratio (z) = -0.01780 -0.01780
#
# Static dielectric constant tensor:
#      x y z
#    x 2.921120 0.000000 0.000000 
#    y 0.000000 2.921120 0.000000 
#    z 0.000000 0.000000 3.242360 
# 
# 
# High freq. dielectric constant tensor:
#      x y z
#    x 1.579460 0.000000 0.000000 
#    y 0.000000 1.579460 0.000000 
#    z 0.000000 0.000000 1.624900 
# 
# From -- ./inp_files/914.got.cif
#   From: 2010.03.12/outbox.cif.g09.slc.cpg/sg87_1_cif.got.tgz:914.got - 2010.04.08 20:16:13.
