data_PCOD8303901
_publ_section_title
;
Structure prediction by ZEFSAII (Michael W. Deem and Ramdas Pophale) SiO2 
 PCOD8303901
Probable space group: I 4/M
;
_chemical_formula_sum "Si O2"
_cell_formula_units_Z 120
_cell_length_a 26.967132
_cell_length_b 26.967132
_cell_length_c 8.101048
_cell_angle_alpha 90.000000
_cell_angle_beta 90.000000
_cell_angle_gamma 90.000000
_cell_volume 5891.294420
_symmetry_space_group_name_H-M "I 4/M"
_symmetry_group_IT_number 87
_symmetry_cell_setting 'tetragonal'
loop_
_space_group_symop_operation_xyz
x,y,z
-y,x,z
-x,-y,z
y,-x,z
-x,-y,-z
y,-x,-z
x,y,-z
-y,x,-z
1/2+x,1/2+y,1/2+z
1/2-y,1/2+x,1/2+z
1/2-x,1/2-y,1/2+z
1/2+y,1/2-x,1/2+z
1/2-x,1/2-y,1/2-z
1/2+y,1/2-x,1/2-z
1/2+x,1/2+y,1/2-z
1/2-y,1/2+x,1/2-z
loop_
_atom_site_type_symbol
_atom_site_label
_atom_site_fract_x
_atom_site_fract_y
_atom_site_fract_z
Si Si1 0.952448 0.367137 0.307442
Si Si2 0.649053 0.496036 0.807474
Si Si3 0.438534 0.131650 0.687271
Si Si4 0.810158 0.108453 0.691581
Si Si5 0.626339 0.211628 0.807739
Si Si6 0.420181 0.510519 0.500000
Si Si7 0.180543 0.105940 0.304775
Si Si8 0.361351 0.204842 0.810667
O O1 0.964811 0.360996 0.500000
O O2 0.923320 0.418293 0.270031
O O3 0.918348 0.322312 0.238426
O O4 0.002906 0.367330 0.206871
O O5 0.687898 0.451016 0.783824
O O6 0.607391 0.484015 0.674222
O O7 0.672825 0.548510 0.756126
O O8 0.629593 0.496713 0.000000
O O9 0.423528 0.144193 0.500000
O O10 0.411588 0.172729 0.797980
O O11 0.808760 0.121074 0.500000
O O12 0.858123 0.137252 0.768455
O O13 0.758955 0.128780 0.770998
O O14 0.623529 0.266611 0.728897
O O15 0.679166 0.185740 0.775842
O O16 0.618026 0.216909 0.000000
O O17 0.444545 0.457442 0.500000
O O18 0.180502 0.110386 0.500000
O O19 0.347180 0.210673 0.000000
#
# Coordination Sequence:
#
# PCOD8303901 Si02
#       8
#    16  16  16  16  16   8  16  16
#     4   9  19  34  52  75 105 142 181 224 274 326
#     4  10  21  40  64  88 121 162 201 248 308 366
#     4  10  21  36  54  78 108 143 186 229 276 337
#     4   9  19  35  58  87 113 147 195 239 288 352
#     4   9  19  36  56  80 114 152 191 233 286 345
#     4  11  24  40  60  90 126 160 202 256 305 360
#     4   9  18  35  60  85 113 151 193 240 289 346
#     4  10  20  35  55  80 115 150 187 237 289 343
#
# _framework density 20.369039000000001
#
# number of rings (size 3 to 8) (size 9 to 14) (size 15 to 20)
#    0.000    2.467    0.000    2.400    1.867    5.067 
#    3.600    2.000    0.000    0.000    0.000    0.000 
#    0.000    0.000    0.000    0.000    0.000    0.000 
#
# Total GULP energy -743611.858534 kJ/mol
# GULP energy per Si atom -12393.530976 kJ/mol
# Density = 2.032268 g / cm^3
# Si number density = 20.369039 Si / 1000 Ang^3
#
#
#
# Elastic Constant Matrix: (Units=GPa)
#
#
# Indices 1 2 3 4 5 6 
#
# 1 119.3036 33.7306 4.2528 0.0000 0.0000 1.1723
# 2 33.7306 119.3036 4.2528 0.0000 0.0000 -1.1723
# 3 4.2528 4.2528 39.0593 0.0000 0.0000 0.0000
# 4 0.0000 0.0000 0.0000 16.1989 0.0000 0.0000
# 5 0.0000 0.0000 0.0000 0.0000 16.1989 0.0000
# 6 1.1723 -1.1723 0.0000 0.0000 0.0000 32.0271
#
#
#
# Elastic Compliance Matrix: (Units=1/GPa)
#
#
# Indices 1 2 3 4 5 6 
#
# 1 0.009136 -0.002562 -0.000716 0.000000 0.000000 -0.000428
# 2 -0.002562 0.009136 -0.000716 0.000000 0.000000 0.000428
# 3 -0.000716 -0.000716 0.025758 0.000000 0.000000 0.000000
# 4 0.000000 0.000000 0.000000 0.061733 0.000000 0.000000
# 5 0.000000 0.000000 0.000000 0.000000 0.061733 0.000000
# 6 -0.000428 0.000428 0.000000 0.000000 0.000000 0.031255
#
#
# Mechanical properties :
#
#
# Convention : Reuss Voigt Hill
#
# Bulk Modulus (GPa) = 27.74440 40.23765 33.99102
# Shear Modulus (GPa) = 22.85703 28.58034 25.71869
#
# Velocity S-wave (km/s) = 3.35348 3.74990 3.55721
# Velocity P-wave (km/s) = 5.35209 6.20856 5.79616
#
# Compressibility (1/GPa) = 0.03604331
#
# Stress axis : x y z
#
# Youngs Moduli (GPa) = 109.45752 109.45752 38.82291
#
# Poissons Ratio (x) = 0.28040 0.02779
# Poissons Ratio (y) = 0.28040 0.02779
# Poissons Ratio (z) = 0.07835 0.07835
#
# Static dielectric constant tensor:
#      x y z
#    x 3.877940 0.000000 0.000000 
#    y 0.000000 3.877940 0.000000 
#    z 0.000000 0.000000 3.489030 
# 
# 
# High freq. dielectric constant tensor:
#      x y z
#    x 1.798450 0.000000 0.000000 
#    y 0.000000 1.798450 0.000000 
#    z 0.000000 0.000000 1.771460 
# 
# From -- ./inp_files/1723.got.cif
#   From: 2010.03.12/outbox.cif.g09.slc.cpg/sg87_1_cif.got.tgz:1723.got - 2010.04.08 20:16:13.
