data_PCOD8303501
_publ_section_title
;
Structure prediction by ZEFSAII (Michael W. Deem and Ramdas Pophale) SiO2 
 PCOD8303501
Probable space group: P 42/N
;
_chemical_formula_sum "Si O2"
_cell_formula_units_Z 50
_cell_length_a 11.742463
_cell_length_b 11.742463
_cell_length_c 18.402694
_cell_angle_alpha 90.000000
_cell_angle_beta 90.000000
_cell_angle_gamma 90.000000
_cell_volume 2537.463510
_symmetry_space_group_name_H-M "P 42/N"
_symmetry_group_IT_number 86
_space_group.IT_coordinate_system_code '2'
_symmetry_cell_setting 'tetragonal'
loop_
_space_group_symop_operation_xyz
x,y,z
-y,1/2+x,1/2+z
1/2-x,1/2-y,z
1/2+y,-x,1/2+z
-x,-y,-z
y,1/2-x,1/2-z
1/2+x,1/2+y,-z
1/2-y,x,1/2-z
loop_
_atom_site_type_symbol
_atom_site_label
_atom_site_fract_x
_atom_site_fract_y
_atom_site_fract_z
Si Si1 0.420578 0.924883 0.946727
Si Si2 0.750000 0.250000 0.234319
Si Si3 0.514301 0.263534 0.672459
Si Si4 0.605780 0.920023 0.833654
Si Si5 0.697620 0.420818 0.858268
Si Si6 0.953936 0.525174 0.283297
Si Si7 0.750000 0.750000 0.750000
Si Si8 0.750000 0.250000 0.477636
O O1 0.331590 0.007340 0.903236
O O2 0.508424 0.874461 0.887746
O O3 0.349337 0.818972 0.979907
O O4 0.500000 0.000000 0.000000
O O5 0.763562 0.147418 0.178470
O O6 0.639687 0.238468 0.284710
O O7 0.477304 0.331879 0.744136
O O8 0.451687 0.142813 0.672429
O O9 0.649048 0.804902 0.796532
O O10 0.709566 0.981489 0.876235
O O11 0.552828 0.011208 0.776938
O O12 0.573495 0.472125 0.843022
O O13 0.683535 0.339043 0.927056
#
# Coordination Sequence:
#
# PCOD8303501 Si02
#       8
#     8   4   8   8   8   8   2   4
#     4  11  24  41  62  87 124 176 221 258 304 394
#     4   9  17  32  60  92 113 151 204 252 312 361
#     4  10  21  36  61  89 127 159 203 267 318 388
#     4  11  21  39  62  93 130 160 205 269 331 385
#     4  10  19  35  63  90 124 160 206 262 311 383
#     4  10  21  36  61  97 123 157 206 267 334 376
#     4  12  24  36  64 100 128 148 188 286 352 360
#     4  11  23  42  64  86 123 181 226 250 308 385
#
# _framework density 19.704716000000001
#
# number of rings (size 3 to 8) (size 9 to 14) (size 15 to 20)
#    0.000    1.600    4.800    0.480    0.000    1.600 
#    0.000    2.400    0.000    0.000    0.000    0.000 
#    0.000    0.000    0.000    0.000    0.000    0.000 
#
# Total GULP energy -619716.666639 kJ/mol
# GULP energy per Si atom -12394.333333 kJ/mol
# Density = 1.965987 g / cm^3
# Si number density = 19.704716 Si / 1000 Ang^3
#
#
#
# Elastic Constant Matrix: (Units=GPa)
#
#
# Indices 1 2 3 4 5 6 
#
# 1 125.2300 53.8995 50.2024 0.0000 0.0000 -9.2159
# 2 53.8995 125.2300 50.2024 0.0000 0.0000 9.2159
# 3 50.2024 50.2024 96.6891 0.0000 0.0000 0.0000
# 4 0.0000 0.0000 0.0000 24.1197 0.0000 0.0000
# 5 0.0000 0.0000 0.0000 0.0000 24.1197 0.0000
# 6 -9.2159 9.2159 0.0000 0.0000 0.0000 36.4486
#
#
#
# Elastic Compliance Matrix: (Units=1/GPa)
#
#
# Indices 1 2 3 4 5 6 
#
# 1 0.011437 -0.003563 -0.004088 0.000000 0.000000 0.003792
# 2 -0.003563 0.011437 -0.004088 0.000000 0.000000 -0.003792
# 3 -0.004088 -0.004088 0.014588 0.000000 0.000000 0.000000
# 4 0.000000 0.000000 0.000000 0.041460 0.000000 0.000000
# 5 0.000000 0.000000 0.000000 0.000000 0.041460 0.000000
# 6 0.003792 -0.003792 0.000000 0.000000 0.000000 0.029354
#
#
# Mechanical properties :
#
#
# Convention : Reuss Voigt Hill
#
# Bulk Modulus (GPa) = 71.51688 72.86198 72.18943
# Shear Modulus (GPa) = 28.10972 29.79390 28.95181
#
# Velocity S-wave (km/s) = 3.78106 3.89269 3.83728
# Velocity P-wave (km/s) = 7.44547 7.56711 7.50654
#
# Compressibility (1/GPa) = 0.01398271
#
# Stress axis : x y z
#
# Youngs Moduli (GPa) = 87.43783 87.43783 68.54988
#
# Poissons Ratio (x) = 0.31150 0.28026
# Poissons Ratio (y) = 0.31150 0.28026
# Poissons Ratio (z) = 0.35748 0.35748
#
# Static dielectric constant tensor:
#      x y z
#    x 3.637610 0.000000 0.000000 
#    y 0.000000 3.637610 0.000000 
#    z 0.000000 0.000000 3.554540 
# 
# 
# High freq. dielectric constant tensor:
#      x y z
#    x 1.765710 0.000000 0.000000 
#    y 0.000000 1.765710 0.000000 
#    z 0.000000 0.000000 1.752670 
# 
# From -- ./inp_files/4167.got.cif
#   From: 2010.03.12/outbox.cif.g09.slc.cpg/sg86_3_cif.got.tgz:4167.got - 2010.04.08 20:12:58.
