data_PCOD8303419
_publ_section_title
;
Structure prediction by ZEFSAII (Michael W. Deem and Ramdas Pophale) SiO2 
 PCOD8303419
Probable space group: P 4/N
;
_chemical_formula_sum "Si O2"
_cell_formula_units_Z 32
_cell_length_a 14.154392
_cell_length_b 14.154392
_cell_length_c 7.594389
_cell_angle_alpha 90.000000
_cell_angle_beta 90.000000
_cell_angle_gamma 90.000000
_cell_volume 1521.511632
_symmetry_space_group_name_H-M "P 4/N"
_symmetry_group_IT_number 85
_symmetry_cell_setting 'tetragonal'
loop_
_space_group_symop_operation_xyz
x,y,z
1/2-y,x,z
1/2-x,1/2-y,z
y,1/2-x,z
-x,-y,-z
1/2+y,-x,-z
1/2+x,1/2+y,-z
-y,1/2+x,-z
loop_
_atom_site_type_symbol
_atom_site_label
_atom_site_fract_x
_atom_site_fract_y
_atom_site_fract_z
Si Si1 0.897026 0.979679 0.706068
Si Si2 0.447435 0.375392 0.623237
Si Si3 0.862050 0.649938 0.019951
Si Si4 0.399934 0.754303 0.517881
O O1 0.894067 0.894791 0.561642
O O2 0.806238 0.049535 0.682852
O O3 0.905699 0.937433 0.901688
O O4 0.993993 0.033538 0.679441
O O5 0.367502 0.367052 0.771255
O O6 0.517685 0.284414 0.611654
O O7 0.881163 0.757485 0.966974
O O8 0.333153 0.666404 0.580816
#
# Coordination Sequence:
#
# PCOD8303419 Si02
#       4
#     8   8   8   8
#     4  10  20  36  59  83 110 147 189 235 290 350
#     4  10  20  36  59  83 110 147 189 235 290 350
#     4  11  23  36  52  78 111 145 186 236 286 341
#     4   9  18  34  58  87 118 154 196 241 292 353
#
# _framework density 21.031717
#
# number of rings (size 3 to 8) (size 9 to 14) (size 15 to 20)
#    0.000    2.000    0.000    3.750    0.000    0.000 
#    0.000    5.000    0.000    3.000    0.000   14.000 
#    0.000    0.000    0.000    0.000    0.000    0.000 
#
# Total GULP energy -396502.040115 kJ/mol
# GULP energy per Si atom -12390.688754 kJ/mol
# Density = 2.098385 g / cm^3
# Si number density = 21.031717 Si / 1000 Ang^3
#
#
#
# Elastic Constant Matrix: (Units=GPa)
#
#
# Indices 1 2 3 4 5 6 
#
# 1 17.3634 88.0909 14.7121 0.0000 0.0000 -18.2003
# 2 88.0909 17.3634 14.7121 0.0000 0.0000 18.2003
# 3 14.7121 14.7121 66.0724 0.0000 0.0000 0.0000
# 4 0.0000 0.0000 0.0000 31.7559 0.0000 0.0000
# 5 0.0000 0.0000 0.0000 0.0000 31.7559 0.0000
# 6 -18.2003 18.2003 0.0000 0.0000 0.0000 25.4293
#
#
#
# Elastic Compliance Matrix: (Units=1/GPa)
#
#
# Indices 1 2 3 4 5 6 
#
# 1 -0.000111 0.010222 -0.002251 0.000000 0.000000 -0.007395
# 2 0.010222 -0.000111 -0.002251 0.000000 0.000000 0.007395
# 3 -0.002251 -0.002251 0.016138 0.000000 0.000000 0.000000
# 4 0.000000 0.000000 0.000000 0.031490 0.000000 0.000000
# 5 0.000000 0.000000 0.000000 0.000000 0.031490 0.000000
# 6 -0.007395 0.007395 0.000000 0.000000 0.000000 0.028739
#
#
# Mechanical properties :
#
#
# Convention : Reuss Voigt Hill
#
# Bulk Modulus (GPa) = 36.55777 37.31438 36.93607
# Shear Modulus (GPa) = 47.47674 16.67383 32.07529
#
# Velocity S-wave (km/s) = 4.75635 2.81872 3.90948
# Velocity P-wave (km/s) = 6.89810 5.32673 6.16270
#
# Compressibility (1/GPa) = 0.02735396
#
# Stress axis : x y z
#
# Youngs Moduli (GPa) = -9020.14547 -9020.14547 61.96742
#
# Poissons Ratio (x) = 92.20238 0.13951
# Poissons Ratio (y) = 92.20238 0.13951
# Poissons Ratio (z) = -20.30768 -20.30768
#
# Static dielectric constant tensor:
#      x y z
#    x 3.971720 0.000000 0.000000 
#    y 0.000000 3.971720 0.000000 
#    z 0.000000 0.000000 3.531200 
# 
# 
# High freq. dielectric constant tensor:
#      x y z
#    x 1.833780 0.000000 0.000000 
#    y 0.000000 1.833780 0.000000 
#    z 0.000000 0.000000 1.784510 
# 
# From -- ./inp_files/745.got.cif
#   From: 2010.03.12/outbox.cif.g09.slc.cpg/sg85_cif.got.tgz:745.got - 2010.04.08 20:10:46.
