data_PCOD8303708
_publ_section_title
;
Structure prediction by ZEFSAII (Michael W. Deem and Ramdas Pophale) SiO2 
 PCOD8303708
Probable space group: P 42/N
;
_chemical_formula_sum "Si O2"
_cell_formula_units_Z 48
_cell_length_a 8.482836
_cell_length_b 8.482836
_cell_length_c 29.205978
_cell_angle_alpha 90.000000
_cell_angle_beta 90.000000
_cell_angle_gamma 90.000000
_cell_volume 2101.618561
_symmetry_space_group_name_H-M "P 42/N"
_symmetry_group_IT_number 86
_space_group.IT_coordinate_system_code '2'
_symmetry_cell_setting 'tetragonal'
loop_
_space_group_symop_operation_xyz
x,y,z
-y,1/2+x,1/2+z
1/2-x,1/2-y,z
1/2+y,-x,1/2+z
-x,-y,-z
y,1/2-x,1/2-z
1/2+x,1/2+y,-z
1/2-y,x,1/2-z
loop_
_atom_site_type_symbol
_atom_site_label
_atom_site_fract_x
_atom_site_fract_y
_atom_site_fract_z
Si Si1 0.451244 0.917246 0.453064
Si Si2 0.530746 0.409803 0.859932
Si Si3 0.591741 0.514327 0.305617
Si Si4 0.164531 0.418141 0.128275
Si Si5 0.553548 0.081072 0.045984
Si Si6 0.417407 0.819486 0.291026
O O1 0.268507 0.959377 0.449464
O O2 0.478175 0.731289 0.449087
O O3 0.500000 0.000000 0.500000
O O4 0.560348 0.981055 0.412376
O O5 0.491492 0.235777 0.841794
O O6 0.716323 0.440531 0.859685
O O7 0.454527 0.542143 0.827248
O O8 0.427545 0.455046 0.328875
O O9 0.559881 0.693788 0.291712
O O10 0.618726 0.407971 0.260879
O O11 0.250000 0.250000 0.122135
O O12 0.066931 0.477879 0.084424
O O13 0.500000 0.000000 0.000000
O O14 0.250000 0.750000 0.305671
#
# Coordination Sequence:
#
# PCOD8303708 Si02
#       6
#     8   8   8   8   8   8
#     4  11  26  48  74 111 149 198 261 317 391 469
#     4  12  25  45  76 106 153 202 257 321 392 467
#     4  12  27  48  74 110 150 203 260 319 400 476
#     4  12  25  48  73 109 152 201 260 321 394 475
#     4  11  26  47  74 106 152 202 251 323 389 464
#     4  12  26  48  73 109 153 199 258 323 393 483
#
# _framework density 22.839538999999998
#
# number of rings (size 3 to 8) (size 9 to 14) (size 15 to 20)
#    0.000    0.333    3.333    5.000    4.667    0.000 
#    0.000    0.000    0.000    0.000    0.000    0.000 
#    0.000    0.000    0.000    0.000    0.000    0.000 
#
# Total GULP energy -595051.864161 kJ/mol
# GULP energy per Si atom -12396.913837 kJ/mol
# Density = 2.278755 g / cm^3
# Si number density = 22.839539 Si / 1000 Ang^3
#
#
#
# Elastic Constant Matrix: (Units=GPa)
#
#
# Indices 1 2 3 4 5 6 
#
# 1 90.9964 26.4450 46.0471 0.0000 0.0000 0.6927
# 2 26.4450 90.9964 46.0471 0.0000 0.0000 -0.6927
# 3 46.0471 46.0471 180.2287 0.0000 0.0000 0.0000
# 4 0.0000 0.0000 0.0000 42.7915 0.0000 0.0000
# 5 0.0000 0.0000 0.0000 0.0000 42.7915 0.0000
# 6 0.6927 -0.6927 0.0000 0.0000 0.0000 41.2663
#
#
#
# Elastic Compliance Matrix: (Units=1/GPa)
#
#
# Indices 1 2 3 4 5 6 
#
# 1 0.013073 -0.002424 -0.002721 0.000000 0.000000 -0.000260
# 2 -0.002424 0.013073 -0.002721 0.000000 0.000000 0.000260
# 3 -0.002721 -0.002721 0.006939 0.000000 0.000000 0.000000
# 4 0.000000 0.000000 0.000000 0.023369 0.000000 0.000000
# 5 0.000000 0.000000 0.000000 0.000000 0.023369 0.000000
# 6 -0.000260 0.000260 0.000000 0.000000 0.000000 0.024242
#
#
# Mechanical properties :
#
#
# Convention : Reuss Voigt Hill
#
# Bulk Modulus (GPa) = 57.62700 66.58892 62.10796
# Shear Modulus (GPa) = 39.81551 41.61537 40.71544
#
# Velocity S-wave (km/s) = 4.17978 4.27321 4.22675
# Velocity P-wave (km/s) = 6.96994 7.31884 7.14652
#
# Compressibility (1/GPa) = 0.01735298
#
# Stress axis : x y z
#
# Youngs Moduli (GPa) = 76.49536 76.49536 144.11987
#
# Poissons Ratio (x) = 0.18546 0.39209
# Poissons Ratio (y) = 0.18546 0.39209
# Poissons Ratio (z) = 0.20811 0.20811
#
# Static dielectric constant tensor:
#      x y z
#    x 3.961820 0.000000 0.000000 
#    y 0.000000 3.961820 0.000000 
#    z 0.000000 0.000000 4.207640 
# 
# 
# High freq. dielectric constant tensor:
#      x y z
#    x 1.912940 0.000000 0.000000 
#    y 0.000000 1.912940 0.000000 
#    z 0.000000 0.000000 1.914640 
# 
# From -- ./inp_files/5212.got.cif
#   From: 2010.03.12/outbox.cif.g09.slc.cpg/sg86_3_cif.got.tgz:5212.got - 2010.04.08 20:12:58.
