data_PCOD8303229
_publ_section_title
;
Structure prediction by ZEFSAII (Michael W. Deem and Ramdas Pophale) SiO2 
 PCOD8303229
Probable space group: P 42/M
;
_chemical_formula_sum "Si O2"
_cell_formula_units_Z 40
_cell_length_a 8.895784
_cell_length_b 8.895784
_cell_length_c 26.812534
_cell_angle_alpha 90.000000
_cell_angle_beta 90.000000
_cell_angle_gamma 90.000000
_cell_volume 2121.809153
_symmetry_space_group_name_H-M "P 42/M"
_symmetry_group_IT_number 84
_symmetry_cell_setting 'tetragonal'
loop_
_space_group_symop_operation_xyz
x,y,z
-y,x,1/2+z
-x,-y,z
y,-x,1/2+z
-x,-y,-z
y,-x,1/2-z
x,y,-z
-y,x,1/2-z
loop_
_atom_site_type_symbol
_atom_site_label
_atom_site_fract_x
_atom_site_fract_y
_atom_site_fract_z
Si Si1 0.398644 0.876443 0.606915
Si Si2 0.846588 0.307646 0.057539
Si Si3 0.803385 0.862480 0.739216
Si Si4 0.687985 0.150840 0.142742
Si Si5 0.648941 0.809050 0.164574
O O1 0.518980 0.797815 0.569215
O O2 0.318049 0.751438 0.639534
O O3 0.500000 0.000000 0.639137
O O4 0.282522 0.977680 0.573909
O O5 0.739313 0.195698 0.087829
O O6 0.824417 0.269056 0.000000
O O7 0.777870 0.799544 0.683872
O O8 0.670913 0.805174 0.775626
O O9 0.957579 0.803070 0.764091
O O10 0.524283 0.220504 0.152865
O O11 0.696425 0.971588 0.144380
#
# Coordination Sequence:
#
# PCOD8303229 Si02
#       5
#     8   8   8   8   8
#     4   8  19  36  58  78 105 140 184 232 271 329
#     4   9  19  38  58  80 107 142 191 231 278 326
#     4   9  18  33  55  79 108 147 185 222 268 327
#     4  10  21  35  56  82 117 145 179 231 276 332
#     4  10  20  37  54  85 117 144 180 225 283 331
#
# _framework density 18.851835999999999
#
# number of rings (size 3 to 8) (size 9 to 14) (size 15 to 20)
#    1.200    1.400    0.000    2.400    0.000    4.800 
#    3.600    8.000    0.000    0.000    0.000    0.000 
#    0.000    0.000    0.000    0.000    0.000    0.000 
#
# Total GULP energy -495574.470225 kJ/mol
# GULP energy per Si atom -12389.361756 kJ/mol
# Density = 1.880893 g / cm^3
# Si number density = 18.851836 Si / 1000 Ang^3
#
#
#
# Elastic Constant Matrix: (Units=GPa)
#
#
# Indices 1 2 3 4 5 6 
#
# 1 53.7176 29.2580 30.7999 0.0000 0.0000 0.5823
# 2 29.2580 53.7176 30.7999 0.0000 0.0000 -0.5823
# 3 30.7999 30.7999 99.2817 0.0000 0.0000 0.0000
# 4 0.0000 0.0000 0.0000 20.4734 0.0000 0.0000
# 5 0.0000 0.0000 0.0000 0.0000 20.4734 0.0000
# 6 0.5823 -0.5823 0.0000 0.0000 0.0000 33.3834
#
#
#
# Elastic Compliance Matrix: (Units=1/GPa)
#
#
# Indices 1 2 3 4 5 6 
#
# 1 0.028288 -0.012630 -0.004858 0.000000 0.000000 -0.000714
# 2 -0.012630 0.028288 -0.004858 0.000000 0.000000 0.000714
# 3 -0.004858 -0.004858 0.013086 0.000000 0.000000 0.000000
# 4 0.000000 0.000000 0.000000 0.048844 0.000000 0.000000
# 5 0.000000 0.000000 0.000000 0.000000 0.048844 0.000000
# 6 -0.000714 0.000714 0.000000 0.000000 0.000000 0.029980
#
#
# Mechanical properties :
#
#
# Convention : Reuss Voigt Hill
#
# Bulk Modulus (GPa) = 40.04492 43.15916 41.60204
# Shear Modulus (GPa) = 19.97260 22.59000 21.28130
#
# Velocity S-wave (km/s) = 3.25845 3.46539 3.36351
# Velocity P-wave (km/s) = 5.95355 6.24143 6.09919
#
# Compressibility (1/GPa) = 0.02497196
#
# Stress axis : x y z
#
# Youngs Moduli (GPa) = 35.35096 35.35096 76.41632
#
# Poissons Ratio (x) = 0.44648 0.37119
# Poissons Ratio (y) = 0.44648 0.37119
# Poissons Ratio (z) = 0.17172 0.17172
#
# Static dielectric constant tensor:
#      x y z
#    x 3.333880 0.000000 0.000000 
#    y 0.000000 3.333880 0.000000 
#    z 0.000000 0.000000 3.148010 
# 
# 
# High freq. dielectric constant tensor:
#      x y z
#    x 1.721540 0.000000 0.000000 
#    y 0.000000 1.721540 0.000000 
#    z 0.000000 0.000000 1.714020 
# 
# From -- ./inp_files/5351.got.cif
#   From: 2010.03.12/outbox.cif.g09.slc.cpg/sg84_3_cif.got.tgz:5351.got - 2010.04.08 20:07:29.
