data_PCOD8303348
_publ_section_title
;
Structure prediction by ZEFSAII (Michael W. Deem and Ramdas Pophale) SiO2 
 PCOD8303348
Probable space group: P 42/M
;
_chemical_formula_sum "Si O2"
_cell_formula_units_Z 40
_cell_length_a 10.991825
_cell_length_b 10.991825
_cell_length_c 15.475094
_cell_angle_alpha 90.000000
_cell_angle_beta 90.000000
_cell_angle_gamma 90.000000
_cell_volume 1869.704213
_symmetry_space_group_name_H-M "P 42/M"
_symmetry_group_IT_number 84
_symmetry_cell_setting 'tetragonal'
loop_
_space_group_symop_operation_xyz
x,y,z
-y,x,1/2+z
-x,-y,z
y,-x,1/2+z
-x,-y,-z
y,-x,1/2-z
x,y,-z
-y,x,1/2-z
loop_
_atom_site_type_symbol
_atom_site_label
_atom_site_fract_x
_atom_site_fract_y
_atom_site_fract_z
Si Si1 0.390176 0.781548 0.177737
Si Si2 0.994488 0.355863 0.899719
Si Si3 0.711173 0.527726 0.500000
Si Si4 0.813472 0.071903 0.257616
Si Si5 0.232539 0.563785 0.831871
Si Si6 0.463823 0.680993 0.500000
O O1 0.447236 0.795763 0.082659
O O2 0.275540 0.872336 0.184932
O O3 0.492612 0.814259 0.247980
O O4 0.354869 0.638373 0.191189
O O5 0.857902 0.329010 0.865276
O O6 0.000000 0.500000 0.876580
O O7 0.080468 0.263599 0.847086
O O8 0.014602 0.328129 0.000000
O O9 0.589502 0.607831 0.500000
O O10 0.662793 0.390216 0.500000
O O11 0.934831 0.151982 0.270065
O O12 0.240867 0.465327 0.911383
#
# Coordination Sequence:
#
# PCOD8303348 Si02
#       6
#     8   8   4   8   8   4
#     4  11  22  37  61  92 127 171 206 254 317 385
#     4  11  22  40  67  96 120 157 215 270 318 362
#     4   9  20  36  56  88 136 169 199 243 311 393
#     4  11  24  43  63  90 125 165 217 267 314 366
#     4  11  20  35  63  93 128 161 207 262 320 378
#     4   9  18  34  57  94 130 160 202 258 307 379
#
# _framework density 21.393758999999999
#
# number of rings (size 3 to 8) (size 9 to 14) (size 15 to 20)
#    0.000    1.400    5.000    1.200    0.000    2.000 
#    1.800    1.000    0.000    2.400    0.000    0.000 
#    0.000    0.000    0.000    0.000    0.000    0.000 
#
# Total GULP energy -495699.252123 kJ/mol
# GULP energy per Si atom -12392.481303 kJ/mol
# Density = 2.134507 g / cm^3
# Si number density = 21.393759 Si / 1000 Ang^3
#
#
#
# Elastic Constant Matrix: (Units=GPa)
#
#
# Indices 1 2 3 4 5 6 
#
# 1 74.3814 33.0556 56.5411 0.0000 0.0000 -7.9299
# 2 33.0556 74.3814 56.5411 0.0000 0.0000 7.9299
# 3 56.5411 56.5411 181.2295 0.0000 0.0000 0.0000
# 4 0.0000 0.0000 0.0000 29.1379 0.0000 0.0000
# 5 0.0000 0.0000 0.0000 0.0000 29.1379 0.0000
# 6 -7.9299 7.9299 0.0000 0.0000 0.0000 33.4357
#
#
#
# Elastic Compliance Matrix: (Units=1/GPa)
#
#
# Indices 1 2 3 4 5 6 
#
# 1 0.020240 -0.006381 -0.004324 0.000000 0.000000 0.006314
# 2 -0.006381 0.020240 -0.004324 0.000000 0.000000 -0.006314
# 3 -0.004324 -0.004324 0.008216 0.000000 0.000000 0.000000
# 4 0.000000 0.000000 0.000000 0.034320 0.000000 0.000000
# 5 0.000000 0.000000 0.000000 0.000000 0.034320 0.000000
# 6 0.006314 -0.006314 0.000000 0.000000 0.000000 0.032903
#
#
# Mechanical properties :
#
#
# Convention : Reuss Voigt Hill
#
# Bulk Modulus (GPa) = 53.65312 69.14088 61.39700
# Shear Modulus (GPa) = 26.80859 30.59927 28.70393
#
# Velocity S-wave (km/s) = 3.54376 3.78602 3.66689
# Velocity P-wave (km/s) = 6.47129 7.17637 6.83293
#
# Compressibility (1/GPa) = 0.01863824
#
# Stress axis : x y z
#
# Youngs Moduli (GPa) = 49.40752 49.40752 121.71750
#
# Poissons Ratio (x) = 0.31528 0.52627
# Poissons Ratio (y) = 0.31528 0.52627
# Poissons Ratio (z) = 0.21362 0.21362
#
# Static dielectric constant tensor:
#      x y z
#    x 3.952760 0.000000 0.000000 
#    y 0.000000 3.952760 0.000000 
#    z 0.000000 0.000000 3.839070 
# 
# 
# High freq. dielectric constant tensor:
#      x y z
#    x 1.832020 0.000000 0.000000 
#    y 0.000000 1.832020 0.000000 
#    z 0.000000 0.000000 1.836870 
# 
# From -- ./inp_files/2971.got.cif
#   From: 2010.03.12/outbox.cif.g09.slc.cpg/sg84_2_cif.got.tgz:2971.got - 2010.04.08 20:07:29.
