data_PCOD8303327
_publ_section_title
;
Structure prediction by ZEFSAII (Michael W. Deem and Ramdas Pophale) SiO2 
 PCOD8303327
Probable space group: P 42/M
;
_chemical_formula_sum "Si O2"
_cell_formula_units_Z 40
_cell_length_a 9.003748
_cell_length_b 9.003748
_cell_length_c 23.325961
_cell_angle_alpha 90.000000
_cell_angle_beta 90.000000
_cell_angle_gamma 90.000000
_cell_volume 1890.976831
_symmetry_space_group_name_H-M "P 42/M"
_symmetry_group_IT_number 84
_symmetry_cell_setting 'tetragonal'
loop_
_space_group_symop_operation_xyz
x,y,z
-y,x,1/2+z
-x,-y,z
y,-x,1/2+z
-x,-y,-z
y,-x,1/2-z
x,y,-z
-y,x,1/2-z
loop_
_atom_site_type_symbol
_atom_site_label
_atom_site_fract_x
_atom_site_fract_y
_atom_site_fract_z
Si Si1 0.197972 0.205810 0.388353
Si Si2 0.985539 0.675033 0.706049
Si Si3 0.120179 0.374728 0.500000
Si Si4 0.163540 0.471727 0.908728
Si Si5 0.776435 0.096562 0.671317
Si Si6 0.371815 0.614205 0.500000
O O1 0.158740 0.305616 0.333382
O O2 0.112624 0.264062 0.445093
O O3 0.370626 0.238726 0.398116
O O4 0.163828 0.031765 0.372756
O O5 0.972578 0.760453 0.765900
O O6 0.000000 0.500000 0.715633
O O7 0.117957 0.758786 0.671547
O O8 0.248890 0.492002 0.500000
O O9 0.000000 0.500000 0.500000
O O10 0.146073 0.386835 0.848585
O O11 0.000000 0.500000 0.937174
O O12 0.272841 0.371487 0.946547
O O13 0.500000 0.500000 0.500000
#
# Coordination Sequence:
#
# PCOD8303327 Si02
#       6
#     8   8   4   8   8   4
#     4  11  23  45  72  99 140 180 230 288 339 428
#     4  12  25  44  69 100 142 183 231 297 351 409
#     4  12  28  46  67 111 149 184 232 287 359 420
#     4  10  23  43  70 101 133 178 238 282 342 422
#     4  11  25  44  72 101 133 185 238 284 357 417
#     4  12  23  44  73  95 141 189 221 292 355 409
#
# _framework density 21.153089999999999
#
# number of rings (size 3 to 8) (size 9 to 14) (size 15 to 20)
#    0.000    0.800    4.000    3.300    5.600    2.400 
#    0.000    2.000    0.000    0.000    0.000    0.000 
#    0.000    0.000    0.000    0.000    0.000    0.000 
#
# Total GULP energy -495534.844314 kJ/mol
# GULP energy per Si atom -12388.371108 kJ/mol
# Density = 2.110495 g / cm^3
# Si number density = 21.153090 Si / 1000 Ang^3
#
#
#
# Elastic Constant Matrix: (Units=GPa)
#
#
# Indices 1 2 3 4 5 6 
#
# 1 105.0472 42.5072 43.6855 0.0000 0.0000 -10.7378
# 2 42.5072 105.0472 43.6855 0.0000 0.0000 10.7378
# 3 43.6855 43.6855 132.2900 0.0000 0.0000 0.0000
# 4 0.0000 0.0000 0.0000 32.0781 0.0000 0.0000
# 5 0.0000 0.0000 0.0000 0.0000 32.0781 0.0000
# 6 -10.7378 10.7378 0.0000 0.0000 0.0000 44.3324
#
#
#
# Elastic Compliance Matrix: (Units=1/GPa)
#
#
# Indices 1 2 3 4 5 6 
#
# 1 0.012932 -0.004508 -0.002782 0.000000 0.000000 0.004224
# 2 -0.004508 0.012932 -0.002782 0.000000 0.000000 -0.004224
# 3 -0.002782 -0.002782 0.009396 0.000000 0.000000 0.000000
# 4 0.000000 0.000000 0.000000 0.031174 0.000000 0.000000
# 5 0.000000 0.000000 0.000000 0.000000 0.031174 0.000000
# 6 0.004224 -0.004224 0.000000 0.000000 0.000000 0.024603
#
#
# Mechanical properties :
#
#
# Convention : Reuss Voigt Hill
#
# Bulk Modulus (GPa) = 66.14836 66.90450 66.52643
# Shear Modulus (GPa) = 33.92243 35.86483 34.89363
#
# Velocity S-wave (km/s) = 4.00892 4.12210 4.06590
# Velocity P-wave (km/s) = 7.26414 7.37245 7.31849
#
# Compressibility (1/GPa) = 0.01511753
#
# Stress axis : x y z
#
# Youngs Moduli (GPa) = 77.32526 77.32526 106.42271
#
# Poissons Ratio (x) = 0.34858 0.29606
# Poissons Ratio (y) = 0.34858 0.29606
# Poissons Ratio (z) = 0.21512 0.21512
#
# Static dielectric constant tensor:
#      x y z
#    x 3.915570 0.000000 0.000000 
#    y 0.000000 3.915570 0.000000 
#    z 0.000000 0.000000 3.910000 
# 
# 
# High freq. dielectric constant tensor:
#      x y z
#    x 1.835120 0.000000 0.000000 
#    y 0.000000 1.835120 0.000000 
#    z 0.000000 0.000000 1.830390 
# 
# From -- ./inp_files/4911.got.cif
#   From: 2010.03.12/outbox.cif.g09.slc.cpg/sg84_3_cif.got.tgz:4911.got - 2010.04.08 20:07:29.
