data_PCOD8303857
_publ_section_title
;
Structure prediction by ZEFSAII (Michael W. Deem and Ramdas Pophale) SiO2 
 PCOD8303857
Probable space group: I 4/M
;
_chemical_formula_sum "Si O2"
_cell_formula_units_Z 96
_cell_length_a 18.281939
_cell_length_b 18.281939
_cell_length_c 16.252041
_cell_angle_alpha 90.000000
_cell_angle_beta 90.000000
_cell_angle_gamma 90.000000
_cell_volume 5431.908183
_symmetry_space_group_name_H-M "I 4/M"
_symmetry_group_IT_number 87
_symmetry_cell_setting 'tetragonal'
loop_
_space_group_symop_operation_xyz
x,y,z
-y,x,z
-x,-y,z
y,-x,z
-x,-y,-z
y,-x,-z
x,y,-z
-y,x,-z
1/2+x,1/2+y,1/2+z
1/2-y,1/2+x,1/2+z
1/2-x,1/2-y,1/2+z
1/2+y,1/2-x,1/2+z
1/2-x,1/2-y,1/2-z
1/2+y,1/2-x,1/2-z
1/2+x,1/2+y,1/2-z
1/2-y,1/2+x,1/2-z
loop_
_atom_site_type_symbol
_atom_site_label
_atom_site_fract_x
_atom_site_fract_y
_atom_site_fract_z
Si Si1 0.579666 0.410198 0.743407
Si Si2 0.330397 0.848327 0.093130
Si Si3 0.330424 0.800126 0.667603
Si Si4 0.797003 0.829948 0.670400
Si Si5 0.584915 0.083515 0.758268
Si Si6 0.657905 0.659284 0.591956
O O1 0.602302 0.493878 0.752129
O O2 0.614547 0.364404 0.818951
O O3 0.607205 0.385199 0.653932
O O4 0.353859 0.762614 0.101691
O O5 0.375467 0.899459 0.155399
O O6 0.244430 0.856294 0.114949
O O7 0.347057 0.873620 0.000000
O O8 0.249411 0.831280 0.649045
O O9 0.326982 0.747229 0.745429
O O10 0.384922 0.867242 0.683147
O O11 0.356805 0.745801 0.594782
O O12 0.499409 0.099931 0.767999
O O13 0.630197 0.641920 0.500000
#
# Coordination Sequence:
#
# PCOD8303857 Si02
#       6
#    16  16  16  16  16  16
#     4  10  20  31  45  70 102 134 166 200 241 293
#     4   9  18  34  55  76  98 126 164 210 254 293
#     4   8  15  29  48  68  89 120 162 204 240 285
#     4   8  15  29  50  70  90 119 161 205 241 284
#     4  10  20  33  48  71 103 136 167 199 241 293
#     4   9  18  32  49  71  98 127 162 207 254 294
#
# _framework density 17.673347
#
# number of rings (size 3 to 8) (size 9 to 14) (size 15 to 20)
#    0.000    3.000    0.000    3.000    0.000    8.667 
#    0.000    5.833    0.000    5.000    0.000    1.167 
#    0.000    0.000    0.000    0.000    0.000    0.000 
#
# Total GULP energy -594831.722199 kJ/mol
# GULP energy per Si atom -12392.327546 kJ/mol
# Density = 1.763312 g / cm^3
# Si number density = 17.673347 Si / 1000 Ang^3
#
#
#
# Elastic Constant Matrix: (Units=GPa)
#
#
# Indices 1 2 3 4 5 6 
#
# 1 60.8927 40.3441 -1.7816 0.0000 0.0000 0.3234
# 2 40.3441 60.8927 -1.7816 0.0000 0.0000 -0.3234
# 3 -1.7816 -1.7816 30.8868 0.0000 0.0000 0.0000
# 4 0.0000 0.0000 0.0000 17.7863 0.0000 0.0000
# 5 0.0000 0.0000 0.0000 0.0000 17.7863 0.0000
# 6 0.3234 -0.3234 0.0000 0.0000 0.0000 32.5433
#
#
#
# Elastic Compliance Matrix: (Units=1/GPa)
#
#
# Indices 1 2 3 4 5 6 
#
# 1 0.029289 -0.019391 0.000571 0.000000 0.000000 -0.000484
# 2 -0.019391 0.029289 0.000571 0.000000 0.000000 0.000484
# 3 0.000571 0.000571 0.032442 0.000000 0.000000 0.000000
# 4 0.000000 0.000000 0.000000 0.056223 0.000000 0.000000
# 5 0.000000 0.000000 0.000000 0.000000 0.056223 0.000000
# 6 -0.000484 0.000484 0.000000 0.000000 0.000000 0.030738
#
#
# Mechanical properties :
#
#
# Convention : Reuss Voigt Hill
#
# Bulk Modulus (GPa) = 18.34129 25.13709 21.73919
# Shear Modulus (GPa) = 17.30841 21.34926 19.32883
#
# Velocity S-wave (km/s) = 3.13285 3.47939 3.31066
# Velocity P-wave (km/s) = 4.84632 5.51322 5.19049
#
# Compressibility (1/GPa) = 0.05452180
#
# Stress axis : x y z
#
# Youngs Moduli (GPa) = 34.14242 34.14242 30.82408
#
# Poissons Ratio (x) = 0.66206 -0.01760
# Poissons Ratio (y) = 0.66206 -0.01760
# Poissons Ratio (z) = -0.01949 -0.01949
#
# Static dielectric constant tensor:
#      x y z
#    x 3.292290 0.000000 0.000000 
#    y 0.000000 3.292290 0.000000 
#    z 0.000000 0.000000 3.332800 
# 
# 
# High freq. dielectric constant tensor:
#      x y z
#    x 1.676940 0.000000 0.000000 
#    y 0.000000 1.676940 0.000000 
#    z 0.000000 0.000000 1.658560 
# 
# From -- ./inp_files/4409.got.cif
#   From: 2010.03.12/outbox.cif.g09.slc.cpg/sg87_3_cif.got.tgz:4409.got - 2010.04.08 20:16:13.
