data_PCOD8303748
_publ_section_title
;
Structure prediction by ZEFSAII (Michael W. Deem and Ramdas Pophale) SiO2 
 PCOD8303748
Probable space group: I 4/M
;
_chemical_formula_sum "Si O2"
_cell_formula_units_Z 48
_cell_length_a 17.696645
_cell_length_b 17.696645
_cell_length_c 8.354240
_cell_angle_alpha 90.000000
_cell_angle_beta 90.000000
_cell_angle_gamma 90.000000
_cell_volume 2616.307736
_symmetry_space_group_name_H-M "I 4/M"
_symmetry_group_IT_number 87
_symmetry_cell_setting 'tetragonal'
loop_
_space_group_symop_operation_xyz
x,y,z
-y,x,z
-x,-y,z
y,-x,z
-x,-y,-z
y,-x,-z
x,y,-z
-y,x,-z
1/2+x,1/2+y,1/2+z
1/2-y,1/2+x,1/2+z
1/2-x,1/2-y,1/2+z
1/2+y,1/2-x,1/2+z
1/2-x,1/2-y,1/2-z
1/2+y,1/2-x,1/2-z
1/2+x,1/2+y,1/2-z
1/2-y,1/2+x,1/2-z
loop_
_atom_site_type_symbol
_atom_site_label
_atom_site_fract_x
_atom_site_fract_y
_atom_site_fract_z
Si Si1 0.201291 0.924179 0.814730
Si Si2 0.303838 0.413238 0.814839
Si Si3 0.690194 0.189471 0.689485
O O1 0.133704 0.865425 0.785027
O O2 0.282996 0.890826 0.760940
O O3 0.183911 0.998527 0.712757
O O4 0.204561 0.945733 0.000000
O O5 0.218746 0.390420 0.756815
O O6 0.314543 0.393068 0.000000
O O7 0.687766 0.184202 0.500000
O O8 0.750000 0.250000 0.750000
#
# Coordination Sequence:
#
# PCOD8303748 Si02
#       3
#    16  16  16
#     4  11  21  35  53  77 105 137 172 212 256 305
#     4  11  21  35  53  77 105 137 172 212 256 305
#     4  10  18  32  52  75 100 133 172 212 251 298
#
# _framework density 18.346465999999999
#
# number of rings (size 3 to 8) (size 9 to 14) (size 15 to 20)
#    0.000    1.333    0.000   13.000    0.000    0.667 
#    0.000    3.333    0.000    1.000    0.000    7.000 
#    0.000    0.000    0.000    0.000    0.000    0.000 
#
# Total GULP energy -297574.149779 kJ/mol
# GULP energy per Si atom -12398.922907 kJ/mol
# Density = 1.830471 g / cm^3
# Si number density = 18.346466 Si / 1000 Ang^3
#
#
#
# Elastic Constant Matrix: (Units=GPa)
#
#
# Indices 1 2 3 4 5 6 
#
# 1 59.5347 52.9193 6.8436 0.0000 0.0000 1.0825
# 2 52.9193 59.5347 6.8436 0.0000 0.0000 -1.0825
# 3 6.8436 6.8436 108.9065 0.0000 0.0000 0.0000
# 4 0.0000 0.0000 0.0000 29.9157 0.0000 0.0000
# 5 0.0000 0.0000 0.0000 0.0000 29.9157 0.0000
# 6 1.0825 -1.0825 0.0000 0.0000 0.0000 18.6718
#
#
#
# Elastic Compliance Matrix: (Units=1/GPa)
#
#
# Indices 1 2 3 4 5 6 
#
# 1 0.081524 -0.072563 -0.000563 0.000000 0.000000 -0.008933
# 2 -0.072563 0.081524 -0.000563 0.000000 0.000000 0.008933
# 3 -0.000563 -0.000563 0.009253 0.000000 0.000000 0.000000
# 4 0.000000 0.000000 0.000000 0.033427 0.000000 0.000000
# 5 0.000000 0.000000 0.000000 0.000000 0.033427 0.000000
# 6 -0.008933 0.008933 0.000000 0.000000 0.000000 0.054592
#
#
# Mechanical properties :
#
#
# Convention : Reuss Voigt Hill
#
# Bulk Modulus (GPa) = 40.12413 40.13210 40.12812
# Shear Modulus (GPa) = 11.12515 26.45861 18.79188
#
# Velocity S-wave (km/s) = 2.46517 3.80170 3.20391
# Velocity P-wave (km/s) = 5.47909 6.41815 5.96712
#
# Compressibility (1/GPa) = 0.02492266
#
# Stress axis : x y z
#
# Youngs Moduli (GPa) = 12.26638 12.26638 108.07354
#
# Poissons Ratio (x) = 0.89008 0.06086
# Poissons Ratio (y) = 0.89008 0.06086
# Poissons Ratio (z) = 0.00691 0.00691
#
# Static dielectric constant tensor:
#      x y z
#    x 3.617940 0.000000 0.000000 
#    y 0.000000 3.617940 0.000000 
#    z 0.000000 0.000000 3.476950 
# 
# 
# High freq. dielectric constant tensor:
#      x y z
#    x 1.692570 0.000000 0.000000 
#    y 0.000000 1.692570 0.000000 
#    z 0.000000 0.000000 1.736870 
# 
# From -- ./inp_files/557.got.cif
#   From: 2010.03.12/outbox.cif.g09.slc.cpg/sg87_1_cif.got.tgz:557.got - 2010.04.08 20:16:13.
