data_PCOD8303963
_publ_section_title
;
Structure prediction by ZEFSAII (Michael W. Deem and Ramdas Pophale) SiO2 
 PCOD8303963
Probable space group: I 4/M
;
_chemical_formula_sum "Si O2"
_cell_formula_units_Z 112
_cell_length_a 14.376462
_cell_length_b 14.376462
_cell_length_c 27.580614
_cell_angle_alpha 90.000000
_cell_angle_beta 90.000000
_cell_angle_gamma 90.000000
_cell_volume 5700.434656
_symmetry_space_group_name_H-M "I 4/M"
_symmetry_group_IT_number 87
_symmetry_cell_setting 'tetragonal'
loop_
_space_group_symop_operation_xyz
x,y,z
-y,x,z
-x,-y,z
y,-x,z
-x,-y,-z
y,-x,-z
x,y,-z
-y,x,-z
1/2+x,1/2+y,1/2+z
1/2-y,1/2+x,1/2+z
1/2-x,1/2-y,1/2+z
1/2+y,1/2-x,1/2+z
1/2-x,1/2-y,1/2-z
1/2+y,1/2-x,1/2-z
1/2+x,1/2+y,1/2-z
1/2-y,1/2+x,1/2-z
loop_
_atom_site_type_symbol
_atom_site_label
_atom_site_fract_x
_atom_site_fract_y
_atom_site_fract_z
Si Si1 0.026182 0.851868 0.775573
Si Si2 0.717451 0.519946 0.379350
Si Si3 0.139868 0.033864 0.442182
Si Si4 0.612887 0.174660 0.054078
Si Si5 0.845063 0.823910 0.055858
Si Si6 0.088520 0.558818 0.641401
Si Si7 0.462585 0.857661 0.234510
O O1 0.107342 0.924891 0.759411
O O2 0.033963 0.850691 0.834124
O O3 0.043102 0.749080 0.753035
O O4 0.724913 0.610960 0.413654
O O5 0.677887 0.442383 0.415859
O O6 0.816089 0.498232 0.353613
O O7 0.140901 0.038891 0.500000
O O8 0.240104 0.058080 0.421727
O O9 0.066942 0.110518 0.422992
O O10 0.721589 0.199226 0.055793
O O11 0.584069 0.087288 0.085572
O O12 0.579608 0.151853 0.000000
O O13 0.858191 0.858287 0.000000
O O14 0.082321 0.643119 0.680171
O O15 0.000000 0.500000 0.655377
O O16 0.569498 0.896451 0.235483
#
# Coordination Sequence:
#
# PCOD8303963 Si02
#       7
#    16  16  16  16  16  16  16
#     4  11  23  40  63  95 129 161 201 264 324 385
#     4  11  20  37  59  84 121 161 200 249 307 362
#     4   8  14  28  51  75 102 145 196 241 288 344
#     4   9  20  36  54  83 123 158 198 250 302 363
#     4  10  21  35  55  85 122 162 205 246 295 364
#     4  11  22  39  61  87 116 154 208 254 302 374
#     4  11  21  42  67  90 119 162 214 265 319 380
#
# _framework density 19.647625000000001
#
# number of rings (size 3 to 8) (size 9 to 14) (size 15 to 20)
#    0.000    1.857    4.286    0.857    0.000    2.857 
#    0.000    5.000    0.000    1.714    0.000    0.000 
#    0.000    0.000    0.000    0.000    0.000    0.000 
#
# Total GULP energy -693750.152760 kJ/mol
# GULP energy per Si atom -12388.395585 kJ/mol
# Density = 1.960291 g / cm^3
# Si number density = 19.647625 Si / 1000 Ang^3
#
#
#
# Elastic Constant Matrix: (Units=GPa)
#
#
# Indices 1 2 3 4 5 6 
#
# 1 56.5137 17.6140 35.2157 0.0000 0.0000 6.5342
# 2 17.6140 56.5137 35.2157 0.0000 0.0000 -6.5342
# 3 35.2157 35.2157 96.5548 0.0000 0.0000 0.0000
# 4 0.0000 0.0000 0.0000 25.5662 0.0000 0.0000
# 5 0.0000 0.0000 0.0000 0.0000 25.5662 0.0000
# 6 6.5342 -6.5342 0.0000 0.0000 0.0000 24.7405
#
#
#
# Elastic Compliance Matrix: (Units=1/GPa)
#
#
# Indices 1 2 3 4 5 6 
#
# 1 0.024427 -0.003783 -0.007529 0.000000 0.000000 -0.007451
# 2 -0.003783 0.024427 -0.007529 0.000000 0.000000 0.007451
# 3 -0.007529 -0.007529 0.015849 0.000000 0.000000 0.000000
# 4 0.000000 0.000000 0.000000 0.039114 0.000000 0.000000
# 5 0.000000 0.000000 0.000000 0.000000 0.039114 0.000000
# 6 -0.007451 0.007451 0.000000 0.000000 0.000000 0.044355
#
#
# Mechanical properties :
#
#
# Convention : Reuss Voigt Hill
#
# Bulk Modulus (GPa) = 37.00982 42.85256 39.93119
# Shear Modulus (GPa) = 21.36963 23.27704 22.32334
#
# Velocity S-wave (km/s) = 3.30152 3.44572 3.37439
# Velocity P-wave (km/s) = 5.78023 6.13910 5.96237
#
# Compressibility (1/GPa) = 0.02701986
#
# Stress axis : x y z
#
# Youngs Moduli (GPa) = 40.93805 40.93805 63.09518
#
# Poissons Ratio (x) = 0.15487 0.47507
# Poissons Ratio (y) = 0.15487 0.47507
# Poissons Ratio (z) = 0.30824 0.30824
#
# Static dielectric constant tensor:
#      x y z
#    x 3.603490 0.000000 0.000000 
#    y 0.000000 3.603490 0.000000 
#    z 0.000000 0.000000 3.552730 
# 
# 
# High freq. dielectric constant tensor:
#      x y z
#    x 1.757980 0.000000 0.000000 
#    y 0.000000 1.757980 0.000000 
#    z 0.000000 0.000000 1.762160 
# 
# From -- ./inp_files/5904.got.cif
#   From: 2010.03.12/outbox.cif.g09.slc.cpg/sg87_3_cif.got.tgz:5904.got - 2010.04.08 20:16:13.
