data_PCOD8303721
_publ_section_title
;
Structure prediction by ZEFSAII (Michael W. Deem and Ramdas Pophale) SiO2 
 PCOD8303721
Probable space group: P 42/N
;
_chemical_formula_sum "Si O2"
_cell_formula_units_Z 14
_cell_length_a 5.143202
_cell_length_b 5.143202
_cell_length_c 20.926817
_cell_angle_alpha 90.000000
_cell_angle_beta 90.000000
_cell_angle_gamma 90.000000
_cell_volume 553.567188
_symmetry_space_group_name_H-M "P 42/N"
_symmetry_group_IT_number 86
_space_group.IT_coordinate_system_code '2'
_symmetry_cell_setting 'tetragonal'
loop_
_space_group_symop_operation_xyz
x,y,z
-y,1/2+x,1/2+z
1/2-x,1/2-y,z
1/2+y,-x,1/2+z
-x,-y,-z
y,1/2-x,1/2-z
1/2+x,1/2+y,-z
1/2-y,x,1/2-z
loop_
_atom_site_type_symbol
_atom_site_label
_atom_site_fract_x
_atom_site_fract_y
_atom_site_fract_z
Si Si1 0.250000 0.750000 0.667135
Si Si2 0.417712 0.998125 0.926861
Si Si3 0.750000 0.750000 0.250000
O O1 0.489539 0.668549 0.619871
O O2 0.165986 0.502521 0.709394
O O3 0.250000 0.250000 0.911085
O O4 0.250000 0.750000 0.909129
O O5 0.500000 0.000000 0.000000
#
# Coordination Sequence:
#
# PCOD8303721 Si02
#       3
#     4   8   2
#     4  12  30  56  80 120 164 222 282 336 416 498
#     4  12  27  48  83 123 163 207 269 348 423 489
#     4  12  32  52  80 112 168 228 276 334 400 508
#
# _framework density 25.290517999999999
#
# number of rings (size 3 to 8) (size 9 to 14) (size 15 to 20)
#    0.000    0.000    5.714    1.714    4.000    5.714 
#    0.000    0.000    0.000    0.000    0.000    0.000 
#    0.000    0.000    0.000    0.000    0.000    0.000 
#
# Total GULP energy -173599.265295 kJ/mol
# GULP energy per Si atom -12399.947521 kJ/mol
# Density = 2.523296 g / cm^3
# Si number density = 25.290518 Si / 1000 Ang^3
#
#
#
# Elastic Constant Matrix: (Units=GPa)
#
#
# Indices 1 2 3 4 5 6 
#
# 1 196.7376 85.7614 81.2750 0.0000 0.0000 -4.1431
# 2 85.7614 196.7376 81.2750 0.0000 0.0000 4.1431
# 3 81.2750 81.2750 196.6619 0.0000 0.0000 0.0000
# 4 0.0000 0.0000 0.0000 48.0846 0.0000 0.0000
# 5 0.0000 0.0000 0.0000 0.0000 48.0846 0.0000
# 6 -4.1431 4.1431 0.0000 0.0000 0.0000 52.2641
#
#
#
# Elastic Compliance Matrix: (Units=1/GPa)
#
#
# Indices 1 2 3 4 5 6 
#
# 1 0.006854 -0.002210 -0.001919 0.000000 0.000000 0.000719
# 2 -0.002210 0.006854 -0.001919 0.000000 0.000000 -0.000719
# 3 -0.001919 -0.001919 0.006671 0.000000 0.000000 0.000000
# 4 0.000000 0.000000 0.000000 0.020797 0.000000 0.000000
# 5 0.000000 0.000000 0.000000 0.000000 0.020797 0.000000
# 6 0.000719 -0.000719 0.000000 0.000000 0.000000 0.019248
#
#
# Mechanical properties :
#
#
# Convention : Reuss Voigt Hill
#
# Bulk Modulus (GPa) = 120.73790 120.75109 120.74449
# Shear Modulus (GPa) = 52.04024 52.47503 52.25764
#
# Velocity S-wave (km/s) = 4.54111 4.56004 4.55058
# Velocity P-wave (km/s) = 8.67984 8.69336 8.68660
#
# Compressibility (1/GPa) = 0.00828240
#
# Stress axis : x y z
#
# Youngs Moduli (GPa) = 145.89157 145.89157 149.89625
#
# Poissons Ratio (x) = 0.32245 0.28770
# Poissons Ratio (y) = 0.32245 0.28770
# Poissons Ratio (z) = 0.28001 0.28001
#
# Static dielectric constant tensor:
#      x y z
#    x 4.587010 0.000000 0.000000 
#    y 0.000000 4.587010 0.000000 
#    z 0.000000 0.000000 5.539900 
# 
# 
# High freq. dielectric constant tensor:
#      x y z
#    x 2.012970 0.000000 0.000000 
#    y 0.000000 2.012970 0.000000 
#    z 0.000000 0.000000 2.035250 
# 
# From -- ./inp_files/3117.got.cif
#   From: 2010.03.12/outbox.cif.g09.slc.cpg/sg86_2_cif.got.tgz:3117.got - 2010.04.08 20:12:58.
