data_PCOD8303553
_publ_section_title
;
Structure prediction by ZEFSAII (Michael W. Deem and Ramdas Pophale) SiO2 
 PCOD8303553
Probable space group: P 42/N
;
_chemical_formula_sum "Si O2"
_cell_formula_units_Z 48
_cell_length_a 11.797430
_cell_length_b 11.797430
_cell_length_c 17.109906
_cell_angle_alpha 90.000000
_cell_angle_beta 90.000000
_cell_angle_gamma 90.000000
_cell_volume 2381.345674
_symmetry_space_group_name_H-M "P 42/N"
_symmetry_group_IT_number 86
_space_group.IT_coordinate_system_code '2'
_symmetry_cell_setting 'tetragonal'
loop_
_space_group_symop_operation_xyz
x,y,z
-y,1/2+x,1/2+z
1/2-x,1/2-y,z
1/2+y,-x,1/2+z
-x,-y,-z
y,1/2-x,1/2-z
1/2+x,1/2+y,-z
1/2-y,x,1/2-z
loop_
_atom_site_type_symbol
_atom_site_label
_atom_site_fract_x
_atom_site_fract_y
_atom_site_fract_z
Si Si1 0.418231 0.420967 0.546024
Si Si2 0.871933 0.782184 0.929416
Si Si3 0.107577 0.661836 0.632529
Si Si4 0.358850 0.594596 0.676038
Si Si5 0.518720 0.427837 0.162656
Si Si6 0.495062 0.822842 0.476223
O O1 0.500000 0.500000 0.500000
O O2 0.307561 0.409250 0.493494
O O3 0.388506 0.480718 0.628135
O O4 0.482628 0.302128 0.559195
O O5 0.750000 0.750000 0.891922
O O6 0.965645 0.803713 0.860864
O O7 0.864283 0.899021 0.974709
O O8 0.225822 0.620995 0.668612
O O9 0.075010 0.793016 0.648980
O O10 0.109678 0.661510 0.537224
O O11 0.013451 0.585735 0.675530
O O12 0.397770 0.575965 0.764375
O O13 0.594725 0.476920 0.094464
#
# Coordination Sequence:
#
# PCOD8303553 Si02
#       6
#     8   8   8   8   8   8
#     4  11  21  38  65  94 126 161 215 254 310 382
#     4   9  20  40  66  91 121 168 218 259 312 386
#     4  10  22  45  60  86 130 169 207 259 320 379
#     4  11  24  39  61  96 133 163 198 275 325 370
#     4  11  23  40  66  93 123 166 214 261 326 383
#     4  10  20  41  69  90 118 169 214 258 308 392
#
# _framework density 20.156670999999999
#
# number of rings (size 3 to 8) (size 9 to 14) (size 15 to 20)
#    0.000    1.667    1.667    4.000    2.333    1.333 
#    3.000    0.000    0.000    0.000    0.000    0.000 
#    0.000    0.000    0.000    0.000    0.000    0.000 
#
# Total GULP energy -594856.081038 kJ/mol
# GULP energy per Si atom -12392.835022 kJ/mol
# Density = 2.011079 g / cm^3
# Si number density = 20.156671 Si / 1000 Ang^3
#
#
#
# Elastic Constant Matrix: (Units=GPa)
#
#
# Indices 1 2 3 4 5 6 
#
# 1 97.8669 33.2633 34.0461 0.0000 0.0000 -2.0793
# 2 33.2633 97.8669 34.0461 0.0000 0.0000 2.0793
# 3 34.0461 34.0461 84.0581 0.0000 0.0000 0.0000
# 4 0.0000 0.0000 0.0000 79.6505 0.0000 0.0000
# 5 0.0000 0.0000 0.0000 0.0000 79.6505 0.0000
# 6 -2.0793 2.0793 0.0000 0.0000 0.0000 33.3308
#
#
#
# Elastic Compliance Matrix: (Units=1/GPa)
#
#
# Indices 1 2 3 4 5 6 
#
# 1 0.012599 -0.002942 -0.003911 0.000000 0.000000 0.000970
# 2 -0.002942 0.012599 -0.003911 0.000000 0.000000 -0.000970
# 3 -0.003911 -0.003911 0.015065 0.000000 0.000000 0.000000
# 4 0.000000 0.000000 0.000000 0.012555 0.000000 0.000000
# 5 0.000000 0.000000 0.000000 0.000000 0.012555 0.000000
# 6 0.000970 -0.000970 0.000000 0.000000 0.000000 0.030123
#
#
# Mechanical properties :
#
#
# Convention : Reuss Voigt Hill
#
# Bulk Modulus (GPa) = 53.38022 53.61146 53.49584
# Shear Modulus (GPa) = 40.56103 50.42212 45.49158
#
# Velocity S-wave (km/s) = 4.49072 5.00694 4.75584
# Velocity P-wave (km/s) = 7.30951 7.75119 7.53359
#
# Compressibility (1/GPa) = 0.01873353
#
# Stress axis : x y z
#
# Youngs Moduli (GPa) = 79.36974 79.36974 66.37889
#
# Poissons Ratio (x) = 0.23352 0.25964
# Poissons Ratio (y) = 0.23352 0.25964
# Poissons Ratio (z) = 0.31045 0.31045
#
# Static dielectric constant tensor:
#      x y z
#    x 1.113970 0.000000 0.000000 
#    y 0.000000 1.113970 0.000000 
#    z 0.000000 0.000000 2.778230 
# 
# 
# High freq. dielectric constant tensor:
#      x y z
#    x 1.798770 0.000000 0.000000 
#    y 0.000000 1.798770 0.000000 
#    z 0.000000 0.000000 1.770810 
# 
# From -- ./inp_files/3581.got.cif
#   From: 2010.03.12/outbox.cif.g09.slc.cpg/sg86_2_cif.got.tgz:3581.got - 2010.04.08 20:12:58.
