data_PCOD8303993
_publ_section_title
;
Structure prediction by ZEFSAII (Michael W. Deem and Ramdas Pophale) SiO2 
 PCOD8303993
Probable space group: I 4/M
;
_chemical_formula_sum "Si O2"
_cell_formula_units_Z 88
_cell_length_a 15.633457
_cell_length_b 15.633457
_cell_length_c 19.981900
_cell_angle_alpha 90.000000
_cell_angle_beta 90.000000
_cell_angle_gamma 90.000000
_cell_volume 4883.675825
_symmetry_space_group_name_H-M "I 4/M"
_symmetry_group_IT_number 87
_symmetry_cell_setting 'tetragonal'
loop_
_space_group_symop_operation_xyz
x,y,z
-y,x,z
-x,-y,z
y,-x,z
-x,-y,-z
y,-x,-z
x,y,-z
-y,x,-z
1/2+x,1/2+y,1/2+z
1/2-y,1/2+x,1/2+z
1/2-x,1/2-y,1/2+z
1/2+y,1/2-x,1/2+z
1/2-x,1/2-y,1/2-z
1/2+y,1/2-x,1/2-z
1/2+x,1/2+y,1/2-z
1/2-y,1/2+x,1/2-z
loop_
_atom_site_type_symbol
_atom_site_label
_atom_site_fract_x
_atom_site_fract_y
_atom_site_fract_z
Si Si1 0.880227 0.068458 0.078144
Si Si2 0.461830 0.131792 0.235564
Si Si3 0.855727 0.999496 0.500000
Si Si4 0.255054 0.647845 0.680007
Si Si5 0.350373 0.691451 0.807983
Si Si6 0.229394 0.975670 0.362049
O O1 0.801098 0.112972 0.114476
O O2 0.968777 0.114594 0.098131
O O3 0.863055 0.078358 0.000000
O O4 0.553505 0.103983 0.264067
O O5 0.429619 0.206314 0.284113
O O6 0.467065 0.169855 0.159348
O O7 0.916007 0.915474 0.500000
O O8 0.789532 0.996970 0.438029
O O9 0.325902 0.686495 0.730158
O O10 0.189043 0.722424 0.659283
O O11 0.452624 0.691445 0.812273
O O12 0.317787 0.612798 0.851127
#
# Coordination Sequence:
#
# PCOD8303993 Si02
#       6
#    16  16   8  16  16  16
#     4   9  20  38  58  83 113 147 186 232 295 352
#     4  10  21  38  63  85 114 154 192 240 295 338
#     4  11  22  38  58  81 120 166 194 231 296 358
#     4  10  21  37  59  85 115 145 193 241 288 342
#     4  10  22  35  56  88 114 146 192 242 285 342
#     4  11  21  39  57  84 120 151 195 236 289 350
#
# _framework density 18.019214000000002
#
# number of rings (size 3 to 8) (size 9 to 14) (size 15 to 20)
#    0.000    1.909    3.636    0.545    5.091    0.364 
#    3.273    0.000    2.000    1.091    0.000    0.000 
#    0.000    0.000    0.000    0.000    0.000    0.000 
#
# Total GULP energy -545472.740853 kJ/mol
# GULP energy per Si atom -12397.107747 kJ/mol
# Density = 1.797820 g / cm^3
# Si number density = 18.019214 Si / 1000 Ang^3
#
#
#
# Elastic Constant Matrix: (Units=GPa)
#
#
# Indices 1 2 3 4 5 6 
#
# 1 99.5245 44.9640 49.9472 0.0000 0.0000 1.7947
# 2 44.9640 99.5245 49.9472 0.0000 0.0000 -1.7947
# 3 49.9472 49.9472 80.2224 0.0000 0.0000 0.0000
# 4 0.0000 0.0000 0.0000 25.5981 0.0000 0.0000
# 5 0.0000 0.0000 0.0000 0.0000 25.5981 0.0000
# 6 1.7947 -1.7947 0.0000 0.0000 0.0000 28.9638
#
#
#
# Elastic Compliance Matrix: (Units=1/GPa)
#
#
# Indices 1 2 3 4 5 6 
#
# 1 0.015277 -0.003126 -0.007566 0.000000 0.000000 -0.001140
# 2 -0.003126 0.015277 -0.007566 0.000000 0.000000 0.001140
# 3 -0.007566 -0.007566 0.021886 0.000000 0.000000 0.000000
# 4 0.000000 0.000000 0.000000 0.039065 0.000000 0.000000
# 5 0.000000 0.000000 0.000000 0.000000 0.039065 0.000000
# 6 -0.001140 0.001140 0.000000 0.000000 0.000000 0.034667
#
#
# Mechanical properties :
#
#
# Convention : Reuss Voigt Hill
#
# Bulk Modulus (GPa) = 62.78759 63.22092 63.00426
# Shear Modulus (GPa) = 24.14729 24.99289 24.57009
#
# Velocity S-wave (km/s) = 3.66469 3.72830 3.69663
# Velocity P-wave (km/s) = 7.26822 7.32769 7.29802
#
# Compressibility (1/GPa) = 0.01592671
#
# Stress axis : x y z
#
# Youngs Moduli (GPa) = 65.45588 65.45588 45.69060
#
# Poissons Ratio (x) = 0.20460 0.34568
# Poissons Ratio (y) = 0.20460 0.34568
# Poissons Ratio (z) = 0.49522 0.49522
#
# Static dielectric constant tensor:
#      x y z
#    x 3.463390 0.000000 0.000000 
#    y 0.000000 3.463390 0.000000 
#    z 0.000000 0.000000 3.135950 
# 
# 
# High freq. dielectric constant tensor:
#      x y z
#    x 1.704910 0.000000 0.000000 
#    y 0.000000 1.704910 0.000000 
#    z 0.000000 0.000000 1.674570 
# 
# From -- ./inp_files/5168.got.cif
#   From: 2010.03.12/outbox.cif.g09.slc.cpg/sg87_3_cif.got.tgz:5168.got - 2010.04.08 20:16:13.
