data_PCOD8303241
_publ_section_title
;
Structure prediction by ZEFSAII (Michael W. Deem and Ramdas Pophale) SiO2 
 PCOD8303241
Probable space group: P 42/M
;
_chemical_formula_sum "Si O2"
_cell_formula_units_Z 40
_cell_length_a 15.310418
_cell_length_b 15.310418
_cell_length_c 8.629775
_cell_angle_alpha 90.000000
_cell_angle_beta 90.000000
_cell_angle_gamma 90.000000
_cell_volume 2022.896059
_symmetry_space_group_name_H-M "P 42/M"
_symmetry_group_IT_number 84
_symmetry_cell_setting 'tetragonal'
loop_
_space_group_symop_operation_xyz
x,y,z
-y,x,1/2+z
-x,-y,z
y,-x,1/2+z
-x,-y,-z
y,-x,1/2-z
x,y,-z
-y,x,1/2-z
loop_
_atom_site_type_symbol
_atom_site_label
_atom_site_fract_x
_atom_site_fract_y
_atom_site_fract_z
Si Si1 0.978287 0.749330 0.178920
Si Si2 0.798046 0.842723 0.819426
Si Si3 0.292944 0.659956 0.181127
Si Si4 0.570241 0.064744 0.181765
Si Si5 0.473448 0.745095 0.182407
O O1 0.894373 0.807637 0.216701
O O2 0.972805 0.664117 0.282435
O O3 0.067510 0.796838 0.224367
O O4 0.980303 0.722749 0.000000
O O5 0.723157 0.774746 0.768484
O O6 0.784003 0.861960 0.000000
O O7 0.393059 0.681837 0.223508
O O8 0.282635 0.559713 0.227469
O O9 0.275380 0.673231 0.000000
O O10 0.555462 0.160997 0.248989
O O11 0.500000 0.000000 0.258499
O O12 0.556997 0.069077 0.000000
O O13 0.493821 0.745839 0.000000
#
# Coordination Sequence:
#
# PCOD8303241 Si02
#       5
#     8   8   8   8   8
#     4  11  24  40  63  93 123 163 210 257 310 371
#     4  11  24  42  64  91 127 167 207 259 317 373
#     4  11  23  40  64  92 125 166 210 261 313 372
#     4  10  20  37  62  90 122 162 206 256 315 370
#     4  10  22  39  60  90 127 166 208 257 316 373
#
# _framework density 19.773630000000001
#
# number of rings (size 3 to 8) (size 9 to 14) (size 15 to 20)
#    0.000    1.400    2.000    3.000    0.000    7.600 
#    0.000    4.000    0.000    0.000    0.000    0.000 
#    0.000    0.000    0.000    0.000    0.000    0.000 
#
# Total GULP energy -496085.073438 kJ/mol
# GULP energy per Si atom -12402.126836 kJ/mol
# Density = 1.972862 g / cm^3
# Si number density = 19.773630 Si / 1000 Ang^3
#
#
#
# Elastic Constant Matrix: (Units=GPa)
#
#
# Indices 1 2 3 4 5 6 
#
# 1 134.0966 48.6888 19.8723 0.0000 0.0000 -2.7106
# 2 48.6888 134.0966 19.8723 0.0000 0.0000 2.7106
# 3 19.8723 19.8723 22.5728 0.0000 0.0000 0.0000
# 4 0.0000 0.0000 0.0000 29.8405 0.0000 0.0000
# 5 0.0000 0.0000 0.0000 0.0000 29.8405 0.0000
# 6 -2.7106 2.7106 0.0000 0.0000 0.0000 38.0726
#
#
#
# Elastic Compliance Matrix: (Units=1/GPa)
#
#
# Indices 1 2 3 4 5 6 
#
# 1 0.009264 -0.002498 -0.005957 0.000000 0.000000 0.000837
# 2 -0.002498 0.009264 -0.005957 0.000000 0.000000 -0.000837
# 3 -0.005957 -0.005957 0.054789 0.000000 0.000000 0.000000
# 4 0.000000 0.000000 0.000000 0.033512 0.000000 0.000000
# 5 0.000000 0.000000 0.000000 0.000000 0.033512 0.000000
# 6 0.000837 -0.000837 0.000000 0.000000 0.000000 0.026385
#
#
# Mechanical properties :
#
#
# Convention : Reuss Voigt Hill
#
# Bulk Modulus (GPa) = 22.47456 51.95922 37.21689
# Shear Modulus (GPa) = 23.76668 33.03954 28.40311
#
# Velocity S-wave (km/s) = 3.47066 4.09209 3.79412
# Velocity P-wave (km/s) = 5.23939 6.97574 6.16896
#
# Compressibility (1/GPa) = 0.04449475
#
# Stress axis : x y z
#
# Youngs Moduli (GPa) = 107.94596 107.94596 18.25179
#
# Poissons Ratio (x) = 0.26963 0.10872
# Poissons Ratio (y) = 0.26963 0.10872
# Poissons Ratio (z) = 0.64300 0.64300
#
# Static dielectric constant tensor:
#      x y z
#    x 3.979760 0.000000 0.000000 
#    y 0.000000 3.979760 0.000000 
#    z 0.000000 0.000000 3.535760 
# 
# 
# High freq. dielectric constant tensor:
#      x y z
#    x 1.783790 0.000000 0.000000 
#    y 0.000000 1.783790 0.000000 
#    z 0.000000 0.000000 1.768440 
# 
# From -- ./inp_files/752.got.cif
#   From: 2010.03.12/outbox.cif.g09.slc.cpg/sg84_1_cif.got.tgz:752.got - 2010.04.08 20:07:29.
