data_PCOD8303032
_publ_section_title
;
Structure prediction by ZEFSAII (Michael W. Deem and Ramdas Pophale) SiO2 
 PCOD8303032
Probable space group: P 4/M
;
_chemical_formula_sum "Si O2"
_cell_formula_units_Z 49
_cell_length_a 8.810637
_cell_length_b 8.810637
_cell_length_c 31.550477
_cell_angle_alpha 90.000000
_cell_angle_beta 90.000000
_cell_angle_gamma 90.000000
_cell_volume 2449.179111
_symmetry_space_group_name_H-M "P 4/M"
_symmetry_group_IT_number 83
_symmetry_cell_setting 'tetragonal'
loop_
_space_group_symop_operation_xyz
x,y,z
-y,x,z
-x,-y,z
y,-x,z
-x,-y,-z
y,-x,-z
x,y,-z
-y,x,-z
loop_
_atom_site_type_symbol
_atom_site_label
_atom_site_fract_x
_atom_site_fract_y
_atom_site_fract_z
Si Si1 0.093264 0.230554 0.328528
Si Si2 0.758291 0.943965 0.951740
Si Si3 0.264883 0.421804 0.265481
Si Si4 0.777123 0.109178 0.575518
Si Si5 0.567437 0.169449 0.500000
Si Si6 0.500000 0.500000 0.500000
Si Si7 0.000000 0.500000 0.109100
Si Si8 0.436427 0.740047 0.830921
O O1 0.133210 0.368223 0.297069
O O2 0.127258 0.283576 0.376490
O O3 0.918252 0.193679 0.319960
O O4 0.887633 0.820755 0.943052
O O5 0.619153 0.910813 0.920435
O O6 0.700702 0.930300 0.000000
O O7 0.406425 0.311629 0.274405
O O8 0.205601 0.411465 0.217303
O O9 0.659636 0.182711 0.543676
O O10 0.931930 0.199112 0.567232
O O11 0.455301 0.317590 0.500000
O O12 0.500000 0.000000 0.500000
O O13 0.881393 0.592485 0.138200
O O14 0.317483 0.606735 0.839731
#
# Coordination Sequence:
#
# PCOD8303032 Si02
#       8
#     8   8   8   8   4   1   4   8
#     4   9  19  36  57  84 114 141 185 238 279 330
#     4   9  19  35  52  74 109 145 176 221 278 332
#     4   9  19  37  54  75 105 146 186 220 276 343
#     4   9  18  37  63  87 115 159 201 235 294 369
#     4  12  24  43  64  87 130 166 198 248 318 356
#     4  12  28  44  60 104 132 156 212 284 284 376
#     4  12  19  30  56  84 100 134 192 231 266 324
#     4   9  20  36  52  73 109 143 176 225 279 332
#
# _framework density 20.006705
#
# number of rings (size 3 to 8) (size 9 to 14) (size 15 to 20)
#    0.000    2.449    0.000    5.143    0.000    3.918 
#    8.816    0.000    0.000    1.959    0.000    6.857 
#    0.000    0.000    0.000    0.000    0.000    0.000 
#
# Total GULP energy -607024.527871 kJ/mol
# GULP energy per Si atom -12388.255671 kJ/mol
# Density = 1.996117 g / cm^3
# Si number density = 20.006705 Si / 1000 Ang^3
#
#
#
# Elastic Constant Matrix: (Units=GPa)
#
#
# Indices 1 2 3 4 5 6 
#
# 1 64.0150 18.5893 43.9392 0.0000 0.0000 -2.3197
# 2 18.5893 64.0150 43.9392 0.0000 0.0000 2.3197
# 3 43.9392 43.9392 120.3707 0.0000 0.0000 0.0000
# 4 0.0000 0.0000 0.0000 34.3338 0.0000 0.0000
# 5 0.0000 0.0000 0.0000 0.0000 34.3338 0.0000
# 6 -2.3197 2.3197 0.0000 0.0000 0.0000 27.6302
#
#
#
# Elastic Compliance Matrix: (Units=1/GPa)
#
#
# Indices 1 2 3 4 5 6 
#
# 1 0.020998 -0.001206 -0.007225 0.000000 0.000000 0.001864
# 2 -0.001206 0.020998 -0.007225 0.000000 0.000000 -0.001864
# 3 -0.007225 -0.007225 0.013582 0.000000 0.000000 0.000000
# 4 0.000000 0.000000 0.000000 0.029126 0.000000 0.000000
# 5 0.000000 0.000000 0.000000 0.000000 0.029126 0.000000
# 6 0.001864 -0.001864 0.000000 0.000000 0.000000 0.036505
#
#
# Mechanical properties :
#
#
# Convention : Reuss Voigt Hill
#
# Bulk Modulus (GPa) = 41.20792 51.25955 46.23374
# Shear Modulus (GPa) = 26.35247 28.72176 27.53712
#
# Velocity S-wave (km/s) = 3.63324 3.79305 3.71400
# Velocity P-wave (km/s) = 6.18404 6.69774 6.44601
#
# Compressibility (1/GPa) = 0.02426718
#
# Stress axis : x y z
#
# Youngs Moduli (GPa) = 47.62332 47.62332 73.62616
#
# Poissons Ratio (x) = 0.05745 0.53192
# Poissons Ratio (y) = 0.05745 0.53192
# Poissons Ratio (z) = 0.34406 0.34406
#
# Static dielectric constant tensor:
#      x y z
#    x 3.472520 0.000000 0.000000 
#    y 0.000000 3.472520 0.000000 
#    z 0.000000 0.000000 3.612370 
# 
# 
# High freq. dielectric constant tensor:
#      x y z
#    x 1.772650 0.000000 0.000000 
#    y 0.000000 1.772650 0.000000 
#    z 0.000000 0.000000 1.782660 
# 
# From -- ./inp_files/3527.got.cif
#   From: 2010.03.12/outbox.cif.g09.slc.cpg/sg83_2_cif.got.tgz:3527.got - 2010.04.08 20:05:18.
