data_PCOD8303745
_publ_section_title
;
Structure prediction by ZEFSAII (Michael W. Deem and Ramdas Pophale) SiO2 
 PCOD8303745
Probable space group: I 4/M
;
_chemical_formula_sum "Si O2"
_cell_formula_units_Z 96
_cell_length_a 19.470089
_cell_length_b 19.470089
_cell_length_c 14.006181
_cell_angle_alpha 90.000000
_cell_angle_beta 90.000000
_cell_angle_gamma 90.000000
_cell_volume 5309.524240
_symmetry_space_group_name_H-M "I 4/M"
_symmetry_group_IT_number 87
_symmetry_cell_setting 'tetragonal'
loop_
_space_group_symop_operation_xyz
x,y,z
-y,x,z
-x,-y,z
y,-x,z
-x,-y,-z
y,-x,-z
x,y,-z
-y,x,-z
1/2+x,1/2+y,1/2+z
1/2-y,1/2+x,1/2+z
1/2-x,1/2-y,1/2+z
1/2+y,1/2-x,1/2+z
1/2-x,1/2-y,1/2-z
1/2+y,1/2-x,1/2-z
1/2+x,1/2+y,1/2-z
1/2-y,1/2+x,1/2-z
loop_
_atom_site_type_symbol
_atom_site_label
_atom_site_fract_x
_atom_site_fract_y
_atom_site_fract_z
Si Si1 0.110795 0.484226 0.742809
Si Si2 0.181989 0.407624 0.897873
Si Si3 0.418884 0.422105 0.611074
Si Si4 0.773264 0.782935 0.387845
Si Si5 0.202309 0.849735 0.201577
Si Si6 0.057394 0.304874 0.103514
O O1 0.075081 0.555293 0.774293
O O2 0.166912 0.467028 0.822865
O O3 0.154801 0.492175 0.646610
O O4 0.244800 0.359297 0.867534
O O5 0.116534 0.359819 0.909247
O O6 0.197706 0.442840 0.000000
O O7 0.498232 0.404345 0.634176
O O8 0.403616 0.406281 0.500000
O O9 0.367706 0.376947 0.677692
O O10 0.794102 0.773282 0.500000
O O11 0.837458 0.780729 0.314295
O O12 0.716814 0.725305 0.360337
O O13 0.244099 0.917645 0.171757
O O14 0.036333 0.274668 0.000000
#
# Coordination Sequence:
#
# PCOD8303745 Si02
#       6
#    16  16  16  16  16  16
#     4   9  17  28  44  68  98 134 172 200 226 273
#     4   8  15  29  46  64  91 126 162 199 239 278
#     4   9  18  32  50  74 101 126 157 199 245 292
#     4   9  18  32  51  75  99 125 159 198 241 289
#     4  10  18  31  53  73  95 129 160 194 242 294
#     4   9  17  29  45  66  94 127 162 201 243 282
#
# _framework density 18.080715000000001
#
# number of rings (size 3 to 8) (size 9 to 14) (size 15 to 20)
#    0.000    3.000    0.000    3.000    0.000    2.000 
#    0.000    4.167    0.000   17.000    0.000    1.167 
#    0.000    0.000    0.000    0.000    0.000    0.000 
#
# Total GULP energy -594742.949547 kJ/mol
# GULP energy per Si atom -12390.478116 kJ/mol
# Density = 1.803956 g / cm^3
# Si number density = 18.080715 Si / 1000 Ang^3
#
#
#
# Elastic Constant Matrix: (Units=GPa)
#
#
# Indices 1 2 3 4 5 6 
#
# 1 58.0901 32.1343 47.7215 0.0000 0.0000 -2.7086
# 2 32.1343 58.0901 47.7215 0.0000 0.0000 2.7086
# 3 47.7215 47.7215 139.9072 0.0000 0.0000 0.0000
# 4 0.0000 0.0000 0.0000 -3.2836 0.0000 0.0000
# 5 0.0000 0.0000 0.0000 0.0000 -3.2836 0.0000
# 6 -2.7086 2.7086 0.0000 0.0000 0.0000 22.4606
#
#
#
# Elastic Compliance Matrix: (Units=1/GPa)
#
#
# Indices 1 2 3 4 5 6 
#
# 1 0.028431 -0.011091 -0.005915 0.000000 0.000000 0.004766
# 2 -0.011091 0.028431 -0.005915 0.000000 0.000000 -0.004766
# 3 -0.005915 -0.005915 0.011182 0.000000 0.000000 0.000000
# 4 0.000000 0.000000 0.000000 -0.304544 0.000000 0.000000
# 5 0.000000 0.000000 0.000000 0.000000 -0.304544 0.000000
# 6 0.004766 -0.004766 0.000000 0.000000 0.000000 0.045672
#
#
# Mechanical properties :
#
#
# Convention : Reuss Voigt Hill
#
# Bulk Modulus (GPa) = 45.03617 56.80466 50.92042
# Shear Modulus (GPa) = -11.30888 11.74602 0.21857
#
# Velocity S-wave (km/s) = -2.50365 2.55158 0.34807
# Velocity P-wave (km/s) = 4.07490 6.33768 5.32780
#
# Compressibility (1/GPa) = 0.02220438
#
# Stress axis : x y z
#
# Youngs Moduli (GPa) = 35.17284 35.17284 89.42544
#
# Poissons Ratio (x) = 0.39009 0.52892
# Poissons Ratio (y) = 0.39009 0.52892
# Poissons Ratio (z) = 0.20804 0.20804
#
# Static dielectric constant tensor:
#      x y z
#    x 3.201260 0.000000 0.000000 
#    y 0.000000 3.201260 0.000000 
#    z 0.000000 0.000000 5.591130 
# 
# 
# High freq. dielectric constant tensor:
#      x y z
#    x 1.679810 0.000000 0.000000 
#    y 0.000000 1.679810 0.000000 
#    z 0.000000 0.000000 1.695540 
# 
# From -- ./inp_files/3785.got.cif
#   From: 2010.03.12/outbox.cif.g09.slc.cpg/sg87_2_cif.got.tgz:3785.got - 2010.04.08 20:16:13.
