data_PCOD8303388
_publ_section_title
;
Structure prediction by ZEFSAII (Michael W. Deem and Ramdas Pophale) SiO2 
 PCOD8303388
Probable space group: P 42/M
;
_chemical_formula_sum "Si O2"
_cell_formula_units_Z 40
_cell_length_a 8.928255
_cell_length_b 8.928255
_cell_length_c 22.802178
_cell_angle_alpha 90.000000
_cell_angle_beta 90.000000
_cell_angle_gamma 90.000000
_cell_volume 1817.646828
_symmetry_space_group_name_H-M "P 42/M"
_symmetry_group_IT_number 84
_symmetry_cell_setting 'tetragonal'
loop_
_space_group_symop_operation_xyz
x,y,z
-y,x,1/2+z
-x,-y,z
y,-x,1/2+z
-x,-y,-z
y,-x,1/2-z
x,y,-z
-y,x,1/2-z
loop_
_atom_site_type_symbol
_atom_site_label
_atom_site_fract_x
_atom_site_fract_y
_atom_site_fract_z
Si Si1 0.396984 0.863341 0.357392
Si Si2 0.787497 0.128359 0.246529
Si Si3 0.639762 0.096742 0.128081
Si Si4 0.114845 0.865823 0.434523
Si Si5 0.594772 0.647679 0.434825
O O1 0.316706 0.802847 0.298124
O O2 0.266141 0.914697 0.401693
O O3 0.506761 0.745470 0.387477
O O4 0.500000 0.000000 0.338668
O O5 0.719437 0.170436 0.183988
O O6 0.949364 0.203625 0.248596
O O7 0.607351 0.236030 0.085091
O O8 0.500000 0.000000 0.149882
O O9 0.730798 0.967506 0.096080
O O10 0.160798 0.818873 0.500000
O O11 0.000000 0.000000 0.433878
O O12 0.500000 0.500000 0.441244
O O13 0.604782 0.723884 0.500000
#
# Coordination Sequence:
#
# PCOD8303388 Si02
#       5
#     8   8   8   8   8
#     4  12  24  42  68 101 137 182 227 290 357 419
#     4  11  23  43  72 100 136 176 231 292 349 418
#     4  12  25  43  70 103 135 186 240 289 350 422
#     4  11  23  41  67  99 134 179 235 289 345 420
#     4  11  26  47  68  99 145 187 227 287 358 426
#
# _framework density 22.006477
#
# number of rings (size 3 to 8) (size 9 to 14) (size 15 to 20)
#    0.000    0.600    2.000    6.600    0.000    6.400 
#    0.000    0.000    0.000    0.000    0.000    0.000 
#    0.000    0.000    0.000    0.000    0.000    0.000 
#
# Total GULP energy -495987.488901 kJ/mol
# GULP energy per Si atom -12399.687223 kJ/mol
# Density = 2.195639 g / cm^3
# Si number density = 22.006477 Si / 1000 Ang^3
#
#
#
# Elastic Constant Matrix: (Units=GPa)
#
#
# Indices 1 2 3 4 5 6 
#
# 1 81.0355 7.8432 39.7743 0.0000 0.0000 2.8303
# 2 7.8432 81.0355 39.7743 0.0000 0.0000 -2.8303
# 3 39.7743 39.7743 81.2160 0.0000 0.0000 0.0000
# 4 0.0000 0.0000 0.0000 40.3820 0.0000 0.0000
# 5 0.0000 0.0000 0.0000 0.0000 40.3820 0.0000
# 6 2.8303 -2.8303 0.0000 0.0000 0.0000 39.5749
#
#
#
# Elastic Compliance Matrix: (Units=1/GPa)
#
#
# Indices 1 2 3 4 5 6 
#
# 1 0.016885 0.003147 -0.009810 0.000000 0.000000 -0.000983
# 2 0.003147 0.016885 -0.009810 0.000000 0.000000 0.000983
# 3 -0.009810 -0.009810 0.021922 0.000000 0.000000 0.000000
# 4 0.000000 0.000000 0.000000 0.024763 0.000000 0.000000
# 5 0.000000 0.000000 0.000000 0.000000 0.024763 0.000000
# 6 -0.000983 0.000983 0.000000 0.000000 0.000000 0.025409
#
#
# Mechanical properties :
#
#
# Convention : Reuss Voigt Hill
#
# Bulk Modulus (GPa) = 43.96731 46.45227 45.20979
# Shear Modulus (GPa) = 29.21291 34.46080 31.83686
#
# Velocity S-wave (km/s) = 3.64740 3.96149 3.80768
# Velocity P-wave (km/s) = 6.14497 6.48682 6.31821
#
# Compressibility (1/GPa) = 0.02274417
#
# Stress axis : x y z
#
# Youngs Moduli (GPa) = 59.22362 59.22362 45.61702
#
# Poissons Ratio (x) = -0.18635 0.44751
# Poissons Ratio (y) = -0.18635 0.44751
# Poissons Ratio (z) = 0.58100 0.58100
#
# Static dielectric constant tensor:
#      x y z
#    x 3.185030 0.000000 0.000000 
#    y 0.000000 3.185030 0.000000 
#    z 0.000000 0.000000 4.398060 
# 
# 
# High freq. dielectric constant tensor:
#      x y z
#    x 1.867650 0.000000 0.000000 
#    y 0.000000 1.867650 0.000000 
#    z 0.000000 0.000000 1.884220 
# 
# From -- ./inp_files/4830.got.cif
#   From: 2010.03.12/outbox.cif.g09.slc.cpg/sg84_3_cif.got.tgz:4830.got - 2010.04.08 20:07:29.
