data_PCOD8303938
_publ_section_title
;
Structure prediction by ZEFSAII (Michael W. Deem and Ramdas Pophale) SiO2 
 PCOD8303938
Probable space group: I 4/M
;
_chemical_formula_sum "Si O2"
_cell_formula_units_Z 112
_cell_length_a 14.277181
_cell_length_b 14.277181
_cell_length_c 25.784185
_cell_angle_alpha 90.000000
_cell_angle_beta 90.000000
_cell_angle_gamma 90.000000
_cell_volume 5255.794054
_symmetry_space_group_name_H-M "I 4/M"
_symmetry_group_IT_number 87
_symmetry_cell_setting 'tetragonal'
loop_
_space_group_symop_operation_xyz
x,y,z
-y,x,z
-x,-y,z
y,-x,z
-x,-y,-z
y,-x,-z
x,y,-z
-y,x,-z
1/2+x,1/2+y,1/2+z
1/2-y,1/2+x,1/2+z
1/2-x,1/2-y,1/2+z
1/2+y,1/2-x,1/2+z
1/2-x,1/2-y,1/2-z
1/2+y,1/2-x,1/2-z
1/2+x,1/2+y,1/2-z
1/2-y,1/2+x,1/2-z
loop_
_atom_site_type_symbol
_atom_site_label
_atom_site_fract_x
_atom_site_fract_y
_atom_site_fract_z
Si Si1 0.563204 0.261802 0.167209
Si Si2 0.100211 0.514910 0.058152
Si Si3 0.594602 0.897477 0.268991
Si Si4 0.265820 0.643073 0.199208
Si Si5 0.253459 0.370021 0.056887
Si Si6 0.358883 0.446869 0.560879
Si Si7 0.297339 0.177838 0.098737
O O1 0.574685 0.148022 0.177185
O O2 0.458604 0.291684 0.177594
O O3 0.632923 0.309823 0.209289
O O4 0.588019 0.300338 0.109188
O O5 0.149642 0.413571 0.057983
O O6 0.160404 0.592583 0.088150
O O7 0.000000 0.500000 0.085361
O O8 0.085824 0.553597 0.000000
O O9 0.481573 0.887112 0.273730
O O10 0.637991 0.798674 0.249974
O O11 0.212119 0.708235 0.157615
O O12 0.254857 0.257618 0.060639
O O13 0.299046 0.397203 0.000000
O O14 0.446349 0.380978 0.576729
O O15 0.340266 0.440276 0.500000
O O16 0.265777 0.414451 0.591232
#
# Coordination Sequence:
#
# PCOD8303938 Si02
#       7
#    16  16  16  16  16  16  16
#     4  10  20  38  58  83 116 149 196 239 287 347
#     4  10  21  34  51  79 112 147 194 249 295 339
#     4   9  19  37  62  90 117 144 181 233 296 360
#     4  10  21  37  58  88 110 155 191 238 296 342
#     4  10  21  36  54  81 117 159 195 238 293 347
#     4   9  19  35  55  79 110 154 202 243 292 359
#     4  11  21  36  56  82 116 153 199 241 297 351
#
# _framework density 21.309816000000001
#
# number of rings (size 3 to 8) (size 9 to 14) (size 15 to 20)
#    0.000    2.143    1.429    2.143    2.000    1.429 
#    2.571    0.000    0.000    0.429    0.000    4.000 
#    0.000    0.000    0.000    0.000    0.000    0.000 
#
# Total GULP energy -693774.205619 kJ/mol
# GULP energy per Si atom -12388.825100 kJ/mol
# Density = 2.126131 g / cm^3
# Si number density = 21.309816 Si / 1000 Ang^3
#
#
#
# Elastic Constant Matrix: (Units=GPa)
#
#
# Indices 1 2 3 4 5 6 
#
# 1 85.1923 28.0064 9.6264 0.0000 0.0000 12.3437
# 2 28.0064 85.1923 9.6264 0.0000 0.0000 -12.3437
# 3 9.6264 9.6264 47.4639 0.0000 0.0000 0.0000
# 4 0.0000 0.0000 0.0000 18.3195 0.0000 0.0000
# 5 0.0000 0.0000 0.0000 0.0000 18.3195 0.0000
# 6 12.3437 -12.3437 0.0000 0.0000 0.0000 36.4257
#
#
#
# Elastic Compliance Matrix: (Units=1/GPa)
#
#
# Indices 1 2 3 4 5 6 
#
# 1 0.014817 -0.005667 -0.001856 0.000000 0.000000 -0.006941
# 2 -0.005667 0.014817 -0.001856 0.000000 0.000000 0.006941
# 3 -0.001856 -0.001856 0.021821 0.000000 0.000000 0.000000
# 4 0.000000 0.000000 0.000000 0.054587 0.000000 0.000000
# 5 0.000000 0.000000 0.000000 0.000000 0.054587 0.000000
# 6 -0.006941 0.006941 0.000000 0.000000 0.000000 0.032158
#
#
# Mechanical properties :
#
#
# Convention : Reuss Voigt Hill
#
# Bulk Modulus (GPa) = 30.58300 34.70744 32.64522
# Shear Modulus (GPa) = 22.47785 25.98554 24.23170
#
# Velocity S-wave (km/s) = 3.25131 3.49580 3.37577
# Velocity P-wave (km/s) = 5.33643 5.71110 5.52694
#
# Compressibility (1/GPa) = 0.03269790
#
# Stress axis : x y z
#
# Youngs Moduli (GPa) = 67.49219 67.49219 45.82663
#
# Poissons Ratio (x) = 0.38247 0.08504
# Poissons Ratio (y) = 0.38247 0.08504
# Poissons Ratio (z) = 0.12524 0.12524
#
# Static dielectric constant tensor:
#      x y z
#    x 3.845270 0.000000 0.000000 
#    y 0.000000 3.845270 0.000000 
#    z 0.000000 0.000000 3.671370 
# 
# 
# High freq. dielectric constant tensor:
#      x y z
#    x 1.830900 0.000000 0.000000 
#    y 0.000000 1.830900 0.000000 
#    z 0.000000 0.000000 1.813250 
# 
# From -- ./inp_files/6293.got.cif
#   From: 2010.03.12/outbox.cif.g09.slc.cpg/sg87_4_cif.got.tgz:6293.got - 2010.04.08 20:16:13.
