data_PCOD8303723
_publ_section_title
;
Structure prediction by ZEFSAII (Michael W. Deem and Ramdas Pophale) SiO2 
 PCOD8303723
Probable space group: I 4/M
;
_chemical_formula_sum "Si O2"
_cell_formula_units_Z 64
_cell_length_a 27.263797
_cell_length_b 27.263797
_cell_length_c 5.310433
_cell_angle_alpha 90.000000
_cell_angle_beta 90.000000
_cell_angle_gamma 90.000000
_cell_volume 3947.322524
_symmetry_space_group_name_H-M "I 4/M"
_symmetry_group_IT_number 87
_symmetry_cell_setting 'tetragonal'
loop_
_space_group_symop_operation_xyz
x,y,z
-y,x,z
-x,-y,z
y,-x,z
-x,-y,-z
y,-x,-z
x,y,-z
-y,x,-z
1/2+x,1/2+y,1/2+z
1/2-y,1/2+x,1/2+z
1/2-x,1/2-y,1/2+z
1/2+y,1/2-x,1/2+z
1/2-x,1/2-y,1/2-z
1/2+y,1/2-x,1/2-z
1/2+x,1/2+y,1/2-z
1/2-y,1/2+x,1/2-z
loop_
_atom_site_type_symbol
_atom_site_label
_atom_site_fract_x
_atom_site_fract_y
_atom_site_fract_z
Si Si1 0.987805 0.712303 0.000000
Si Si2 0.276646 0.661646 0.000000
Si Si3 0.735424 0.642038 0.000000
Si Si4 0.632561 0.121390 0.500000
Si Si5 0.235730 0.563465 0.000000
Si Si6 0.823830 0.716796 0.000000
Si Si7 0.910212 0.637549 0.000000
Si Si8 0.100589 0.727796 0.000000
O O1 0.045819 0.706822 0.000000
O O2 0.970209 0.740091 0.252216
O O3 0.965900 0.656860 0.000000
O O4 0.331839 0.682624 0.000000
O O5 0.280422 0.602251 0.000000
O O6 0.249855 0.680009 0.252082
O O7 0.739933 0.608873 0.250691
O O8 0.777265 0.682293 0.000000
O O9 0.686476 0.096810 0.500000
O O10 0.605105 0.102022 0.247837
O O11 0.636710 0.180280 0.500000
O O12 0.874075 0.685355 0.000000
#
# Coordination Sequence:
#
# PCOD8303723 Si02
#       8
#     8   8   8   8   8   8   8   8
#     4  10  20  30  49  61  85 117 159 193 220 267
#     4  12  20  30  47  66  92 122 160 185 223 256
#     4  12  23  30  43  67  99 127 145 183 237 271
#     4  10  16  29  46  60  89 111 138 194 229 250
#     4  10  17  33  47  66  81 115 161 198 209 249
#     4  12  17  32  46  68  91 122 155 192 217 255
#     4  10  16  30  48  62  82 115 151 198 219 240
#     4  12  21  34  42  66  95 124 149 183 243 275
#
# _framework density 16.213522999999999
#
# number of rings (size 3 to 8) (size 9 to 14) (size 15 to 20)
#    0.000    1.000    7.500    3.000    0.000    0.000 
#    0.000    0.000    0.000    0.000    0.000    0.000 
#    0.000   48.000    0.000    0.000    0.000   43.750 
#
# Total GULP energy -396570.066550 kJ/mol
# GULP energy per Si atom -12392.814580 kJ/mol
# Density = 1.617662 g / cm^3
# Si number density = 16.213523 Si / 1000 Ang^3
#
#
#
# Elastic Constant Matrix: (Units=GPa)
#
#
# Indices 1 2 3 4 5 6 
#
# 1 38.3600 25.5587 22.2321 0.0000 0.0000 -2.4795
# 2 25.5587 38.3600 22.2321 0.0000 0.0000 2.4795
# 3 22.2321 22.2321 178.9125 0.0000 0.0000 0.0000
# 4 0.0000 0.0000 0.0000 13.5679 0.0000 0.0000
# 5 0.0000 0.0000 0.0000 0.0000 13.5679 0.0000
# 6 -2.4795 2.4795 0.0000 0.0000 0.0000 3.4948
#
#
#
# Elastic Compliance Matrix: (Units=1/GPa)
#
#
# Indices 1 2 3 4 5 6 
#
# 1 0.062424 -0.045299 -0.002128 0.000000 0.000000 0.076428
# 2 -0.045299 0.062424 -0.002128 0.000000 0.000000 -0.076428
# 3 -0.002128 -0.002128 0.006118 0.000000 0.000000 0.000000
# 4 0.000000 0.000000 0.000000 0.073703 0.000000 0.000000
# 5 0.000000 0.000000 0.000000 0.000000 0.073703 0.000000
# 6 0.076428 -0.076428 0.000000 0.000000 0.000000 0.394589
#
#
# Mechanical properties :
#
#
# Convention : Reuss Voigt Hill
#
# Bulk Modulus (GPa) = 31.39077 43.96427 37.67752
# Shear Modulus (GPa) = 6.38821 18.50011 12.44416
#
# Velocity S-wave (km/s) = 1.98711 3.38158 2.77342
# Velocity P-wave (km/s) = 4.96666 6.51317 5.79177
#
# Compressibility (1/GPa) = 0.03185650
#
# Stress axis : x y z
#
# Youngs Moduli (GPa) = 16.01936 16.01936 163.44700
#
# Poissons Ratio (x) = 0.72567 0.34782
# Poissons Ratio (y) = 0.72567 0.34782
# Poissons Ratio (z) = 0.03409 0.03409
#
# Static dielectric constant tensor:
#      x y z
#    x 2.771820 0.000000 0.000000 
#    y 0.000000 2.771820 0.000000 
#    z 0.000000 0.000000 4.655030 
# 
# 
# High freq. dielectric constant tensor:
#      x y z
#    x 1.572840 0.000000 0.000000 
#    y 0.000000 1.572840 0.000000 
#    z 0.000000 0.000000 1.671930 
# 
# From -- ./inp_files/241.got.cif
#   From: 2010.03.12/outbox.cif.g09.slc.cpg/sg87_1_cif.got.tgz:241.got - 2010.04.08 20:16:13.
