data_PCOD8303123
_publ_section_title
;
Structure prediction by ZEFSAII (Michael W. Deem and Ramdas Pophale) SiO2 
 PCOD8303123
Probable space group: P 42/M
;
_chemical_formula_sum "Si O2"
_cell_formula_units_Z 40
_cell_length_a 15.993350
_cell_length_b 15.993350
_cell_length_c 8.838565
_cell_angle_alpha 90.000000
_cell_angle_beta 90.000000
_cell_angle_gamma 90.000000
_cell_volume 2260.792184
_symmetry_space_group_name_H-M "P 42/M"
_symmetry_group_IT_number 84
_symmetry_cell_setting 'tetragonal'
loop_
_space_group_symop_operation_xyz
x,y,z
-y,x,1/2+z
-x,-y,z
y,-x,1/2+z
-x,-y,-z
y,-x,1/2-z
x,y,-z
-y,x,1/2-z
loop_
_atom_site_type_symbol
_atom_site_label
_atom_site_fract_x
_atom_site_fract_y
_atom_site_fract_z
Si Si1 0.218974 0.642367 0.820382
Si Si2 0.557337 0.611356 0.681281
Si Si3 0.180310 0.161024 0.678341
Si Si4 0.239974 0.981728 0.322045
Si Si5 0.582594 0.956997 0.319916
O O1 0.303786 0.600681 0.760528
O O2 0.211960 0.738191 0.763067
O O3 0.138725 0.589801 0.761134
O O4 0.217836 0.642030 0.000000
O O5 0.610688 0.535723 0.751059
O O6 0.554101 0.603817 0.500000
O O7 0.174075 0.168107 0.500000
O O8 0.098051 0.199346 0.747623
O O9 0.188703 0.064194 0.727384
O O10 0.236366 0.970073 0.500000
O O11 0.336047 0.990862 0.267570
O O12 0.577880 0.956732 0.500000
O O13 0.500000 0.000000 0.249413
#
# Coordination Sequence:
#
# PCOD8303123 Si02
#       5
#     8   8   8   8   8
#     4   8  16  30  46  65  91 123 152 182 228 279
#     4  10  19  32  49  69  95 124 156 191 229 273
#     4   9  18  33  49  66  94 126 152 186 234 278
#     4   9  18  31  48  71  94 119 156 194 227 272
#     4   8  14  27  47  69  92 117 149 191 232 269
#
# _framework density 17.692912
#
# number of rings (size 3 to 8) (size 9 to 14) (size 15 to 20)
#    0.000    3.200    0.000    3.600    0.000    2.800 
#    0.000    6.000    0.000    3.000    0.000    0.000 
#    0.000    0.000    0.000    0.000    0.000    0.000 
#
# Total GULP energy -495760.713531 kJ/mol
# GULP energy per Si atom -12394.017838 kJ/mol
# Density = 1.765264 g / cm^3
# Si number density = 17.692912 Si / 1000 Ang^3
#
#
#
# Elastic Constant Matrix: (Units=GPa)
#
#
# Indices 1 2 3 4 5 6 
#
# 1 178.6694 117.5053 32.3223 0.0000 0.0000 -18.0100
# 2 117.5053 178.6694 32.3223 0.0000 0.0000 18.0100
# 3 32.3223 32.3223 28.7245 0.0000 0.0000 0.0000
# 4 0.0000 0.0000 0.0000 21.1975 0.0000 0.0000
# 5 0.0000 0.0000 0.0000 0.0000 21.1975 0.0000
# 6 -18.0100 18.0100 0.0000 0.0000 0.0000 36.7583
#
#
#
# Elastic Compliance Matrix: (Units=1/GPa)
#
#
# Indices 1 2 3 4 5 6 
#
# 1 0.013728 -0.009252 -0.005036 0.000000 0.000000 0.011259
# 2 -0.009252 0.013728 -0.005036 0.000000 0.000000 -0.011259
# 3 -0.005036 -0.005036 0.046147 0.000000 0.000000 0.000000
# 4 0.000000 0.000000 0.000000 0.047175 0.000000 0.000000
# 5 0.000000 0.000000 0.000000 0.000000 0.047175 0.000000
# 6 0.011259 -0.011259 0.000000 0.000000 0.000000 0.038238
#
#
# Mechanical properties :
#
#
# Convention : Reuss Voigt Hill
#
# Bulk Modulus (GPa) = 28.60909 83.37367 55.99138
# Shear Modulus (GPa) = 19.49376 29.42489 24.45932
#
# Velocity S-wave (km/s) = 3.32291 4.08252 3.72215
# Velocity P-wave (km/s) = 5.56123 8.33352 7.08431
#
# Compressibility (1/GPa) = 0.03495393
#
# Stress axis : x y z
#
# Youngs Moduli (GPa) = 72.84452 72.84452 21.66965
#
# Poissons Ratio (x) = 0.67398 0.10913
# Poissons Ratio (y) = 0.67398 0.10913
# Poissons Ratio (z) = 0.36686 0.36686
#
# Static dielectric constant tensor:
#      x y z
#    x 3.876080 0.000000 0.000000 
#    y 0.000000 3.876080 0.000000 
#    z 0.000000 0.000000 2.872500 
# 
# 
# High freq. dielectric constant tensor:
#      x y z
#    x 1.691620 0.000000 0.000000 
#    y 0.000000 1.691620 0.000000 
#    z 0.000000 0.000000 1.645240 
# 
# From -- ./inp_files/806.got.cif
#   From: 2010.03.12/outbox.cif.g09.slc.cpg/sg84_1_cif.got.tgz:806.got - 2010.04.08 20:07:29.
