data_PCOD8303363
_publ_section_title
;
Structure prediction by ZEFSAII (Michael W. Deem and Ramdas Pophale) SiO2 
 PCOD8303363
Probable space group: P 42/M
;
_chemical_formula_sum "Si O2"
_cell_formula_units_Z 24
_cell_length_a 7.823405
_cell_length_b 7.823405
_cell_length_c 16.985498
_cell_angle_alpha 90.000000
_cell_angle_beta 90.000000
_cell_angle_gamma 90.000000
_cell_volume 1039.608714
_symmetry_space_group_name_H-M "P 42/M"
_symmetry_group_IT_number 84
_symmetry_cell_setting 'tetragonal'
loop_
_space_group_symop_operation_xyz
x,y,z
-y,x,1/2+z
-x,-y,z
y,-x,1/2+z
-x,-y,-z
y,-x,1/2-z
x,y,-z
-y,x,1/2-z
loop_
_atom_site_type_symbol
_atom_site_label
_atom_site_fract_x
_atom_site_fract_y
_atom_site_fract_z
Si Si1 0.566413 0.818886 0.170696
Si Si2 0.643943 0.769232 0.343784
Si Si3 0.716805 0.116261 0.408623
O O1 0.629892 0.730092 0.250833
O O2 0.410594 0.722096 0.125296
O O3 0.730815 0.846133 0.113914
O O4 0.500000 0.000000 0.199310
O O5 0.466295 0.803166 0.387074
O O6 0.758047 0.939227 0.362041
O O7 0.728798 0.072247 0.500000
#
# Coordination Sequence:
#
# PCOD8303363 Si02
#       3
#     8   8   8
#     4  12  23  40  69  99 130 178 229 274 333 410
#     4  11  21  42  68  95 134 174 225 278 331 406
#     4  11  25  43  67 100 136 174 222 281 343 398
#
# _framework density 23.085609999999999
#
# number of rings (size 3 to 8) (size 9 to 14) (size 15 to 20)
#    0.000    0.667    6.667    3.000    0.000    6.000 
#    0.000    5.000    0.000    0.000    0.000    0.000 
#    0.000    0.000    0.000    0.000    0.000    0.000 
#
# Total GULP energy -297469.991054 kJ/mol
# GULP energy per Si atom -12394.582961 kJ/mol
# Density = 2.303307 g / cm^3
# Si number density = 23.085610 Si / 1000 Ang^3
#
#
#
# Elastic Constant Matrix: (Units=GPa)
#
#
# Indices 1 2 3 4 5 6 
#
# 1 93.1366 37.5968 28.7591 0.0000 0.0000 -6.8725
# 2 37.5968 93.1366 28.7591 0.0000 0.0000 6.8725
# 3 28.7591 28.7591 102.6308 0.0000 0.0000 0.0000
# 4 0.0000 0.0000 0.0000 24.0613 0.0000 0.0000
# 5 0.0000 0.0000 0.0000 0.0000 24.0613 0.0000
# 6 -6.8725 6.8725 0.0000 0.0000 0.0000 29.5681
#
#
#
# Elastic Compliance Matrix: (Units=1/GPa)
#
#
# Indices 1 2 3 4 5 6 
#
# 1 0.013914 -0.005190 -0.002445 0.000000 0.000000 0.004440
# 2 -0.005190 0.013914 -0.002445 0.000000 0.000000 -0.004440
# 3 -0.002445 -0.002445 0.011114 0.000000 0.000000 0.000000
# 4 0.000000 0.000000 0.000000 0.041560 0.000000 0.000000
# 5 0.000000 0.000000 0.000000 0.000000 0.041560 0.000000
# 6 0.004440 -0.004440 0.000000 0.000000 0.000000 0.035884
#
#
# Mechanical properties :
#
#
# Convention : Reuss Voigt Hill
#
# Bulk Modulus (GPa) = 53.23666 53.23709 53.23688
# Shear Modulus (GPa) = 27.11970 28.45744 27.78857
#
# Velocity S-wave (km/s) = 3.43117 3.51478 3.47323
# Velocity P-wave (km/s) = 6.22960 6.29145 6.26060
#
# Compressibility (1/GPa) = 0.01878405
#
# Stress axis : x y z
#
# Youngs Moduli (GPa) = 71.86795 71.86795 89.97782
#
# Poissons Ratio (x) = 0.37297 0.21998
# Poissons Ratio (y) = 0.37297 0.21998
# Poissons Ratio (z) = 0.17571 0.17571
#
# Static dielectric constant tensor:
#      x y z
#    x 4.598340 0.000000 0.000000 
#    y 0.000000 4.598340 0.000000 
#    z 0.000000 0.000000 3.902140 
# 
# 
# High freq. dielectric constant tensor:
#      x y z
#    x 1.914080 0.000000 0.000000 
#    y 0.000000 1.914080 0.000000 
#    z 0.000000 0.000000 1.885610 
# 
# From -- ./inp_files/2520.got.cif
#   From: 2010.03.12/outbox.cif.g09.slc.cpg/sg84_2_cif.got.tgz:2520.got - 2010.04.08 20:07:29.
