data_PCOD8303494
_publ_section_title
;
Structure prediction by ZEFSAII (Michael W. Deem and Ramdas Pophale) SiO2 
 PCOD8303494
Probable space group: P 42/N
;
_chemical_formula_sum "Si O2"
_cell_formula_units_Z 64
_cell_length_a 12.543940
_cell_length_b 12.543940
_cell_length_c 22.440602
_cell_angle_alpha 90.000000
_cell_angle_beta 90.000000
_cell_angle_gamma 90.000000
_cell_volume 3531.038390
_symmetry_space_group_name_H-M "P 42/N"
_symmetry_group_IT_number 86
_space_group.IT_coordinate_system_code '2'
_symmetry_cell_setting 'tetragonal'
loop_
_space_group_symop_operation_xyz
x,y,z
-y,1/2+x,1/2+z
1/2-x,1/2-y,z
1/2+y,-x,1/2+z
-x,-y,-z
y,1/2-x,1/2-z
1/2+x,1/2+y,-z
1/2-y,x,1/2-z
loop_
_atom_site_type_symbol
_atom_site_label
_atom_site_fract_x
_atom_site_fract_y
_atom_site_fract_z
Si Si1 0.931323 0.916457 0.278683
Si Si2 0.218180 0.131178 0.163854
Si Si3 0.927794 0.221575 0.634842
Si Si4 0.629853 0.720400 0.170092
Si Si5 0.625334 0.571322 0.063414
Si Si6 0.141436 0.465919 0.248043
Si Si7 0.593540 0.937701 0.566948
Si Si8 0.226399 0.586144 0.356781
O O1 0.901950 0.873901 0.213878
O O2 0.826889 0.939972 0.319317
O O3 0.002308 0.827234 0.312017
O O4 0.985231 0.026778 0.263333
O O5 0.250000 0.250000 0.143045
O O6 0.315629 0.053506 0.181085
O O7 0.150371 0.131484 0.224128
O O8 0.157749 0.069478 0.111805
O O9 0.860999 0.323082 0.655104
O O10 0.840660 0.129774 0.619887
O O11 0.003836 0.266374 0.580682
O O12 0.750000 0.750000 0.185204
O O13 0.616838 0.677466 0.103150
O O14 0.516966 0.505440 0.070070
O O15 0.622956 0.611668 0.995489
O O16 0.222857 0.530965 0.291627
O O17 0.696269 0.003637 0.590404
#
# Coordination Sequence:
#
# PCOD8303494 Si02
#       8
#     8   8   8   8   8   8   8   8
#     4  12  21  32  55  82 116 150 179 226 282 345
#     4  11  20  36  55  82 110 146 183 231 279 332
#     4  10  19  33  56  83 114 145 188 233 280 340
#     4  12  20  35  54  80 116 144 183 223 278 333
#     4  10  20  39  58  84 106 151 194 235 281 335
#     4  11  20  34  55  80 117 148 183 226 287 342
#     4   9  21  38  61  78 110 147 197 233 281 340
#     4   9  19  34  55  84 110 147 187 231 285 341
#
# _framework density 18.124980999999998
#
# number of rings (size 3 to 8) (size 9 to 14) (size 15 to 20)
#    0.000    1.500    3.750    3.750    1.750    0.500 
#    0.000    1.250    0.000    3.000    0.000    0.000 
#    0.000    0.000    0.000    0.000    0.000    0.000 
#
# Total GULP energy -792864.459580 kJ/mol
# GULP energy per Si atom -12388.507181 kJ/mol
# Density = 1.808373 g / cm^3
# Si number density = 18.124981 Si / 1000 Ang^3
#
#
#
# Elastic Constant Matrix: (Units=GPa)
#
#
# Indices 1 2 3 4 5 6 
#
# 1 75.5279 30.2486 43.7838 0.0000 0.0000 -8.3637
# 2 30.2486 75.5279 43.7838 0.0000 0.0000 8.3637
# 3 43.7838 43.7838 113.0333 0.0000 0.0000 0.0000
# 4 0.0000 0.0000 0.0000 22.1756 0.0000 0.0000
# 5 0.0000 0.0000 0.0000 0.0000 22.1756 0.0000
# 6 -8.3637 8.3637 0.0000 0.0000 0.0000 20.9036
#
#
#
# Elastic Compliance Matrix: (Units=1/GPa)
#
#
# Indices 1 2 3 4 5 6 
#
# 1 0.019916 -0.006000 -0.005391 0.000000 0.000000 0.010369
# 2 -0.006000 0.019916 -0.005391 0.000000 0.000000 -0.010369
# 3 -0.005391 -0.005391 0.013023 0.000000 0.000000 0.000000
# 4 0.000000 0.000000 0.000000 0.045095 0.000000 0.000000
# 5 0.000000 0.000000 0.000000 0.000000 0.045095 0.000000
# 6 0.010369 -0.010369 0.000000 0.000000 0.000000 0.056136
#
#
# Mechanical properties :
#
#
# Convention : Reuss Voigt Hill
#
# Bulk Modulus (GPa) = 51.83037 55.52463 53.67750
# Shear Modulus (GPa) = 20.90531 22.80249 21.85390
#
# Velocity S-wave (km/s) = 3.39985 3.55078 3.47613
# Velocity P-wave (km/s) = 6.63854 6.89286 6.76689
#
# Compressibility (1/GPa) = 0.01929371
#
# Stress axis : x y z
#
# Youngs Moduli (GPa) = 50.21051 50.21051 76.78666
#
# Poissons Ratio (x) = 0.30124 0.41393
# Poissons Ratio (y) = 0.30124 0.41393
# Poissons Ratio (z) = 0.27067 0.27067
#
# Static dielectric constant tensor:
#      x y z
#    x 3.515560 0.000000 0.000000 
#    y 0.000000 3.515560 0.000000 
#    z 0.000000 0.000000 3.325160 
# 
# 
# High freq. dielectric constant tensor:
#      x y z
#    x 1.705460 0.000000 0.000000 
#    y 0.000000 1.705460 0.000000 
#    z 0.000000 0.000000 1.683010 
# 
# From -- ./inp_files/4686.got.cif
#   From: 2010.03.12/outbox.cif.g09.slc.cpg/sg86_3_cif.got.tgz:4686.got - 2010.04.08 20:12:58.
