data_PCOD8303696
_publ_section_title
;
Structure prediction by ZEFSAII (Michael W. Deem and Ramdas Pophale) SiO2 
 PCOD8303696
Probable space group: P 42/N
;
_chemical_formula_sum "Si O2"
_cell_formula_units_Z 42
_cell_length_a 14.623554
_cell_length_b 14.623554
_cell_length_c 8.259545
_cell_angle_alpha 90.000000
_cell_angle_beta 90.000000
_cell_angle_gamma 90.000000
_cell_volume 1766.289918
_symmetry_space_group_name_H-M "P 42/N"
_symmetry_group_IT_number 86
_space_group.IT_coordinate_system_code '2'
_symmetry_cell_setting 'tetragonal'
loop_
_space_group_symop_operation_xyz
x,y,z
-y,1/2+x,1/2+z
1/2-x,1/2-y,z
1/2+y,-x,1/2+z
-x,-y,-z
y,1/2-x,1/2-z
1/2+x,1/2+y,-z
1/2-y,x,1/2-z
loop_
_atom_site_type_symbol
_atom_site_label
_atom_site_fract_x
_atom_site_fract_y
_atom_site_fract_z
Si Si1 0.563754 0.763209 0.106406
Si Si2 0.182747 0.616935 0.213137
Si Si3 0.527311 0.144048 0.166402
Si Si4 0.583370 0.967889 0.606938
Si Si5 0.282971 0.920305 0.846529
Si Si6 0.750000 0.750000 0.250000
O O1 0.517305 0.754978 0.283658
O O2 0.669167 0.786412 0.135427
O O3 0.518970 0.849628 0.011326
O O4 0.555876 0.671501 0.999121
O O5 0.263124 0.586032 0.330176
O O6 0.100339 0.547629 0.259257
O O7 0.155410 0.723088 0.246000
O O8 0.225952 0.600220 0.035966
O O9 0.448486 0.124402 0.297997
O O10 0.608465 0.071070 0.190050
O O11 0.500000 0.000000 0.500000
#
# Coordination Sequence:
#
# PCOD8303696 Si02
#       6
#     8   8   8   8   8   2
#     4  11  28  47  72 111 143 204 248 324 381 452
#     4  11  27  41  75 108 153 194 243 324 378 470
#     4  11  25  45  73 107 146 194 247 309 382 454
#     4  11  24  46  72 105 151 195 251 310 385 463
#     4  12  24  45  73 112 149 191 253 308 399 450
#     4  12  32  48  78 100 156 188 274 312 368 468
#
# _framework density 23.778656000000002
#
# number of rings (size 3 to 8) (size 9 to 14) (size 15 to 20)
#    0.000    0.762    3.810    1.714   10.667    3.810 
#    0.000    0.000    0.000    0.000    0.000    0.000 
#    0.000    0.000    0.000    0.000    0.000    0.000 
#
# Total GULP energy -520345.871095 kJ/mol
# GULP energy per Si atom -12389.187407 kJ/mol
# Density = 2.372453 g / cm^3
# Si number density = 23.778656 Si / 1000 Ang^3
#
#
#
# Elastic Constant Matrix: (Units=GPa)
#
#
# Indices 1 2 3 4 5 6 
#
# 1 90.5290 3.4539 36.0039 0.0000 0.0000 3.6432
# 2 3.4539 90.5290 36.0039 0.0000 0.0000 -3.6432
# 3 36.0039 36.0039 134.1575 0.0000 0.0000 0.0000
# 4 0.0000 0.0000 0.0000 42.4145 0.0000 0.0000
# 5 0.0000 0.0000 0.0000 0.0000 42.4145 0.0000
# 6 3.6432 -3.6432 0.0000 0.0000 0.0000 31.8638
#
#
#
# Elastic Compliance Matrix: (Units=1/GPa)
#
#
# Indices 1 2 3 4 5 6 
#
# 1 0.012495 0.000900 -0.003595 0.000000 0.000000 -0.001326
# 2 0.000900 0.012495 -0.003595 0.000000 0.000000 0.001326
# 3 -0.003595 -0.003595 0.009383 0.000000 0.000000 0.000000
# 4 0.000000 0.000000 0.000000 0.023577 0.000000 0.000000
# 5 0.000000 0.000000 0.000000 0.000000 0.023577 0.000000
# 6 -0.001326 0.001326 0.000000 0.000000 0.000000 0.031687
#
#
# Mechanical properties :
#
#
# Convention : Reuss Voigt Hill
#
# Bulk Modulus (GPa) = 45.88530 51.79320 48.83925
# Shear Modulus (GPa) = 37.57775 39.32214 38.44995
#
# Velocity S-wave (km/s) = 3.97963 4.07095 4.02555
# Velocity P-wave (km/s) = 6.36045 6.62763 6.49542
#
# Compressibility (1/GPa) = 0.02179347
#
# Stress axis : x y z
#
# Youngs Moduli (GPa) = 80.03306 80.03306 106.57210
#
# Poissons Ratio (x) = -0.07199 0.38309
# Poissons Ratio (y) = -0.07199 0.38309
# Poissons Ratio (z) = 0.28769 0.28769
#
# Static dielectric constant tensor:
#      x y z
#    x 4.625400 0.000000 0.000000 
#    y 0.000000 4.625400 0.000000 
#    z 0.000000 0.000000 4.338300 
# 
# 
# High freq. dielectric constant tensor:
#      x y z
#    x 1.943220 0.000000 0.000000 
#    y 0.000000 1.943220 0.000000 
#    z 0.000000 0.000000 1.943930 
# 
# From -- ./inp_files/1181.got.cif
#   From: 2010.03.12/outbox.cif.g09.slc.cpg/sg86_1_cif.got.tgz:1181.got - 2010.04.08 20:12:58.
