data_PCOD8303716
_publ_section_title
;
Structure prediction by ZEFSAII (Michael W. Deem and Ramdas Pophale) SiO2 
 PCOD8303716
Probable space group: P 42/N
;
_chemical_formula_sum "Si O2"
_cell_formula_units_Z 22
_cell_length_a 5.309848
_cell_length_b 5.309848
_cell_length_c 30.479114
_cell_angle_alpha 90.000000
_cell_angle_beta 90.000000
_cell_angle_gamma 90.000000
_cell_volume 859.342946
_symmetry_space_group_name_H-M "P 42/N"
_symmetry_group_IT_number 86
_space_group.IT_coordinate_system_code '2'
_symmetry_cell_setting 'tetragonal'
loop_
_space_group_symop_operation_xyz
x,y,z
-y,1/2+x,1/2+z
1/2-x,1/2-y,z
1/2+y,-x,1/2+z
-x,-y,-z
y,1/2-x,1/2-z
1/2+x,1/2+y,-z
1/2-y,x,1/2-z
loop_
_atom_site_type_symbol
_atom_site_label
_atom_site_fract_x
_atom_site_fract_y
_atom_site_fract_z
Si Si1 0.250000 0.750000 0.695192
Si Si2 0.250000 0.250000 0.750000
Si Si3 0.096426 0.499692 0.049166
Si Si4 0.889126 0.497381 0.139331
O O1 0.176364 0.505589 0.723921
O O2 0.481143 0.666046 0.662104
O O3 0.250000 0.250000 0.057624
O O4 0.882133 0.493467 0.086135
O O5 0.250000 0.750000 0.057839
O O6 0.000000 0.500000 0.000000
O O7 0.750000 0.750000 0.155697
O O8 0.750000 0.250000 0.157580
#
# Coordination Sequence:
#
# PCOD8303716 Si02
#       4
#     4   2   8   8
#     4  12  30  58  82 126 160 216 274 346 428 498
#     4  12  32  52  88 116 164 208 276 352 420 508
#     4  12  24  43  70 110 161 211 271 329 392 477
#     4  12  27  49  81 116 161 212 270 334 409 489
#
# _framework density 25.600950999999998
#
# number of rings (size 3 to 8) (size 9 to 14) (size 15 to 20)
#    0.000    0.000    3.636    5.455    2.545    3.636 
#    0.000    0.000    0.000    0.000    0.000    0.000 
#    0.000    0.000    0.000    0.000    0.000    0.000 
#
# Total GULP energy -272572.317743 kJ/mol
# GULP energy per Si atom -12389.650807 kJ/mol
# Density = 2.554268 g / cm^3
# Si number density = 25.600951 Si / 1000 Ang^3
#
#
#
# Elastic Constant Matrix: (Units=GPa)
#
#
# Indices 1 2 3 4 5 6 
#
# 1 188.8456 75.8596 51.6860 0.0000 0.0000 -1.8457
# 2 75.8596 188.8456 51.6860 0.0000 0.0000 1.8457
# 3 51.6860 51.6860 161.9878 0.0000 0.0000 0.0000
# 4 0.0000 0.0000 0.0000 29.1162 0.0000 0.0000
# 5 0.0000 0.0000 0.0000 0.0000 29.1162 0.0000
# 6 -1.8457 1.8457 0.0000 0.0000 0.0000 52.5742
#
#
#
# Elastic Compliance Matrix: (Units=1/GPa)
#
#
# Indices 1 2 3 4 5 6 
#
# 1 0.006588 -0.002273 -0.001377 0.000000 0.000000 0.000311
# 2 -0.002273 0.006588 -0.001377 0.000000 0.000000 -0.000311
# 3 -0.001377 -0.001377 0.007052 0.000000 0.000000 0.000000
# 4 0.000000 0.000000 0.000000 0.034345 0.000000 0.000000
# 5 0.000000 0.000000 0.000000 0.000000 0.034345 0.000000
# 6 0.000311 -0.000311 0.000000 0.000000 0.000000 0.019043
#
#
# Mechanical properties :
#
#
# Convention : Reuss Voigt Hill
#
# Bulk Modulus (GPa) = 98.27836 99.79357 99.03597
# Shear Modulus (GPa) = 41.18412 46.19118 43.68765
#
# Velocity S-wave (km/s) = 4.01520 4.25228 4.13544
# Velocity P-wave (km/s) = 7.74388 7.94822 7.84672
#
# Compressibility (1/GPa) = 0.01017518
#
# Stress axis : x y z
#
# Youngs Moduli (GPa) = 151.78737 151.78737 141.80359
#
# Poissons Ratio (x) = 0.34496 0.19526
# Poissons Ratio (y) = 0.34496 0.19526
# Poissons Ratio (z) = 0.20901 0.20901
#
# Static dielectric constant tensor:
#      x y z
#    x 4.792610 0.000000 0.000000 
#    y 0.000000 4.792610 0.000000 
#    z 0.000000 0.000000 5.673220 
# 
# 
# High freq. dielectric constant tensor:
#      x y z
#    x 2.023640 0.000000 0.000000 
#    y 0.000000 2.023640 0.000000 
#    z 0.000000 0.000000 2.053690 
# 
# From -- ./inp_files/4971.got.cif
#   From: 2010.03.12/outbox.cif.g09.slc.cpg/sg86_3_cif.got.tgz:4971.got - 2010.04.08 20:12:58.
