data_PCOD8303408
_publ_section_title
;
Structure prediction by ZEFSAII (Michael W. Deem and Ramdas Pophale) SiO2 
 PCOD8303408
Probable space group: P 4/N
;
_chemical_formula_sum "Si O2"
_cell_formula_units_Z 48
_cell_length_a 17.733712
_cell_length_b 17.733712
_cell_length_c 8.604333
_cell_angle_alpha 90.000000
_cell_angle_beta 90.000000
_cell_angle_gamma 90.000000
_cell_volume 2705.929717
_symmetry_space_group_name_H-M "P 4/N"
_symmetry_group_IT_number 85
_symmetry_cell_setting 'tetragonal'
loop_
_space_group_symop_operation_xyz
x,y,z
1/2-y,x,z
1/2-x,1/2-y,z
y,1/2-x,z
-x,-y,-z
1/2+y,-x,-z
1/2+x,1/2+y,-z
-y,1/2+x,-z
loop_
_atom_site_type_symbol
_atom_site_label
_atom_site_fract_x
_atom_site_fract_y
_atom_site_fract_z
Si Si1 0.007438 0.007438 0.246107
Si Si2 0.587913 0.587913 0.471733
Si Si3 0.033397 0.750000 0.083755
Si Si4 0.089938 0.589938 1.000000
Si Si5 0.868535 0.750000 0.047956
Si Si6 0.750000 0.935645 0.364717
O O1 0.947830 0.947830 0.315839
O O2 0.052020 0.052020 0.376786
O O3 0.067977 0.961906 0.145467
O O4 0.961906 0.067977 0.145467
O O5 0.570874 0.676951 0.473991
O O6 0.676950 0.570874 0.473991
O O7 0.080952 0.677274 0.039301
O O8 0.954227 0.750000 0.985576
O O9 0.015150 0.750000 0.269119
O O10 0.080952 0.822726 0.039302
O O11 0.824758 0.824758 0.989320
O O12 0.868776 0.750000 0.236703
#
# Coordination Sequence:
#
# PCOD8303408 Si02
#       6
#     8   8   8   8   8   8
#     4  10  22  36  58  85 109 153 192 247 275 353
#     4  11  20  35  58  83 117 148 196 231 295 333
#     4  10  21  34  59  83 111 155 189 250 291 344
#     4  11  22  39  58  84 118 147 203 242 300 346
#     4   9  16  28  51  84 109 148 191 225 278 346
#     4  10  17  33  54  85 112 151 186 234 277 357
#
# _framework density 17.738818999999999
#
# number of rings (size 3 to 8) (size 9 to 14) (size 15 to 20)
#    1.000    0.833    5.000    0.000    4.667    2.000 
#    0.000    0.000    0.000    0.000    0.000    0.000 
#    0.000    0.000    0.000    0.000    0.000    0.000 
#
# Total GULP energy -595008.882597 kJ/mol
# GULP energy per Si atom -12396.018387 kJ/mol
# Density = 1.769845 g / cm^3
# Si number density = 17.738819 Si / 1000 Ang^3
#
#
#
# Elastic Constant Matrix: (Units=GPa)
#
#
# Indices 1 2 3 4 5 6 
#
# 1 122.6244 74.6614 33.7203 0.0000 0.0000 0.0000
# 2 74.6614 122.6244 33.7203 0.0000 0.0000 0.0000
# 3 33.7203 33.7203 63.4235 0.0000 0.0000 0.0000
# 4 0.0000 0.0000 0.0000 16.0756 0.0000 0.0000
# 5 0.0000 0.0000 0.0000 0.0000 16.0756 0.0000
# 6 0.0000 0.0000 0.0000 0.0000 0.0000 29.1559
#
#
#
# Elastic Compliance Matrix: (Units=1/GPa)
#
#
# Indices 1 2 3 4 5 6 
#
# 1 0.013522 -0.007327 -0.003293 0.000000 0.000000 0.000000
# 2 -0.007327 0.013522 -0.003293 0.000000 0.000000 0.000000
# 3 -0.003293 -0.003293 0.019269 0.000000 0.000000 0.000000
# 4 0.000000 0.000000 0.000000 0.062206 0.000000 0.000000
# 5 0.000000 0.000000 0.000000 0.000000 0.062206 0.000000
# 6 0.000000 0.000000 0.000000 0.000000 0.000000 0.034298
#
#
# Mechanical properties :
#
#
# Convention : Reuss Voigt Hill
#
# Bulk Modulus (GPa) = 54.09959 65.87513 59.98736
# Shear Modulus (GPa) = 20.91928 23.36612 22.14270
#
# Velocity S-wave (km/s) = 3.43781 3.63330 3.53691
# Velocity P-wave (km/s) = 6.80604 7.40392 7.11126
#
# Compressibility (1/GPa) = 0.01848443
#
# Stress axis : x y z
#
# Youngs Moduli (GPa) = 73.95342 73.95342 51.89649
#
# Poissons Ratio (x) = 0.54189 0.17092
# Poissons Ratio (y) = 0.54189 0.17092
# Poissons Ratio (z) = 0.24357 0.24357
#
# Static dielectric constant tensor:
#      x y z
#    x 3.185680 0.000000 0.000000 
#    y 0.000000 3.185680 0.000000 
#    z 0.000000 0.000000 2.981600 
# 
# 
# High freq. dielectric constant tensor:
#      x y z
#    x 1.686370 0.000000 0.000000 
#    y 0.000000 1.686370 0.000000 
#    z 0.000000 0.000000 1.655040 
# 
# From -- ./inp_files/1059.got.cif
#   From: 2010.03.12/outbox.cif.g09.slc.cpg/sg85_cif.got.tgz:1059.got - 2010.04.08 20:10:46.
