data_PCOD8303145
_publ_section_title
;
Structure prediction by ZEFSAII (Michael W. Deem and Ramdas Pophale) SiO2 
 PCOD8303145
Probable space group: P 42/M
;
_chemical_formula_sum "Si O2"
_cell_formula_units_Z 32
_cell_length_a 9.052023
_cell_length_b 9.052023
_cell_length_c 18.669480
_cell_angle_alpha 90.000000
_cell_angle_beta 90.000000
_cell_angle_gamma 90.000000
_cell_volume 1529.760769
_symmetry_space_group_name_H-M "P 42/M"
_symmetry_group_IT_number 84
_symmetry_cell_setting 'tetragonal'
loop_
_space_group_symop_operation_xyz
x,y,z
-y,x,1/2+z
-x,-y,z
y,-x,1/2+z
-x,-y,-z
y,-x,1/2-z
x,y,-z
-y,x,1/2-z
loop_
_atom_site_type_symbol
_atom_site_label
_atom_site_fract_x
_atom_site_fract_y
_atom_site_fract_z
Si Si1 0.284925 0.563425 0.277002
Si Si2 0.157497 0.926232 0.578050
Si Si3 0.217186 0.056937 0.722979
Si Si4 0.418131 0.154051 0.919997
O O1 0.417065 0.681350 0.268382
O O2 0.130419 0.631848 0.250243
O O3 0.269887 0.520831 0.361103
O O4 0.236180 0.946746 0.500000
O O5 0.133367 0.754852 0.595790
O O6 0.248891 0.003619 0.641645
O O7 0.000000 0.000000 0.574939
O O8 0.081868 0.174621 0.726325
O O9 0.500000 0.000000 0.910494
O O10 0.446467 0.217202 0.000000
#
# Coordination Sequence:
#
# PCOD8303145 Si02
#       4
#     8   8   8   8
#     4  11  26  42  59  90 127 164 211 255 314 382
#     4  10  19  33  54  92 127 150 196 257 306 363
#     4  11  20  36  61  90 118 159 205 258 310 363
#     4  10  22  39  64  92 123 166 208 254 312 377
#
# _framework density 20.918301
#
# number of rings (size 3 to 8) (size 9 to 14) (size 15 to 20)
#    0.000    1.500    5.000    0.000    7.000    0.000 
#    0.000    3.750    0.000    3.000    0.000    0.000 
#    0.000    0.000    0.000    0.000    0.000    0.000 
#
# Total GULP energy -396686.616668 kJ/mol
# GULP energy per Si atom -12396.456771 kJ/mol
# Density = 2.087069 g / cm^3
# Si number density = 20.918301 Si / 1000 Ang^3
#
#
#
# Elastic Constant Matrix: (Units=GPa)
#
#
# Indices 1 2 3 4 5 6 
#
# 1 53.6725 17.4402 51.3411 0.0000 0.0000 4.7268
# 2 17.4402 53.6725 51.3411 0.0000 0.0000 -4.7268
# 3 51.3411 51.3411 199.9513 0.0000 0.0000 0.0000
# 4 0.0000 0.0000 0.0000 36.4187 0.0000 0.0000
# 5 0.0000 0.0000 0.0000 0.0000 36.4187 0.0000
# 6 4.7268 -4.7268 0.0000 0.0000 0.0000 40.9924
#
#
#
# Elastic Compliance Matrix: (Units=1/GPa)
#
#
# Indices 1 2 3 4 5 6 
#
# 1 0.025402 -0.003054 -0.005738 0.000000 0.000000 -0.003281
# 2 -0.003054 0.025402 -0.005738 0.000000 0.000000 0.003281
# 3 -0.005738 -0.005738 0.007948 0.000000 0.000000 0.000000
# 4 0.000000 0.000000 0.000000 0.027458 0.000000 0.000000
# 5 0.000000 0.000000 0.000000 0.000000 0.027458 0.000000
# 6 -0.003281 0.003281 0.000000 0.000000 0.000000 0.025151
#
#
# Mechanical properties :
#
#
# Convention : Reuss Voigt Hill
#
# Bulk Modulus (GPa) = 33.68051 60.83791 47.25921
# Shear Modulus (GPa) = 28.12502 35.24423 31.68462
#
# Velocity S-wave (km/s) = 3.67074 4.10915 3.89612
# Velocity P-wave (km/s) = 5.83967 7.18750 6.54836
#
# Compressibility (1/GPa) = 0.02969076
#
# Stress axis : x y z
#
# Youngs Moduli (GPa) = 39.36727 39.36727 125.81801
#
# Poissons Ratio (x) = 0.12023 0.72197
# Poissons Ratio (y) = 0.12023 0.72197
# Poissons Ratio (z) = 0.22590 0.22590
#
# Static dielectric constant tensor:
#      x y z
#    x 3.613440 0.000000 0.000000 
#    y 0.000000 3.613440 0.000000 
#    z 0.000000 0.000000 4.746210 
# 
# 
# High freq. dielectric constant tensor:
#      x y z
#    x 1.797850 0.000000 0.000000 
#    y 0.000000 1.797850 0.000000 
#    z 0.000000 0.000000 1.840380 
# 
# From -- ./inp_files/4090.got.cif
#   From: 2010.03.12/outbox.cif.g09.slc.cpg/sg84_3_cif.got.tgz:4090.got - 2010.04.08 20:07:29.
