data_PCOD8303381
_publ_section_title
;
Structure prediction by ZEFSAII (Michael W. Deem and Ramdas Pophale) SiO2 
 PCOD8303381
Probable space group: P 42/M
;
_chemical_formula_sum "Si O2"
_cell_formula_units_Z 48
_cell_length_a 9.233250
_cell_length_b 9.233250
_cell_length_c 27.897754
_cell_angle_alpha 90.000000
_cell_angle_beta 90.000000
_cell_angle_gamma 90.000000
_cell_volume 2378.364587
_symmetry_space_group_name_H-M "P 42/M"
_symmetry_group_IT_number 84
_symmetry_cell_setting 'tetragonal'
loop_
_space_group_symop_operation_xyz
x,y,z
-y,x,1/2+z
-x,-y,z
y,-x,1/2+z
-x,-y,-z
y,-x,1/2-z
x,y,-z
-y,x,1/2-z
loop_
_atom_site_type_symbol
_atom_site_label
_atom_site_fract_x
_atom_site_fract_y
_atom_site_fract_z
Si Si1 0.910366 0.857105 0.947743
Si Si2 0.088638 0.776975 0.303927
Si Si3 0.912304 0.219979 0.804171
Si Si4 0.104980 0.632080 0.102566
Si Si5 0.393696 0.130152 0.104459
Si Si6 0.586098 0.354938 0.053108
O O1 0.752791 0.886807 0.925822
O O2 0.012091 0.768676 0.912828
O O3 0.888415 0.782071 0.000000
O O4 0.000000 0.000000 0.955582
O O5 0.110874 0.721257 0.249659
O O6 0.138713 0.648975 0.339417
O O7 0.921217 0.814679 0.313550
O O8 0.184085 0.919339 0.312545
O O9 0.862192 0.345634 0.840830
O O10 0.254169 0.615677 0.073977
O O11 0.000000 0.500000 0.092161
O O12 0.487003 0.268509 0.090269
O O13 0.500000 0.000000 0.092751
O O14 0.500000 0.500000 0.045553
O O15 0.602212 0.281229 0.000000
#
# Coordination Sequence:
#
# PCOD8303381 Si02
#       6
#     8   8   8   8   8   8
#     4  11  23  39  62  91 122 160 213 266 314 373
#     4   9  18  35  64  93 125 161 203 256 316 372
#     4   9  18  36  62  96 124 156 206 262 310 371
#     4  12  24  40  65  92 123 163 218 272 315 380
#     4  12  23  37  63  92 128 164 206 259 322 386
#     4  11  26  45  62  86 127 174 213 256 325 393
#
# _framework density 20.181936
#
# number of rings (size 3 to 8) (size 9 to 14) (size 15 to 20)
#    0.000    1.333    1.667    6.000    0.000    6.000 
#    0.000    0.000    0.000    0.000    0.000    0.000 
#    0.000    0.000    0.000    0.000    0.000    0.000 
#
# Total GULP energy -595039.230118 kJ/mol
# GULP energy per Si atom -12396.650627 kJ/mol
# Density = 2.013600 g / cm^3
# Si number density = 20.181936 Si / 1000 Ang^3
#
#
#
# Elastic Constant Matrix: (Units=GPa)
#
#
# Indices 1 2 3 4 5 6 
#
# 1 99.7158 37.4031 56.0741 0.0000 0.0000 -0.2744
# 2 37.4031 99.7158 56.0741 0.0000 0.0000 0.2744
# 3 56.0741 56.0741 143.9575 0.0000 0.0000 0.0000
# 4 0.0000 0.0000 0.0000 30.8685 0.0000 0.0000
# 5 0.0000 0.0000 0.0000 0.0000 30.8685 0.0000
# 6 -0.2744 0.2744 0.0000 0.0000 0.0000 35.8140
#
#
#
# Elastic Compliance Matrix: (Units=1/GPa)
#
#
# Indices 1 2 3 4 5 6 
#
# 1 0.013376 -0.002673 -0.004169 0.000000 0.000000 0.000123
# 2 -0.002673 0.013376 -0.004169 0.000000 0.000000 -0.000123
# 3 -0.004169 -0.004169 0.010194 0.000000 0.000000 0.000000
# 4 0.000000 0.000000 0.000000 0.032395 0.000000 0.000000
# 5 0.000000 0.000000 0.000000 0.000000 0.032395 0.000000
# 6 0.000123 -0.000123 0.000000 0.000000 0.000000 0.027924
#
#
# Mechanical properties :
#
#
# Convention : Reuss Voigt Hill
#
# Bulk Modulus (GPa) = 67.00634 71.38798 69.19716
# Shear Modulus (GPa) = 31.91676 32.43273 32.17474
#
# Velocity S-wave (km/s) = 3.98106 4.01311 3.99712
# Velocity P-wave (km/s) = 7.37598 7.54469 7.46081
#
# Compressibility (1/GPa) = 0.01492396
#
# Stress axis : x y z
#
# Youngs Moduli (GPa) = 74.76137 74.76137 98.09503
#
# Poissons Ratio (x) = 0.19986 0.40895
# Poissons Ratio (y) = 0.19986 0.40895
# Poissons Ratio (z) = 0.31167 0.31167
#
# Static dielectric constant tensor:
#      x y z
#    x 3.523560 0.000000 0.000000 
#    y 0.000000 3.523560 0.000000 
#    z 0.000000 0.000000 4.037450 
# 
# 
# High freq. dielectric constant tensor:
#      x y z
#    x 1.777060 0.000000 0.000000 
#    y 0.000000 1.777060 0.000000 
#    z 0.000000 0.000000 1.811350 
# 
# From -- ./inp_files/5820.got.cif
#   From: 2010.03.12/outbox.cif.g09.slc.cpg/sg84_3_cif.got.tgz:5820.got - 2010.04.08 20:07:29.
