data_PCOD8303066
_publ_section_title
;
Structure prediction by ZEFSAII (Michael W. Deem and Ramdas Pophale) SiO2 
 PCOD8303066
Probable space group: P 42/M
;
_chemical_formula_sum "Si O2"
_cell_formula_units_Z 64
_cell_length_a 17.020054
_cell_length_b 17.020054
_cell_length_c 12.394465
_cell_angle_alpha 90.000000
_cell_angle_beta 90.000000
_cell_angle_gamma 90.000000
_cell_volume 3590.456362
_symmetry_space_group_name_H-M "P 42/M"
_symmetry_group_IT_number 84
_symmetry_cell_setting 'tetragonal'
loop_
_space_group_symop_operation_xyz
x,y,z
-y,x,1/2+z
-x,-y,z
y,-x,1/2+z
-x,-y,-z
y,-x,1/2-z
x,y,-z
-y,x,1/2-z
loop_
_atom_site_type_symbol
_atom_site_label
_atom_site_fract_x
_atom_site_fract_y
_atom_site_fract_z
Si Si1 0.318325 0.070969 0.882493
Si Si2 0.230981 0.611553 0.376250
Si Si3 0.128581 0.158559 0.371861
Si Si4 0.792509 0.985051 0.721385
Si Si5 0.057993 0.428459 0.314012
Si Si6 0.227163 0.437918 0.380039
Si Si7 0.719377 0.238208 0.753381
Si Si8 0.096747 0.327636 0.122013
O O1 0.385759 0.136243 0.869252
O O2 0.251193 0.081763 0.793069
O O3 0.354334 0.984306 0.868941
O O4 0.278644 0.077477 0.000000
O O5 0.258507 0.628436 0.500000
O O6 0.258681 0.523880 0.339846
O O7 0.260341 0.676297 0.292003
O O8 0.113879 0.169473 0.500000
O O9 0.049016 0.172966 0.304496
O O10 0.199538 0.218355 0.337634
O O11 0.146777 0.066557 0.347900
O O12 0.734188 0.026249 0.637115
O O13 0.133082 0.446040 0.386283
O O14 0.083801 0.405410 0.193130
O O15 0.000000 0.500000 0.307994
O O16 0.259300 0.422416 0.500000
O O17 0.253105 0.365906 0.306258
O O18 0.713128 0.178966 0.652985
O O19 0.099818 0.356235 0.000000
#
# Coordination Sequence:
#
# PCOD8303066 Si02
#       8
#     8   8   8   8   8   8   8   8
#     4  10  18  30  50  76 105 136 172 213 266 325
#     4  10  19  32  56  84 109 138 176 220 265 320
#     4  11  22  38  57  76 106 143 183 231 277 324
#     4  10  21  36  51  75 101 136 186 229 274 314
#     4  10  18  28  47  75 111 140 168 215 266 323
#     4  10  20  33  53  83 112 141 175 219 272 323
#     4  10  20  36  57  79 110 142 180 219 271 327
#     4   9  19  33  49  69 100 142 182 217 259 317
#
# _framework density 17.825032
#
# number of rings (size 3 to 8) (size 9 to 14) (size 15 to 20)
#    0.000    2.000    2.500    2.625    0.000    1.000 
#    0.000    2.500    0.000    7.875    0.000    1.750 
#    0.000    0.000    0.000    0.000    0.000    0.000 
#
# Total GULP energy -793065.994658 kJ/mol
# GULP energy per Si atom -12391.656167 kJ/mol
# Density = 1.778446 g / cm^3
# Si number density = 17.825032 Si / 1000 Ang^3
#
#
#
# Elastic Constant Matrix: (Units=GPa)
#
#
# Indices 1 2 3 4 5 6 
#
# 1 67.3494 15.3202 20.8751 0.0000 0.0000 -3.2357
# 2 15.3202 67.3494 20.8751 0.0000 0.0000 3.2357
# 3 20.8751 20.8751 83.5959 0.0000 0.0000 0.0000
# 4 0.0000 0.0000 0.0000 19.9751 0.0000 0.0000
# 5 0.0000 0.0000 0.0000 0.0000 19.9751 0.0000
# 6 -3.2357 3.2357 0.0000 0.0000 0.0000 24.7513
#
#
#
# Elastic Compliance Matrix: (Units=1/GPa)
#
#
# Indices 1 2 3 4 5 6 
#
# 1 0.016690 -0.002848 -0.003457 0.000000 0.000000 0.002554
# 2 -0.002848 0.016690 -0.003457 0.000000 0.000000 -0.002554
# 3 -0.003457 -0.003457 0.013689 0.000000 0.000000 0.000000
# 4 0.000000 0.000000 0.000000 0.050062 0.000000 0.000000
# 5 0.000000 0.000000 0.000000 0.000000 0.050062 0.000000
# 6 0.002554 -0.002554 0.000000 0.000000 0.000000 0.041070
#
#
# Mechanical properties :
#
#
# Convention : Reuss Voigt Hill
#
# Bulk Modulus (GPa) = 36.30237 36.93727 36.61982
# Shear Modulus (GPa) = 23.04502 23.68859 23.36681
#
# Velocity S-wave (km/s) = 3.59952 3.64943 3.62456
# Velocity P-wave (km/s) = 6.13885 6.20685 6.17294
#
# Compressibility (1/GPa) = 0.02754641
#
# Stress axis : x y z
#
# Youngs Moduli (GPa) = 59.91670 59.91670 73.05344
#
# Poissons Ratio (x) = 0.17063 0.25251
# Poissons Ratio (y) = 0.17063 0.25251
# Poissons Ratio (z) = 0.20711 0.20711
#
# Static dielectric constant tensor:
#      x y z
#    x 3.226370 0.000000 0.000000 
#    y 0.000000 3.226370 0.000000 
#    z 0.000000 0.000000 3.211520 
# 
# 
# High freq. dielectric constant tensor:
#      x y z
#    x 1.676210 0.000000 0.000000 
#    y 0.000000 1.676210 0.000000 
#    z 0.000000 0.000000 1.687080 
# 
# From -- ./inp_files/2365.got.cif
#   From: 2010.03.12/outbox.cif.g09.slc.cpg/sg84_2_cif.got.tgz:2365.got - 2010.04.08 20:07:29.
