data_PCOD8303539
_publ_section_title
;
Structure prediction by ZEFSAII (Michael W. Deem and Ramdas Pophale) SiO2 
 PCOD8303539
Probable space group: P 42/N
;
_chemical_formula_sum "Si O2"
_cell_formula_units_Z 52
_cell_length_a 17.881481
_cell_length_b 17.881481
_cell_length_c 8.484069
_cell_angle_alpha 90.000000
_cell_angle_beta 90.000000
_cell_angle_gamma 90.000000
_cell_volume 2712.758688
_symmetry_space_group_name_H-M "P 42/N"
_symmetry_group_IT_number 86
_space_group.IT_coordinate_system_code '2'
_symmetry_cell_setting 'tetragonal'
loop_
_space_group_symop_operation_xyz
x,y,z
-y,1/2+x,1/2+z
1/2-x,1/2-y,z
1/2+y,-x,1/2+z
-x,-y,-z
y,1/2-x,1/2-z
1/2+x,1/2+y,-z
1/2-y,x,1/2-z
loop_
_atom_site_type_symbol
_atom_site_label
_atom_site_fract_x
_atom_site_fract_y
_atom_site_fract_z
Si Si1 0.603283 0.437427 0.526678
Si Si2 0.971609 0.502612 0.754147
Si Si3 0.446185 0.391019 0.950121
Si Si4 0.764943 0.003780 0.354977
Si Si5 0.804959 0.852361 0.223148
Si Si6 0.373293 0.721391 0.349483
Si Si7 0.250000 0.750000 0.597943
O O1 0.559416 0.429221 0.359929
O O2 0.569001 0.503545 0.630901
O O3 0.689956 0.454368 0.492296
O O4 0.600485 0.363343 0.630441
O O5 0.914334 0.538465 0.629448
O O6 0.041858 0.464288 0.668932
O O7 0.498454 0.320557 0.911259
O O8 0.358858 0.366865 0.927268
O O9 0.806106 0.924729 0.333646
O O10 0.767317 0.050474 0.188876
O O11 0.836018 0.781491 0.325806
O O12 0.326963 0.746951 0.500449
O O13 0.323789 0.736533 0.196457
#
# Coordination Sequence:
#
# PCOD8303539 Si02
#       7
#     8   8   8   8   8   8   4
#     4  11  22  39  57  86 121 156 198 256 297 359
#     4  10  22  37  61  87 120 154 198 258 298 352
#     4  10  20  38  61  90 116 158 203 245 302 365
#     4  11  21  36  62  88 119 161 203 241 302 366
#     4   9  19  36  60  90 120 153 197 247 297 365
#     4  11  22  38  56  83 120 162 205 249 301 357
#     4  10  24  38  54  82 122 164 210 248 298 356
#
# _framework density 19.168679000000001
#
# number of rings (size 3 to 8) (size 9 to 14) (size 15 to 20)
#    0.000    1.692    4.615    0.000    0.000    3.692 
#    0.000    1.538    0.000    0.000    0.000    0.000 
#    0.000    0.000    0.000    0.000    0.000    0.000 
#
# Total GULP energy -644512.327125 kJ/mol
# GULP energy per Si atom -12394.467829 kJ/mol
# Density = 1.912505 g / cm^3
# Si number density = 19.168679 Si / 1000 Ang^3
#
#
#
# Elastic Constant Matrix: (Units=GPa)
#
#
# Indices 1 2 3 4 5 6 
#
# 1 103.3120 42.6313 46.6726 0.0000 0.0000 3.2460
# 2 42.6313 103.3120 46.6726 0.0000 0.0000 -3.2460
# 3 46.6726 46.6726 106.5578 0.0000 0.0000 0.0000
# 4 0.0000 0.0000 0.0000 18.5546 0.0000 0.0000
# 5 0.0000 0.0000 0.0000 0.0000 18.5546 0.0000
# 6 3.2460 -3.2460 0.0000 0.0000 0.0000 26.5408
#
#
#
# Elastic Compliance Matrix: (Units=1/GPa)
#
#
# Indices 1 2 3 4 5 6 
#
# 1 0.013108 -0.003590 -0.004169 0.000000 0.000000 -0.002042
# 2 -0.003590 0.013108 -0.004169 0.000000 0.000000 0.002042
# 3 -0.004169 -0.004169 0.013037 0.000000 0.000000 0.000000
# 4 0.000000 0.000000 0.000000 0.053895 0.000000 0.000000
# 5 0.000000 0.000000 0.000000 0.000000 0.053895 0.000000
# 6 -0.002042 0.002042 0.000000 0.000000 0.000000 0.038177
#
#
# Mechanical properties :
#
#
# Convention : Reuss Voigt Hill
#
# Bulk Modulus (GPa) = 64.94652 65.01498 64.98075
# Shear Modulus (GPa) = 23.34159 24.54366 23.94263
#
# Velocity S-wave (km/s) = 3.49333 3.58216 3.53802
# Velocity P-wave (km/s) = 7.08705 7.14843 7.11781
#
# Compressibility (1/GPa) = 0.01539728
#
# Stress axis : x y z
#
# Youngs Moduli (GPa) = 76.28704 76.28704 76.70606
#
# Poissons Ratio (x) = 0.27386 0.31980
# Poissons Ratio (y) = 0.27386 0.31980
# Poissons Ratio (z) = 0.31805 0.31805
#
# Static dielectric constant tensor:
#      x y z
#    x 3.674190 0.000000 0.000000 
#    y 0.000000 3.674190 0.000000 
#    z 0.000000 0.000000 3.337870 
# 
# 
# High freq. dielectric constant tensor:
#      x y z
#    x 1.757030 0.000000 0.000000 
#    y 0.000000 1.757030 0.000000 
#    z 0.000000 0.000000 1.719720 
# 
# From -- ./inp_files/1415.got.cif
#   From: 2010.03.12/outbox.cif.g09.slc.cpg/sg86_1_cif.got.tgz:1415.got - 2010.04.08 20:12:58.
