data_PCOD8303881
_publ_section_title
;
Structure prediction by ZEFSAII (Michael W. Deem and Ramdas Pophale) SiO2 
 PCOD8303881
Probable space group: I 4/M
;
_chemical_formula_sum "Si O2"
_cell_formula_units_Z 64
_cell_length_a 19.979443
_cell_length_b 19.979443
_cell_length_c 8.611600
_cell_angle_alpha 90.000000
_cell_angle_beta 90.000000
_cell_angle_gamma 90.000000
_cell_volume 3437.562493
_symmetry_space_group_name_H-M "I 4/M"
_symmetry_group_IT_number 87
_symmetry_cell_setting 'tetragonal'
loop_
_space_group_symop_operation_xyz
x,y,z
-y,x,z
-x,-y,z
y,-x,z
-x,-y,-z
y,-x,-z
x,y,-z
-y,x,-z
1/2+x,1/2+y,1/2+z
1/2-y,1/2+x,1/2+z
1/2-x,1/2-y,1/2+z
1/2+y,1/2-x,1/2+z
1/2-x,1/2-y,1/2-z
1/2+y,1/2-x,1/2-z
1/2+x,1/2+y,1/2-z
1/2-y,1/2+x,1/2-z
loop_
_atom_site_type_symbol
_atom_site_label
_atom_site_fract_x
_atom_site_fract_y
_atom_site_fract_z
Si Si1 0.921265 0.436417 0.182729
Si Si2 0.070292 0.921723 0.184628
Si Si3 0.169366 0.322904 0.819358
Si Si4 0.329866 0.689909 0.317213
O O1 0.906368 0.509444 0.252865
O O2 0.860375 0.387829 0.224119
O O3 0.927475 0.443725 0.000000
O O4 0.120219 0.866002 0.250802
O O5 0.995014 0.906621 0.243497
O O6 0.072603 0.920800 0.000000
O O7 0.242118 0.349423 0.770077
O O8 0.164979 0.244590 0.777579
O O9 0.157831 0.336658 0.000000
O O10 0.338472 0.702178 0.500000
#
# Coordination Sequence:
#
# PCOD8303881 Si02
#       4
#    16  16  16  16
#     4  11  22  38  58  80 107 138 174 217 266 320
#     4   8  14  26  46  73 101 127 162 210 259 306
#     4  10  20  34  51  75 106 139 177 220 263 309
#     4   9  18  32  51  75 104 140 179 218 261 311
#
# _framework density 18.617842
#
# number of rings (size 3 to 8) (size 9 to 14) (size 15 to 20)
#    0.000    2.500    0.000    4.500    0.000    3.000 
#    0.000    5.000    0.000    1.500    0.000    1.750 
#    0.000    0.000    0.000    0.000    0.000    0.000 
#
# Total GULP energy -396812.143105 kJ/mol
# GULP energy per Si atom -12400.379472 kJ/mol
# Density = 1.857547 g / cm^3
# Si number density = 18.617842 Si / 1000 Ang^3
#
#
#
# Elastic Constant Matrix: (Units=GPa)
#
#
# Indices 1 2 3 4 5 6 
#
# 1 60.4954 32.5339 15.4746 0.0000 0.0000 1.4977
# 2 32.5339 60.4954 15.4746 0.0000 0.0000 -1.4977
# 3 15.4746 15.4746 78.7432 0.0000 0.0000 0.0000
# 4 0.0000 0.0000 0.0000 25.7322 0.0000 0.0000
# 5 0.0000 0.0000 0.0000 0.0000 25.7322 0.0000
# 6 1.4977 -1.4977 0.0000 0.0000 0.0000 43.0308
#
#
#
# Elastic Compliance Matrix: (Units=1/GPa)
#
#
# Indices 1 2 3 4 5 6 
#
# 1 0.023699 -0.012198 -0.002260 0.000000 0.000000 -0.001249
# 2 -0.012198 0.023699 -0.002260 0.000000 0.000000 0.001249
# 3 -0.002260 -0.002260 0.013588 0.000000 0.000000 0.000000
# 4 0.000000 0.000000 0.000000 0.038862 0.000000 0.000000
# 5 0.000000 0.000000 0.000000 0.000000 0.038862 0.000000
# 6 -0.001249 0.001249 0.000000 0.000000 0.000000 0.023326
#
#
# Mechanical properties :
#
#
# Convention : Reuss Voigt Hill
#
# Bulk Modulus (GPa) = 36.29837 36.30004 36.29920
# Shear Modulus (GPa) = 24.43123 27.98243 26.20683
#
# Velocity S-wave (km/s) = 3.62643 3.88105 3.75589
# Velocity P-wave (km/s) = 6.08880 6.29469 6.19260
#
# Compressibility (1/GPa) = 0.02754944
#
# Stress axis : x y z
#
# Youngs Moduli (GPa) = 42.19550 42.19550 73.59510
#
# Poissons Ratio (x) = 0.51470 0.16634
# Poissons Ratio (y) = 0.51470 0.16634
# Poissons Ratio (z) = 0.09537 0.09537
#
# Static dielectric constant tensor:
#      x y z
#    x 3.555290 0.000000 0.000000 
#    y 0.000000 3.555290 0.000000 
#    z 0.000000 0.000000 3.209370 
# 
# 
# High freq. dielectric constant tensor:
#      x y z
#    x 1.725930 0.000000 0.000000 
#    y 0.000000 1.725930 0.000000 
#    z 0.000000 0.000000 1.704780 
# 
# From -- ./inp_files/954.got.cif
#   From: 2010.03.12/outbox.cif.g09.slc.cpg/sg87_1_cif.got.tgz:954.got - 2010.04.08 20:16:13.
