data_PCOD8303949
_publ_section_title
;
Structure prediction by ZEFSAII (Michael W. Deem and Ramdas Pophale) SiO2 
 PCOD8303949
Probable space group: I 4/M
;
_chemical_formula_sum "Si O2"
_cell_formula_units_Z 64
_cell_length_a 21.409718
_cell_length_b 21.409718
_cell_length_c 7.904944
_cell_angle_alpha 90.000000
_cell_angle_beta 90.000000
_cell_angle_gamma 90.000000
_cell_volume 3623.436807
_symmetry_space_group_name_H-M "I 4/M"
_symmetry_group_IT_number 87
_symmetry_cell_setting 'tetragonal'
loop_
_space_group_symop_operation_xyz
x,y,z
-y,x,z
-x,-y,z
y,-x,z
-x,-y,-z
y,-x,-z
x,y,-z
-y,x,-z
1/2+x,1/2+y,1/2+z
1/2-y,1/2+x,1/2+z
1/2-x,1/2-y,1/2+z
1/2+y,1/2-x,1/2+z
1/2-x,1/2-y,1/2-z
1/2+y,1/2-x,1/2-z
1/2+x,1/2+y,1/2-z
1/2-y,1/2+x,1/2-z
loop_
_atom_site_type_symbol
_atom_site_label
_atom_site_fract_x
_atom_site_fract_y
_atom_site_fract_z
Si Si1 0.812293 0.014231 0.000000
Si Si2 0.181637 0.235253 0.813984
Si Si3 0.375149 0.641378 0.500000
Si Si4 0.946276 0.729995 0.312259
Si Si5 0.025814 0.405832 0.803834
O O1 0.770955 0.020466 0.168531
O O2 0.844744 0.947549 0.000000
O O3 0.866102 0.066473 0.000000
O O4 0.250000 0.250000 0.750000
O O5 0.170785 0.159890 0.834023
O O6 0.129160 0.264815 0.694396
O O7 0.172684 0.266081 0.000000
O O8 0.967333 0.752184 0.500000
O O9 0.966095 0.658937 0.291134
O O10 0.072182 0.454609 0.715387
O O11 0.043006 0.399115 0.000000
#
# Coordination Sequence:
#
# PCOD8303949 Si02
#       5
#     8  16   8  16  16
#     4  10  20  43  56  89 114 144 198 234 306 344
#     4   9  18  35  55  87 115 149 188 236 292 342
#     4   8  20  35  64  80 122 154 182 251 282 354
#     4  11  21  37  58  81 115 153 189 243 288 340
#     4  11  21  36  52  78 113 153 198 236 277 335
#
# _framework density 17.662789
#
# number of rings (size 3 to 8) (size 9 to 14) (size 15 to 20)
#    0.750    1.250    2.500    3.750    0.000    2.250 
#    0.000    8.750    0.000    0.000    0.000    7.000 
#    0.000    0.000    0.000    0.000    0.000    0.000 
#
# Total GULP energy -396587.684284 kJ/mol
# GULP energy per Si atom -12393.365134 kJ/mol
# Density = 1.762259 g / cm^3
# Si number density = 17.662789 Si / 1000 Ang^3
#
#
#
# Elastic Constant Matrix: (Units=GPa)
#
#
# Indices 1 2 3 4 5 6 
#
# 1 125.3539 69.4762 33.7209 0.0000 0.0000 13.1963
# 2 69.4762 125.3539 33.7209 0.0000 0.0000 -13.1963
# 3 33.7209 33.7209 123.6119 0.0000 0.0000 0.0000
# 4 0.0000 0.0000 0.0000 20.8502 0.0000 0.0000
# 5 0.0000 0.0000 0.0000 0.0000 20.8502 0.0000
# 6 13.1963 -13.1963 0.0000 0.0000 0.0000 18.4875
#
#
#
# Elastic Compliance Matrix: (Units=1/GPa)
#
#
# Indices 1 2 3 4 5 6 
#
# 1 0.016333 -0.010665 -0.001546 0.000000 0.000000 -0.019272
# 2 -0.010665 0.016333 -0.001546 0.000000 0.000000 0.019272
# 3 -0.001546 -0.001546 0.008933 0.000000 0.000000 0.000000
# 4 0.000000 0.000000 0.000000 0.047961 0.000000 0.000000
# 5 0.000000 0.000000 0.000000 0.000000 0.047961 0.000000
# 6 -0.019272 0.019272 0.000000 0.000000 0.000000 0.081603
#
#
# Mechanical properties :
#
#
# Convention : Reuss Voigt Hill
#
# Bulk Modulus (GPa) = 71.00011 72.01731 71.50871
# Shear Modulus (GPa) = 19.89375 27.86436 23.87906
#
# Velocity S-wave (km/s) = 3.35969 3.97618 3.68086
# Velocity P-wave (km/s) = 7.43874 7.87032 7.65757
#
# Compressibility (1/GPa) = 0.01408449
#
# Stress axis : x y z
#
# Youngs Moduli (GPa) = 61.22470 61.22470 111.93916
#
# Poissons Ratio (x) = 0.65298 0.17308
# Poissons Ratio (y) = 0.65298 0.17308
# Poissons Ratio (z) = 0.09466 0.09466
#
# Static dielectric constant tensor:
#      x y z
#    x 3.140250 0.000000 0.000000 
#    y 0.000000 3.140250 0.000000 
#    z 0.000000 0.000000 3.473440 
# 
# 
# High freq. dielectric constant tensor:
#      x y z
#    x 1.672320 0.000000 0.000000 
#    y 0.000000 1.672320 0.000000 
#    z 0.000000 0.000000 1.689200 
# 
# From -- ./inp_files/997.got.cif
#   From: 2010.03.12/outbox.cif.g09.slc.cpg/sg87_1_cif.got.tgz:997.got - 2010.04.08 20:16:13.
