data_PCOD8303952
_publ_section_title
;
Structure prediction by ZEFSAII (Michael W. Deem and Ramdas Pophale) SiO2 
 PCOD8303952
Probable space group: I 4/M
;
_chemical_formula_sum "Si O2"
_cell_formula_units_Z 112
_cell_length_a 15.492233
_cell_length_b 15.492233
_cell_length_c 23.126716
_cell_angle_alpha 90.000000
_cell_angle_beta 90.000000
_cell_angle_gamma 90.000000
_cell_volume 5550.626533
_symmetry_space_group_name_H-M "I 4/M"
_symmetry_group_IT_number 87
_symmetry_cell_setting 'tetragonal'
loop_
_space_group_symop_operation_xyz
x,y,z
-y,x,z
-x,-y,z
y,-x,z
-x,-y,-z
y,-x,-z
x,y,-z
-y,x,-z
1/2+x,1/2+y,1/2+z
1/2-y,1/2+x,1/2+z
1/2-x,1/2-y,1/2+z
1/2+y,1/2-x,1/2+z
1/2-x,1/2-y,1/2-z
1/2+y,1/2-x,1/2-z
1/2+x,1/2+y,1/2-z
1/2-y,1/2+x,1/2-z
loop_
_atom_site_type_symbol
_atom_site_label
_atom_site_fract_x
_atom_site_fract_y
_atom_site_fract_z
Si Si1 0.076030 0.598073 0.772377
Si Si2 0.784834 0.863098 0.768364
Si Si3 0.615108 0.168448 0.932513
Si Si4 0.214670 0.221895 0.346945
Si Si5 0.152526 0.578107 0.105871
Si Si6 0.468717 0.637502 0.641281
Si Si7 0.512274 0.198316 0.435888
O O1 0.106172 0.527682 0.725328
O O2 0.117605 0.686393 0.752176
O O3 0.103599 0.563707 0.834357
O O4 0.826074 0.829863 0.708377
O O5 0.782393 0.792192 0.820415
O O6 0.834258 0.948527 0.792123
O O7 0.660525 0.238770 0.892456
O O8 0.512844 0.175857 0.922428
O O9 0.652470 0.075077 0.914354
O O10 0.634108 0.187586 0.000000
O O11 0.134789 0.262353 0.381882
O O12 0.088671 0.628524 0.062920
O O13 0.398012 0.563712 0.628643
O O14 0.455959 0.722334 0.603194
O O15 0.499148 0.235372 0.500000
#
# Coordination Sequence:
#
# PCOD8303952 Si02
#       7
#    16  16  16  16  16  16  16
#     4  10  21  31  55  94 123 169 198 253 318 383
#     4  10  21  39  60  92 127 168 209 262 319 387
#     4  11  25  42  66  92 125 173 219 270 325 383
#     4  10  22  40  64  93 126 168 212 268 322 390
#     4  11  23  41  61  97 130 165 215 267 326 385
#     4  11  24  42  64  92 130 175 216 261 316 389
#     4  11  24  41  63  90 127 170 216 271 324 382
#
# _framework density 20.177903000000001
#
# number of rings (size 3 to 8) (size 9 to 14) (size 15 to 20)
#    0.000    1.429    2.857    2.571    6.000    7.429 
#    0.000    0.714    0.000    0.429    0.000    1.000 
#    0.000    0.000    0.000    0.000    0.000    0.000 
#
# Total GULP energy -694181.300924 kJ/mol
# GULP energy per Si atom -12396.094659 kJ/mol
# Density = 2.013198 g / cm^3
# Si number density = 20.177903 Si / 1000 Ang^3
#
#
#
# Elastic Constant Matrix: (Units=GPa)
#
#
# Indices 1 2 3 4 5 6 
#
# 1 102.5867 60.2397 46.5558 0.0000 0.0000 4.3709
# 2 60.2397 102.5867 46.5558 0.0000 0.0000 -4.3709
# 3 46.5558 46.5558 87.8543 0.0000 0.0000 0.0000
# 4 0.0000 0.0000 0.0000 26.3439 0.0000 0.0000
# 5 0.0000 0.0000 0.0000 0.0000 26.3439 0.0000
# 6 4.3709 -4.3709 0.0000 0.0000 0.0000 34.5320
#
#
#
# Elastic Compliance Matrix: (Units=1/GPa)
#
#
# Indices 1 2 3 4 5 6 
#
# 1 0.016530 -0.007718 -0.004670 0.000000 0.000000 -0.003069
# 2 -0.007718 0.016530 -0.004670 0.000000 0.000000 0.003069
# 3 -0.004670 -0.004670 0.016331 0.000000 0.000000 0.000000
# 4 0.000000 0.000000 0.000000 0.037959 0.000000 0.000000
# 5 0.000000 0.000000 0.000000 0.000000 0.037959 0.000000
# 6 -0.003069 0.003069 0.000000 0.000000 0.000000 0.029736
#
#
# Mechanical properties :
#
#
# Convention : Reuss Voigt Hill
#
# Bulk Modulus (GPa) = 65.45860 66.63671 66.04766
# Shear Modulus (GPa) = 25.73970 26.75572 26.24771
#
# Velocity S-wave (km/s) = 3.57548 3.64537 3.61059
# Velocity P-wave (km/s) = 7.03964 7.12843 7.08418
#
# Compressibility (1/GPa) = 0.01527683
#
# Stress axis : x y z
#
# Youngs Moduli (GPa) = 60.49649 60.49649 61.23151
#
# Poissons Ratio (x) = 0.46692 0.28592
# Poissons Ratio (y) = 0.46692 0.28592
# Poissons Ratio (z) = 0.28249 0.28249
#
# Static dielectric constant tensor:
#      x y z
#    x 3.670550 0.000000 0.000000 
#    y 0.000000 3.670550 0.000000 
#    z 0.000000 0.000000 3.628600 
# 
# 
# High freq. dielectric constant tensor:
#      x y z
#    x 1.784220 0.000000 0.000000 
#    y 0.000000 1.784220 0.000000 
#    z 0.000000 0.000000 1.787140 
# 
# From -- ./inp_files/5861.got.cif
#   From: 2010.03.12/outbox.cif.g09.slc.cpg/sg87_3_cif.got.tgz:5861.got - 2010.04.08 20:16:13.
