data_PCOD8303878
_publ_section_title
;
Structure prediction by ZEFSAII (Michael W. Deem and Ramdas Pophale) SiO2 
 PCOD8303878
Probable space group: I 4/M
;
_chemical_formula_sum "Si O2"
_cell_formula_units_Z 56
_cell_length_a 19.090400
_cell_length_b 19.090400
_cell_length_c 7.521470
_cell_angle_alpha 90.000000
_cell_angle_beta 90.000000
_cell_angle_gamma 90.000000
_cell_volume 2741.149890
_symmetry_space_group_name_H-M "I 4/M"
_symmetry_group_IT_number 87
_symmetry_cell_setting 'tetragonal'
loop_
_space_group_symop_operation_xyz
x,y,z
-y,x,z
-x,-y,z
y,-x,z
-x,-y,-z
y,-x,-z
x,y,-z
-y,x,-z
1/2+x,1/2+y,1/2+z
1/2-y,1/2+x,1/2+z
1/2-x,1/2-y,1/2+z
1/2+y,1/2-x,1/2+z
1/2-x,1/2-y,1/2-z
1/2+y,1/2-x,1/2-z
1/2+x,1/2+y,1/2-z
1/2-y,1/2+x,1/2-z
loop_
_atom_site_type_symbol
_atom_site_label
_atom_site_fract_x
_atom_site_fract_y
_atom_site_fract_z
Si Si1 0.407222 0.051633 0.197761
Si Si2 0.684536 0.825110 0.788982
Si Si3 0.325067 0.656145 0.297240
Si Si4 0.926084 0.908447 0.500000
O O1 0.410865 0.983013 0.318210
O O2 0.352968 0.105615 0.284666
O O3 0.383343 0.030461 0.000000
O O4 0.642791 0.758490 0.709137
O O5 0.764507 0.832431 0.724196
O O6 0.680144 0.819462 0.000000
O O7 0.352059 0.647254 0.500000
O O8 0.369663 0.603432 0.175331
O O9 0.010418 0.902358 0.500000
#
# Coordination Sequence:
#
# PCOD8303878 Si02
#       4
#    16  16  16   8
#     4  10  20  34  50  77 120 160 201 240 286 351
#     4   9  19  37  60  90 124 158 199 254 307 366
#     4  10  21  40  66  93 121 155 204 257 313 369
#     4  11  26  46  64  90 128 166 212 263 314 374
#
# _framework density 20.429380999999999
#
# number of rings (size 3 to 8) (size 9 to 14) (size 15 to 20)
#    0.000    2.143    1.429    1.714    2.000    5.714 
#    0.000    4.286    0.000    0.000    0.000    0.000 
#    0.000    0.000    0.000    0.000    0.000    0.000 
#
# Total GULP energy -347087.139655 kJ/mol
# GULP energy per Si atom -12395.969273 kJ/mol
# Density = 2.038288 g / cm^3
# Si number density = 20.429381 Si / 1000 Ang^3
#
#
#
# Elastic Constant Matrix: (Units=GPa)
#
#
# Indices 1 2 3 4 5 6 
#
# 1 32.3150 10.3822 13.4935 0.0000 0.0000 3.9906
# 2 10.3822 32.3150 13.4935 0.0000 0.0000 -3.9906
# 3 13.4935 13.4935 83.8467 0.0000 0.0000 0.0000
# 4 0.0000 0.0000 0.0000 24.3103 0.0000 0.0000
# 5 0.0000 0.0000 0.0000 0.0000 24.3103 0.0000
# 6 3.9906 -3.9906 0.0000 0.0000 0.0000 42.9451
#
#
#
# Elastic Compliance Matrix: (Units=1/GPa)
#
#
# Indices 1 2 3 4 5 6 
#
# 1 0.036631 -0.010558 -0.004196 0.000000 0.000000 -0.004385
# 2 -0.010558 0.036631 -0.004196 0.000000 0.000000 0.004385
# 3 -0.004196 -0.004196 0.013277 0.000000 0.000000 0.000000
# 4 0.000000 0.000000 0.000000 0.041135 0.000000 0.000000
# 5 0.000000 0.000000 0.000000 0.000000 0.041135 0.000000
# 6 -0.004385 0.004385 0.000000 0.000000 0.000000 0.024101
#
#
# Mechanical properties :
#
#
# Convention : Reuss Voigt Hill
#
# Bulk Modulus (GPa) = 20.55961 24.80165 22.68063
# Shear Modulus (GPa) = 20.24103 25.72028 22.98065
#
# Velocity S-wave (km/s) = 3.15108 3.55207 3.35757
# Velocity P-wave (km/s) = 4.82956 5.38418 5.11440
#
# Compressibility (1/GPa) = 0.04863905
#
# Stress axis : x y z
#
# Youngs Moduli (GPa) = 27.29915 27.29915 75.31807
#
# Poissons Ratio (x) = 0.28823 0.31603
# Poissons Ratio (y) = 0.28823 0.31603
# Poissons Ratio (z) = 0.11454 0.11454
#
# Static dielectric constant tensor:
#      x y z
#    x 3.768070 0.000000 0.000000 
#    y 0.000000 3.768070 0.000000 
#    z 0.000000 0.000000 3.525290 
# 
# 
# High freq. dielectric constant tensor:
#      x y z
#    x 1.790270 0.000000 0.000000 
#    y 0.000000 1.790270 0.000000 
#    z 0.000000 0.000000 1.801710 
# 
# From -- ./inp_files/735.got.cif
#   From: 2010.03.12/outbox.cif.g09.slc.cpg/sg87_1_cif.got.tgz:735.got - 2010.04.08 20:16:13.
