data_PCOD8303135
_publ_section_title
;
Structure prediction by ZEFSAII (Michael W. Deem and Ramdas Pophale) SiO2 
 PCOD8303135
Probable space group: P 42/M
;
_chemical_formula_sum "Si O2"
_cell_formula_units_Z 56
_cell_length_a 14.631117
_cell_length_b 14.631117
_cell_length_c 14.527779
_cell_angle_alpha 90.000000
_cell_angle_beta 90.000000
_cell_angle_gamma 90.000000
_cell_volume 3109.955617
_symmetry_space_group_name_H-M "P 42/M"
_symmetry_group_IT_number 84
_symmetry_cell_setting 'tetragonal'
loop_
_space_group_symop_operation_xyz
x,y,z
-y,x,1/2+z
-x,-y,z
y,-x,1/2+z
-x,-y,-z
y,-x,1/2-z
x,y,-z
-y,x,1/2-z
loop_
_atom_site_type_symbol
_atom_site_label
_atom_site_fract_x
_atom_site_fract_y
_atom_site_fract_z
Si Si1 0.755846 0.745764 0.734528
Si Si2 0.903722 0.772947 0.599355
Si Si3 0.995180 0.398369 0.841292
Si Si4 0.613751 0.197265 0.396125
Si Si5 0.104643 0.020235 0.600624
Si Si6 0.796449 0.403612 0.102063
Si Si7 0.770132 0.953536 0.238198
O O1 0.836603 0.713928 0.665098
O O2 0.751068 0.677621 0.821521
O O3 0.659780 0.748226 0.679213
O O4 0.785427 0.845893 0.769577
O O5 0.908706 0.723895 0.500000
O O6 0.865501 0.874782 0.587926
O O7 0.005574 0.789660 0.638166
O O8 0.087640 0.372726 0.895278
O O9 0.000000 0.500000 0.801173
O O10 0.905765 0.386552 0.905537
O O11 0.980153 0.334658 0.753966
O O12 0.638207 0.230232 0.500000
O O13 0.509047 0.223504 0.372107
O O14 0.124091 0.972954 0.500000
O O15 0.169212 0.989971 0.685507
O O16 0.000000 0.000000 0.629265
O O17 0.757283 0.380680 0.000000
#
# Coordination Sequence:
#
# PCOD8303135 Si02
#       7
#     8   8   8   8   8   8   8
#     4  10  20  34  51  75 103 141 167 213 260 315
#     4  10  20  32  45  67  97 134 177 208 242 299
#     4   9  17  31  51  77 104 130 167 219 267 303
#     4  10  19  32  54  83 106 131 173 222 269 310
#     4   9  20  32  44  62  91 133 175 213 244 286
#     4   9  18  33  55  80 106 135 173 221 265 309
#     4  10  20  31  47  71 100 138 170 206 251 302
#
# _framework density 18.006688
#
# number of rings (size 3 to 8) (size 9 to 14) (size 15 to 20)
#    0.000    2.429    1.429    0.857    4.000    6.286 
#    0.000    0.000    0.000    2.571    0.000    2.000 
#    0.000    0.000    0.000    0.000    0.000    0.000 
#
# Total GULP energy -693749.013347 kJ/mol
# GULP energy per Si atom -12388.375238 kJ/mol
# Density = 1.796570 g / cm^3
# Si number density = 18.006688 Si / 1000 Ang^3
#
#
#
# Elastic Constant Matrix: (Units=GPa)
#
#
# Indices 1 2 3 4 5 6 
#
# 1 73.9504 27.2181 53.1367 0.0000 0.0000 -1.6628
# 2 27.2181 73.9504 53.1367 0.0000 0.0000 1.6628
# 3 53.1367 53.1367 140.0605 0.0000 0.0000 0.0000
# 4 0.0000 0.0000 0.0000 19.3388 0.0000 0.0000
# 5 0.0000 0.0000 0.0000 0.0000 19.3388 0.0000
# 6 -1.6628 1.6628 0.0000 0.0000 0.0000 18.6423
#
#
#
# Elastic Compliance Matrix: (Units=1/GPa)
#
#
# Indices 1 2 3 4 5 6 
#
# 1 0.018984 -0.002551 -0.006235 0.000000 0.000000 0.001921
# 2 -0.002551 0.018984 -0.006235 0.000000 0.000000 -0.001921
# 3 -0.006235 -0.006235 0.011870 0.000000 0.000000 0.000000
# 4 0.000000 0.000000 0.000000 0.051710 0.000000 0.000000
# 5 0.000000 0.000000 0.000000 0.000000 0.051710 0.000000
# 6 0.001921 -0.001921 0.000000 0.000000 0.000000 0.053984
#
#
# Mechanical properties :
#
#
# Convention : Reuss Voigt Hill
#
# Bulk Modulus (GPa) = 50.50705 61.66049 56.08377
# Shear Modulus (GPa) = 20.50166 21.76197 21.13182
#
# Velocity S-wave (km/s) = 3.37791 3.48019 3.42943
# Velocity P-wave (km/s) = 6.58207 7.10397 6.84800
#
# Compressibility (1/GPa) = 0.01979922
#
# Stress axis : x y z
#
# Youngs Moduli (GPa) = 52.67459 52.67459 84.24259
#
# Poissons Ratio (x) = 0.13436 0.52523
# Poissons Ratio (y) = 0.13436 0.52523
# Poissons Ratio (z) = 0.32841 0.32841
#
# Static dielectric constant tensor:
#      x y z
#    x 3.184450 0.000000 0.000000 
#    y 0.000000 3.184450 0.000000 
#    z 0.000000 0.000000 3.465010 
# 
# 
# High freq. dielectric constant tensor:
#      x y z
#    x 1.668900 0.000000 0.000000 
#    y 0.000000 1.668900 0.000000 
#    z 0.000000 0.000000 1.696720 
# 
# From -- ./inp_files/3131.got.cif
#   From: 2010.03.12/outbox.cif.g09.slc.cpg/sg84_2_cif.got.tgz:3131.got - 2010.04.08 20:07:29.
