data_PCOD8303709
_publ_section_title
;
Structure prediction by ZEFSAII (Michael W. Deem and Ramdas Pophale) SiO2 
 PCOD8303709
Probable space group: P 42/N
;
_chemical_formula_sum "Si O2"
_cell_formula_units_Z 34
_cell_length_a 8.827255
_cell_length_b 8.827255
_cell_length_c 19.016923
_cell_angle_alpha 90.000000
_cell_angle_beta 90.000000
_cell_angle_gamma 90.000000
_cell_volume 1481.806833
_symmetry_space_group_name_H-M "P 42/N"
_symmetry_group_IT_number 86
_space_group.IT_coordinate_system_code '2'
_symmetry_cell_setting 'tetragonal'
loop_
_space_group_symop_operation_xyz
x,y,z
-y,1/2+x,1/2+z
1/2-x,1/2-y,z
1/2+y,-x,1/2+z
-x,-y,-z
y,1/2-x,1/2-z
1/2+x,1/2+y,-z
1/2-y,x,1/2-z
loop_
_atom_site_type_symbol
_atom_site_label
_atom_site_fract_x
_atom_site_fract_y
_atom_site_fract_z
Si Si1 0.250000 0.250000 0.250000
Si Si2 0.397345 0.966527 0.182482
Si Si3 0.901910 0.297671 0.452552
Si Si4 0.261290 0.913225 0.805810
Si Si5 0.361476 0.388475 0.920681
O O1 0.218673 0.403109 0.206992
O O2 0.334107 0.932230 0.104825
O O3 0.397020 0.810222 0.227309
O O4 0.568204 0.027170 0.187165
O O5 0.750000 0.250000 0.494282
O O6 0.857215 0.460716 0.420607
O O7 0.039089 0.305987 0.506393
O O8 0.250000 0.750000 0.841670
O O9 0.149757 0.013952 0.850893
O O10 0.250000 0.250000 0.908517
#
# Coordination Sequence:
#
# PCOD8303709 Si02
#       5
#     2   8   8   8   8
#     4  12  24  44  68 104 144 196 244 314 384 460
#     4  12  27  45  75 106 151 197 257 319 388 458
#     4  11  26  48  74 106 150 198 254 314 384 464
#     4  12  27  45  70 107 148 196 252 313 386 459
#     4  11  27  47  75 110 149 198 257 318 383 462
#
# _framework density 22.944958
#
# number of rings (size 3 to 8) (size 9 to 14) (size 15 to 20)
#    0.000    0.471    2.353    4.235    8.235    5.647 
#    0.000    0.000    0.000    0.000    0.000    0.000 
#    0.000    0.000    0.000    0.000    0.000    0.000 
#
# Total GULP energy -421237.590959 kJ/mol
# GULP energy per Si atom -12389.340911 kJ/mol
# Density = 2.289273 g / cm^3
# Si number density = 22.944958 Si / 1000 Ang^3
#
#
#
# Elastic Constant Matrix: (Units=GPa)
#
#
# Indices 1 2 3 4 5 6 
#
# 1 135.8333 30.1165 24.7178 0.0000 0.0000 9.2731
# 2 30.1165 135.8333 24.7178 0.0000 0.0000 -9.2731
# 3 24.7178 24.7178 93.4851 0.0000 0.0000 0.0000
# 4 0.0000 0.0000 0.0000 28.3912 0.0000 0.0000
# 5 0.0000 0.0000 0.0000 0.0000 28.3912 0.0000
# 6 9.2731 -9.2731 0.0000 0.0000 0.0000 45.0202
#
#
#
# Elastic Compliance Matrix: (Units=1/GPa)
#
#
# Indices 1 2 3 4 5 6 
#
# 1 0.008177 -0.001636 -0.001729 0.000000 0.000000 -0.002021
# 2 -0.001636 0.008177 -0.001729 0.000000 0.000000 0.002021
# 3 -0.001729 -0.001729 0.011611 0.000000 0.000000 0.000000
# 4 0.000000 0.000000 0.000000 0.035222 0.000000 0.000000
# 5 0.000000 0.000000 0.000000 0.000000 0.035222 0.000000
# 6 -0.002021 0.002021 0.000000 0.000000 0.000000 0.023045
#
#
# Mechanical properties :
#
#
# Convention : Reuss Voigt Hill
#
# Bulk Modulus (GPa) = 56.25651 58.25067 57.25359
# Shear Modulus (GPa) = 36.34470 39.40051 37.87261
#
# Velocity S-wave (km/s) = 3.98426 4.14838 4.06715
# Velocity P-wave (km/s) = 6.76292 6.95612 6.86020
#
# Compressibility (1/GPa) = 0.01777572
#
# Stress axis : x y z
#
# Youngs Moduli (GPa) = 122.28691 122.28691 86.12183
#
# Poissons Ratio (x) = 0.20011 0.14895
# Poissons Ratio (y) = 0.20011 0.14895
# Poissons Ratio (z) = 0.21149 0.21149
#
# Static dielectric constant tensor:
#      x y z
#    x 4.442920 0.000000 0.000000 
#    y 0.000000 4.442920 0.000000 
#    z 0.000000 0.000000 3.959170 
# 
# 
# High freq. dielectric constant tensor:
#      x y z
#    x 1.930840 0.000000 0.000000 
#    y 0.000000 1.930840 0.000000 
#    z 0.000000 0.000000 1.897330 
# 
# From -- ./inp_files/3991.got.cif
#   From: 2010.03.12/outbox.cif.g09.slc.cpg/sg86_2_cif.got.tgz:3991.got - 2010.04.08 20:12:58.
