data_PCOD8303509
_publ_section_title
;
Structure prediction by ZEFSAII (Michael W. Deem and Ramdas Pophale) SiO2 
 PCOD8303509
Probable space group: P 42/N
;
_chemical_formula_sum "Si O2"
_cell_formula_units_Z 54
_cell_length_a 16.540256
_cell_length_b 16.540256
_cell_length_c 9.444522
_cell_angle_alpha 90.000000
_cell_angle_beta 90.000000
_cell_angle_gamma 90.000000
_cell_volume 2583.832976
_symmetry_space_group_name_H-M "P 42/N"
_symmetry_group_IT_number 86
_space_group.IT_coordinate_system_code '2'
_symmetry_cell_setting 'tetragonal'
loop_
_space_group_symop_operation_xyz
x,y,z
-y,1/2+x,1/2+z
1/2-x,1/2-y,z
1/2+y,-x,1/2+z
-x,-y,-z
y,1/2-x,1/2-z
1/2+x,1/2+y,-z
1/2-y,x,1/2-z
loop_
_atom_site_type_symbol
_atom_site_label
_atom_site_fract_x
_atom_site_fract_y
_atom_site_fract_z
Si Si1 0.534669 0.585054 0.950783
Si Si2 0.250000 0.250000 0.750000
Si Si3 0.975243 0.595285 0.833135
Si Si4 0.750000 0.250000 0.242791
Si Si5 0.961850 0.250321 0.035244
Si Si6 0.700713 0.916270 0.329083
Si Si7 0.119738 0.492263 0.927680
Si Si8 0.696788 0.154237 0.993126
O O1 0.588995 0.573196 0.812446
O O2 0.466638 0.655178 0.916871
O O3 0.500000 0.500000 0.000000
O O4 0.591244 0.618633 0.077224
O O5 0.168539 0.247168 0.842059
O O6 0.002690 0.688363 0.847050
O O7 0.052635 0.535608 0.829365
O O8 0.918472 0.569809 0.962596
O O9 0.745776 0.170990 0.139592
O O10 0.828968 0.245250 0.346299
O O11 0.872102 0.276224 0.994978
O O12 0.016125 0.260485 0.893460
O O13 0.680491 0.940919 0.168581
O O14 0.166736 0.562639 0.013102
#
# Coordination Sequence:
#
# PCOD8303509 Si02
#       8
#     8   2   8   4   8   8   8   8
#     4  10  21  41  65  93 126 171 221 268 327 409
#     4  12  24  44  60  94 136 160 232 278 352 388
#     4  10  19  38  60  95 124 157 214 273 320 388
#     4  10  22  36  56  92 132 162 196 268 324 388
#     4   9  21  38  63  88 125 164 213 267 320 384
#     4  10  22  41  62  87 124 175 212 280 325 408
#     4  10  20  36  66  86 122 165 214 260 319 392
#     4  10  21  38  59  90 127 164 210 259 328 392
#
# _framework density 20.899182
#
# number of rings (size 3 to 8) (size 9 to 14) (size 15 to 20)
#    0.889    1.185    1.481    1.778    2.074    0.000 
#    5.333    2.963    0.000    0.889    0.000    0.000 
#    0.000    0.000    0.000    0.000    0.000    0.000 
#
# Total GULP energy -669142.186566 kJ/mol
# GULP energy per Si atom -12391.521973 kJ/mol
# Density = 2.085161 g / cm^3
# Si number density = 20.899182 Si / 1000 Ang^3
#
#
#
# Elastic Constant Matrix: (Units=GPa)
#
#
# Indices 1 2 3 4 5 6 
#
# 1 78.5255 6.5131 18.7594 0.0000 0.0000 2.0035
# 2 6.5131 78.5255 18.7594 0.0000 0.0000 -2.0035
# 3 18.7594 18.7594 77.5744 0.0000 0.0000 0.0000
# 4 0.0000 0.0000 0.0000 20.0146 0.0000 0.0000
# 5 0.0000 0.0000 0.0000 0.0000 20.0146 0.0000
# 6 2.0035 -2.0035 0.0000 0.0000 0.0000 34.0366
#
#
#
# Elastic Compliance Matrix: (Units=1/GPa)
#
#
# Indices 1 2 3 4 5 6 
#
# 1 0.013548 -0.000384 -0.003183 0.000000 0.000000 -0.000820
# 2 -0.000384 0.013548 -0.003183 0.000000 0.000000 0.000820
# 3 -0.003183 -0.003183 0.014430 0.000000 0.000000 0.000000
# 4 0.000000 0.000000 0.000000 0.049963 0.000000 0.000000
# 5 0.000000 0.000000 0.000000 0.000000 0.049963 0.000000
# 6 -0.000820 0.000820 0.000000 0.000000 0.000000 0.029477
#
#
# Mechanical properties :
#
#
# Convention : Reuss Voigt Hill
#
# Bulk Modulus (GPa) = 35.68266 35.85433 35.76850
# Shear Modulus (GPa) = 25.80336 27.51942 26.66139
#
# Velocity S-wave (km/s) = 3.51758 3.63267 3.57559
# Velocity P-wave (km/s) = 5.79730 5.89815 5.84794
#
# Compressibility (1/GPa) = 0.02802482
#
# Stress axis : x y z
#
# Youngs Moduli (GPa) = 73.81174 73.81174 69.29782
#
# Poissons Ratio (x) = 0.02835 0.22060
# Poissons Ratio (y) = 0.02835 0.22060
# Poissons Ratio (z) = 0.23497 0.23497
#
# Static dielectric constant tensor:
#      x y z
#    x 3.661940 0.000000 0.000000 
#    y 0.000000 3.661940 0.000000 
#    z 0.000000 0.000000 3.707000 
# 
# 
# High freq. dielectric constant tensor:
#      x y z
#    x 1.807210 0.000000 0.000000 
#    y 0.000000 1.807210 0.000000 
#    z 0.000000 0.000000 1.815520 
# 
# From -- ./inp_files/1437.got.cif
#   From: 2010.03.12/outbox.cif.g09.slc.cpg/sg86_1_cif.got.tgz:1437.got - 2010.04.08 20:12:58.
