data_PCOD8303459
_publ_section_title
;
Structure prediction by ZEFSAII (Michael W. Deem and Ramdas Pophale) SiO2 
 PCOD8303459
Probable space group: P 4/N
;
_chemical_formula_sum "Si O2"
_cell_formula_units_Z 48
_cell_length_a 9.196863
_cell_length_b 9.196863
_cell_length_c 28.510457
_cell_angle_alpha 90.000000
_cell_angle_beta 90.000000
_cell_angle_gamma 90.000000
_cell_volume 2411.479715
_symmetry_space_group_name_H-M "P 4/N"
_symmetry_group_IT_number 85
_symmetry_cell_setting 'tetragonal'
loop_
_space_group_symop_operation_xyz
x,y,z
1/2-y,x,z
1/2-x,1/2-y,z
y,1/2-x,z
-x,-y,-z
1/2+y,-x,-z
1/2+x,1/2+y,-z
-y,1/2+x,-z
loop_
_atom_site_type_symbol
_atom_site_label
_atom_site_fract_x
_atom_site_fract_y
_atom_site_fract_z
Si Si1 0.926543 0.917113 0.457186
Si Si2 0.940013 0.889428 0.297230
Si Si3 0.376319 0.589489 0.020905
Si Si4 0.042750 0.139103 0.811829
Si Si5 0.662454 0.529231 0.876054
Si Si6 0.564757 0.905785 0.627025
O O1 0.755575 0.952963 0.459004
O O2 0.000000 0.000000 0.500000
O O3 0.003958 0.973717 0.410647
O O4 0.780376 0.949271 0.311106
O O5 0.980360 0.894328 0.242723
O O6 0.055389 0.992982 0.323037
O O7 0.336908 0.534365 0.071929
O O8 0.500000 0.500000 0.000000
O O9 0.255545 0.572896 0.979918
O O10 0.191520 0.057100 0.825273
O O11 0.900834 0.087772 0.839975
O O12 0.829740 0.564014 0.867086
O O13 0.548071 0.732618 0.621708
#
# Coordination Sequence:
#
# PCOD8303459 Si02
#       6
#     8   8   8   8   8   8
#     4  11  24  41  62  90 123 161 207 257 308 362
#     4   9  19  39  63  88 119 154 199 249 300 358
#     4  11  24  41  62  88 118 153 193 237 288 346
#     4   9  21  40  63  91 120 154 196 245 298 355
#     4  11  24  41  60  86 121 156 192 240 294 347
#     4  11  24  39  58  88 125 162 205 253 302 361
#
# _framework density 19.904790999999999
#
# number of rings (size 3 to 8) (size 9 to 14) (size 15 to 20)
#    0.000    1.667    1.667    3.000    2.333    9.333 
#    0.000    5.000    0.000    0.000    0.000    0.000 
#    0.000    0.000    0.000    0.000    0.000    0.000 
#
# Total GULP energy -594885.635453 kJ/mol
# GULP energy per Si atom -12393.450739 kJ/mol
# Density = 1.985949 g / cm^3
# Si number density = 19.904791 Si / 1000 Ang^3
#
#
#
# Elastic Constant Matrix: (Units=GPa)
#
#
# Indices 1 2 3 4 5 6 
#
# 1 91.1777 54.9268 29.5342 0.0000 0.0000 -1.4115
# 2 54.9268 91.1777 29.5342 0.0000 0.0000 1.4115
# 3 29.5342 29.5342 67.1500 0.0000 0.0000 0.0000
# 4 0.0000 0.0000 0.0000 40.8312 0.0000 0.0000
# 5 0.0000 0.0000 0.0000 0.0000 40.8312 0.0000
# 6 -1.4115 1.4115 0.0000 0.0000 0.0000 40.0498
#
#
#
# Elastic Compliance Matrix: (Units=1/GPa)
#
#
# Indices 1 2 3 4 5 6 
#
# 1 0.017993 -0.009668 -0.003661 0.000000 0.000000 0.000975
# 2 -0.009668 0.017993 -0.003661 0.000000 0.000000 -0.000975
# 3 -0.003661 -0.003661 0.018113 0.000000 0.000000 0.000000
# 4 0.000000 0.000000 0.000000 0.024491 0.000000 0.000000
# 5 0.000000 0.000000 0.000000 0.000000 0.024491 0.000000
# 6 0.000975 -0.000975 0.000000 0.000000 0.000000 0.025038
#
#
# Mechanical properties :
#
#
# Convention : Reuss Voigt Hill
#
# Bulk Modulus (GPa) = 49.71034 53.05510 51.38272
# Shear Modulus (GPa) = 29.61972 33.37647 31.49809
#
# Velocity S-wave (km/s) = 3.86174 4.09932 3.98230
# Velocity P-wave (km/s) = 6.70166 7.00844 6.85677
#
# Compressibility (1/GPa) = 0.02011654
#
# Stress axis : x y z
#
# Youngs Moduli (GPa) = 55.57703 55.57703 55.20966
#
# Poissons Ratio (x) = 0.53734 0.20214
# Poissons Ratio (y) = 0.53734 0.20214
# Poissons Ratio (z) = 0.20349 0.20349
#
# Static dielectric constant tensor:
#      x y z
#    x 3.750340 0.000000 0.000000 
#    y 0.000000 3.750340 0.000000 
#    z 0.000000 0.000000 3.262820 
# 
# 
# High freq. dielectric constant tensor:
#      x y z
#    x 1.786740 0.000000 0.000000 
#    y 0.000000 1.786740 0.000000 
#    z 0.000000 0.000000 1.778720 
# 
# From -- ./inp_files/2425.got.cif
#   From: 2010.03.12/outbox.cif.g09.slc.cpg/sg85_cif.got.tgz:2425.got - 2010.04.08 20:10:46.
