data_PCOD8303004
_publ_section_title
;
Structure prediction by ZEFSAII (Michael W. Deem and Ramdas Pophale) SiO2 
 PCOD8303004
Probable space group: P 4/M
;
_chemical_formula_sum "Si O2"
_cell_formula_units_Z 40
_cell_length_a 8.198089
_cell_length_b 8.198089
_cell_length_c 27.192061
_cell_angle_alpha 90.000000
_cell_angle_beta 90.000000
_cell_angle_gamma 90.000000
_cell_volume 1827.542071
_symmetry_space_group_name_H-M "P 4/M"
_symmetry_group_IT_number 83
_symmetry_cell_setting 'tetragonal'
loop_
_space_group_symop_operation_xyz
x,y,z
-y,x,z
-x,-y,z
y,-x,z
-x,-y,-z
y,-x,-z
x,y,-z
-y,x,-z
loop_
_atom_site_type_symbol
_atom_site_label
_atom_site_fract_x
_atom_site_fract_y
_atom_site_fract_z
Si Si1 0.115877 0.754403 0.393818
Si Si2 0.500000 0.000000 0.868738
Si Si3 0.419771 0.755393 0.945202
Si Si4 0.115034 0.757967 0.500000
Si Si5 0.082002 0.743061 0.790406
Si Si6 0.400980 0.250448 0.300108
O O1 0.154957 0.671117 0.447688
O O2 0.174895 0.624212 0.354009
O O3 0.923889 0.787570 0.387377
O O4 0.384278 0.890039 0.903760
O O5 0.616979 0.887191 0.834990
O O6 0.298888 0.606082 0.937908
O O7 0.396394 0.829211 0.000000
O O8 0.924487 0.788051 0.500000
O O9 0.114302 0.650938 0.739283
O O10 0.894579 0.796645 0.793847
O O11 0.589664 0.291063 0.292855
#
# Coordination Sequence:
#
# PCOD8303004 Si02
#       6
#     8   4   8   4   8   8
#     4   9  17  32  57  85 111 142 183 232 286 344
#     4  12  21  36  60  88 116 149 190 240 286 326
#     4   9  19  36  58  86 120 157 194 229 271 328
#     4   7  12  26  50  81 112 140 176 225 280 340
#     4  11  24  40  58  82 112 147 189 237 290 345
#     4  11  24  40  56  77 108 148 192 238 290 346
#
# _framework density 21.887319999999999
#
# number of rings (size 3 to 8) (size 9 to 14) (size 15 to 20)
#    0.000    2.100    0.000    5.700    0.000    4.000 
#    0.000    3.000    0.000    4.800    0.000    8.400 
#    0.000    0.000    0.000    0.000    0.000    0.000 
#
# Total GULP energy -495825.762172 kJ/mol
# GULP energy per Si atom -12395.644054 kJ/mol
# Density = 2.183750 g / cm^3
# Si number density = 21.887320 Si / 1000 Ang^3
#
#
#
# Elastic Constant Matrix: (Units=GPa)
#
#
# Indices 1 2 3 4 5 6 
#
# 1 57.1711 12.4372 42.2826 0.0000 0.0000 -4.3040
# 2 12.4372 57.1711 42.2826 0.0000 0.0000 4.3040
# 3 42.2826 42.2826 186.9888 0.0000 0.0000 0.0000
# 4 0.0000 0.0000 0.0000 24.0195 0.0000 0.0000
# 5 0.0000 0.0000 0.0000 0.0000 24.0195 0.0000
# 6 -4.3040 4.3040 0.0000 0.0000 0.0000 27.2382
#
#
#
# Elastic Compliance Matrix: (Units=1/GPa)
#
#
# Indices 1 2 3 4 5 6 
#
# 1 0.021431 -0.001624 -0.004479 0.000000 0.000000 0.003643
# 2 -0.001624 0.021431 -0.004479 0.000000 0.000000 -0.003643
# 3 -0.004479 -0.004479 0.007374 0.000000 0.000000 0.000000
# 4 0.000000 0.000000 0.000000 0.041633 0.000000 0.000000
# 5 0.000000 0.000000 0.000000 0.000000 0.041633 0.000000
# 6 0.003643 -0.003643 0.000000 0.000000 0.000000 0.037864
#
#
# Mechanical properties :
#
#
# Convention : Reuss Voigt Hill
#
# Bulk Modulus (GPa) = 34.39660 55.03733 44.71697
# Shear Modulus (GPa) = 24.72543 28.67737 26.70140
#
# Velocity S-wave (km/s) = 3.36470 3.62363 3.49657
# Velocity P-wave (km/s) = 5.55377 6.53513 6.06434
#
# Compressibility (1/GPa) = 0.02907264
#
# Stress axis : x y z
#
# Youngs Moduli (GPa) = 46.66045 46.66045 135.62074
#
# Poissons Ratio (x) = 0.07578 0.60744
# Poissons Ratio (y) = 0.07578 0.60744
# Poissons Ratio (z) = 0.20899 0.20899
#
# Static dielectric constant tensor:
#      x y z
#    x 3.682640 0.000000 0.000000 
#    y 0.000000 3.682640 0.000000 
#    z 0.000000 0.000000 4.288610 
# 
# 
# High freq. dielectric constant tensor:
#      x y z
#    x 1.840300 0.000000 0.000000 
#    y 0.000000 1.840300 0.000000 
#    z 0.000000 0.000000 1.883070 
# 
# From -- ./inp_files/3268.got.cif
#   From: 2010.03.12/outbox.cif.g09.slc.cpg/sg83_2_cif.got.tgz:3268.got - 2010.04.08 20:05:18.
