data_PCOD8303106
_publ_section_title
;
Structure prediction by ZEFSAII (Michael W. Deem and Ramdas Pophale) SiO2 
 PCOD8303106
Probable space group: P 42/M
;
_chemical_formula_sum "Si O2"
_cell_formula_units_Z 56
_cell_length_a 21.749248
_cell_length_b 21.749248
_cell_length_c 8.829336
_cell_angle_alpha 90.000000
_cell_angle_beta 90.000000
_cell_angle_gamma 90.000000
_cell_volume 4176.538941
_symmetry_space_group_name_H-M "P 42/M"
_symmetry_group_IT_number 84
_symmetry_cell_setting 'tetragonal'
loop_
_space_group_symop_operation_xyz
x,y,z
-y,x,1/2+z
-x,-y,z
y,-x,1/2+z
-x,-y,-z
y,-x,1/2-z
x,y,-z
-y,x,1/2-z
loop_
_atom_site_type_symbol
_atom_site_label
_atom_site_fract_x
_atom_site_fract_y
_atom_site_fract_z
Si Si1 0.443058 0.750590 0.321822
Si Si2 0.002897 0.426605 0.829779
Si Si3 0.422717 0.118298 0.169055
Si Si4 0.649519 0.357955 0.678029
Si Si5 0.123920 0.432149 0.668053
Si Si6 0.414892 0.244141 0.678129
Si Si7 0.542114 0.577302 0.324410
O O1 0.440940 0.759192 0.500000
O O2 0.394327 0.697889 0.270574
O O3 0.416186 0.812256 0.249304
O O4 0.514123 0.736960 0.273603
O O5 0.945849 0.397902 0.736939
O O6 0.000000 0.500000 0.828298
O O7 0.066632 0.402588 0.757448
O O8 0.999455 0.401375 0.000000
O O9 0.495578 0.114583 0.160335
O O10 0.403343 0.173293 0.279975
O O11 0.395645 0.127953 0.000000
O O12 0.641465 0.369885 0.500000
O O13 0.721007 0.359563 0.727737
O O14 0.634519 0.416903 0.782452
O O15 0.125665 0.403731 0.500000
O O16 0.405271 0.253612 0.500000
O O17 0.581004 0.517174 0.282121
O O18 0.522297 0.578099 0.500000
#
# Coordination Sequence:
#
# PCOD8303106 Si02
#       7
#     8   8   8   8   8   8   8
#     4   9  19  32  43  54  71  93 117 147 183 223
#     4   9  15  23  37  56  77  98 116 134 163 205
#     4   9  16  26  39  56  76  95 116 142 172 208
#     4  11  21  32  44  57  72  92 118 148 184 223
#     4   9  16  25  39  57  75  93 114 140 170 207
#     4  10  19  31  44  57  73  94 120 150 186 226
#     4  11  21  33  46  58  70  84 106 140 182 226
#
# _framework density 13.40823
#
# number of rings (size 3 to 8) (size 9 to 14) (size 15 to 20)
#    0.000    2.286    0.000    4.714    0.000    8.000 
#    0.000    0.000    0.000    0.000    0.000    0.000 
#    0.000    0.000    0.000    0.000    0.000    0.000 
#
# Total GULP energy -693882.442158 kJ/mol
# GULP energy per Si atom -12390.757896 kJ/mol
# Density = 1.337771 g / cm^3
# Si number density = 13.408230 Si / 1000 Ang^3
#
#
#
# Elastic Constant Matrix: (Units=GPa)
#
#
# Indices 1 2 3 4 5 6 
#
# 1 40.6522 41.5587 23.8560 0.0000 0.0000 0.9234
# 2 41.5587 40.6522 23.8560 0.0000 0.0000 -0.9234
# 3 23.8560 23.8560 67.3332 0.0000 0.0000 0.0000
# 4 0.0000 0.0000 0.0000 19.7578 0.0000 0.0000
# 5 0.0000 0.0000 0.0000 0.0000 19.7578 0.0000
# 6 0.9234 -0.9234 0.0000 0.0000 0.0000 4.7828
#
#
#
# Elastic Compliance Matrix: (Units=1/GPa)
#
#
# Indices 1 2 3 4 5 6 
#
# 1 -0.388216 0.403529 -0.005425 0.000000 0.000000 0.152854
# 2 0.403529 -0.388216 -0.005425 0.000000 0.000000 -0.152854
# 3 -0.005425 -0.005425 0.018696 0.000000 0.000000 0.000000
# 4 0.000000 0.000000 0.000000 0.050613 0.000000 0.000000
# 5 0.000000 0.000000 0.000000 0.000000 0.050613 0.000000
# 6 0.152854 -0.152854 0.000000 0.000000 0.000000 0.150062
#
#
# Mechanical properties :
#
#
# Convention : Reuss Voigt Hill
#
# Bulk Modulus (GPa) = 36.20573 36.35322 36.27947
# Shear Modulus (GPa) = -3.89834 12.81747 4.45957
#
# Velocity S-wave (km/s) = -1.70697 3.09518 1.82571
# Velocity P-wave (km/s) = 4.81417 6.32021 5.61789
#
# Compressibility (1/GPa) = 0.02761994
#
# Stress axis : x y z
#
# Youngs Moduli (GPa) = -2.57588 -2.57588 53.48816
#
# Poissons Ratio (x) = 1.03944 0.29018
# Poissons Ratio (y) = 1.03944 0.29018
# Poissons Ratio (z) = -0.01397 -0.01397
#
# Static dielectric constant tensor:
#      x y z
#    x 2.561440 0.000000 0.000000 
#    y 0.000000 2.561440 0.000000 
#    z 0.000000 0.000000 2.876060 
# 
# 
# High freq. dielectric constant tensor:
#      x y z
#    x 1.472920 0.000000 0.000000 
#    y 0.000000 1.472920 0.000000 
#    z 0.000000 0.000000 1.529660 
# 
# From -- ./inp_files/1297.got.cif
#   From: 2010.03.12/outbox.cif.g09.slc.cpg/sg84_1_cif.got.tgz:1297.got - 2010.04.08 20:07:29.
