data_PCOD8303818
_publ_section_title
;
Structure prediction by ZEFSAII (Michael W. Deem and Ramdas Pophale) SiO2 
 PCOD8303818
Probable space group: I 4/M
;
_chemical_formula_sum "Si O2"
_cell_formula_units_Z 112
_cell_length_a 23.925963
_cell_length_b 23.925963
_cell_length_c 10.342166
_cell_angle_alpha 90.000000
_cell_angle_beta 90.000000
_cell_angle_gamma 90.000000
_cell_volume 5920.390565
_symmetry_space_group_name_H-M "I 4/M"
_symmetry_group_IT_number 87
_symmetry_cell_setting 'tetragonal'
loop_
_space_group_symop_operation_xyz
x,y,z
-y,x,z
-x,-y,z
y,-x,z
-x,-y,-z
y,-x,-z
x,y,-z
-y,x,-z
1/2+x,1/2+y,1/2+z
1/2-y,1/2+x,1/2+z
1/2-x,1/2-y,1/2+z
1/2+y,1/2-x,1/2+z
1/2-x,1/2-y,1/2-z
1/2+y,1/2-x,1/2-z
1/2+x,1/2+y,1/2-z
1/2-y,1/2+x,1/2-z
loop_
_atom_site_type_symbol
_atom_site_label
_atom_site_fract_x
_atom_site_fract_y
_atom_site_fract_z
Si Si1 0.586316 0.878027 0.149458
Si Si2 0.664696 0.509495 0.346236
Si Si3 0.894579 0.880084 0.852629
Si Si4 0.203777 0.684497 0.856250
Si Si5 0.239022 0.060750 0.640442
Si Si6 0.957273 0.364556 0.645944
Si Si7 0.675302 0.297956 0.781605
O O1 0.627335 0.826636 0.188685
O O2 0.595579 0.930291 0.245664
O O3 0.523257 0.857714 0.170505
O O4 0.596208 0.896480 0.000000
O O5 0.680045 0.510024 0.500000
O O6 0.641530 0.451587 0.286861
O O7 0.618460 0.556368 0.312604
O O8 0.719309 0.523532 0.261467
O O9 0.842345 0.838915 0.830485
O O10 0.910606 0.877942 0.000000
O O11 0.270991 0.677342 0.855283
O O12 0.186654 0.736009 0.768514
O O13 0.184084 0.699015 0.000000
O O14 0.229305 0.031176 0.500000
O O15 0.304441 0.071442 0.662108
O O16 0.207128 0.120361 0.629959
O O17 0.946456 0.388023 0.500000
#
# Coordination Sequence:
#
# PCOD8303818 Si02
#       7
#    16  16  16  16  16  16  16
#     4  10  22  40  61  85 114 149 187 229 281 335
#     4   9  19  34  53  77 108 145 186 227 273 323
#     4   9  18  33  52  78 107 141 184 231 274 320
#     4  10  20  34  54  81 109 143 183 223 272 331
#     4  10  20  36  56  81 112 147 184 226 276 329
#     4  10  22  40  60  83 114 147 186 232 278 335
#     4  10  19  33  55  79 111 145 180 225 279 328
#
# _framework density 18.917672
#
# number of rings (size 3 to 8) (size 9 to 14) (size 15 to 20)
#    0.000    2.286    1.429    0.857    2.000    2.286 
#    0.000    6.429    0.000    0.000    0.000    4.000 
#    0.000    0.000    0.000    0.000    0.000    0.000 
#
# Total GULP energy -693952.568835 kJ/mol
# GULP energy per Si atom -12392.010158 kJ/mol
# Density = 1.887461 g / cm^3
# Si number density = 18.917672 Si / 1000 Ang^3
#
#
#
# Elastic Constant Matrix: (Units=GPa)
#
#
# Indices 1 2 3 4 5 6 
#
# 1 88.4902 36.9258 32.1969 0.0000 0.0000 -4.7071
# 2 36.9258 88.4902 32.1969 0.0000 0.0000 4.7071
# 3 32.1969 32.1969 73.4724 0.0000 0.0000 0.0000
# 4 0.0000 0.0000 0.0000 24.6932 0.0000 0.0000
# 5 0.0000 0.0000 0.0000 0.0000 24.6932 0.0000
# 6 -4.7071 4.7071 0.0000 0.0000 0.0000 20.9423
#
#
#
# Elastic Compliance Matrix: (Units=1/GPa)
#
#
# Indices 1 2 3 4 5 6 
#
# 1 0.015256 -0.004967 -0.004509 0.000000 0.000000 0.004545
# 2 -0.004967 0.015256 -0.004509 0.000000 0.000000 -0.004545
# 3 -0.004509 -0.004509 0.017562 0.000000 0.000000 0.000000
# 4 0.000000 0.000000 0.000000 0.040497 0.000000 0.000000
# 5 0.000000 0.000000 0.000000 0.000000 0.040497 0.000000
# 6 0.004545 -0.004545 0.000000 0.000000 0.000000 0.049794
#
#
# Mechanical properties :
#
#
# Convention : Reuss Voigt Hill
#
# Bulk Modulus (GPa) = 49.74004 50.34358 50.04181
# Shear Modulus (GPa) = 23.41573 24.00792 23.71182
#
# Velocity S-wave (km/s) = 3.52201 3.56627 3.54421
# Velocity P-wave (km/s) = 6.54900 6.60511 6.57711
#
# Compressibility (1/GPa) = 0.02010453
#
# Stress axis : x y z
#
# Youngs Moduli (GPa) = 65.54918 65.54918 56.94111
#
# Poissons Ratio (x) = 0.32561 0.25672
# Poissons Ratio (y) = 0.32561 0.25672
# Poissons Ratio (z) = 0.29553 0.29553
#
# Static dielectric constant tensor:
#      x y z
#    x 3.476930 0.000000 0.000000 
#    y 0.000000 3.476930 0.000000 
#    z 0.000000 0.000000 3.403570 
# 
# 
# High freq. dielectric constant tensor:
#      x y z
#    x 1.732190 0.000000 0.000000 
#    y 0.000000 1.732190 0.000000 
#    z 0.000000 0.000000 1.726430 
# 
# From -- ./inp_files/2902.got.cif
#   From: 2010.03.12/outbox.cif.g09.slc.cpg/sg87_2_cif.got.tgz:2902.got - 2010.04.08 20:16:13.
