data_PCOD8303177
_publ_section_title
;
Structure prediction by ZEFSAII (Michael W. Deem and Ramdas Pophale) SiO2 
 PCOD8303177
Probable space group: P 42/M
;
_chemical_formula_sum "Si O2"
_cell_formula_units_Z 64
_cell_length_a 21.519127
_cell_length_b 21.519127
_cell_length_c 9.158367
_cell_angle_alpha 90.000000
_cell_angle_beta 90.000000
_cell_angle_gamma 90.000000
_cell_volume 4240.990896
_symmetry_space_group_name_H-M "P 42/M"
_symmetry_group_IT_number 84
_symmetry_cell_setting 'tetragonal'
loop_
_space_group_symop_operation_xyz
x,y,z
-y,x,1/2+z
-x,-y,z
y,-x,1/2+z
-x,-y,-z
y,-x,1/2-z
x,y,-z
-y,x,1/2-z
loop_
_atom_site_type_symbol
_atom_site_label
_atom_site_fract_x
_atom_site_fract_y
_atom_site_fract_z
Si Si1 0.938974 0.834766 0.168005
Si Si2 0.253865 0.150038 0.335351
Si Si3 0.761450 0.332253 0.669085
Si Si4 0.660561 0.568145 0.668173
Si Si5 0.856333 0.750668 0.338860
Si Si6 0.330309 0.751888 0.166630
Si Si7 0.337239 0.571753 0.328635
Si Si8 0.064552 0.832921 0.330582
O O1 0.908656 0.769689 0.222394
O O2 0.890919 0.890181 0.194717
O O3 0.999349 0.851671 0.260204
O O4 0.957207 0.826962 0.000000
O O5 0.268673 0.128965 0.500000
O O6 0.317412 0.176319 0.262129
O O7 0.202063 0.203143 0.329700
O O8 0.229097 0.090603 0.246282
O O9 0.778640 0.324303 0.500000
O O10 0.708104 0.283768 0.710668
O O11 0.731543 0.399780 0.703798
O O12 0.640607 0.566699 0.500000
O O13 0.729813 0.598361 0.685815
O O14 0.608613 0.607768 0.750278
O O15 0.663298 0.498566 0.731474
O O16 0.886816 0.753694 0.500000
O O17 0.826285 0.681902 0.308760
O O18 0.307894 0.735136 0.000000
O O19 0.350920 0.575040 0.500000
O O20 0.055629 0.818219 0.500000
#
# Coordination Sequence:
#
# PCOD8303177 Si02
#       8
#     8   8   8   8   8   8   8   8
#     4  10  20  31  43  60  82 110 141 170 201 236
#     4   9  16  27  43  61  80 102 131 167 207 248
#     4   9  15  24  39  58  79 101 129 167 211 252
#     4   9  17  29  42  56  79 111 145 177 209 247
#     4   8  14  25  41  59  77  98 127 165 207 246
#     4   8  14  25  41  58  75 100 133 169 210 251
#     4   9  18  29  40  57  81 110 143 178 211 244
#     4  10  20  32  45  61  83 112 143 173 203 234
#
# _framework density 15.090813000000001
#
# number of rings (size 3 to 8) (size 9 to 14) (size 15 to 20)
#    0.000    3.000    0.000    2.250    0.000    6.000 
#    0.000    2.500    0.000    0.000    0.000    0.000 
#    0.000    1.000    0.000   11.750    0.000    2.750 
#
# Total GULP energy -792995.938286 kJ/mol
# GULP energy per Si atom -12390.561536 kJ/mol
# Density = 1.505647 g / cm^3
# Si number density = 15.090813 Si / 1000 Ang^3
#
#
#
# Elastic Constant Matrix: (Units=GPa)
#
#
# Indices 1 2 3 4 5 6 
#
# 1 58.8753 55.6514 45.1143 0.0000 0.0000 -0.0503
# 2 55.6514 58.8753 45.1143 0.0000 0.0000 0.0503
# 3 45.1143 45.1143 89.2760 0.0000 0.0000 0.0000
# 4 0.0000 0.0000 0.0000 20.8904 0.0000 0.0000
# 5 0.0000 0.0000 0.0000 0.0000 20.8904 0.0000
# 6 -0.0503 0.0503 0.0000 0.0000 0.0000 14.1173
#
#
#
# Elastic Compliance Matrix: (Units=1/GPa)
#
#
# Indices 1 2 3 4 5 6 
#
# 1 0.162363 -0.147855 -0.007331 0.000000 0.000000 0.001105
# 2 -0.147855 0.162363 -0.007331 0.000000 0.000000 -0.001105
# 3 -0.007331 -0.007331 0.018610 0.000000 0.000000 0.000000
# 4 0.000000 0.000000 0.000000 0.047869 0.000000 0.000000
# 5 0.000000 0.000000 0.000000 0.000000 0.047869 0.000000
# 6 0.001105 -0.001105 0.000000 0.000000 0.000000 0.070843
#
#
# Mechanical properties :
#
#
# Convention : Reuss Voigt Hill
#
# Bulk Modulus (GPa) = 54.64220 55.42074 55.03147
# Shear Modulus (GPa) = 5.94494 15.25606 10.60050
#
# Velocity S-wave (km/s) = 1.98696 3.18299 2.65325
# Velocity P-wave (km/s) = 6.44605 7.09318 6.77734
#
# Compressibility (1/GPa) = 0.01830088
#
# Stress axis : x y z
#
# Youngs Moduli (GPa) = 6.15906 6.15906 53.73320
#
# Poissons Ratio (x) = 0.91065 0.39392
# Poissons Ratio (y) = 0.91065 0.39392
# Poissons Ratio (z) = 0.04515 0.04515
#
# Static dielectric constant tensor:
#      x y z
#    x 2.901520 0.000000 0.000000 
#    y 0.000000 2.901520 0.000000 
#    z 0.000000 0.000000 3.023560 
# 
# 
# High freq. dielectric constant tensor:
#      x y z
#    x 1.549960 0.000000 0.000000 
#    y 0.000000 1.549960 0.000000 
#    z 0.000000 0.000000 1.590570 
# 
# From -- ./inp_files/1409.got.cif
#   From: 2010.03.12/outbox.cif.g09.slc.cpg/sg84_1_cif.got.tgz:1409.got - 2010.04.08 20:07:29.
