data_PCOD8303642
_publ_section_title
;
Structure prediction by ZEFSAII (Michael W. Deem and Ramdas Pophale) SiO2 
 PCOD8303642
Probable space group: P 42/N
;
_chemical_formula_sum "Si O2"
_cell_formula_units_Z 54
_cell_length_a 14.896754
_cell_length_b 14.896754
_cell_length_c 11.877208
_cell_angle_alpha 90.000000
_cell_angle_beta 90.000000
_cell_angle_gamma 90.000000
_cell_volume 2635.710181
_symmetry_space_group_name_H-M "P 42/N"
_symmetry_group_IT_number 86
_space_group.IT_coordinate_system_code '2'
_symmetry_cell_setting 'tetragonal'
loop_
_space_group_symop_operation_xyz
x,y,z
-y,1/2+x,1/2+z
1/2-x,1/2-y,z
1/2+y,-x,1/2+z
-x,-y,-z
y,1/2-x,1/2-z
1/2+x,1/2+y,-z
1/2-y,x,1/2-z
loop_
_atom_site_type_symbol
_atom_site_label
_atom_site_fract_x
_atom_site_fract_y
_atom_site_fract_z
Si Si1 0.049117 0.542144 0.753145
Si Si2 0.767024 0.075613 0.652339
Si Si3 0.250000 0.250000 0.750000
Si Si4 0.250000 0.750000 0.221718
Si Si5 0.650833 0.585505 0.358078
Si Si6 0.839895 0.711820 0.926133
Si Si7 0.424366 0.343886 0.224483
Si Si8 0.565599 0.282573 0.893915
O O1 0.066999 0.624625 0.839051
O O2 0.064913 0.449525 0.819075
O O3 0.115020 0.545390 0.644908
O O4 0.947132 0.547729 0.709893
O O5 0.734970 0.171540 0.690339
O O6 0.730014 0.056145 0.527473
O O7 0.719887 0.010604 0.745007
O O8 0.319325 0.187670 0.816645
O O9 0.334098 0.741549 0.140069
O O10 0.652452 0.597190 0.493318
O O11 0.716757 0.503014 0.327110
O O12 0.750000 0.750000 0.984488
O O13 0.822936 0.648970 0.819099
O O14 0.887287 0.805534 0.893433
#
# Coordination Sequence:
#
# PCOD8303642 Si02
#       8
#     8   8   2   4   8   8   8   8
#     4  11  25  41  68  96 132 173 223 274 330 396
#     4  11  23  43  64  97 129 173 224 274 331 400
#     4  12  24  44  68  98 140 172 208 276 336 398
#     4  10  24  42  64  88 134 172 214 274 326 396
#     4  12  24  43  68  99 130 173 218 274 335 399
#     4  12  22  39  69  97 133 168 217 278 338 387
#     4  12  21  42  64  95 133 170 221 276 328 392
#     4  11  23  43  65  94 131 171 220 270 326 394
#
# _framework density 20.487836000000001
#
# number of rings (size 3 to 8) (size 9 to 14) (size 15 to 20)
#    0.000    0.593    6.667    1.333    0.000    4.148 
#    0.000    4.444    0.000    0.000    0.000    0.000 
#    0.000    0.000    0.000    0.000    0.000    0.000 
#
# Total GULP energy -669139.466302 kJ/mol
# GULP energy per Si atom -12391.471598 kJ/mol
# Density = 2.044120 g / cm^3
# Si number density = 20.487836 Si / 1000 Ang^3
#
#
#
# Elastic Constant Matrix: (Units=GPa)
#
#
# Indices 1 2 3 4 5 6 
#
# 1 158.0463 48.4701 47.8153 0.0000 0.0000 -3.4042
# 2 48.4701 158.0463 47.8153 0.0000 0.0000 3.4042
# 3 47.8153 47.8153 93.8394 0.0000 0.0000 0.0000
# 4 0.0000 0.0000 0.0000 23.1903 0.0000 0.0000
# 5 0.0000 0.0000 0.0000 0.0000 23.1903 0.0000
# 6 -3.4042 3.4042 0.0000 0.0000 0.0000 39.7964
#
#
#
# Elastic Compliance Matrix: (Units=1/GPa)
#
#
# Indices 1 2 3 4 5 6 
#
# 1 0.007756 -0.001419 -0.003229 0.000000 0.000000 0.000785
# 2 -0.001419 0.007756 -0.003229 0.000000 0.000000 -0.000785
# 3 -0.003229 -0.003229 0.013947 0.000000 0.000000 0.000000
# 4 0.000000 0.000000 0.000000 0.043122 0.000000 0.000000
# 5 0.000000 0.000000 0.000000 0.000000 0.043122 0.000000
# 6 0.000785 -0.000785 0.000000 0.000000 0.000000 0.025262
#
#
# Mechanical properties :
#
#
# Convention : Reuss Voigt Hill
#
# Bulk Modulus (GPa) = 72.96345 77.57035 75.26690
# Shear Modulus (GPa) = 31.00045 34.95747 32.97896
#
# Velocity S-wave (km/s) = 3.89410 4.13516 4.01644
# Velocity P-wave (km/s) = 7.47723 7.79380 7.63716
#
# Compressibility (1/GPa) = 0.01370549
#
# Stress axis : x y z
#
# Youngs Moduli (GPa) = 128.92881 128.92881 71.69782
#
# Poissons Ratio (x) = 0.18290 0.23153
# Poissons Ratio (y) = 0.18290 0.23153
# Poissons Ratio (z) = 0.41635 0.41635
#
# Static dielectric constant tensor:
#      x y z
#    x 4.194940 0.000000 0.000000 
#    y 0.000000 4.194940 0.000000 
#    z 0.000000 0.000000 3.618280 
# 
# 
# High freq. dielectric constant tensor:
#      x y z
#    x 1.820580 0.000000 0.000000 
#    y 0.000000 1.820580 0.000000 
#    z 0.000000 0.000000 1.781530 
# 
# From -- ./inp_files/2408.got.cif
#   From: 2010.03.12/outbox.cif.g09.slc.cpg/sg86_2_cif.got.tgz:2408.got - 2010.04.08 20:12:58.
