data_PCOD8303414
_publ_section_title
;
Structure prediction by ZEFSAII (Michael W. Deem and Ramdas Pophale) SiO2 
 PCOD8303414
Probable space group: P 4/N
;
_chemical_formula_sum "Si O2"
_cell_formula_units_Z 64
_cell_length_a 11.768153
_cell_length_b 11.768153
_cell_length_c 24.414226
_cell_angle_alpha 90.000000
_cell_angle_beta 90.000000
_cell_angle_gamma 90.000000
_cell_volume 3381.112121
_symmetry_space_group_name_H-M "P 4/N"
_symmetry_group_IT_number 85
_symmetry_cell_setting 'tetragonal'
loop_
_space_group_symop_operation_xyz
x,y,z
1/2-y,x,z
1/2-x,1/2-y,z
y,1/2-x,z
-x,-y,-z
1/2+y,-x,-z
1/2+x,1/2+y,-z
-y,1/2+x,-z
loop_
_atom_site_type_symbol
_atom_site_label
_atom_site_fract_x
_atom_site_fract_y
_atom_site_fract_z
Si Si1 0.342465 0.537001 0.834985
Si Si2 0.567269 0.806177 0.279748
Si Si3 0.644901 0.055714 0.550009
Si Si4 0.375745 0.756792 0.363564
Si Si5 0.050371 0.602788 0.567258
Si Si6 0.121869 0.508957 0.894686
Si Si7 0.430348 0.300432 0.012151
Si Si8 0.738678 0.123006 0.906710
O O1 0.352302 0.504860 0.771834
O O2 0.216529 0.496363 0.848527
O O3 0.428250 0.478249 0.876833
O O4 0.362589 0.670251 0.849059
O O5 0.610445 0.675749 0.281941
O O6 0.474473 0.816822 0.328113
O O7 0.638407 0.177974 0.578831
O O8 0.770116 0.005754 0.557826
O O9 0.617942 0.061069 0.486081
O O10 0.558975 0.971895 0.580395
O O11 0.250000 0.750000 0.334415
O O12 0.412186 0.629382 0.379421
O O13 0.180837 0.475011 0.951327
O O14 0.073048 0.636771 0.895464
O O15 0.328211 0.388536 0.022220
O O16 0.536043 0.326233 0.052573
O O17 0.750000 0.250000 0.933322
#
# Coordination Sequence:
#
# PCOD8303414 Si02
#       8
#     8   8   8   8   8   8   8   8
#     4  11  22  40  60  81 112 150 190 236 286 341
#     4  11  23  40  63  87 116 150 193 243 294 343
#     4  10  19  33  54  80 118 157 193 234 278 336
#     4  10  21  36  60  87 118 151 190 241 285 342
#     4  10  19  33  54  81 117 157 194 231 281 335
#     4  11  22  37  59  85 113 150 191 233 282 348
#     4  11  23  38  59  83 115 152 191 231 284 351
#     4  10  25  37  55  85 117 147 183 237 287 341
#
# _framework density 18.928681999999998
#
# number of rings (size 3 to 8) (size 9 to 14) (size 15 to 20)
#    0.000    1.500    3.750    1.500    3.500    3.000 
#    0.000    0.000    0.000    0.000    0.000    0.000 
#    0.000    0.000    0.000    0.000    0.000    0.000 
#
# Total GULP energy -793184.005258 kJ/mol
# GULP energy per Si atom -12393.500082 kJ/mol
# Density = 1.888560 g / cm^3
# Si number density = 18.928682 Si / 1000 Ang^3
#
#
#
# Elastic Constant Matrix: (Units=GPa)
#
#
# Indices 1 2 3 4 5 6 
#
# 1 89.3093 29.6948 19.4823 0.0000 0.0000 -1.4454
# 2 29.6948 89.3093 19.4823 0.0000 0.0000 1.4454
# 3 19.4823 19.4823 61.1054 0.0000 0.0000 0.0000
# 4 0.0000 0.0000 0.0000 25.1540 0.0000 0.0000
# 5 0.0000 0.0000 0.0000 0.0000 25.1540 0.0000
# 6 -1.4454 1.4454 0.0000 0.0000 0.0000 25.0298
#
#
#
# Elastic Compliance Matrix: (Units=1/GPa)
#
#
# Indices 1 2 3 4 5 6 
#
# 1 0.013102 -0.003720 -0.002991 0.000000 0.000000 0.000971
# 2 -0.003720 0.013102 -0.002991 0.000000 0.000000 -0.000971
# 3 -0.002991 -0.002991 0.018273 0.000000 0.000000 0.000000
# 4 0.000000 0.000000 0.000000 0.039755 0.000000 0.000000
# 5 0.000000 0.000000 0.000000 0.000000 0.039755 0.000000
# 6 0.000971 -0.000971 0.000000 0.000000 0.000000 0.040065
#
#
# Mechanical properties :
#
#
# Convention : Reuss Voigt Hill
#
# Bulk Modulus (GPa) = 39.88516 41.89365 40.88941
# Shear Modulus (GPa) = 26.06695 26.47185 26.26940
#
# Velocity S-wave (km/s) = 3.71497 3.74372 3.72937
# Velocity P-wave (km/s) = 6.28637 6.39278 6.33980
#
# Compressibility (1/GPa) = 0.02507198
#
# Stress axis : x y z
#
# Youngs Moduli (GPa) = 76.32391 76.32391 54.72647
#
# Poissons Ratio (x) = 0.28389 0.16371
# Poissons Ratio (y) = 0.28389 0.16371
# Poissons Ratio (z) = 0.22832 0.22832
#
# Static dielectric constant tensor:
#      x y z
#    x 3.643800 0.000000 0.000000 
#    y 0.000000 3.643800 0.000000 
#    z 0.000000 0.000000 3.167010 
# 
# 
# High freq. dielectric constant tensor:
#      x y z
#    x 1.743080 0.000000 0.000000 
#    y 0.000000 1.743080 0.000000 
#    z 0.000000 0.000000 1.710080 
# 
# From -- ./inp_files/2357.got.cif
#   From: 2010.03.12/outbox.cif.g09.slc.cpg/sg85_cif.got.tgz:2357.got - 2010.04.08 20:10:46.
