data_PCOD8303071
_publ_section_title
;
Structure prediction by ZEFSAII (Michael W. Deem and Ramdas Pophale) SiO2 
 PCOD8303071
Probable space group: P 42/M
;
_chemical_formula_sum "Si O2"
_cell_formula_units_Z 64
_cell_length_a 12.618485
_cell_length_b 12.618485
_cell_length_c 23.729467
_cell_angle_alpha 90.000000
_cell_angle_beta 90.000000
_cell_angle_gamma 90.000000
_cell_volume 3778.351997
_symmetry_space_group_name_H-M "P 42/M"
_symmetry_group_IT_number 84
_symmetry_cell_setting 'tetragonal'
loop_
_space_group_symop_operation_xyz
x,y,z
-y,x,1/2+z
-x,-y,z
y,-x,1/2+z
-x,-y,-z
y,-x,1/2-z
x,y,-z
-y,x,1/2-z
loop_
_atom_site_type_symbol
_atom_site_label
_atom_site_fract_x
_atom_site_fract_y
_atom_site_fract_z
Si Si1 0.910464 0.089536 0.063267
Si Si2 0.666411 0.498590 0.933365
Si Si3 0.770385 0.052563 0.631117
Si Si4 0.947437 0.229615 0.631117
Si Si5 0.434584 0.105328 0.934211
Si Si6 0.174319 0.000000 0.250000
Si Si7 0.498590 0.666411 0.066635
Si Si8 0.565416 0.105328 0.434211
O O1 0.950898 0.195301 0.094301
O O2 0.804699 0.049102 0.094301
O O3 0.878555 0.121445 0.000000
O O4 0.000000 0.000000 0.063426
O O5 0.607802 0.392198 0.909952
O O6 0.602915 0.602915 0.911245
O O7 0.789819 0.500419 0.915080
O O8 0.660229 0.497525 0.000000
O O9 0.864845 0.135155 0.629793
O O10 0.750303 0.018895 0.695953
O O11 0.668388 0.105596 0.604267
O O12 0.894404 0.331612 0.604267
O O13 0.981105 0.249697 0.695953
O O14 0.499581 0.210181 0.915080
O O15 0.500000 0.000000 0.921007
O O16 0.402356 0.111185 0.000000
O O17 0.100909 0.899091 0.236562
O O18 0.497525 0.660229 0.000000
O O19 0.597644 0.111185 0.500000
O O20 0.500000 0.000000 0.421007
#
# Coordination Sequence:
#
# PCOD8303071 Si02
#       8
#     8   8   8   8   8   8   8   8
#     4   9  16  26  42  70 100 124 155 195 241 298
#     4   8  14  27  47  66  86 121 167 204 233 278
#     4  10  18  30  49  71  95 131 168 206 244 294
#     4  10  18  30  49  71  95 131 168 206 244 294
#     4  10  20  32  44  68 103 131 159 201 260 317
#     4   9  16  30  49  70  98 128 169 208 241 282
#     4   8  14  27  47  66  86 121 167 204 233 278
#     4  10  20  32  44  68 103 131 159 201 260 317
#
# _framework density 16.938601999999999
#
# number of rings (size 3 to 8) (size 9 to 14) (size 15 to 20)
#    0.000    2.750    1.250    2.250    0.000    2.500 
#    2.250    0.625    0.000    0.000    0.000    0.000 
#    0.000    0.000    0.000    6.250    0.000    3.750 
#
# Total GULP energy -793227.675070 kJ/mol
# GULP energy per Si atom -12394.182423 kJ/mol
# Density = 1.690005 g / cm^3
# Si number density = 16.938602 Si / 1000 Ang^3
#
#
#
# Elastic Constant Matrix: (Units=GPa)
#
#
# Indices 1 2 3 4 5 6 
#
# 1 90.8900 45.0206 32.8698 0.0000 0.0000 0.0000
# 2 45.0206 90.8900 32.8698 0.0000 0.0000 0.0000
# 3 32.8698 32.8698 90.3608 0.0000 0.0000 0.0000
# 4 0.0000 0.0000 0.0000 6.0051 0.0000 0.0000
# 5 0.0000 0.0000 0.0000 0.0000 6.0051 0.0000
# 6 0.0000 0.0000 0.0000 0.0000 0.0000 22.5832
#
#
#
# Elastic Compliance Matrix: (Units=1/GPa)
#
#
# Indices 1 2 3 4 5 6 
#
# 1 0.015365 -0.006436 -0.003248 0.000000 0.000000 0.000000
# 2 -0.006436 0.015365 -0.003248 0.000000 0.000000 0.000000
# 3 -0.003248 -0.003248 0.013430 0.000000 0.000000 0.000000
# 4 0.000000 0.000000 0.000000 0.166525 0.000000 0.000000
# 5 0.000000 0.000000 0.000000 0.000000 0.166525 0.000000
# 6 0.000000 0.000000 0.000000 0.000000 0.000000 0.044281
#
#
# Mechanical properties :
#
#
# Convention : Reuss Voigt Hill
#
# Bulk Modulus (GPa) = 54.65825 54.85122 54.75473
# Shear Modulus (GPa) = 11.02649 17.67738 14.35194
#
# Velocity S-wave (km/s) = 2.55418 3.23401 2.91399
# Velocity P-wave (km/s) = 6.40601 6.81159 6.61191
#
# Compressibility (1/GPa) = 0.01829550
#
# Stress axis : x y z
#
# Youngs Moduli (GPa) = 65.08330 65.08330 74.46181
#
# Poissons Ratio (x) = 0.41888 0.24185
# Poissons Ratio (y) = 0.41888 0.24185
# Poissons Ratio (z) = 0.21139 0.21139
#
# Static dielectric constant tensor:
#      x y z
#    x 3.228360 0.000000 0.000000 
#    y 0.000000 3.228360 0.000000 
#    z 0.000000 0.000000 3.015340 
# 
# 
# High freq. dielectric constant tensor:
#      x y z
#    x 1.640820 0.000000 0.000000 
#    y 0.000000 1.640820 0.000000 
#    z 0.000000 0.000000 1.621140 
# 
# From -- ./inp_files/5093.got.cif
#   From: 2010.03.12/outbox.cif.g09.slc.cpg/sg84_3_cif.got.tgz:5093.got - 2010.04.08 20:07:29.
