data_PCOD8303187
_publ_section_title
;
Structure prediction by ZEFSAII (Michael W. Deem and Ramdas Pophale) SiO2 
 PCOD8303187
Probable space group: P 42/M
;
_chemical_formula_sum "Si O2"
_cell_formula_units_Z 48
_cell_length_a 16.972817
_cell_length_b 16.972817
_cell_length_c 9.032671
_cell_angle_alpha 90.000000
_cell_angle_beta 90.000000
_cell_angle_gamma 90.000000
_cell_volume 2602.100400
_symmetry_space_group_name_H-M "P 42/M"
_symmetry_group_IT_number 84
_symmetry_cell_setting 'tetragonal'
loop_
_space_group_symop_operation_xyz
x,y,z
-y,x,1/2+z
-x,-y,z
y,-x,1/2+z
-x,-y,-z
y,-x,1/2-z
x,y,-z
-y,x,1/2-z
loop_
_atom_site_type_symbol
_atom_site_label
_atom_site_fract_x
_atom_site_fract_y
_atom_site_fract_z
Si Si1 0.505549 0.616567 0.176850
Si Si2 0.204793 0.074089 0.826045
Si Si3 0.068800 0.617024 0.326996
Si Si4 0.799135 0.505702 0.327428
Si Si5 0.380507 0.910639 0.673594
Si Si6 0.799847 0.081563 0.326993
O O1 0.580733 0.573923 0.251387
O O2 0.511017 0.708868 0.217037
O O3 0.505788 0.602511 0.000000
O O4 0.294416 0.086867 0.773786
O O5 0.155545 0.149279 0.771838
O O6 0.168204 0.996392 0.752707
O O7 0.199662 0.063225 0.000000
O O8 0.050443 0.611748 0.500000
O O9 0.146709 0.568699 0.283901
O O10 0.990778 0.584228 0.244946
O O11 0.805438 0.525379 0.500000
O O12 0.832144 0.579529 0.236916
O O13 0.394568 0.915179 0.500000
O O14 0.289661 0.901545 0.718110
O O15 0.808912 0.067575 0.500000
#
# Coordination Sequence:
#
# PCOD8303187 Si02
#       6
#     8   8   8   8   8   8
#     4  10  21  38  58  79 105 136 170 210 258 307
#     4   9  18  33  52  71  95 132 171 205 247 297
#     4   9  18  34  53  72 100 136 171 207 249 301
#     4  10  21  35  54  79 103 133 172 207 245 303
#     4  10  20  33  51  76 106 136 167 210 259 300
#     4   9  19  34  50  72 101 131 167 210 253 296
#
# _framework density 18.446636999999999
#
# number of rings (size 3 to 8) (size 9 to 14) (size 15 to 20)
#    0.000    2.500    0.000    2.000    0.000    7.000 
#    0.000    5.000    0.000    4.000    0.000    0.000 
#    0.000    0.000    0.000    0.000    0.000    0.000 
#
# Total GULP energy -595232.430714 kJ/mol
# GULP energy per Si atom -12400.675640 kJ/mol
# Density = 1.840465 g / cm^3
# Si number density = 18.446637 Si / 1000 Ang^3
#
#
#
# Elastic Constant Matrix: (Units=GPa)
#
#
# Indices 1 2 3 4 5 6 
#
# 1 112.8610 53.6392 38.0488 0.0000 0.0000 -0.0994
# 2 53.6392 112.8610 38.0488 0.0000 0.0000 0.0994
# 3 38.0488 38.0488 48.5124 0.0000 0.0000 0.0000
# 4 0.0000 0.0000 0.0000 27.2339 0.0000 0.0000
# 5 0.0000 0.0000 0.0000 0.0000 27.2339 0.0000
# 6 -0.0994 0.0994 0.0000 0.0000 0.0000 29.4038
#
#
#
# Elastic Compliance Matrix: (Units=1/GPa)
#
#
# Indices 1 2 3 4 5 6 
#
# 1 0.013124 -0.003762 -0.007343 0.000000 0.000000 0.000057
# 2 -0.003762 0.013124 -0.007343 0.000000 0.000000 -0.000057
# 3 -0.007343 -0.007343 0.032131 0.000000 0.000000 0.000000
# 4 0.000000 0.000000 0.000000 0.036719 0.000000 0.000000
# 5 0.000000 0.000000 0.000000 0.000000 0.036719 0.000000
# 6 0.000057 -0.000057 0.000000 0.000000 0.000000 0.034010
#
#
# Mechanical properties :
#
#
# Convention : Reuss Voigt Hill
#
# Bulk Modulus (GPa) = 46.54550 59.30089 52.92320
# Shear Modulus (GPa) = 23.82288 26.40750 25.11519
#
# Velocity S-wave (km/s) = 3.59757 3.78770 3.69386
# Velocity P-wave (km/s) = 6.52257 7.16561 6.85164
#
# Compressibility (1/GPa) = 0.02148435
#
# Stress axis : x y z
#
# Youngs Moduli (GPa) = 76.19690 76.19690 31.12248
#
# Poissons Ratio (x) = 0.28665 0.22852
# Poissons Ratio (y) = 0.28665 0.22852
# Poissons Ratio (z) = 0.55949 0.55949
#
# Static dielectric constant tensor:
#      x y z
#    x 3.563170 0.000000 0.000000 
#    y 0.000000 3.563170 0.000000 
#    z 0.000000 0.000000 3.332900 
# 
# 
# High freq. dielectric constant tensor:
#      x y z
#    x 1.717160 0.000000 0.000000 
#    y 0.000000 1.717160 0.000000 
#    z 0.000000 0.000000 1.712850 
# 
# From -- ./inp_files/968.got.cif
#   From: 2010.03.12/outbox.cif.g09.slc.cpg/sg84_1_cif.got.tgz:968.got - 2010.04.08 20:07:29.
