data_PCOD8303695
_publ_section_title
;
Structure prediction by ZEFSAII (Michael W. Deem and Ramdas Pophale) SiO2 
 PCOD8303695
Probable space group: P 42/N
;
_chemical_formula_sum "Si O2"
_cell_formula_units_Z 44
_cell_length_a 8.531928
_cell_length_b 8.531928
_cell_length_c 27.911166
_cell_angle_alpha 90.000000
_cell_angle_beta 90.000000
_cell_angle_gamma 90.000000
_cell_volume 2031.759707
_symmetry_space_group_name_H-M "P 42/N"
_symmetry_group_IT_number 86
_space_group.IT_coordinate_system_code '2'
_symmetry_cell_setting 'tetragonal'
loop_
_space_group_symop_operation_xyz
x,y,z
-y,1/2+x,1/2+z
1/2-x,1/2-y,z
1/2+y,-x,1/2+z
-x,-y,-z
y,1/2-x,1/2-z
1/2+x,1/2+y,-z
1/2-y,x,1/2-z
loop_
_atom_site_type_symbol
_atom_site_label
_atom_site_fract_x
_atom_site_fract_y
_atom_site_fract_z
Si Si1 0.581176 0.313917 0.957481
Si Si2 0.250000 0.750000 0.178229
Si Si3 0.415288 0.319979 0.052827
Si Si4 0.422775 0.190360 0.871713
Si Si5 0.743866 0.999112 0.743677
Si Si6 0.589691 0.178951 0.138076
O O1 0.750000 0.250000 0.943192
O O2 0.588289 0.494607 0.943587
O O3 0.441451 0.229866 0.927794
O O4 0.545071 0.276190 0.012963
O O5 0.416593 0.728546 0.149887
O O6 0.206248 0.609376 0.212559
O O7 0.250000 0.250000 0.036128
O O8 0.452950 0.248136 0.104871
O O9 0.250000 0.250000 0.853008
O O10 0.420685 0.006626 0.863511
O O11 0.893620 0.907235 0.761896
O O12 0.767599 0.080420 0.692853
O O13 0.750000 0.250000 0.116911
#
# Coordination Sequence:
#
# PCOD8303695 Si02
#       6
#     8   4   8   8   8   8
#     4  11  24  46  70 105 144 187 235 298 355 433
#     4  12  26  48  72 108 142 192 242 308 368 430
#     4  11  26  42  71 102 142 189 236 288 363 433
#     4  12  27  46  75 107 146 187 241 303 366 436
#     4  11  26  45  71  99 141 184 238 297 360 428
#     4  12  26  46  69 104 139 190 238 299 360 437
#
# _framework density 21.656103999999999
#
# number of rings (size 3 to 8) (size 9 to 14) (size 15 to 20)
#    0.000    0.545    3.636    3.273    7.636    5.818 
#    0.000    0.000    0.000    0.000    0.000    0.000 
#    0.000    0.000    0.000    0.000    0.000    0.000 
#
# Total GULP energy -545362.002166 kJ/mol
# GULP energy per Si atom -12394.590958 kJ/mol
# Density = 2.160681 g / cm^3
# Si number density = 21.656104 Si / 1000 Ang^3
#
#
#
# Elastic Constant Matrix: (Units=GPa)
#
#
# Indices 1 2 3 4 5 6 
#
# 1 90.9351 3.8585 38.0874 0.0000 0.0000 0.0760
# 2 3.8585 90.9351 38.0874 0.0000 0.0000 -0.0760
# 3 38.0874 38.0874 102.6157 0.0000 0.0000 0.0000
# 4 0.0000 0.0000 0.0000 46.8007 0.0000 0.0000
# 5 0.0000 0.0000 0.0000 0.0000 46.8007 0.0000
# 6 0.0760 -0.0760 0.0000 0.0000 0.0000 39.6854
#
#
#
# Elastic Compliance Matrix: (Units=1/GPa)
#
#
# Indices 1 2 3 4 5 6 
#
# 1 0.013259 0.001774 -0.005580 0.000000 0.000000 -0.000022
# 2 0.001774 0.013259 -0.005580 0.000000 0.000000 0.000022
# 3 -0.005580 -0.005580 0.013887 0.000000 0.000000 0.000000
# 4 0.000000 0.000000 0.000000 0.021367 0.000000 0.000000
# 5 0.000000 0.000000 0.000000 0.000000 0.021367 0.000000
# 6 -0.000022 0.000022 0.000000 0.000000 0.000000 0.025198
#
#
# Mechanical properties :
#
#
# Convention : Reuss Voigt Hill
#
# Bulk Modulus (GPa) = 46.22309 49.39473 47.80891
# Shear Modulus (GPa) = 37.22497 40.28756 38.75627
#
# Velocity S-wave (km/s) = 4.15048 4.31784 4.23498
# Velocity P-wave (km/s) = 6.66026 6.90771 6.78511
#
# Compressibility (1/GPa) = 0.02163421
#
# Stress axis : x y z
#
# Youngs Moduli (GPa) = 75.42276 75.42276 72.00929
#
# Poissons Ratio (x) = -0.13383 0.40179
# Poissons Ratio (y) = -0.13383 0.40179
# Poissons Ratio (z) = 0.42084 0.42084
#
# Static dielectric constant tensor:
#      x y z
#    x 4.025730 0.000000 0.000000 
#    y 0.000000 4.025730 0.000000 
#    z 0.000000 0.000000 3.857270 
# 
# 
# High freq. dielectric constant tensor:
#      x y z
#    x 1.860450 0.000000 0.000000 
#    y 0.000000 1.860450 0.000000 
#    z 0.000000 0.000000 1.860880 
# 
# From -- ./inp_files/5058.got.cif
#   From: 2010.03.12/outbox.cif.g09.slc.cpg/sg86_3_cif.got.tgz:5058.got - 2010.04.08 20:12:58.
