data_PCOD8303940
_publ_section_title
;
Structure prediction by ZEFSAII (Michael W. Deem and Ramdas Pophale) SiO2 
 PCOD8303940
Probable space group: I 4/M
;
_chemical_formula_sum "Si O2"
_cell_formula_units_Z 96
_cell_length_a 23.546920
_cell_length_b 23.546920
_cell_length_c 8.870343
_cell_angle_alpha 90.000000
_cell_angle_beta 90.000000
_cell_angle_gamma 90.000000
_cell_volume 4918.227685
_symmetry_space_group_name_H-M "I 4/M"
_symmetry_group_IT_number 87
_symmetry_cell_setting 'tetragonal'
loop_
_space_group_symop_operation_xyz
x,y,z
-y,x,z
-x,-y,z
y,-x,z
-x,-y,-z
y,-x,-z
x,y,-z
-y,x,-z
1/2+x,1/2+y,1/2+z
1/2-y,1/2+x,1/2+z
1/2-x,1/2-y,1/2+z
1/2+y,1/2-x,1/2+z
1/2-x,1/2-y,1/2-z
1/2+y,1/2-x,1/2-z
1/2+x,1/2+y,1/2-z
1/2-y,1/2+x,1/2-z
loop_
_atom_site_type_symbol
_atom_site_label
_atom_site_fract_x
_atom_site_fract_y
_atom_site_fract_z
Si Si1 0.691359 0.679895 0.820029
Si Si2 0.281621 0.888592 0.326600
Si Si3 0.358249 0.496223 0.831125
Si Si4 0.606181 0.396031 0.676589
Si Si5 0.984838 0.271334 0.329724
Si Si6 0.296957 0.130480 0.174367
O O1 0.655623 0.734569 0.760650
O O2 0.664429 0.625087 0.740465
O O3 0.756026 0.675546 0.761147
O O4 0.691180 0.675169 0.000000
O O5 0.264669 0.898067 0.500000
O O6 0.343439 0.860203 0.306925
O O7 0.282627 0.952403 0.254859
O O8 0.355079 0.558561 0.761530
O O9 0.400698 0.459679 0.725666
O O10 0.295204 0.471591 0.830852
O O11 0.383044 0.498040 0.000000
O O12 0.613494 0.402266 0.500000
O O13 0.982715 0.295804 0.500000
O O14 0.933815 0.300071 0.236281
O O15 0.278469 0.129179 0.000000
#
# Coordination Sequence:
#
# PCOD8303940 Si02
#       6
#    16  16  16  16  16  16
#     4  11  20  36  58  82 115 157 194 225 279 349
#     4   9  20  38  59  83 115 152 190 232 280 337
#     4  11  22  39  61  80 108 153 201 236 281 342
#     4  12  24  37  56  84 116 147 192 247 290 325
#     4  10  20  38  61  81 110 154 193 225 275 348
#     4  11  22  36  57  89 120 145 184 241 291 330
#
# _framework density 19.519224999999999
#
# number of rings (size 3 to 8) (size 9 to 14) (size 15 to 20)
#    0.000    1.333    3.333    3.500    0.000    1.000 
#    0.000    5.833    0.000    0.500    0.000    3.500 
#    0.000    0.000    0.000    0.000    0.000    0.000 
#
# Total GULP energy -594958.803897 kJ/mol
# GULP energy per Si atom -12394.975081 kJ/mol
# Density = 1.947480 g / cm^3
# Si number density = 19.519225 Si / 1000 Ang^3
#
#
#
# Elastic Constant Matrix: (Units=GPa)
#
#
# Indices 1 2 3 4 5 6 
#
# 1 88.9326 49.3694 33.3623 0.0000 0.0000 -4.0664
# 2 49.3694 88.9326 33.3623 0.0000 0.0000 4.0664
# 3 33.3623 33.3623 91.4716 0.0000 0.0000 0.0000
# 4 0.0000 0.0000 0.0000 25.0512 0.0000 0.0000
# 5 0.0000 0.0000 0.0000 0.0000 25.0512 0.0000
# 6 -4.0664 4.0664 0.0000 0.0000 0.0000 25.9410
#
#
#
# Elastic Compliance Matrix: (Units=1/GPa)
#
#
# Indices 1 2 3 4 5 6 
#
# 1 0.017446 -0.008672 -0.003200 0.000000 0.000000 0.004094
# 2 -0.008672 0.017446 -0.003200 0.000000 0.000000 -0.004094
# 3 -0.003200 -0.003200 0.013267 0.000000 0.000000 0.000000
# 4 0.000000 0.000000 0.000000 0.039918 0.000000 0.000000
# 5 0.000000 0.000000 0.000000 0.000000 0.039918 0.000000
# 6 0.004094 -0.004094 0.000000 0.000000 0.000000 0.039833
#
#
# Mechanical properties :
#
#
# Convention : Reuss Voigt Hill
#
# Bulk Modulus (GPa) = 55.51034 55.72497 55.61766
# Shear Modulus (GPa) = 24.51253 25.42487 24.96870
#
# Velocity S-wave (km/s) = 3.54759 3.61301 3.58045
# Velocity P-wave (km/s) = 6.72912 6.78350 6.75636
#
# Compressibility (1/GPa) = 0.01801466
#
# Stress axis : x y z
#
# Youngs Moduli (GPa) = 57.31943 57.31943 75.37578
#
# Poissons Ratio (x) = 0.49705 0.24123
# Poissons Ratio (y) = 0.49705 0.24123
# Poissons Ratio (z) = 0.18344 0.18344
#
# Static dielectric constant tensor:
#      x y z
#    x 3.458380 0.000000 0.000000 
#    y 0.000000 3.458380 0.000000 
#    z 0.000000 0.000000 3.398720 
# 
# 
# High freq. dielectric constant tensor:
#      x y z
#    x 1.750920 0.000000 0.000000 
#    y 0.000000 1.750920 0.000000 
#    z 0.000000 0.000000 1.747040 
# 
# From -- ./inp_files/1452.got.cif
#   From: 2010.03.12/outbox.cif.g09.slc.cpg/sg87_1_cif.got.tgz:1452.got - 2010.04.08 20:16:13.
