data_PCOD8303655
_publ_section_title
;
Structure prediction by ZEFSAII (Michael W. Deem and Ramdas Pophale) SiO2 
 PCOD8303655
Probable space group: P 42/N
;
_chemical_formula_sum "Si O2"
_cell_formula_units_Z 40
_cell_length_a 9.349265
_cell_length_b 9.349265
_cell_length_c 22.452956
_cell_angle_alpha 90.000000
_cell_angle_beta 90.000000
_cell_angle_gamma 90.000000
_cell_volume 1962.584953
_symmetry_space_group_name_H-M "P 42/N"
_symmetry_group_IT_number 86
_space_group.IT_coordinate_system_code '2'
_symmetry_cell_setting 'tetragonal'
loop_
_space_group_symop_operation_xyz
x,y,z
-y,1/2+x,1/2+z
1/2-x,1/2-y,z
1/2+y,-x,1/2+z
-x,-y,-z
y,1/2-x,1/2-z
1/2+x,1/2+y,-z
1/2-y,x,1/2-z
loop_
_atom_site_type_symbol
_atom_site_label
_atom_site_fract_x
_atom_site_fract_y
_atom_site_fract_z
Si Si1 0.247043 0.420855 0.330802
Si Si2 0.275137 0.081516 0.679559
Si Si3 0.839546 0.394676 0.557460
Si Si4 0.973820 0.493391 0.762130
Si Si5 0.108646 0.170867 0.954694
O O1 0.250000 0.250000 0.343088
O O2 0.175904 0.501056 0.386188
O O3 0.400825 0.494218 0.318570
O O4 0.172716 0.458926 0.268153
O O5 0.250000 0.250000 0.695839
O O6 0.415801 0.013605 0.707697
O O7 0.272168 0.060592 0.609260
O O8 0.158783 0.975614 0.706709
O O9 0.750000 0.250000 0.565498
O O10 0.789892 0.479818 0.498929
O O11 0.004196 0.352719 0.549610
O O12 0.250000 0.250000 0.978062
#
# Coordination Sequence:
#
# PCOD8303655 Si02
#       5
#     8   8   8   8   8
#     4  12  26  46  63  99 138 179 219 275 337 396
#     4  11  23  42  68 100 134 172 220 276 331 390
#     4  11  26  46  73  98 130 181 230 271 339 402
#     4  12  22  43  65  98 138 174 216 273 335 399
#     4  10  24  48  68  98 137 171 223 289 328 391
#
# _framework density 20.381283
#
# number of rings (size 3 to 8) (size 9 to 14) (size 15 to 20)
#    0.000    0.800    6.000    0.600    8.400    0.800 
#   10.800    0.000    0.000    0.000    0.000    0.000 
#    0.000    0.000    0.000    0.000    0.000    0.000 
#
# Total GULP energy -495787.424149 kJ/mol
# GULP energy per Si atom -12394.685604 kJ/mol
# Density = 2.033489 g / cm^3
# Si number density = 20.381283 Si / 1000 Ang^3
#
#
#
# Elastic Constant Matrix: (Units=GPa)
#
#
# Indices 1 2 3 4 5 6 
#
# 1 85.8866 54.6533 37.0265 0.0000 0.0000 2.1981
# 2 54.6533 85.8866 37.0265 0.0000 0.0000 -2.1981
# 3 37.0265 37.0265 107.8488 0.0000 0.0000 0.0000
# 4 0.0000 0.0000 0.0000 -719.5297 0.0000 0.0000
# 5 0.0000 0.0000 0.0000 0.0000 -719.5297 0.0000
# 6 2.1981 -2.1981 0.0000 0.0000 0.0000 36.1496
#
#
#
# Elastic Compliance Matrix: (Units=1/GPa)
#
#
# Indices 1 2 3 4 5 6 
#
# 1 0.020490 -0.011803 -0.002982 0.000000 0.000000 -0.001964
# 2 -0.011803 0.020490 -0.002982 0.000000 0.000000 0.001964
# 3 -0.002982 -0.002982 0.011320 0.000000 0.000000 0.000000
# 4 0.000000 0.000000 0.000000 -0.001390 0.000000 0.000000
# 5 0.000000 0.000000 0.000000 0.000000 -0.001390 0.000000
# 6 -0.001964 0.001964 0.000000 0.000000 0.000000 0.027902
#
#
# Mechanical properties :
#
#
# Convention : Reuss Voigt Hill
#
# Bulk Modulus (GPa) = 59.65046 59.67053 59.66050
# Shear Modulus (GPa) = 42.17749 -270.52093 -114.17172
#
# Velocity S-wave (km/s) = 4.55403 -11.53335 -7.49263
# Velocity P-wave (km/s) = 7.54871 12.16622 6.74663
#
# Compressibility (1/GPa) = 0.01676433
#
# Stress axis : x y z
#
# Youngs Moduli (GPa) = 48.80385 48.80385 88.33882
#
# Poissons Ratio (x) = 0.57605 0.26346
# Poissons Ratio (y) = 0.57605 0.26346
# Poissons Ratio (z) = 0.14555 0.14555
#
# Static dielectric constant tensor:
#      x y z
#    x 3.867990 0.000000 0.000000 
#    y 0.000000 3.867990 0.000000 
#    z 0.000000 0.000000 3.815330 
# 
# 
# High freq. dielectric constant tensor:
#      x y z
#    x 1.797370 0.000000 0.000000 
#    y 0.000000 1.797370 0.000000 
#    z 0.000000 0.000000 1.814210 
# 
# From -- ./inp_files/4488.got.cif
#   From: 2010.03.12/outbox.cif.g09.slc.cpg/sg86_3_cif.got.tgz:4488.got - 2010.04.08 20:12:58.
