data_PCOD8303673
_publ_section_title
;
Structure prediction by ZEFSAII (Michael W. Deem and Ramdas Pophale) SiO2 
 PCOD8303673
Probable space group: P 42/N
;
_chemical_formula_sum "Si O2"
_cell_formula_units_Z 40
_cell_length_a 15.316282
_cell_length_b 15.316282
_cell_length_c 7.631547
_cell_angle_alpha 90.000000
_cell_angle_beta 90.000000
_cell_angle_gamma 90.000000
_cell_volume 1790.273120
_symmetry_space_group_name_H-M "P 42/N"
_symmetry_group_IT_number 86
_space_group.IT_coordinate_system_code '2'
_symmetry_cell_setting 'tetragonal'
loop_
_space_group_symop_operation_xyz
x,y,z
-y,1/2+x,1/2+z
1/2-x,1/2-y,z
1/2+y,-x,1/2+z
-x,-y,-z
y,1/2-x,1/2-z
1/2+x,1/2+y,-z
1/2-y,x,1/2-z
loop_
_atom_site_type_symbol
_atom_site_label
_atom_site_fract_x
_atom_site_fract_y
_atom_site_fract_z
Si Si1 0.932870 0.929359 0.924849
Si Si2 0.983461 0.747437 0.014166
Si Si3 0.915979 0.557865 0.966225
Si Si4 0.299519 0.566782 0.172720
Si Si5 0.067447 0.798829 0.341899
O O1 0.930451 0.839565 0.039837
O O2 0.838668 0.924539 0.498752
O O3 0.839856 0.978194 0.912091
O O4 0.000000 0.000000 0.000000
O O5 0.043401 0.731780 0.186547
O O6 0.042898 0.759582 0.840181
O O7 0.893737 0.540534 0.765172
O O8 0.838536 0.522920 0.086229
O O9 0.000000 0.500000 0.000000
O O10 0.373526 0.628221 0.252115
O O11 0.247570 0.613379 0.011407
#
# Coordination Sequence:
#
# PCOD8303673 Si02
#       5
#     8   8   8   8   8
#     4  11  21  42  73 100 136 187 236 299 362 428
#     4  11  24  41  72 108 135 183 251 295 358 441
#     4  11  22  42  71 101 138 184 244 293 358 438
#     4  11  26  43  71 105 142 191 241 300 368 446
#     4  12  25  44  72 103 143 192 241 298 370 445
#
# _framework density 22.342959
#
# number of rings (size 3 to 8) (size 9 to 14) (size 15 to 20)
#    0.000    0.800    8.000    0.000    5.600    1.600 
#    0.000    4.000    0.000    0.000    0.000    0.000 
#    0.000    0.000    0.000    0.000    0.000    0.000 
#
# Total GULP energy -495538.797147 kJ/mol
# GULP energy per Si atom -12388.469929 kJ/mol
# Density = 2.229211 g / cm^3
# Si number density = 22.342959 Si / 1000 Ang^3
#
#
#
# Elastic Constant Matrix: (Units=GPa)
#
#
# Indices 1 2 3 4 5 6 
#
# 1 101.6498 37.3257 41.8344 0.0000 0.0000 6.4960
# 2 37.3257 101.6498 41.8344 0.0000 0.0000 -6.4960
# 3 41.8344 41.8344 157.7679 0.0000 0.0000 0.0000
# 4 0.0000 0.0000 0.0000 36.9604 0.0000 0.0000
# 5 0.0000 0.0000 0.0000 0.0000 36.9604 0.0000
# 6 6.4960 -6.4960 0.0000 0.0000 0.0000 9.9306
#
#
#
# Elastic Compliance Matrix: (Units=1/GPa)
#
#
# Indices 1 2 3 4 5 6 
#
# 1 0.013238 -0.004675 -0.002270 0.000000 0.000000 -0.011718
# 2 -0.004675 0.013238 -0.002270 0.000000 0.000000 0.011718
# 3 -0.002270 -0.002270 0.007543 0.000000 0.000000 0.000000
# 4 0.000000 0.000000 0.000000 0.027056 0.000000 0.000000
# 5 0.000000 0.000000 0.000000 0.000000 0.027056 0.000000
# 6 -0.011718 0.011718 0.000000 0.000000 0.000000 0.116029
#
#
# Mechanical properties :
#
#
# Convention : Reuss Voigt Hill
#
# Bulk Modulus (GPa) = 64.16201 67.00629 65.58415
# Shear Modulus (GPa) = 21.95039 32.77514 27.36277
#
# Velocity S-wave (km/s) = 3.13777 3.83418 3.50333
# Velocity P-wave (km/s) = 6.47354 7.04672 6.76620
#
# Compressibility (1/GPa) = 0.01558555
#
# Stress axis : x y z
#
# Youngs Moduli (GPa) = 75.54193 75.54193 132.58191
#
# Poissons Ratio (x) = 0.35318 0.30102
# Poissons Ratio (y) = 0.35318 0.30102
# Poissons Ratio (z) = 0.17151 0.17151
#
# Static dielectric constant tensor:
#      x y z
#    x 3.900280 0.000000 0.000000 
#    y 0.000000 3.900280 0.000000 
#    z 0.000000 0.000000 4.785960 
# 
# 
# High freq. dielectric constant tensor:
#      x y z
#    x 1.860600 0.000000 0.000000 
#    y 0.000000 1.860600 0.000000 
#    z 0.000000 0.000000 1.913280 
# 
# From -- ./inp_files/1138.got.cif
#   From: 2010.03.12/outbox.cif.g09.slc.cpg/sg86_1_cif.got.tgz:1138.got - 2010.04.08 20:12:58.
