data_PCOD8303335
_publ_section_title
;
Structure prediction by ZEFSAII (Michael W. Deem and Ramdas Pophale) SiO2 
 PCOD8303335
Probable space group: P 42/M
;
_chemical_formula_sum "Si O2"
_cell_formula_units_Z 48
_cell_length_a 9.053809
_cell_length_b 9.053809
_cell_length_c 26.828595
_cell_angle_alpha 90.000000
_cell_angle_beta 90.000000
_cell_angle_gamma 90.000000
_cell_volume 2199.179032
_symmetry_space_group_name_H-M "P 42/M"
_symmetry_group_IT_number 84
_symmetry_cell_setting 'tetragonal'
loop_
_space_group_symop_operation_xyz
x,y,z
-y,x,1/2+z
-x,-y,z
y,-x,1/2+z
-x,-y,-z
y,-x,1/2-z
x,y,-z
-y,x,1/2-z
loop_
_atom_site_type_symbol
_atom_site_label
_atom_site_fract_x
_atom_site_fract_y
_atom_site_fract_z
Si Si1 0.068199 0.845946 0.908994
Si Si2 0.360601 0.899736 0.344279
Si Si3 0.423826 0.346318 0.108499
Si Si4 0.337902 0.950381 0.500000
Si Si5 0.111503 0.376457 0.638684
Si Si6 0.598843 0.648903 0.000000
Si Si7 0.935539 0.767565 0.743685
O O1 0.244310 0.862891 0.900876
O O2 0.988383 0.788378 0.858866
O O3 0.024949 0.734498 0.952060
O O4 0.000000 0.000000 0.924868
O O5 0.364959 0.742634 0.371829
O O6 0.351291 0.879483 0.284619
O O7 0.500000 0.000000 0.359807
O O8 0.500000 0.500000 0.102145
O O9 0.528583 0.259752 0.146996
O O10 0.431790 0.269100 0.053040
O O11 0.500000 0.000000 0.500000
O O12 0.357869 0.775785 0.500000
O O13 0.055132 0.311925 0.690645
O O14 0.000000 0.500000 0.617048
O O15 0.500000 0.500000 0.000000
O O16 0.098687 0.820659 0.758206
#
# Coordination Sequence:
#
# PCOD8303335 Si02
#       7
#     8   8   8   4   8   4   8
#     4  12  25  46  71 105 144 187 241 299 357 443
#     4  12  24  43  73 104 142 190 246 298 367 448
#     4  11  25  45  69 104 146 183 236 299 371 437
#     4  12  27  45  78 109 136 189 249 302 365 442
#     4  12  26  45  69 104 147 189 238 305 372 432
#     4  10  24  43  74  98 143 182 236 291 369 434
#     4  11  23  43  73 103 137 190 247 298 363 440
#
# _framework density 21.826328
#
# number of rings (size 3 to 8) (size 9 to 14) (size 15 to 20)
#    0.000    0.500    3.333    5.250    4.667    0.000 
#    0.000    0.833    0.000    0.000    0.000    0.000 
#    0.000    0.000    0.000    0.000    0.000    0.000 
#
# Total GULP energy -594793.646577 kJ/mol
# GULP energy per Si atom -12391.534304 kJ/mol
# Density = 2.177665 g / cm^3
# Si number density = 21.826328 Si / 1000 Ang^3
#
#
#
# Elastic Constant Matrix: (Units=GPa)
#
#
# Indices 1 2 3 4 5 6 
#
# 1 146.6423 56.0846 47.7294 0.0000 0.0000 9.5693
# 2 56.0846 146.6423 47.7294 0.0000 0.0000 -9.5693
# 3 47.7294 47.7294 87.7624 0.0000 0.0000 0.0000
# 4 0.0000 0.0000 0.0000 31.1039 0.0000 0.0000
# 5 0.0000 0.0000 0.0000 0.0000 31.1039 0.0000
# 6 9.5693 -9.5693 0.0000 0.0000 0.0000 43.7957
#
#
#
# Elastic Compliance Matrix: (Units=1/GPa)
#
#
# Indices 1 2 3 4 5 6 
#
# 1 0.009104 -0.002473 -0.003606 0.000000 0.000000 -0.002530
# 2 -0.002473 0.009104 -0.003606 0.000000 0.000000 0.002530
# 3 -0.003606 -0.003606 0.015317 0.000000 0.000000 0.000000
# 4 0.000000 0.000000 0.000000 0.032150 0.000000 0.000000
# 5 0.000000 0.000000 0.000000 0.000000 0.032150 0.000000
# 6 -0.002530 0.002530 0.000000 0.000000 0.000000 0.023939
#
#
# Mechanical properties :
#
#
# Convention : Reuss Voigt Hill
#
# Bulk Modulus (GPa) = 70.65244 76.01489 73.33366
# Shear Modulus (GPa) = 34.28104 36.50093 35.39099
#
# Velocity S-wave (km/s) = 3.96741 4.09386 4.03113
# Velocity P-wave (km/s) = 7.30943 7.56630 7.43897
#
# Compressibility (1/GPa) = 0.01415379
#
# Stress axis : x y z
#
# Youngs Moduli (GPa) = 109.84133 109.84133 65.28780
#
# Poissons Ratio (x) = 0.27167 0.23544
# Poissons Ratio (y) = 0.27167 0.23544
# Poissons Ratio (z) = 0.39610 0.39610
#
# Static dielectric constant tensor:
#      x y z
#    x 3.965390 0.000000 0.000000 
#    y 0.000000 3.965390 0.000000 
#    z 0.000000 0.000000 4.181310 
# 
# 
# High freq. dielectric constant tensor:
#      x y z
#    x 1.863770 0.000000 0.000000 
#    y 0.000000 1.863770 0.000000 
#    z 0.000000 0.000000 1.867800 
# 
# From -- ./inp_files/5877.got.cif
#   From: 2010.03.12/outbox.cif.g09.slc.cpg/sg84_3_cif.got.tgz:5877.got - 2010.04.08 20:07:29.
