data_PCOD8303750
_publ_section_title
;
Structure prediction by ZEFSAII (Michael W. Deem and Ramdas Pophale) SiO2 
 PCOD8303750
Probable space group: I 4/M
;
_chemical_formula_sum "Si O2"
_cell_formula_units_Z 64
_cell_length_a 12.058225
_cell_length_b 12.058225
_cell_length_c 18.631515
_cell_angle_alpha 90.000000
_cell_angle_beta 90.000000
_cell_angle_gamma 90.000000
_cell_volume 2709.037003
_symmetry_space_group_name_H-M "I 4/M"
_symmetry_group_IT_number 87
_symmetry_cell_setting 'tetragonal'
loop_
_space_group_symop_operation_xyz
x,y,z
-y,x,z
-x,-y,z
y,-x,z
-x,-y,-z
y,-x,-z
x,y,-z
-y,x,-z
1/2+x,1/2+y,1/2+z
1/2-y,1/2+x,1/2+z
1/2-x,1/2-y,1/2+z
1/2+y,1/2-x,1/2+z
1/2-x,1/2-y,1/2-z
1/2+y,1/2-x,1/2-z
1/2+x,1/2+y,1/2-z
1/2-y,1/2+x,1/2-z
loop_
_atom_site_type_symbol
_atom_site_label
_atom_site_fract_x
_atom_site_fract_y
_atom_site_fract_z
Si Si1 0.014620 0.292681 0.652202
Si Si2 0.316502 0.067885 0.081078
Si Si3 0.312693 0.704513 0.079926
Si Si4 0.317614 0.517380 0.702184
O O1 0.067618 0.408733 0.624051
O O2 0.081468 0.189210 0.615771
O O3 0.887085 0.288349 0.626776
O O4 0.023261 0.278932 0.737912
O O5 0.250695 0.185815 0.078265
O O6 0.242377 0.979733 0.124549
O O7 0.338455 0.023083 0.000000
O O8 0.362436 0.696898 0.000000
O O9 0.380694 0.400453 0.710488
#
# Coordination Sequence:
#
# PCOD8303750 Si02
#       4
#    16  16  16  16
#     4  10  18  33  58  88 122 154 198 260 316 364
#     4   9  21  38  57  87 125 164 204 254 317 373
#     4   9  17  31  55  86 121 154 191 246 313 371
#     4  11  22  37  59  89 124 162 212 265 306 366
#
# _framework density 23.624631000000001
#
# number of rings (size 3 to 8) (size 9 to 14) (size 15 to 20)
#    1.500    0.750    2.500    1.500    0.000    5.500 
#    0.000    2.500    0.000    5.250    0.000   10.500 
#    0.000    0.000    0.000    0.000    0.000    0.000 
#
# Total GULP energy -396492.863236 kJ/mol
# GULP energy per Si atom -12390.401976 kJ/mol
# Density = 2.357086 g / cm^3
# Si number density = 23.624631 Si / 1000 Ang^3
#
#
#
# Elastic Constant Matrix: (Units=GPa)
#
#
# Indices 1 2 3 4 5 6 
#
# 1 24.4826 15.9444 24.7973 0.0000 0.0000 8.5291
# 2 15.9444 24.4826 24.7973 0.0000 0.0000 -8.5291
# 3 24.7973 24.7973 183.1608 0.0000 0.0000 0.0000
# 4 0.0000 0.0000 0.0000 36.2989 0.0000 0.0000
# 5 0.0000 0.0000 0.0000 0.0000 36.2989 0.0000
# 6 8.5291 -8.5291 0.0000 0.0000 0.0000 27.2936
#
#
#
# Elastic Compliance Matrix: (Units=1/GPa)
#
#
# Indices 1 2 3 4 5 6 
#
# 1 0.170709 -0.141046 -0.004016 0.000000 0.000000 -0.097421
# 2 -0.141046 0.170709 -0.004016 0.000000 0.000000 0.097421
# 3 -0.004016 -0.004016 0.006547 0.000000 0.000000 0.000000
# 4 0.000000 0.000000 0.000000 0.027549 0.000000 0.000000
# 5 0.000000 0.000000 0.000000 0.000000 0.027549 0.000000
# 6 -0.097421 0.097421 0.000000 0.000000 0.000000 0.097526
#
#
# Mechanical properties :
#
#
# Convention : Reuss Voigt Hill
#
# Bulk Modulus (GPa) = 20.07684 40.35601 30.21643
# Shear Modulus (GPa) = 6.13235 31.08407 18.60821
#
# Velocity S-wave (km/s) = 1.61288 3.63126 2.80958
# Velocity P-wave (km/s) = 3.46197 5.89073 4.83145
#
# Compressibility (1/GPa) = 0.04980862
#
# Stress axis : x y z
#
# Youngs Moduli (GPa) = 5.85792 5.85792 152.74015
#
# Poissons Ratio (x) = 0.82624 0.61339
# Poissons Ratio (y) = 0.82624 0.61339
# Poissons Ratio (z) = 0.02352 0.02352
#
# Static dielectric constant tensor:
#      x y z
#    x 3.778190 0.000000 0.000000 
#    y 0.000000 3.778190 0.000000 
#    z 0.000000 0.000000 4.162790 
# 
# 
# High freq. dielectric constant tensor:
#      x y z
#    x 1.908660 0.000000 0.000000 
#    y 0.000000 1.908660 0.000000 
#    z 0.000000 0.000000 1.943160 
# 
# From -- ./inp_files/4162.got.cif
#   From: 2010.03.12/outbox.cif.g09.slc.cpg/sg87_3_cif.got.tgz:4162.got - 2010.04.08 20:16:13.
