data_PCOD8303871
_publ_section_title
;
Structure prediction by ZEFSAII (Michael W. Deem and Ramdas Pophale) SiO2 
 PCOD8303871
Probable space group: I 4/M
;
_chemical_formula_sum "Si O2"
_cell_formula_units_Z 104
_cell_length_a 24.726992
_cell_length_b 24.726992
_cell_length_c 9.454400
_cell_angle_alpha 90.000000
_cell_angle_beta 90.000000
_cell_angle_gamma 90.000000
_cell_volume 5780.648327
_symmetry_space_group_name_H-M "I 4/M"
_symmetry_group_IT_number 87
_symmetry_cell_setting 'tetragonal'
loop_
_space_group_symop_operation_xyz
x,y,z
-y,x,z
-x,-y,z
y,-x,z
-x,-y,-z
y,-x,-z
x,y,-z
-y,x,-z
1/2+x,1/2+y,1/2+z
1/2-y,1/2+x,1/2+z
1/2-x,1/2-y,1/2+z
1/2+y,1/2-x,1/2+z
1/2-x,1/2-y,1/2-z
1/2+y,1/2-x,1/2-z
1/2+x,1/2+y,1/2-z
1/2-y,1/2+x,1/2-z
loop_
_atom_site_type_symbol
_atom_site_label
_atom_site_fract_x
_atom_site_fract_y
_atom_site_fract_z
Si Si1 0.040356 0.919173 0.500000
Si Si2 0.643635 0.060730 0.836066
Si Si3 0.441060 0.344560 0.650357
Si Si4 0.368849 0.066991 0.841010
Si Si5 0.863143 0.936602 0.217179
Si Si6 0.447954 0.247090 0.169288
Si Si7 0.443294 0.751927 0.337726
O O1 0.059777 0.881111 0.376833
O O2 0.976048 0.928325 0.500000
O O3 0.591591 0.091575 0.775125
O O4 0.695224 0.080202 0.742953
O O5 0.633057 0.997285 0.818375
O O6 0.652008 0.076356 0.000000
O O7 0.433380 0.314132 0.500000
O O8 0.405672 0.398429 0.641039
O O9 0.503233 0.363437 0.655436
O O10 0.422135 0.303846 0.775834
O O11 0.307567 0.090336 0.817500
O O12 0.389182 0.080687 0.000000
O O13 0.803004 0.909978 0.195010
O O14 0.509129 0.248846 0.222907
O O15 0.443600 0.243217 0.000000
O O16 0.465878 0.751745 0.500000
#
# Coordination Sequence:
#
# PCOD8303871 Si02
#       7
#     8  16  16  16  16  16  16
#     4  11  22  36  46  72 110 148 176 225 281 327
#     4  10  20  36  56  81 113 141 173 212 254 306
#     4  11  22  35  51  75 103 137 179 221 271 320
#     4   9  19  35  55  79 110 142 171 211 257 307
#     4  11  21  33  53  72 104 139 179 222 271 322
#     4  10  20  33  53  76 101 138 177 216 260 311
#     4   9  19  35  52  75 105 138 177 222 265 307
#
# _framework density 17.991061999999999
#
# number of rings (size 3 to 8) (size 9 to 14) (size 15 to 20)
#    0.000    1.923    1.538    5.077    5.385    3.692 
#    0.000    2.308    0.000    0.923    0.000    0.000 
#    0.000    0.000    0.000    0.000    0.000    0.000 
#
# Total GULP energy -644181.166703 kJ/mol
# GULP energy per Si atom -12388.099360 kJ/mol
# Density = 1.795011 g / cm^3
# Si number density = 17.991062 Si / 1000 Ang^3
#
#
#
# Elastic Constant Matrix: (Units=GPa)
#
#
# Indices 1 2 3 4 5 6 
#
# 1 75.4108 41.2587 42.5504 0.0000 0.0000 -2.1077
# 2 41.2587 75.4108 42.5504 0.0000 0.0000 2.1077
# 3 42.5504 42.5504 151.8182 0.0000 0.0000 0.0000
# 4 0.0000 0.0000 0.0000 32.3389 0.0000 0.0000
# 5 0.0000 0.0000 0.0000 0.0000 32.3389 0.0000
# 6 -2.1077 2.1077 0.0000 0.0000 0.0000 4.9639
#
#
#
# Elastic Compliance Matrix: (Units=1/GPa)
#
#
# Indices 1 2 3 4 5 6 
#
# 1 0.020837 -0.010063 -0.003020 0.000000 0.000000 0.013121
# 2 -0.010063 0.020837 -0.003020 0.000000 0.000000 -0.013121
# 3 -0.003020 -0.003020 0.008279 0.000000 0.000000 0.000000
# 4 0.000000 0.000000 0.000000 0.030922 0.000000 0.000000
# 5 0.000000 0.000000 0.000000 0.000000 0.030922 0.000000
# 6 0.013121 -0.013121 0.000000 0.000000 0.000000 0.212597
#
#
# Mechanical properties :
#
#
# Convention : Reuss Voigt Hill
#
# Bulk Modulus (GPa) = 56.34242 61.70654 59.02448
# Shear Modulus (GPa) = 13.79246 25.68037 19.73642
#
# Velocity S-wave (km/s) = 2.77181 3.78219 3.31571
# Velocity P-wave (km/s) = 6.45204 7.31069 6.89474
#
# Compressibility (1/GPa) = 0.01774862
#
# Stress axis : x y z
#
# Youngs Moduli (GPa) = 47.99151 47.99151 120.78115
#
# Poissons Ratio (x) = 0.48295 0.36471
# Poissons Ratio (y) = 0.48295 0.36471
# Poissons Ratio (z) = 0.14491 0.14491
#
# Static dielectric constant tensor:
#      x y z
#    x 3.381770 0.000000 0.000000 
#    y 0.000000 3.381770 0.000000 
#    z 0.000000 0.000000 3.474910 
# 
# 
# High freq. dielectric constant tensor:
#      x y z
#    x 1.674970 0.000000 0.000000 
#    y 0.000000 1.674970 0.000000 
#    z 0.000000 0.000000 1.715910 
# 
# From -- ./inp_files/1635.got.cif
#   From: 2010.03.12/outbox.cif.g09.slc.cpg/sg87_1_cif.got.tgz:1635.got - 2010.04.08 20:16:13.
