data_PCOD8303299
_publ_section_title
;
Structure prediction by ZEFSAII (Michael W. Deem and Ramdas Pophale) SiO2 
 PCOD8303299
Probable space group: P 42/M
;
_chemical_formula_sum "Si O2"
_cell_formula_units_Z 40
_cell_length_a 14.870016
_cell_length_b 14.870016
_cell_length_c 8.702591
_cell_angle_alpha 90.000000
_cell_angle_beta 90.000000
_cell_angle_gamma 90.000000
_cell_volume 1924.294085
_symmetry_space_group_name_H-M "P 42/M"
_symmetry_group_IT_number 84
_symmetry_cell_setting 'tetragonal'
loop_
_space_group_symop_operation_xyz
x,y,z
-y,x,1/2+z
-x,-y,z
y,-x,1/2+z
-x,-y,-z
y,-x,1/2-z
x,y,-z
-y,x,1/2-z
loop_
_atom_site_type_symbol
_atom_site_label
_atom_site_fract_x
_atom_site_fract_y
_atom_site_fract_z
Si Si1 0.751648 0.423878 0.180643
Si Si2 0.407752 0.052107 0.822216
Si Si3 0.940642 0.884799 0.175331
Si Si4 0.896415 0.688934 0.823915
Si Si5 0.274837 0.391736 0.320500
O O1 0.845931 0.412987 0.266163
O O2 0.703996 0.517035 0.228462
O O3 0.685182 0.343988 0.232639
O O4 0.769136 0.421750 0.000000
O O5 0.500000 0.000000 0.792544
O O6 0.333044 0.998423 0.725608
O O7 0.380664 0.052434 0.000000
O O8 0.879608 0.968764 0.224051
O O9 0.882101 0.795327 0.198321
O O10 0.971089 0.895643 0.000000
O O11 0.826708 0.638185 0.715027
O O12 0.880302 0.659515 0.000000
O O13 0.283249 0.412299 0.500000
#
# Coordination Sequence:
#
# PCOD8303299 Si02
#       5
#     8   8   8   8   8
#     4  11  25  44  68  97 129 168 211 263 319 379
#     4  11  23  40  65  95 126 164 205 253 311 368
#     4  10  22  39  59  86 120 163 209 253 308 370
#     4  11  24  40  62  93 125 164 210 259 315 375
#     4  11  25  44  66  95 128 165 214 265 319 381
#
# _framework density 20.786843999999999
#
# number of rings (size 3 to 8) (size 9 to 14) (size 15 to 20)
#    0.000    1.200    2.000    3.600    2.800    7.600 
#    0.000    2.000    0.000    0.000    0.000    0.000 
#    0.000    0.000    0.000    0.000    0.000    0.000 
#
# Total GULP energy -496200.646887 kJ/mol
# GULP energy per Si atom -12405.016172 kJ/mol
# Density = 2.073953 g / cm^3
# Si number density = 20.786844 Si / 1000 Ang^3
#
#
#
# Elastic Constant Matrix: (Units=GPa)
#
#
# Indices 1 2 3 4 5 6 
#
# 1 94.4797 37.7288 24.1245 0.0000 0.0000 -5.7433
# 2 37.7288 94.4797 24.1245 0.0000 0.0000 5.7433
# 3 24.1245 24.1245 61.9534 0.0000 0.0000 0.0000
# 4 0.0000 0.0000 0.0000 26.7068 0.0000 0.0000
# 5 0.0000 0.0000 0.0000 0.0000 26.7068 0.0000
# 6 -5.7433 5.7433 0.0000 0.0000 0.0000 33.6046
#
#
#
# Elastic Compliance Matrix: (Units=1/GPa)
#
#
# Indices 1 2 3 4 5 6 
#
# 1 0.013535 -0.004718 -0.003433 0.000000 0.000000 0.003119
# 2 -0.004718 0.013535 -0.003433 0.000000 0.000000 -0.003119
# 3 -0.003433 -0.003433 0.018815 0.000000 0.000000 0.000000
# 4 0.000000 0.000000 0.000000 0.037444 0.000000 0.000000
# 5 0.000000 0.000000 0.000000 0.000000 0.037444 0.000000
# 6 0.003119 -0.003119 0.000000 0.000000 0.000000 0.030824
#
#
# Mechanical properties :
#
#
# Convention : Reuss Voigt Hill
#
# Bulk Modulus (GPa) = 44.02272 46.98541 45.50406
# Shear Modulus (GPa) = 27.42195 28.39929 27.91062
#
# Velocity S-wave (km/s) = 3.63602 3.70024 3.66827
# Velocity P-wave (km/s) = 6.23311 6.39596 6.31506
#
# Compressibility (1/GPa) = 0.02271554
#
# Stress axis : x y z
#
# Youngs Moduli (GPa) = 73.88521 73.88521 53.14924
#
# Poissons Ratio (x) = 0.34857 0.18247
# Poissons Ratio (y) = 0.34857 0.18247
# Poissons Ratio (z) = 0.25366 0.25366
#
# Static dielectric constant tensor:
#      x y z
#    x 3.850400 0.000000 0.000000 
#    y 0.000000 3.850400 0.000000 
#    z 0.000000 0.000000 3.811210 
# 
# 
# High freq. dielectric constant tensor:
#      x y z
#    x 1.816030 0.000000 0.000000 
#    y 0.000000 1.816030 0.000000 
#    z 0.000000 0.000000 1.824980 
# 
# From -- ./inp_files/775.got.cif
#   From: 2010.03.12/outbox.cif.g09.slc.cpg/sg84_1_cif.got.tgz:775.got - 2010.04.08 20:07:29.
