data_PCOD8303879
_publ_section_title
;
Structure prediction by ZEFSAII (Michael W. Deem and Ramdas Pophale) SiO2 
 PCOD8303879
Probable space group: I 4/M
;
_chemical_formula_sum "Si O2"
_cell_formula_units_Z 112
_cell_length_a 15.218705
_cell_length_b 15.218705
_cell_length_c 25.580204
_cell_angle_alpha 90.000000
_cell_angle_beta 90.000000
_cell_angle_gamma 90.000000
_cell_volume 5924.605005
_symmetry_space_group_name_H-M "I 4/M"
_symmetry_group_IT_number 87
_symmetry_cell_setting 'tetragonal'
loop_
_space_group_symop_operation_xyz
x,y,z
-y,x,z
-x,-y,z
y,-x,z
-x,-y,-z
y,-x,-z
x,y,-z
-y,x,-z
1/2+x,1/2+y,1/2+z
1/2-y,1/2+x,1/2+z
1/2-x,1/2-y,1/2+z
1/2+y,1/2-x,1/2+z
1/2-x,1/2-y,1/2-z
1/2+y,1/2-x,1/2-z
1/2+x,1/2+y,1/2-z
1/2-y,1/2+x,1/2-z
loop_
_atom_site_type_symbol
_atom_site_label
_atom_site_fract_x
_atom_site_fract_y
_atom_site_fract_z
Si Si1 0.312249 0.834683 0.685127
Si Si2 0.195312 0.670173 0.691474
Si Si3 0.286655 0.020528 0.364959
Si Si4 0.030111 0.858970 0.942152
Si Si5 0.790856 0.506011 0.365810
Si Si6 0.639115 0.537441 0.942767
Si Si7 0.428172 0.069000 0.443654
O O1 0.255412 0.749171 0.667642
O O2 0.301657 0.838102 0.746820
O O3 0.414749 0.829660 0.668939
O O4 0.273590 0.924924 0.661107
O O5 0.093159 0.684858 0.677262
O O6 0.232495 0.577352 0.670364
O O7 0.199327 0.055356 0.392950
O O8 0.356700 0.014893 0.411231
O O9 0.933248 0.897331 0.935924
O O10 0.046901 0.792237 0.895274
O O11 0.039385 0.815566 0.000000
O O12 0.853715 0.470173 0.410517
O O13 0.561432 0.606182 0.938491
O O14 0.685278 0.549372 0.000000
O O15 0.391490 0.104936 0.500000
O O16 0.500000 0.000000 0.458488
#
# Coordination Sequence:
#
# PCOD8303879 Si02
#       7
#    16  16  16  16  16  16  16
#     4  11  22  39  55  80 105 141 182 230 272 317
#     4  10  24  37  56  80 108 135 185 232 269 313
#     4  11  20  36  57  78 106 147 176 218 266 324
#     4   9  18  33  54  81 111 141 175 216 262 317
#     4  11  20  36  57  78 106 147 176 218 266 324
#     4   9  18  33  54  81 111 141 175 216 262 317
#     4  10  20  34  50  78 109 136 170 211 252 308
#
# _framework density 18.904214
#
# number of rings (size 3 to 8) (size 9 to 14) (size 15 to 20)
#    0.000    1.857    1.429    4.286    0.000    0.000 
#    0.000    1.429    0.000    6.857    0.000   12.000 
#    0.000    0.000    0.000    0.000    0.000    0.000 
#
# Total GULP energy -694015.970572 kJ/mol
# GULP energy per Si atom -12393.142332 kJ/mol
# Density = 1.886119 g / cm^3
# Si number density = 18.904214 Si / 1000 Ang^3
#
#
#
# Elastic Constant Matrix: (Units=GPa)
#
#
# Indices 1 2 3 4 5 6 
#
# 1 54.0339 -4.8242 17.1676 0.0000 0.0000 -3.4939
# 2 -4.8242 54.0339 17.1676 0.0000 0.0000 3.4939
# 3 17.1676 17.1676 87.9935 0.0000 0.0000 0.0000
# 4 0.0000 0.0000 0.0000 23.3986 0.0000 0.0000
# 5 0.0000 0.0000 0.0000 0.0000 23.3986 0.0000
# 6 -3.4939 3.4939 0.0000 0.0000 0.0000 27.1997
#
#
#
# Elastic Compliance Matrix: (Units=1/GPa)
#
#
# Indices 1 2 3 4 5 6 
#
# 1 0.020388 0.003135 -0.004589 0.000000 0.000000 0.002216
# 2 0.003135 0.020388 -0.004589 0.000000 0.000000 -0.002216
# 3 -0.004589 -0.004589 0.013155 0.000000 0.000000 0.000000
# 4 0.000000 0.000000 0.000000 0.042738 0.000000 0.000000
# 5 0.000000 0.000000 0.000000 0.000000 0.042738 0.000000
# 6 0.002216 -0.002216 0.000000 0.000000 0.000000 0.037334
#
#
# Mechanical properties :
#
#
# Convention : Reuss Voigt Hill
#
# Bulk Modulus (GPa) = 23.89811 28.34262 26.12036
# Shear Modulus (GPa) = 24.65762 25.90273 25.28017
#
# Velocity S-wave (km/s) = 3.61549 3.70565 3.66085
# Velocity P-wave (km/s) = 5.48618 5.77360 5.63172
#
# Compressibility (1/GPa) = 0.04184432
#
# Stress axis : x y z
#
# Youngs Moduli (GPa) = 49.04782 49.04782 76.01509
#
# Poissons Ratio (x) = -0.15377 0.34887
# Poissons Ratio (y) = -0.15377 0.34887
# Poissons Ratio (z) = 0.22510 0.22510
#
# Static dielectric constant tensor:
#      x y z
#    x 3.382210 0.000000 0.000000 
#    y 0.000000 3.382210 0.000000 
#    z 0.000000 0.000000 3.544390 
# 
# 
# High freq. dielectric constant tensor:
#      x y z
#    x 1.730420 0.000000 0.000000 
#    y 0.000000 1.730420 0.000000 
#    z 0.000000 0.000000 1.746900 
# 
# From -- ./inp_files/5872.got.cif
#   From: 2010.03.12/outbox.cif.g09.slc.cpg/sg87_3_cif.got.tgz:5872.got - 2010.04.08 20:16:13.
