data_PCOD8303934
_publ_section_title
;
Structure prediction by ZEFSAII (Michael W. Deem and Ramdas Pophale) SiO2 
 PCOD8303934
Probable space group: I 4/M
;
_chemical_formula_sum "Si O2"
_cell_formula_units_Z 96
_cell_length_a 15.492509
_cell_length_b 15.492509
_cell_length_c 21.226281
_cell_angle_alpha 90.000000
_cell_angle_beta 90.000000
_cell_angle_gamma 90.000000
_cell_volume 5094.686013
_symmetry_space_group_name_H-M "I 4/M"
_symmetry_group_IT_number 87
_symmetry_cell_setting 'tetragonal'
loop_
_space_group_symop_operation_xyz
x,y,z
-y,x,z
-x,-y,z
y,-x,z
-x,-y,-z
y,-x,-z
x,y,-z
-y,x,-z
1/2+x,1/2+y,1/2+z
1/2-y,1/2+x,1/2+z
1/2-x,1/2-y,1/2+z
1/2+y,1/2-x,1/2+z
1/2-x,1/2-y,1/2-z
1/2+y,1/2-x,1/2-z
1/2+x,1/2+y,1/2-z
1/2-y,1/2+x,1/2-z
loop_
_atom_site_type_symbol
_atom_site_label
_atom_site_fract_x
_atom_site_fract_y
_atom_site_fract_z
Si Si1 0.396117 0.994626 0.331034
Si Si2 0.325538 0.309953 0.926799
Si Si3 0.117238 0.920539 0.929529
Si Si4 0.011430 0.742612 0.571938
Si Si5 0.834780 0.636432 0.260443
Si Si6 0.806393 0.782955 0.164898
O O1 0.349246 0.027425 0.393944
O O2 0.360715 0.898260 0.320250
O O3 0.500000 0.000000 0.336836
O O4 0.357215 0.045970 0.271780
O O5 0.308099 0.410718 0.913483
O O6 0.424345 0.291763 0.907961
O O7 0.264699 0.254470 0.882139
O O8 0.307397 0.286464 0.000000
O O9 0.178306 0.882831 0.876171
O O10 0.022614 0.881908 0.920408
O O11 0.150757 0.897644 0.000000
O O12 0.008427 0.715343 0.500000
O O13 0.850249 0.711147 0.208941
O O14 0.738345 0.645491 0.289333
#
# Coordination Sequence:
#
# PCOD8303934 Si02
#       6
#    16  16  16  16  16  16
#     4  12  22  39  61  83 120 159 190 235 291 349
#     4  10  20  37  60  85 115 150 191 242 289 341
#     4   9  20  39  60  84 116 152 192 242 296 350
#     4  10  22  40  62  86 117 151 195 246 291 344
#     4  11  23  36  56  86 111 153 194 228 286 349
#     4  11  22  36  60  85 112 153 190 246 288 340
#
# _framework density 18.843162
#
# number of rings (size 3 to 8) (size 9 to 14) (size 15 to 20)
#    0.000    1.500    5.000    1.000    2.333    0.667 
#    0.000    1.667    0.000    0.000    0.000    0.000 
#    0.000    0.000    0.000    0.000    0.000    0.000 
#
# Total GULP energy -595000.838076 kJ/mol
# GULP energy per Si atom -12395.850793 kJ/mol
# Density = 1.880027 g / cm^3
# Si number density = 18.843162 Si / 1000 Ang^3
#
#
#
# Elastic Constant Matrix: (Units=GPa)
#
#
# Indices 1 2 3 4 5 6 
#
# 1 52.1133 33.3826 27.3856 0.0000 0.0000 -3.3565
# 2 33.3826 52.1133 27.3856 0.0000 0.0000 3.3565
# 3 27.3856 27.3856 74.4404 0.0000 0.0000 0.0000
# 4 0.0000 0.0000 0.0000 31.0238 0.0000 0.0000
# 5 0.0000 0.0000 0.0000 0.0000 31.0238 0.0000
# 6 -3.3565 3.3565 0.0000 0.0000 0.0000 26.0537
#
#
#
# Elastic Compliance Matrix: (Units=1/GPa)
#
#
# Indices 1 2 3 4 5 6 
#
# 1 0.035638 -0.020335 -0.005630 0.000000 0.000000 0.007211
# 2 -0.020335 0.035638 -0.005630 0.000000 0.000000 -0.007211
# 3 -0.005630 -0.005630 0.017576 0.000000 0.000000 0.000000
# 4 0.000000 0.000000 0.000000 0.032233 0.000000 0.000000
# 5 0.000000 0.000000 0.000000 0.000000 0.032233 0.000000
# 6 0.007211 -0.007211 0.000000 0.000000 0.000000 0.040240
#
#
# Mechanical properties :
#
#
# Convention : Reuss Voigt Hill
#
# Bulk Modulus (GPa) = 38.96691 39.44161 39.20426
# Shear Modulus (GPa) = 18.84649 23.65449 21.25049
#
# Velocity S-wave (km/s) = 3.16599 3.54692 3.36185
# Velocity P-wave (km/s) = 5.83859 6.14419 5.99334
#
# Compressibility (1/GPa) = 0.02566280
#
# Stress axis : x y z
#
# Youngs Moduli (GPa) = 28.06003 28.06003 56.89639
#
# Poissons Ratio (x) = 0.57060 0.32031
# Poissons Ratio (y) = 0.57060 0.32031
# Poissons Ratio (z) = 0.15797 0.15797
#
# Static dielectric constant tensor:
#      x y z
#    x 3.441880 0.000000 0.000000 
#    y 0.000000 3.441880 0.000000 
#    z 0.000000 0.000000 3.602550 
# 
# 
# High freq. dielectric constant tensor:
#      x y z
#    x 1.727530 0.000000 0.000000 
#    y 0.000000 1.727530 0.000000 
#    z 0.000000 0.000000 1.743690 
# 
# From -- ./inp_files/5281.got.cif
#   From: 2010.03.12/outbox.cif.g09.slc.cpg/sg87_3_cif.got.tgz:5281.got - 2010.04.08 20:16:13.
