data_PCOD8303972
_publ_section_title
;
Structure prediction by ZEFSAII (Michael W. Deem and Ramdas Pophale) SiO2 
 PCOD8303972
Probable space group: I 4/M
;
_chemical_formula_sum "Si O2"
_cell_formula_units_Z 88
_cell_length_a 14.592722
_cell_length_b 14.592722
_cell_length_c 19.756532
_cell_angle_alpha 90.000000
_cell_angle_beta 90.000000
_cell_angle_gamma 90.000000
_cell_volume 4207.104797
_symmetry_space_group_name_H-M "I 4/M"
_symmetry_group_IT_number 87
_symmetry_cell_setting 'tetragonal'
loop_
_space_group_symop_operation_xyz
x,y,z
-y,x,z
-x,-y,z
y,-x,z
-x,-y,-z
y,-x,-z
x,y,-z
-y,x,-z
1/2+x,1/2+y,1/2+z
1/2-y,1/2+x,1/2+z
1/2-x,1/2-y,1/2+z
1/2+y,1/2-x,1/2+z
1/2-x,1/2-y,1/2-z
1/2+y,1/2-x,1/2-z
1/2+x,1/2+y,1/2-z
1/2-y,1/2+x,1/2-z
loop_
_atom_site_type_symbol
_atom_site_label
_atom_site_fract_x
_atom_site_fract_y
_atom_site_fract_z
Si Si1 0.200341 0.713782 0.422856
Si Si2 0.423179 0.621178 0.885798
Si Si3 0.500294 0.650721 0.500000
Si Si4 0.028541 0.262424 0.134690
Si Si5 0.300428 0.162985 0.171031
Si Si6 0.322198 0.621903 0.245064
O O1 0.212310 0.683275 0.500000
O O2 0.118939 0.786177 0.415133
O O3 0.179260 0.621582 0.378822
O O4 0.294120 0.760452 0.398259
O O5 0.375576 0.527677 0.911978
O O6 0.410101 0.610423 0.804160
O O7 0.409201 0.591335 0.500000
O O8 0.499053 0.710137 0.567580
O O9 0.047412 0.187891 0.194877
O O10 0.943088 0.328449 0.155891
O O11 0.382200 0.227400 0.199648
O O12 0.222849 0.162755 0.227425
#
# Coordination Sequence:
#
# PCOD8303972 Si02
#       6
#    16  16   8  16  16  16
#     4  10  21  36  54  82 117 153 196 240 294 369
#     4  10  21  37  60  86 110 144 193 255 320 367
#     4  11  22  32  48  88 134 169 202 234 290 383
#     4  11  20  33  58  84 123 163 197 239 296 361
#     4   9  19  33  55  82 114 158 202 240 289 350
#     4   9  18  34  54  83 116 152 200 248 291 344
#
# _framework density 20.916996999999999
#
# number of rings (size 3 to 8) (size 9 to 14) (size 15 to 20)
#    0.000    2.091    0.909    4.364    1.273    0.727 
#    0.000    2.727    0.000    9.273    0.000    6.364 
#    0.000    0.000    0.000    0.000    0.000    0.000 
#
# Total GULP energy -545075.688500 kJ/mol
# GULP energy per Si atom -12388.083830 kJ/mol
# Density = 2.086939 g / cm^3
# Si number density = 20.916997 Si / 1000 Ang^3
#
#
#
# Elastic Constant Matrix: (Units=GPa)
#
#
# Indices 1 2 3 4 5 6 
#
# 1 77.4239 22.0958 11.3823 0.0000 0.0000 0.5986
# 2 22.0958 77.4239 11.3823 0.0000 0.0000 -0.5986
# 3 11.3823 11.3823 88.3706 0.0000 0.0000 0.0000
# 4 0.0000 0.0000 0.0000 17.6258 0.0000 0.0000
# 5 0.0000 0.0000 0.0000 0.0000 17.6258 0.0000
# 6 0.5986 -0.5986 0.0000 0.0000 0.0000 18.1201
#
#
#
# Elastic Compliance Matrix: (Units=1/GPa)
#
#
# Indices 1 2 3 4 5 6 
#
# 1 0.014220 -0.003867 -0.001334 0.000000 0.000000 -0.000597
# 2 -0.003867 0.014220 -0.001334 0.000000 0.000000 0.000597
# 3 -0.001334 -0.001334 0.011659 0.000000 0.000000 0.000000
# 4 0.000000 0.000000 0.000000 0.056735 0.000000 0.000000
# 5 0.000000 0.000000 0.000000 0.000000 0.056735 0.000000
# 6 -0.000597 0.000597 0.000000 0.000000 0.000000 0.055227
#
#
# Mechanical properties :
#
#
# Convention : Reuss Voigt Hill
#
# Bulk Modulus (GPa) = 36.99320 36.99325 36.99322
# Shear Modulus (GPa) = 21.65677 23.89823 22.77750
#
# Velocity S-wave (km/s) = 3.22120 3.38380 3.30350
# Velocity P-wave (km/s) = 5.61774 5.74377 5.68110
#
# Compressibility (1/GPa) = 0.02703200
#
# Stress axis : x y z
#
# Youngs Moduli (GPa) = 70.32295 70.32294 85.76701
#
# Poissons Ratio (x) = 0.27193 0.11437
# Poissons Ratio (y) = 0.27193 0.11437
# Poissons Ratio (z) = 0.09378 0.09378
#
# Static dielectric constant tensor:
#      x y z
#    x 3.735470 0.000000 0.000000 
#    y 0.000000 3.735470 0.000000 
#    z 0.000000 0.000000 3.913040 
# 
# 
# High freq. dielectric constant tensor:
#      x y z
#    x 1.795840 0.000000 0.000000 
#    y 0.000000 1.795840 0.000000 
#    z 0.000000 0.000000 1.830860 
# 
# From -- ./inp_files/5177.got.cif
#   From: 2010.03.12/outbox.cif.g09.slc.cpg/sg87_3_cif.got.tgz:5177.got - 2010.04.08 20:16:13.
