data_PCOD8303674
_publ_section_title
;
Structure prediction by ZEFSAII (Michael W. Deem and Ramdas Pophale) SiO2 
 PCOD8303674
Probable space group: P 42/N
;
_chemical_formula_sum "Si O2"
_cell_formula_units_Z 60
_cell_length_a 11.674939
_cell_length_b 11.674939
_cell_length_c 20.630225
_cell_angle_alpha 90.000000
_cell_angle_beta 90.000000
_cell_angle_gamma 90.000000
_cell_volume 2811.986328
_symmetry_space_group_name_H-M "P 42/N"
_symmetry_group_IT_number 86
_space_group.IT_coordinate_system_code '2'
_symmetry_cell_setting 'tetragonal'
loop_
_space_group_symop_operation_xyz
x,y,z
-y,1/2+x,1/2+z
1/2-x,1/2-y,z
1/2+y,-x,1/2+z
-x,-y,-z
y,1/2-x,1/2-z
1/2+x,1/2+y,-z
1/2-y,x,1/2-z
loop_
_atom_site_type_symbol
_atom_site_label
_atom_site_fract_x
_atom_site_fract_y
_atom_site_fract_z
Si Si1 0.858868 0.828761 0.474691
Si Si2 0.424093 0.289385 0.774324
Si Si3 0.080711 0.239918 0.267473
Si Si4 0.037627 0.714563 0.093995
Si Si5 0.609067 0.963209 0.896862
Si Si6 0.911061 0.151350 0.583301
Si Si7 0.750000 0.250000 0.475237
Si Si8 0.832836 0.156989 0.720786
O O1 0.750000 0.750000 0.464954
O O2 0.922515 0.812181 0.543222
O O3 0.955813 0.806392 0.419134
O O4 0.812212 0.957993 0.467626
O O5 0.384947 0.175390 0.734843
O O6 0.454620 0.263726 0.849465
O O7 0.539081 0.344293 0.747140
O O8 0.155708 0.353349 0.282644
O O9 0.081063 0.167796 0.332763
O O10 0.962284 0.271988 0.234165
O O11 0.102671 0.598809 0.114243
O O12 0.143209 0.796157 0.069905
O O13 0.485607 0.908592 0.910294
O O14 0.851672 0.198613 0.518559
O O15 0.843909 0.195622 0.645976
O O16 0.750000 0.250000 0.754998
#
# Coordination Sequence:
#
# PCOD8303674 Si02
#       8
#     8   8   8   8   8   8   4   8
#     4  11  24  40  70  99 133 187 237 287 352 424
#     4  11  27  47  72 104 144 191 247 309 370 444
#     4  11  26  44  67 101 143 185 240 302 367 449
#     4  11  24  43  73  99 138 187 245 295 357 436
#     4  11  21  45  68  99 138 187 239 290 360 432
#     4  11  22  44  68  97 141 184 237 295 356 437
#     4  12  22  44  70 110 138 188 244 300 368 428
#     4  12  26  42  72 102 141 193 241 299 378 437
#
# _framework density 21.337230999999999
#
# number of rings (size 3 to 8) (size 9 to 14) (size 15 to 20)
#    0.000    0.800    4.667    3.200   10.267    0.000 
#    0.000    0.667    2.933    0.000    0.000    0.000 
#    0.000    0.000    0.000    0.000    0.000    0.000 
#
# Total GULP energy -743401.676453 kJ/mol
# GULP energy per Si atom -12390.027941 kJ/mol
# Density = 2.128867 g / cm^3
# Si number density = 21.337231 Si / 1000 Ang^3
#
#
#
# Elastic Constant Matrix: (Units=GPa)
#
#
# Indices 1 2 3 4 5 6 
#
# 1 113.7347 67.5509 38.7866 0.0000 0.0000 6.4275
# 2 67.5509 113.7347 38.7866 0.0000 0.0000 -6.4275
# 3 38.7866 38.7866 107.3869 0.0000 0.0000 0.0000
# 4 0.0000 0.0000 0.0000 29.0545 0.0000 0.0000
# 5 0.0000 0.0000 0.0000 0.0000 29.0545 0.0000
# 6 6.4275 -6.4275 0.0000 0.0000 0.0000 44.2742
#
#
#
# Elastic Compliance Matrix: (Units=1/GPa)
#
#
# Indices 1 2 3 4 5 6 
#
# 1 0.014544 -0.008020 -0.002357 0.000000 0.000000 -0.003276
# 2 -0.008020 0.014544 -0.002357 0.000000 0.000000 0.003276
# 3 -0.002357 -0.002357 0.011014 0.000000 0.000000 0.000000
# 4 0.000000 0.000000 0.000000 0.034418 0.000000 0.000000
# 5 0.000000 0.000000 0.000000 0.000000 0.034418 0.000000
# 6 -0.003276 0.003276 0.000000 0.000000 0.000000 0.023538
#
#
# Mechanical properties :
#
#
# Convention : Reuss Voigt Hill
#
# Bulk Modulus (GPa) = 68.31886 69.45607 68.88746
# Shear Modulus (GPa) = 30.70833 33.12547 31.91690
#
# Velocity S-wave (km/s) = 3.79778 3.94442 3.87179
# Velocity P-wave (km/s) = 7.16373 7.30526 7.23484
#
# Compressibility (1/GPa) = 0.01463725
#
# Stress axis : x y z
#
# Youngs Moduli (GPa) = 68.75467 68.75467 90.78981
#
# Poissons Ratio (x) = 0.55141 0.21395
# Poissons Ratio (y) = 0.55141 0.21395
# Poissons Ratio (z) = 0.16203 0.16203
#
# Static dielectric constant tensor:
#      x y z
#    x 3.985770 0.000000 0.000000 
#    y 0.000000 3.985770 0.000000 
#    z 0.000000 0.000000 4.101710 
# 
# 
# High freq. dielectric constant tensor:
#      x y z
#    x 1.837590 0.000000 0.000000 
#    y 0.000000 1.837590 0.000000 
#    z 0.000000 0.000000 1.839250 
# 
# From -- ./inp_files/4269.got.cif
#   From: 2010.03.12/outbox.cif.g09.slc.cpg/sg86_3_cif.got.tgz:4269.got - 2010.04.08 20:12:58.
