data_PCOD8303321
_publ_section_title
;
Structure prediction by ZEFSAII (Michael W. Deem and Ramdas Pophale) SiO2 
 PCOD8303321
Probable space group: P 42/M
;
_chemical_formula_sum "Si O2"
_cell_formula_units_Z 48
_cell_length_a 16.745642
_cell_length_b 16.745642
_cell_length_c 8.714646
_cell_angle_alpha 90.000000
_cell_angle_beta 90.000000
_cell_angle_gamma 90.000000
_cell_volume 2443.730757
_symmetry_space_group_name_H-M "P 42/M"
_symmetry_group_IT_number 84
_symmetry_cell_setting 'tetragonal'
loop_
_space_group_symop_operation_xyz
x,y,z
-y,x,1/2+z
-x,-y,z
y,-x,1/2+z
-x,-y,-z
y,-x,1/2-z
x,y,-z
-y,x,1/2-z
loop_
_atom_site_type_symbol
_atom_site_label
_atom_site_fract_x
_atom_site_fract_y
_atom_site_fract_z
Si Si1 0.342476 0.643677 0.671180
Si Si2 0.332933 0.103315 0.675611
Si Si3 0.123309 0.493164 0.676841
Si Si4 0.720633 0.502942 0.170049
Si Si5 0.668865 0.075885 0.677530
Si Si6 0.222581 0.250467 0.681217
O O1 0.312215 0.621003 0.500000
O O2 0.438582 0.644481 0.676936
O O3 0.308973 0.585606 0.798837
O O4 0.316073 0.731863 0.718275
O O5 0.354955 0.120224 0.500000
O O6 0.416112 0.112836 0.765813
O O7 0.261966 0.164495 0.727146
O O8 0.298728 0.014298 0.698903
O O9 0.099520 0.489241 0.500000
O O10 0.215464 0.470255 0.703314
O O11 0.073764 0.423219 0.761371
O O12 0.759350 0.504625 0.000000
O O13 0.667594 0.101624 0.500000
O O14 0.733322 0.130805 0.768538
O O15 0.229309 0.265190 0.500000
#
# Coordination Sequence:
#
# PCOD8303321 Si02
#       6
#     8   8   8   8   8   8
#     4  11  23  38  58  83 112 154 202 246 293 343
#     4  10  23  41  61  86 120 158 192 236 295 353
#     4  12  23  35  58  89 120 154 195 242 290 346
#     4  11  23  38  57  80 114 155 198 246 294 343
#     4  11  23  40  61  87 121 157 193 236 294 353
#     4  11  22  38  62  87 115 153 194 238 289 347
#
# _framework density 19.642098000000001
#
# number of rings (size 3 to 8) (size 9 to 14) (size 15 to 20)
#    0.000    1.000    3.333    4.000    0.000    6.333 
#    0.000    1.667    0.000    0.500    0.000    3.500 
#    0.000    0.000    0.000    0.000    0.000    0.000 
#
# Total GULP energy -594871.009626 kJ/mol
# GULP energy per Si atom -12393.146034 kJ/mol
# Density = 1.959739 g / cm^3
# Si number density = 19.642098 Si / 1000 Ang^3
#
#
#
# Elastic Constant Matrix: (Units=GPa)
#
#
# Indices 1 2 3 4 5 6 
#
# 1 83.7670 46.7796 33.9290 0.0000 0.0000 -14.6317
# 2 46.7796 83.7670 33.9290 0.0000 0.0000 14.6317
# 3 33.9290 33.9290 97.9235 0.0000 0.0000 0.0000
# 4 0.0000 0.0000 0.0000 26.3850 0.0000 0.0000
# 5 0.0000 0.0000 0.0000 0.0000 26.3850 0.0000
# 6 -14.6317 14.6317 0.0000 0.0000 0.0000 -0.7290
#
#
#
# Elastic Compliance Matrix: (Units=1/GPa)
#
#
# Indices 1 2 3 4 5 6 
#
# 1 0.005472 0.003870 -0.003237 0.000000 0.000000 -0.032148
# 2 0.003870 0.005472 -0.003237 0.000000 0.000000 0.032148
# 3 -0.003237 -0.003237 0.012455 0.000000 0.000000 0.000000
# 4 0.000000 0.000000 0.000000 0.037900 0.000000 0.000000
# 5 0.000000 0.000000 0.000000 0.000000 0.037900 0.000000
# 6 -0.032148 0.032148 0.000000 0.000000 0.000000 -0.081266
#
#
# Mechanical properties :
#
#
# Convention : Reuss Voigt Hill
#
# Bulk Modulus (GPa) = 54.96833 54.97031 54.96932
# Shear Modulus (GPa) = 171.19851 20.46287 95.83069
#
# Velocity S-wave (km/s) = 9.34603 3.23117 6.99245
# Velocity P-wave (km/s) = 12.02123 6.47822 9.65602
#
# Compressibility (1/GPa) = 0.01819229
#
# Stress axis : x y z
#
# Youngs Moduli (GPa) = 182.73913 182.73913 80.28719
#
# Poissons Ratio (x) = -0.70729 0.25990
# Poissons Ratio (y) = -0.70729 0.25990
# Poissons Ratio (z) = 0.59155 0.59155
#
# Static dielectric constant tensor:
#      x y z
#    x 3.591200 0.000000 0.000000 
#    y 0.000000 3.591200 0.000000 
#    z 0.000000 0.000000 3.609170 
# 
# 
# High freq. dielectric constant tensor:
#      x y z
#    x 1.755020 0.000000 0.000000 
#    y 0.000000 1.755020 0.000000 
#    z 0.000000 0.000000 1.775160 
# 
# From -- ./inp_files/963.got.cif
#   From: 2010.03.12/outbox.cif.g09.slc.cpg/sg84_1_cif.got.tgz:963.got - 2010.04.08 20:07:29.
