data_PCOD8303575
_publ_section_title
;
Structure prediction by ZEFSAII (Michael W. Deem and Ramdas Pophale) SiO2 
 PCOD8303575
Probable space group: P 42/N
;
_chemical_formula_sum "Si O2"
_cell_formula_units_Z 60
_cell_length_a 18.297348
_cell_length_b 18.297348
_cell_length_c 8.402924
_cell_angle_alpha 90.000000
_cell_angle_beta 90.000000
_cell_angle_gamma 90.000000
_cell_volume 2813.239663
_symmetry_space_group_name_H-M "P 42/N"
_symmetry_group_IT_number 86
_space_group.IT_coordinate_system_code '2'
_symmetry_cell_setting 'tetragonal'
loop_
_space_group_symop_operation_xyz
x,y,z
-y,1/2+x,1/2+z
1/2-x,1/2-y,z
1/2+y,-x,1/2+z
-x,-y,-z
y,1/2-x,1/2-z
1/2+x,1/2+y,-z
1/2-y,x,1/2-z
loop_
_atom_site_type_symbol
_atom_site_label
_atom_site_fract_x
_atom_site_fract_y
_atom_site_fract_z
Si Si1 0.748071 0.904828 0.873203
Si Si2 0.177966 0.187153 0.654830
Si Si3 0.422721 0.941703 0.256233
Si Si4 0.674092 0.043094 0.034340
Si Si5 0.250000 0.750000 0.648400
Si Si6 0.409473 0.366084 0.116529
Si Si7 0.852085 0.306777 0.600973
Si Si8 0.556443 0.595566 0.236090
O O1 0.714176 0.896604 0.695430
O O2 0.835303 0.912028 0.857835
O O3 0.719628 0.977857 0.955957
O O4 0.728492 0.834869 0.986295
O O5 0.161105 0.239083 0.812065
O O6 0.125302 0.117949 0.655947
O O7 0.384617 0.921342 0.088163
O O8 0.397430 0.882486 0.389202
O O9 0.509296 0.940712 0.258811
O O10 0.403734 0.025196 0.289265
O O11 0.733019 0.100451 0.097335
O O12 0.627207 0.017135 0.186454
O O13 0.200422 0.692845 0.551051
O O14 0.305502 0.700922 0.747916
O O15 0.434264 0.366417 0.934484
#
# Coordination Sequence:
#
# PCOD8303575 Si02
#       8
#     8   8   8   8   4   8   8   8
#     4  10  23  41  63  93 136 176 228 283 339 418
#     4  10  21  38  62  89 124 172 226 270 326 404
#     4  11  24  44  68  98 142 174 227 287 349 416
#     4  10  23  44  67  97 137 181 228 281 349 415
#     4  10  24  42  72 100 128 174 234 282 344 420
#     4  11  24  42  63 100 132 182 222 287 350 412
#     4  11  22  45  70 100 133 175 225 290 347 416
#     4  11  23  41  66  95 130 180 227 275 347 413
#
# _framework density 21.327725999999998
#
# number of rings (size 3 to 8) (size 9 to 14) (size 15 to 20)
#    0.000    1.467    2.667    1.600    5.600    0.267 
#    0.000    1.333    0.000    0.000    0.000    0.000 
#    0.000    0.000    0.000    0.000    0.000    0.000 
#
# Total GULP energy -743592.315882 kJ/mol
# GULP energy per Si atom -12393.205265 kJ/mol
# Density = 2.127918 g / cm^3
# Si number density = 21.327726 Si / 1000 Ang^3
#
#
#
# Elastic Constant Matrix: (Units=GPa)
#
#
# Indices 1 2 3 4 5 6 
#
# 1 99.9009 21.0796 40.4518 0.0000 0.0000 -3.8196
# 2 21.0796 99.9009 40.4518 0.0000 0.0000 3.8196
# 3 40.4518 40.4518 113.7017 0.0000 0.0000 0.0000
# 4 0.0000 0.0000 0.0000 23.6516 0.0000 0.0000
# 5 0.0000 0.0000 0.0000 0.0000 23.6516 0.0000
# 6 -3.8196 3.8196 0.0000 0.0000 0.0000 35.6806
#
#
#
# Elastic Compliance Matrix: (Units=1/GPa)
#
#
# Indices 1 2 3 4 5 6 
#
# 1 0.011833 -0.000987 -0.003859 0.000000 0.000000 0.001372
# 2 -0.000987 0.011833 -0.003859 0.000000 0.000000 -0.001372
# 3 -0.003859 -0.003859 0.011541 0.000000 0.000000 0.000000
# 4 0.000000 0.000000 0.000000 0.042280 0.000000 0.000000
# 5 0.000000 0.000000 0.000000 0.000000 0.042280 0.000000
# 6 0.001372 -0.001372 0.000000 0.000000 0.000000 0.028320
#
#
# Mechanical properties :
#
#
# Convention : Reuss Voigt Hill
#
# Bulk Modulus (GPa) = 56.18598 57.49666 56.84132
# Shear Modulus (GPa) = 29.16650 30.69812 29.93231
#
# Velocity S-wave (km/s) = 3.70204 3.79800 3.75032
# Velocity P-wave (km/s) = 6.68392 6.80075 6.74259
#
# Compressibility (1/GPa) = 0.01779804
#
# Stress axis : x y z
#
# Youngs Moduli (GPa) = 84.50864 84.50864 86.65035
#
# Poissons Ratio (x) = 0.08339 0.33437
# Poissons Ratio (y) = 0.08339 0.33437
# Poissons Ratio (z) = 0.32610 0.32610
#
# Static dielectric constant tensor:
#      x y z
#    x 3.930520 0.000000 0.000000 
#    y 0.000000 3.930520 0.000000 
#    z 0.000000 0.000000 3.997940 
# 
# 
# High freq. dielectric constant tensor:
#      x y z
#    x 1.837370 0.000000 0.000000 
#    y 0.000000 1.837370 0.000000 
#    z 0.000000 0.000000 1.837950 
# 
# From -- ./inp_files/1493.got.cif
#   From: 2010.03.12/outbox.cif.g09.slc.cpg/sg86_1_cif.got.tgz:1493.got - 2010.04.08 20:12:58.
