data_PCOD8303599
_publ_section_title
;
Structure prediction by ZEFSAII (Michael W. Deem and Ramdas Pophale) SiO2 
 PCOD8303599
Probable space group: P 42/N
;
_chemical_formula_sum "Si O2"
_cell_formula_units_Z 50
_cell_length_a 9.058776
_cell_length_b 9.058776
_cell_length_c 28.483654
_cell_angle_alpha 90.000000
_cell_angle_beta 90.000000
_cell_angle_gamma 90.000000
_cell_volume 2337.409169
_symmetry_space_group_name_H-M "P 42/N"
_symmetry_group_IT_number 86
_space_group.IT_coordinate_system_code '2'
_symmetry_cell_setting 'tetragonal'
loop_
_space_group_symop_operation_xyz
x,y,z
-y,1/2+x,1/2+z
1/2-x,1/2-y,z
1/2+y,-x,1/2+z
-x,-y,-z
y,1/2-x,1/2-z
1/2+x,1/2+y,-z
1/2-y,x,1/2-z
loop_
_atom_site_type_symbol
_atom_site_label
_atom_site_fract_x
_atom_site_fract_y
_atom_site_fract_z
Si Si1 0.250000 0.250000 0.250000
Si Si2 0.250000 0.750000 0.786354
Si Si3 0.294058 0.470295 0.731660
Si Si4 0.547645 0.704191 0.930110
Si Si5 0.371295 0.627043 0.648106
Si Si6 0.686775 0.546033 0.672705
Si Si7 0.502048 0.304594 0.449629
Si Si8 0.750000 0.250000 0.023277
O O1 0.391014 0.277507 0.216628
O O2 0.326923 0.630335 0.753019
O O3 0.370566 0.830368 0.819633
O O4 0.417481 0.367083 0.754133
O O5 0.306229 0.479776 0.674244
O O6 0.572649 0.724371 0.874998
O O7 0.603956 0.851117 0.957666
O O8 0.635594 0.552704 0.941800
O O9 0.377736 0.683522 0.943782
O O10 0.250000 0.750000 0.660487
O O11 0.534009 0.639533 0.671305
O O12 0.399539 0.623044 0.592314
O O13 0.611823 0.310790 0.493504
#
# Coordination Sequence:
#
# PCOD8303599 Si02
#       8
#     2   4   8   8   8   8   8   4
#     4  12  24  40  64  96 120 168 240 260 328 392
#     4  12  23  39  60  88 128 170 228 259 339 400
#     4  11  24  40  61  90 130 179 216 274 336 395
#     4  10  23  42  65  95 142 164 216 282 326 390
#     4  11  21  40  66  92 129 167 228 280 324 396
#     4  11  24  40  64  98 127 178 219 282 329 390
#     4  10  22  41  67  99 125 173 221 270 336 391
#     4  12  21  41  70 100 130 180 216 267 345 408
#
# _framework density 21.391207000000001
#
# number of rings (size 3 to 8) (size 9 to 14) (size 15 to 20)
#    0.000    1.120    3.200    4.320    0.000    1.280 
#    0.000    0.000    0.000    1.920    0.000    0.000 
#    0.000    0.000    0.000    0.000    0.000    0.000 
#
# Total GULP energy -619445.606799 kJ/mol
# GULP energy per Si atom -12388.912136 kJ/mol
# Density = 2.134252 g / cm^3
# Si number density = 21.391207 Si / 1000 Ang^3
#
#
#
# Elastic Constant Matrix: (Units=GPa)
#
#
# Indices 1 2 3 4 5 6 
#
# 1 95.1507 15.0668 40.2976 0.0000 0.0000 -0.0359
# 2 15.0668 95.1507 40.2976 0.0000 0.0000 0.0359
# 3 40.2976 40.2976 100.8182 0.0000 0.0000 0.0000
# 4 0.0000 0.0000 0.0000 26.5703 0.0000 0.0000
# 5 0.0000 0.0000 0.0000 0.0000 26.5703 0.0000
# 6 -0.0359 0.0359 0.0000 0.0000 0.0000 34.7696
#
#
#
# Elastic Compliance Matrix: (Units=1/GPa)
#
#
# Indices 1 2 3 4 5 6 
#
# 1 0.012653 0.000167 -0.005124 0.000000 0.000000 0.000013
# 2 0.000167 0.012653 -0.005124 0.000000 0.000000 -0.000013
# 3 -0.005124 -0.005124 0.014015 0.000000 0.000000 0.000000
# 4 0.000000 0.000000 0.000000 0.037636 0.000000 0.000000
# 5 0.000000 0.000000 0.000000 0.000000 0.037636 0.000000
# 6 0.000013 -0.000013 0.000000 0.000000 0.000000 0.028761
#
#
# Mechanical properties :
#
#
# Convention : Reuss Voigt Hill
#
# Bulk Modulus (GPa) = 52.19669 53.60484 52.90076
# Shear Modulus (GPa) = 29.42824 30.61254 30.02039
#
# Velocity S-wave (km/s) = 3.71309 3.78707 3.75026
# Velocity P-wave (km/s) = 6.54497 6.65103 6.59821
#
# Compressibility (1/GPa) = 0.01915830
#
# Stress axis : x y z
#
# Youngs Moduli (GPa) = 79.02976 79.02976 71.35107
#
# Poissons Ratio (x) = -0.01316 0.36562
# Poissons Ratio (y) = -0.01316 0.36562
# Poissons Ratio (z) = 0.40497 0.40497
#
# Static dielectric constant tensor:
#      x y z
#    x 3.854610 0.000000 0.000000 
#    y 0.000000 3.854610 0.000000 
#    z 0.000000 0.000000 3.875500 
# 
# 
# High freq. dielectric constant tensor:
#      x y z
#    x 1.836940 0.000000 0.000000 
#    y 0.000000 1.836940 0.000000 
#    z 0.000000 0.000000 1.834300 
# 
# From -- ./inp_files/5264.got.cif
#   From: 2010.03.12/outbox.cif.g09.slc.cpg/sg86_3_cif.got.tgz:5264.got - 2010.04.08 20:12:58.
