data_PCOD8303260
_publ_section_title
;
Structure prediction by ZEFSAII (Michael W. Deem and Ramdas Pophale) SiO2 
 PCOD8303260
Probable space group: P 42/M
;
_chemical_formula_sum "Si O2"
_cell_formula_units_Z 32
_cell_length_a 10.822994
_cell_length_b 10.822994
_cell_length_c 13.619129
_cell_angle_alpha 90.000000
_cell_angle_beta 90.000000
_cell_angle_gamma 90.000000
_cell_volume 1595.306626
_symmetry_space_group_name_H-M "P 42/M"
_symmetry_group_IT_number 84
_symmetry_cell_setting 'tetragonal'
loop_
_space_group_symop_operation_xyz
x,y,z
-y,x,1/2+z
-x,-y,z
y,-x,1/2+z
-x,-y,-z
y,-x,1/2-z
x,y,-z
-y,x,1/2-z
loop_
_atom_site_type_symbol
_atom_site_label
_atom_site_fract_x
_atom_site_fract_y
_atom_site_fract_z
Si Si1 0.319523 0.556310 0.768495
Si Si2 0.136057 0.949351 0.112315
Si Si3 0.879576 0.573544 0.114647
Si Si4 0.186513 0.785608 0.707460
O O1 0.441041 0.635736 0.800253
O O2 0.244888 0.503679 0.861670
O O3 0.231044 0.644284 0.705736
O O4 0.222049 0.064767 0.140650
O O5 0.158461 0.831124 0.181478
O O6 0.159039 0.908137 0.000000
O O7 0.000000 0.000000 0.131091
O O8 0.876834 0.708846 0.163808
O O9 0.000000 0.500000 0.153661
O O10 0.888218 0.595082 0.000000
#
# Coordination Sequence:
#
# PCOD8303260 Si02
#       4
#     8   8   8   8
#     4   9  20  38  59  81 114 157 198 238 294 349
#     4  11  22  35  56  86 117 154 194 239 303 367
#     4  10  21  35  59  89 116 151 199 249 296 356
#     4  11  19  38  57  82 118 155 190 248 302 351
#
# _framework density 20.058838000000002
#
# number of rings (size 3 to 8) (size 9 to 14) (size 15 to 20)
#    0.000    1.750    2.500    2.250    0.000    1.000 
#    0.000   11.250    0.000   20.250    0.000    0.000 
#    0.000    0.000    0.000    0.000    0.000    0.000 
#
# Total GULP energy -396673.626093 kJ/mol
# GULP energy per Si atom -12396.050815 kJ/mol
# Density = 2.001318 g / cm^3
# Si number density = 20.058838 Si / 1000 Ang^3
#
#
#
# Elastic Constant Matrix: (Units=GPa)
#
#
# Indices 1 2 3 4 5 6 
#
# 1 78.0879 18.7619 23.6027 0.0000 0.0000 3.8561
# 2 18.7619 78.0879 23.6027 0.0000 0.0000 -3.8561
# 3 23.6027 23.6027 90.8071 0.0000 0.0000 0.0000
# 4 0.0000 0.0000 0.0000 22.1487 0.0000 0.0000
# 5 0.0000 0.0000 0.0000 0.0000 22.1487 0.0000
# 6 3.8561 -3.8561 0.0000 0.0000 0.0000 35.8191
#
#
#
# Elastic Compliance Matrix: (Units=1/GPa)
#
#
# Indices 1 2 3 4 5 6 
#
# 1 0.014459 -0.002636 -0.003073 0.000000 0.000000 -0.001840
# 2 -0.002636 0.014459 -0.003073 0.000000 0.000000 0.001840
# 3 -0.003073 -0.003073 0.012610 0.000000 0.000000 0.000000
# 4 0.000000 0.000000 0.000000 0.045149 0.000000 0.000000
# 5 0.000000 0.000000 0.000000 0.000000 0.045149 0.000000
# 6 -0.001840 0.001840 0.000000 0.000000 0.000000 0.028314
#
#
# Mechanical properties :
#
#
# Convention : Reuss Voigt Hill
#
# Bulk Modulus (GPa) = 41.72962 42.10192 41.91577
# Shear Modulus (GPa) = 26.92608 28.09102 27.50855
#
# Velocity S-wave (km/s) = 3.66779 3.74629 3.70725
# Velocity P-wave (km/s) = 6.22782 6.30458 6.26632
#
# Compressibility (1/GPa) = 0.02396380
#
# Stress axis : x y z
#
# Youngs Moduli (GPa) = 69.16014 69.16014 79.30295
#
# Poissons Ratio (x) = 0.18231 0.24370
# Poissons Ratio (y) = 0.18231 0.24370
# Poissons Ratio (z) = 0.21253 0.21253
#
# Static dielectric constant tensor:
#      x y z
#    x 3.883840 0.000000 0.000000 
#    y 0.000000 3.883840 0.000000 
#    z 0.000000 0.000000 3.336050 
# 
# 
# High freq. dielectric constant tensor:
#      x y z
#    x 1.794450 0.000000 0.000000 
#    y 0.000000 1.794450 0.000000 
#    z 0.000000 0.000000 1.748080 
# 
# From -- ./inp_files/1848.got.cif
#   From: 2010.03.12/outbox.cif.g09.slc.cpg/sg84_1_cif.got.tgz:1848.got - 2010.04.08 20:07:29.
