data_PCOD8303987
_publ_section_title
;
Structure prediction by ZEFSAII (Michael W. Deem and Ramdas Pophale) SiO2 
 PCOD8303987
Probable space group: I 4/M
;
_chemical_formula_sum "Si O2"
_cell_formula_units_Z 96
_cell_length_a 24.015963
_cell_length_b 24.015963
_cell_length_c 8.657817
_cell_angle_alpha 90.000000
_cell_angle_beta 90.000000
_cell_angle_gamma 90.000000
_cell_volume 4993.538625
_symmetry_space_group_name_H-M "I 4/M"
_symmetry_group_IT_number 87
_symmetry_cell_setting 'tetragonal'
loop_
_space_group_symop_operation_xyz
x,y,z
-y,x,z
-x,-y,z
y,-x,z
-x,-y,-z
y,-x,-z
x,y,-z
-y,x,-z
1/2+x,1/2+y,1/2+z
1/2-y,1/2+x,1/2+z
1/2-x,1/2-y,1/2+z
1/2+y,1/2-x,1/2+z
1/2-x,1/2-y,1/2-z
1/2+y,1/2-x,1/2-z
1/2+x,1/2+y,1/2-z
1/2-y,1/2+x,1/2-z
loop_
_atom_site_type_symbol
_atom_site_label
_atom_site_fract_x
_atom_site_fract_y
_atom_site_fract_z
Si Si1 0.646990 0.772941 0.679714
Si Si2 0.851945 0.437767 0.823309
Si Si3 0.642982 0.947119 0.174302
Si Si4 0.233082 0.353439 0.322500
Si Si5 0.062712 0.062070 0.683433
Si Si6 0.346494 0.649913 0.817979
O O1 0.660760 0.774637 0.500000
O O2 0.590894 0.806988 0.713203
O O3 0.699999 0.798484 0.768664
O O4 0.635451 0.710539 0.732965
O O5 0.913110 0.413226 0.789519
O O6 0.853032 0.503215 0.795019
O O7 0.835138 0.425011 0.000000
O O8 0.695424 0.907426 0.200090
O O9 0.642078 0.970672 0.000000
O O10 0.250229 0.344157 0.500000
O O11 0.287330 0.364424 0.220393
O O12 0.064007 0.062548 0.500000
O O13 0.107638 0.106370 0.747039
O O14 0.000404 0.078072 0.741603
O O15 0.338507 0.642836 0.000000
#
# Coordination Sequence:
#
# PCOD8303987 Si02
#       6
#    16  16  16  16  16  16
#     4  11  22  37  56  78 109 146 181 224 277 326
#     4  10  21  37  57  81 110 144 184 229 273 323
#     4   9  20  37  55  78 109 145 183 226 275 323
#     4  10  21  38  56  78 111 146 182 226 273 323
#     4   8  16  33  55  79 108 139 173 217 264 309
#     4  11  21  33  55  86 112 140 181 223 269 329
#
# _framework density 19.224843
#
# number of rings (size 3 to 8) (size 9 to 14) (size 15 to 20)
#    0.000    2.167    0.000    5.000    0.000    5.667 
#    0.000    3.333    0.000    3.000    0.000    4.667 
#    0.000    0.000    0.000    0.000    0.000    0.000 
#
# Total GULP energy -595289.341151 kJ/mol
# GULP energy per Si atom -12401.861274 kJ/mol
# Density = 1.918109 g / cm^3
# Si number density = 19.224843 Si / 1000 Ang^3
#
#
#
# Elastic Constant Matrix: (Units=GPa)
#
#
# Indices 1 2 3 4 5 6 
#
# 1 76.5987 103.8881 22.7612 0.0000 0.0000 -0.7576
# 2 103.8881 76.5987 22.7612 0.0000 0.0000 0.7576
# 3 22.7612 22.7612 56.0588 0.0000 0.0000 0.0000
# 4 0.0000 0.0000 0.0000 28.0298 0.0000 0.0000
# 5 0.0000 0.0000 0.0000 0.0000 28.0298 0.0000
# 6 -0.7576 0.7576 0.0000 0.0000 0.0000 24.6388
#
#
#
# Elastic Compliance Matrix: (Units=1/GPa)
#
#
# Indices 1 2 3 4 5 6 
#
# 1 -0.015205 0.021377 -0.002506 0.000000 0.000000 -0.001125
# 2 0.021377 -0.015205 -0.002506 0.000000 0.000000 0.001125
# 3 -0.002506 -0.002506 0.019874 0.000000 0.000000 0.000000
# 4 0.000000 0.000000 0.000000 0.035676 0.000000 0.000000
# 5 0.000000 0.000000 0.000000 0.000000 0.035676 0.000000
# 6 -0.001125 0.001125 0.000000 0.000000 0.000000 0.040517
#
#
# Mechanical properties :
#
#
# Convention : Reuss Voigt Hill
#
# Bulk Modulus (GPa) = 45.05729 56.45304 50.75517
# Shear Modulus (GPa) = 65.78669 20.12936 42.95803
#
# Velocity S-wave (km/s) = 5.85610 3.23932 4.73218
# Velocity P-wave (km/s) = 8.31944 6.58934 7.50441
#
# Compressibility (1/GPa) = 0.02219396
#
# Stress axis : x y z
#
# Youngs Moduli (GPa) = -65.76994 -65.76994 50.31791
#
# Poissons Ratio (x) = 1.40598 0.12611
# Poissons Ratio (y) = 1.40598 0.12611
# Poissons Ratio (z) = -0.16484 -0.16484
#
# Static dielectric constant tensor:
#      x y z
#    x 3.578160 0.000000 0.000000 
#    y 0.000000 3.578160 0.000000 
#    z 0.000000 0.000000 3.386110 
# 
# 
# High freq. dielectric constant tensor:
#      x y z
#    x 1.750080 0.000000 0.000000 
#    y 0.000000 1.750080 0.000000 
#    z 0.000000 0.000000 1.739020 
# 
# From -- ./inp_files/1410.got.cif
#   From: 2010.03.12/outbox.cif.g09.slc.cpg/sg87_1_cif.got.tgz:1410.got - 2010.04.08 20:16:13.
