data_PCOD8303921
_publ_section_title
;
Structure prediction by ZEFSAII (Michael W. Deem and Ramdas Pophale) SiO2 
 PCOD8303921
Probable space group: I 4/M
;
_chemical_formula_sum "Si O2"
_cell_formula_units_Z 96
_cell_length_a 22.819119
_cell_length_b 22.819119
_cell_length_c 8.555755
_cell_angle_alpha 90.000000
_cell_angle_beta 90.000000
_cell_angle_gamma 90.000000
_cell_volume 4455.085940
_symmetry_space_group_name_H-M "I 4/M"
_symmetry_group_IT_number 87
_symmetry_cell_setting 'tetragonal'
loop_
_space_group_symop_operation_xyz
x,y,z
-y,x,z
-x,-y,z
y,-x,z
-x,-y,-z
y,-x,-z
x,y,-z
-y,x,-z
1/2+x,1/2+y,1/2+z
1/2-y,1/2+x,1/2+z
1/2-x,1/2-y,1/2+z
1/2+y,1/2-x,1/2+z
1/2-x,1/2-y,1/2-z
1/2+y,1/2-x,1/2-z
1/2+x,1/2+y,1/2-z
1/2-y,1/2+x,1/2-z
loop_
_atom_site_type_symbol
_atom_site_label
_atom_site_fract_x
_atom_site_fract_y
_atom_site_fract_z
Si Si1 0.880583 0.292184 0.684425
Si Si2 0.724462 0.123845 0.183591
Si Si3 0.342110 0.663170 0.814618
Si Si4 0.065462 0.933651 0.314430
Si Si5 0.423072 0.966713 0.822706
Si Si6 0.692764 0.012467 0.316946
O O1 0.883082 0.298627 0.500000
O O2 0.832910 0.339448 0.747109
O O3 0.866350 0.226411 0.733187
O O4 0.946937 0.301504 0.751168
O O5 0.781253 0.161783 0.222716
O O6 0.740756 0.061588 0.273004
O O7 0.719057 0.113007 0.000000
O O8 0.387930 0.614019 0.751447
O O9 0.332194 0.657307 0.000000
O O10 0.065629 0.931623 0.500000
O O11 0.999363 0.917700 0.256321
O O12 0.431417 0.035834 0.795456
O O13 0.357641 0.951991 0.777438
O O14 0.437486 0.948442 0.000000
O O15 0.681220 0.009582 0.500000
#
# Coordination Sequence:
#
# PCOD8303921 Si02
#       6
#    16  16  16  16  16  16
#     4   9  21  39  60  85 116 153 198 252 301 349
#     4  11  23  40  58  84 123 160 193 241 307 369
#     4  10  20  36  62  88 114 153 201 246 291 352
#     4   8  15  28  52  88 122 149 186 243 301 348
#     4  11  21  35  55  82 116 155 198 244 297 355
#     4  11  22  38  61  87 113 149 200 254 305 358
#
# _framework density 21.548404999999999
#
# number of rings (size 3 to 8) (size 9 to 14) (size 15 to 20)
#    0.000    2.000    0.000    5.000    2.333    1.333 
#    0.000    5.000    0.000    0.000    0.000    1.167 
#    0.000    0.000    0.000    0.000    0.000    0.000 
#
# Total GULP energy -594668.171267 kJ/mol
# GULP energy per Si atom -12388.920235 kJ/mol
# Density = 2.149936 g / cm^3
# Si number density = 21.548405 Si / 1000 Ang^3
#
#
#
# Elastic Constant Matrix: (Units=GPa)
#
#
# Indices 1 2 3 4 5 6 
#
# 1 142.2053 56.8026 20.5438 0.0000 0.0000 -0.9231
# 2 56.8026 142.2053 20.5438 0.0000 0.0000 0.9231
# 3 20.5438 20.5438 49.5067 0.0000 0.0000 0.0000
# 4 0.0000 0.0000 0.0000 24.8616 0.0000 0.0000
# 5 0.0000 0.0000 0.0000 0.0000 24.8616 0.0000
# 6 -0.9231 0.9231 0.0000 0.0000 0.0000 31.8715
#
#
#
# Elastic Compliance Matrix: (Units=1/GPa)
#
#
# Indices 1 2 3 4 5 6 
#
# 1 0.008606 -0.003110 -0.002281 0.000000 0.000000 0.000339
# 2 -0.003110 0.008606 -0.002281 0.000000 0.000000 -0.000339
# 3 -0.002281 -0.002281 0.022092 0.000000 0.000000 0.000000
# 4 0.000000 0.000000 0.000000 0.040223 0.000000 0.000000
# 5 0.000000 0.000000 0.000000 0.000000 0.040223 0.000000
# 6 0.000339 -0.000339 0.000000 0.000000 0.000000 0.031396
#
#
# Mechanical properties :
#
#
# Convention : Reuss Voigt Hill
#
# Bulk Modulus (GPa) = 41.73403 58.85530 50.29466
# Shear Modulus (GPa) = 28.65731 32.05408 30.35569
#
# Velocity S-wave (km/s) = 3.65074 3.86105 3.75737
# Velocity P-wave (km/s) = 6.09755 6.87381 6.49729
#
# Compressibility (1/GPa) = 0.02396126
#
# Stress axis : x y z
#
# Youngs Moduli (GPa) = 116.19558 116.19558 45.26517
#
# Poissons Ratio (x) = 0.36141 0.10323
# Poissons Ratio (y) = 0.36141 0.10323
# Poissons Ratio (z) = 0.26499 0.26499
#
# Static dielectric constant tensor:
#      x y z
#    x 4.189120 0.000000 0.000000 
#    y 0.000000 4.189120 0.000000 
#    z 0.000000 0.000000 3.477550 
# 
# 
# High freq. dielectric constant tensor:
#      x y z
#    x 1.859170 0.000000 0.000000 
#    y 0.000000 1.859170 0.000000 
#    z 0.000000 0.000000 1.799720 
# 
# From -- ./inp_files/1446.got.cif
#   From: 2010.03.12/outbox.cif.g09.slc.cpg/sg87_1_cif.got.tgz:1446.got - 2010.04.08 20:16:13.
