data_PCOD8303889
_publ_section_title
;
Structure prediction by ZEFSAII (Michael W. Deem and Ramdas Pophale) SiO2 
 PCOD8303889
Probable space group: I 4/M
;
_chemical_formula_sum "Si O2"
_cell_formula_units_Z 80
_cell_length_a 14.553215
_cell_length_b 14.553215
_cell_length_c 20.312697
_cell_angle_alpha 90.000000
_cell_angle_beta 90.000000
_cell_angle_gamma 90.000000
_cell_volume 4302.149331
_symmetry_space_group_name_H-M "I 4/M"
_symmetry_group_IT_number 87
_symmetry_cell_setting 'tetragonal'
loop_
_space_group_symop_operation_xyz
x,y,z
-y,x,z
-x,-y,z
y,-x,z
-x,-y,-z
y,-x,-z
x,y,-z
-y,x,-z
1/2+x,1/2+y,1/2+z
1/2-y,1/2+x,1/2+z
1/2-x,1/2-y,1/2+z
1/2+y,1/2-x,1/2+z
1/2-x,1/2-y,1/2-z
1/2+y,1/2-x,1/2-z
1/2+x,1/2+y,1/2-z
1/2-y,1/2+x,1/2-z
loop_
_atom_site_type_symbol
_atom_site_label
_atom_site_fract_x
_atom_site_fract_y
_atom_site_fract_z
Si Si1 0.941314 0.859149 0.662705
Si Si2 0.636597 0.439731 0.691922
Si Si3 0.482850 0.901572 0.575649
Si Si4 0.367636 0.246150 0.425066
Si Si5 0.284843 0.840519 0.576869
O O1 0.921537 0.818677 0.736212
O O2 0.914393 0.779768 0.612143
O O3 0.048515 0.881998 0.651923
O O4 0.619535 0.546385 0.687294
O O5 0.692977 0.416771 0.628145
O O6 0.459363 0.918124 0.500000
O O7 0.580077 0.850102 0.583297
O O8 0.390938 0.849729 0.603405
O O9 0.500000 0.000000 0.610865
O O10 0.381386 0.283991 0.500000
O O11 0.260034 0.242884 0.407842
O O12 0.278921 0.861653 0.500000
#
# Coordination Sequence:
#
# PCOD8303889 Si02
#       5
#    16  16  16  16  16
#     4   9  20  37  55  79 110 143 184 232 279 330
#     4   9  18  34  55  78 107 143 179 220 280 339
#     4   9  19  35  54  77 113 151 180 224 285 335
#     4  10  20  34  54  82 110 139 184 233 272 327
#     4  10  21  34  56  84 107 145 194 229 275 335
#
# _framework density 18.595357
#
# number of rings (size 3 to 8) (size 9 to 14) (size 15 to 20)
#    0.000    2.600    0.000    2.400    2.800    4.000 
#    0.000    2.000    0.000    0.000    0.000    0.000 
#    0.000    0.000    0.000    0.000    0.000    0.000 
#
# Total GULP energy -495529.677341 kJ/mol
# GULP energy per Si atom -12388.241934 kJ/mol
# Density = 1.855303 g / cm^3
# Si number density = 18.595357 Si / 1000 Ang^3
#
#
#
# Elastic Constant Matrix: (Units=GPa)
#
#
# Indices 1 2 3 4 5 6 
#
# 1 38.7463 100.6218 20.8837 0.0000 0.0000 -72.2789
# 2 100.6218 38.7463 20.8837 0.0000 0.0000 72.2789
# 3 20.8837 20.8837 41.4751 0.0000 0.0000 0.0000
# 4 0.0000 0.0000 0.0000 15.6983 0.0000 0.0000
# 5 0.0000 0.0000 0.0000 0.0000 15.6984 0.0000
# 6 -72.2789 72.2789 0.0000 0.0000 0.0000 -39.2604
#
#
#
# Elastic Compliance Matrix: (Units=1/GPa)
#
#
# Indices 1 2 3 4 5 6 
#
# 1 0.006673 0.001777 -0.004255 0.000000 0.000000 -0.009013
# 2 0.001777 0.006673 -0.004255 0.000000 0.000000 0.009013
# 3 -0.004255 -0.004255 0.028396 0.000000 0.000000 0.000000
# 4 0.000000 0.000000 0.000000 0.063701 0.000000 0.000000
# 5 0.000000 0.000000 0.000000 0.000000 0.063701 0.000000
# 6 -0.009013 0.009013 0.000000 0.000000 0.000000 0.007716
#
#
# Mechanical properties :
#
#
# Convention : Reuss Voigt Hill
#
# Bulk Modulus (GPa) = 35.36477 44.86068 40.11273
# Shear Modulus (GPa) = 25.03118 -3.13418 10.94850
#
# Velocity S-wave (km/s) = 3.67290 -1.29966 2.42910
# Velocity P-wave (km/s) = 6.08657 4.68240 5.43006
#
# Compressibility (1/GPa) = 0.02827673
#
# Stress axis : x y z
#
# Youngs Moduli (GPa) = 149.85516 149.85516 35.21640
#
# Poissons Ratio (x) = -0.26634 0.14985
# Poissons Ratio (y) = -0.26634 0.14985
# Poissons Ratio (z) = 0.63763 0.63763
#
# Static dielectric constant tensor:
#      x y z
#    x 3.565780 0.000000 0.000000 
#    y 0.000000 3.565780 0.000000 
#    z 0.000000 0.000000 3.435120 
# 
# 
# High freq. dielectric constant tensor:
#      x y z
#    x 1.719740 0.000000 0.000000 
#    y 0.000000 1.719740 0.000000 
#    z 0.000000 0.000000 1.708090 
# 
# From -- ./inp_files/5051.got.cif
#   From: 2010.03.12/outbox.cif.g09.slc.cpg/sg87_3_cif.got.tgz:5051.got - 2010.04.08 20:16:13.
