data_PCOD8303359
_publ_section_title
;
Structure prediction by ZEFSAII (Michael W. Deem and Ramdas Pophale) SiO2 
 PCOD8303359
Probable space group: P 42/M
;
_chemical_formula_sum "Si O2"
_cell_formula_units_Z 26
_cell_length_a 8.702507
_cell_length_b 8.702507
_cell_length_c 15.282274
_cell_angle_alpha 90.000000
_cell_angle_beta 90.000000
_cell_angle_gamma 90.000000
_cell_volume 1157.382055
_symmetry_space_group_name_H-M "P 42/M"
_symmetry_group_IT_number 84
_symmetry_cell_setting 'tetragonal'
loop_
_space_group_symop_operation_xyz
x,y,z
-y,x,1/2+z
-x,-y,z
y,-x,1/2+z
-x,-y,-z
y,-x,1/2-z
x,y,-z
-y,x,1/2-z
loop_
_atom_site_type_symbol
_atom_site_label
_atom_site_fract_x
_atom_site_fract_y
_atom_site_fract_z
Si Si1 0.000000 0.000000 0.750000
Si Si2 0.247865 0.222082 0.828732
Si Si3 0.902992 0.239790 0.000000
Si Si4 0.083243 0.765281 0.500000
Si Si5 0.157342 0.554536 0.167995
O O1 0.131680 0.914251 0.692285
O O2 0.324456 0.131047 0.910823
O O3 0.351790 0.241977 0.743412
O O4 0.237596 0.397205 0.861596
O O5 0.870151 0.341160 0.084255
O O6 0.076152 0.179706 0.000000
O O7 0.785446 0.098595 0.000000
O O8 0.000000 0.500000 0.212717
#
# Coordination Sequence:
#
# PCOD8303359 Si02
#       5
#     2   8   4   4   8
#     4  12  20  38  68 100 124 170 236 290 320 388
#     4  12  24  41  67  99 137 177 226 280 338 403
#     4  11  22  39  69 107 135 171 228 290 339 389
#     4  11  21  38  69 104 135 171 229 287 333 396
#     4  12  24  41  67  99 138 181 223 278 345 401
#
# _framework density 22.464493999999998
#
# number of rings (size 3 to 8) (size 9 to 14) (size 15 to 20)
#    0.000    0.308    6.154    5.077    0.000    0.615 
#    0.000    2.308    0.000    3.692    0.000    0.000 
#    0.000    0.000    0.000    0.000    0.000    0.000 
#
# Total GULP energy -322181.098020 kJ/mol
# GULP energy per Si atom -12391.580693 kJ/mol
# Density = 2.241336 g / cm^3
# Si number density = 22.464494 Si / 1000 Ang^3
#
#
#
# Elastic Constant Matrix: (Units=GPa)
#
#
# Indices 1 2 3 4 5 6 
#
# 1 105.5698 20.6615 34.4988 0.0000 0.0000 3.8484
# 2 20.6615 105.5698 34.4988 0.0000 0.0000 -3.8484
# 3 34.4988 34.4988 142.3596 0.0000 0.0000 0.0000
# 4 0.0000 0.0000 0.0000 37.8780 0.0000 0.0000
# 5 0.0000 0.0000 0.0000 0.0000 37.8780 0.0000
# 6 3.8484 -3.8484 0.0000 0.0000 0.0000 11.3932
#
#
#
# Elastic Compliance Matrix: (Units=1/GPa)
#
#
# Indices 1 2 3 4 5 6 
#
# 1 0.010640 -0.001509 -0.002213 0.000000 0.000000 -0.004104
# 2 -0.001509 0.010640 -0.002213 0.000000 0.000000 0.004104
# 3 -0.002213 -0.002213 0.008097 0.000000 0.000000 0.000000
# 4 0.000000 0.000000 0.000000 0.026401 0.000000 0.000000
# 5 0.000000 0.000000 0.000000 0.000000 0.026401 0.000000
# 6 -0.004104 0.004104 0.000000 0.000000 0.000000 0.090544
#
#
# Mechanical properties :
#
#
# Convention : Reuss Voigt Hill
#
# Bulk Modulus (GPa) = 57.11523 59.20195 58.15859
# Shear Modulus (GPa) = 26.25650 35.01919 30.63784
#
# Velocity S-wave (km/s) = 3.42248 3.95253 3.69702
# Velocity P-wave (km/s) = 6.41075 6.87319 6.64600
#
# Compressibility (1/GPa) = 0.01750847
#
# Stress axis : x y z
#
# Youngs Moduli (GPa) = 93.98074 93.98074 123.50263
#
# Poissons Ratio (x) = 0.14181 0.27330
# Poissons Ratio (y) = 0.14181 0.27330
# Poissons Ratio (z) = 0.20797 0.20797
#
# Static dielectric constant tensor:
#      x y z
#    x 4.063630 0.000000 0.000000 
#    y 0.000000 4.063630 0.000000 
#    z 0.000000 0.000000 4.378230 
# 
# 
# High freq. dielectric constant tensor:
#      x y z
#    x 1.867580 0.000000 0.000000 
#    y 0.000000 1.867580 0.000000 
#    z 0.000000 0.000000 1.908380 
# 
# From -- ./inp_files/3383.got.cif
#   From: 2010.03.12/outbox.cif.g09.slc.cpg/sg84_2_cif.got.tgz:3383.got - 2010.04.08 20:07:29.
