data_PCOD8303328
_publ_section_title
;
Structure prediction by ZEFSAII (Michael W. Deem and Ramdas Pophale) SiO2 
 PCOD8303328
Probable space group: P 42/M
;
_chemical_formula_sum "Si O2"
_cell_formula_units_Z 48
_cell_length_a 9.281864
_cell_length_b 9.281864
_cell_length_c 27.236588
_cell_angle_alpha 90.000000
_cell_angle_beta 90.000000
_cell_angle_gamma 90.000000
_cell_volume 2346.513747
_symmetry_space_group_name_H-M "P 42/M"
_symmetry_group_IT_number 84
_symmetry_cell_setting 'tetragonal'
loop_
_space_group_symop_operation_xyz
x,y,z
-y,x,1/2+z
-x,-y,z
y,-x,1/2+z
-x,-y,-z
y,-x,1/2-z
x,y,-z
-y,x,1/2-z
loop_
_atom_site_type_symbol
_atom_site_label
_atom_site_fract_x
_atom_site_fract_y
_atom_site_fract_z
Si Si1 0.343681 0.012539 0.913715
Si Si2 0.766303 0.664412 0.660954
Si Si3 0.527331 0.828455 0.607297
Si Si4 0.849792 0.424504 0.000000
Si Si5 0.085685 0.145719 0.500000
Si Si6 0.731506 0.335092 0.651743
Si Si7 0.165039 0.164946 0.755021
O O1 0.344669 0.922941 0.863261
O O2 0.500000 0.000000 0.939459
O O3 0.314034 0.176278 0.897934
O O4 0.225972 0.959285 0.951050
O O5 0.680129 0.782789 0.629411
O O6 0.698841 0.503600 0.662283
O O7 0.779034 0.718573 0.716298
O O8 0.526267 0.771046 0.550447
O O9 0.416511 0.744892 0.641427
O O10 0.500000 0.000000 0.610321
O O11 0.879083 0.254834 0.000000
O O12 0.000000 0.500000 0.000000
O O13 0.000000 0.000000 0.500000
O O14 0.813303 0.258329 0.696346
O O15 0.995920 0.190004 0.765984
#
# Coordination Sequence:
#
# PCOD8303328 Si02
#       7
#     8   8   8   4   4   8   8
#     4  10  23  44  67  95 136 172 216 275 330 394
#     4  11  23  45  66  94 135 173 226 273 329 401
#     4  11  24  44  69  95 137 175 220 274 333 394
#     4  10  24  43  64  97 137 169 216 272 332 394
#     4  12  25  39  73 102 128 172 226 272 331 397
#     4  11  25  43  67  97 131 177 223 272 334 400
#     4  11  24  41  65  97 133 176 223 278 343 400
#
# _framework density 20.455876
#
# number of rings (size 3 to 8) (size 9 to 14) (size 15 to 20)
#    0.000    1.167    3.333    1.750    7.000    1.333 
#    0.000    2.500    0.000    0.000    0.000    0.000 
#    0.000    0.000    0.000    0.000    0.000    0.000 
#
# Total GULP energy -595170.965185 kJ/mol
# GULP energy per Si atom -12399.395108 kJ/mol
# Density = 2.040932 g / cm^3
# Si number density = 20.455876 Si / 1000 Ang^3
#
#
#
# Elastic Constant Matrix: (Units=GPa)
#
#
# Indices 1 2 3 4 5 6 
#
# 1 103.4215 39.1132 39.8413 0.0000 0.0000 -0.6693
# 2 39.1132 103.4215 39.8413 0.0000 0.0000 0.6693
# 3 39.8413 39.8413 95.4512 0.0000 0.0000 0.0000
# 4 0.0000 0.0000 0.0000 25.8775 0.0000 0.0000
# 5 0.0000 0.0000 0.0000 0.0000 25.8775 0.0000
# 6 -0.6693 0.6693 0.0000 0.0000 0.0000 34.1040
#
#
#
# Elastic Compliance Matrix: (Units=1/GPa)
#
#
# Indices 1 2 3 4 5 6 
#
# 1 0.012354 -0.003203 -0.003820 0.000000 0.000000 0.000305
# 2 -0.003203 0.012354 -0.003820 0.000000 0.000000 -0.000305
# 3 -0.003820 -0.003820 0.013665 0.000000 0.000000 0.000000
# 4 0.000000 0.000000 0.000000 0.038644 0.000000 0.000000
# 5 0.000000 0.000000 0.000000 0.000000 0.038644 0.000000
# 6 0.000305 -0.000305 0.000000 0.000000 0.000000 0.029334
#
#
# Mechanical properties :
#
#
# Convention : Reuss Voigt Hill
#
# Bulk Modulus (GPa) = 59.92033 59.98729 59.95381
# Shear Modulus (GPa) = 29.02906 29.40503 29.21705
#
# Velocity S-wave (km/s) = 3.77119 3.79553 3.78338
# Velocity P-wave (km/s) = 6.95116 6.97115 6.96116
#
# Compressibility (1/GPa) = 0.01668883
#
# Stress axis : x y z
#
# Youngs Moduli (GPa) = 80.94660 80.94660 73.17836
#
# Poissons Ratio (x) = 0.25924 0.27952
# Poissons Ratio (y) = 0.25924 0.27952
# Poissons Ratio (z) = 0.30919 0.30919
#
# Static dielectric constant tensor:
#      x y z
#    x 3.752090 0.000000 0.000000 
#    y 0.000000 3.752090 0.000000 
#    z 0.000000 0.000000 4.002030 
# 
# 
# High freq. dielectric constant tensor:
#      x y z
#    x 1.805440 0.000000 0.000000 
#    y 0.000000 1.805440 0.000000 
#    z 0.000000 0.000000 1.804430 
# 
# From -- ./inp_files/5829.got.cif
#   From: 2010.03.12/outbox.cif.g09.slc.cpg/sg84_3_cif.got.tgz:5829.got - 2010.04.08 20:07:29.
