data_PCOD8303444
_publ_section_title
;
Structure prediction by ZEFSAII (Michael W. Deem and Ramdas Pophale) SiO2 
 PCOD8303444
Probable space group: P 4/N
;
_chemical_formula_sum "Si O2"
_cell_formula_units_Z 58
_cell_length_a 17.975352
_cell_length_b 17.975352
_cell_length_c 9.247849
_cell_angle_alpha 90.000000
_cell_angle_beta 90.000000
_cell_angle_gamma 90.000000
_cell_volume 2988.102819
_symmetry_space_group_name_H-M "P 4/N"
_symmetry_group_IT_number 85
_symmetry_cell_setting 'tetragonal'
loop_
_space_group_symop_operation_xyz
x,y,z
1/2-y,x,z
1/2-x,1/2-y,z
y,1/2-x,z
-x,-y,-z
1/2+y,-x,-z
1/2+x,1/2+y,-z
-y,1/2+x,-z
loop_
_atom_site_type_symbol
_atom_site_label
_atom_site_fract_x
_atom_site_fract_y
_atom_site_fract_z
Si Si1 0.077934 0.960394 0.001438
Si Si2 0.977009 0.311537 0.742967
Si Si3 0.725949 0.632252 0.203186
Si Si4 0.262866 0.370603 0.134968
Si Si5 0.367174 0.791648 0.509379
Si Si6 0.202591 0.970574 0.210445
Si Si7 0.707987 0.093425 0.047518
Si Si8 0.250000 0.750000 0.000000
O O1 0.119521 0.978071 0.852222
O O2 0.120489 0.986449 0.146241
O O3 0.066600 0.873085 0.009552
O O4 0.000000 0.000000 0.000000
O O5 0.919096 0.326322 0.615320
O O6 0.954078 0.234884 0.818603
O O7 0.062122 0.295370 0.695159
O O8 0.806791 0.663842 0.240208
O O9 0.727525 0.608578 0.034173
O O10 0.185040 0.330565 0.172174
O O11 0.262963 0.446484 0.230114
O O12 0.343262 0.706223 0.478106
O O13 0.420694 0.797817 0.647191
O O14 0.244401 0.919963 0.094999
O O15 0.718374 0.180558 0.093589
#
# Coordination Sequence:
#
# PCOD8303444 Si02
#       8
#     8   8   8   8   8   8   8   2
#     4  11  24  37  61  95 124 153 198 263 321 363
#     4  11  22  39  60  89 117 162 200 249 315 356
#     4   9  18  35  63  94 121 155 200 251 306 369
#     4   9  18  35  63  94 121 155 200 251 306 369
#     4  11  26  44  63  82 121 167 216 252 295 367
#     4  11  22  39  60  89 117 162 200 249 315 356
#     4  11  22  35  61  86 117 153 206 259 307 362
#     4  12  20  36  56  90 120 140 220 258 296 368
#
# _framework density 19.410311
#
# number of rings (size 3 to 8) (size 9 to 14) (size 15 to 20)
#    0.000    1.517    5.517    2.483    3.862    0.000 
#    0.000    2.069    0.000    1.655    0.000    0.000 
#    0.000    0.000    0.000    0.000    0.000    0.000 
#
# Total GULP energy -718745.758730 kJ/mol
# GULP energy per Si atom -12392.168254 kJ/mol
# Density = 1.936613 g / cm^3
# Si number density = 19.410311 Si / 1000 Ang^3
#
#
#
# Elastic Constant Matrix: (Units=GPa)
#
#
# Indices 1 2 3 4 5 6 
#
# 1 132.6891 52.5964 30.0676 0.0000 0.0000 -11.1088
# 2 52.5964 132.6891 30.0676 0.0000 0.0000 11.1088
# 3 30.0676 30.0676 66.7245 0.0000 0.0000 0.0000
# 4 0.0000 0.0000 0.0000 16.3430 0.0000 0.0000
# 5 0.0000 0.0000 0.0000 0.0000 16.3430 0.0000
# 6 -11.1088 11.1088 0.0000 0.0000 0.0000 29.9108
#
#
#
# Elastic Compliance Matrix: (Units=1/GPa)
#
#
# Indices 1 2 3 4 5 6 
#
# 1 0.010121 -0.003799 -0.002849 0.000000 0.000000 0.005170
# 2 -0.003799 0.010121 -0.002849 0.000000 0.000000 -0.005170
# 3 -0.002849 -0.002849 0.017554 0.000000 0.000000 0.000000
# 4 0.000000 0.000000 0.000000 0.061188 0.000000 0.000000
# 5 0.000000 0.000000 0.000000 0.000000 0.061188 0.000000
# 6 0.005170 -0.005170 0.000000 0.000000 0.000000 0.037273
#
#
# Mechanical properties :
#
#
# Convention : Reuss Voigt Hill
#
# Bulk Modulus (GPa) = 53.18325 61.95179 57.56752
# Shear Modulus (GPa) = 22.45124 27.14413 24.79768
#
# Velocity S-wave (km/s) = 3.40467 3.74363 3.57816
# Velocity P-wave (km/s) = 6.55093 7.11847 6.84059
#
# Compressibility (1/GPa) = 0.01880291
#
# Stress axis : x y z
#
# Youngs Moduli (GPa) = 98.80824 98.80824 56.96592
#
# Poissons Ratio (x) = 0.37537 0.16228
# Poissons Ratio (y) = 0.37537 0.16228
# Poissons Ratio (z) = 0.28147 0.28147
#
# Static dielectric constant tensor:
#      x y z
#    x 3.825640 0.000000 0.000000 
#    y 0.000000 3.825640 0.000000 
#    z 0.000000 0.000000 3.140000 
# 
# 
# High freq. dielectric constant tensor:
#      x y z
#    x 1.768860 0.000000 0.000000 
#    y 0.000000 1.768860 0.000000 
#    z 0.000000 0.000000 1.709700 
# 
# From -- ./inp_files/1194.got.cif
#   From: 2010.03.12/outbox.cif.g09.slc.cpg/sg85_cif.got.tgz:1194.got - 2010.04.08 20:10:46.
