data_PCOD8303535
_publ_section_title
;
Structure prediction by ZEFSAII (Michael W. Deem and Ramdas Pophale) SiO2 
 PCOD8303535
Probable space group: P 42/N
;
_chemical_formula_sum "Si O2"
_cell_formula_units_Z 48
_cell_length_a 9.117580
_cell_length_b 9.117580
_cell_length_c 26.720349
_cell_angle_alpha 90.000000
_cell_angle_beta 90.000000
_cell_angle_gamma 90.000000
_cell_volume 2221.269695
_symmetry_space_group_name_H-M "P 42/N"
_symmetry_group_IT_number 86
_space_group.IT_coordinate_system_code '2'
_symmetry_cell_setting 'tetragonal'
loop_
_space_group_symop_operation_xyz
x,y,z
-y,1/2+x,1/2+z
1/2-x,1/2-y,z
1/2+y,-x,1/2+z
-x,-y,-z
y,1/2-x,1/2-z
1/2+x,1/2+y,-z
1/2-y,x,1/2-z
loop_
_atom_site_type_symbol
_atom_site_label
_atom_site_fract_x
_atom_site_fract_y
_atom_site_fract_z
Si Si1 0.398210 0.820139 0.317361
Si Si2 0.482041 0.306232 0.932343
Si Si3 0.346465 0.525701 0.472231
Si Si4 0.750000 0.750000 0.908594
Si Si5 0.009154 0.629800 0.650221
Si Si6 0.250000 0.750000 0.222430
Si Si7 0.698835 0.963545 0.092407
O O1 0.250000 0.750000 0.340873
O O2 0.392815 0.787093 0.257600
O O3 0.525841 0.738998 0.348611
O O4 0.420449 0.993183 0.326255
O O5 0.593544 0.380913 0.894752
O O6 0.434292 0.150454 0.909062
O O7 0.338400 0.407665 0.939538
O O8 0.562907 0.276679 0.985618
O O9 0.500000 0.500000 0.500000
O O10 0.278197 0.387935 0.443713
O O11 0.379282 0.653951 0.432077
O O12 0.737975 0.610475 0.872392
O O13 0.104494 0.713837 0.691550
#
# Coordination Sequence:
#
# PCOD8303535 Si02
#       7
#     8   8   8   4   8   4   8
#     4   9  21  44  67  94 123 172 227 275 345 409
#     4   9  20  38  62  95 127 168 221 267 320 394
#     4  10  20  37  62  94 133 180 213 262 329 408
#     4  12  26  40  63  98 142 178 225 270 352 404
#     4  11  25  44  65 101 134 175 222 291 340 410
#     4  10  26  42  68  98 132 168 234 284 356 424
#     4   9  17  36  65  89 127 164 218 272 318 382
#
# _framework density 21.609262000000001
#
# number of rings (size 3 to 8) (size 9 to 14) (size 15 to 20)
#    0.500    1.667    0.000    3.000    4.667    3.333 
#    0.000    6.667    0.000    0.000    0.000    0.000 
#    0.000    0.000    0.000    0.000    0.000    0.000 
#
# Total GULP energy -594666.621079 kJ/mol
# GULP energy per Si atom -12388.887939 kJ/mol
# Density = 2.156008 g / cm^3
# Si number density = 21.609262 Si / 1000 Ang^3
#
#
#
# Elastic Constant Matrix: (Units=GPa)
#
#
# Indices 1 2 3 4 5 6 
#
# 1 71.3910 35.5621 58.9444 0.0000 0.0000 1.8632
# 2 35.5621 71.3910 58.9444 0.0000 0.0000 -1.8632
# 3 58.9444 58.9444 152.9682 0.0000 0.0000 0.0000
# 4 0.0000 0.0000 0.0000 32.3315 0.0000 0.0000
# 5 0.0000 0.0000 0.0000 0.0000 32.3315 0.0000
# 6 1.8632 -1.8632 0.0000 0.0000 0.0000 41.2091
#
#
#
# Elastic Compliance Matrix: (Units=1/GPa)
#
#
# Indices 1 2 3 4 5 6 
#
# 1 0.022148 -0.005895 -0.006263 0.000000 0.000000 -0.001268
# 2 -0.005895 0.022148 -0.006263 0.000000 0.000000 0.001268
# 3 -0.006263 -0.006263 0.011364 0.000000 0.000000 0.000000
# 4 0.000000 0.000000 0.000000 0.030930 0.000000 0.000000
# 5 0.000000 0.000000 0.000000 0.000000 0.030930 0.000000
# 6 -0.001268 0.001268 0.000000 0.000000 0.000000 0.024381
#
#
# Mechanical properties :
#
#
# Convention : Reuss Voigt Hill
#
# Bulk Modulus (GPa) = 53.13892 66.96134 60.05013
# Shear Modulus (GPa) = 27.02500 30.66102 28.84301
#
# Velocity S-wave (km/s) = 3.54025 3.77089 3.65739
# Velocity P-wave (km/s) = 6.43081 7.07207 6.75905
#
# Compressibility (1/GPa) = 0.01881860
#
# Stress axis : x y z
#
# Youngs Moduli (GPa) = 45.15124 45.15124 87.99686
#
# Poissons Ratio (x) = 0.26614 0.55112
# Poissons Ratio (y) = 0.26614 0.55112
# Poissons Ratio (z) = 0.28278 0.28278
#
# Static dielectric constant tensor:
#      x y z
#    x 3.901030 0.000000 0.000000 
#    y 0.000000 3.901030 0.000000 
#    z 0.000000 0.000000 4.038040 
# 
# 
# High freq. dielectric constant tensor:
#      x y z
#    x 1.841320 0.000000 0.000000 
#    y 0.000000 1.841320 0.000000 
#    z 0.000000 0.000000 1.851800 
# 
# From -- ./inp_files/5243.got.cif
#   From: 2010.03.12/outbox.cif.g09.slc.cpg/sg86_3_cif.got.tgz:5243.got - 2010.04.08 20:12:58.
