data_PCOD8303997
_publ_section_title
;
Structure prediction by ZEFSAII (Michael W. Deem and Ramdas Pophale) SiO2 
 PCOD8303997
Probable space group: I 4/M
;
_chemical_formula_sum "Si O2"
_cell_formula_units_Z 96
_cell_length_a 14.325300
_cell_length_b 14.325300
_cell_length_c 23.025457
_cell_angle_alpha 90.000000
_cell_angle_beta 90.000000
_cell_angle_gamma 90.000000
_cell_volume 4725.151200
_symmetry_space_group_name_H-M "I 4/M"
_symmetry_group_IT_number 87
_symmetry_cell_setting 'tetragonal'
loop_
_space_group_symop_operation_xyz
x,y,z
-y,x,z
-x,-y,z
y,-x,z
-x,-y,-z
y,-x,-z
x,y,-z
-y,x,-z
1/2+x,1/2+y,1/2+z
1/2-y,1/2+x,1/2+z
1/2-x,1/2-y,1/2+z
1/2+y,1/2-x,1/2+z
1/2-x,1/2-y,1/2-z
1/2+y,1/2-x,1/2-z
1/2+x,1/2+y,1/2-z
1/2-y,1/2+x,1/2-z
loop_
_atom_site_type_symbol
_atom_site_label
_atom_site_fract_x
_atom_site_fract_y
_atom_site_fract_z
Si Si1 0.927639 0.421716 0.565701
Si Si2 0.105635 0.107331 0.432956
Si Si3 0.932223 0.135529 0.738364
Si Si4 0.654316 0.653926 0.639376
Si Si5 0.006530 0.775615 0.934798
Si Si6 0.853280 0.264893 0.644051
O O1 0.954690 0.387777 0.500000
O O2 0.827497 0.467726 0.564133
O O3 0.924838 0.334635 0.610428
O O4 0.000000 0.500000 0.588140
O O5 0.122952 0.126414 0.500000
O O6 0.176570 0.171026 0.397033
O O7 0.999604 0.129366 0.416161
O O8 0.916133 0.153289 0.806223
O O9 0.897768 0.226295 0.703291
O O10 0.041216 0.123739 0.722549
O O11 0.555113 0.657928 0.606646
O O12 0.726154 0.610572 0.592370
O O13 0.685200 0.756600 0.659752
O O14 0.008897 0.816399 0.000000
#
# Coordination Sequence:
#
# PCOD8303997 Si02
#       6
#    16  16  16  16  16  16
#     4   9  20  39  60  86 125 164 197 241 297 360
#     4   9  18  33  53  82 119 151 188 244 299 351
#     4  11  23  41  63  84 114 154 198 247 307 360
#     4  11  22  40  58  83 120 149 192 253 303 358
#     4  10  21  37  62  90 116 152 197 246 305 369
#     4  11  22  35  59  88 116 155 204 246 295 363
#
# _framework density 20.31681
#
# number of rings (size 3 to 8) (size 9 to 14) (size 15 to 20)
#    0.000    1.833    1.667    3.000    0.000    6.333 
#    0.000    4.167    0.000    0.000    0.000    0.000 
#    0.000    0.000    0.000    0.000    0.000    0.000 
#
# Total GULP energy -595070.589209 kJ/mol
# GULP energy per Si atom -12397.303942 kJ/mol
# Density = 2.027057 g / cm^3
# Si number density = 20.316810 Si / 1000 Ang^3
#
#
#
# Elastic Constant Matrix: (Units=GPa)
#
#
# Indices 1 2 3 4 5 6 
#
# 1 64.4841 22.0875 44.7350 0.0000 0.0000 7.2867
# 2 22.0875 64.4841 44.7350 0.0000 0.0000 -7.2867
# 3 44.7350 44.7350 124.5396 0.0000 0.0000 0.0000
# 4 0.0000 0.0000 0.0000 31.5387 0.0000 0.0000
# 5 0.0000 0.0000 0.0000 0.0000 31.5387 0.0000
# 6 7.2867 -7.2867 0.0000 0.0000 0.0000 25.5106
#
#
#
# Elastic Compliance Matrix: (Units=1/GPa)
#
#
# Indices 1 2 3 4 5 6 
#
# 1 0.022263 -0.003892 -0.006599 0.000000 0.000000 -0.007471
# 2 -0.003892 0.022263 -0.006599 0.000000 0.000000 0.007471
# 3 -0.006599 -0.006599 0.012770 0.000000 0.000000 0.000000
# 4 0.000000 0.000000 0.000000 0.031707 0.000000 0.000000
# 5 0.000000 0.000000 0.000000 0.000000 0.031707 0.000000
# 6 -0.007471 0.007471 0.000000 0.000000 0.000000 0.043467
#
#
# Mechanical properties :
#
#
# Convention : Reuss Voigt Hill
#
# Bulk Modulus (GPa) = 43.25899 52.95809 48.10854
# Shear Modulus (GPa) = 24.26446 27.18093 25.72270
#
# Velocity S-wave (km/s) = 3.45962 3.66164 3.56206
# Velocity P-wave (km/s) = 6.10713 6.63321 6.37560
#
# Compressibility (1/GPa) = 0.02311658
#
# Stress axis : x y z
#
# Youngs Moduli (GPa) = 44.91774 44.91774 78.30689
#
# Poissons Ratio (x) = 0.17482 0.51674
# Poissons Ratio (y) = 0.17482 0.51674
# Poissons Ratio (z) = 0.29641 0.29641
#
# Static dielectric constant tensor:
#      x y z
#    x 3.610040 0.000000 0.000000 
#    y 0.000000 3.610040 0.000000 
#    z 0.000000 0.000000 3.775140 
# 
# 
# High freq. dielectric constant tensor:
#      x y z
#    x 1.784090 0.000000 0.000000 
#    y 0.000000 1.784090 0.000000 
#    z 0.000000 0.000000 1.802240 
# 
# From -- ./inp_files/5320.got.cif
#   From: 2010.03.12/outbox.cif.g09.slc.cpg/sg87_3_cif.got.tgz:5320.got - 2010.04.08 20:16:13.
