data_PCOD8303968
_publ_section_title
;
Structure prediction by ZEFSAII (Michael W. Deem and Ramdas Pophale) SiO2 
 PCOD8303968
Probable space group: I 4/M
;
_chemical_formula_sum "Si O2"
_cell_formula_units_Z 84
_cell_length_a 13.692336
_cell_length_b 13.692336
_cell_length_c 22.940389
_cell_angle_alpha 90.000000
_cell_angle_beta 90.000000
_cell_angle_gamma 90.000000
_cell_volume 4300.865624
_symmetry_space_group_name_H-M "I 4/M"
_symmetry_group_IT_number 87
_symmetry_cell_setting 'tetragonal'
loop_
_space_group_symop_operation_xyz
x,y,z
-y,x,z
-x,-y,z
y,-x,z
-x,-y,-z
y,-x,-z
x,y,-z
-y,x,-z
1/2+x,1/2+y,1/2+z
1/2-y,1/2+x,1/2+z
1/2-x,1/2-y,1/2+z
1/2+y,1/2-x,1/2+z
1/2-x,1/2-y,1/2-z
1/2+y,1/2-x,1/2-z
1/2+x,1/2+y,1/2-z
1/2-y,1/2+x,1/2-z
loop_
_atom_site_type_symbol
_atom_site_label
_atom_site_fract_x
_atom_site_fract_y
_atom_site_fract_z
Si Si1 0.500000 0.000000 0.750000
Si Si2 0.625349 0.344521 0.148679
Si Si3 0.069104 0.137988 0.230581
Si Si4 0.035585 0.214797 0.434293
Si Si5 0.583240 0.926368 0.564187
Si Si6 0.873563 0.656974 0.820801
O O1 0.573324 0.065919 0.787815
O O2 0.636073 0.427733 0.198805
O O3 0.531370 0.355508 0.106240
O O4 0.714228 0.361385 0.101613
O O5 0.630942 0.240808 0.181638
O O6 0.114596 0.236581 0.206015
O O7 0.956776 0.130157 0.209127
O O8 0.049426 0.173901 0.500000
O O9 0.991605 0.321144 0.436489
O O10 0.563784 0.880589 0.500000
O O11 0.591411 0.840291 0.611663
O O12 0.500000 0.000000 0.583629
#
# Coordination Sequence:
#
# PCOD8303968 Si02
#       6
#     4  16  16  16  16  16
#     4  12  24  40  58  92 128 148 212 262 308 356
#     4  11  21  38  58  84 121 162 201 247 306 364
#     4  11  23  40  58  85 123 164 202 249 306 368
#     4  10  21  35  57  87 119 157 202 246 300 370
#     4   9  19  38  60  85 118 154 194 253 314 357
#     4  11  24  38  63  90 119 163 207 256 310 369
#
# _framework density 19.530951000000002
#
# number of rings (size 3 to 8) (size 9 to 14) (size 15 to 20)
#    0.000    1.524    2.857    2.286    2.667    2.667 
#    0.000    0.952    0.000    1.143    0.000    1.333 
#    0.000    0.000    0.000    0.000    0.000    0.000 
#
# Total GULP energy -520373.233647 kJ/mol
# GULP energy per Si atom -12389.838896 kJ/mol
# Density = 1.948650 g / cm^3
# Si number density = 19.530951 Si / 1000 Ang^3
#
#
#
# Elastic Constant Matrix: (Units=GPa)
#
#
# Indices 1 2 3 4 5 6 
#
# 1 85.9536 28.9853 44.8394 0.0000 0.0000 -7.9732
# 2 28.9853 85.9536 44.8394 0.0000 0.0000 7.9732
# 3 44.8394 44.8394 106.5010 0.0000 0.0000 0.0000
# 4 0.0000 0.0000 0.0000 21.2406 0.0000 0.0000
# 5 0.0000 0.0000 0.0000 0.0000 21.2406 0.0000
# 6 -7.9732 7.9732 0.0000 0.0000 0.0000 16.4816
#
#
#
# Elastic Compliance Matrix: (Units=1/GPa)
#
#
# Indices 1 2 3 4 5 6 
#
# 1 0.016630 -0.003673 -0.005455 0.000000 0.000000 0.009822
# 2 -0.003673 0.016630 -0.005455 0.000000 0.000000 -0.009822
# 3 -0.005455 -0.005455 0.013983 0.000000 0.000000 0.000000
# 4 0.000000 0.000000 0.000000 0.047080 0.000000 0.000000
# 5 0.000000 0.000000 0.000000 0.000000 0.047080 0.000000
# 6 0.009822 -0.009822 0.000000 0.000000 0.000000 0.070177
#
#
# Mechanical properties :
#
#
# Convention : Reuss Voigt Hill
#
# Bulk Modulus (GPa) = 55.32229 57.30407 56.31318
# Shear Modulus (GPa) = 20.26183 22.44218 21.35200
#
# Velocity S-wave (km/s) = 3.22440 3.39345 3.31000
# Velocity P-wave (km/s) = 6.49994 6.69013 6.59572
#
# Compressibility (1/GPa) = 0.01807590
#
# Stress axis : x y z
#
# Youngs Moduli (GPa) = 60.13359 60.13358 71.51589
#
# Poissons Ratio (x) = 0.22089 0.39012
# Poissons Ratio (y) = 0.22089 0.39012
# Poissons Ratio (z) = 0.32803 0.32803
#
# Static dielectric constant tensor:
#      x y z
#    x 3.539460 0.000000 0.000000 
#    y 0.000000 3.539460 0.000000 
#    z 0.000000 0.000000 4.048740 
# 
# 
# High freq. dielectric constant tensor:
#      x y z
#    x 1.752060 0.000000 0.000000 
#    y 0.000000 1.752060 0.000000 
#    z 0.000000 0.000000 1.772750 
# 
# From -- ./inp_files/5174.got.cif
#   From: 2010.03.12/outbox.cif.g09.slc.cpg/sg87_3_cif.got.tgz:5174.got - 2010.04.08 20:16:13.
