data_PCOD8303827
_publ_section_title
;
Structure prediction by ZEFSAII (Michael W. Deem and Ramdas Pophale) SiO2 
 PCOD8303827
Probable space group: I 4/M
;
_chemical_formula_sum "Si O2"
_cell_formula_units_Z 112
_cell_length_a 15.647783
_cell_length_b 15.647783
_cell_length_c 25.404028
_cell_angle_alpha 90.000000
_cell_angle_beta 90.000000
_cell_angle_gamma 90.000000
_cell_volume 6220.255334
_symmetry_space_group_name_H-M "I 4/M"
_symmetry_group_IT_number 87
_symmetry_cell_setting 'tetragonal'
loop_
_space_group_symop_operation_xyz
x,y,z
-y,x,z
-x,-y,z
y,-x,z
-x,-y,-z
y,-x,-z
x,y,-z
-y,x,-z
1/2+x,1/2+y,1/2+z
1/2-y,1/2+x,1/2+z
1/2-x,1/2-y,1/2+z
1/2+y,1/2-x,1/2+z
1/2-x,1/2-y,1/2-z
1/2+y,1/2-x,1/2-z
1/2+x,1/2+y,1/2-z
1/2-y,1/2+x,1/2-z
loop_
_atom_site_type_symbol
_atom_site_label
_atom_site_fract_x
_atom_site_fract_y
_atom_site_fract_z
Si Si1 0.396650 0.402690 0.219979
Si Si2 0.303924 0.290818 0.868171
Si Si3 0.585570 0.817293 0.060045
Si Si4 0.901924 0.507061 0.604435
Si Si5 0.763494 0.829828 0.213771
Si Si6 0.544654 0.113494 0.275658
Si Si7 0.884081 0.331948 0.560220
O O1 0.496088 0.380638 0.215899
O O2 0.343482 0.355441 0.174388
O O3 0.358800 0.368257 0.276258
O O4 0.381111 0.260876 0.905082
O O5 0.256980 0.205713 0.844410
O O6 0.235755 0.339108 0.902999
O O7 0.484690 0.821086 0.067746
O O8 0.631589 0.904550 0.079511
O O9 0.611412 0.800734 0.000000
O O10 0.888853 0.504049 0.666752
O O11 0.853830 0.426408 0.578469
O O12 0.000000 0.500000 0.588524
O O13 0.750000 0.750000 0.250000
O O14 0.699909 0.904302 0.232775
O O15 0.467725 0.107940 0.233020
O O16 0.856283 0.317473 0.500000
#
# Coordination Sequence:
#
# PCOD8303827 Si02
#       7
#    16  16  16  16  16  16  16
#     4  10  23  40  57  77 108 150 187 228 277 335
#     4  11  21  37  56  84 108 144 187 234 282 326
#     4  10  20  36  57  81 111 145 184 231 284 333
#     4  10  19  34  54  81 111 146 182 220 275 333
#     4  10  24  35  54  82 111 147 186 228 277 333
#     4  11  22  34  56  86 117 152 182 224 283 340
#     4  10  22  36  56  81 112 149 186 233 280 333
#
# _framework density 18.005690999999999
#
# number of rings (size 3 to 8) (size 9 to 14) (size 15 to 20)
#    0.000    1.714    2.857    1.714    8.000    1.714 
#    0.000    0.000    0.000    0.000    0.000    6.000 
#    0.000    0.000    0.000    7.143    0.000    0.000 
#
# Total GULP energy -694171.522143 kJ/mol
# GULP energy per Si atom -12395.920038 kJ/mol
# Density = 1.796471 g / cm^3
# Si number density = 18.005691 Si / 1000 Ang^3
#
#
#
# Elastic Constant Matrix: (Units=GPa)
#
#
# Indices 1 2 3 4 5 6 
#
# 1 87.6027 50.4124 44.3937 0.0000 0.0000 -1.1838
# 2 50.4124 87.6027 44.3936 0.0000 0.0000 1.1838
# 3 44.3937 44.3936 102.8753 0.0000 0.0000 0.0000
# 4 0.0000 0.0000 0.0000 25.6385 0.0000 0.0000
# 5 0.0000 0.0000 0.0000 0.0000 25.6385 0.0000
# 6 -1.1838 1.1838 0.0000 0.0000 0.0000 26.2910
#
#
#
# Elastic Compliance Matrix: (Units=1/GPa)
#
#
# Indices 1 2 3 4 5 6 
#
# 1 0.018498 -0.008468 -0.004328 0.000000 0.000000 0.001214
# 2 -0.008468 0.018498 -0.004328 0.000000 0.000000 -0.001214
# 3 -0.004328 -0.004328 0.013456 0.000000 0.000000 0.000000
# 4 0.000000 0.000000 0.000000 0.039004 0.000000 0.000000
# 5 0.000000 0.000000 0.000000 0.000000 0.039004 0.000000
# 6 0.001214 -0.001214 0.000000 0.000000 0.000000 0.038145
#
#
# Mechanical properties :
#
#
# Convention : Reuss Voigt Hill
#
# Bulk Modulus (GPa) = 61.71664 61.83114 61.77389
# Shear Modulus (GPa) = 24.24184 24.77233 24.50709
#
# Velocity S-wave (km/s) = 3.67324 3.71321 3.69328
# Velocity P-wave (km/s) = 7.23470 7.26624 7.25048
#
# Compressibility (1/GPa) = 0.01620309
#
# Stress axis : x y z
#
# Youngs Moduli (GPa) = 54.05986 54.05986 74.31618
#
# Poissons Ratio (x) = 0.45778 0.32166
# Poissons Ratio (y) = 0.45778 0.32166
# Poissons Ratio (z) = 0.23398 0.23398
#
# Static dielectric constant tensor:
#      x y z
#    x 3.423990 0.000000 0.000000 
#    y 0.000000 3.423990 0.000000 
#    z 0.000000 0.000000 3.489430 
# 
# 
# High freq. dielectric constant tensor:
#      x y z
#    x 1.691170 0.000000 0.000000 
#    y 0.000000 1.691170 0.000000 
#    z 0.000000 0.000000 1.697850 
# 
# From -- ./inp_files/6273.got.cif
#   From: 2010.03.12/outbox.cif.g09.slc.cpg/sg87_4_cif.got.tgz:6273.got - 2010.04.08 20:16:13.
