data_PCOD8303119
_publ_section_title
;
Structure prediction by ZEFSAII (Michael W. Deem and Ramdas Pophale) SiO2 
 PCOD8303119
Probable space group: P 42/M
;
_chemical_formula_sum "Si O2"
_cell_formula_units_Z 56
_cell_length_a 18.702297
_cell_length_b 18.702297
_cell_length_c 9.128407
_cell_angle_alpha 90.000000
_cell_angle_beta 90.000000
_cell_angle_gamma 90.000000
_cell_volume 3192.896893
_symmetry_space_group_name_H-M "P 42/M"
_symmetry_group_IT_number 84
_symmetry_cell_setting 'tetragonal'
loop_
_space_group_symop_operation_xyz
x,y,z
-y,x,1/2+z
-x,-y,z
y,-x,1/2+z
-x,-y,-z
y,-x,1/2-z
x,y,-z
-y,x,1/2-z
loop_
_atom_site_type_symbol
_atom_site_label
_atom_site_fract_x
_atom_site_fract_y
_atom_site_fract_z
Si Si1 0.538339 0.925117 0.334618
Si Si2 0.389530 0.271186 0.839069
Si Si3 0.684541 0.256410 0.172772
Si Si4 0.918019 0.063955 0.674114
Si Si5 0.111659 0.667272 0.339477
Si Si6 0.181672 0.807151 0.671421
Si Si7 0.204464 0.470348 0.672431
O O1 0.547039 0.898251 0.500000
O O2 0.618335 0.934793 0.268887
O O3 0.489172 0.869318 0.250119
O O4 0.500000 0.000000 0.324255
O O5 0.338825 0.311736 0.725000
O O6 0.366344 0.189570 0.850519
O O7 0.472640 0.267795 0.786858
O O8 0.382782 0.307429 0.000000
O O9 0.744808 0.205103 0.241909
O O10 0.607974 0.227621 0.224338
O O11 0.694311 0.255010 0.000000
O O12 0.931062 0.054954 0.500000
O O13 0.850186 0.114823 0.705540
O O14 0.988271 0.098283 0.749379
O O15 0.074876 0.667239 0.500000
O O16 0.121520 0.748564 0.281255
O O17 0.198900 0.796891 0.500000
O O18 0.190156 0.473021 0.500000
#
# Coordination Sequence:
#
# PCOD8303119 Si02
#       7
#     8   8   8   8   8   8   8
#     4  10  20  32  46  69 100 130 163 204 244 286
#     4   8  15  30  50  69  95 130 164 196 240 291
#     4  10  19  31  51  79 104 126 165 213 246 284
#     4  10  20  36  56  75  98 128 165 205 249 301
#     4   8  15  30  50  68  90 127 166 195 233 290
#     4   9  19  35  52  73 101 130 161 202 251 300
#     4   9  19  34  50  71  99 132 166 199 240 296
#
# _framework density 17.538931999999999
#
# number of rings (size 3 to 8) (size 9 to 14) (size 15 to 20)
#    0.000    2.857    0.000    3.429    0.000    8.571 
#    2.571    0.000    0.000    0.429    0.000    3.000 
#    0.000    0.000    0.000    0.000    0.000    0.000 
#
# Total GULP energy -694044.202615 kJ/mol
# GULP energy per Si atom -12393.646475 kJ/mol
# Density = 1.749901 g / cm^3
# Si number density = 17.538932 Si / 1000 Ang^3
#
#
#
# Elastic Constant Matrix: (Units=GPa)
#
#
# Indices 1 2 3 4 5 6 
#
# 1 82.8049 42.5054 42.1499 0.0000 0.0000 2.7097
# 2 42.5054 82.8049 42.1499 0.0000 0.0000 -2.7097
# 3 42.1499 42.1499 76.8974 0.0000 0.0000 0.0000
# 4 0.0000 0.0000 0.0000 5.4178 0.0000 0.0000
# 5 0.0000 0.0000 0.0000 0.0000 5.4178 0.0000
# 6 2.7097 -2.7097 0.0000 0.0000 0.0000 21.4728
#
#
#
# Elastic Compliance Matrix: (Units=1/GPa)
#
#
# Indices 1 2 3 4 5 6 
#
# 1 0.018942 -0.006300 -0.006929 0.000000 0.000000 -0.003185
# 2 -0.006300 0.018942 -0.006929 0.000000 0.000000 0.003185
# 3 -0.006929 -0.006929 0.020601 0.000000 0.000000 0.000000
# 4 0.000000 0.000000 0.000000 0.184577 0.000000 0.000000
# 5 0.000000 0.000000 0.000000 0.000000 0.184577 0.000000
# 6 -0.003185 0.003185 0.000000 0.000000 0.000000 0.047374
#
#
# Mechanical properties :
#
#
# Convention : Reuss Voigt Hill
#
# Bulk Modulus (GPa) = 55.04530 55.12418 55.08474
# Shear Modulus (GPa) = 9.58981 14.17514 11.88248
#
# Velocity S-wave (km/s) = 2.34085 2.84599 2.60569
# Velocity P-wave (km/s) = 6.22566 6.50364 6.36617
#
# Compressibility (1/GPa) = 0.01816686
#
# Stress axis : x y z
#
# Youngs Moduli (GPa) = 52.79222 52.79222 48.54188
#
# Poissons Ratio (x) = 0.33261 0.33636
# Poissons Ratio (y) = 0.33261 0.33636
# Poissons Ratio (z) = 0.36582 0.36582
#
# Static dielectric constant tensor:
#      x y z
#    x 3.396710 0.000000 0.000000 
#    y 0.000000 3.396710 0.000000 
#    z 0.000000 0.000000 3.363890 
# 
# 
# High freq. dielectric constant tensor:
#      x y z
#    x 1.663610 0.000000 0.000000 
#    y 0.000000 1.663610 0.000000 
#    z 0.000000 0.000000 1.682330 
# 
# From -- ./inp_files/1312.got.cif
#   From: 2010.03.12/outbox.cif.g09.slc.cpg/sg84_1_cif.got.tgz:1312.got - 2010.04.08 20:07:29.
