data_PCOD8303887
_publ_section_title
;
Structure prediction by ZEFSAII (Michael W. Deem and Ramdas Pophale) SiO2 
 PCOD8303887
Probable space group: I 4/M
;
_chemical_formula_sum "Si O2"
_cell_formula_units_Z 96
_cell_length_a 23.731610
_cell_length_b 23.731610
_cell_length_c 9.224589
_cell_angle_alpha 90.000000
_cell_angle_beta 90.000000
_cell_angle_gamma 90.000000
_cell_volume 5195.189943
_symmetry_space_group_name_H-M "I 4/M"
_symmetry_group_IT_number 87
_symmetry_cell_setting 'tetragonal'
loop_
_space_group_symop_operation_xyz
x,y,z
-y,x,z
-x,-y,z
y,-x,z
-x,-y,-z
y,-x,-z
x,y,-z
-y,x,-z
1/2+x,1/2+y,1/2+z
1/2-y,1/2+x,1/2+z
1/2-x,1/2-y,1/2+z
1/2+y,1/2-x,1/2+z
1/2-x,1/2-y,1/2-z
1/2+y,1/2-x,1/2-z
1/2+x,1/2+y,1/2-z
1/2-y,1/2+x,1/2-z
loop_
_atom_site_type_symbol
_atom_site_label
_atom_site_fract_x
_atom_site_fract_y
_atom_site_fract_z
Si Si1 0.635236 0.772572 0.667148
Si Si2 0.848917 0.448851 0.833599
Si Si3 0.639565 0.940749 0.161682
Si Si4 0.224216 0.339828 0.333100
Si Si5 0.060253 0.932080 0.670587
Si Si6 0.355447 0.649694 0.666508
O O1 0.639087 0.790505 0.500000
O O2 0.581953 0.801860 0.739802
O O3 0.694128 0.790359 0.742079
O O4 0.623494 0.706421 0.684549
O O5 0.909413 0.419622 0.814072
O O6 0.854532 0.512584 0.783445
O O7 0.829323 0.446706 0.000000
O O8 0.689731 0.897011 0.183056
O O9 0.641945 0.967194 0.000000
O O10 0.226972 0.319375 0.500000
O O11 0.286461 0.352711 0.272990
O O12 0.067021 0.924675 0.500000
O O13 0.099477 0.886379 0.746213
O O14 0.995302 0.921582 0.716628
O O15 0.374972 0.649870 0.500000
#
# Coordination Sequence:
#
# PCOD8303887 Si02
#       6
#    16  16  16  16  16  16
#     4  10  20  34  53  78 108 140 174 215 261 308
#     4  10  21  36  54  76 104 139 176 217 264 311
#     4   9  19  35  53  74 103 138 174 217 263 305
#     4   9  19  36  54  76 109 142 173 214 261 307
#     4   9  20  39  58  77 105 138 173 217 264 308
#     4  10  21  35  55  83 109 137 175 215 257 310
#
# _framework density 18.478631
#
# number of rings (size 3 to 8) (size 9 to 14) (size 15 to 20)
#    0.000    2.500    0.000    3.000    0.000    7.667 
#    0.000    7.500    0.000    0.000    0.000    0.000 
#    0.000    0.000    0.000    0.000    0.000    0.000 
#
# Total GULP energy -595242.377004 kJ/mol
# GULP energy per Si atom -12400.882854 kJ/mol
# Density = 1.843657 g / cm^3
# Si number density = 18.478631 Si / 1000 Ang^3
#
#
#
# Elastic Constant Matrix: (Units=GPa)
#
#
# Indices 1 2 3 4 5 6 
#
# 1 65.1174 20.2267 31.2402 0.0000 0.0000 -1.4475
# 2 20.2267 65.1174 31.2402 0.0000 0.0000 1.4475
# 3 31.2402 31.2402 78.1301 0.0000 0.0000 0.0000
# 4 0.0000 0.0000 0.0000 33.8043 0.0000 0.0000
# 5 0.0000 0.0000 0.0000 0.0000 33.8043 0.0000
# 6 -1.4475 1.4475 0.0000 0.0000 0.0000 21.3346
#
#
#
# Elastic Compliance Matrix: (Units=1/GPa)
#
#
# Indices 1 2 3 4 5 6 
#
# 1 0.019471 -0.002904 -0.006624 0.000000 0.000000 0.001518
# 2 -0.002904 0.019471 -0.006624 0.000000 0.000000 -0.001518
# 3 -0.006624 -0.006624 0.018097 0.000000 0.000000 0.000000
# 4 0.000000 0.000000 0.000000 0.029582 0.000000 0.000000
# 5 0.000000 0.000000 0.000000 0.000000 0.029582 0.000000
# 6 0.001518 -0.001518 0.000000 0.000000 0.000000 0.047078
#
#
# Mechanical properties :
#
#
# Convention : Reuss Voigt Hill
#
# Bulk Modulus (GPa) = 40.43128 41.53104 40.98116
# Shear Modulus (GPa) = 24.53041 26.16582 25.34811
#
# Velocity S-wave (km/s) = 3.64744 3.76707 3.70774
# Velocity P-wave (km/s) = 6.29809 6.43778 6.36832
#
# Compressibility (1/GPa) = 0.02473332
#
# Stress axis : x y z
#
# Youngs Moduli (GPa) = 51.35962 51.35962 55.25919
#
# Poissons Ratio (x) = 0.14913 0.36605
# Poissons Ratio (y) = 0.14913 0.36605
# Poissons Ratio (z) = 0.34022 0.34022
#
# Static dielectric constant tensor:
#      x y z
#    x 3.361580 0.000000 0.000000 
#    y 0.000000 3.361580 0.000000 
#    z 0.000000 0.000000 3.408190 
# 
# 
# High freq. dielectric constant tensor:
#      x y z
#    x 1.717260 0.000000 0.000000 
#    y 0.000000 1.717260 0.000000 
#    z 0.000000 0.000000 1.718390 
# 
# From -- ./inp_files/1409.got.cif
#   From: 2010.03.12/outbox.cif.g09.slc.cpg/sg87_1_cif.got.tgz:1409.got - 2010.04.08 20:16:13.
