data_PCOD8303566
_publ_section_title
;
Structure prediction by ZEFSAII (Michael W. Deem and Ramdas Pophale) SiO2 
 PCOD8303566
Probable space group: P 42/N
;
_chemical_formula_sum "Si O2"
_cell_formula_units_Z 52
_cell_length_a 15.996515
_cell_length_b 15.996515
_cell_length_c 9.397665
_cell_angle_alpha 90.000000
_cell_angle_beta 90.000000
_cell_angle_gamma 90.000000
_cell_volume 2404.754327
_symmetry_space_group_name_H-M "P 42/N"
_symmetry_group_IT_number 86
_space_group.IT_coordinate_system_code '2'
_symmetry_cell_setting 'tetragonal'
loop_
_space_group_symop_operation_xyz
x,y,z
-y,1/2+x,1/2+z
1/2-x,1/2-y,z
1/2+y,-x,1/2+z
-x,-y,-z
y,1/2-x,1/2-z
1/2+x,1/2+y,-z
1/2-y,x,1/2-z
loop_
_atom_site_type_symbol
_atom_site_label
_atom_site_fract_x
_atom_site_fract_y
_atom_site_fract_z
Si Si1 0.171137 0.580310 0.242056
Si Si2 0.750000 0.250000 0.176961
Si Si3 0.224953 0.117371 0.729266
Si Si4 0.590618 0.055681 0.350524
Si Si5 0.513689 0.249555 0.996167
Si Si6 0.386956 0.499348 0.897500
Si Si7 0.861356 0.386116 0.049573
O O1 0.219685 0.669522 0.234310
O O2 0.223057 0.512802 0.336417
O O3 0.079209 0.589418 0.305206
O O4 0.166316 0.549785 0.076817
O O5 0.781169 0.329015 0.084733
O O6 0.155108 0.188678 0.712635
O O7 0.198037 0.044317 0.840962
O O8 0.239154 0.078321 0.571897
O O9 0.682910 0.069882 0.412255
O O10 0.526596 0.118086 0.434757
O O11 0.595246 0.069192 0.182656
O O12 0.568130 0.960018 0.381157
O O13 0.563750 0.164695 0.975846
#
# Coordination Sequence:
#
# PCOD8303566 Si02
#       7
#     8   4   8   8   8   8   8
#     4  10  21  36  61  88 134 164 201 265 319 379
#     4  10  22  36  56  96 134 168 208 246 314 392
#     4  11  22  40  69  93 117 168 228 275 316 381
#     4  10  22  40  66  92 127 166 213 262 318 378
#     4  10  21  40  56  93 131 161 209 268 312 386
#     4  10  21  41  65  91 121 163 214 268 314 374
#     4  11  21  36  61  94 129 171 208 247 324 394
#
# _framework density 21.623830000000002
#
# number of rings (size 3 to 8) (size 9 to 14) (size 15 to 20)
#    0.000    1.692    3.077    1.385    0.000    6.769 
#    0.000    0.000    6.769    0.000    0.000    2.154 
#    0.000    0.000    0.000    0.000    0.000    0.000 
#
# Total GULP energy -644376.600845 kJ/mol
# GULP energy per Si atom -12391.857709 kJ/mol
# Density = 2.157461 g / cm^3
# Si number density = 21.623830 Si / 1000 Ang^3
#
#
#
# Elastic Constant Matrix: (Units=GPa)
#
#
# Indices 1 2 3 4 5 6 
#
# 1 63.4091 21.4360 48.7081 0.0000 0.0000 1.1449
# 2 21.4360 63.4091 48.7081 0.0000 0.0000 -1.1449
# 3 48.7081 48.7081 195.0407 0.0000 0.0000 0.0000
# 4 0.0000 0.0000 0.0000 23.1379 0.0000 0.0000
# 5 0.0000 0.0000 0.0000 0.0000 23.1379 0.0000
# 6 1.1449 -1.1449 0.0000 0.0000 0.0000 31.4418
#
#
#
# Elastic Compliance Matrix: (Units=1/GPa)
#
#
# Indices 1 2 3 4 5 6 
#
# 1 0.020198 -0.003674 -0.004127 0.000000 0.000000 -0.000869
# 2 -0.003674 0.020198 -0.004127 0.000000 0.000000 0.000869
# 3 -0.004127 -0.004127 0.007188 0.000000 0.000000 0.000000
# 4 0.000000 0.000000 0.000000 0.043219 0.000000 0.000000
# 5 0.000000 0.000000 0.000000 0.000000 0.043219 0.000000
# 6 -0.000869 0.000869 0.000000 0.000000 0.000000 0.031868
#
#
# Mechanical properties :
#
#
# Convention : Reuss Voigt Hill
#
# Bulk Modulus (GPa) = 42.14044 62.17371 52.15707
# Shear Modulus (GPa) = 25.29650 29.07728 27.18689
#
# Velocity S-wave (km/s) = 3.42401 3.67098 3.54964
# Velocity P-wave (km/s) = 5.92976 6.83980 6.40097
#
# Compressibility (1/GPa) = 0.02373018
#
# Stress axis : x y z
#
# Youngs Moduli (GPa) = 49.50930 49.50930 139.11565
#
# Poissons Ratio (x) = 0.18189 0.57408
# Poissons Ratio (y) = 0.18189 0.57408
# Poissons Ratio (z) = 0.20431 0.20431
#
# Static dielectric constant tensor:
#      x y z
#    x 3.891390 0.000000 0.000000 
#    y 0.000000 3.891390 0.000000 
#    z 0.000000 0.000000 4.077010 
# 
# 
# High freq. dielectric constant tensor:
#      x y z
#    x 1.835400 0.000000 0.000000 
#    y 0.000000 1.835400 0.000000 
#    z 0.000000 0.000000 1.849050 
# 
# From -- ./inp_files/1393.got.cif
#   From: 2010.03.12/outbox.cif.g09.slc.cpg/sg86_1_cif.got.tgz:1393.got - 2010.04.08 20:12:58.
