data_PCOD8303694
_publ_section_title
;
Structure prediction by ZEFSAII (Michael W. Deem and Ramdas Pophale) SiO2 
 PCOD8303694
Probable space group: P 42/N
;
_chemical_formula_sum "Si O2"
_cell_formula_units_Z 36
_cell_length_a 12.538509
_cell_length_b 12.538509
_cell_length_c 9.756462
_cell_angle_alpha 90.000000
_cell_angle_beta 90.000000
_cell_angle_gamma 90.000000
_cell_volume 1533.854446
_symmetry_space_group_name_H-M "P 42/N"
_symmetry_group_IT_number 86
_space_group.IT_coordinate_system_code '2'
_symmetry_cell_setting 'tetragonal'
loop_
_space_group_symop_operation_xyz
x,y,z
-y,1/2+x,1/2+z
1/2-x,1/2-y,z
1/2+y,-x,1/2+z
-x,-y,-z
y,1/2-x,1/2-z
1/2+x,1/2+y,-z
1/2-y,x,1/2-z
loop_
_atom_site_type_symbol
_atom_site_label
_atom_site_fract_x
_atom_site_fract_y
_atom_site_fract_z
Si Si1 0.288161 0.028081 0.146370
Si Si2 0.250000 0.250000 0.250000
Si Si3 0.157659 0.837957 0.850967
Si Si4 0.567499 0.070572 0.399134
Si Si5 0.024652 0.193436 0.655588
Si Si6 0.750000 0.750000 0.250000
O O1 0.332193 0.949479 0.262107
O O2 0.161407 0.011899 0.150788
O O3 0.307422 0.154448 0.166652
O O4 0.342739 0.997285 0.000145
O O5 0.250000 0.750000 0.821823
O O6 0.203626 0.953234 0.811021
O O7 0.122713 0.834577 0.012120
O O8 0.500000 0.000000 0.500000
O O9 0.604161 0.002788 0.267720
O O10 0.148478 0.225880 0.655311
#
# Coordination Sequence:
#
# PCOD8303694 Si02
#       6
#     8   2   8   8   8   2
#     4  11  25  45  73 106 142 193 244 305 370 434
#     4  12  26  48  72 106 154 196 252 306 374 452
#     4  11  24  44  74 109 143 186 245 310 367 437
#     4  11  24  45  72 106 149 192 240 305 372 437
#     4  11  25  44  75 101 147 188 246 302 366 443
#     4  12  26  48  64 106 142 196 240 302 366 436
#
# _framework density 23.470282000000001
#
# number of rings (size 3 to 8) (size 9 to 14) (size 15 to 20)
#    0.000    0.889    2.222    4.667    6.222    1.778 
#    0.000    7.778    0.000    0.000    0.000    0.000 
#    0.000    0.000    0.000    0.000    0.000    0.000 
#
# Total GULP energy -446159.395705 kJ/mol
# GULP energy per Si atom -12393.316547 kJ/mol
# Density = 2.341686 g / cm^3
# Si number density = 23.470282 Si / 1000 Ang^3
#
#
#
# Elastic Constant Matrix: (Units=GPa)
#
#
# Indices 1 2 3 4 5 6 
#
# 1 104.3464 9.2365 52.6330 0.0000 0.0000 -2.1426
# 2 9.2365 104.3464 52.6330 0.0000 0.0000 2.1426
# 3 52.6330 52.6330 137.4757 0.0000 0.0000 0.0000
# 4 0.0000 0.0000 0.0000 32.3022 0.0000 0.0000
# 5 0.0000 0.0000 0.0000 0.0000 32.3022 0.0000
# 6 -2.1426 2.1426 0.0000 0.0000 0.0000 36.2070
#
#
#
# Elastic Compliance Matrix: (Units=1/GPa)
#
#
# Indices 1 2 3 4 5 6 
#
# 1 0.012094 0.001552 -0.005224 0.000000 0.000000 0.000624
# 2 0.001552 0.012094 -0.005224 0.000000 0.000000 -0.000624
# 3 -0.005224 -0.005224 0.011274 0.000000 0.000000 0.000000
# 4 0.000000 0.000000 0.000000 0.030958 0.000000 0.000000
# 5 0.000000 0.000000 0.000000 0.000000 0.030958 0.000000
# 6 0.000624 -0.000624 0.000000 0.000000 0.000000 0.027693
#
#
# Mechanical properties :
#
#
# Convention : Reuss Voigt Hill
#
# Bulk Modulus (GPa) = 56.59714 63.90816 60.25265
# Shear Modulus (GPa) = 33.61246 35.60666 34.60956
#
# Velocity S-wave (km/s) = 3.78845 3.89922 3.84423
# Velocity P-wave (km/s) = 6.58052 6.89640 6.74031
#
# Compressibility (1/GPa) = 0.01766874
#
# Stress axis : x y z
#
# Youngs Moduli (GPa) = 82.68466 82.68466 88.69666
#
# Poissons Ratio (x) = -0.12832 0.46339
# Poissons Ratio (y) = -0.12832 0.46339
# Poissons Ratio (z) = 0.43198 0.43198
#
# Static dielectric constant tensor:
#      x y z
#    x 4.176970 0.000000 0.000000 
#    y 0.000000 4.176970 0.000000 
#    z 0.000000 0.000000 4.619960 
# 
# 
# High freq. dielectric constant tensor:
#      x y z
#    x 1.930770 0.000000 0.000000 
#    y 0.000000 1.930770 0.000000 
#    z 0.000000 0.000000 1.933120 
# 
# From -- ./inp_files/2094.got.cif
#   From: 2010.03.12/outbox.cif.g09.slc.cpg/sg86_2_cif.got.tgz:2094.got - 2010.04.08 20:12:58.
