data_PCOD8303068
_publ_section_title
;
Structure prediction by ZEFSAII (Michael W. Deem and Ramdas Pophale) SiO2 
 PCOD8303068
Probable space group: P 42/M
;
_chemical_formula_sum "Si O2"
_cell_formula_units_Z 64
_cell_length_a 18.651295
_cell_length_b 18.651295
_cell_length_c 12.227714
_cell_angle_alpha 90.000000
_cell_angle_beta 90.000000
_cell_angle_gamma 90.000000
_cell_volume 4253.664715
_symmetry_space_group_name_H-M "P 42/M"
_symmetry_group_IT_number 84
_symmetry_cell_setting 'tetragonal'
loop_
_space_group_symop_operation_xyz
x,y,z
-y,x,1/2+z
-x,-y,z
y,-x,1/2+z
-x,-y,-z
y,-x,1/2-z
x,y,-z
-y,x,1/2-z
loop_
_atom_site_type_symbol
_atom_site_label
_atom_site_fract_x
_atom_site_fract_y
_atom_site_fract_z
Si Si1 0.078053 0.361840 0.624301
Si Si2 0.078720 0.501125 0.244165
Si Si3 0.224225 0.668578 0.735525
Si Si4 0.213613 0.532606 0.875332
Si Si5 0.311158 0.442617 0.724433
Si Si6 0.357384 0.080964 0.126734
Si Si7 0.407639 0.348220 0.874539
Si Si8 0.768950 0.689914 0.375604
O O1 0.072138 0.390362 0.500000
O O2 0.099115 0.426327 0.702690
O O3 0.144415 0.307616 0.636675
O O4 0.999634 0.327944 0.655358
O O5 0.129751 0.517695 0.142654
O O6 0.085060 0.559192 0.341221
O O7 0.000000 0.500000 0.192773
O O8 0.231305 0.611352 0.832715
O O9 0.143217 0.683548 0.694167
O O10 0.274217 0.637739 0.638033
O O11 0.251895 0.742538 0.787378
O O12 0.257477 0.471241 0.815427
O O13 0.235056 0.528619 0.000000
O O14 0.377672 0.406079 0.787782
O O15 0.338278 0.507840 0.648957
O O16 0.267899 0.386730 0.649023
O O17 0.348046 0.098504 0.000000
O O18 0.399009 0.374176 0.000000
O O19 0.748816 0.710832 0.500000
#
# Coordination Sequence:
#
# PCOD8303068 Si02
#       8
#     8   8   8   8   8   8   8   8
#     4   9  16  26  44  67  90 112 139 179 220 254
#     4   9  16  26  40  62  88 113 143 178 214 254
#     4   9  19  30  44  65  87 115 145 176 213 260
#     4  10  18  29  42  57  82 115 149 182 214 256
#     4  10  20  33  46  64  82 107 145 187 229 263
#     4   9  16  27  44  67  90 113 141 177 218 255
#     4  10  20  34  49  63  81 109 143 183 228 271
#     4  10  18  30  47  66  88 114 143 177 217 259
#
# _framework density 15.045851000000001
#
# number of rings (size 3 to 8) (size 9 to 14) (size 15 to 20)
#    0.000    2.500    1.250    1.875    0.000    2.000 
#    0.000    2.500    0.000    0.000    0.000    0.000 
#    0.000    0.500    0.000    4.500    0.000    0.000 
#
# Total GULP energy -793230.618834 kJ/mol
# GULP energy per Si atom -12394.228419 kJ/mol
# Density = 1.501161 g / cm^3
# Si number density = 15.045851 Si / 1000 Ang^3
#
#
#
# Elastic Constant Matrix: (Units=GPa)
#
#
# Indices 1 2 3 4 5 6 
#
# 1 74.2097 27.1962 21.3700 0.0000 0.0000 -0.0538
# 2 27.1962 74.2097 21.3700 0.0000 0.0000 0.0538
# 3 21.3700 21.3700 65.6950 0.0000 0.0000 0.0000
# 4 0.0000 0.0000 0.0000 15.2262 0.0000 0.0000
# 5 0.0000 0.0000 0.0000 0.0000 15.2262 0.0000
# 6 -0.0538 0.0538 0.0000 0.0000 0.0000 13.6163
#
#
#
# Elastic Compliance Matrix: (Units=1/GPa)
#
#
# Indices 1 2 3 4 5 6 
#
# 1 0.016349 -0.004921 -0.003717 0.000000 0.000000 0.000084
# 2 -0.004921 0.016349 -0.003717 0.000000 0.000000 -0.000084
# 3 -0.003717 -0.003717 0.017640 0.000000 0.000000 0.000000
# 4 0.000000 0.000000 0.000000 0.065676 0.000000 0.000000
# 5 0.000000 0.000000 0.000000 0.000000 0.065676 0.000000
# 6 0.000084 -0.000084 0.000000 0.000000 0.000000 0.073442
#
#
# Mechanical properties :
#
#
# Convention : Reuss Voigt Hill
#
# Bulk Modulus (GPa) = 39.02162 39.33186 39.17674
# Shear Modulus (GPa) = 17.33774 18.42564 17.88169
#
# Velocity S-wave (km/s) = 3.39828 3.50327 3.45117
# Velocity P-wave (km/s) = 6.43344 6.52395 6.47885
#
# Compressibility (1/GPa) = 0.02562682
#
# Stress axis : x y z
#
# Youngs Moduli (GPa) = 61.16425 61.16425 56.68814
#
# Poissons Ratio (x) = 0.30100 0.21074
# Poissons Ratio (y) = 0.30100 0.21074
# Poissons Ratio (z) = 0.22738 0.22738
#
# Static dielectric constant tensor:
#      x y z
#    x 2.889760 0.000000 0.000000 
#    y 0.000000 2.889760 0.000000 
#    z 0.000000 0.000000 2.766690 
# 
# 
# High freq. dielectric constant tensor:
#      x y z
#    x 1.559340 0.000000 0.000000 
#    y 0.000000 1.559340 0.000000 
#    z 0.000000 0.000000 1.573640 
# 
# From -- ./inp_files/2363.got.cif
#   From: 2010.03.12/outbox.cif.g09.slc.cpg/sg84_2_cif.got.tgz:2363.got - 2010.04.08 20:07:29.
