data_PCOD8303116
_publ_section_title
;
Structure prediction by ZEFSAII (Michael W. Deem and Ramdas Pophale) SiO2 
 PCOD8303116
Probable space group: P 42/M
;
_chemical_formula_sum "Si O2"
_cell_formula_units_Z 40
_cell_length_a 14.220537
_cell_length_b 14.220537
_cell_length_c 8.718848
_cell_angle_alpha 90.000000
_cell_angle_beta 90.000000
_cell_angle_gamma 90.000000
_cell_volume 1763.157463
_symmetry_space_group_name_H-M "P 42/M"
_symmetry_group_IT_number 84
_symmetry_cell_setting 'tetragonal'
loop_
_space_group_symop_operation_xyz
x,y,z
-y,x,1/2+z
-x,-y,z
y,-x,1/2+z
-x,-y,-z
y,-x,1/2-z
x,y,-z
-y,x,1/2-z
loop_
_atom_site_type_symbol
_atom_site_label
_atom_site_fract_x
_atom_site_fract_y
_atom_site_fract_z
Si Si1 0.994802 0.607144 0.181656
Si Si2 0.644171 0.214576 0.680302
Si Si3 0.088123 0.093590 0.667658
Si Si4 0.637938 0.524601 0.319143
Si Si5 0.284818 0.177542 0.672781
O O1 0.895116 0.653498 0.234260
O O2 0.000000 0.500000 0.240328
O O3 0.086878 0.662417 0.247139
O O4 0.002346 0.612682 0.000000
O O5 0.626331 0.218287 0.500000
O O6 0.552680 0.256760 0.766498
O O7 0.730216 0.285794 0.720811
O O8 0.041047 0.090229 0.500000
O O9 0.174024 0.162776 0.666724
O O10 0.010886 0.126049 0.790552
O O11 0.609296 0.432066 0.225744
O O12 0.633846 0.505090 0.500000
O O13 0.322475 0.199062 0.500000
#
# Coordination Sequence:
#
# PCOD8303116 Si02
#       5
#     8   8   8   8   8
#     4   9  20  39  62  88 121 167 219 263 319 393
#     4  11  23  39  64  97 129 169 218 269 331 395
#     4  10  19  31  50  77 108 145 192 246 310 373
#     4  11  23  42  67  97 132 168 214 268 326 388
#     4  10  21  37  58  84 116 161 211 260 314 379
#
# _framework density 22.686572000000002
#
# number of rings (size 3 to 8) (size 9 to 14) (size 15 to 20)
#    0.000    1.800    0.000    5.400    2.800    3.200 
#    0.000    2.000    0.000    3.000    0.000    0.000 
#    0.000    0.000    0.000    0.000    0.000    0.000 
#
# Total GULP energy -495669.832763 kJ/mol
# GULP energy per Si atom -12391.745819 kJ/mol
# Density = 2.263494 g / cm^3
# Si number density = 22.686572 Si / 1000 Ang^3
#
#
#
# Elastic Constant Matrix: (Units=GPa)
#
#
# Indices 1 2 3 4 5 6 
#
# 1 70.4458 23.1498 6.0118 0.0000 0.0000 8.8165
# 2 23.1498 70.4458 6.0118 0.0000 0.0000 -8.8165
# 3 6.0118 6.0118 70.8118 0.0000 0.0000 0.0000
# 4 0.0000 0.0000 0.0000 27.4446 0.0000 0.0000
# 5 0.0000 0.0000 0.0000 0.0000 27.4446 0.0000
# 6 8.8165 -8.8165 0.0000 0.0000 0.0000 45.8897
#
#
#
# Elastic Compliance Matrix: (Units=1/GPa)
#
#
# Indices 1 2 3 4 5 6 
#
# 1 0.016788 -0.005986 -0.000917 0.000000 0.000000 -0.004376
# 2 -0.005986 0.016788 -0.000917 0.000000 0.000000 0.004376
# 3 -0.000917 -0.000917 0.014278 0.000000 0.000000 0.000000
# 4 0.000000 0.000000 0.000000 0.036437 0.000000 0.000000
# 5 0.000000 0.000000 0.000000 0.000000 0.036437 0.000000
# 6 -0.004376 0.004376 0.000000 0.000000 0.000000 0.023473
#
#
# Mechanical properties :
#
#
# Convention : Reuss Voigt Hill
#
# Bulk Modulus (GPa) = 31.04287 31.33890 31.19088
# Shear Modulus (GPa) = 29.31174 31.92444 30.61809
#
# Velocity S-wave (km/s) = 3.59838 3.75533 3.67769
# Velocity P-wave (km/s) = 5.56575 5.71377 5.64024
#
# Compressibility (1/GPa) = 0.03221351
#
# Stress axis : x y z
#
# Youngs Moduli (GPa) = 59.56481 59.56481 70.03950
#
# Poissons Ratio (x) = 0.35658 0.06423
# Poissons Ratio (y) = 0.35658 0.06423
# Poissons Ratio (z) = 0.05463 0.05463
#
# Static dielectric constant tensor:
#      x y z
#    x 4.183310 0.000000 0.000000 
#    y 0.000000 4.183310 0.000000 
#    z 0.000000 0.000000 3.909540 
# 
# 
# High freq. dielectric constant tensor:
#      x y z
#    x 1.898740 0.000000 0.000000 
#    y 0.000000 1.898740 0.000000 
#    z 0.000000 0.000000 1.864430 
# 
# From -- ./inp_files/769.got.cif
#   From: 2010.03.12/outbox.cif.g09.slc.cpg/sg84_1_cif.got.tgz:769.got - 2010.04.08 20:07:29.
