data_PCOD8303545
_publ_section_title
;
Structure prediction by ZEFSAII (Michael W. Deem and Ramdas Pophale) SiO2 
 PCOD8303545
Probable space group: P 42/N
;
_chemical_formula_sum "Si O2"
_cell_formula_units_Z 32
_cell_length_a 8.453924
_cell_length_b 8.453924
_cell_length_c 19.352792
_cell_angle_alpha 90.000000
_cell_angle_beta 90.000000
_cell_angle_gamma 90.000000
_cell_volume 1383.121421
_symmetry_space_group_name_H-M "P 42/N"
_symmetry_group_IT_number 86
_space_group.IT_coordinate_system_code '2'
_symmetry_cell_setting 'tetragonal'
loop_
_space_group_symop_operation_xyz
x,y,z
-y,1/2+x,1/2+z
1/2-x,1/2-y,z
1/2+y,-x,1/2+z
-x,-y,-z
y,1/2-x,1/2-z
1/2+x,1/2+y,-z
1/2-y,x,1/2-z
loop_
_atom_site_type_symbol
_atom_site_label
_atom_site_fract_x
_atom_site_fract_y
_atom_site_fract_z
Si Si1 0.562917 0.742093 0.478965
Si Si2 0.968650 0.605260 0.246955
Si Si3 0.848819 0.408127 0.619661
Si Si4 0.058765 0.465758 0.106066
O O1 0.750000 0.750000 0.477744
O O2 0.466835 0.891295 0.446662
O O3 0.494698 0.708615 0.556383
O O4 0.530023 0.599344 0.427621
O O5 0.794016 0.533069 0.246029
O O6 0.052294 0.537285 0.314338
O O7 0.071477 0.547058 0.181117
O O8 0.750000 0.250000 0.635248
O O9 0.726110 0.550330 0.606884
#
# Coordination Sequence:
#
# PCOD8303545 Si02
#       4
#     8   8   8   8
#     4  10  20  40  63  90 125 167 213 266 325 385
#     4  11  20  37  68  92 121 172 227 264 321 397
#     4  10  20  39  61  90 130 161 212 276 321 381
#     4  10  22  39  62  93 126 166 212 272 328 386
#
# _framework density 23.136074000000001
#
# number of rings (size 3 to 8) (size 9 to 14) (size 15 to 20)
#    0.000    1.750    5.000    1.500    0.000    1.000 
#    4.500   11.250    0.000    0.000    0.000    0.000 
#    0.000    0.000    0.000    0.000    0.000    0.000 
#
# Total GULP energy -396644.833850 kJ/mol
# GULP energy per Si atom -12395.151058 kJ/mol
# Density = 2.308341 g / cm^3
# Si number density = 23.136074 Si / 1000 Ang^3
#
#
#
# Elastic Constant Matrix: (Units=GPa)
#
#
# Indices 1 2 3 4 5 6 
#
# 1 48.0585 19.6356 53.8171 0.0000 0.0000 4.7127
# 2 19.6356 48.0585 53.8171 0.0000 0.0000 -4.7127
# 3 53.8171 53.8171 213.7328 0.0000 0.0000 0.0000
# 4 0.0000 0.0000 0.0000 17.1607 0.0000 0.0000
# 5 0.0000 0.0000 0.0000 0.0000 17.1607 0.0000
# 6 4.7127 -4.7127 0.0000 0.0000 0.0000 11.2364
#
#
#
# Elastic Compliance Matrix: (Units=1/GPa)
#
#
# Indices 1 2 3 4 5 6 
#
# 1 0.032751 -0.008116 -0.006203 0.000000 0.000000 -0.017140
# 2 -0.008116 0.032751 -0.006203 0.000000 0.000000 0.017140
# 3 -0.006203 -0.006203 0.007803 0.000000 0.000000 0.000000
# 4 0.000000 0.000000 0.000000 0.058273 0.000000 0.000000
# 5 0.000000 0.000000 0.000000 0.000000 0.058273 0.000000
# 6 -0.017140 0.017140 0.000000 0.000000 0.000000 0.103373
#
#
# Mechanical properties :
#
#
# Convention : Reuss Voigt Hill
#
# Bulk Modulus (GPa) = 30.99733 62.70995 46.85364
# Shear Modulus (GPa) = 14.49191 21.28359 17.88775
#
# Velocity S-wave (km/s) = 2.50547 3.03633 2.78358
# Velocity P-wave (km/s) = 4.66870 6.28140 5.53411
#
# Compressibility (1/GPa) = 0.03226085
#
# Stress axis : x y z
#
# Youngs Moduli (GPa) = 30.53350 30.53350 128.16302
#
# Poissons Ratio (x) = 0.24780 0.79501
# Poissons Ratio (y) = 0.24780 0.79501
# Poissons Ratio (z) = 0.18940 0.18940
#
# Static dielectric constant tensor:
#      x y z
#    x 4.166390 0.000000 0.000000 
#    y 0.000000 4.166390 0.000000 
#    z 0.000000 0.000000 4.581420 
# 
# 
# High freq. dielectric constant tensor:
#      x y z
#    x 1.901170 0.000000 0.000000 
#    y 0.000000 1.901170 0.000000 
#    z 0.000000 0.000000 1.928730 
# 
# From -- ./inp_files/3849.got.cif
#   From: 2010.03.12/outbox.cif.g09.slc.cpg/sg86_2_cif.got.tgz:3849.got - 2010.04.08 20:12:58.
