data_PCOD8303305
_publ_section_title
;
Structure prediction by ZEFSAII (Michael W. Deem and Ramdas Pophale) SiO2 
 PCOD8303305
Probable space group: P 42/M
;
_chemical_formula_sum "Si O2"
_cell_formula_units_Z 40
_cell_length_a 14.624439
_cell_length_b 14.624439
_cell_length_c 9.667446
_cell_angle_alpha 90.000000
_cell_angle_beta 90.000000
_cell_angle_gamma 90.000000
_cell_volume 2067.617435
_symmetry_space_group_name_H-M "P 42/M"
_symmetry_group_IT_number 84
_symmetry_cell_setting 'tetragonal'
loop_
_space_group_symop_operation_xyz
x,y,z
-y,x,1/2+z
-x,-y,z
y,-x,1/2+z
-x,-y,-z
y,-x,1/2-z
x,y,-z
-y,x,1/2-z
loop_
_atom_site_type_symbol
_atom_site_label
_atom_site_fract_x
_atom_site_fract_y
_atom_site_fract_z
Si Si1 0.871411 0.249681 0.749829
Si Si2 0.094033 0.552167 0.655761
Si Si3 0.934819 0.133575 0.500000
Si Si4 0.248036 0.479310 0.841830
Si Si5 0.132003 0.070245 0.500000
Si Si6 0.321061 0.679965 0.842524
O O1 0.919466 0.346384 0.716985
O O2 0.885044 0.180215 0.626780
O O3 0.764959 0.263994 0.784091
O O4 0.921317 0.200311 0.873808
O O5 0.136352 0.559010 0.500000
O O6 0.154809 0.492096 0.758214
O O7 0.000000 0.500000 0.647834
O O8 0.046581 0.142904 0.500000
O O9 0.912375 0.028078 0.500000
O O10 0.304270 0.572446 0.842043
O O11 0.306258 0.404046 0.761834
O O12 0.227533 0.448556 0.000000
O O13 0.342382 0.712805 0.000000
#
# Coordination Sequence:
#
# PCOD8303305 Si02
#       6
#     8   8   4   8   4   8
#     4  11  22  42  63  90 125 167 209 255 313 372
#     4  10  22  41  62  89 124 163 207 257 312 369
#     4  11  24  40  63  92 120 167 213 258 312 366
#     4  10  23  39  64  93 123 161 206 255 306 367
#     4  11  24  42  61  88 130 161 207 266 310 368
#     4  10  22  42  62  89 126 164 200 254 313 368
#
# _framework density 19.345939000000001
#
# number of rings (size 3 to 8) (size 9 to 14) (size 15 to 20)
#    0.000    1.600    2.000    1.800    2.800    7.200 
#    0.000    2.000    0.000    0.000    0.000    0.000 
#    0.000    0.000    0.000    0.000    0.000    0.000 
#
# Total GULP energy -495911.454669 kJ/mol
# GULP energy per Si atom -12397.786367 kJ/mol
# Density = 1.930191 g / cm^3
# Si number density = 19.345939 Si / 1000 Ang^3
#
#
#
# Elastic Constant Matrix: (Units=GPa)
#
#
# Indices 1 2 3 4 5 6 
#
# 1 79.9946 39.4740 57.4291 0.0000 0.0000 11.0499
# 2 39.4740 79.9946 57.4291 0.0000 0.0000 -11.0499
# 3 57.4291 57.4291 191.1430 0.0000 0.0000 0.0000
# 4 0.0000 0.0000 0.0000 81.2590 0.0000 0.0000
# 5 0.0000 0.0000 0.0000 0.0000 81.2590 0.0000
# 6 11.0499 -11.0499 0.0000 0.0000 0.0000 25.4540
#
#
#
# Elastic Compliance Matrix: (Units=1/GPa)
#
#
# Indices 1 2 3 4 5 6 
#
# 1 0.022052 -0.010282 -0.003536 0.000000 0.000000 -0.014037
# 2 -0.010282 0.022052 -0.003536 0.000000 0.000000 0.014037
# 3 -0.003536 -0.003536 0.007357 0.000000 0.000000 0.000000
# 4 0.000000 0.000000 0.000000 0.012306 0.000000 0.000000
# 5 0.000000 0.000000 0.000000 0.000000 0.012306 0.000000
# 6 -0.014037 0.014037 0.000000 0.000000 0.000000 0.051474
#
#
# Mechanical properties :
#
#
# Convention : Reuss Voigt Hill
#
# Bulk Modulus (GPa) = 59.69521 73.31071 66.50296
# Shear Modulus (GPa) = 29.79005 50.71440 40.25222
#
# Velocity S-wave (km/s) = 3.92836 5.12556 4.56637
# Velocity P-wave (km/s) = 7.17633 8.54432 7.89003
#
# Compressibility (1/GPa) = 0.01675176
#
# Stress axis : x y z
#
# Youngs Moduli (GPa) = 45.34660 45.34660 135.93024
#
# Poissons Ratio (x) = 0.46626 0.48070
# Poissons Ratio (y) = 0.46626 0.48070
# Poissons Ratio (z) = 0.16036 0.16036
#
# Static dielectric constant tensor:
#      x y z
#    x 3.594070 0.000000 0.000000 
#    y 0.000000 3.594070 0.000000 
#    z 0.000000 0.000000 3.930700 
# 
# 
# High freq. dielectric constant tensor:
#      x y z
#    x 1.752930 0.000000 0.000000 
#    y 0.000000 1.752930 0.000000 
#    z 0.000000 0.000000 1.778470 
# 
# From -- ./inp_files/813.got.cif
#   From: 2010.03.12/outbox.cif.g09.slc.cpg/sg84_1_cif.got.tgz:813.got - 2010.04.08 20:07:29.
