data_PCOD8303984
_publ_section_title
;
Structure prediction by ZEFSAII (Michael W. Deem and Ramdas Pophale) SiO2 
 PCOD8303984
Probable space group: I 4/M
;
_chemical_formula_sum "Si O2"
_cell_formula_units_Z 88
_cell_length_a 12.201078
_cell_length_b 12.201078
_cell_length_c 31.766254
_cell_angle_alpha 90.000000
_cell_angle_beta 90.000000
_cell_angle_gamma 90.000000
_cell_volume 4728.924836
_symmetry_space_group_name_H-M "I 4/M"
_symmetry_group_IT_number 87
_symmetry_cell_setting 'tetragonal'
loop_
_space_group_symop_operation_xyz
x,y,z
-y,x,z
-x,-y,z
y,-x,z
-x,-y,-z
y,-x,-z
x,y,-z
-y,x,-z
1/2+x,1/2+y,1/2+z
1/2-y,1/2+x,1/2+z
1/2-x,1/2-y,1/2+z
1/2+y,1/2-x,1/2+z
1/2-x,1/2-y,1/2-z
1/2+y,1/2-x,1/2-z
1/2+x,1/2+y,1/2-z
1/2-y,1/2+x,1/2-z
loop_
_atom_site_type_symbol
_atom_site_label
_atom_site_fract_x
_atom_site_fract_y
_atom_site_fract_z
Si Si1 0.014271 0.373710 0.137257
Si Si2 0.821295 0.952727 0.500000
Si Si3 0.625669 0.771220 0.126689
Si Si4 0.341721 0.587950 0.788772
Si Si5 0.220577 0.395917 0.086428
Si Si6 0.938145 0.656017 0.231667
O O1 0.098274 0.352598 0.098390
O O2 0.055101 0.324578 0.181490
O O3 0.000000 0.500000 0.147618
O O4 0.895476 0.328707 0.123286
O O5 0.738053 0.933880 0.538622
O O6 0.923320 0.868160 0.500000
O O7 0.639434 0.727964 0.173507
O O8 0.694187 0.700636 0.093931
O O9 0.498227 0.755857 0.116344
O O10 0.353508 0.457349 0.790072
O O11 0.270221 0.614768 0.747396
O O12 0.860677 0.555070 0.244991
#
# Coordination Sequence:
#
# PCOD8303984 Si02
#       6
#    16   8  16  16  16  16
#     4  10  21  37  55  83 116 154 199 236 281 338
#     4  11  22  38  61  93 125 146 175 230 309 371
#     4  11  20  36  57  84 118 156 189 234 293 345
#     4  11  23  34  50  82 117 150 195 247 292 340
#     4  11  22  37  60  86 115 151 189 231 287 360
#     4  11  19  34  53  75 108 150 199 235 269 327
#
# _framework density 18.608882000000001
#
# number of rings (size 3 to 8) (size 9 to 14) (size 15 to 20)
#    0.000    1.182    7.273    1.091    0.000    2.545 
#    0.000    5.000    0.000    0.545    0.000    0.000 
#    0.000    1.455    0.000    0.000    0.000    0.000 
#
# Total GULP energy -545399.518467 kJ/mol
# GULP energy per Si atom -12395.443602 kJ/mol
# Density = 1.856653 g / cm^3
# Si number density = 18.608882 Si / 1000 Ang^3
#
#
#
# Elastic Constant Matrix: (Units=GPa)
#
#
# Indices 1 2 3 4 5 6 
#
# 1 64.0721 12.3243 17.7443 0.0000 0.0000 4.7755
# 2 12.3243 64.0721 17.7443 0.0000 0.0000 -4.7755
# 3 17.7443 17.7443 105.3456 0.0000 0.0000 0.0000
# 4 0.0000 0.0000 0.0000 23.9805 0.0000 0.0000
# 5 0.0000 0.0000 0.0000 0.0000 23.9805 0.0000
# 6 4.7755 -4.7755 0.0000 0.0000 0.0000 2.6679
#
#
#
# Elastic Compliance Matrix: (Units=1/GPa)
#
#
# Indices 1 2 3 4 5 6 
#
# 1 0.021530 -0.007329 -0.002392 0.000000 0.000000 -0.051656
# 2 -0.007329 0.021530 -0.002392 0.000000 0.000000 0.051656
# 3 -0.002392 -0.002392 0.010298 0.000000 0.000000 0.000000
# 4 0.000000 0.000000 0.000000 0.041701 0.000000 0.000000
# 5 0.000000 0.000000 0.000000 0.000000 0.041701 0.000000
# 6 -0.051656 0.051656 0.000000 0.000000 0.000000 0.559751
#
#
# Mechanical properties :
#
#
# Convention : Reuss Voigt Hill
#
# Bulk Modulus (GPa) = 34.32647 36.56841 35.44744
# Shear Modulus (GPa) = 6.84513 22.50423 14.67468
#
# Velocity S-wave (km/s) = 1.92000 3.48131 2.81122
# Velocity P-wave (km/s) = 4.83751 5.98774 5.44310
#
# Compressibility (1/GPa) = 0.02913204
#
# Stress axis : x y z
#
# Youngs Moduli (GPa) = 46.44739 46.44740 97.10282
#
# Poissons Ratio (x) = 0.34041 0.23227
# Poissons Ratio (y) = 0.34041 0.23227
# Poissons Ratio (z) = 0.11110 0.11110
#
# Static dielectric constant tensor:
#      x y z
#    x 3.549630 0.000000 0.000000 
#    y 0.000000 3.549630 0.000000 
#    z 0.000000 0.000000 3.259680 
# 
# 
# High freq. dielectric constant tensor:
#      x y z
#    x 1.713690 0.000000 0.000000 
#    y 0.000000 1.713690 0.000000 
#    z 0.000000 0.000000 1.708630 
# 
# From -- ./inp_files/6569.got.cif
#   From: 2010.03.12/outbox.cif.g09.slc.cpg/sg87_4_cif.got.tgz:6569.got - 2010.04.08 20:16:13.
