data_PCOD8303438
_publ_section_title
;
Structure prediction by ZEFSAII (Michael W. Deem and Ramdas Pophale) SiO2 
 PCOD8303438
Probable space group: P 4/N
;
_chemical_formula_sum "Si O2"
_cell_formula_units_Z 56
_cell_length_a 11.848966
_cell_length_b 11.848966
_cell_length_c 20.039171
_cell_angle_alpha 90.000000
_cell_angle_beta 90.000000
_cell_angle_gamma 90.000000
_cell_volume 2813.459435
_symmetry_space_group_name_H-M "P 4/N"
_symmetry_group_IT_number 85
_symmetry_cell_setting 'tetragonal'
loop_
_space_group_symop_operation_xyz
x,y,z
1/2-y,x,z
1/2-x,1/2-y,z
y,1/2-x,z
-x,-y,-z
1/2+y,-x,-z
1/2+x,1/2+y,-z
-y,1/2+x,-z
loop_
_atom_site_type_symbol
_atom_site_label
_atom_site_fract_x
_atom_site_fract_y
_atom_site_fract_z
Si Si1 0.928794 0.784945 0.505013
Si Si2 0.836534 0.349077 0.158142
Si Si3 0.880679 0.249082 0.595919
Si Si4 0.758851 0.568320 0.089183
Si Si5 0.260438 0.581534 0.025059
Si Si6 0.135398 0.937951 0.297161
Si Si7 0.863171 0.488223 0.643580
O O1 0.838238 0.880845 0.486319
O O2 0.951294 0.796369 0.583451
O O3 0.044856 0.801507 0.464510
O O4 0.750000 0.250000 0.178721
O O5 0.764896 0.455819 0.133194
O O6 0.923299 0.308021 0.100227
O O7 0.911475 0.389341 0.220268
O O8 0.750000 0.250000 0.572971
O O9 0.900043 0.169105 0.658984
O O10 0.921758 0.373952 0.616461
O O11 0.866699 0.644419 0.106671
O O12 0.758741 0.540003 0.009324
O O13 0.144313 0.651578 0.024783
O O14 0.065919 0.045687 0.321203
O O15 0.268917 0.959703 0.301776
#
# Coordination Sequence:
#
# PCOD8303438 Si02
#       7
#     8   8   8   8   8   8   8
#     4  11  23  40  65  88 120 163 205 261 323 379
#     4  11  21  40  65  89 127 168 220 250 311 374
#     4  10  24  39  62  94 123 154 207 264 314 369
#     4  10  22  39  63  96 132 164 204 260 320 370
#     4   9  16  36  61  93 121 160 203 258 299 360
#     4  11  25  42  62  89 126 169 202 262 303 386
#     4  11  23  42  62  89 125 162 212 252 318 371
#
# _framework density 19.904322000000001
#
# number of rings (size 3 to 8) (size 9 to 14) (size 15 to 20)
#    0.000    1.571    4.286    2.143    4.000    6.000 
#    2.571    0.000    0.000    1.714    0.000    0.000 
#    0.000    0.000    0.000    0.000    0.000    0.000 
#
# Total GULP energy -694380.172320 kJ/mol
# GULP energy per Si atom -12399.645934 kJ/mol
# Density = 1.985902 g / cm^3
# Si number density = 19.904322 Si / 1000 Ang^3
#
#
#
# Elastic Constant Matrix: (Units=GPa)
#
#
# Indices 1 2 3 4 5 6 
#
# 1 96.8445 38.7228 45.7242 0.0000 0.0000 -1.3312
# 2 38.7228 96.8445 45.7242 0.0000 0.0000 1.3312
# 3 45.7242 45.7242 128.4744 0.0000 0.0000 0.0000
# 4 0.0000 0.0000 0.0000 20.9930 0.0000 0.0000
# 5 0.0000 0.0000 0.0000 0.0000 20.9930 0.0000
# 6 -1.3312 1.3312 0.0000 0.0000 0.0000 19.0013
#
#
#
# Elastic Compliance Matrix: (Units=1/GPa)
#
#
# Indices 1 2 3 4 5 6 
#
# 1 0.013484 -0.003777 -0.003455 0.000000 0.000000 0.001209
# 2 -0.003777 0.013484 -0.003455 0.000000 0.000000 -0.001209
# 3 -0.003455 -0.003455 0.010243 0.000000 0.000000 0.000000
# 4 0.000000 0.000000 0.000000 0.047635 0.000000 0.000000
# 5 0.000000 0.000000 0.000000 0.000000 0.047635 0.000000
# 6 0.001209 -0.001209 0.000000 0.000000 0.000000 0.052797
#
#
# Mechanical properties :
#
#
# Convention : Reuss Voigt Hill
#
# Bulk Modulus (GPa) = 63.14076 64.72286 63.93181
# Shear Modulus (GPa) = 23.59280 24.99695 24.29487
#
# Velocity S-wave (km/s) = 3.44657 3.54765 3.49747
# Velocity P-wave (km/s) = 6.90141 7.02628 6.96413
#
# Compressibility (1/GPa) = 0.01583763
#
# Stress axis : x y z
#
# Youngs Moduli (GPa) = 74.16349 74.16349 97.63070
#
# Poissons Ratio (x) = 0.28011 0.33728
# Poissons Ratio (y) = 0.28011 0.33728
# Poissons Ratio (z) = 0.25621 0.25621
#
# Static dielectric constant tensor:
#      x y z
#    x 3.630180 0.000000 0.000000 
#    y 0.000000 3.630180 0.000000 
#    z 0.000000 0.000000 3.533530 
# 
# 
# High freq. dielectric constant tensor:
#      x y z
#    x 1.775140 0.000000 0.000000 
#    y 0.000000 1.775140 0.000000 
#    z 0.000000 0.000000 1.765740 
# 
# From -- ./inp_files/2248.got.cif
#   From: 2010.03.12/outbox.cif.g09.slc.cpg/sg85_cif.got.tgz:2248.got - 2010.04.08 20:10:46.
