data_PCOD8303332
_publ_section_title
;
Structure prediction by ZEFSAII (Michael W. Deem and Ramdas Pophale) SiO2 
 PCOD8303332
Probable space group: P 42/M
;
_chemical_formula_sum "Si O2"
_cell_formula_units_Z 30
_cell_length_a 8.621294
_cell_length_b 8.621294
_cell_length_c 18.275067
_cell_angle_alpha 90.000000
_cell_angle_beta 90.000000
_cell_angle_gamma 90.000000
_cell_volume 1358.325609
_symmetry_space_group_name_H-M "P 42/M"
_symmetry_group_IT_number 84
_symmetry_cell_setting 'tetragonal'
loop_
_space_group_symop_operation_xyz
x,y,z
-y,x,1/2+z
-x,-y,z
y,-x,1/2+z
-x,-y,-z
y,-x,1/2-z
x,y,-z
-y,x,1/2-z
loop_
_atom_site_type_symbol
_atom_site_label
_atom_site_fract_x
_atom_site_fract_y
_atom_site_fract_z
Si Si1 0.509529 0.266069 0.000000
Si Si2 0.000000 0.500000 0.877892
Si Si3 0.198914 0.732019 0.787475
Si Si4 0.480928 0.172546 0.158599
Si Si5 0.000000 0.000000 0.250000
Si Si6 0.757622 0.499894 0.000000
O O1 0.458792 0.168989 0.928635
O O2 0.693329 0.319680 0.000000
O O3 0.402389 0.414257 0.000000
O O4 0.937185 0.362780 0.827412
O O5 0.856438 0.549098 0.929079
O O6 0.234710 0.666975 0.705217
O O7 0.365479 0.724184 0.826637
O O8 0.138217 0.910389 0.792433
O O9 0.500000 0.000000 0.188119
#
# Coordination Sequence:
#
# PCOD8303332 Si02
#       6
#     4   4   8   8   2   4
#     4  11  25  42  63  99 138 183 219 284 344 411
#     4  11  22  46  68 101 132 178 230 287 344 406
#     4  12  25  43  74  99 136 179 232 287 343 405
#     4  12  26  44  67 100 139 180 224 285 344 413
#     4  12  24  44  68 102 136 172 224 286 344 396
#     4  10  24  40  69  93 136 177 227 281 347 412
#
# _framework density 22.086013000000001
#
# number of rings (size 3 to 8) (size 9 to 14) (size 15 to 20)
#    0.000    0.533    6.667    0.400    7.467    0.533 
#    0.000    0.000    0.000    4.800    0.000    0.000 
#    0.000    0.000    0.000    0.000    0.000    0.000 
#
# Total GULP energy -371672.877619 kJ/mol
# GULP energy per Si atom -12389.095921 kJ/mol
# Density = 2.203574 g / cm^3
# Si number density = 22.086013 Si / 1000 Ang^3
#
#
#
# Elastic Constant Matrix: (Units=GPa)
#
#
# Indices 1 2 3 4 5 6 
#
# 1 84.7936 15.7294 27.4536 0.0000 0.0000 4.4447
# 2 15.7294 84.7936 27.4536 0.0000 0.0000 -4.4447
# 3 27.4536 27.4536 152.2909 0.0000 0.0000 0.0000
# 4 0.0000 0.0000 0.0000 29.8973 0.0000 0.0000
# 5 0.0000 0.0000 0.0000 0.0000 29.8973 0.0000
# 6 4.4447 -4.4447 0.0000 0.0000 0.0000 34.6228
#
#
#
# Elastic Compliance Matrix: (Units=1/GPa)
#
#
# Indices 1 2 3 4 5 6 
#
# 1 0.012879 -0.001844 -0.001989 0.000000 0.000000 -0.001890
# 2 -0.001844 0.012879 -0.001989 0.000000 0.000000 0.001890
# 3 -0.001989 -0.001989 0.007284 0.000000 0.000000 0.000000
# 4 0.000000 0.000000 0.000000 0.033448 0.000000 0.000000
# 5 0.000000 0.000000 0.000000 0.000000 0.033448 0.000000
# 6 -0.001890 0.001890 0.000000 0.000000 0.000000 0.029368
#
#
# Mechanical properties :
#
#
# Convention : Reuss Voigt Hill
#
# Bulk Modulus (GPa) = 46.73819 51.46127 49.09973
# Shear Modulus (GPa) = 33.76530 35.63291 34.69910
#
# Velocity S-wave (km/s) = 3.91424 4.02104 3.96800
# Velocity P-wave (km/s) = 6.45261 6.70144 6.57820
#
# Compressibility (1/GPa) = 0.02139578
#
# Stress axis : x y z
#
# Youngs Moduli (GPa) = 77.64860 77.64860 137.29529
#
# Poissons Ratio (x) = 0.14319 0.27311
# Poissons Ratio (y) = 0.14319 0.27311
# Poissons Ratio (z) = 0.15446 0.15446
#
# Static dielectric constant tensor:
#      x y z
#    x 3.905520 0.000000 0.000000 
#    y 0.000000 3.905520 0.000000 
#    z 0.000000 0.000000 4.021920 
# 
# 
# High freq. dielectric constant tensor:
#      x y z
#    x 1.867890 0.000000 0.000000 
#    y 0.000000 1.867890 0.000000 
#    z 0.000000 0.000000 1.869980 
# 
# From -- ./inp_files/4218.got.cif
#   From: 2010.03.12/outbox.cif.g09.slc.cpg/sg84_3_cif.got.tgz:4218.got - 2010.04.08 20:07:29.
