data_PCOD8303159
_publ_section_title
;
Structure prediction by ZEFSAII (Michael W. Deem and Ramdas Pophale) SiO2 
 PCOD8303159
Probable space group: P 42/M
;
_chemical_formula_sum "Si O2"
_cell_formula_units_Z 48
_cell_length_a 16.426209
_cell_length_b 16.426209
_cell_length_c 9.567879
_cell_angle_alpha 90.000000
_cell_angle_beta 90.000000
_cell_angle_gamma 90.000000
_cell_volume 2581.608385
_symmetry_space_group_name_H-M "P 42/M"
_symmetry_group_IT_number 84
_symmetry_cell_setting 'tetragonal'
loop_
_space_group_symop_operation_xyz
x,y,z
-y,x,1/2+z
-x,-y,z
y,-x,1/2+z
-x,-y,-z
y,-x,1/2-z
x,y,-z
-y,x,1/2-z
loop_
_atom_site_type_symbol
_atom_site_label
_atom_site_fract_x
_atom_site_fract_y
_atom_site_fract_z
Si Si1 0.553622 0.827496 0.160887
Si Si2 0.833439 0.598487 0.834276
Si Si3 0.996628 0.620482 0.342700
Si Si4 0.006039 0.803743 0.348486
Si Si5 0.167014 0.138025 0.657618
Si Si6 0.274940 0.245390 0.159483
O O1 0.482957 0.796797 0.264627
O O2 0.628158 0.763855 0.183598
O O3 0.567358 0.923845 0.198340
O O4 0.525661 0.821872 0.000000
O O5 0.921902 0.615122 0.765542
O O6 0.765082 0.667495 0.802299
O O7 0.845806 0.587743 0.000000
O O8 0.966007 0.597977 0.500000
O O9 0.033363 0.710691 0.341861
O O10 0.027721 0.842206 0.500000
O O11 0.050986 0.854338 0.227527
O O12 0.909725 0.803751 0.327054
O O13 0.194842 0.123397 0.500000
O O14 0.240032 0.177087 0.740672
O O15 0.252700 0.223350 0.000000
#
# Coordination Sequence:
#
# PCOD8303159 Si02
#       6
#     8   8   8   8   8   8
#     4  10  21  38  59  80 109 151 188 217 266 339
#     4  11  23  36  56  87 118 142 177 232 280 320
#     4  10  19  35  57  80 111 152 187 218 269 336
#     4  10  21  37  54  76 110 148 190 233 277 329
#     4  11  22  35  56  81 105 144 194 238 275 320
#     4  10  21  39  59  80 111 150 181 220 280 335
#
# _framework density 18.593060000000001
#
# number of rings (size 3 to 8) (size 9 to 14) (size 15 to 20)
#    0.000    1.667    3.333    1.500    0.000    6.333 
#    0.000    1.667    0.000    0.500    0.000    3.500 
#    0.000    0.000    0.000    0.000    0.000    0.000 
#
# Total GULP energy -594850.418781 kJ/mol
# GULP energy per Si atom -12392.717058 kJ/mol
# Density = 1.855074 g / cm^3
# Si number density = 18.593060 Si / 1000 Ang^3
#
#
#
# Elastic Constant Matrix: (Units=GPa)
#
#
# Indices 1 2 3 4 5 6 
#
# 1 79.7974 45.0892 58.6994 0.0000 0.0000 1.5006
# 2 45.0892 79.7974 58.6994 0.0000 0.0000 -1.5006
# 3 58.6994 58.6994 118.8452 0.0000 0.0000 0.0000
# 4 0.0000 0.0000 0.0000 29.0408 0.0000 0.0000
# 5 0.0000 0.0000 0.0000 0.0000 29.0408 0.0000
# 6 1.5006 -1.5006 0.0000 0.0000 0.0000 27.5131
#
#
#
# Elastic Compliance Matrix: (Units=1/GPa)
#
#
# Indices 1 2 3 4 5 6 
#
# 1 0.021948 -0.007000 -0.007383 0.000000 0.000000 -0.001579
# 2 -0.007000 0.021948 -0.007383 0.000000 0.000000 0.001579
# 3 -0.007383 -0.007383 0.015707 0.000000 0.000000 0.000000
# 4 0.000000 0.000000 0.000000 0.034434 0.000000 0.000000
# 5 0.000000 0.000000 0.000000 0.000000 0.034434 0.000000
# 6 -0.001579 0.001579 0.000000 0.000000 0.000000 0.036519
#
#
# Mechanical properties :
#
#
# Convention : Reuss Voigt Hill
#
# Bulk Modulus (GPa) = 62.22392 67.04625 64.63508
# Shear Modulus (GPa) = 23.37775 24.84906 24.11341
#
# Velocity S-wave (km/s) = 3.54974 3.65974 3.60516
# Velocity P-wave (km/s) = 7.09505 7.34822 7.22275
#
# Compressibility (1/GPa) = 0.01607099
#
# Stress axis : x y z
#
# Youngs Moduli (GPa) = 45.56280 45.56280 63.66520
#
# Poissons Ratio (x) = 0.31896 0.47002
# Poissons Ratio (y) = 0.31896 0.47002
# Poissons Ratio (z) = 0.33638 0.33638
#
# Static dielectric constant tensor:
#      x y z
#    x 3.372810 0.000000 0.000000 
#    y 0.000000 3.372810 0.000000 
#    z 0.000000 0.000000 3.946350 
# 
# 
# High freq. dielectric constant tensor:
#      x y z
#    x 1.711010 0.000000 0.000000 
#    y 0.000000 1.711010 0.000000 
#    z 0.000000 0.000000 1.726950 
# 
# From -- ./inp_files/1014.got.cif
#   From: 2010.03.12/outbox.cif.g09.slc.cpg/sg84_1_cif.got.tgz:1014.got - 2010.04.08 20:07:29.
