data_PCOD8303036
_publ_section_title
;
Structure prediction by ZEFSAII (Michael W. Deem and Ramdas Pophale) SiO2 
 PCOD8303036
Probable space group: P 4/M
;
_chemical_formula_sum "Si O2"
_cell_formula_units_Z 32
_cell_length_a 10.861803
_cell_length_b 10.861803
_cell_length_c 14.116117
_cell_angle_alpha 90.000000
_cell_angle_beta 90.000000
_cell_angle_gamma 90.000000
_cell_volume 1665.402042
_symmetry_space_group_name_H-M "P 4/M"
_symmetry_group_IT_number 83
_symmetry_cell_setting 'tetragonal'
loop_
_space_group_symop_operation_xyz
x,y,z
-y,x,z
-x,-y,z
y,-x,z
-x,-y,-z
y,-x,-z
x,y,-z
-y,x,-z
loop_
_atom_site_type_symbol
_atom_site_label
_atom_site_fract_x
_atom_site_fract_y
_atom_site_fract_z
Si Si1 0.578207 0.887201 0.758191
Si Si2 0.045574 0.802660 0.892052
Si Si3 0.516087 0.300720 0.108283
Si Si4 0.313870 0.575373 0.609275
O O1 0.480657 0.818712 0.826787
O O2 0.621386 0.800322 0.672032
O O3 0.500000 0.000000 0.715625
O O4 0.695778 0.930156 0.817270
O O5 0.145561 0.909186 0.875217
O O6 0.058188 0.752879 0.000000
O O7 0.630057 0.388410 0.131735
O O8 0.521219 0.259126 0.000000
O O9 0.342718 0.433097 0.633123
O O10 0.277413 0.590894 0.500000
#
# Coordination Sequence:
#
# PCOD8303036 Si02
#       4
#     8   8   8   8
#     4  12  24  32  55  90 115 142 187 239 283 332
#     4   9  21  41  58  74 110 163 205 232 263 316
#     4   9  19  35  53  76 111 150 185 232 292 340
#     4   9  20  41  66  87 111 145 181 227 296 361
#
# _framework density 19.214579000000001
#
# number of rings (size 3 to 8) (size 9 to 14) (size 15 to 20)
#    0.000    2.250    0.000    4.500    7.000    4.500 
#    0.000    0.000    0.000    0.000    0.000    1.750 
#    0.000    0.000    0.000    0.000    0.000    0.000 
#
# Total GULP energy -396809.385865 kJ/mol
# GULP energy per Si atom -12400.293308 kJ/mol
# Density = 1.917085 g / cm^3
# Si number density = 19.214579 Si / 1000 Ang^3
#
#
#
# Elastic Constant Matrix: (Units=GPa)
#
#
# Indices 1 2 3 4 5 6 
#
# 1 78.4296 21.1560 42.0860 0.0000 0.0000 3.6624
# 2 21.1560 78.4296 42.0860 0.0000 0.0000 -3.6624
# 3 42.0860 42.0860 81.0956 0.0000 0.0000 0.0000
# 4 0.0000 0.0000 0.0000 24.9075 0.0000 0.0000
# 5 0.0000 0.0000 0.0000 0.0000 24.9075 0.0000
# 6 3.6624 -3.6624 0.0000 0.0000 0.0000 17.1148
#
#
#
# Elastic Compliance Matrix: (Units=1/GPa)
#
#
# Indices 1 2 3 4 5 6 
#
# 1 0.017920 -0.000032 -0.009283 0.000000 0.000000 -0.003841
# 2 -0.000032 0.017920 -0.009283 0.000000 0.000000 0.003841
# 3 -0.009283 -0.009283 0.021967 0.000000 0.000000 0.000000
# 4 0.000000 0.000000 0.000000 0.040149 0.000000 0.000000
# 5 0.000000 0.000000 0.000000 0.000000 0.040149 0.000000
# 6 -0.003841 0.003841 0.000000 0.000000 0.000000 0.060073
#
#
# Mechanical properties :
#
#
# Convention : Reuss Voigt Hill
#
# Bulk Modulus (GPa) = 48.52142 49.84565 49.18353
# Shear Modulus (GPa) = 20.64044 22.22773 21.43409
#
# Velocity S-wave (km/s) = 3.28107 3.40489 3.34355
# Velocity P-wave (km/s) = 6.29770 6.43860 6.36854
#
# Compressibility (1/GPa) = 0.02060946
#
# Stress axis : x y z
#
# Youngs Moduli (GPa) = 55.80441 55.80441 45.52358
#
# Poissons Ratio (x) = 0.00177 0.42261
# Poissons Ratio (y) = 0.00177 0.42261
# Poissons Ratio (z) = 0.51805 0.51805
#
# Static dielectric constant tensor:
#      x y z
#    x 3.432270 0.000000 0.000000 
#    y 0.000000 3.432270 0.000000 
#    z 0.000000 0.000000 3.425140 
# 
# 
# High freq. dielectric constant tensor:
#      x y z
#    x 1.740290 0.000000 0.000000 
#    y 0.000000 1.740290 0.000000 
#    z 0.000000 0.000000 1.740580 
# 
# From -- ./inp_files/2192.got.cif
#   From: 2010.03.12/outbox.cif.g09.slc.cpg/sg83_2_cif.got.tgz:2192.got - 2010.04.08 20:05:18.
