data_PCOD8303421
_publ_section_title
;
Structure prediction by ZEFSAII (Michael W. Deem and Ramdas Pophale) SiO2 
 PCOD8303421
Probable space group: P 4/N
;
_chemical_formula_sum "Si O2"
_cell_formula_units_Z 58
_cell_length_a 17.452847
_cell_length_b 17.452847
_cell_length_c 9.362238
_cell_angle_alpha 90.000000
_cell_angle_beta 90.000000
_cell_angle_gamma 90.000000
_cell_volume 2851.755187
_symmetry_space_group_name_H-M "P 4/N"
_symmetry_group_IT_number 85
_symmetry_cell_setting 'tetragonal'
loop_
_space_group_symop_operation_xyz
x,y,z
1/2-y,x,z
1/2-x,1/2-y,z
y,1/2-x,z
-x,-y,-z
1/2+y,-x,-z
1/2+x,1/2+y,-z
-y,1/2+x,-z
loop_
_atom_site_type_symbol
_atom_site_label
_atom_site_fract_x
_atom_site_fract_y
_atom_site_fract_z
Si Si1 0.865769 0.801998 0.980901
Si Si2 0.942031 0.412300 0.953987
Si Si3 0.167245 0.664761 0.555759
Si Si4 0.213610 0.889544 0.156071
Si Si5 0.509659 0.669754 0.760789
Si Si6 0.910607 0.489738 0.481392
Si Si7 0.250000 0.750000 0.000000
Si Si8 0.591506 0.957730 0.166312
O O1 0.787862 0.850121 0.993300
O O2 0.907299 0.820306 0.831654
O O3 0.924906 0.828971 0.103666
O O4 0.887083 0.452011 0.840439
O O5 0.023243 0.398420 0.873462
O O6 0.917726 0.330618 0.015418
O O7 0.942082 0.464730 0.096357
O O8 0.144063 0.745015 0.482265
O O9 0.156608 0.664052 0.726748
O O10 0.110789 0.599414 0.498745
O O11 0.271733 0.825046 0.094620
O O12 0.251012 0.961985 0.237439
O O13 0.531865 0.638056 0.604703
O O14 0.889066 0.527850 0.331104
O O15 0.000000 0.500000 0.500000
#
# Coordination Sequence:
#
# PCOD8303421 Si02
#       8
#     8   8   8   8   8   8   2   8
#     4  10  23  46  71  94 124 164 221 283 338 395
#     4  10  20  37  62  89 128 163 219 272 320 385
#     4  11  24  43  62  90 138 185 221 266 335 407
#     4  12  22  38  62  92 132 173 220 268 328 398
#     4  11  23  40  64  98 130 176 222 268 341 391
#     4  12  24  42  63  95 138 178 221 269 325 405
#     4  12  24  32  58  96 124 164 212 270 316 384
#     4  10  21  40  63  92 122 169 214 271 326 385
#
# _framework density 20.338353999999999
#
# number of rings (size 3 to 8) (size 9 to 14) (size 15 to 20)
#    0.000    1.103    5.517    1.655    0.000    1.103 
#    2.483    0.000    0.000    1.655    0.000    0.000 
#    0.000    0.000    0.000    0.000    0.000    0.000 
#
# Total GULP energy -718806.374449 kJ/mol
# GULP energy per Si atom -12393.213353 kJ/mol
# Density = 2.029206 g / cm^3
# Si number density = 20.338354 Si / 1000 Ang^3
#
#
#
# Elastic Constant Matrix: (Units=GPa)
#
#
# Indices 1 2 3 4 5 6 
#
# 1 95.0615 53.9245 38.9109 0.0000 0.0000 -0.0845
# 2 53.9245 95.0615 38.9109 0.0000 0.0000 0.0845
# 3 38.9109 38.9109 135.8783 0.0000 0.0000 0.0000
# 4 0.0000 0.0000 0.0000 29.3209 0.0000 0.0000
# 5 0.0000 0.0000 0.0000 0.0000 29.3209 0.0000
# 6 -0.0845 0.0845 0.0000 0.0000 0.0000 34.3810
#
#
#
# Elastic Compliance Matrix: (Units=1/GPa)
#
#
# Indices 1 2 3 4 5 6 
#
# 1 0.016101 -0.008208 -0.002260 0.000000 0.000000 0.000060
# 2 -0.008208 0.016101 -0.002260 0.000000 0.000000 -0.000060
# 3 -0.002260 -0.002260 0.008654 0.000000 0.000000 0.000000
# 4 0.000000 0.000000 0.000000 0.034105 0.000000 0.000000
# 5 0.000000 0.000000 0.000000 0.000000 0.034105 0.000000
# 6 0.000060 -0.000060 0.000000 0.000000 0.000000 0.029086
#
#
# Mechanical properties :
#
#
# Convention : Reuss Voigt Hill
#
# Bulk Modulus (GPa) = 64.94120 65.49931 65.22026
# Shear Modulus (GPa) = 29.63089 31.55492 30.59291
#
# Velocity S-wave (km/s) = 3.82107 3.94318 3.88261
# Velocity P-wave (km/s) = 7.17406 7.28054 7.22750
#
# Compressibility (1/GPa) = 0.01539855
#
# Stress axis : x y z
#
# Youngs Moduli (GPa) = 62.10818 62.10818 115.55349
#
# Poissons Ratio (x) = 0.50980 0.26117
# Poissons Ratio (y) = 0.50980 0.26117
# Poissons Ratio (z) = 0.14038 0.14038
#
# Static dielectric constant tensor:
#      x y z
#    x 3.700240 0.000000 0.000000 
#    y 0.000000 3.700240 0.000000 
#    z 0.000000 0.000000 3.832950 
# 
# 
# High freq. dielectric constant tensor:
#      x y z
#    x 1.789460 0.000000 0.000000 
#    y 0.000000 1.789460 0.000000 
#    z 0.000000 0.000000 1.795850 
# 
# From -- ./inp_files/1206.got.cif
#   From: 2010.03.12/outbox.cif.g09.slc.cpg/sg85_cif.got.tgz:1206.got - 2010.04.08 20:10:46.
