data_PCOD8303315
_publ_section_title
;
Structure prediction by ZEFSAII (Michael W. Deem and Ramdas Pophale) SiO2 
 PCOD8303315
Probable space group: P 42/M
;
_chemical_formula_sum "Si O2"
_cell_formula_units_Z 40
_cell_length_a 8.871756
_cell_length_b 8.871756
_cell_length_c 23.175754
_cell_angle_alpha 90.000000
_cell_angle_beta 90.000000
_cell_angle_gamma 90.000000
_cell_volume 1824.118509
_symmetry_space_group_name_H-M "P 42/M"
_symmetry_group_IT_number 84
_symmetry_cell_setting 'tetragonal'
loop_
_space_group_symop_operation_xyz
x,y,z
-y,x,1/2+z
-x,-y,z
y,-x,1/2+z
-x,-y,-z
y,-x,1/2-z
x,y,-z
-y,x,1/2-z
loop_
_atom_site_type_symbol
_atom_site_label
_atom_site_fract_x
_atom_site_fract_y
_atom_site_fract_z
Si Si1 0.219220 0.681605 0.188859
Si Si2 0.430924 0.837636 0.000000
Si Si3 0.466485 0.822343 0.124377
Si Si4 0.280668 0.326912 0.185221
Si Si5 0.821157 0.027884 0.376844
Si Si6 0.162345 0.072883 0.500000
O O1 0.293821 0.788767 0.139996
O O2 0.248659 0.504104 0.181275
O O3 0.266417 0.746701 0.250646
O O4 0.046359 0.720604 0.174736
O O5 0.491305 0.761719 0.058796
O O6 0.251527 0.849524 0.000000
O O7 0.500000 0.000000 0.000000
O O8 0.546951 0.709663 0.169350
O O9 0.500000 0.000000 0.132619
O O10 0.200215 0.222954 0.136366
O O11 0.758563 0.984293 0.440786
O O12 0.000000 0.000000 0.370718
O O13 0.000000 0.000000 0.500000
#
# Coordination Sequence:
#
# PCOD8303315 Si02
#       6
#     8   4   8   8   8   4
#     4  12  25  45  66  99 145 178 227 279 353 409
#     4  10  22  42  71 101 132 176 236 281 334 412
#     4  11  24  43  71  99 132 180 232 278 333 411
#     4  12  27  42  68 101 141 185 223 283 351 409
#     4  11  26  45  72 102 135 175 234 288 341 407
#     4  10  22  44  69  99 138 172 222 299 342 392
#
# _framework density 21.928398999999999
#
# number of rings (size 3 to 8) (size 9 to 14) (size 15 to 20)
#    0.000    0.800    4.000    2.400   14.000    0.000 
#    0.000    6.000    0.000    0.000    0.000    0.000 
#    0.000    0.000    0.000    0.000    0.000    0.000 
#
# Total GULP energy -495652.464321 kJ/mol
# GULP energy per Si atom -12391.311608 kJ/mol
# Density = 2.187849 g / cm^3
# Si number density = 21.928399 Si / 1000 Ang^3
#
#
#
# Elastic Constant Matrix: (Units=GPa)
#
#
# Indices 1 2 3 4 5 6 
#
# 1 73.1330 14.6753 30.4754 0.0000 0.0000 2.9550
# 2 14.6753 73.1330 30.4754 0.0000 0.0000 -2.9550
# 3 30.4754 30.4754 162.4274 0.0000 0.0000 0.0000
# 4 0.0000 0.0000 0.0000 32.2155 0.0000 0.0000
# 5 0.0000 0.0000 0.0000 0.0000 32.2155 0.0000
# 6 2.9550 -2.9550 0.0000 0.0000 0.0000 42.9720
#
#
#
# Elastic Compliance Matrix: (Units=1/GPa)
#
#
# Indices 1 2 3 4 5 6 
#
# 1 0.015160 -0.002066 -0.002457 0.000000 0.000000 -0.001185
# 2 -0.002066 0.015160 -0.002457 0.000000 0.000000 0.001185
# 3 -0.002457 -0.002457 0.007078 0.000000 0.000000 0.000000
# 4 0.000000 0.000000 0.000000 0.031041 0.000000 0.000000
# 5 0.000000 0.000000 0.000000 0.000000 0.031041 0.000000
# 6 -0.001185 0.001185 0.000000 0.000000 0.000000 0.023434
#
#
# Mechanical properties :
#
#
# Convention : Reuss Voigt Hill
#
# Bulk Modulus (GPa) = 42.66372 51.10504 46.88438
# Shear Modulus (GPa) = 34.55748 37.01841 35.78794
#
# Velocity S-wave (km/s) = 3.97410 4.11317 4.04423
# Velocity P-wave (km/s) = 6.36837 6.77595 6.57532
#
# Compressibility (1/GPa) = 0.02343912
#
# Stress axis : x y z
#
# Youngs Moduli (GPa) = 65.96333 65.96333 141.27338
#
# Poissons Ratio (x) = 0.13629 0.34707
# Poissons Ratio (y) = 0.13629 0.34707
# Poissons Ratio (z) = 0.16205 0.16205
#
# Static dielectric constant tensor:
#      x y z
#    x 3.773150 0.000000 0.000000 
#    y 0.000000 3.773150 0.000000 
#    z 0.000000 0.000000 4.637240 
# 
# 
# High freq. dielectric constant tensor:
#      x y z
#    x 1.859300 0.000000 0.000000 
#    y 0.000000 1.859300 0.000000 
#    z 0.000000 0.000000 1.882090 
# 
# From -- ./inp_files/4896.got.cif
#   From: 2010.03.12/outbox.cif.g09.slc.cpg/sg84_3_cif.got.tgz:4896.got - 2010.04.08 20:07:29.
