data_PCOD8303518
_publ_section_title
;
Structure prediction by ZEFSAII (Michael W. Deem and Ramdas Pophale) SiO2 
 PCOD8303518
Probable space group: P 42/N
;
_chemical_formula_sum "Si O2"
_cell_formula_units_Z 48
_cell_length_a 16.343934
_cell_length_b 16.343934
_cell_length_c 9.069740
_cell_angle_alpha 90.000000
_cell_angle_beta 90.000000
_cell_angle_gamma 90.000000
_cell_volume 2422.746848
_symmetry_space_group_name_H-M "P 42/N"
_symmetry_group_IT_number 86
_space_group.IT_coordinate_system_code '2'
_symmetry_cell_setting 'tetragonal'
loop_
_space_group_symop_operation_xyz
x,y,z
-y,1/2+x,1/2+z
1/2-x,1/2-y,z
1/2+y,-x,1/2+z
-x,-y,-z
y,1/2-x,1/2-z
1/2+x,1/2+y,-z
1/2-y,x,1/2-z
loop_
_atom_site_type_symbol
_atom_site_label
_atom_site_fract_x
_atom_site_fract_y
_atom_site_fract_z
Si Si1 0.097767 0.163018 0.678919
Si Si2 0.792967 0.980744 0.363801
Si Si3 0.310899 0.414660 0.321203
Si Si4 0.250000 0.250000 0.250000
Si Si5 0.169512 0.470746 0.135886
Si Si6 0.156829 0.839812 0.683229
Si Si7 0.750000 0.250000 0.066805
Si Si8 0.250000 0.250000 0.750000
O O1 0.050242 0.202209 0.817373
O O2 0.132985 0.071781 0.711614
O O3 0.037771 0.163740 0.539678
O O4 0.177071 0.219256 0.643365
O O5 0.801010 0.973909 0.539565
O O6 0.797564 0.073818 0.313674
O O7 0.268265 0.327225 0.356167
O O8 0.264325 0.455925 0.183520
O O9 0.406768 0.394740 0.288327
O O10 0.142822 0.560529 0.183891
O O11 0.180885 0.790767 0.830530
O O12 0.180863 0.790118 0.536361
#
# Coordination Sequence:
#
# PCOD8303518 Si02
#       8
#     8   8   8   2   8   8   4   2
#     4   9  19  32  52  82 113 145 177 217 268 323
#     4  10  20  34  55  81 111 143 180 223 269 321
#     4   9  19  32  52  82 113 145 177 217 268 323
#     4   8  16  30  48  74 116 154 176 198 264 346
#     4  10  20  34  55  81 111 143 180 223 269 321
#     4  11  22  41  61  79 104 140 187 229 268 319
#     4  10  24  42  62  76 100 148 186 218 268 330
#     4   8  16  30  48  74 116 154 176 198 264 346
#
# _framework density 19.812222999999999
#
# number of rings (size 3 to 8) (size 9 to 14) (size 15 to 20)
#    0.000    2.333    0.000    2.000    0.000   22.667 
#    0.000    3.333    0.000    4.000    0.000    0.000 
#    0.000    0.000    0.000    0.000    0.000    0.000 
#
# Total GULP energy -594879.322583 kJ/mol
# GULP energy per Si atom -12393.319220 kJ/mol
# Density = 1.976713 g / cm^3
# Si number density = 19.812223 Si / 1000 Ang^3
#
#
#
# Elastic Constant Matrix: (Units=GPa)
#
#
# Indices 1 2 3 4 5 6 
#
# 1 69.4659 -12.3584 15.8365 0.0000 0.0000 -1.1068
# 2 -12.3584 69.4659 15.8365 0.0000 0.0000 1.1068
# 3 15.8365 15.8365 62.1623 0.0000 0.0000 0.0000
# 4 0.0000 0.0000 0.0000 24.1465 0.0000 0.0000
# 5 0.0000 0.0000 0.0000 0.0000 24.1465 0.0000
# 6 -1.1068 1.1068 0.0000 0.0000 0.0000 21.4225
#
#
#
# Elastic Compliance Matrix: (Units=1/GPa)
#
#
# Indices 1 2 3 4 5 6 
#
# 1 0.016315 0.004077 -0.005195 0.000000 0.000000 0.000632
# 2 0.004077 0.016315 -0.005195 0.000000 0.000000 -0.000632
# 3 -0.005195 -0.005195 0.018734 0.000000 0.000000 0.000000
# 4 0.000000 0.000000 0.000000 0.041414 0.000000 0.000000
# 5 0.000000 0.000000 0.000000 0.000000 0.041414 0.000000
# 6 0.000632 -0.000632 0.000000 0.000000 0.000000 0.046745
#
#
# Mechanical properties :
#
#
# Convention : Reuss Voigt Hill
#
# Bulk Modulus (GPa) = 25.81457 26.63591 26.22524
# Shear Modulus (GPa) = 24.21581 26.06175 25.13878
#
# Velocity S-wave (km/s) = 3.49989 3.63083 3.56596
# Velocity P-wave (km/s) = 5.42127 5.57231 5.49731
#
# Compressibility (1/GPa) = 0.03873781
#
# Stress axis : x y z
#
# Youngs Moduli (GPa) = 61.29216 61.29216 53.37899
#
# Poissons Ratio (x) = -0.24988 0.27731
# Poissons Ratio (y) = -0.24988 0.27731
# Poissons Ratio (z) = 0.31842 0.31842
#
# Static dielectric constant tensor:
#      x y z
#    x 3.557940 0.000000 0.000000 
#    y 0.000000 3.557940 0.000000 
#    z 0.000000 0.000000 3.369600 
# 
# 
# High freq. dielectric constant tensor:
#      x y z
#    x 1.764170 0.000000 0.000000 
#    y 0.000000 1.764170 0.000000 
#    z 0.000000 0.000000 1.755940 
# 
# From -- ./inp_files/1388.got.cif
#   From: 2010.03.12/outbox.cif.g09.slc.cpg/sg86_1_cif.got.tgz:1388.got - 2010.04.08 20:12:58.
