data_PCOD8303228
_publ_section_title
;
Structure prediction by ZEFSAII (Michael W. Deem and Ramdas Pophale) SiO2 
 PCOD8303228
Probable space group: P 42/M
;
_chemical_formula_sum "Si O2"
_cell_formula_units_Z 48
_cell_length_a 11.855349
_cell_length_b 11.855349
_cell_length_c 17.929384
_cell_angle_alpha 90.000000
_cell_angle_beta 90.000000
_cell_angle_gamma 90.000000
_cell_volume 2519.962369
_symmetry_space_group_name_H-M "P 42/M"
_symmetry_group_IT_number 84
_symmetry_cell_setting 'tetragonal'
loop_
_space_group_symop_operation_xyz
x,y,z
-y,x,1/2+z
-x,-y,z
y,-x,1/2+z
-x,-y,-z
y,-x,1/2-z
x,y,-z
-y,x,1/2-z
loop_
_atom_site_type_symbol
_atom_site_label
_atom_site_fract_x
_atom_site_fract_y
_atom_site_fract_z
Si Si1 0.991727 0.373051 0.804246
Si Si2 0.614019 0.127823 0.917161
Si Si3 0.296086 0.245852 0.341398
Si Si4 0.695810 0.245060 0.323799
Si Si5 0.499079 0.631941 0.412850
Si Si6 0.102460 0.620821 0.639799
O O1 0.889015 0.312446 0.847639
O O2 0.964961 0.373596 0.717177
O O3 0.000000 0.500000 0.835066
O O4 0.109627 0.309812 0.819615
O O5 0.724253 0.174548 0.875046
O O6 0.501531 0.162242 0.870098
O O7 0.630725 0.992829 0.923556
O O8 0.603260 0.178346 0.000000
O O9 0.304332 0.289164 0.256495
O O10 0.381095 0.315308 0.393178
O O11 0.588528 0.298577 0.363113
O O12 0.807456 0.279185 0.370340
O O13 0.500000 0.500000 0.391854
O O14 0.471306 0.649112 0.500000
#
# Coordination Sequence:
#
# PCOD8303228 Si02
#       6
#     8   8   8   8   8   8
#     4  11  19  39  61  88 119 156 211 252 286 363
#     4  11  21  38  63  91 124 157 197 256 317 366
#     4  11  23  37  63  88 122 163 204 249 304 363
#     4  11  23  38  64  88 120 165 204 253 297 364
#     4  11  25  39  57  92 130 157 196 252 307 366
#     4  10  20  36  62  91 120 151 206 251 309 362
#
# _framework density 19.047902000000001
#
# number of rings (size 3 to 8) (size 9 to 14) (size 15 to 20)
#    0.000    1.167    5.000    2.500    4.667    2.667 
#    0.000    3.333    0.000    1.000    0.000    0.000 
#    0.000    0.000    0.000    0.000    0.000    0.000 
#
# Total GULP energy -595113.125479 kJ/mol
# GULP energy per Si atom -12398.190114 kJ/mol
# Density = 1.900455 g / cm^3
# Si number density = 19.047902 Si / 1000 Ang^3
#
#
#
# Elastic Constant Matrix: (Units=GPa)
#
#
# Indices 1 2 3 4 5 6 
#
# 1 108.1484 57.8286 28.9083 0.0000 0.0000 1.3854
# 2 57.8286 108.1484 28.9083 0.0000 0.0000 -1.3854
# 3 28.9083 28.9083 63.4651 0.0000 0.0000 0.0000
# 4 0.0000 0.0000 0.0000 16.4624 0.0000 0.0000
# 5 0.0000 0.0000 0.0000 0.0000 16.4624 0.0000
# 6 1.3854 -1.3854 0.0000 0.0000 0.0000 37.9744
#
#
#
# Elastic Compliance Matrix: (Units=1/GPa)
#
#
# Indices 1 2 3 4 5 6 
#
# 1 0.013537 -0.006376 -0.003262 0.000000 0.000000 -0.000726
# 2 -0.006376 0.013537 -0.003262 0.000000 0.000000 0.000726
# 3 -0.003262 -0.003262 0.018728 0.000000 0.000000 0.000000
# 4 0.000000 0.000000 0.000000 0.060744 0.000000 0.000000
# 5 0.000000 0.000000 0.000000 0.000000 0.060744 0.000000
# 6 -0.000726 0.000726 0.000000 0.000000 0.000000 0.026387
#
#
# Mechanical properties :
#
#
# Convention : Reuss Voigt Hill
#
# Bulk Modulus (GPa) = 49.99249 56.78359 53.38804
# Shear Modulus (GPa) = 22.10974 25.12097 23.61536
#
# Velocity S-wave (km/s) = 3.41067 3.63551 3.52488
# Velocity P-wave (km/s) = 6.46628 6.89190 6.68248
#
# Compressibility (1/GPa) = 0.02000300
#
# Stress axis : x y z
#
# Youngs Moduli (GPa) = 73.87144 73.87144 53.39515
#
# Poissons Ratio (x) = 0.47099 0.17417
# Poissons Ratio (y) = 0.47099 0.17417
# Poissons Ratio (z) = 0.24096 0.24096
#
# Static dielectric constant tensor:
#      x y z
#    x 3.573620 0.000000 0.000000 
#    y 0.000000 3.573620 0.000000 
#    z 0.000000 0.000000 3.382300 
# 
# 
# High freq. dielectric constant tensor:
#      x y z
#    x 1.738520 0.000000 0.000000 
#    y 0.000000 1.738520 0.000000 
#    z 0.000000 0.000000 1.734220 
# 
# From -- ./inp_files/3715.got.cif
#   From: 2010.03.12/outbox.cif.g09.slc.cpg/sg84_2_cif.got.tgz:3715.got - 2010.04.08 20:07:29.
