data_PCOD8303583
_publ_section_title
;
Structure prediction by ZEFSAII (Michael W. Deem and Ramdas Pophale) SiO2 
 PCOD8303583
Probable space group: P 42/N
;
_chemical_formula_sum "Si O2"
_cell_formula_units_Z 40
_cell_length_a 16.280584
_cell_length_b 16.280584
_cell_length_c 6.599624
_cell_angle_alpha 90.000000
_cell_angle_beta 90.000000
_cell_angle_gamma 90.000000
_cell_volume 1749.279280
_symmetry_space_group_name_H-M "P 42/N"
_symmetry_group_IT_number 86
_space_group.IT_coordinate_system_code '2'
_symmetry_cell_setting 'tetragonal'
loop_
_space_group_symop_operation_xyz
x,y,z
-y,1/2+x,1/2+z
1/2-x,1/2-y,z
1/2+y,-x,1/2+z
-x,-y,-z
y,1/2-x,1/2-z
1/2+x,1/2+y,-z
1/2-y,x,1/2-z
loop_
_atom_site_type_symbol
_atom_site_label
_atom_site_fract_x
_atom_site_fract_y
_atom_site_fract_z
Si Si1 0.109225 0.884886 0.383536
Si Si2 0.531568 0.091003 0.725883
Si Si3 0.230959 0.946255 0.070641
Si Si4 0.235404 0.384144 0.268426
Si Si5 0.027228 0.123997 0.944461
O O1 0.088629 0.962121 0.529717
O O2 0.193090 0.908983 0.275609
O O3 0.113224 0.808731 0.537857
O O4 0.042075 0.857077 0.219992
O O5 0.567481 0.172767 0.622739
O O6 0.436327 0.091096 0.664115
O O7 0.578399 0.010505 0.641017
O O8 0.252915 0.042820 0.104044
O O9 0.320635 0.335496 0.306745
O O10 0.205740 0.425404 0.481184
#
# Coordination Sequence:
#
# PCOD8303583 Si02
#       5
#     8   8   8   8   8
#     4  11  25  43  74 100 143 193 247 307 359 435
#     4  10  21  41  70 104 139 188 241 297 346 437
#     4  11  25  45  70 105 141 193 245 297 369 430
#     4  11  23  44  74 110 153 185 231 309 372 443
#     4  10  21  41  70 107 136 189 247 284 366 430
#
# _framework density 22.86656
#
# number of rings (size 3 to 8) (size 9 to 14) (size 15 to 20)
#    0.000    1.400    4.000    0.600    2.800    1.600 
#    0.000    3.000    0.000    2.400    0.000    0.000 
#    0.000    0.000    0.000    0.000    0.000    0.000 
#
# Total GULP energy -495795.900289 kJ/mol
# GULP energy per Si atom -12394.897507 kJ/mol
# Density = 2.281451 g / cm^3
# Si number density = 22.866560 Si / 1000 Ang^3
#
#
#
# Elastic Constant Matrix: (Units=GPa)
#
#
# Indices 1 2 3 4 5 6 
#
# 1 95.4256 53.8765 43.5316 0.0000 0.0000 -7.3969
# 2 53.8765 95.4256 43.5316 0.0000 0.0000 7.3969
# 3 43.5316 43.5316 122.0189 0.0000 0.0000 0.0000
# 4 0.0000 0.0000 0.0000 33.7535 0.0000 0.0000
# 5 0.0000 0.0000 0.0000 0.0000 33.7535 0.0000
# 6 -7.3969 7.3969 0.0000 0.0000 0.0000 38.4505
#
#
#
# Elastic Compliance Matrix: (Units=1/GPa)
#
#
# Indices 1 2 3 4 5 6 
#
# 1 0.017147 -0.008690 -0.003017 0.000000 0.000000 0.004971
# 2 -0.008690 0.017147 -0.003017 0.000000 0.000000 -0.004971
# 3 -0.003017 -0.003017 0.010348 0.000000 0.000000 0.000000
# 4 0.000000 0.000000 0.000000 0.029627 0.000000 0.000000
# 5 0.000000 0.000000 0.000000 0.000000 0.029627 0.000000
# 6 0.004971 -0.004971 0.000000 0.000000 0.000000 0.027920
#
#
# Mechanical properties :
#
#
# Convention : Reuss Voigt Hill
#
# Bulk Modulus (GPa) = 65.81564 66.08327 65.94945
# Shear Modulus (GPa) = 30.06070 32.65353 31.35711
#
# Velocity S-wave (km/s) = 3.62969 3.78299 3.70714
# Velocity P-wave (km/s) = 6.81258 6.93135 6.87222
#
# Compressibility (1/GPa) = 0.01519396
#
# Stress axis : x y z
#
# Youngs Moduli (GPa) = 58.31768 58.31768 96.63415
#
# Poissons Ratio (x) = 0.50679 0.29157
# Poissons Ratio (y) = 0.50679 0.29157
# Poissons Ratio (z) = 0.17596 0.17596
#
# Static dielectric constant tensor:
#      x y z
#    x 4.114190 0.000000 0.000000 
#    y 0.000000 4.114190 0.000000 
#    z 0.000000 0.000000 4.122870 
# 
# 
# High freq. dielectric constant tensor:
#      x y z
#    x 1.897690 0.000000 0.000000 
#    y 0.000000 1.897690 0.000000 
#    z 0.000000 0.000000 1.901570 
# 
# From -- ./inp_files/312.got.cif
#   From: 2010.03.12/outbox.cif.g09.slc.cpg/sg86_1_cif.got.tgz:312.got - 2010.04.08 20:12:58.
