data_PCOD8303961
_publ_section_title
;
Structure prediction by ZEFSAII (Michael W. Deem and Ramdas Pophale) SiO2 
 PCOD8303961
Probable space group: I 4/M
;
_chemical_formula_sum "Si O2"
_cell_formula_units_Z 96
_cell_length_a 23.982780
_cell_length_b 23.982780
_cell_length_c 8.684145
_cell_angle_alpha 90.000000
_cell_angle_beta 90.000000
_cell_angle_gamma 90.000000
_cell_volume 4994.892128
_symmetry_space_group_name_H-M "I 4/M"
_symmetry_group_IT_number 87
_symmetry_cell_setting 'tetragonal'
loop_
_space_group_symop_operation_xyz
x,y,z
-y,x,z
-x,-y,z
y,-x,z
-x,-y,-z
y,-x,-z
x,y,-z
-y,x,-z
1/2+x,1/2+y,1/2+z
1/2-y,1/2+x,1/2+z
1/2-x,1/2-y,1/2+z
1/2+y,1/2-x,1/2+z
1/2-x,1/2-y,1/2-z
1/2+y,1/2-x,1/2-z
1/2+x,1/2+y,1/2-z
1/2-y,1/2+x,1/2-z
loop_
_atom_site_type_symbol
_atom_site_label
_atom_site_fract_x
_atom_site_fract_y
_atom_site_fract_z
Si Si1 0.331639 0.769711 0.180078
Si Si2 0.292119 0.542863 0.183437
Si Si3 0.955847 0.300426 0.319002
Si Si4 0.164409 0.236770 0.318120
Si Si5 0.412943 0.513004 0.183248
Si Si6 0.081606 0.481427 0.681454
O O1 0.396264 0.773902 0.222455
O O2 0.298451 0.819767 0.261400
O O3 0.308344 0.710098 0.239308
O O4 0.321205 0.775836 0.000000
O O5 0.243555 0.501647 0.238965
O O6 0.279743 0.604321 0.250300
O O7 0.351284 0.522195 0.251956
O O8 0.294920 0.543344 0.000000
O O9 0.961226 0.313341 0.500000
O O10 0.963502 0.356472 0.223860
O O11 0.160883 0.237606 0.500000
O O12 0.437167 0.453617 0.240361
O O13 0.410814 0.513568 0.000000
O O14 0.075803 0.489593 0.500000
O O15 0.066925 0.539581 0.763985
#
# Coordination Sequence:
#
# PCOD8303961 Si02
#       6
#    16  16  16  16  16  16
#     4   9  19  34  52  73 103 140 178 221 269 318
#     4   9  18  29  47  72 103 140 177 218 265 321
#     4  10  21  35  52  80 112 145 182 223 271 324
#     4   9  18  33  52  75 101 137 180 221 269 319
#     4   8  14  24  41  69 104 140 176 217 268 322
#     4  11  23  41  63  85 110 142 177 220 268 324
#
# _framework density 19.219633999999999
#
# number of rings (size 3 to 8) (size 9 to 14) (size 15 to 20)
#    0.000    2.667    0.000    2.500    4.667    0.667 
#    0.000    0.000    0.000    0.000    0.000    0.000 
#    0.000    0.000    0.000    7.333    0.000    6.667 
#
# Total GULP energy -595174.956090 kJ/mol
# GULP energy per Si atom -12399.478252 kJ/mol
# Density = 1.917589 g / cm^3
# Si number density = 19.219634 Si / 1000 Ang^3
#
#
#
# Elastic Constant Matrix: (Units=GPa)
#
#
# Indices 1 2 3 4 5 6 
#
# 1 131.2936 53.9424 18.8279 0.0000 0.0000 -2.0474
# 2 53.9424 131.2936 18.8279 0.0000 0.0000 2.0474
# 3 18.8279 18.8279 25.0863 0.0000 0.0000 0.0000
# 4 0.0000 0.0000 0.0000 19.3065 0.0000 0.0000
# 5 0.0000 0.0000 0.0000 0.0000 19.3065 0.0000
# 6 -2.0474 2.0474 0.0000 0.0000 0.0000 26.0723
#
#
#
# Elastic Compliance Matrix: (Units=1/GPa)
#
#
# Indices 1 2 3 4 5 6 
#
# 1 0.009676 -0.003306 -0.004781 0.000000 0.000000 0.001019
# 2 -0.003306 0.009676 -0.004781 0.000000 0.000000 -0.001019
# 3 -0.004781 -0.004781 0.047039 0.000000 0.000000 0.000000
# 4 0.000000 0.000000 0.000000 0.051796 0.000000 0.000000
# 5 0.000000 0.000000 0.000000 0.000000 0.051796 0.000000
# 6 0.001019 -0.001019 0.000000 0.000000 0.000000 0.038515
#
#
# Mechanical properties :
#
#
# Convention : Reuss Voigt Hill
#
# Bulk Modulus (GPa) = 24.59699 52.31886 38.45793
# Shear Modulus (GPa) = 20.17864 26.00876 23.09370
#
# Velocity S-wave (km/s) = 3.24373 3.68263 3.47012
# Velocity P-wave (km/s) = 5.18215 6.73521 6.00906
#
# Compressibility (1/GPa) = 0.04065537
#
# Stress axis : x y z
#
# Youngs Moduli (GPa) = 103.34587 103.34587 21.25886
#
# Poissons Ratio (x) = 0.34164 0.10164
# Poissons Ratio (y) = 0.34164 0.10164
# Poissons Ratio (z) = 0.49412 0.49412
#
# Static dielectric constant tensor:
#      x y z
#    x 3.722630 0.000000 0.000000 
#    y 0.000000 3.722630 0.000000 
#    z 0.000000 0.000000 3.065830 
# 
# 
# High freq. dielectric constant tensor:
#      x y z
#    x 1.756880 0.000000 0.000000 
#    y 0.000000 1.756880 0.000000 
#    z 0.000000 0.000000 1.702670 
# 
# From -- ./inp_files/1404.got.cif
#   From: 2010.03.12/outbox.cif.g09.slc.cpg/sg87_1_cif.got.tgz:1404.got - 2010.04.08 20:16:13.
