data_PCOD8303055
_publ_section_title
;
Structure prediction by ZEFSAII (Michael W. Deem and Ramdas Pophale) SiO2 
 PCOD8303055
Probable space group: P 42/M
;
_chemical_formula_sum "Si O2"
_cell_formula_units_Z 32
_cell_length_a 10.306860
_cell_length_b 10.306860
_cell_length_c 17.978896
_cell_angle_alpha 90.000000
_cell_angle_beta 90.000000
_cell_angle_gamma 90.000000
_cell_volume 1909.922628
_symmetry_space_group_name_H-M "P 42/M"
_symmetry_group_IT_number 84
_symmetry_cell_setting 'tetragonal'
loop_
_space_group_symop_operation_xyz
x,y,z
-y,x,1/2+z
-x,-y,z
y,-x,1/2+z
-x,-y,-z
y,-x,1/2-z
x,y,-z
-y,x,1/2-z
loop_
_atom_site_type_symbol
_atom_site_label
_atom_site_fract_x
_atom_site_fract_y
_atom_site_fract_z
Si Si1 0.154466 0.246990 0.173841
Si Si2 0.153520 0.500026 0.915862
Si Si3 0.153412 0.999999 0.918248
Si Si4 0.154412 0.753036 0.826127
O O1 0.199610 0.374964 0.130192
O O2 0.200194 0.127408 0.123872
O O3 0.234962 0.234853 0.249971
O O4 0.000032 0.244364 0.190027
O O5 0.199575 0.625135 0.869839
O O6 0.000000 0.500000 0.922754
O O7 0.212035 0.500015 0.000000
O O8 0.200190 0.872718 0.876003
O O9 0.216627 0.999883 0.000000
O O10 0.000000 0.000000 0.924793
#
# Coordination Sequence:
#
# PCOD8303055 Si02
#       4
#     8   8   8   8
#     4  10  17  27  44  68  97 129 159 198 239 283
#     4   9  18  30  44  67 102 133 161 195 239 289
#     4   9  16  24  40  65  94 123 155 193 243 287
#     4  10  17  27  44  68  97 129 159 198 239 283
#
# _framework density 16.754605999999999
#
# number of rings (size 3 to 8) (size 9 to 14) (size 15 to 20)
#    0.000    2.500    2.500    1.500    0.000    6.000 
#    0.000    0.000    0.000    0.750    0.000   10.500 
#    0.000    0.000    0.000    0.000    0.000    0.000 
#
# Total GULP energy -396692.821370 kJ/mol
# GULP energy per Si atom -12396.650668 kJ/mol
# Density = 1.671647 g / cm^3
# Si number density = 16.754606 Si / 1000 Ang^3
#
#
#
# Elastic Constant Matrix: (Units=GPa)
#
#
# Indices 1 2 3 4 5 6 
#
# 1 92.1872 22.8437 63.3477 0.0000 0.0000 0.0287
# 2 22.8437 92.1872 63.3477 0.0000 0.0000 -0.0287
# 3 63.3477 63.3477 191.4289 0.0000 0.0000 0.0000
# 4 0.0000 0.0000 0.0000 23.2620 0.0000 0.0000
# 5 0.0000 0.0000 0.0000 0.0000 23.2620 0.0000
# 6 0.0287 -0.0287 0.0000 0.0000 0.0000 6.3812
#
#
#
# Elastic Compliance Matrix: (Units=1/GPa)
#
#
# Indices 1 2 3 4 5 6 
#
# 1 0.014050 -0.000371 -0.004527 0.000000 0.000000 -0.000065
# 2 -0.000371 0.014050 -0.004527 0.000000 0.000000 0.000065
# 3 -0.004527 -0.004527 0.008220 0.000000 0.000000 0.000000
# 4 0.000000 0.000000 0.000000 0.042989 0.000000 0.000000
# 5 0.000000 0.000000 0.000000 0.000000 0.042989 0.000000
# 6 -0.000065 0.000065 0.000000 0.000000 0.000000 0.156712
#
#
# Mechanical properties :
#
#
# Convention : Reuss Voigt Hill
#
# Bulk Modulus (GPa) = 57.23721 74.98685 66.11203
# Shear Modulus (GPa) = 16.46463 25.66529 21.06496
#
# Velocity S-wave (km/s) = 3.13819 3.91811 3.54964
# Velocity P-wave (km/s) = 6.88239 8.08220 7.50630
#
# Compressibility (1/GPa) = 0.01747115
#
# Stress axis : x y z
#
# Youngs Moduli (GPa) = 71.17433 71.17433 121.65742
#
# Poissons Ratio (x) = 0.02641 0.55070
# Poissons Ratio (y) = 0.02641 0.55070
# Poissons Ratio (z) = 0.32218 0.32218
#
# Static dielectric constant tensor:
#      x y z
#    x 2.851780 0.000000 0.000000 
#    y 0.000000 2.851780 0.000000 
#    z 0.000000 0.000000 3.454660 
# 
# 
# High freq. dielectric constant tensor:
#      x y z
#    x 1.604310 0.000000 0.000000 
#    y 0.000000 1.604310 0.000000 
#    z 0.000000 0.000000 1.669970 
# 
# From -- ./inp_files/2729.got.cif
#   From: 2010.03.12/outbox.cif.g09.slc.cpg/sg84_2_cif.got.tgz:2729.got - 2010.04.08 20:07:29.
