data_PCOD8303820
_publ_section_title
;
Structure prediction by ZEFSAII (Michael W. Deem and Ramdas Pophale) SiO2 
 PCOD8303820
Probable space group: I 4/M
;
_chemical_formula_sum "Si O2"
_cell_formula_units_Z 96
_cell_length_a 23.204062
_cell_length_b 23.204062
_cell_length_c 9.105937
_cell_angle_alpha 90.000000
_cell_angle_beta 90.000000
_cell_angle_gamma 90.000000
_cell_volume 4902.895939
_symmetry_space_group_name_H-M "I 4/M"
_symmetry_group_IT_number 87
_symmetry_cell_setting 'tetragonal'
loop_
_space_group_symop_operation_xyz
x,y,z
-y,x,z
-x,-y,z
y,-x,z
-x,-y,-z
y,-x,-z
x,y,-z
-y,x,-z
1/2+x,1/2+y,1/2+z
1/2-y,1/2+x,1/2+z
1/2-x,1/2-y,1/2+z
1/2+y,1/2-x,1/2+z
1/2-x,1/2-y,1/2-z
1/2+y,1/2-x,1/2-z
1/2+x,1/2+y,1/2-z
1/2-y,1/2+x,1/2-z
loop_
_atom_site_type_symbol
_atom_site_label
_atom_site_fract_x
_atom_site_fract_y
_atom_site_fract_z
Si Si1 0.208476 0.948208 0.827741
Si Si2 0.906654 0.364995 0.169621
Si Si3 0.214232 0.330264 0.829637
Si Si4 0.035134 0.339608 0.831332
Si Si5 0.003579 0.090419 0.826230
Si Si6 0.334278 0.278719 0.170970
O O1 0.272170 0.971158 0.785789
O O2 0.157995 0.993053 0.779057
O O3 0.192876 0.890749 0.738197
O O4 0.204413 0.934532 0.000000
O O5 0.889229 0.306583 0.255057
O O6 0.872669 0.419775 0.230656
O O7 0.974771 0.372123 0.192409
O O8 0.890847 0.357462 0.000000
O O9 0.281935 0.322871 0.801369
O O10 0.176771 0.280404 0.755372
O O11 0.198721 0.330130 0.000000
O O12 0.055407 0.344113 0.000000
O O13 0.945312 0.059778 0.766599
O O14 0.003954 0.086767 0.000000
O O15 0.342007 0.264773 0.000000
#
# Coordination Sequence:
#
# PCOD8303820 Si02
#       6
#    16  16  16  16  16  16
#     4  10  19  33  56  83 113 147 184 234 286 328
#     4  11  23  39  60  84 112 148 190 234 286 346
#     4  10  20  35  55  80 112 146 181 227 280 333
#     4  10  23  40  57  82 113 145 187 239 290 342
#     4   8  15  29  51  81 114 148 189 232 272 320
#     4  10  20  33  53  82 113 146 184 223 273 337
#
# _framework density 19.580265000000001
#
# number of rings (size 3 to 8) (size 9 to 14) (size 15 to 20)
#    0.000    2.167    1.667    2.000    0.000    5.000 
#    0.000    5.000    0.000    1.000    0.000    1.167 
#    0.000    0.000    0.000    0.000    0.000    0.000 
#
# Total GULP energy -595046.200869 kJ/mol
# GULP energy per Si atom -12396.795851 kJ/mol
# Density = 1.953570 g / cm^3
# Si number density = 19.580265 Si / 1000 Ang^3
#
#
#
# Elastic Constant Matrix: (Units=GPa)
#
#
# Indices 1 2 3 4 5 6 
#
# 1 92.7734 39.3913 32.4111 0.0000 0.0000 -6.0032
# 2 39.3913 92.7734 32.4111 0.0000 0.0000 6.0032
# 3 32.4111 32.4111 78.1702 0.0000 0.0000 0.0000
# 4 0.0000 0.0000 0.0000 27.3346 0.0000 0.0000
# 5 0.0000 0.0000 0.0000 0.0000 27.3346 0.0000
# 6 -6.0032 6.0032 0.0000 0.0000 0.0000 21.6984
#
#
#
# Elastic Compliance Matrix: (Units=1/GPa)
#
#
# Indices 1 2 3 4 5 6 
#
# 1 0.014737 -0.005239 -0.003938 0.000000 0.000000 0.005527
# 2 -0.005239 0.014737 -0.003938 0.000000 0.000000 -0.005527
# 3 -0.003938 -0.003938 0.016058 0.000000 0.000000 0.000000
# 4 0.000000 0.000000 0.000000 0.036584 0.000000 0.000000
# 5 0.000000 0.000000 0.000000 0.000000 0.036584 0.000000
# 6 0.005527 -0.005527 0.000000 0.000000 0.000000 0.049144
#
#
# Mechanical properties :
#
#
# Convention : Reuss Voigt Hill
#
# Bulk Modulus (GPa) = 51.80880 52.46044 52.13462
# Shear Modulus (GPa) = 24.93674 25.90712 25.42193
#
# Velocity S-wave (km/s) = 3.57258 3.64142 3.60716
# Velocity P-wave (km/s) = 6.59810 6.67313 6.63572
#
# Compressibility (1/GPa) = 0.01930174
#
# Stress axis : x y z
#
# Youngs Moduli (GPa) = 67.85722 67.85722 62.27374
#
# Poissons Ratio (x) = 0.35551 0.24523
# Poissons Ratio (y) = 0.35551 0.24523
# Poissons Ratio (z) = 0.26722 0.26722
#
# Static dielectric constant tensor:
#      x y z
#    x 3.646390 0.000000 0.000000 
#    y 0.000000 3.646390 0.000000 
#    z 0.000000 0.000000 3.441790 
# 
# 
# High freq. dielectric constant tensor:
#      x y z
#    x 1.760050 0.000000 0.000000 
#    y 0.000000 1.760050 0.000000 
#    z 0.000000 0.000000 1.746830 
# 
# From -- ./inp_files/1352.got.cif
#   From: 2010.03.12/outbox.cif.g09.slc.cpg/sg87_1_cif.got.tgz:1352.got - 2010.04.08 20:16:13.
