data_PCOD8303577
_publ_section_title
;
Structure prediction by ZEFSAII (Michael W. Deem and Ramdas Pophale) SiO2 
 PCOD8303577
Probable space group: P 42/N
;
_chemical_formula_sum "Si O2"
_cell_formula_units_Z 48
_cell_length_a 8.891762
_cell_length_b 8.891762
_cell_length_c 28.725059
_cell_angle_alpha 90.000000
_cell_angle_beta 90.000000
_cell_angle_gamma 90.000000
_cell_volume 2271.101734
_symmetry_space_group_name_H-M "P 42/N"
_symmetry_group_IT_number 86
_space_group.IT_coordinate_system_code '2'
_symmetry_cell_setting 'tetragonal'
loop_
_space_group_symop_operation_xyz
x,y,z
-y,1/2+x,1/2+z
1/2-x,1/2-y,z
1/2+y,-x,1/2+z
-x,-y,-z
y,1/2-x,1/2-z
1/2+x,1/2+y,-z
1/2-y,x,1/2-z
loop_
_atom_site_type_symbol
_atom_site_label
_atom_site_fract_x
_atom_site_fract_y
_atom_site_fract_z
Si Si1 0.087914 0.427983 0.851194
Si Si2 0.889845 0.027501 0.186662
Si Si3 0.765164 0.928938 0.626274
Si Si4 0.315210 0.589492 0.465461
Si Si5 0.740440 0.083521 0.280496
Si Si6 0.665963 0.597561 0.449900
O O1 0.269099 0.449651 0.848104
O O2 0.055822 0.318295 0.895355
O O3 0.990304 0.577038 0.855947
O O4 0.032643 0.352953 0.804248
O O5 0.786608 0.102174 0.226580
O O6 0.986110 0.142925 0.157002
O O7 0.012146 0.922699 0.211978
O O8 0.750000 0.750000 0.632961
O O9 0.749475 0.970219 0.571830
O O10 0.250000 0.750000 0.453774
O O11 0.491969 0.613726 0.461914
O O12 0.266741 0.533366 0.516974
O O13 0.750000 0.250000 0.303231
O O14 0.750000 0.750000 0.462625
#
# Coordination Sequence:
#
# PCOD8303577 Si02
#       6
#     8   8   8   8   8   8
#     4  11  23  42  65  92 132 173 223 275 341 402
#     4  12  24  43  67  92 130 176 224 277 337 411
#     4  11  23  43  67  96 131 176 222 282 340 406
#     4  10  22  40  65  94 132 174 223 274 342 414
#     4  12  25  41  62  96 127 169 224 274 332 403
#     4  10  21  39  62  94 126 169 221 277 333 403
#
# _framework density 21.135117000000001
#
# number of rings (size 3 to 8) (size 9 to 14) (size 15 to 20)
#    0.000    1.000    1.667    6.500    0.000    1.333 
#    0.000    6.667    0.000    0.000    0.000    0.000 
#    0.000    0.000    0.000    0.000    0.000    0.000 
#
# Total GULP energy -595095.324625 kJ/mol
# GULP energy per Si atom -12397.819263 kJ/mol
# Density = 2.108701 g / cm^3
# Si number density = 21.135117 Si / 1000 Ang^3
#
#
#
# Elastic Constant Matrix: (Units=GPa)
#
#
# Indices 1 2 3 4 5 6 
#
# 1 92.8846 24.7105 31.7562 0.0000 0.0000 1.5788
# 2 24.7105 92.8846 31.7562 0.0000 0.0000 -1.5788
# 3 31.7562 31.7562 127.5528 0.0000 0.0000 0.0000
# 4 0.0000 0.0000 0.0000 10.3882 0.0000 0.0000
# 5 0.0000 0.0000 0.0000 0.0000 10.3882 0.0000
# 6 1.5788 -1.5788 0.0000 0.0000 0.0000 38.1416
#
#
#
# Elastic Compliance Matrix: (Units=1/GPa)
#
#
# Indices 1 2 3 4 5 6 
#
# 1 0.012261 -0.002436 -0.002446 0.000000 0.000000 -0.000608
# 2 -0.002436 0.012261 -0.002446 0.000000 0.000000 0.000608
# 3 -0.002446 -0.002446 0.009058 0.000000 0.000000 0.000000
# 4 0.000000 0.000000 0.000000 0.096263 0.000000 0.000000
# 5 0.000000 0.000000 0.000000 0.000000 0.096263 0.000000
# 6 -0.000608 0.000608 0.000000 0.000000 0.000000 0.026268
#
#
# Mechanical properties :
#
#
# Convention : Reuss Voigt Hill
#
# Bulk Modulus (GPa) = 52.84470 54.41864 53.63167
# Shear Modulus (GPa) = 18.29236 26.79019 22.54127
#
# Velocity S-wave (km/s) = 2.94512 3.56415 3.26932
# Velocity P-wave (km/s) = 6.05166 6.53769 6.29937
#
# Compressibility (1/GPa) = 0.01892337
#
# Stress axis : x y z
#
# Youngs Moduli (GPa) = 81.56153 81.56153 110.40152
#
# Poissons Ratio (x) = 0.19867 0.27005
# Poissons Ratio (y) = 0.19867 0.27005
# Poissons Ratio (z) = 0.19950 0.19950
#
# Static dielectric constant tensor:
#      x y z
#    x 3.848310 0.000000 0.000000 
#    y 0.000000 3.848310 0.000000 
#    z 0.000000 0.000000 4.166180 
# 
# 
# High freq. dielectric constant tensor:
#      x y z
#    x 1.828720 0.000000 0.000000 
#    y 0.000000 1.828720 0.000000 
#    z 0.000000 0.000000 1.842570 
# 
# From -- ./inp_files/5156.got.cif
#   From: 2010.03.12/outbox.cif.g09.slc.cpg/sg86_3_cif.got.tgz:5156.got - 2010.04.08 20:12:58.
