data_PCOD8303117
_publ_section_title
;
Structure prediction by ZEFSAII (Michael W. Deem and Ramdas Pophale) SiO2 
 PCOD8303117
Probable space group: P 42/M
;
_chemical_formula_sum "Si O2"
_cell_formula_units_Z 56
_cell_length_a 11.146423
_cell_length_b 11.146423
_cell_length_c 23.510448
_cell_angle_alpha 90.000000
_cell_angle_beta 90.000000
_cell_angle_gamma 90.000000
_cell_volume 2921.002612
_symmetry_space_group_name_H-M "P 42/M"
_symmetry_group_IT_number 84
_symmetry_cell_setting 'tetragonal'
loop_
_space_group_symop_operation_xyz
x,y,z
-y,x,1/2+z
-x,-y,z
y,-x,1/2+z
-x,-y,-z
y,-x,1/2-z
x,y,-z
-y,x,1/2-z
loop_
_atom_site_type_symbol
_atom_site_label
_atom_site_fract_x
_atom_site_fract_y
_atom_site_fract_z
Si Si1 0.291504 0.060815 0.935379
Si Si2 0.699036 0.506455 0.249371
Si Si3 0.750625 0.579498 0.131076
Si Si4 0.774923 0.444530 0.366689
Si Si5 0.840772 0.169997 0.064911
Si Si6 0.355583 0.635460 0.064977
Si Si7 0.089159 0.260402 0.935703
O O1 0.405279 0.099199 0.896103
O O2 0.195465 0.166013 0.936336
O O3 0.230917 0.942019 0.907157
O O4 0.337408 0.035763 0.000000
O O5 0.619909 0.387417 0.241200
O O6 0.779558 0.521141 0.192511
O O7 0.789834 0.499330 0.303233
O O8 0.673708 0.697270 0.141628
O O9 0.667662 0.491912 0.093829
O O10 0.873045 0.620233 0.099522
O O11 0.707564 0.536854 0.407103
O O12 0.766206 0.290609 0.070776
O O13 0.971129 0.198126 0.092378
O O14 0.862349 0.130323 0.000000
O O15 0.391454 0.612430 0.000000
O O16 0.059298 0.302804 0.000000
#
# Coordination Sequence:
#
# PCOD8303117 Si02
#       7
#     8   8   8   8   8   8   8
#     4   9  17  31  52  77 103 134 176 221 263 312
#     4   9  16  30  50  73 100 134 175 210 261 320
#     4  10  19  31  50  78 102 137 173 219 261 315
#     4  10  19  31  50  78 102 137 173 219 261 315
#     4   9  19  33  49  71 103 143 175 207 262 320
#     4  11  21  31  47  75 111 143 167 209 270 320
#     4   9  17  31  52  77 103 134 176 221 263 312
#
# _framework density 19.171499000000001
#
# number of rings (size 3 to 8) (size 9 to 14) (size 15 to 20)
#    0.000    2.429    1.429    1.714    0.000    5.143 
#    0.000    4.286    0.000    3.429    0.000    0.000 
#    4.286    0.000    0.000    0.000    0.000    0.000 
#
# Total GULP energy -694115.822342 kJ/mol
# GULP energy per Si atom -12394.925399 kJ/mol
# Density = 1.912786 g / cm^3
# Si number density = 19.171499 Si / 1000 Ang^3
#
#
#
# Elastic Constant Matrix: (Units=GPa)
#
#
# Indices 1 2 3 4 5 6 
#
# 1 45.3587 36.9786 36.1453 0.0000 0.0000 3.0329
# 2 36.9786 45.3587 36.1453 0.0000 0.0000 -3.0329
# 3 36.1453 36.1453 128.8967 0.0000 0.0000 0.0000
# 4 0.0000 0.0000 0.0000 15.5145 0.0000 0.0000
# 5 0.0000 0.0000 0.0000 0.0000 15.5145 0.0000
# 6 3.0329 -3.0329 0.0000 0.0000 0.0000 34.6804
#
#
#
# Elastic Compliance Matrix: (Units=1/GPa)
#
#
# Indices 1 2 3 4 5 6 
#
# 1 0.071753 -0.055641 -0.004518 0.000000 0.000000 -0.011141
# 2 -0.055641 0.071753 -0.004518 0.000000 0.000000 0.011141
# 3 -0.004518 -0.004518 0.010292 0.000000 0.000000 0.000000
# 4 0.000000 0.000000 0.000000 0.064456 0.000000 0.000000
# 5 0.000000 0.000000 0.000000 0.000000 0.064456 0.000000
# 6 -0.011141 0.011141 0.000000 0.000000 0.000000 0.030783
#
#
# Mechanical properties :
#
#
# Convention : Reuss Voigt Hill
#
# Bulk Modulus (GPa) = 40.91058 48.68364 44.79711
# Shear Modulus (GPa) = 11.08654 20.49819 15.79236
#
# Velocity S-wave (km/s) = 2.40736 3.27341 2.87320
# Velocity P-wave (km/s) = 5.39562 6.30364 5.86722
#
# Compressibility (1/GPa) = 0.02444356
#
# Stress axis : x y z
#
# Youngs Moduli (GPa) = 13.93662 13.93662 97.16176
#
# Poissons Ratio (x) = 0.77545 0.43899
# Poissons Ratio (y) = 0.77545 0.43899
# Poissons Ratio (z) = 0.06297 0.06297
#
# Static dielectric constant tensor:
#      x y z
#    x 3.479090 0.000000 0.000000 
#    y 0.000000 3.479090 0.000000 
#    z 0.000000 0.000000 3.678530 
# 
# 
# High freq. dielectric constant tensor:
#      x y z
#    x 1.736030 0.000000 0.000000 
#    y 0.000000 1.736030 0.000000 
#    z 0.000000 0.000000 1.723400 
# 
# From -- ./inp_files/5048.got.cif
#   From: 2010.03.12/outbox.cif.g09.slc.cpg/sg84_3_cif.got.tgz:5048.got - 2010.04.08 20:07:29.
