data_PCOD8303030
_publ_section_title
;
Structure prediction by ZEFSAII (Michael W. Deem and Ramdas Pophale) SiO2 
 PCOD8303030
Probable space group: P 4/M
;
_chemical_formula_sum "Si O2"
_cell_formula_units_Z 40
_cell_length_a 8.713182
_cell_length_b 8.713182
_cell_length_c 26.739056
_cell_angle_alpha 90.000000
_cell_angle_beta 90.000000
_cell_angle_gamma 90.000000
_cell_volume 2030.016847
_symmetry_space_group_name_H-M "P 4/M"
_symmetry_group_IT_number 83
_symmetry_cell_setting 'tetragonal'
loop_
_space_group_symop_operation_xyz
x,y,z
-y,x,z
-x,-y,z
y,-x,z
-x,-y,-z
y,-x,-z
x,y,-z
-y,x,-z
loop_
_atom_site_type_symbol
_atom_site_label
_atom_site_fract_x
_atom_site_fract_y
_atom_site_fract_z
Si Si1 0.241878 0.933984 0.201112
Si Si2 0.258300 0.417296 0.391913
Si Si3 0.921958 0.761282 0.315011
Si Si4 0.500000 0.000000 0.870481
Si Si5 0.582822 0.262068 0.500000
Si Si6 0.439929 0.256185 0.943240
O O1 0.383414 0.903241 0.164191
O O2 0.185448 0.106656 0.190739
O O3 0.296987 0.910517 0.258038
O O4 0.406827 0.308661 0.385476
O O5 0.130289 0.377528 0.350686
O O6 0.177257 0.387840 0.446792
O O7 0.095742 0.810027 0.325818
O O8 0.593913 0.882558 0.905494
O O9 0.690572 0.407821 0.500000
O O10 0.611199 0.317208 0.933427
O O11 0.424745 0.196113 0.000000
#
# Coordination Sequence:
#
# PCOD8303030 Si02
#       6
#     8   8   8   4   4   8
#     4   9  20  36  50  69 100 133 164 203 252 297
#     4   9  17  30  51  76  98 122 158 203 247 292
#     4   9  19  35  50  65  93 133 168 197 241 299
#     4  12  19  30  56  82  96 125 176 214 238 280
#     4   7  12  26  46  69  98 126 150 189 248 299
#     4   9  19  35  52  74 107 139 164 198 247 296
#
# _framework density 19.704269
#
# number of rings (size 3 to 8) (size 9 to 14) (size 15 to 20)
#    0.000    2.900    0.000    4.500    0.000    4.000 
#    0.000    1.000    0.000    7.200    0.000    8.400 
#    0.000    0.000    0.000    0.000    0.000    0.000 
#
# Total GULP energy -495726.786950 kJ/mol
# GULP energy per Si atom -12393.169674 kJ/mol
# Density = 1.965942 g / cm^3
# Si number density = 19.704269 Si / 1000 Ang^3
#
#
#
# Elastic Constant Matrix: (Units=GPa)
#
#
# Indices 1 2 3 4 5 6 
#
# 1 40.1460 4.5099 37.6347 0.0000 0.0000 1.7577
# 2 4.5099 40.1460 37.6347 0.0000 0.0000 -1.7577
# 3 37.6347 37.6347 134.3415 0.0000 0.0000 0.0000
# 4 0.0000 0.0000 0.0000 30.3010 0.0000 0.0000
# 5 0.0000 0.0000 0.0000 0.0000 30.3010 0.0000
# 6 1.7577 -1.7577 0.0000 0.0000 0.0000 25.0301
#
#
#
# Elastic Compliance Matrix: (Units=1/GPa)
#
#
# Indices 1 2 3 4 5 6 
#
# 1 0.035342 0.007085 -0.011886 0.000000 0.000000 -0.001984
# 2 0.007085 0.035342 -0.011886 0.000000 0.000000 0.001984
# 3 -0.011886 -0.011886 0.014103 0.000000 0.000000 0.000000
# 4 0.000000 0.000000 0.000000 0.033002 0.000000 0.000000
# 5 0.000000 0.000000 0.000000 0.000000 0.033002 0.000000
# 6 -0.001984 0.001984 0.000000 0.000000 0.000000 0.040231
#
#
# Mechanical properties :
#
#
# Convention : Reuss Voigt Hill
#
# Bulk Modulus (GPa) = 19.44962 41.57692 30.51327
# Shear Modulus (GPa) = 20.70107 26.11668 23.40887
#
# Velocity S-wave (km/s) = 3.24479 3.64460 3.45049
# Velocity P-wave (km/s) = 4.89187 6.23354 5.60301
#
# Compressibility (1/GPa) = 0.05141489
#
# Stress axis : x y z
#
# Youngs Moduli (GPa) = 28.29479 28.29479 70.90656
#
# Poissons Ratio (x) = -0.20047 0.84277
# Poissons Ratio (y) = -0.20047 0.84277
# Poissons Ratio (z) = 0.33630 0.33630
#
# Static dielectric constant tensor:
#      x y z
#    x 3.248940 0.000000 0.000000 
#    y 0.000000 3.248940 0.000000 
#    z 0.000000 0.000000 3.793350 
# 
# 
# High freq. dielectric constant tensor:
#      x y z
#    x 1.743910 0.000000 0.000000 
#    y 0.000000 1.743910 0.000000 
#    z 0.000000 0.000000 1.783800 
# 
# From -- ./inp_files/3276.got.cif
#   From: 2010.03.12/outbox.cif.g09.slc.cpg/sg83_2_cif.got.tgz:3276.got - 2010.04.08 20:05:18.
