data_PCOD8303664
_publ_section_title
;
Structure prediction by ZEFSAII (Michael W. Deem and Ramdas Pophale) SiO2 
 PCOD8303664
Probable space group: P 42/N
;
_chemical_formula_sum "Si O2"
_cell_formula_units_Z 56
_cell_length_a 12.228193
_cell_length_b 12.228193
_cell_length_c 18.315873
_cell_angle_alpha 90.000000
_cell_angle_beta 90.000000
_cell_angle_gamma 90.000000
_cell_volume 2738.748753
_symmetry_space_group_name_H-M "P 42/N"
_symmetry_group_IT_number 86
_space_group.IT_coordinate_system_code '2'
_symmetry_cell_setting 'tetragonal'
loop_
_space_group_symop_operation_xyz
x,y,z
-y,1/2+x,1/2+z
1/2-x,1/2-y,z
1/2+y,-x,1/2+z
-x,-y,-z
y,1/2-x,1/2-z
1/2+x,1/2+y,-z
1/2-y,x,1/2-z
loop_
_atom_site_type_symbol
_atom_site_label
_atom_site_fract_x
_atom_site_fract_y
_atom_site_fract_z
Si Si1 0.020064 0.977733 0.350253
Si Si2 0.357268 0.180799 0.895551
Si Si3 0.145746 0.684751 0.930491
Si Si4 0.541991 0.873723 0.582266
Si Si5 0.477955 0.350551 0.472941
Si Si6 0.885839 0.866194 0.764196
Si Si7 0.492052 0.662805 0.034245
O O1 0.133354 0.910325 0.357978
O O2 0.915627 0.895984 0.339031
O O3 0.007173 0.034172 0.430874
O O4 0.029784 0.065750 0.286197
O O5 0.250000 0.250000 0.869898
O O6 0.456783 0.265260 0.901247
O O7 0.344080 0.128108 0.975547
O O8 0.250000 0.750000 0.901536
O O9 0.182283 0.586249 0.983194
O O10 0.069328 0.767324 0.973646
O O11 0.542974 0.742335 0.587810
O O12 0.604487 0.918832 0.653168
O O13 0.599008 0.911573 0.507473
O O14 0.417228 0.913507 0.579266
O O15 0.902455 0.737618 0.753619
#
# Coordination Sequence:
#
# PCOD8303664 Si02
#       7
#     8   8   8   8   8   8   8
#     4  11  22  38  61  92 128 164 205 252 305 383
#     4  11  21  35  63  93 122 162 204 257 312 359
#     4  11  20  34  59  89 122 159 196 255 312 352
#     4  11  23  35  59  93 119 156 203 247 307 365
#     4  11  19  34  59  94 123 151 203 252 306 368
#     4  11  24  40  64  90 126 163 195 246 311 386
#     4  11  21  36  60  88 123 153 200 261 297 357
#
# _framework density 20.447295
#
# number of rings (size 3 to 8) (size 9 to 14) (size 15 to 20)
#    0.000    1.000    7.143    1.714    0.000    0.000 
#    0.000    0.000   12.571    0.000    0.000    0.000 
#    0.000    0.000    0.000    0.000    0.000    0.000 
#
# Total GULP energy -694324.909818 kJ/mol
# GULP energy per Si atom -12398.659104 kJ/mol
# Density = 2.040076 g / cm^3
# Si number density = 20.447295 Si / 1000 Ang^3
#
#
#
# Elastic Constant Matrix: (Units=GPa)
#
#
# Indices 1 2 3 4 5 6 
#
# 1 96.6558 34.9080 4.9652 0.0000 0.0000 -2.5263
# 2 34.9080 96.6558 4.9652 0.0000 0.0000 2.5263
# 3 4.9652 4.9652 47.8538 0.0000 0.0000 0.0000
# 4 0.0000 0.0000 0.0000 20.9827 0.0000 0.0000
# 5 0.0000 0.0000 0.0000 0.0000 20.9827 0.0000
# 6 -2.5263 2.5263 0.0000 0.0000 0.0000 42.4768
#
#
#
# Elastic Compliance Matrix: (Units=1/GPa)
#
#
# Indices 1 2 3 4 5 6 
#
# 1 0.011967 -0.004307 -0.000795 0.000000 0.000000 0.000968
# 2 -0.004307 0.011967 -0.000795 0.000000 0.000000 -0.000968
# 3 -0.000795 -0.000795 0.021062 0.000000 0.000000 0.000000
# 4 0.000000 0.000000 0.000000 0.047658 0.000000 0.000000
# 5 0.000000 0.000000 0.000000 0.000000 0.047658 0.000000
# 6 0.000968 -0.000968 0.000000 0.000000 0.000000 0.023657
#
#
# Mechanical properties :
#
#
# Convention : Reuss Voigt Hill
#
# Bulk Modulus (GPa) = 30.11668 36.76025 33.43846
# Shear Modulus (GPa) = 26.76206 29.97691 28.36948
#
# Velocity S-wave (km/s) = 3.62170 3.83307 3.72888
# Velocity P-wave (km/s) = 5.67890 6.13245 5.91003
#
# Compressibility (1/GPa) = 0.03320419
#
# Stress axis : x y z
#
# Youngs Moduli (GPa) = 83.55966 83.55966 47.47898
#
# Poissons Ratio (x) = 0.35986 0.03774
# Poissons Ratio (y) = 0.35986 0.03774
# Poissons Ratio (z) = 0.06642 0.06642
#
# Static dielectric constant tensor:
#      x y z
#    x 3.862570 0.000000 0.000000 
#    y 0.000000 3.862570 0.000000 
#    z 0.000000 0.000000 3.204840 
# 
# 
# High freq. dielectric constant tensor:
#      x y z
#    x 1.809660 0.000000 0.000000 
#    y 0.000000 1.809660 0.000000 
#    z 0.000000 0.000000 1.753310 
# 
# From -- ./inp_files/4171.got.cif
#   From: 2010.03.12/outbox.cif.g09.slc.cpg/sg86_3_cif.got.tgz:4171.got - 2010.04.08 20:12:58.
