data_PCOD8303799
_publ_section_title
;
Structure prediction by ZEFSAII (Michael W. Deem and Ramdas Pophale) SiO2 
 PCOD8303799
Probable space group: I 4/M
;
_chemical_formula_sum "Si O2"
_cell_formula_units_Z 112
_cell_length_a 15.904879
_cell_length_b 15.904879
_cell_length_c 25.294167
_cell_angle_alpha 90.000000
_cell_angle_beta 90.000000
_cell_angle_gamma 90.000000
_cell_volume 6398.543407
_symmetry_space_group_name_H-M "I 4/M"
_symmetry_group_IT_number 87
_symmetry_cell_setting 'tetragonal'
loop_
_space_group_symop_operation_xyz
x,y,z
-y,x,z
-x,-y,z
y,-x,z
-x,-y,-z
y,-x,-z
x,y,-z
-y,x,-z
1/2+x,1/2+y,1/2+z
1/2-y,1/2+x,1/2+z
1/2-x,1/2-y,1/2+z
1/2+y,1/2-x,1/2+z
1/2-x,1/2-y,1/2-z
1/2+y,1/2-x,1/2-z
1/2+x,1/2+y,1/2-z
1/2-y,1/2+x,1/2-z
loop_
_atom_site_type_symbol
_atom_site_label
_atom_site_fract_x
_atom_site_fract_y
_atom_site_fract_z
Si Si1 0.878482 0.452162 0.229840
Si Si2 0.551959 0.175169 0.560549
Si Si3 0.127640 0.329945 0.894615
Si Si4 0.404073 0.986212 0.386154
Si Si5 0.895964 0.087470 0.839067
Si Si6 0.165714 0.831659 0.940698
Si Si7 0.744645 0.164307 0.216392
O O1 0.891721 0.542287 0.257627
O O2 0.859852 0.459523 0.167794
O O3 0.792486 0.410438 0.248759
O O4 0.519987 0.179024 0.500000
O O5 0.472941 0.189586 0.599790
O O6 0.598973 0.086182 0.569729
O O7 0.622858 0.243418 0.572725
O O8 0.139151 0.428516 0.909100
O O9 0.177023 0.267204 0.934134
O O10 0.165198 0.313689 0.836184
O O11 0.500000 0.000000 0.369151
O O12 0.869498 0.099258 0.900284
O O13 0.839334 0.142523 0.800099
O O14 0.989765 0.116927 0.827500
O O15 0.144515 0.861498 0.000000
O O16 0.750000 0.250000 0.250000
#
# Coordination Sequence:
#
# PCOD8303799 Si02
#       7
#    16  16  16  16  16  16  16
#     4  11  19  34  56  81 108 139 176 224 269 318
#     4  10  21  35  55  80 109 143 175 218 275 323
#     4  10  20  35  49  78 106 138 179 216 262 318
#     4  10  19  32  53  78 106 137 174 215 265 325
#     4  10  23  39  54  75 106 143 181 225 267 316
#     4  10  20  34  54  77 106 142 180 221 261 315
#     4  11  24  35  55  79 106 142 182 221 271 314
#
# _framework density 17.503983000000002
#
# number of rings (size 3 to 8) (size 9 to 14) (size 15 to 20)
#    0.000    1.714    2.857    3.000    6.000    4.857 
#    0.000    0.714    0.000    0.000    0.000    0.000 
#    0.000    0.571    0.000    3.143    0.000    0.000 
#
# Total GULP energy -694094.060252 kJ/mol
# GULP energy per Si atom -12394.536790 kJ/mol
# Density = 1.746414 g / cm^3
# Si number density = 17.503983 Si / 1000 Ang^3
#
#
#
# Elastic Constant Matrix: (Units=GPa)
#
#
# Indices 1 2 3 4 5 6 
#
# 1 85.6648 56.9083 44.2163 0.0000 0.0000 6.2080
# 2 56.9083 85.6648 44.2163 0.0000 0.0000 -6.2080
# 3 44.2163 44.2163 74.0312 0.0000 0.0000 0.0000
# 4 0.0000 0.0000 0.0000 24.0274 0.0000 0.0000
# 5 0.0000 0.0000 0.0000 0.0000 24.0274 0.0000
# 6 6.2080 -6.2080 0.0000 0.0000 0.0000 26.5175
#
#
#
# Elastic Compliance Matrix: (Units=1/GPa)
#
#
# Indices 1 2 3 4 5 6 
#
# 1 0.024913 -0.013772 -0.006654 0.000000 0.000000 -0.009057
# 2 -0.013772 0.024913 -0.006654 0.000000 0.000000 0.009057
# 3 -0.006654 -0.006654 0.021457 0.000000 0.000000 0.000000
# 4 0.000000 0.000000 0.000000 0.041619 0.000000 0.000000
# 5 0.000000 0.000000 0.000000 0.000000 0.041619 0.000000
# 6 -0.009057 0.009057 0.000000 0.000000 0.000000 0.041951
#
#
# Mechanical properties :
#
#
# Convention : Reuss Voigt Hill
#
# Bulk Modulus (GPa) = 58.40449 59.56030 58.98239
# Shear Modulus (GPa) = 19.50525 21.58247 20.54386
#
# Velocity S-wave (km/s) = 3.34178 3.51522 3.42960
# Velocity P-wave (km/s) = 6.95190 7.11170 7.03225
#
# Compressibility (1/GPa) = 0.01712197
#
# Stress axis : x y z
#
# Youngs Moduli (GPa) = 40.13933 40.13933 46.60563
#
# Poissons Ratio (x) = 0.55279 0.31013
# Poissons Ratio (y) = 0.55279 0.31013
# Poissons Ratio (z) = 0.26710 0.26710
#
# Static dielectric constant tensor:
#      x y z
#    x 3.273440 0.000000 0.000000 
#    y 0.000000 3.273440 0.000000 
#    z 0.000000 0.000000 3.260310 
# 
# 
# High freq. dielectric constant tensor:
#      x y z
#    x 1.664450 0.000000 0.000000 
#    y 0.000000 1.664450 0.000000 
#    z 0.000000 0.000000 1.674800 
# 
# From -- ./inp_files/5862.got.cif
#   From: 2010.03.12/outbox.cif.g09.slc.cpg/sg87_3_cif.got.tgz:5862.got - 2010.04.08 20:16:13.
