data_PCOD8303170
_publ_section_title
;
Structure prediction by ZEFSAII (Michael W. Deem and Ramdas Pophale) SiO2 
 PCOD8303170
Probable space group: P 42/M
;
_chemical_formula_sum "Si O2"
_cell_formula_units_Z 40
_cell_length_a 15.120528
_cell_length_b 15.120528
_cell_length_c 8.698835
_cell_angle_alpha 90.000000
_cell_angle_beta 90.000000
_cell_angle_gamma 90.000000
_cell_volume 1988.817839
_symmetry_space_group_name_H-M "P 42/M"
_symmetry_group_IT_number 84
_symmetry_cell_setting 'tetragonal'
loop_
_space_group_symop_operation_xyz
x,y,z
-y,x,1/2+z
-x,-y,z
y,-x,1/2+z
-x,-y,-z
y,-x,1/2-z
x,y,-z
-y,x,1/2-z
loop_
_atom_site_type_symbol
_atom_site_label
_atom_site_fract_x
_atom_site_fract_y
_atom_site_fract_z
Si Si1 0.598077 0.197682 0.819079
Si Si2 0.068942 0.752455 0.818569
Si Si3 0.914383 0.440168 0.678041
Si Si4 0.777387 0.115900 0.182820
Si Si5 0.569794 0.392685 0.178034
O O1 0.502649 0.164788 0.756568
O O2 0.681445 0.144871 0.750425
O O3 0.614065 0.299923 0.779545
O O4 0.595431 0.180993 0.000000
O O5 0.083415 0.650981 0.770310
O O6 0.149836 0.813559 0.760117
O O7 0.981187 0.796412 0.747822
O O8 0.061314 0.755638 0.000000
O O9 0.903244 0.414529 0.500000
O O10 0.000000 0.500000 0.704532
O O11 0.776075 0.111785 0.000000
O O12 0.465235 0.385872 0.212874
O O13 0.583304 0.417452 0.000000
#
# Coordination Sequence:
#
# PCOD8303170 Si02
#       5
#     8   8   8   8   8
#     4   9  19  36  58  82 109 153 198 229 280 358
#     4  11  24  39  62  94 120 151 197 253 300 341
#     4  10  19  37  64  85 113 157 193 226 287 358
#     4  10  22  43  63  82 119 161 197 240 301 366
#     4  10  20  35  54  77 111 150 194 235 283 342
#
# _framework density 20.112449000000002
#
# number of rings (size 3 to 8) (size 9 to 14) (size 15 to 20)
#    0.000    2.000    2.000    1.800    2.800    2.400 
#    0.000    5.000    0.000    0.000    0.000    0.000 
#    0.000    0.000    0.000    0.000    0.000    0.000 
#
# Total GULP energy -495885.843950 kJ/mol
# GULP energy per Si atom -12397.146099 kJ/mol
# Density = 2.006667 g / cm^3
# Si number density = 20.112449 Si / 1000 Ang^3
#
#
#
# Elastic Constant Matrix: (Units=GPa)
#
#
# Indices 1 2 3 4 5 6 
#
# 1 103.3710 68.5241 21.4299 0.0000 0.0000 6.4084
# 2 68.5241 103.3710 21.4299 0.0000 0.0000 -6.4084
# 3 21.4299 21.4299 30.3311 0.0000 0.0000 0.0000
# 4 0.0000 0.0000 0.0000 25.9663 0.0000 0.0000
# 5 0.0000 0.0000 0.0000 0.0000 25.9663 0.0000
# 6 6.4084 -6.4084 0.0000 0.0000 0.0000 32.5375
#
#
#
# Elastic Compliance Matrix: (Units=1/GPa)
#
#
# Indices 1 2 3 4 5 6 
#
# 1 0.019000 -0.011938 -0.004989 0.000000 0.000000 -0.006093
# 2 -0.011938 0.019000 -0.004989 0.000000 0.000000 0.006093
# 3 -0.004989 -0.004989 0.040019 0.000000 0.000000 0.000000
# 4 0.000000 0.000000 0.000000 0.038511 0.000000 0.000000
# 5 0.000000 0.000000 0.000000 0.000000 0.038511 0.000000
# 6 -0.006093 0.006093 0.000000 0.000000 0.000000 0.033134
#
#
# Mechanical properties :
#
#
# Convention : Reuss Voigt Hill
#
# Bulk Modulus (GPa) = 29.25192 51.09343 40.17268
# Shear Modulus (GPa) = 20.54193 25.27329 22.90761
#
# Velocity S-wave (km/s) = 3.19933 3.54870 3.37853
# Velocity P-wave (km/s) = 5.31257 6.50000 5.93605
#
# Compressibility (1/GPa) = 0.03418579
#
# Stress axis : x y z
#
# Youngs Moduli (GPa) = 52.63216 52.63216 24.98783
#
# Poissons Ratio (x) = 0.62834 0.12467
# Poissons Ratio (y) = 0.62834 0.12467
# Poissons Ratio (z) = 0.26259 0.26259
#
# Static dielectric constant tensor:
#      x y z
#    x 3.842350 0.000000 0.000000 
#    y 0.000000 3.842350 0.000000 
#    z 0.000000 0.000000 3.355730 
# 
# 
# High freq. dielectric constant tensor:
#      x y z
#    x 1.793670 0.000000 0.000000 
#    y 0.000000 1.793670 0.000000 
#    z 0.000000 0.000000 1.757070 
# 
# From -- ./inp_files/759.got.cif
#   From: 2010.03.12/outbox.cif.g09.slc.cpg/sg84_1_cif.got.tgz:759.got - 2010.04.08 20:07:29.
