data_PCOD8303448
_publ_section_title
;
Structure prediction by ZEFSAII (Michael W. Deem and Ramdas Pophale) SiO2 
 PCOD8303448
Probable space group: P 4/N
;
_chemical_formula_sum "Si O2"
_cell_formula_units_Z 60
_cell_length_a 11.866363
_cell_length_b 11.866363
_cell_length_c 19.648632
_cell_angle_alpha 90.000000
_cell_angle_beta 90.000000
_cell_angle_gamma 90.000000
_cell_volume 2766.735088
_symmetry_space_group_name_H-M "P 4/N"
_symmetry_group_IT_number 85
_symmetry_cell_setting 'tetragonal'
loop_
_space_group_symop_operation_xyz
x,y,z
1/2-y,x,z
1/2-x,1/2-y,z
y,1/2-x,z
-x,-y,-z
1/2+y,-x,-z
1/2+x,1/2+y,-z
-y,1/2+x,-z
loop_
_atom_site_type_symbol
_atom_site_label
_atom_site_fract_x
_atom_site_fract_y
_atom_site_fract_z
Si Si1 0.578288 0.675614 0.743759
Si Si2 0.428279 0.304021 0.996150
Si Si3 0.070764 0.804764 0.872783
Si Si4 0.690582 0.032613 0.283398
Si Si5 0.750000 0.250000 0.335015
Si Si6 0.306966 0.927013 0.864163
Si Si7 0.569821 0.480067 0.346127
Si Si8 0.850808 0.131990 0.460663
O O1 0.692228 0.603467 0.734683
O O2 0.523224 0.659327 0.817857
O O3 0.491175 0.628271 0.687776
O O4 0.324269 0.388550 0.003299
O O5 0.486208 0.327857 0.924332
O O6 0.519456 0.331443 0.053687
O O7 0.179828 0.882054 0.863528
O O8 0.103079 0.673542 0.868648
O O9 0.681902 0.169141 0.284610
O O10 0.671666 0.999766 0.204827
O O11 0.809834 0.991665 0.311947
O O12 0.594204 0.996501 0.335099
O O13 0.830239 0.178551 0.384038
O O14 0.571837 0.469199 0.431691
O O15 0.731600 0.093272 0.494386
#
# Coordination Sequence:
#
# PCOD8303448 Si02
#       8
#     8   8   8   8   4   8   8   8
#     4  11  24  41  66 101 136 172 225 295 364 413
#     4  11  26  43  59  84 126 176 226 288 359 425
#     4  11  22  42  65  92 121 167 229 294 348 418
#     4  11  23  39  63 101 134 186 228 280 351 423
#     4   8  17  36  64  88 129 168 224 276 314 399
#     4  11  24  38  63  92 128 167 226 285 349 427
#     4  11  24  40  69  99 141 184 225 283 342 414
#     4   8  17  38  65  99 138 174 227 269 323 393
#
# _framework density 21.686212000000001
#
# number of rings (size 3 to 8) (size 9 to 14) (size 15 to 20)
#    0.000    1.733    1.333    3.200    7.467    5.600 
#    0.000    6.000    0.000    0.000    0.000    0.000 
#    0.000    0.000    0.000    0.000    0.000    0.000 
#
# Total GULP energy -743500.159133 kJ/mol
# GULP energy per Si atom -12391.669319 kJ/mol
# Density = 2.163685 g / cm^3
# Si number density = 21.686212 Si / 1000 Ang^3
#
#
#
# Elastic Constant Matrix: (Units=GPa)
#
#
# Indices 1 2 3 4 5 6 
#
# 1 95.2325 27.5635 40.0784 0.0000 0.0000 -0.7805
# 2 27.5635 95.2325 40.0784 0.0000 0.0000 0.7805
# 3 40.0784 40.0784 143.4230 0.0000 0.0000 0.0000
# 4 0.0000 0.0000 0.0000 29.1523 0.0000 0.0000
# 5 0.0000 0.0000 0.0000 0.0000 29.1523 0.0000
# 6 -0.7805 0.7805 0.0000 0.0000 0.0000 16.1111
#
#
#
# Elastic Compliance Matrix: (Units=1/GPa)
#
#
# Indices 1 2 3 4 5 6 
#
# 1 0.012377 -0.002417 -0.002783 0.000000 0.000000 0.000717
# 2 -0.002417 0.012377 -0.002783 0.000000 0.000000 -0.000717
# 3 -0.002783 -0.002783 0.008528 0.000000 0.000000 0.000000
# 4 0.000000 0.000000 0.000000 0.034303 0.000000 0.000000
# 5 0.000000 0.000000 0.000000 0.000000 0.034303 0.000000
# 6 0.000717 -0.000717 0.000000 0.000000 0.000000 0.062138
#
#
# Mechanical properties :
#
#
# Convention : Reuss Voigt Hill
#
# Bulk Modulus (GPa) = 57.75201 61.03653 59.39427
# Shear Modulus (GPa) = 26.91567 29.96100 28.43833
#
# Velocity S-wave (km/s) = 3.52681 3.72098 3.62519
# Velocity P-wave (km/s) = 6.57823 6.83135 6.70598
#
# Compressibility (1/GPa) = 0.01731542
#
# Stress axis : x y z
#
# Youngs Moduli (GPa) = 80.79236 80.79236 117.26124
#
# Poissons Ratio (x) = 0.19527 0.32638
# Poissons Ratio (y) = 0.19527 0.32638
# Poissons Ratio (z) = 0.22488 0.22488
#
# Static dielectric constant tensor:
#      x y z
#    x 4.043680 0.000000 0.000000 
#    y 0.000000 4.043680 0.000000 
#    z 0.000000 0.000000 4.045920 
# 
# 
# High freq. dielectric constant tensor:
#      x y z
#    x 1.849310 0.000000 0.000000 
#    y 0.000000 1.849310 0.000000 
#    z 0.000000 0.000000 1.862440 
# 
# From -- ./inp_files/2285.got.cif
#   From: 2010.03.12/outbox.cif.g09.slc.cpg/sg85_cif.got.tgz:2285.got - 2010.04.08 20:10:46.
