data_PCOD8303424
_publ_section_title
;
Structure prediction by ZEFSAII (Michael W. Deem and Ramdas Pophale) SiO2 
 PCOD8303424
Probable space group: P 4/N
;
_chemical_formula_sum "Si O2"
_cell_formula_units_Z 56
_cell_length_a 14.212038
_cell_length_b 14.212038
_cell_length_c 13.975219
_cell_angle_alpha 90.000000
_cell_angle_beta 90.000000
_cell_angle_gamma 90.000000
_cell_volume 2822.743021
_symmetry_space_group_name_H-M "P 4/N"
_symmetry_group_IT_number 85
_symmetry_cell_setting 'tetragonal'
loop_
_space_group_symop_operation_xyz
x,y,z
1/2-y,x,z
1/2-x,1/2-y,z
y,1/2-x,z
-x,-y,-z
1/2+y,-x,-z
1/2+x,1/2+y,-z
-y,1/2+x,-z
loop_
_atom_site_type_symbol
_atom_site_label
_atom_site_fract_x
_atom_site_fract_y
_atom_site_fract_z
Si Si1 0.093830 0.946321 0.972767
Si Si2 0.530489 0.230341 0.723770
Si Si3 0.176310 0.832050 0.146300
Si Si4 0.343273 0.928999 0.227565
Si Si5 0.301015 0.105659 0.346196
Si Si6 0.719714 0.901298 0.436379
Si Si7 0.397200 0.205256 0.885785
O O1 0.131485 0.874236 0.050932
O O2 0.071756 0.892400 0.875240
O O3 0.178485 0.020944 0.960076
O O4 0.000000 0.000000 0.000000
O O5 0.586865 0.300511 0.792487
O O6 0.600952 0.143119 0.701858
O O7 0.495483 0.285678 0.628809
O O8 0.436440 0.194045 0.778004
O O9 0.250000 0.750000 0.117693
O O10 0.233545 0.904112 0.213086
O O11 0.344924 0.029908 0.275567
O O12 0.367489 0.193909 0.325488
O O13 0.299979 0.067813 0.454883
O O14 0.641388 0.822838 0.414821
O O15 0.366235 0.311915 0.902932
#
# Coordination Sequence:
#
# PCOD8303424 Si02
#       7
#     8   8   8   8   8   8   8
#     4  11  25  38  62  90 119 159 218 257 294 365
#     4  10  20  38  60  92 119 150 204 249 306 360
#     4  10  24  41  63  82 121 172 204 246 310 374
#     4  10  24  39  60  88 120 161 206 252 304 355
#     4   9  20  43  65  86 121 164 203 241 303 377
#     4   9  18  37  67  93 121 159 197 243 309 373
#     4  10  21  37  57  86 125 153 189 254 314 355
#
# _framework density 19.838858999999999
#
# number of rings (size 3 to 8) (size 9 to 14) (size 15 to 20)
#    0.000    2.143    0.000    2.571   10.000    2.286 
#    2.571    1.429    0.000    0.000    0.000    0.000 
#    0.000    0.000    0.000    0.000    0.000    0.000 
#
# Total GULP energy -694131.112529 kJ/mol
# GULP energy per Si atom -12395.198438 kJ/mol
# Density = 1.979371 g / cm^3
# Si number density = 19.838859 Si / 1000 Ang^3
#
#
#
# Elastic Constant Matrix: (Units=GPa)
#
#
# Indices 1 2 3 4 5 6 
#
# 1 105.9165 43.4878 60.5556 0.0000 0.0000 -1.5941
# 2 43.4878 105.9165 60.5556 0.0000 0.0000 1.5941
# 3 60.5556 60.5556 91.8519 0.0000 0.0000 0.0000
# 4 0.0000 0.0000 0.0000 30.9533 0.0000 0.0000
# 5 0.0000 0.0000 0.0000 0.0000 30.9533 0.0000
# 6 -1.5941 1.5941 0.0000 0.0000 0.0000 20.7181
#
#
#
# Elastic Compliance Matrix: (Units=1/GPa)
#
#
# Indices 1 2 3 4 5 6 
#
# 1 0.015229 -0.000853 -0.009478 0.000000 0.000000 0.001237
# 2 -0.000853 0.015229 -0.009478 0.000000 0.000000 -0.001237
# 3 -0.009478 -0.009478 0.023384 0.000000 0.000000 0.000000
# 4 0.000000 0.000000 0.000000 0.032307 0.000000 0.000000
# 5 0.000000 0.000000 0.000000 0.000000 0.032307 0.000000
# 6 0.001237 -0.001237 0.000000 0.000000 0.000000 0.048457
#
#
# Mechanical properties :
#
#
# Convention : Reuss Voigt Hill
#
# Bulk Modulus (GPa) = 70.29824 70.32029 70.30926
# Shear Modulus (GPa) = 23.66623 25.79732 24.73177
#
# Velocity S-wave (km/s) = 3.45762 3.60994 3.53460
# Velocity P-wave (km/s) = 7.17298 7.27312 7.22322
#
# Compressibility (1/GPa) = 0.01422511
#
# Stress axis : x y z
#
# Youngs Moduli (GPa) = 65.66468 65.66468 42.76390
#
# Poissons Ratio (x) = 0.05598 0.40531
# Poissons Ratio (y) = 0.05598 0.40531
# Poissons Ratio (z) = 0.62237 0.62237
#
# Static dielectric constant tensor:
#      x y z
#    x 3.792010 0.000000 0.000000 
#    y 0.000000 3.792010 0.000000 
#    z 0.000000 0.000000 3.556010 
# 
# 
# High freq. dielectric constant tensor:
#      x y z
#    x 1.778720 0.000000 0.000000 
#    y 0.000000 1.778720 0.000000 
#    z 0.000000 0.000000 1.759200 
# 
# From -- ./inp_files/1744.got.cif
#   From: 2010.03.12/outbox.cif.g09.slc.cpg/sg85_cif.got.tgz:1744.got - 2010.04.08 20:10:46.
