data_PCOD8303601
_publ_section_title
;
Structure prediction by ZEFSAII (Michael W. Deem and Ramdas Pophale) SiO2 
 PCOD8303601
Probable space group: P 42/N
;
_chemical_formula_sum "Si O2"
_cell_formula_units_Z 36
_cell_length_a 12.919844
_cell_length_b 12.919844
_cell_length_c 10.124758
_cell_angle_alpha 90.000000
_cell_angle_beta 90.000000
_cell_angle_gamma 90.000000
_cell_volume 1690.048591
_symmetry_space_group_name_H-M "P 42/N"
_symmetry_group_IT_number 86
_space_group.IT_coordinate_system_code '2'
_symmetry_cell_setting 'tetragonal'
loop_
_space_group_symop_operation_xyz
x,y,z
-y,1/2+x,1/2+z
1/2-x,1/2-y,z
1/2+y,-x,1/2+z
-x,-y,-z
y,1/2-x,1/2-z
1/2+x,1/2+y,-z
1/2-y,x,1/2-z
loop_
_atom_site_type_symbol
_atom_site_label
_atom_site_fract_x
_atom_site_fract_y
_atom_site_fract_z
Si Si1 0.414521 0.423458 0.159358
Si Si2 0.743663 0.023917 0.157081
Si Si3 0.250000 0.750000 0.236115
Si Si4 0.289909 0.976524 0.137963
Si Si5 0.554065 0.601090 0.120770
O O1 0.295417 0.443221 0.198249
O O2 0.487474 0.389807 0.280031
O O3 0.446321 0.539596 0.115512
O O4 0.425084 0.351582 0.026809
O O5 0.738382 0.147295 0.176159
O O6 0.859989 0.983508 0.158236
O O7 0.690412 0.956140 0.271484
O O8 0.690127 0.000445 0.016205
O O9 0.263900 0.854569 0.150541
#
# Coordination Sequence:
#
# PCOD8303601 Si02
#       5
#     8   8   4   8   8
#     4  10  22  42  62  89 129 164 201 256 310 361
#     4  11  24  41  65  94 123 164 209 252 309 368
#     4  12  22  40  64  98 126 156 204 266 306 364
#     4  11  24  41  65  94 123 164 209 252 309 368
#     4  10  22  42  62  89 129 164 201 256 310 361
#
# _framework density 21.301162000000001
#
# number of rings (size 3 to 8) (size 9 to 14) (size 15 to 20)
#    0.000    1.333    4.444    0.667    0.000    5.333 
#    0.000    4.444    0.000    0.000    0.000    0.000 
#    0.000    0.000    0.000    0.000    0.000    0.000 
#
# Total GULP energy -446090.767717 kJ/mol
# GULP energy per Si atom -12391.410214 kJ/mol
# Density = 2.125268 g / cm^3
# Si number density = 21.301162 Si / 1000 Ang^3
#
#
#
# Elastic Constant Matrix: (Units=GPa)
#
#
# Indices 1 2 3 4 5 6 
#
# 1 56.1655 16.2711 32.2927 0.0000 0.0000 -0.8231
# 2 16.2711 56.1655 32.2927 0.0000 0.0000 0.8231
# 3 32.2927 32.2927 126.9160 0.0000 0.0000 0.0000
# 4 0.0000 0.0000 0.0000 32.7993 0.0000 0.0000
# 5 0.0000 0.0000 0.0000 0.0000 32.7993 0.0000
# 6 -0.8231 0.8231 0.0000 0.0000 0.0000 37.2825
#
#
#
# Elastic Compliance Matrix: (Units=1/GPa)
#
#
# Indices 1 2 3 4 5 6 
#
# 1 0.021473 -0.003616 -0.004543 0.000000 0.000000 0.000554
# 2 -0.003616 0.021473 -0.004543 0.000000 0.000000 -0.000554
# 3 -0.004543 -0.004543 0.010191 0.000000 0.000000 0.000000
# 4 0.000000 0.000000 0.000000 0.030488 0.000000 0.000000
# 5 0.000000 0.000000 0.000000 0.000000 0.030488 0.000000
# 6 0.000554 -0.000554 0.000000 0.000000 0.000000 0.026847
#
#
# Mechanical properties :
#
#
# Convention : Reuss Voigt Hill
#
# Bulk Modulus (GPa) = 36.06190 44.55108 40.30649
# Shear Modulus (GPa) = 28.47224 31.13557 29.80391
#
# Velocity S-wave (km/s) = 3.65999 3.82735 3.74460
# Velocity P-wave (km/s) = 5.90144 6.36331 6.13672
#
# Compressibility (1/GPa) = 0.02773010
#
# Stress axis : x y z
#
# Youngs Moduli (GPa) = 46.57110 46.57110 98.12348
#
# Poissons Ratio (x) = 0.16842 0.44581
# Poissons Ratio (y) = 0.16842 0.44581
# Poissons Ratio (z) = 0.21159 0.21159
#
# Static dielectric constant tensor:
#      x y z
#    x 3.681860 0.000000 0.000000 
#    y 0.000000 3.681860 0.000000 
#    z 0.000000 0.000000 3.995820 
# 
# 
# High freq. dielectric constant tensor:
#      x y z
#    x 1.828140 0.000000 0.000000 
#    y 0.000000 1.828140 0.000000 
#    z 0.000000 0.000000 1.842200 
# 
# From -- ./inp_files/1034.got.cif
#   From: 2010.03.12/outbox.cif.g09.slc.cpg/sg86_1_cif.got.tgz:1034.got - 2010.04.08 20:12:58.
