data_PCOD8303105
_publ_section_title
;
Structure prediction by ZEFSAII (Michael W. Deem and Ramdas Pophale) SiO2 
 PCOD8303105
Probable space group: P 42/M
;
_chemical_formula_sum "Si O2"
_cell_formula_units_Z 56
_cell_length_a 11.784454
_cell_length_b 11.784454
_cell_length_c 22.709346
_cell_angle_alpha 90.000000
_cell_angle_beta 90.000000
_cell_angle_gamma 90.000000
_cell_volume 3153.723093
_symmetry_space_group_name_H-M "P 42/M"
_symmetry_group_IT_number 84
_symmetry_cell_setting 'tetragonal'
loop_
_space_group_symop_operation_xyz
x,y,z
-y,x,1/2+z
-x,-y,z
y,-x,1/2+z
-x,-y,-z
y,-x,1/2-z
x,y,-z
-y,x,1/2-z
loop_
_atom_site_type_symbol
_atom_site_label
_atom_site_fract_x
_atom_site_fract_y
_atom_site_fract_z
Si Si1 0.325938 0.439193 0.245573
Si Si2 0.709318 0.728882 0.855809
Si Si3 0.100644 0.138834 0.568769
Si Si4 0.105426 0.156331 0.069783
Si Si5 0.516087 0.875924 0.175001
Si Si6 0.621441 0.175804 0.933272
Si Si7 0.619256 0.476574 0.565726
O O1 0.367929 0.566653 0.228849
O O2 0.272059 0.373786 0.189858
O O3 0.225041 0.445770 0.293241
O O4 0.826092 0.756451 0.889005
O O5 0.649675 0.840165 0.826131
O O6 0.620258 0.689918 0.903999
O O7 0.111342 0.123007 0.500000
O O8 0.164940 0.250452 0.591361
O O9 0.968651 0.151822 0.584564
O O10 0.160016 0.024645 0.593393
O O11 0.118944 0.185594 0.000000
O O12 0.464035 0.891022 0.109444
O O13 0.500000 0.000000 0.205848
O O14 0.592601 0.309193 0.933840
O O15 0.611269 0.125400 0.000000
O O16 0.500000 0.500000 0.598841
O O17 0.593855 0.433396 0.500000
#
# Coordination Sequence:
#
# PCOD8303105 Si02
#       7
#     8   8   8   8   8   8   8
#     4   9  20  36  54  69  90 130 173 205 241 297
#     4  10  19  30  53  72  96 130 166 204 245 299
#     4   8  15  28  47  70 103 139 166 193 235 301
#     4   9  16  28  47  74 103 133 167 202 241 289
#     4  10  20  33  51  76 102 123 157 214 259 290
#     4   9  17  29  48  75 102 130 158 192 249 307
#     4   9  18  29  46  74 103 126 154 202 253 297
#
# _framework density 17.756791
#
# number of rings (size 3 to 8) (size 9 to 14) (size 15 to 20)
#    0.000    2.857    0.000    2.143    6.000    0.857 
#    0.000    2.857    0.000    0.000    0.000    7.000 
#    0.000    0.000    0.000    0.000    0.000    0.000 
#
# Total GULP energy -693815.334820 kJ/mol
# GULP energy per Si atom -12389.559550 kJ/mol
# Density = 1.771638 g / cm^3
# Si number density = 17.756791 Si / 1000 Ang^3
#
#
#
# Elastic Constant Matrix: (Units=GPa)
#
#
# Indices 1 2 3 4 5 6 
#
# 1 81.3394 24.8881 27.4365 0.0000 0.0000 0.2198
# 2 24.8881 81.3394 27.4365 0.0000 0.0000 -0.2198
# 3 27.4365 27.4365 59.8311 0.0000 0.0000 0.0000
# 4 0.0000 0.0000 0.0000 6.0177 0.0000 0.0000
# 5 0.0000 0.0000 0.0000 0.0000 6.0177 0.0000
# 6 0.2198 -0.2198 0.0000 0.0000 0.0000 20.2423
#
#
#
# Elastic Compliance Matrix: (Units=1/GPa)
#
#
# Indices 1 2 3 4 5 6 
#
# 1 0.015026 -0.002690 -0.005657 0.000000 0.000000 -0.000192
# 2 -0.002690 0.015026 -0.005657 0.000000 0.000000 0.000192
# 3 -0.005657 -0.005657 0.021902 0.000000 0.000000 0.000000
# 4 0.000000 0.000000 0.000000 0.166177 0.000000 0.000000
# 5 0.000000 0.000000 0.000000 0.000000 0.166177 0.000000
# 6 -0.000192 0.000192 0.000000 0.000000 0.000000 0.049406
#
#
# Mechanical properties :
#
#
# Convention : Reuss Voigt Hill
#
# Bulk Modulus (GPa) = 41.76021 42.44801 42.10411
# Shear Modulus (GPa) = 10.64502 15.97211 13.30857
#
# Velocity S-wave (km/s) = 2.45111 3.00241 2.74065
# Velocity P-wave (km/s) = 5.61956 5.99803 5.81188
#
# Compressibility (1/GPa) = 0.02394624
#
# Stress axis : x y z
#
# Youngs Moduli (GPa) = 66.55198 66.55198 45.65851
#
# Poissons Ratio (x) = 0.17903 0.25828
# Poissons Ratio (y) = 0.17903 0.25828
# Poissons Ratio (z) = 0.37647 0.37647
#
# Static dielectric constant tensor:
#      x y z
#    x 2.490200 0.000000 0.000000 
#    y 0.000000 2.490200 0.000000 
#    z 0.000000 0.000000 3.130640 
# 
# 
# High freq. dielectric constant tensor:
#      x y z
#    x 1.679240 0.000000 0.000000 
#    y 0.000000 1.679240 0.000000 
#    z 0.000000 0.000000 1.662210 
# 
# From -- ./inp_files/5432.got.cif
#   From: 2010.03.12/outbox.cif.g09.slc.cpg/sg84_3_cif.got.tgz:5432.got - 2010.04.08 20:07:29.
