data_PCOD8303256
_publ_section_title
;
Structure prediction by ZEFSAII (Michael W. Deem and Ramdas Pophale) SiO2 
 PCOD8303256
Probable space group: P 42/M
;
_chemical_formula_sum "Si O2"
_cell_formula_units_Z 40
_cell_length_a 14.840036
_cell_length_b 14.840036
_cell_length_c 9.069744
_cell_angle_alpha 90.000000
_cell_angle_beta 90.000000
_cell_angle_gamma 90.000000
_cell_volume 1997.399505
_symmetry_space_group_name_H-M "P 42/M"
_symmetry_group_IT_number 84
_symmetry_cell_setting 'tetragonal'
loop_
_space_group_symop_operation_xyz
x,y,z
-y,x,1/2+z
-x,-y,z
y,-x,1/2+z
-x,-y,-z
y,-x,1/2-z
x,y,-z
-y,x,1/2-z
loop_
_atom_site_type_symbol
_atom_site_label
_atom_site_fract_x
_atom_site_fract_y
_atom_site_fract_z
Si Si1 0.890711 0.934931 0.170138
Si Si2 0.728376 0.378526 0.829455
Si Si3 0.742895 0.583433 0.830028
Si Si4 0.098987 0.690503 0.330969
Si Si5 0.592820 0.049791 0.671694
O O1 0.796870 0.882373 0.184197
O O2 0.964839 0.880373 0.262596
O O3 0.920390 0.942434 0.000000
O O4 0.704054 0.483221 0.806477
O O5 0.649882 0.317614 0.764562
O O6 0.823850 0.362112 0.754129
O O7 0.739973 0.355007 0.000000
O O8 0.846522 0.588367 0.777114
O O9 0.735674 0.612752 0.000000
O O10 0.100043 0.659576 0.500000
O O11 0.000990 0.670001 0.262861
O O12 0.616311 0.042921 0.500000
O O13 0.500000 0.000000 0.708458
#
# Coordination Sequence:
#
# PCOD8303256 Si02
#       5
#     8   8   8   8   8
#     4  10  22  39  58  83 117 158 201 246 295 356
#     4  11  24  43  66  91 124 165 208 255 315 375
#     4  10  23  43  65  93 126 162 206 257 309 368
#     4  11  24  39  59  92 125 157 204 255 304 364
#     4  10  20  40  65  88 121 161 199 244 303 362
#
# _framework density 20.026038
#
# number of rings (size 3 to 8) (size 9 to 14) (size 15 to 20)
#    0.000    1.600    2.000    2.400    2.800    6.400 
#    0.000    2.000    0.000    0.000    0.000    0.000 
#    0.000    0.000    0.000    0.000    0.000    0.000 
#
# Total GULP energy -496123.340840 kJ/mol
# GULP energy per Si atom -12403.083521 kJ/mol
# Density = 1.998046 g / cm^3
# Si number density = 20.026038 Si / 1000 Ang^3
#
#
#
# Elastic Constant Matrix: (Units=GPa)
#
#
# Indices 1 2 3 4 5 6 
#
# 1 86.6210 37.4055 40.0901 0.0000 0.0000 4.5987
# 2 37.4055 86.6210 40.0901 0.0000 0.0000 -4.5987
# 3 40.0901 40.0901 91.4110 0.0000 0.0000 0.0000
# 4 0.0000 0.0000 0.0000 -4.7408 0.0000 0.0000
# 5 0.0000 0.0000 0.0000 0.0000 -4.7408 0.0000
# 6 4.5987 -4.5987 0.0000 0.0000 0.0000 33.1127
#
#
#
# Elastic Compliance Matrix: (Units=1/GPa)
#
#
# Indices 1 2 3 4 5 6 
#
# 1 0.016057 -0.004803 -0.004935 0.000000 0.000000 -0.002897
# 2 -0.004803 0.016057 -0.004935 0.000000 0.000000 0.002897
# 3 -0.004935 -0.004935 0.015269 0.000000 0.000000 0.000000
# 4 0.000000 0.000000 0.000000 -0.210934 0.000000 0.000000
# 5 0.000000 0.000000 0.000000 0.000000 -0.210934 0.000000
# 6 -0.002897 0.002897 0.000000 0.000000 0.000000 0.031005
#
#
# Mechanical properties :
#
#
# Convention : Reuss Voigt Hill
#
# Bulk Modulus (GPa) = 55.45126 55.53601 55.49363
# Shear Modulus (GPa) = -16.22736 14.53070 -0.84833
#
# Velocity S-wave (km/s) = -2.84969 2.69660 -0.65156
# Velocity P-wave (km/s) = 4.11364 6.12272 5.21583
#
# Compressibility (1/GPa) = 0.01803386
#
# Stress axis : x y z
#
# Youngs Moduli (GPa) = 62.27889 62.27889 65.49376
#
# Poissons Ratio (x) = 0.29915 0.32324
# Poissons Ratio (y) = 0.29915 0.32324
# Poissons Ratio (z) = 0.30737 0.30737
#
# Static dielectric constant tensor:
#      x y z
#    x 3.620380 0.000000 0.000000 
#    y 0.000000 3.620380 0.000000 
#    z 0.000000 0.000000 3.668930 
# 
# 
# High freq. dielectric constant tensor:
#      x y z
#    x 1.784450 0.000000 0.000000 
#    y 0.000000 1.784450 0.000000 
#    z 0.000000 0.000000 1.786820 
# 
# From -- ./inp_files/802.got.cif
#   From: 2010.03.12/outbox.cif.g09.slc.cpg/sg84_1_cif.got.tgz:802.got - 2010.04.08 20:07:29.
