data_PCOD8303243
_publ_section_title
;
Structure prediction by ZEFSAII (Michael W. Deem and Ramdas Pophale) SiO2 
 PCOD8303243
Probable space group: P 42/M
;
_chemical_formula_sum "Si O2"
_cell_formula_units_Z 48
_cell_length_a 16.744119
_cell_length_b 16.744119
_cell_length_c 9.033085
_cell_angle_alpha 90.000000
_cell_angle_beta 90.000000
_cell_angle_gamma 90.000000
_cell_volume 2532.565583
_symmetry_space_group_name_H-M "P 42/M"
_symmetry_group_IT_number 84
_symmetry_cell_setting 'tetragonal'
loop_
_space_group_symop_operation_xyz
x,y,z
-y,x,1/2+z
-x,-y,z
y,-x,1/2+z
-x,-y,-z
y,-x,1/2-z
x,y,-z
-y,x,1/2-z
loop_
_atom_site_type_symbol
_atom_site_label
_atom_site_fract_x
_atom_site_fract_y
_atom_site_fract_z
Si Si1 0.218467 0.759052 0.165880
Si Si2 0.721010 0.489243 0.667906
Si Si3 0.938328 0.326859 0.175708
Si Si4 0.900405 0.669661 0.677248
Si Si5 0.647015 0.365455 0.837876
Si Si6 0.124164 0.500721 0.828085
O O1 0.134177 0.729642 0.237771
O O2 0.268959 0.832048 0.240542
O O3 0.269457 0.679085 0.168645
O O4 0.200148 0.787301 0.000000
O O5 0.747710 0.471953 0.500000
O O6 0.645419 0.434128 0.712857
O O7 0.700328 0.580753 0.693638
O O8 0.788795 0.467122 0.785153
O O9 0.931858 0.422829 0.207951
O O10 0.016114 0.295881 0.262351
O O11 0.946935 0.314989 0.000000
O O12 0.897509 0.666527 0.500000
O O13 0.891909 0.578553 0.733101
O O14 0.632268 0.403827 0.000000
O O15 0.118599 0.477647 0.000000
#
# Coordination Sequence:
#
# PCOD8303243 Si02
#       6
#     8   8   8   8   8   8
#     4   9  18  37  59  77 108 151 181 216 275 336
#     4  11  22  35  55  81 109 143 192 243 278 318
#     4  10  21  38  58  81 111 149 187 220 270 339
#     4  11  22  37  58  86 117 145 182 232 280 323
#     4  10  20  38  56  74 107 150 190 228 280 332
#     4  11  21  35  57  83 114 152 186 222 278 339
#
# _framework density 18.953111
#
# number of rings (size 3 to 8) (size 9 to 14) (size 15 to 20)
#    0.000    1.667    3.333    2.000    0.000    5.000 
#    0.000    3.333    0.000    0.500    0.000    3.500 
#    0.000    0.000    0.000    0.000    0.000    0.000 
#
# Total GULP energy -594705.938830 kJ/mol
# GULP energy per Si atom -12389.707059 kJ/mol
# Density = 1.890997 g / cm^3
# Si number density = 18.953111 Si / 1000 Ang^3
#
#
#
# Elastic Constant Matrix: (Units=GPa)
#
#
# Indices 1 2 3 4 5 6 
#
# 1 76.2748 58.5379 35.4191 0.0000 0.0000 7.8503
# 2 58.5379 76.2748 35.4191 0.0000 0.0000 -7.8503
# 3 35.4191 35.4191 48.9069 0.0000 0.0000 0.0000
# 4 0.0000 0.0000 0.0000 25.5621 0.0000 0.0000
# 5 0.0000 0.0000 0.0000 0.0000 25.5621 0.0000
# 6 7.8503 -7.8503 0.0000 0.0000 0.0000 20.0956
#
#
#
# Elastic Compliance Matrix: (Units=1/GPa)
#
#
# Indices 1 2 3 4 5 6 
#
# 1 0.049078 -0.037103 -0.008672 0.000000 0.000000 -0.033666
# 2 -0.037103 0.049078 -0.008672 0.000000 0.000000 0.033666
# 3 -0.008672 -0.008672 0.033008 0.000000 0.000000 0.000000
# 4 0.000000 0.000000 0.000000 0.039120 0.000000 0.000000
# 5 0.000000 0.000000 0.000000 0.000000 0.039120 0.000000
# 6 -0.033666 0.033666 0.000000 0.000000 0.000000 0.076066
#
#
# Mechanical properties :
#
#
# Convention : Reuss Voigt Hill
#
# Bulk Modulus (GPa) = 44.90648 51.13432 48.02040
# Shear Modulus (GPa) = 12.44438 19.04932 15.74685
#
# Velocity S-wave (km/s) = 2.56518 3.17373 2.88554
# Velocity P-wave (km/s) = 5.70249 6.36145 6.04096
#
# Compressibility (1/GPa) = 0.02226850
#
# Stress axis : x y z
#
# Youngs Moduli (GPa) = 20.37580 20.37580 30.29573
#
# Poissons Ratio (x) = 0.75601 0.26273
# Poissons Ratio (y) = 0.75601 0.26273
# Poissons Ratio (z) = 0.17670 0.17670
#
# Static dielectric constant tensor:
#      x y z
#    x 3.558270 0.000000 0.000000 
#    y 0.000000 3.558270 0.000000 
#    z 0.000000 0.000000 3.345430 
# 
# 
# High freq. dielectric constant tensor:
#      x y z
#    x 1.731340 0.000000 0.000000 
#    y 0.000000 1.731340 0.000000 
#    z 0.000000 0.000000 1.718820 
# 
# From -- ./inp_files/1012.got.cif
#   From: 2010.03.12/outbox.cif.g09.slc.cpg/sg84_1_cif.got.tgz:1012.got - 2010.04.08 20:07:29.
