data_PCOD8303816
_publ_section_title
;
Structure prediction by ZEFSAII (Michael W. Deem and Ramdas Pophale) SiO2 
 PCOD8303816
Probable space group: I 4/M
;
_chemical_formula_sum "Si O2"
_cell_formula_units_Z 96
_cell_length_a 23.868325
_cell_length_b 23.868325
_cell_length_c 9.093336
_cell_angle_alpha 90.000000
_cell_angle_beta 90.000000
_cell_angle_gamma 90.000000
_cell_volume 5180.445678
_symmetry_space_group_name_H-M "I 4/M"
_symmetry_group_IT_number 87
_symmetry_cell_setting 'tetragonal'
loop_
_space_group_symop_operation_xyz
x,y,z
-y,x,z
-x,-y,z
y,-x,z
-x,-y,-z
y,-x,-z
x,y,-z
-y,x,-z
1/2+x,1/2+y,1/2+z
1/2-y,1/2+x,1/2+z
1/2-x,1/2-y,1/2+z
1/2+y,1/2-x,1/2+z
1/2-x,1/2-y,1/2-z
1/2+y,1/2-x,1/2-z
1/2+x,1/2+y,1/2-z
1/2-y,1/2+x,1/2-z
loop_
_atom_site_type_symbol
_atom_site_label
_atom_site_fract_x
_atom_site_fract_y
_atom_site_fract_z
Si Si1 0.109258 0.390597 0.665643
Si Si2 0.716397 0.614197 0.171227
Si Si3 0.794388 0.130942 0.327617
Si Si4 0.508538 0.143670 0.840090
Si Si5 0.229304 0.990630 0.335730
Si Si6 0.181447 0.308719 0.826521
O O1 0.127508 0.374484 0.500000
O O2 0.137666 0.448911 0.707434
O O3 0.126539 0.343095 0.781009
O O4 0.042585 0.399478 0.677862
O O5 0.656408 0.643509 0.197106
O O6 0.715179 0.551041 0.242707
O O7 0.765425 0.655004 0.234297
O O8 0.730766 0.605971 0.000000
O O9 0.778456 0.129495 0.500000
O O10 0.794833 0.067024 0.261702
O O11 0.751803 0.174546 0.249799
O O12 0.481169 0.204646 0.835930
O O13 0.538144 0.134478 0.000000
O O14 0.204193 0.993243 0.500000
O O15 0.185113 0.299055 0.000000
#
# Coordination Sequence:
#
# PCOD8303816 Si02
#       6
#    16  16  16  16  16  16
#     4  11  22  35  53  76 100 134 180 218 253 302
#     4   9  18  31  51  77 102 134 169 206 257 306
#     4  10  19  33  54  77 102 134 174 210 249 310
#     4  10  20  36  53  70  99 137 174 214 257 300
#     4   9  16  31  52  73 101 133 165 204 252 305
#     4  11  20  32  51  76 108 137 166 212 263 306
#
# _framework density 18.531224000000002
#
# number of rings (size 3 to 8) (size 9 to 14) (size 15 to 20)
#    0.000    2.000    3.333    1.500    0.000    1.667 
#    0.000    2.500    0.000    0.500    0.000    3.500 
#    0.000    0.000    0.000    1.500    0.000    1.667 
#
# Total GULP energy -594706.253915 kJ/mol
# GULP energy per Si atom -12389.713623 kJ/mol
# Density = 1.848905 g / cm^3
# Si number density = 18.531224 Si / 1000 Ang^3
#
#
#
# Elastic Constant Matrix: (Units=GPa)
#
#
# Indices 1 2 3 4 5 6 
#
# 1 93.4874 52.5925 19.3411 0.0000 0.0000 -4.1104
# 2 52.5925 93.4874 19.3411 0.0000 0.0000 4.1104
# 3 19.3411 19.3411 38.3729 0.0000 0.0000 0.0000
# 4 0.0000 0.0000 0.0000 18.5926 0.0000 0.0000
# 5 0.0000 0.0000 0.0000 0.0000 18.5926 0.0000
# 6 -4.1104 4.1104 0.0000 0.0000 0.0000 27.4346
#
#
#
# Elastic Compliance Matrix: (Units=1/GPa)
#
#
# Indices 1 2 3 4 5 6 
#
# 1 0.016556 -0.008656 -0.003982 0.000000 0.000000 0.003777
# 2 -0.008656 0.016556 -0.003982 0.000000 0.000000 -0.003777
# 3 -0.003982 -0.003982 0.030074 0.000000 0.000000 0.000000
# 4 0.000000 0.000000 0.000000 0.053785 0.000000 0.000000
# 5 0.000000 0.000000 0.000000 0.000000 0.053785 0.000000
# 6 0.003777 -0.003777 0.000000 0.000000 0.000000 0.037582
#
#
# Mechanical properties :
#
#
# Convention : Reuss Voigt Hill
#
# Bulk Modulus (GPa) = 33.39275 45.32192 39.35733
# Shear Modulus (GPa) = 19.87596 21.86215 20.86906
#
# Velocity S-wave (km/s) = 3.27856 3.43847 3.35947
# Velocity P-wave (km/s) = 5.69129 6.34620 6.02765
#
# Compressibility (1/GPa) = 0.02994662
#
# Stress axis : x y z
#
# Youngs Moduli (GPa) = 60.40056 60.40056 33.25133
#
# Poissons Ratio (x) = 0.52284 0.13240
# Poissons Ratio (y) = 0.52284 0.13240
# Poissons Ratio (z) = 0.24050 0.24050
#
# Static dielectric constant tensor:
#      x y z
#    x 3.438130 0.000000 0.000000 
#    y 0.000000 3.438130 0.000000 
#    z 0.000000 0.000000 3.145230 
# 
# 
# High freq. dielectric constant tensor:
#      x y z
#    x 1.711230 0.000000 0.000000 
#    y 0.000000 1.711230 0.000000 
#    z 0.000000 0.000000 1.679430 
# 
# From -- ./inp_files/1342.got.cif
#   From: 2010.03.12/outbox.cif.g09.slc.cpg/sg87_1_cif.got.tgz:1342.got - 2010.04.08 20:16:13.
