data_PCOD8303831
_publ_section_title
;
Structure prediction by ZEFSAII (Michael W. Deem and Ramdas Pophale) SiO2 
 PCOD8303831
Probable space group: I 4/M
;
_chemical_formula_sum "Si O2"
_cell_formula_units_Z 120
_cell_length_a 25.717074
_cell_length_b 25.717074
_cell_length_c 9.995715
_cell_angle_alpha 90.000000
_cell_angle_beta 90.000000
_cell_angle_gamma 90.000000
_cell_volume 6610.844990
_symmetry_space_group_name_H-M "I 4/M"
_symmetry_group_IT_number 87
_symmetry_cell_setting 'tetragonal'
loop_
_space_group_symop_operation_xyz
x,y,z
-y,x,z
-x,-y,z
y,-x,z
-x,-y,-z
y,-x,-z
x,y,-z
-y,x,-z
1/2+x,1/2+y,1/2+z
1/2-y,1/2+x,1/2+z
1/2-x,1/2-y,1/2+z
1/2+y,1/2-x,1/2+z
1/2-x,1/2-y,1/2-z
1/2+y,1/2-x,1/2-z
1/2+x,1/2+y,1/2-z
1/2-y,1/2+x,1/2-z
loop_
_atom_site_type_symbol
_atom_site_label
_atom_site_fract_x
_atom_site_fract_y
_atom_site_fract_z
Si Si1 0.872621 0.657862 0.848345
Si Si2 0.965882 0.828995 0.292008
Si Si3 0.080736 0.811390 0.660880
Si Si4 0.029558 0.082333 0.500000
Si Si5 0.753536 0.295252 0.354515
Si Si6 0.788435 0.452728 0.849431
Si Si7 0.803710 0.567404 0.842507
Si Si8 0.632532 0.658194 0.649125
O O1 0.819040 0.689385 0.850925
O O2 0.912281 0.683894 0.747460
O O3 0.853462 0.601215 0.793834
O O4 0.895906 0.655067 0.000000
O O5 0.955921 0.881425 0.375554
O O6 0.948277 0.774291 0.358946
O O7 0.930082 0.835732 0.160373
O O8 0.027042 0.825912 0.264809
O O9 0.077085 0.821688 0.500000
O O10 0.093989 0.751503 0.695170
O O11 0.123249 0.847029 0.730023
O O12 0.968688 0.065980 0.500000
O O13 0.742450 0.270365 0.500000
O O14 0.750000 0.250000 0.250000
O O15 0.714094 0.342079 0.326360
O O16 0.805638 0.508528 0.787778
O O17 0.809614 0.443992 0.000000
O O18 0.805735 0.563142 0.000000
O O19 0.645206 0.636645 0.500000
#
# Coordination Sequence:
#
# PCOD8303831 Si02
#       8
#    16  16  16   8  16  16  16  16
#     4  10  19  35  55  78 112 150 182 222 285 344
#     4  11  20  36  57  80 110 142 191 234 287 337
#     4  10  20  36  60  83 105 142 193 240 277 333
#     4  11  22  36  56  86 114 138 186 259 298 326
#     4  10  21  36  52  79 113 148 187 223 278 345
#     4  10  19  34  57  84 109 140 190 237 273 331
#     4   8  17  34  56  81 111 144 181 229 282 333
#     4  11  24  37  53  79 115 150 181 230 289 350
#
# _framework density 18.151990999999999
#
# number of rings (size 3 to 8) (size 9 to 14) (size 15 to 20)
#    0.000    1.933    2.667    2.400    0.933    2.667 
#    0.000    3.333    0.000    0.400    0.000    5.600 
#    0.000    0.000    0.000    0.000    0.000    0.000 
#
# Total GULP energy -743347.533649 kJ/mol
# GULP energy per Si atom -12389.125561 kJ/mol
# Density = 1.811068 g / cm^3
# Si number density = 18.151991 Si / 1000 Ang^3
#
#
#
# Elastic Constant Matrix: (Units=GPa)
#
#
# Indices 1 2 3 4 5 6 
#
# 1 88.5802 43.7905 47.0399 0.0000 0.0000 2.5815
# 2 43.7905 88.5802 47.0399 0.0000 0.0000 -2.5815
# 3 47.0399 47.0399 76.4745 0.0000 0.0000 0.0000
# 4 0.0000 0.0000 0.0000 24.0804 0.0000 0.0000
# 5 0.0000 0.0000 0.0000 0.0000 24.0804 0.0000
# 6 2.5815 -2.5815 0.0000 0.0000 0.0000 30.7679
#
#
#
# Elastic Compliance Matrix: (Units=1/GPa)
#
#
# Indices 1 2 3 4 5 6 
#
# 1 0.017984 -0.004561 -0.008256 0.000000 0.000000 -0.001892
# 2 -0.004561 0.017984 -0.008256 0.000000 0.000000 0.001892
# 3 -0.008256 -0.008256 0.023233 0.000000 0.000000 0.000000
# 4 0.000000 0.000000 0.000000 0.041528 0.000000 0.000000
# 5 0.000000 0.000000 0.000000 0.000000 0.041528 0.000000
# 6 -0.001892 0.001892 0.000000 0.000000 0.000000 0.032819
#
#
# Mechanical properties :
#
#
# Convention : Reuss Voigt Hill
#
# Bulk Modulus (GPa) = 58.64011 58.81950 58.72981
# Shear Modulus (GPa) = 22.43102 23.50340 22.96721
#
# Velocity S-wave (km/s) = 3.51911 3.60225 3.56093
# Velocity P-wave (km/s) = 6.99195 7.05520 7.02365
#
# Compressibility (1/GPa) = 0.01705317
#
# Stress axis : x y z
#
# Youngs Moduli (GPa) = 55.60642 55.60642 43.04188
#
# Poissons Ratio (x) = 0.25362 0.35536
# Poissons Ratio (y) = 0.25362 0.35536
# Poissons Ratio (z) = 0.45910 0.45910
#
# Static dielectric constant tensor:
#      x y z
#    x 3.572550 0.000000 0.000000 
#    y 0.000000 3.572550 0.000000 
#    z 0.000000 0.000000 3.146010 
# 
# 
# High freq. dielectric constant tensor:
#      x y z
#    x 1.702220 0.000000 0.000000 
#    y 0.000000 1.702220 0.000000 
#    z 0.000000 0.000000 1.680680 
# 
# From -- ./inp_files/1685.got.cif
#   From: 2010.03.12/outbox.cif.g09.slc.cpg/sg87_1_cif.got.tgz:1685.got - 2010.04.08 20:16:13.
