data_PCOD8303627
_publ_section_title
;
Structure prediction by ZEFSAII (Michael W. Deem and Ramdas Pophale) SiO2 
 PCOD8303627
Probable space group: P 42/N
;
_chemical_formula_sum "Si O2"
_cell_formula_units_Z 60
_cell_length_a 11.188938
_cell_length_b 11.188938
_cell_length_c 21.163414
_cell_angle_alpha 90.000000
_cell_angle_beta 90.000000
_cell_angle_gamma 90.000000
_cell_volume 2649.497185
_symmetry_space_group_name_H-M "P 42/N"
_symmetry_group_IT_number 86
_space_group.IT_coordinate_system_code '2'
_symmetry_cell_setting 'tetragonal'
loop_
_space_group_symop_operation_xyz
x,y,z
-y,1/2+x,1/2+z
1/2-x,1/2-y,z
1/2+y,-x,1/2+z
-x,-y,-z
y,1/2-x,1/2-z
1/2+x,1/2+y,-z
1/2-y,x,1/2-z
loop_
_atom_site_type_symbol
_atom_site_label
_atom_site_fract_x
_atom_site_fract_y
_atom_site_fract_z
Si Si1 0.640919 0.005795 0.628137
Si Si2 0.304529 0.426280 0.265784
Si Si3 0.423245 0.010141 0.713682
Si Si4 0.821818 0.950658 0.967669
Si Si5 0.571604 0.429472 0.447677
Si Si6 0.444410 0.166146 0.837029
Si Si7 0.250000 0.250000 0.933330
Si Si8 0.122467 0.802342 0.992395
O O1 0.755736 0.973342 0.668787
O O2 0.609508 0.882961 0.592281
O O3 0.527090 0.059039 0.666400
O O4 0.696894 0.104884 0.582669
O O5 0.389390 0.310636 0.276897
O O6 0.377440 0.534197 0.233351
O O7 0.406955 0.100930 0.772212
O O8 0.295741 0.998162 0.678779
O O9 0.700810 0.015401 0.947749
O O10 0.809748 0.852206 0.022848
O O11 0.906276 0.061695 0.988025
O O12 0.500000 0.500000 0.500000
O O13 0.573500 0.468044 0.373981
O O14 0.708836 0.458446 0.469458
O O15 0.336334 0.181091 0.885575
O O16 0.250000 0.750000 0.008478
#
# Coordination Sequence:
#
# PCOD8303627 Si02
#       8
#     8   8   8   8   8   8   4   8
#     4  11  23  42  70  97 134 179 233 288 351 427
#     4   9  22  43  63  92 131 174 234 284 339 411
#     4  11  26  44  66 100 138 192 225 294 350 424
#     4  11  24  41  69 104 137 180 232 296 370 405
#     4  11  24  45  69 106 137 184 234 296 358 427
#     4  12  25  44  70  98 147 181 243 281 355 435
#     4  12  24  41  72 102 139 188 236 304 348 432
#     4  10  23  42  66  99 140 176 224 298 359 425
#
# _framework density 22.645807000000001
#
# number of rings (size 3 to 8) (size 9 to 14) (size 15 to 20)
#    0.000    1.200    1.333    3.600    1.867    8.533 
#    0.000    4.667    0.000    0.000    0.000    0.000 
#    0.000    0.000    0.000    0.000    0.000    0.000 
#
# Total GULP energy -743387.922472 kJ/mol
# GULP energy per Si atom -12389.798708 kJ/mol
# Density = 2.259426 g / cm^3
# Si number density = 22.645807 Si / 1000 Ang^3
#
#
#
# Elastic Constant Matrix: (Units=GPa)
#
#
# Indices 1 2 3 4 5 6 
#
# 1 63.2630 22.0899 10.8757 0.0000 0.0000 -6.2496
# 2 22.0899 63.2630 10.8757 0.0000 0.0000 6.2496
# 3 10.8757 10.8757 87.8421 0.0000 0.0000 0.0000
# 4 0.0000 0.0000 0.0000 44.4164 0.0000 0.0000
# 5 0.0000 0.0000 0.0000 0.0000 44.4164 0.0000
# 6 -6.2496 6.2496 0.0000 0.0000 0.0000 29.6966
#
#
#
# Elastic Compliance Matrix: (Units=1/GPa)
#
#
# Indices 1 2 3 4 5 6 
#
# 1 0.019022 -0.006924 -0.001498 0.000000 0.000000 0.005460
# 2 -0.006924 0.019022 -0.001498 0.000000 0.000000 -0.005460
# 3 -0.001498 -0.001498 0.011755 0.000000 0.000000 0.000000
# 4 0.000000 0.000000 0.000000 0.022514 0.000000 0.000000
# 5 0.000000 0.000000 0.000000 0.000000 0.022514 0.000000
# 6 0.005460 -0.005460 0.000000 0.000000 0.000000 0.035972
#
#
# Mechanical properties :
#
#
# Convention : Reuss Voigt Hill
#
# Bulk Modulus (GPa) = 33.37874 33.56121 33.46998
# Shear Modulus (GPa) = 31.12866 35.07433 33.10149
#
# Velocity S-wave (km/s) = 3.71157 3.93978 3.82737
# Velocity P-wave (km/s) = 5.75666 5.96222 5.86034
#
# Compressibility (1/GPa) = 0.02995919
#
# Stress axis : x y z
#
# Youngs Moduli (GPa) = 52.57202 52.57202 85.07051
#
# Poissons Ratio (x) = 0.36400 0.12742
# Poissons Ratio (y) = 0.36400 0.12742
# Poissons Ratio (z) = 0.07874 0.07874
#
# Static dielectric constant tensor:
#      x y z
#    x 4.542920 0.000000 0.000000 
#    y 0.000000 4.542920 0.000000 
#    z 0.000000 0.000000 4.190740 
# 
# 
# High freq. dielectric constant tensor:
#      x y z
#    x 1.899440 0.000000 0.000000 
#    y 0.000000 1.899440 0.000000 
#    z 0.000000 0.000000 1.902180 
# 
# From -- ./inp_files/4263.got.cif
#   From: 2010.03.12/outbox.cif.g09.slc.cpg/sg86_3_cif.got.tgz:4263.got - 2010.04.08 20:12:58.
