data_PCOD8303945
_publ_section_title
;
Structure prediction by ZEFSAII (Michael W. Deem and Ramdas Pophale) SiO2 
 PCOD8303945
Probable space group: I 4/M
;
_chemical_formula_sum "Si O2"
_cell_formula_units_Z 64
_cell_length_a 16.294699
_cell_length_b 16.294699
_cell_length_c 12.738161
_cell_angle_alpha 90.000000
_cell_angle_beta 90.000000
_cell_angle_gamma 90.000000
_cell_volume 3382.201039
_symmetry_space_group_name_H-M "I 4/M"
_symmetry_group_IT_number 87
_symmetry_cell_setting 'tetragonal'
loop_
_space_group_symop_operation_xyz
x,y,z
-y,x,z
-x,-y,z
y,-x,z
-x,-y,-z
y,-x,-z
x,y,-z
-y,x,-z
1/2+x,1/2+y,1/2+z
1/2-y,1/2+x,1/2+z
1/2-x,1/2-y,1/2+z
1/2+y,1/2-x,1/2+z
1/2-x,1/2-y,1/2-z
1/2+y,1/2-x,1/2-z
1/2+x,1/2+y,1/2-z
1/2-y,1/2+x,1/2-z
loop_
_atom_site_type_symbol
_atom_site_label
_atom_site_fract_x
_atom_site_fract_y
_atom_site_fract_z
Si Si1 0.664243 0.234847 0.620147
Si Si2 0.326641 0.650579 0.808426
Si Si3 0.122598 0.449745 0.250832
Si Si4 0.516763 0.273573 0.881759
O O1 0.648300 0.259375 0.500000
O O2 0.656802 0.316752 0.690578
O O3 0.755044 0.199894 0.633732
O O4 0.597478 0.166190 0.653213
O O5 0.408866 0.662176 0.876282
O O6 0.303865 0.554894 0.803831
O O7 0.099338 0.541760 0.286753
O O8 0.183760 0.451517 0.151973
O O9 0.482609 0.268538 0.000000
#
# Coordination Sequence:
#
# PCOD8303945 Si02
#       4
#    16  16  16  16
#     4  10  20  39  61  81 118 160 194 238 293 345
#     4  10  22  37  57  86 115 150 200 241 282 353
#     4  10  21  35  55  88 123 151 193 241 287 354
#     4  11  21  37  59  84 118 155 194 245 295 338
#
# _framework density 18.92259
#
# number of rings (size 3 to 8) (size 9 to 14) (size 15 to 20)
#    0.000    1.750    2.500    2.250    0.000    1.500 
#    0.000    8.750    0.000    0.000    0.000    7.000 
#    0.000    0.000    0.000    0.000    0.000    0.000 
#
# Total GULP energy -396858.559111 kJ/mol
# GULP energy per Si atom -12401.829972 kJ/mol
# Density = 1.887952 g / cm^3
# Si number density = 18.922590 Si / 1000 Ang^3
#
#
#
# Elastic Constant Matrix: (Units=GPa)
#
#
# Indices 1 2 3 4 5 6 
#
# 1 105.9621 31.3093 43.7359 0.0000 0.0000 1.5062
# 2 31.3093 105.9621 43.7359 0.0000 0.0000 -1.5062
# 3 43.7359 43.7359 130.4474 0.0000 0.0000 0.0000
# 4 0.0000 0.0000 0.0000 18.7077 0.0000 0.0000
# 5 0.0000 0.0000 0.0000 0.0000 18.7077 0.0000
# 6 1.5062 -1.5062 0.0000 0.0000 0.0000 34.5828
#
#
#
# Elastic Compliance Matrix: (Units=1/GPa)
#
#
# Indices 1 2 3 4 5 6 
#
# 1 0.011341 -0.002077 -0.003106 0.000000 0.000000 -0.000584
# 2 -0.002077 0.011341 -0.003106 0.000000 0.000000 0.000584
# 3 -0.003106 -0.003106 0.009749 0.000000 0.000000 0.000000
# 4 0.000000 0.000000 0.000000 0.053454 0.000000 0.000000
# 5 0.000000 0.000000 0.000000 0.000000 0.053454 0.000000
# 6 -0.000584 0.000584 0.000000 0.000000 0.000000 0.028967
#
#
# Mechanical properties :
#
#
# Convention : Reuss Voigt Hill
#
# Bulk Modulus (GPa) = 63.08072 64.43710 63.75891
# Shear Modulus (GPa) = 26.29233 29.30568 27.79901
#
# Velocity S-wave (km/s) = 3.73160 3.93964 3.83703
# Velocity P-wave (km/s) = 7.20937 7.40414 7.30740
#
# Compressibility (1/GPa) = 0.01585270
#
# Stress axis : x y z
#
# Youngs Moduli (GPa) = 88.17181 88.17181 102.57806
#
# Poissons Ratio (x) = 0.18317 0.31861
# Poissons Ratio (y) = 0.18317 0.31861
# Poissons Ratio (z) = 0.27386 0.27386
#
# Static dielectric constant tensor:
#      x y z
#    x 3.576950 0.000000 0.000000 
#    y 0.000000 3.576950 0.000000 
#    z 0.000000 0.000000 3.264450 
# 
# 
# High freq. dielectric constant tensor:
#      x y z
#    x 1.740420 0.000000 0.000000 
#    y 0.000000 1.740420 0.000000 
#    z 0.000000 0.000000 1.713930 
# 
# From -- ./inp_files/2313.got.cif
#   From: 2010.03.12/outbox.cif.g09.slc.cpg/sg87_2_cif.got.tgz:2313.got - 2010.04.08 20:16:13.
