data_PCOD8303792
_publ_section_title
;
Structure prediction by ZEFSAII (Michael W. Deem and Ramdas Pophale) SiO2 
 PCOD8303792
Probable space group: I 4/M
;
_chemical_formula_sum "Si O2"
_cell_formula_units_Z 80
_cell_length_a 22.734184
_cell_length_b 22.734184
_cell_length_c 9.804920
_cell_angle_alpha 90.000000
_cell_angle_beta 90.000000
_cell_angle_gamma 90.000000
_cell_volume 5067.605465
_symmetry_space_group_name_H-M "I 4/M"
_symmetry_group_IT_number 87
_symmetry_cell_setting 'tetragonal'
loop_
_space_group_symop_operation_xyz
x,y,z
-y,x,z
-x,-y,z
y,-x,z
-x,-y,-z
y,-x,-z
x,y,-z
-y,x,-z
1/2+x,1/2+y,1/2+z
1/2-y,1/2+x,1/2+z
1/2-x,1/2-y,1/2+z
1/2+y,1/2-x,1/2+z
1/2-x,1/2-y,1/2-z
1/2+y,1/2-x,1/2-z
1/2+x,1/2+y,1/2-z
1/2-y,1/2+x,1/2-z
loop_
_atom_site_type_symbol
_atom_site_label
_atom_site_fract_x
_atom_site_fract_y
_atom_site_fract_z
Si Si1 0.698498 0.378690 0.346446
Si Si2 0.004923 0.823346 0.754641
Si Si3 0.788783 0.706587 0.160129
Si Si4 0.905659 0.986333 0.000000
Si Si5 0.597152 0.512991 0.000000
Si Si6 0.883168 0.232732 0.837735
O O1 0.685311 0.400287 0.500000
O O2 0.695490 0.436493 0.251765
O O3 0.765272 0.354023 0.336532
O O4 0.650928 0.328737 0.305837
O O5 0.021042 0.858491 0.621848
O O6 0.049582 0.769179 0.782760
O O7 0.023051 0.868030 0.869250
O O8 0.750000 0.750000 0.250000
O O9 0.784381 0.645105 0.242792
O O10 0.768232 0.701394 0.000000
O O11 0.933873 0.049280 0.000000
O O12 0.549725 0.565095 0.000000
O O13 0.879114 0.247728 0.000000
#
# Coordination Sequence:
#
# PCOD8303792 Si02
#       6
#    16  16  16   8   8  16
#     4   9  17  32  49  69  91 120 161 199 241 289
#     4  12  21  33  49  68  94 126 166 211 242 285
#     4   9  18  32  51  70  93 121 156 201 248 299
#     4  11  20  30  48  66  86 126 170 203 234 268
#     4  11  24  36  42  60  98 136 170 205 246 282
#     4  10  19  32  50  71  94 122 161 203 248 296
#
# _framework density 15.786549000000001
#
# number of rings (size 3 to 8) (size 9 to 14) (size 15 to 20)
#    0.000    1.800    2.000    5.400    1.400    1.600 
#    9.000    0.000    0.000    0.000    0.000    0.000 
#    0.000    0.800    0.000    6.400    0.000    0.000 
#
# Total GULP energy -495541.525931 kJ/mol
# GULP energy per Si atom -12388.538148 kJ/mol
# Density = 1.575062 g / cm^3
# Si number density = 15.786549 Si / 1000 Ang^3
#
#
#
# Elastic Constant Matrix: (Units=GPa)
#
#
# Indices 1 2 3 4 5 6 
#
# 1 44.4644 14.9398 20.8546 0.0000 0.0000 -4.8066
# 2 14.9398 44.4644 20.8546 0.0000 0.0000 4.8066
# 3 20.8546 20.8546 114.0296 0.0000 0.0000 0.0000
# 4 0.0000 0.0000 0.0000 23.1654 0.0000 0.0000
# 5 0.0000 0.0000 0.0000 0.0000 23.1654 0.0000
# 6 -4.8066 4.8066 0.0000 0.0000 0.0000 28.7598
#
#
#
# Elastic Compliance Matrix: (Units=1/GPa)
#
#
# Indices 1 2 3 4 5 6 
#
# 1 0.027567 -0.008253 -0.003532 0.000000 0.000000 0.005986
# 2 -0.008253 0.027567 -0.003532 0.000000 0.000000 -0.005986
# 3 -0.003532 -0.003532 0.010062 0.000000 0.000000 0.000000
# 4 0.000000 0.000000 0.000000 0.043168 0.000000 0.000000
# 5 0.000000 0.000000 0.000000 0.000000 0.043168 0.000000
# 6 0.005986 -0.005986 0.000000 0.000000 0.000000 0.036772
#
#
# Mechanical properties :
#
#
# Convention : Reuss Voigt Hill
#
# Bulk Modulus (GPa) = 28.93483 35.13958 32.03721
# Shear Modulus (GPa) = 21.69607 24.77211 23.23409
#
# Velocity S-wave (km/s) = 3.71123 3.96560 3.84052
# Velocity P-wave (km/s) = 6.06077 6.57841 6.32489
#
# Compressibility (1/GPa) = 0.03456042
#
# Stress axis : x y z
#
# Youngs Moduli (GPa) = 36.27586 36.27586 99.38709
#
# Poissons Ratio (x) = 0.29937 0.35106
# Poissons Ratio (y) = 0.29937 0.35106
# Poissons Ratio (z) = 0.12814 0.12814
#
# Static dielectric constant tensor:
#      x y z
#    x 3.219460 0.000000 0.000000 
#    y 0.000000 3.219460 0.000000 
#    z 0.000000 0.000000 3.173130 
# 
# 
# High freq. dielectric constant tensor:
#      x y z
#    x 1.580820 0.000000 0.000000 
#    y 0.000000 1.580820 0.000000 
#    z 0.000000 0.000000 1.618960 
# 
# From -- ./inp_files/1274.got.cif
#   From: 2010.03.12/outbox.cif.g09.slc.cpg/sg87_1_cif.got.tgz:1274.got - 2010.04.08 20:16:13.
