data_PCOD8303039
_publ_section_title
;
Structure prediction by ZEFSAII (Michael W. Deem and Ramdas Pophale) SiO2 
 PCOD8303039
Probable space group: P 4/M
;
_chemical_formula_sum "Si O2"
_cell_formula_units_Z 36
_cell_length_a 9.134794
_cell_length_b 9.134794
_cell_length_c 22.842963
_cell_angle_alpha 90.000000
_cell_angle_beta 90.000000
_cell_angle_gamma 90.000000
_cell_volume 1906.118745
_symmetry_space_group_name_H-M "P 4/M"
_symmetry_group_IT_number 83
_symmetry_cell_setting 'tetragonal'
loop_
_space_group_symop_operation_xyz
x,y,z
-y,x,z
-x,-y,z
y,-x,z
-x,-y,-z
y,-x,-z
x,y,-z
-y,x,-z
loop_
_atom_site_type_symbol
_atom_site_label
_atom_site_fract_x
_atom_site_fract_y
_atom_site_fract_z
Si Si1 0.105679 0.780652 0.373422
Si Si2 0.716085 0.399235 0.849324
Si Si3 0.395833 0.285084 0.715050
Si Si4 0.216206 0.105112 0.500000
Si Si5 0.217073 0.099585 0.933111
O O1 0.155046 0.665279 0.324831
O O2 0.142210 0.706881 0.437655
O O3 0.933126 0.808021 0.366027
O O4 0.690985 0.569227 0.862824
O O5 0.762365 0.374901 0.782207
O O6 0.846100 0.345165 0.890783
O O7 0.566462 0.307881 0.701423
O O8 0.066006 0.190831 0.500000
O O9 0.070376 0.190547 0.920173
O O10 0.266600 0.122949 0.000000
#
# Coordination Sequence:
#
# PCOD8303039 Si02
#       5
#     8   8   8   4   8
#     4   9  17  30  50  74  96 121 157 198 238 282
#     4   9  19  35  52  70  94 126 163 199 234 276
#     4   9  19  35  50  66  95 131 161 193 236 282
#     4   7  12  26  46  67  94 124 152 189 236 281
#     4   9  19  35  52  72 100 129 155 189 235 283
#
# _framework density 18.886545999999999
#
# number of rings (size 3 to 8) (size 9 to 14) (size 15 to 20)
#    0.000    3.222    0.000    3.333    0.000    4.444 
#    0.000   11.111    0.000    5.333    0.000    0.000 
#    0.000    0.000    0.000    0.000    0.000    0.000 
#
# Total GULP energy -446160.082419 kJ/mol
# GULP energy per Si atom -12393.335623 kJ/mol
# Density = 1.884356 g / cm^3
# Si number density = 18.886546 Si / 1000 Ang^3
#
#
#
# Elastic Constant Matrix: (Units=GPa)
#
#
# Indices 1 2 3 4 5 6 
#
# 1 12.9300 -4.2732 10.5528 0.0000 0.0000 -0.0794
# 2 -4.2732 12.9300 10.5528 0.0000 0.0000 0.0794
# 3 10.5528 10.5528 75.5938 0.0000 0.0000 0.0000
# 4 0.0000 0.0000 0.0000 3.6245 0.0000 0.0000
# 5 0.0000 0.0000 0.0000 0.0000 3.6245 0.0000
# 6 -0.0794 0.0794 0.0000 0.0000 0.0000 32.4000
#
#
#
# Elastic Compliance Matrix: (Units=1/GPa)
#
#
# Indices 1 2 3 4 5 6 
#
# 1 0.116623 0.058493 -0.024446 0.000000 0.000000 0.000143
# 2 0.058493 0.116623 -0.024446 0.000000 0.000000 -0.000143
# 3 -0.024446 -0.024446 0.020054 0.000000 0.000000 0.000000
# 4 0.000000 0.000000 0.000000 0.275899 0.000000 0.000000
# 5 0.000000 0.000000 0.000000 0.000000 0.275899 0.000000
# 6 0.000143 -0.000143 0.000000 0.000000 0.000000 0.030865
#
#
# Mechanical properties :
#
#
# Convention : Reuss Voigt Hill
#
# Bulk Modulus (GPa) = 3.66970 15.01316 9.34143
# Shear Modulus (GPa) = 5.50907 13.57124 9.54015
#
# Velocity S-wave (km/s) = 1.70975 2.68352 2.24995
# Velocity P-wave (km/s) = 2.41763 4.19143 3.42148
#
# Compressibility (1/GPa) = 0.27250188
#
# Stress axis : x y z
#
# Youngs Moduli (GPa) = 8.57465 8.57465 49.86585
#
# Poissons Ratio (x) = -0.50156 1.21901
# Poissons Ratio (y) = -0.50156 1.21901
# Poissons Ratio (z) = 0.20961 0.20961
#
# Static dielectric constant tensor:
#      x y z
#    x 3.159840 0.000000 0.000000 
#    y 0.000000 3.159840 0.000000 
#    z 0.000000 0.000000 3.610190 
# 
# 
# High freq. dielectric constant tensor:
#      x y z
#    x 1.713330 0.000000 0.000000 
#    y 0.000000 1.713330 0.000000 
#    z 0.000000 0.000000 1.744330 
# 
# From -- ./inp_files/3094.got.cif
#   From: 2010.03.12/outbox.cif.g09.slc.cpg/sg83_2_cif.got.tgz:3094.got - 2010.04.08 20:05:18.
