data_PCOD8303044
_publ_section_title
;
Structure prediction by ZEFSAII (Michael W. Deem and Ramdas Pophale) SiO2 
 PCOD8303044
Probable space group: P 4/M
;
_chemical_formula_sum "Si O2"
_cell_formula_units_Z 56
_cell_length_a 18.743345
_cell_length_b 18.743345
_cell_length_c 9.297426
_cell_angle_alpha 90.000000
_cell_angle_beta 90.000000
_cell_angle_gamma 90.000000
_cell_volume 3266.306451
_symmetry_space_group_name_H-M "P 4/M"
_symmetry_group_IT_number 83
_symmetry_cell_setting 'tetragonal'
loop_
_space_group_symop_operation_xyz
x,y,z
-y,x,z
-x,-y,z
y,-x,z
-x,-y,-z
y,-x,-z
x,y,-z
-y,x,-z
loop_
_atom_site_type_symbol
_atom_site_label
_atom_site_fract_x
_atom_site_fract_y
_atom_site_fract_z
Si Si1 0.569989 0.587377 0.329575
Si Si2 0.979497 0.281908 0.334176
Si Si3 0.381009 0.828548 0.161873
Si Si4 0.232480 0.175833 0.332620
Si Si5 0.675609 0.298424 0.669185
Si Si6 0.567081 0.046071 0.666826
Si Si7 0.774126 0.103382 0.161738
O O1 0.489404 0.599616 0.271870
O O2 0.568618 0.584392 0.500000
O O3 0.622138 0.651900 0.280560
O O4 0.993965 0.263317 0.500000
O O5 0.896560 0.273662 0.294148
O O6 0.999617 0.363063 0.299341
O O7 0.026889 0.227029 0.240930
O O8 0.377223 0.755153 0.248939
O O9 0.435639 0.881349 0.241604
O O10 0.304496 0.865129 0.162164
O O11 0.407758 0.813921 0.000000
O O12 0.212759 0.181110 0.500000
O O13 0.284020 0.241899 0.288344
O O14 0.158427 0.175228 0.245672
O O15 0.663818 0.286903 0.500000
O O16 0.563002 0.067445 0.500000
O O17 0.500000 0.000000 0.715973
O O18 0.803116 0.093072 0.000000
#
# Coordination Sequence:
#
# PCOD8303044 Si02
#       7
#     8   8   8   8   8   8   8
#     4   8  14  26  44  68  95 121 153 195 242 286
#     4   9  17  30  47  68  95 125 155 189 230 279
#     4   9  17  29  45  64  88 121 157 191 227 274
#     4   9  17  29  46  69  96 123 154 192 233 276
#     4   9  16  28  46  69  92 119 155 197 237 276
#     4   9  17  30  46  67  95 126 157 190 228 274
#     4   9  17  29  47  68  89 120 157 191 226 269
#
# _framework density 17.144748
#
# number of rings (size 3 to 8) (size 9 to 14) (size 15 to 20)
#    0.000    3.143    0.000    1.286    0.000    4.286 
#    2.571    0.000    0.000    1.286    0.000    4.000 
#    0.000    0.000    0.000    0.000    0.000    0.000 
#
# Total GULP energy -694168.369215 kJ/mol
# GULP energy per Si atom -12395.863736 kJ/mol
# Density = 1.710573 g / cm^3
# Si number density = 17.144748 Si / 1000 Ang^3
#
#
#
# Elastic Constant Matrix: (Units=GPa)
#
#
# Indices 1 2 3 4 5 6 
#
# 1 84.6268 42.9498 30.9166 0.0000 0.0000 3.8342
# 2 42.9498 84.6268 30.9166 0.0000 0.0000 -3.8342
# 3 30.9166 30.9166 58.9990 0.0000 0.0000 0.0000
# 4 0.0000 0.0000 0.0000 12.1805 0.0000 0.0000
# 5 0.0000 0.0000 0.0000 0.0000 12.1805 0.0000
# 6 3.8342 -3.8342 0.0000 0.0000 0.0000 22.3213
#
#
#
# Elastic Compliance Matrix: (Units=1/GPa)
#
#
# Indices 1 2 3 4 5 6 
#
# 1 0.017642 -0.007135 -0.005506 0.000000 0.000000 -0.004256
# 2 -0.007135 0.017642 -0.005506 0.000000 0.000000 0.004256
# 3 -0.005506 -0.005506 0.022720 0.000000 0.000000 0.000000
# 4 0.000000 0.000000 0.000000 0.082099 0.000000 0.000000
# 5 0.000000 0.000000 0.000000 0.000000 0.082099 0.000000
# 6 -0.004256 0.004256 0.000000 0.000000 0.000000 0.046262
#
#
# Mechanical properties :
#
#
# Convention : Reuss Voigt Hill
#
# Bulk Modulus (GPa) = 46.06104 48.64650 47.35377
# Shear Modulus (GPa) = 16.02595 17.56775 16.79685
#
# Velocity S-wave (km/s) = 3.06068 3.20452 3.13342
# Velocity P-wave (km/s) = 6.27811 6.49057 6.38522
#
# Compressibility (1/GPa) = 0.02171032
#
# Stress axis : x y z
#
# Youngs Moduli (GPa) = 56.68271 56.68271 44.01457
#
# Poissons Ratio (x) = 0.40444 0.24234
# Poissons Ratio (y) = 0.40444 0.24234
# Poissons Ratio (z) = 0.31209 0.31209
#
# Static dielectric constant tensor:
#      x y z
#    x 3.192590 0.000000 0.000000 
#    y 0.000000 3.192590 0.000000 
#    z 0.000000 0.000000 3.172720 
# 
# 
# High freq. dielectric constant tensor:
#      x y z
#    x 1.647160 0.000000 0.000000 
#    y 0.000000 1.647160 0.000000 
#    z 0.000000 0.000000 1.646420 
# 
# From -- ./inp_files/1202.got.cif
#   From: 2010.03.12/outbox.cif.g09.slc.cpg/sg83_1_cif.got.tgz:1202.got - 2010.04.08 20:05:18.
