data_PCOD8303452
_publ_section_title
;
Structure prediction by ZEFSAII (Michael W. Deem and Ramdas Pophale) SiO2 
 PCOD8303452
Probable space group: P 4/N
;
_chemical_formula_sum "Si O2"
_cell_formula_units_Z 34
_cell_length_a 11.960628
_cell_length_b 11.960628
_cell_length_c 10.513082
_cell_angle_alpha 90.000000
_cell_angle_beta 90.000000
_cell_angle_gamma 90.000000
_cell_volume 1503.965999
_symmetry_space_group_name_H-M "P 4/N"
_symmetry_group_IT_number 85
_symmetry_cell_setting 'tetragonal'
loop_
_space_group_symop_operation_xyz
x,y,z
1/2-y,x,z
1/2-x,1/2-y,z
y,1/2-x,z
-x,-y,-z
1/2+y,-x,-z
1/2+x,1/2+y,-z
-y,1/2+x,-z
loop_
_atom_site_type_symbol
_atom_site_label
_atom_site_fract_x
_atom_site_fract_y
_atom_site_fract_z
Si Si1 0.953441 0.007670 0.360912
Si Si2 0.583502 0.292357 0.969165
Si Si3 0.750000 0.250000 0.500000
Si Si4 0.168562 0.417465 0.179578
Si Si5 0.714546 0.060418 0.314313
O O1 0.985661 0.894134 0.290042
O O2 0.820594 0.004201 0.380939
O O3 0.000000 0.000000 0.500000
O O4 0.998199 0.118377 0.286397
O O5 0.575028 0.242383 0.828477
O O6 0.682489 0.382494 0.951537
O O7 0.474328 0.346022 0.039006
O O8 0.684601 0.166496 0.404109
O O9 0.102217 0.301368 0.195432
#
# Coordination Sequence:
#
# PCOD8303452 Si02
#       5
#     8   8   2   8   8
#     4  12  28  48  74 107 145 197 246 308 370 447
#     4  11  23  43  75 110 144 191 250 311 376 451
#     4  12  24  48  70 112 148 200 252 318 368 456
#     4  11  27  48  73 108 153 195 241 307 386 456
#     4  12  27  45  76 106 150 193 252 307 378 446
#
# _framework density 22.606894
#
# number of rings (size 3 to 8) (size 9 to 14) (size 15 to 20)
#    0.000    0.471    4.706    2.824    9.882    2.353 
#    0.000    0.000    0.000    0.000    0.000    0.000 
#    0.000    0.000    0.000    0.000    0.000    0.000 
#
# Total GULP energy -421239.701713 kJ/mol
# GULP energy per Si atom -12389.402992 kJ/mol
# Density = 2.255544 g / cm^3
# Si number density = 22.606894 Si / 1000 Ang^3
#
#
#
# Elastic Constant Matrix: (Units=GPa)
#
#
# Indices 1 2 3 4 5 6 
#
# 1 119.6823 38.9542 26.0801 0.0000 0.0000 -6.5595
# 2 38.9542 119.6823 26.0801 0.0000 0.0000 6.5595
# 3 26.0801 26.0801 131.0170 0.0000 0.0000 0.0000
# 4 0.0000 0.0000 0.0000 37.2020 0.0000 0.0000
# 5 0.0000 0.0000 0.0000 0.0000 37.2020 0.0000
# 6 -6.5595 6.5595 0.0000 0.0000 0.0000 28.1300
#
#
#
# Elastic Compliance Matrix: (Units=1/GPa)
#
#
# Indices 1 2 3 4 5 6 
#
# 1 0.009810 -0.003065 -0.001343 0.000000 0.000000 0.003002
# 2 -0.003065 0.009810 -0.001343 0.000000 0.000000 -0.003002
# 3 -0.001343 -0.001343 0.008167 0.000000 0.000000 0.000000
# 4 0.000000 0.000000 0.000000 0.026880 0.000000 0.000000
# 5 0.000000 0.000000 0.000000 0.000000 0.026880 0.000000
# 6 0.003002 -0.003002 0.000000 0.000000 0.000000 0.036949
#
#
# Mechanical properties :
#
#
# Convention : Reuss Voigt Hill
#
# Bulk Modulus (GPa) = 61.39948 61.40115 61.40031
# Shear Modulus (GPa) = 36.92023 39.12463 38.02243
#
# Velocity S-wave (km/s) = 4.04560 4.16462 4.10554
# Velocity P-wave (km/s) = 7.00293 7.09540 7.04932
#
# Compressibility (1/GPa) = 0.01628678
#
# Stress axis : x y z
#
# Youngs Moduli (GPa) = 101.93499 101.93499 122.44181
#
# Poissons Ratio (x) = 0.31243 0.16440
# Poissons Ratio (y) = 0.31243 0.16440
# Poissons Ratio (z) = 0.13687 0.13687
#
# Static dielectric constant tensor:
#      x y z
#    x 4.669200 0.000000 0.000000 
#    y 0.000000 4.669200 0.000000 
#    z 0.000000 0.000000 4.208140 
# 
# 
# High freq. dielectric constant tensor:
#      x y z
#    x 1.891680 0.000000 0.000000 
#    y 0.000000 1.891680 0.000000 
#    z 0.000000 0.000000 1.903570 
# 
# From -- ./inp_files/1426.got.cif
#   From: 2010.03.12/outbox.cif.g09.slc.cpg/sg85_cif.got.tgz:1426.got - 2010.04.08 20:10:46.
