data_PCOD8303902
_publ_section_title
;
Structure prediction by ZEFSAII (Michael W. Deem and Ramdas Pophale) SiO2 
 PCOD8303902
Probable space group: I 4/M
;
_chemical_formula_sum "Si O2"
_cell_formula_units_Z 64
_cell_length_a 12.456382
_cell_length_b 12.456382
_cell_length_c 20.988600
_cell_angle_alpha 90.000000
_cell_angle_beta 90.000000
_cell_angle_gamma 90.000000
_cell_volume 3256.621663
_symmetry_space_group_name_H-M "I 4/M"
_symmetry_group_IT_number 87
_symmetry_cell_setting 'tetragonal'
loop_
_space_group_symop_operation_xyz
x,y,z
-y,x,z
-x,-y,z
y,-x,z
-x,-y,-z
y,-x,-z
x,y,-z
-y,x,-z
1/2+x,1/2+y,1/2+z
1/2-y,1/2+x,1/2+z
1/2-x,1/2-y,1/2+z
1/2+y,1/2-x,1/2+z
1/2-x,1/2-y,1/2-z
1/2+y,1/2-x,1/2-z
1/2+x,1/2+y,1/2-z
1/2-y,1/2+x,1/2-z
loop_
_atom_site_type_symbol
_atom_site_label
_atom_site_fract_x
_atom_site_fract_y
_atom_site_fract_z
Si Si1 0.565442 0.107666 0.074531
Si Si2 0.116006 0.272416 0.179748
Si Si3 0.504321 0.330424 0.874116
Si Si4 0.084514 0.777690 0.757556
O O1 0.682820 0.118772 0.107636
O O2 0.497074 0.211690 0.096172
O O3 0.500000 0.000000 0.094316
O O4 0.587251 0.109240 0.000000
O O5 0.143465 0.146394 0.192218
O O6 0.199773 0.335086 0.222364
O O7 0.994403 0.294714 0.200504
O O8 0.609690 0.396133 0.897426
O O9 0.509673 0.333122 0.796732
#
# Coordination Sequence:
#
# PCOD8303902 Si02
#       4
#    16  16  16  16
#     4  10  24  42  58  82 120 168 217 254 292 353
#     4  10  22  34  58  84 120 153 195 242 303 363
#     4  10  20  37  63  94 123 151 192 254 318 372
#     4  10  20  35  55  91 119 149 190 242 308 366
#
# _framework density 19.652267999999999
#
# number of rings (size 3 to 8) (size 9 to 14) (size 15 to 20)
#    0.000    2.000    2.500    0.000    7.000    1.500 
#    0.000    5.000    0.000    0.000    0.000    1.750 
#    0.000    0.000    0.000    0.000    0.000    0.000 
#
# Total GULP energy -396417.757145 kJ/mol
# GULP energy per Si atom -12388.054911 kJ/mol
# Density = 1.960754 g / cm^3
# Si number density = 19.652268 Si / 1000 Ang^3
#
#
#
# Elastic Constant Matrix: (Units=GPa)
#
#
# Indices 1 2 3 4 5 6 
#
# 1 82.7492 13.9806 48.7984 0.0000 0.0000 -0.6861
# 2 13.9806 82.7492 48.7984 0.0000 0.0000 0.6861
# 3 48.7984 48.7984 95.9444 0.0000 0.0000 0.0000
# 4 0.0000 0.0000 0.0000 187.2223 0.0000 0.0000
# 5 0.0000 0.0000 0.0000 0.0000 187.2223 0.0000
# 6 -0.6861 0.6861 0.0000 0.0000 0.0000 8.5609
#
#
#
# Elastic Compliance Matrix: (Units=1/GPa)
#
#
# Indices 1 2 3 4 5 6 
#
# 1 0.017900 0.003335 -0.010801 0.000000 0.000000 0.001167
# 2 0.003335 0.017900 -0.010801 0.000000 0.000000 -0.001167
# 3 -0.010801 -0.010801 0.021409 0.000000 0.000000 0.000000
# 4 0.000000 0.000000 0.000000 0.005341 0.000000 0.000000
# 5 0.000000 0.000000 0.000000 0.000000 0.005341 0.000000
# 6 0.001167 -0.001167 0.000000 0.000000 0.000000 0.116998
#
#
# Mechanical properties :
#
#
# Convention : Reuss Voigt Hill
#
# Bulk Modulus (GPa) = 48.36086 53.84420 51.10253
# Shear Modulus (GPa) = 21.89961 86.59212 54.24586
#
# Velocity S-wave (km/s) = 3.34182 6.64513 5.25954
# Velocity P-wave (km/s) = 6.28904 9.29166 7.93370
#
# Compressibility (1/GPa) = 0.02067788
#
# Stress axis : x y z
#
# Youngs Moduli (GPa) = 55.86534 55.86534 46.70851
#
# Poissons Ratio (x) = -0.18633 0.50448
# Poissons Ratio (y) = -0.18633 0.50448
# Poissons Ratio (z) = 0.60338 0.60338
#
# Static dielectric constant tensor:
#      x y z
#    x 3.760130 0.000000 0.000000 
#    y 0.000000 3.760130 0.000000 
#    z 0.000000 0.000000 3.487140 
# 
# 
# High freq. dielectric constant tensor:
#      x y z
#    x 1.769650 0.000000 0.000000 
#    y 0.000000 1.769650 0.000000 
#    z 0.000000 0.000000 1.737080 
# 
# From -- ./inp_files/5669.got.cif
#   From: 2010.03.12/outbox.cif.g09.slc.cpg/sg87_3_cif.got.tgz:5669.got - 2010.04.08 20:16:13.
