data_PCOD8303960
_publ_section_title
;
Structure prediction by ZEFSAII (Michael W. Deem and Ramdas Pophale) SiO2 
 PCOD8303960
Probable space group: I 4/M
;
_chemical_formula_sum "Si O2"
_cell_formula_units_Z 96
_cell_length_a 19.897599
_cell_length_b 19.897599
_cell_length_c 13.522621
_cell_angle_alpha 90.000000
_cell_angle_beta 90.000000
_cell_angle_gamma 90.000000
_cell_volume 5353.801001
_symmetry_space_group_name_H-M "I 4/M"
_symmetry_group_IT_number 87
_symmetry_cell_setting 'tetragonal'
loop_
_space_group_symop_operation_xyz
x,y,z
-y,x,z
-x,-y,z
y,-x,z
-x,-y,-z
y,-x,-z
x,y,-z
-y,x,-z
1/2+x,1/2+y,1/2+z
1/2-y,1/2+x,1/2+z
1/2-x,1/2-y,1/2+z
1/2+y,1/2-x,1/2+z
1/2-x,1/2-y,1/2-z
1/2+y,1/2-x,1/2-z
1/2+x,1/2+y,1/2-z
1/2-y,1/2+x,1/2-z
loop_
_atom_site_type_symbol
_atom_site_label
_atom_site_fract_x
_atom_site_fract_y
_atom_site_fract_z
Si Si1 0.324342 0.677076 0.297939
Si Si2 0.270565 0.540631 0.240628
Si Si3 0.760839 0.785473 0.608842
Si Si4 0.768388 0.571484 0.614655
Si Si5 0.500683 0.391065 0.884355
Si Si6 0.322986 0.875489 0.391916
O O1 0.319240 0.597201 0.287331
O O2 0.252066 0.696568 0.345063
O O3 0.338487 0.712830 0.190638
O O4 0.384470 0.700653 0.368604
O O5 0.237247 0.497201 0.326227
O O6 0.319789 0.496628 0.171463
O O7 0.205725 0.568535 0.181679
O O8 0.744602 0.817904 0.500000
O O9 0.819461 0.732672 0.593372
O O10 0.772902 0.553617 0.500000
O O11 0.836300 0.610943 0.648918
O O12 0.566652 0.433856 0.855926
O O13 0.499555 0.375193 0.000000
O O14 0.338074 0.907899 0.500000
#
# Coordination Sequence:
#
# PCOD8303960 Si02
#       6
#    16  16  16  16  16  16
#     4   9  17  29  46  70  99 129 159 196 241 287
#     4  11  19  30  52  75  94 127 173 205 232 285
#     4   8  14  27  48  70  93 122 155 198 253 299
#     4  10  21  35  49  70 102 134 160 194 245 294
#     4   9  18  32  49  72 104 135 161 197 246 295
#     4   8  16  32  51  71  97 124 154 201 254 293
#
# _framework density 17.931186
#
# number of rings (size 3 to 8) (size 9 to 14) (size 15 to 20)
#    0.000    2.833    0.000    4.500    0.000    2.000 
#    0.000    1.667    0.000    2.500    0.000    5.833 
#    0.000    0.000    0.000    0.000    0.000    0.000 
#
# Total GULP energy -594786.162964 kJ/mol
# GULP energy per Si atom -12391.378395 kJ/mol
# Density = 1.789037 g / cm^3
# Si number density = 17.931186 Si / 1000 Ang^3
#
#
#
# Elastic Constant Matrix: (Units=GPa)
#
#
# Indices 1 2 3 4 5 6 
#
# 1 60.4007 30.3509 42.0846 0.0000 0.0000 0.7142
# 2 30.3509 60.4007 42.0846 0.0000 0.0000 -0.7142
# 3 42.0846 42.0846 106.0808 0.0000 0.0000 0.0000
# 4 0.0000 0.0000 0.0000 49.8548 0.0000 0.0000
# 5 0.0000 0.0000 0.0000 0.0000 49.8548 0.0000
# 6 0.7142 -0.7142 0.0000 0.0000 0.0000 15.3272
#
#
#
# Elastic Compliance Matrix: (Units=1/GPa)
#
#
# Indices 1 2 3 4 5 6 
#
# 1 0.025393 -0.007959 -0.006916 0.000000 0.000000 -0.001554
# 2 -0.007959 0.025393 -0.006916 0.000000 0.000000 0.001554
# 3 -0.006916 -0.006916 0.014915 0.000000 0.000000 0.000000
# 4 0.000000 0.000000 0.000000 0.020058 0.000000 0.000000
# 5 0.000000 0.000000 0.000000 0.000000 0.020058 0.000000
# 6 -0.001554 0.001554 0.000000 0.000000 0.000000 0.065388
#
#
# Mechanical properties :
#
#
# Convention : Reuss Voigt Hill
#
# Bulk Modulus (GPa) = 45.21482 50.65803 47.93643
# Shear Modulus (GPa) = 22.50624 30.49820 26.50222
#
# Velocity S-wave (km/s) = 3.54665 4.12861 3.84864
# Velocity P-wave (km/s) = 6.48399 7.14422 6.82210
#
# Compressibility (1/GPa) = 0.02211664
#
# Stress axis : x y z
#
# Youngs Moduli (GPa) = 39.38117 39.38117 67.04879
#
# Poissons Ratio (x) = 0.31344 0.46373
# Poissons Ratio (y) = 0.31344 0.46373
# Poissons Ratio (z) = 0.27237 0.27237
#
# Static dielectric constant tensor:
#      x y z
#    x 3.143000 0.000000 0.000000 
#    y 0.000000 3.143000 0.000000 
#    z 0.000000 0.000000 2.809870 
# 
# 
# High freq. dielectric constant tensor:
#      x y z
#    x 1.663820 0.000000 0.000000 
#    y 0.000000 1.663820 0.000000 
#    z 0.000000 0.000000 1.701300 
# 
# From -- ./inp_files/3752.got.cif
#   From: 2010.03.12/outbox.cif.g09.slc.cpg/sg87_2_cif.got.tgz:3752.got - 2010.04.08 20:16:13.
