data_PCOD8303783
_publ_section_title
;
Structure prediction by ZEFSAII (Michael W. Deem and Ramdas Pophale) SiO2 
 PCOD8303783
Probable space group: I 4/M
;
_chemical_formula_sum "Si O2"
_cell_formula_units_Z 112
_cell_length_a 14.674778
_cell_length_b 14.674778
_cell_length_c 28.547640
_cell_angle_alpha 90.000000
_cell_angle_beta 90.000000
_cell_angle_gamma 90.000000
_cell_volume 6147.708848
_symmetry_space_group_name_H-M "I 4/M"
_symmetry_group_IT_number 87
_symmetry_cell_setting 'tetragonal'
loop_
_space_group_symop_operation_xyz
x,y,z
-y,x,z
-x,-y,z
y,-x,z
-x,-y,-z
y,-x,-z
x,y,-z
-y,x,-z
1/2+x,1/2+y,1/2+z
1/2-y,1/2+x,1/2+z
1/2-x,1/2-y,1/2+z
1/2+y,1/2-x,1/2+z
1/2-x,1/2-y,1/2-z
1/2+y,1/2-x,1/2-z
1/2+x,1/2+y,1/2-z
1/2-y,1/2+x,1/2-z
loop_
_atom_site_type_symbol
_atom_site_label
_atom_site_fract_x
_atom_site_fract_y
_atom_site_fract_z
Si Si1 0.730909 0.011092 0.052373
Si Si2 0.689954 0.781087 0.860009
Si Si3 0.365885 0.027509 0.766872
Si Si4 0.713520 0.659333 0.728265
Si Si5 0.398464 0.031398 0.131746
Si Si6 0.620426 0.411133 0.194892
Si Si7 0.813452 0.202173 0.947218
O O1 0.796208 0.096170 0.060505
O O2 0.649103 0.017736 0.088547
O O3 0.788649 0.920644 0.061940
O O4 0.689567 0.011228 0.000000
O O5 0.770797 0.826767 0.827426
O O6 0.613272 0.858649 0.868355
O O7 0.643378 0.690694 0.838690
O O8 0.736546 0.756985 0.909876
O O9 0.444994 0.106511 0.767253
O O10 0.271595 0.073315 0.751651
O O11 0.358537 0.990425 0.819827
O O12 0.750000 0.750000 0.750000
O O13 0.611891 0.643541 0.749726
O O14 0.500000 0.000000 0.126501
O O15 0.625663 0.518266 0.184862
O O16 0.786000 0.233443 0.000000
#
# Coordination Sequence:
#
# PCOD8303783 Si02
#       7
#    16  16  16  16  16  16  16
#     4   9  19  34  54  78 109 143 179 223 270 332
#     4   9  20  37  54  82 108 143 186 228 279 327
#     4  10  19  31  50  76 101 135 176 218 263 319
#     4   9  20  33  50  73 105 138 177 221 271 309
#     4  10  19  32  51  80 110 138 179 226 280 321
#     4  10  22  38  56  76 107 151 190 228 269 322
#     4   9  18  36  57  82 112 143 178 220 276 333
#
# _framework density 18.218169
#
# number of rings (size 3 to 8) (size 9 to 14) (size 15 to 20)
#    0.000    2.571    1.429    0.000    6.000    4.000 
#    5.143    1.429    0.000    0.857    0.000    1.000 
#    0.000    0.000    0.000    0.000    0.000    0.000 
#
# Total GULP energy -693800.099419 kJ/mol
# GULP energy per Si atom -12389.287490 kJ/mol
# Density = 1.817670 g / cm^3
# Si number density = 18.218169 Si / 1000 Ang^3
#
#
#
# Elastic Constant Matrix: (Units=GPa)
#
#
# Indices 1 2 3 4 5 6 
#
# 1 76.0240 37.8233 47.5152 0.0000 0.0000 -8.7584
# 2 37.8233 76.0240 47.5152 0.0000 0.0000 8.7584
# 3 47.5152 47.5152 113.8816 0.0000 0.0000 0.0000
# 4 0.0000 0.0000 0.0000 25.7025 0.0000 0.0000
# 5 0.0000 0.0000 0.0000 0.0000 25.7025 0.0000
# 6 -8.7584 8.7584 0.0000 0.0000 0.0000 22.9775
#
#
#
# Elastic Compliance Matrix: (Units=1/GPa)
#
#
# Indices 1 2 3 4 5 6 
#
# 1 0.022600 -0.009122 -0.005623 0.000000 0.000000 0.012092
# 2 -0.009122 0.022600 -0.005623 0.000000 0.000000 -0.012092
# 3 -0.005623 -0.005623 0.013473 0.000000 0.000000 0.000000
# 4 0.000000 0.000000 0.000000 0.038907 0.000000 0.000000
# 5 0.000000 0.000000 0.000000 0.000000 0.038907 0.000000
# 6 0.012092 -0.012092 0.000000 0.000000 0.000000 0.052739
#
#
# Mechanical properties :
#
#
# Convention : Reuss Voigt Hill
#
# Bulk Modulus (GPa) = 55.75546 59.07078 57.41312
# Shear Modulus (GPa) = 21.19169 23.74822 22.46996
#
# Velocity S-wave (km/s) = 3.41430 3.61438 3.51576
# Velocity P-wave (km/s) = 6.79809 7.06490 6.93278
#
# Compressibility (1/GPa) = 0.01793546
#
# Stress axis : x y z
#
# Youngs Moduli (GPa) = 44.24812 44.24812 74.21980
#
# Poissons Ratio (x) = 0.40364 0.41736
# Poissons Ratio (y) = 0.40364 0.41736
# Poissons Ratio (z) = 0.24882 0.24882
#
# Static dielectric constant tensor:
#      x y z
#    x 3.327070 0.000000 0.000000 
#    y 0.000000 3.327070 0.000000 
#    z 0.000000 0.000000 3.848910 
# 
# 
# High freq. dielectric constant tensor:
#      x y z
#    x 1.697400 0.000000 0.000000 
#    y 0.000000 1.697400 0.000000 
#    z 0.000000 0.000000 1.703520 
# 
# From -- ./inp_files/6697.got.cif
#   From: 2010.03.12/outbox.cif.g09.slc.cpg/sg87_4_cif.got.tgz:6697.got - 2010.04.08 20:16:13.
