data_PCOD8303762
_publ_section_title
;
Structure prediction by ZEFSAII (Michael W. Deem and Ramdas Pophale) SiO2 
 PCOD8303762
Probable space group: I 4/M
;
_chemical_formula_sum "Si O2"
_cell_formula_units_Z 96
_cell_length_a 25.140931
_cell_length_b 25.140931
_cell_length_c 9.098987
_cell_angle_alpha 90.000000
_cell_angle_beta 90.000000
_cell_angle_gamma 90.000000
_cell_volume 5751.164062
_symmetry_space_group_name_H-M "I 4/M"
_symmetry_group_IT_number 87
_symmetry_cell_setting 'tetragonal'
loop_
_space_group_symop_operation_xyz
x,y,z
-y,x,z
-x,-y,z
y,-x,z
-x,-y,-z
y,-x,-z
x,y,-z
-y,x,-z
1/2+x,1/2+y,1/2+z
1/2-y,1/2+x,1/2+z
1/2-x,1/2-y,1/2+z
1/2+y,1/2-x,1/2+z
1/2-x,1/2-y,1/2-z
1/2+y,1/2-x,1/2-z
1/2+x,1/2+y,1/2-z
1/2-y,1/2+x,1/2-z
loop_
_atom_site_type_symbol
_atom_site_label
_atom_site_fract_x
_atom_site_fract_y
_atom_site_fract_z
Si Si1 0.266372 0.553112 0.669867
Si Si2 0.626211 0.448031 0.172490
Si Si3 0.671613 0.746618 0.331018
Si Si4 0.950115 0.119849 0.836082
Si Si5 0.243100 0.167133 0.327590
Si Si6 0.744824 0.560346 0.339026
O O1 0.287468 0.551113 0.500000
O O2 0.312092 0.553518 0.790821
O O3 0.236869 0.609769 0.695458
O O4 0.230725 0.499093 0.699393
O O5 0.600875 0.394864 0.239201
O O6 0.597804 0.497878 0.252423
O O7 0.616915 0.451729 0.000000
O O8 0.682167 0.732470 0.500000
O O9 0.706165 0.797341 0.282080
O O10 0.690232 0.693480 0.243592
O O11 0.952359 0.182816 0.843701
O O12 0.946586 0.095453 0.000000
O O13 0.233479 0.164705 0.500000
O O14 0.256784 0.107274 0.274908
O O15 0.765002 0.578958 0.500000
#
# Coordination Sequence:
#
# PCOD8303762 Si02
#       6
#    16  16  16  16  16  16
#     4   9  18  33  49  63  84 119 155 179 210 265
#     4  11  21  31  44  64  84 102 135 186 232 259
#     4   9  18  32  48  66  91 123 156 185 216 266
#     4  10  20  34  47  58  77 111 148 176 213 268
#     4  10  19  29  45  70  96 120 147 185 231 269
#     4   9  18  31  47  64  84 114 149 181 213 259
#
# _framework density 16.692273
#
# number of rings (size 3 to 8) (size 9 to 14) (size 15 to 20)
#    0.000    2.333    0.000    4.500    0.000    9.000 
#    0.000    1.667    0.000    0.000    0.000    0.000 
#    0.000    0.667    0.000    8.333    0.000    0.000 
#
# Total GULP energy -594717.410118 kJ/mol
# GULP energy per Si atom -12389.946044 kJ/mol
# Density = 1.665428 g / cm^3
# Si number density = 16.692273 Si / 1000 Ang^3
#
#
#
# Elastic Constant Matrix: (Units=GPa)
#
#
# Indices 1 2 3 4 5 6 
#
# 1 77.8899 23.2138 29.3550 0.0000 0.0000 0.6569
# 2 23.2138 77.8899 29.3550 0.0000 0.0000 -0.6569
# 3 29.3550 29.3550 97.3860 0.0000 0.0000 0.0000
# 4 0.0000 0.0000 0.0000 20.0672 0.0000 0.0000
# 5 0.0000 0.0000 0.0000 0.0000 20.0672 0.0000
# 6 0.6569 -0.6569 0.0000 0.0000 0.0000 18.3441
#
#
#
# Elastic Compliance Matrix: (Units=1/GPa)
#
#
# Indices 1 2 3 4 5 6 
#
# 1 0.015147 -0.003158 -0.003614 0.000000 0.000000 -0.000656
# 2 -0.003158 0.015147 -0.003614 0.000000 0.000000 0.000656
# 3 -0.003614 -0.003614 0.012447 0.000000 0.000000 0.000000
# 4 0.000000 0.000000 0.000000 0.049833 0.000000 0.000000
# 5 0.000000 0.000000 0.000000 0.000000 0.049833 0.000000
# 6 -0.000656 0.000656 0.000000 0.000000 0.000000 0.054560
#
#
# Mechanical properties :
#
#
# Convention : Reuss Voigt Hill
#
# Bulk Modulus (GPa) = 45.51633 46.33480 45.92557
# Shear Modulus (GPa) = 22.21608 23.11185 22.66396
#
# Velocity S-wave (km/s) = 3.65214 3.72504 3.68877
# Velocity P-wave (km/s) = 6.71649 6.80586 6.76132
#
# Compressibility (1/GPa) = 0.02197013
#
# Stress axis : x y z
#
# Youngs Moduli (GPa) = 66.01815 66.01815 80.33985
#
# Poissons Ratio (x) = 0.20848 0.29035
# Poissons Ratio (y) = 0.20848 0.29035
# Poissons Ratio (z) = 0.23859 0.23859
#
# Static dielectric constant tensor:
#      x y z
#    x 3.135450 0.000000 0.000000 
#    y 0.000000 3.135450 0.000000 
#    z 0.000000 0.000000 3.172050 
# 
# 
# High freq. dielectric constant tensor:
#      x y z
#    x 1.615760 0.000000 0.000000 
#    y 0.000000 1.615760 0.000000 
#    z 0.000000 0.000000 1.651300 
# 
# From -- ./inp_files/1553.got.cif
#   From: 2010.03.12/outbox.cif.g09.slc.cpg/sg87_1_cif.got.tgz:1553.got - 2010.04.08 20:16:13.
