data_PCOD8303262
_publ_section_title
;
Structure prediction by ZEFSAII (Michael W. Deem and Ramdas Pophale) SiO2 
 PCOD8303262
Probable space group: P 42/M
;
_chemical_formula_sum "Si O2"
_cell_formula_units_Z 40
_cell_length_a 15.020784
_cell_length_b 15.020784
_cell_length_c 8.745764
_cell_angle_alpha 90.000000
_cell_angle_beta 90.000000
_cell_angle_gamma 90.000000
_cell_volume 1973.253837
_symmetry_space_group_name_H-M "P 42/M"
_symmetry_group_IT_number 84
_symmetry_cell_setting 'tetragonal'
loop_
_space_group_symop_operation_xyz
x,y,z
-y,x,1/2+z
-x,-y,z
y,-x,1/2+z
-x,-y,-z
y,-x,1/2-z
x,y,-z
-y,x,1/2-z
loop_
_atom_site_type_symbol
_atom_site_label
_atom_site_fract_x
_atom_site_fract_y
_atom_site_fract_z
Si Si1 0.391400 0.803455 0.323724
Si Si2 0.606900 0.571779 0.823374
Si Si3 0.076753 0.753402 0.181611
Si Si4 0.890294 0.774198 0.320528
Si Si5 0.446222 0.083696 0.321097
O O1 0.370447 0.827122 0.500000
O O2 0.378735 0.699297 0.290343
O O3 0.325138 0.858419 0.218119
O O4 0.493942 0.829357 0.285859
O O5 0.617141 0.467626 0.781318
O O6 0.579602 0.579118 0.000000
O O7 0.155588 0.817316 0.241594
O O8 0.092614 0.653253 0.249292
O O9 0.984011 0.793661 0.240161
O O10 0.076081 0.752205 0.000000
O O11 0.903751 0.783342 0.500000
O O12 0.433428 0.067647 0.500000
O O13 0.500000 0.000000 0.250203
#
# Coordination Sequence:
#
# PCOD8303262 Si02
#       5
#     8   8   8   8   8
#     4  10  21  37  59  85 115 155 196 240 294 356
#     4  10  21  36  56  80 115 158 199 242 290 346
#     4  10  22  41  63  86 117 157 196 239 294 361
#     4  11  24  39  61  90 119 153 196 251 301 346
#     4   9  16  33  62  84 105 147 193 225 274 346
#
# _framework density 20.271086
#
# number of rings (size 3 to 8) (size 9 to 14) (size 15 to 20)
#    0.000    2.000    2.000    1.800    2.800    3.600 
#    0.000    4.000    0.000    0.000    0.000    0.000 
#    0.000    0.000    0.000    0.000    0.000    0.000 
#
# Total GULP energy -495972.052238 kJ/mol
# GULP energy per Si atom -12399.301306 kJ/mol
# Density = 2.022495 g / cm^3
# Si number density = 20.271086 Si / 1000 Ang^3
#
#
#
# Elastic Constant Matrix: (Units=GPa)
#
#
# Indices 1 2 3 4 5 6 
#
# 1 101.7043 50.1094 13.3258 0.0000 0.0000 5.6163
# 2 50.1094 101.7043 13.3258 0.0000 0.0000 -5.6163
# 3 13.3258 13.3258 20.9064 0.0000 0.0000 0.0000
# 4 0.0000 0.0000 0.0000 27.6995 0.0000 0.0000
# 5 0.0000 0.0000 0.0000 0.0000 27.6995 0.0000
# 6 5.6163 -5.6163 0.0000 0.0000 0.0000 34.0486
#
#
#
# Elastic Compliance Matrix: (Units=1/GPa)
#
#
# Indices 1 2 3 4 5 6 
#
# 1 0.013760 -0.006343 -0.004728 0.000000 0.000000 -0.003316
# 2 -0.006343 0.013760 -0.004728 0.000000 0.000000 0.003316
# 3 -0.004728 -0.004728 0.053859 0.000000 0.000000 0.000000
# 4 0.000000 0.000000 0.000000 0.036102 0.000000 0.000000
# 5 0.000000 0.000000 0.000000 0.000000 0.036102 0.000000
# 6 -0.003316 0.003316 0.000000 0.000000 0.000000 0.030464
#
#
# Mechanical properties :
#
#
# Convention : Reuss Voigt Hill
#
# Bulk Modulus (GPa) = 20.08732 41.98187 31.03460
# Shear Modulus (GPa) = 21.52961 27.72646 24.62803
#
# Velocity S-wave (km/s) = 3.26250 3.70237 3.48937
# Velocity P-wave (km/s) = 4.91149 6.24755 5.61937
#
# Compressibility (1/GPa) = 0.04978264
#
# Stress axis : x y z
#
# Youngs Moduli (GPa) = 72.67262 72.67262 18.56696
#
# Poissons Ratio (x) = 0.46099 0.08778
# Poissons Ratio (y) = 0.46099 0.08778
# Poissons Ratio (z) = 0.34357 0.34357
#
# Static dielectric constant tensor:
#      x y z
#    x 3.792100 0.000000 0.000000 
#    y 0.000000 3.792100 0.000000 
#    z 0.000000 0.000000 3.339350 
# 
# 
# High freq. dielectric constant tensor:
#      x y z
#    x 1.796540 0.000000 0.000000 
#    y 0.000000 1.796540 0.000000 
#    z 0.000000 0.000000 1.761030 
# 
# From -- ./inp_files/745.got.cif
#   From: 2010.03.12/outbox.cif.g09.slc.cpg/sg84_1_cif.got.tgz:745.got - 2010.04.08 20:07:29.
