data_PCOD8303956
_publ_section_title
;
Structure prediction by ZEFSAII (Michael W. Deem and Ramdas Pophale) SiO2 
 PCOD8303956
Probable space group: I 4/M
;
_chemical_formula_sum "Si O2"
_cell_formula_units_Z 112
_cell_length_a 30.035146
_cell_length_b 30.035146
_cell_length_c 9.514330
_cell_angle_alpha 90.000000
_cell_angle_beta 90.000000
_cell_angle_gamma 90.000000
_cell_volume 8582.972191
_symmetry_space_group_name_H-M "I 4/M"
_symmetry_group_IT_number 87
_symmetry_cell_setting 'tetragonal'
loop_
_space_group_symop_operation_xyz
x,y,z
-y,x,z
-x,-y,z
y,-x,z
-x,-y,-z
y,-x,-z
x,y,-z
-y,x,-z
1/2+x,1/2+y,1/2+z
1/2-y,1/2+x,1/2+z
1/2-x,1/2-y,1/2+z
1/2+y,1/2-x,1/2+z
1/2-x,1/2-y,1/2-z
1/2+y,1/2-x,1/2-z
1/2+x,1/2+y,1/2-z
1/2-y,1/2+x,1/2-z
loop_
_atom_site_type_symbol
_atom_site_label
_atom_site_fract_x
_atom_site_fract_y
_atom_site_fract_z
Si Si1 0.780396 0.149294 0.845699
Si Si2 0.284511 0.779653 0.835441
Si Si3 0.519184 0.570789 0.500000
Si Si4 0.655546 0.401647 0.163574
Si Si5 0.157929 0.088386 0.836753
Si Si6 0.630217 0.495828 0.751898
Si Si7 0.652592 0.268470 0.655275
Si Si8 0.571429 0.515127 0.000000
O O1 0.730369 0.168437 0.816133
O O2 0.797342 0.115083 0.727663
O O3 0.811646 0.192217 0.847309
O O4 0.781797 0.126126 0.000000
O O5 0.250000 0.750000 0.750000
O O6 0.333223 0.769820 0.767241
O O7 0.284914 0.766346 0.000000
O O8 0.468604 0.554318 0.500000
O O9 0.527956 0.599751 0.636497
O O10 0.613807 0.379123 0.243281
O O11 0.657048 0.455381 0.177425
O O12 0.652800 0.388563 0.000000
O O13 0.160498 0.035129 0.811939
O O14 0.207719 0.106176 0.800912
O O15 0.146104 0.098042 0.000000
O O16 0.600174 0.522253 0.862455
O O17 0.648994 0.246681 0.500000
O O18 0.534463 0.552580 0.000000
#
# Coordination Sequence:
#
# PCOD8303956 Si02
#       8
#    16  16   8  16  16  16  16   8
#     4   8  16  28  42  57  78  98 116 138 166 212
#     4   9  15  24  38  60  80  97 113 132 164 204
#     4  11  22  34  48  60  64  82 122 158 194 244
#     4  11  22  32  44  59  74  93 119 151 191 231
#     4  10  21  34  46  57  72  95 122 150 185 230
#     4  12  23  33  45  58  72  92 119 154 197 238
#     4   8  15  27  41  58  76  94 114 139 170 210
#     4  11  22  36  46  54  72  88 108 156 210 244
#
# _framework density 13.049092
#
# number of rings (size 3 to 8) (size 9 to 14) (size 15 to 20)
#    0.000    2.143    1.429    5.143    3.000    6.857 
#    0.000    0.000    0.000    0.000    0.000    0.000 
#    0.000    0.000    0.000    0.000    0.000    0.000 
#
# Total GULP energy -693922.124241 kJ/mol
# GULP energy per Si atom -12391.466504 kJ/mol
# Density = 1.301939 g / cm^3
# Si number density = 13.049092 Si / 1000 Ang^3
#
#
#
# Elastic Constant Matrix: (Units=GPa)
#
#
# Indices 1 2 3 4 5 6 
#
# 1 48.1359 26.2651 27.8552 0.0000 0.0000 70.0977
# 2 26.2651 48.1359 27.8552 0.0000 0.0000 -70.0977
# 3 27.8552 27.8552 93.0533 0.0000 0.0000 0.0000
# 4 0.0000 0.0000 0.0000 18.1746 0.0000 0.0000
# 5 0.0000 0.0000 0.0000 0.0000 18.1746 0.0000
# 6 70.0977 -70.0977 0.0000 0.0000 0.0000 717.4573
#
#
#
# Elastic Compliance Matrix: (Units=1/GPa)
#
#
# Indices 1 2 3 4 5 6 
#
# 1 0.069837 -0.052513 -0.005186 0.000000 0.000000 -0.011954
# 2 -0.052513 0.069837 -0.005186 0.000000 0.000000 0.011954
# 3 -0.005186 -0.005186 0.013851 0.000000 0.000000 0.000000
# 4 0.000000 0.000000 0.000000 0.055022 0.000000 0.000000
# 5 0.000000 0.000000 0.000000 0.000000 0.055022 0.000000
# 6 -0.011954 0.011954 0.000000 0.000000 0.000000 0.003730
#
#
# Mechanical properties :
#
#
# Convention : Reuss Voigt Hill
#
# Bulk Modulus (GPa) = 36.02889 39.25290 37.64090
# Shear Modulus (GPa) = 12.42791 157.91795 85.17293
#
# Velocity S-wave (km/s) = 3.08944 11.01277 8.08782
# Velocity P-wave (km/s) = 6.35582 13.85115 10.77615
#
# Compressibility (1/GPa) = 0.02775550
#
# Stress axis : x y z
#
# Youngs Moduli (GPa) = 14.31904 14.31904 72.19574
#
# Poissons Ratio (x) = 0.75194 0.37439
# Poissons Ratio (y) = 0.75194 0.37439
# Poissons Ratio (z) = 0.07426 0.07426
#
# Static dielectric constant tensor:
#      x y z
#    x 2.721930 0.000000 0.000000 
#    y 0.000000 2.721930 0.000000 
#    z 0.000000 0.000000 2.846590 
# 
# 
# High freq. dielectric constant tensor:
#      x y z
#    x 1.457770 0.000000 0.000000 
#    y 0.000000 1.457770 0.000000 
#    z 0.000000 0.000000 1.517280 
# 
# From -- ./inp_files/1761.got.cif
#   From: 2010.03.12/outbox.cif.g09.slc.cpg/sg87_1_cif.got.tgz:1761.got - 2010.04.08 20:16:13.
