data_PCOD8303054
_publ_section_title
;
Structure prediction by ZEFSAII (Michael W. Deem and Ramdas Pophale) SiO2 
 PCOD8303054
Probable space group: P 42/M
;
_chemical_formula_sum "Si O2"
_cell_formula_units_Z 32
_cell_length_a 15.244798
_cell_length_b 15.244798
_cell_length_c 8.776150
_cell_angle_alpha 90.000000
_cell_angle_beta 90.000000
_cell_angle_gamma 90.000000
_cell_volume 2039.611189
_symmetry_space_group_name_H-M "P 42/M"
_symmetry_group_IT_number 84
_symmetry_cell_setting 'tetragonal'
loop_
_space_group_symop_operation_xyz
x,y,z
-y,x,1/2+z
-x,-y,z
y,-x,1/2+z
-x,-y,-z
y,-x,1/2-z
x,y,-z
-y,x,1/2-z
loop_
_atom_site_type_symbol
_atom_site_label
_atom_site_fract_x
_atom_site_fract_y
_atom_site_fract_z
Si Si1 0.100101 0.776330 0.825491
Si Si2 0.100408 0.413810 0.321393
Si Si3 0.416778 0.088746 0.323591
Si Si4 0.762655 0.101944 0.677253
O O1 0.137261 0.676805 0.803848
O O2 0.152701 0.841044 0.716842
O O3 0.998480 0.781150 0.775615
O O4 0.111515 0.806788 0.000000
O O5 0.114341 0.422331 0.500000
O O6 0.144662 0.499960 0.240113
O O7 0.141977 0.322192 0.264137
O O8 0.998893 0.412414 0.276169
O O9 0.431129 0.064039 0.500000
O O10 0.741745 0.107340 0.500000
#
# Coordination Sequence:
#
# PCOD8303054 Si02
#       4
#     8   8   8   8
#     4   9  19  32  44  61  85 115 149 183 216 253
#     4  10  17  26  43  64  84 107 139 177 217 261
#     4   9  16  28  44  62  85 109 137 175 220 262
#     4  10  20  32  45  61  85 117 149 183 220 256
#
# _framework density 15.689264
#
# number of rings (size 3 to 8) (size 9 to 14) (size 15 to 20)
#    0.000    2.500    0.000    6.750    0.000    6.500 
#    0.000    2.500    0.000    0.000    0.000    0.000 
#    0.000    1.000    0.000   10.500    0.000    5.000 
#
# Total GULP energy -396538.891324 kJ/mol
# GULP energy per Si atom -12391.840354 kJ/mol
# Density = 1.565355 g / cm^3
# Si number density = 15.689264 Si / 1000 Ang^3
#
#
#
# Elastic Constant Matrix: (Units=GPa)
#
#
# Indices 1 2 3 4 5 6 
#
# 1 75.6205 40.7879 35.0926 0.0000 0.0000 0.4420
# 2 40.7879 75.6205 35.0926 0.0000 0.0000 -0.4420
# 3 35.0926 35.0926 76.8363 0.0000 0.0000 0.0000
# 4 0.0000 0.0000 0.0000 23.9134 0.0000 0.0000
# 5 0.0000 0.0000 0.0000 0.0000 23.9134 0.0000
# 6 0.4420 -0.4420 0.0000 0.0000 0.0000 0.3312
#
#
#
# Elastic Compliance Matrix: (Units=1/GPa)
#
#
# Indices 1 2 3 4 5 6 
#
# 1 0.020785 -0.008930 -0.005414 0.000000 0.000000 -0.039662
# 2 -0.008930 0.020785 -0.005414 0.000000 0.000000 0.039662
# 3 -0.005414 -0.005414 0.017960 0.000000 0.000000 0.000000
# 4 0.000000 0.000000 0.000000 0.041818 0.000000 0.000000
# 5 0.000000 0.000000 0.000000 0.000000 0.041818 0.000000
# 6 -0.039662 0.039662 0.000000 0.000000 0.000000 3.125322
#
#
# Mechanical properties :
#
#
# Convention : Reuss Voigt Hill
#
# Bulk Modulus (GPa) = 49.96824 50.00262 49.98543
# Shear Modulus (GPa) = 1.50844 17.43852 9.47348
#
# Velocity S-wave (km/s) = 0.98160 3.33752 2.45994
# Velocity P-wave (km/s) = 5.76216 6.84046 6.32433
#
# Compressibility (1/GPa) = 0.02001271
#
# Stress axis : x y z
#
# Youngs Moduli (GPa) = 48.11121 48.11121 55.67817
#
# Poissons Ratio (x) = 0.42965 0.30146
# Poissons Ratio (y) = 0.42965 0.30146
# Poissons Ratio (z) = 0.26049 0.26049
#
# Static dielectric constant tensor:
#      x y z
#    x 3.094350 0.000000 0.000000 
#    y 0.000000 3.094350 0.000000 
#    z 0.000000 0.000000 2.988850 
# 
# 
# High freq. dielectric constant tensor:
#      x y z
#    x 1.573690 0.000000 0.000000 
#    y 0.000000 1.573690 0.000000 
#    z 0.000000 0.000000 1.616750 
# 
# From -- ./inp_files/587.got.cif
#   From: 2010.03.12/outbox.cif.g09.slc.cpg/sg84_1_cif.got.tgz:587.got - 2010.04.08 20:07:29.
