data_PCOD8303087
_publ_section_title
;
Structure prediction by ZEFSAII (Michael W. Deem and Ramdas Pophale) SiO2 
 PCOD8303087
Probable space group: P 42/M
;
_chemical_formula_sum "Si O2"
_cell_formula_units_Z 40
_cell_length_a 9.260419
_cell_length_b 9.260419
_cell_length_c 23.718022
_cell_angle_alpha 90.000000
_cell_angle_beta 90.000000
_cell_angle_gamma 90.000000
_cell_volume 2033.947516
_symmetry_space_group_name_H-M "P 42/M"
_symmetry_group_IT_number 84
_symmetry_cell_setting 'tetragonal'
loop_
_space_group_symop_operation_xyz
x,y,z
-y,x,1/2+z
-x,-y,z
y,-x,1/2+z
-x,-y,-z
y,-x,1/2-z
x,y,-z
-y,x,1/2-z
loop_
_atom_site_type_symbol
_atom_site_label
_atom_site_fract_x
_atom_site_fract_y
_atom_site_fract_z
Si Si1 0.274376 0.323782 0.173949
Si Si2 0.082605 0.643518 0.063719
Si Si3 0.583223 0.850729 0.264002
Si Si4 0.546508 0.342787 0.562855
Si Si5 0.985699 0.172399 0.832955
O O1 0.403953 0.243075 0.206725
O O2 0.247321 0.487854 0.194067
O O3 0.297899 0.328791 0.106604
O O4 0.139308 0.225182 0.186870
O O5 0.250126 0.600949 0.065405
O O6 0.050248 0.781971 0.102554
O O7 0.000000 0.500000 0.086880
O O8 0.030485 0.679758 0.000000
O O9 0.742481 0.872339 0.292401
O O10 0.500000 0.000000 0.250713
O O11 0.500000 0.500000 0.580704
O O12 0.614070 0.334493 0.500000
O O13 0.000000 0.000000 0.825773
#
# Coordination Sequence:
#
# PCOD8303087 Si02
#       5
#     8   8   8   8   8
#     4  11  23  40  64  90 122 161 206 260 304 377
#     4  10  18  37  64  88 119 161 209 257 299 364
#     4  10  24  40  59  92 125 162 211 251 314 378
#     4  10  21  38  64  92 120 156 207 262 314 360
#     4  11  23  38  60  92 130 164 202 256 315 371
#
# _framework density 19.666193
#
# number of rings (size 3 to 8) (size 9 to 14) (size 15 to 20)
#    0.000    1.600    4.000    0.600    8.400    0.400 
#    0.000    0.000    0.000    0.600    0.000    0.000 
#    0.000    0.000    0.000    0.000    0.000    0.000 
#
# Total GULP energy -495706.334167 kJ/mol
# GULP energy per Si atom -12392.658354 kJ/mol
# Density = 1.962143 g / cm^3
# Si number density = 19.666193 Si / 1000 Ang^3
#
#
#
# Elastic Constant Matrix: (Units=GPa)
#
#
# Indices 1 2 3 4 5 6 
#
# 1 97.1545 28.1275 33.0708 0.0000 0.0000 0.9641
# 2 28.1275 97.1545 33.0708 0.0000 0.0000 -0.9641
# 3 33.0708 33.0708 115.9417 0.0000 0.0000 0.0000
# 4 0.0000 0.0000 0.0000 29.4471 0.0000 0.0000
# 5 0.0000 0.0000 0.0000 0.0000 29.4471 0.0000
# 6 0.9641 -0.9641 0.0000 0.0000 0.0000 19.0790
#
#
#
# Elastic Compliance Matrix: (Units=1/GPa)
#
#
# Indices 1 2 3 4 5 6 
#
# 1 0.011952 -0.002555 -0.002680 0.000000 0.000000 -0.000733
# 2 -0.002555 0.011952 -0.002680 0.000000 0.000000 0.000733
# 3 -0.002680 -0.002680 0.010154 0.000000 0.000000 0.000000
# 4 0.000000 0.000000 0.000000 0.033959 0.000000 0.000000
# 5 0.000000 0.000000 0.000000 0.000000 0.033959 0.000000
# 6 -0.000733 0.000733 0.000000 0.000000 0.000000 0.052488
#
#
# Mechanical properties :
#
#
# Convention : Reuss Voigt Hill
#
# Bulk Modulus (GPa) = 54.86453 55.42100 55.14277
# Shear Modulus (GPa) = 28.34911 29.99343 29.17127
#
# Velocity S-wave (km/s) = 3.80085 3.90952 3.85557
# Velocity P-wave (km/s) = 6.87171 6.97289 6.92248
#
# Compressibility (1/GPa) = 0.01822671
#
# Stress axis : x y z
#
# Youngs Moduli (GPa) = 83.66569 83.66569 98.48216
#
# Poissons Ratio (x) = 0.21379 0.26397
# Poissons Ratio (y) = 0.21379 0.26397
# Poissons Ratio (z) = 0.22426 0.22426
#
# Static dielectric constant tensor:
#      x y z
#    x 3.562900 0.000000 0.000000 
#    y 0.000000 3.562900 0.000000 
#    z 0.000000 0.000000 3.668360 
# 
# 
# High freq. dielectric constant tensor:
#      x y z
#    x 1.751110 0.000000 0.000000 
#    y 0.000000 1.751110 0.000000 
#    z 0.000000 0.000000 1.779560 
# 
# From -- ./inp_files/4789.got.cif
#   From: 2010.03.12/outbox.cif.g09.slc.cpg/sg84_3_cif.got.tgz:4789.got - 2010.04.08 20:07:29.
