data_PCOD8303099
_publ_section_title
;
Structure prediction by ZEFSAII (Michael W. Deem and Ramdas Pophale) SiO2 
 PCOD8303099
Probable space group: P 42/M
;
_chemical_formula_sum "Si O2"
_cell_formula_units_Z 56
_cell_length_a 20.399094
_cell_length_b 20.399094
_cell_length_c 9.298441
_cell_angle_alpha 90.000000
_cell_angle_beta 90.000000
_cell_angle_gamma 90.000000
_cell_volume 3869.295499
_symmetry_space_group_name_H-M "P 42/M"
_symmetry_group_IT_number 84
_symmetry_cell_setting 'tetragonal'
loop_
_space_group_symop_operation_xyz
x,y,z
-y,x,1/2+z
-x,-y,z
y,-x,1/2+z
-x,-y,-z
y,-x,1/2-z
x,y,-z
-y,x,1/2-z
loop_
_atom_site_type_symbol
_atom_site_label
_atom_site_fract_x
_atom_site_fract_y
_atom_site_fract_z
Si Si1 0.078577 0.624559 0.833123
Si Si2 0.077343 0.497521 0.339125
Si Si3 0.059942 0.834609 0.661904
Si Si4 0.072493 0.368933 0.170147
Si Si5 0.751109 0.839060 0.667776
Si Si6 0.149743 0.942307 0.346086
Si Si7 0.745342 0.168681 0.340933
O O1 0.102217 0.562296 0.741660
O O2 0.134950 0.677838 0.800959
O O3 0.003987 0.647890 0.790322
O O4 0.077704 0.604731 0.000000
O O5 0.107614 0.494598 0.500000
O O6 0.098197 0.433848 0.249199
O O7 0.000000 0.500000 0.348194
O O8 0.066270 0.806145 0.500000
O O9 0.103023 0.795870 0.775000
O O10 0.076635 0.912423 0.669674
O O11 0.985153 0.828199 0.712141
O O12 0.123000 0.312627 0.223671
O O13 0.078484 0.378733 0.000000
O O14 0.763655 0.829207 0.500000
O O15 0.769082 0.768779 0.743358
O O16 0.156769 0.980283 0.500000
O O17 0.191984 0.876854 0.353434
O O18 0.725936 0.195071 0.500000
#
# Coordination Sequence:
#
# PCOD8303099 Si02
#       7
#     8   8   8   8   8   8   8
#     4   9  17  29  44  60  79 106 136 163 198 243
#     4   9  17  27  40  62  86 103 126 163 202 238
#     4  10  20  31  42  55  70  90 118 154 197 242
#     4   9  16  28  45  60  79 108 136 163 198 242
#     4  10  19  30  44  60  78 101 130 163 196 234
#     4   9  18  31  42  53  70  90 118 155 193 237
#     4   9  18  31  44  59  79 103 131 161 195 236
#
# _framework density 14.47292
#
# number of rings (size 3 to 8) (size 9 to 14) (size 15 to 20)
#    0.000    2.714    0.000    3.000    0.000    8.857 
#    0.000    4.286    0.000    0.000    0.000    0.000 
#    0.000    0.000    0.000    0.000    0.000    0.714 
#
# Total GULP energy -693737.743652 kJ/mol
# GULP energy per Si atom -12388.173994 kJ/mol
# Density = 1.443998 g / cm^3
# Si number density = 14.472920 Si / 1000 Ang^3
#
#
#
# Elastic Constant Matrix: (Units=GPa)
#
#
# Indices 1 2 3 4 5 6 
#
# 1 60.8872 26.0632 36.3421 0.0000 0.0000 -0.1615
# 2 26.0632 60.8872 36.3421 0.0000 0.0000 0.1615
# 3 36.3421 36.3421 69.9232 0.0000 0.0000 0.0000
# 4 0.0000 0.0000 0.0000 20.0895 0.0000 0.0000
# 5 0.0000 0.0000 0.0000 0.0000 20.0895 0.0000
# 6 -0.1615 0.1615 0.0000 0.0000 0.0000 13.7497
#
#
#
# Elastic Compliance Matrix: (Units=1/GPa)
#
#
# Indices 1 2 3 4 5 6 
#
# 1 0.024528 -0.004191 -0.010570 0.000000 0.000000 0.000337
# 2 -0.004191 0.024528 -0.010570 0.000000 0.000000 -0.000337
# 3 -0.010570 -0.010570 0.025288 0.000000 0.000000 0.000000
# 4 0.000000 0.000000 0.000000 0.049777 0.000000 0.000000
# 5 0.000000 0.000000 0.000000 0.000000 0.049777 0.000000
# 6 0.000337 -0.000337 0.000000 0.000000 0.000000 0.072737
#
#
# Mechanical properties :
#
#
# Convention : Reuss Voigt Hill
#
# Bulk Modulus (GPa) = 42.22551 43.24363 42.73457
# Shear Modulus (GPa) = 16.38324 16.98244 16.68284
#
# Velocity S-wave (km/s) = 3.36816 3.42920 3.39882
# Velocity P-wave (km/s) = 6.66070 6.75449 6.70775
#
# Compressibility (1/GPa) = 0.02368236
#
# Stress axis : x y z
#
# Youngs Moduli (GPa) = 40.77041 40.77041 39.54385
#
# Poissons Ratio (x) = 0.17088 0.41796
# Poissons Ratio (y) = 0.17088 0.41796
# Poissons Ratio (z) = 0.43093 0.43093
#
# Static dielectric constant tensor:
#      x y z
#    x 2.706250 0.000000 0.000000 
#    y 0.000000 2.706250 0.000000 
#    z 0.000000 0.000000 3.078680 
# 
# 
# High freq. dielectric constant tensor:
#      x y z
#    x 1.519590 0.000000 0.000000 
#    y 0.000000 1.519590 0.000000 
#    z 0.000000 0.000000 1.565610 
# 
# From -- ./inp_files/1292.got.cif
#   From: 2010.03.12/outbox.cif.g09.slc.cpg/sg84_1_cif.got.tgz:1292.got - 2010.04.08 20:07:29.
