data_PCOD8303301
_publ_section_title
;
Structure prediction by ZEFSAII (Michael W. Deem and Ramdas Pophale) SiO2 
 PCOD8303301
Probable space group: P 42/M
;
_chemical_formula_sum "Si O2"
_cell_formula_units_Z 48
_cell_length_a 9.087891
_cell_length_b 9.087891
_cell_length_c 29.545074
_cell_angle_alpha 90.000000
_cell_angle_beta 90.000000
_cell_angle_gamma 90.000000
_cell_volume 2440.120654
_symmetry_space_group_name_H-M "P 42/M"
_symmetry_group_IT_number 84
_symmetry_cell_setting 'tetragonal'
loop_
_space_group_symop_operation_xyz
x,y,z
-y,x,1/2+z
-x,-y,z
y,-x,1/2+z
-x,-y,-z
y,-x,1/2-z
x,y,-z
-y,x,1/2-z
loop_
_atom_site_type_symbol
_atom_site_label
_atom_site_fract_x
_atom_site_fract_y
_atom_site_fract_z
Si Si1 0.237357 0.654639 0.051805
Si Si2 0.727419 0.591183 0.297209
Si Si3 0.652826 0.262861 0.604144
Si Si4 0.573446 0.276647 0.700445
Si Si5 0.451251 0.836922 0.109443
Si Si6 0.047564 0.159084 0.051213
O O1 0.252830 0.498793 0.076618
O O2 0.325548 0.786788 0.075191
O O3 0.070688 0.710317 0.053474
O O4 0.290424 0.634802 0.000000
O O5 0.807288 0.613382 0.247857
O O6 0.602527 0.713544 0.306134
O O7 0.646687 0.435454 0.294706
O O8 0.844447 0.603479 0.338161
O O9 0.633262 0.197376 0.655057
O O10 0.705760 0.430501 0.606365
O O11 0.788269 0.182002 0.581186
O O12 0.500000 0.000000 0.094657
O O13 0.102923 0.136859 0.000000
O O14 0.000000 0.000000 0.070600
#
# Coordination Sequence:
#
# PCOD8303301 Si02
#       6
#     8   8   8   8   8   8
#     4  11  23  38  57  82 112 147 190 239 282 335
#     4   8  14  29  50  78 110 140 176 227 278 330
#     4  11  20  35  59  85 109 143 194 238 283 334
#     4   8  14  27  54  80 104 138 181 230 276 321
#     4  11  22  35  54  83 116 150 182 230 291 344
#     4  10  22  40  58  79 112 153 189 230 290 353
#
# _framework density 19.671156
#
# number of rings (size 3 to 8) (size 9 to 14) (size 15 to 20)
#    0.000    2.167    1.667    3.500    0.000    3.667 
#    0.000    1.667    0.000    0.000    0.000    0.000 
#    0.000    0.000    0.000    0.000    0.000    0.000 
#
# Total GULP energy -594837.114424 kJ/mol
# GULP energy per Si atom -12392.439884 kJ/mol
# Density = 1.962638 g / cm^3
# Si number density = 19.671156 Si / 1000 Ang^3
#
#
#
# Elastic Constant Matrix: (Units=GPa)
#
#
# Indices 1 2 3 4 5 6 
#
# 1 54.6577 -0.0718 29.4593 0.0000 0.0000 -1.7955
# 2 -0.0718 54.6577 29.4593 0.0000 0.0000 1.7955
# 3 29.4593 29.4593 151.8370 0.0000 0.0000 0.0000
# 4 0.0000 0.0000 0.0000 17.7111 0.0000 0.0000
# 5 0.0000 0.0000 0.0000 0.0000 17.7111 0.0000
# 6 -1.7955 1.7955 0.0000 0.0000 0.0000 29.4427
#
#
#
# Elastic Compliance Matrix: (Units=1/GPa)
#
#
# Indices 1 2 3 4 5 6 
#
# 1 0.020759 0.002414 -0.004496 0.000000 0.000000 0.001119
# 2 0.002414 0.020759 -0.004496 0.000000 0.000000 -0.001119
# 3 -0.004496 -0.004496 0.008331 0.000000 0.000000 0.000000
# 4 0.000000 0.000000 0.000000 0.056462 0.000000 0.000000
# 5 0.000000 0.000000 0.000000 0.000000 0.056462 0.000000
# 6 0.001119 -0.001119 0.000000 0.000000 0.000000 0.034101
#
#
# Mechanical properties :
#
#
# Convention : Reuss Voigt Hill
#
# Bulk Modulus (GPa) = 27.25391 42.09401 34.67396
# Shear Modulus (GPa) = 22.49623 26.46001 24.47812
#
# Velocity S-wave (km/s) = 3.38541 3.67156 3.53138
# Velocity P-wave (km/s) = 5.40057 6.27847 5.85599
#
# Compressibility (1/GPa) = 0.03669198
#
# Stress axis : x y z
#
# Youngs Moduli (GPa) = 48.17234 48.17234 120.03934
#
# Poissons Ratio (x) = -0.11627 0.53969
# Poissons Ratio (y) = -0.11627 0.53969
# Poissons Ratio (z) = 0.21658 0.21658
#
# Static dielectric constant tensor:
#      x y z
#    x 3.279480 0.000000 0.000000 
#    y 0.000000 3.279480 0.000000 
#    z 0.000000 0.000000 4.137460 
# 
# 
# High freq. dielectric constant tensor:
#      x y z
#    x 1.739630 0.000000 0.000000 
#    y 0.000000 1.739630 0.000000 
#    z 0.000000 0.000000 1.789800 
# 
# From -- ./inp_files/5788.got.cif
#   From: 2010.03.12/outbox.cif.g09.slc.cpg/sg84_3_cif.got.tgz:5788.got - 2010.04.08 20:07:29.
