data_PCOD8303525
_publ_section_title
;
Structure prediction by ZEFSAII (Michael W. Deem and Ramdas Pophale) SiO2 
 PCOD8303525
Probable space group: P 42/N
;
_chemical_formula_sum "Si O2"
_cell_formula_units_Z 56
_cell_length_a 13.601990
_cell_length_b 13.601990
_cell_length_c 15.425217
_cell_angle_alpha 90.000000
_cell_angle_beta 90.000000
_cell_angle_gamma 90.000000
_cell_volume 2853.883134
_symmetry_space_group_name_H-M "P 42/N"
_symmetry_group_IT_number 86
_space_group.IT_coordinate_system_code '2'
_symmetry_cell_setting 'tetragonal'
loop_
_space_group_symop_operation_xyz
x,y,z
-y,1/2+x,1/2+z
1/2-x,1/2-y,z
1/2+y,-x,1/2+z
-x,-y,-z
y,1/2-x,1/2-z
1/2+x,1/2+y,-z
1/2-y,x,1/2-z
loop_
_atom_site_type_symbol
_atom_site_label
_atom_site_fract_x
_atom_site_fract_y
_atom_site_fract_z
Si Si1 0.640328 0.236416 0.065957
Si Si2 0.675245 0.488009 0.722986
Si Si3 0.945537 0.405717 0.539477
Si Si4 0.997190 0.152871 0.715730
Si Si5 0.377505 0.509826 0.765560
Si Si6 0.686258 0.027704 0.017542
Si Si7 0.024329 0.138121 0.334489
O O1 0.750000 0.250000 0.108424
O O2 0.558959 0.226962 0.139997
O O3 0.603090 0.330765 0.010764
O O4 0.653103 0.141544 0.004469
O O5 0.592163 0.411732 0.754379
O O6 0.751989 0.508030 0.799455
O O7 0.625870 0.592699 0.700150
O O8 0.947915 0.413782 0.643116
O O9 0.994833 0.303096 0.511258
O O10 0.000000 0.500000 0.500000
O O11 0.979789 0.262039 0.748563
O O12 0.005302 0.146158 0.611231
O O13 0.095920 0.105945 0.755943
O O14 0.431862 0.570857 0.691092
O O15 0.638067 0.967541 0.939096
#
# Coordination Sequence:
#
# PCOD8303525 Si02
#       7
#     8   8   8   8   8   8   8
#     4   9  18  38  58  83 117 154 186 248 309 340
#     4  10  22  37  61  82 121 157 199 247 289 361
#     4  10  20  35  58  86 121 148 198 245 295 351
#     4   9  21  39  61  86 119 153 197 249 297 348
#     4  10  21  38  59  87 118 159 193 245 299 354
#     4   9  21  38  58  85 119 154 193 252 292 359
#     4  11  23  38  60  89 118 159 206 238 306 357
#
# _framework density 19.622385999999999
#
# number of rings (size 3 to 8) (size 9 to 14) (size 15 to 20)
#    0.000    2.286    1.429    0.857    4.000    6.857 
#    5.143    0.000    0.000    3.429    0.000    0.000 
#    0.000    0.000    0.000    0.000    0.000    0.000 
#
# Total GULP energy -694068.494973 kJ/mol
# GULP energy per Si atom -12394.080267 kJ/mol
# Density = 1.957772 g / cm^3
# Si number density = 19.622386 Si / 1000 Ang^3
#
#
#
# Elastic Constant Matrix: (Units=GPa)
#
#
# Indices 1 2 3 4 5 6 
#
# 1 84.7422 52.2590 21.0190 0.0000 0.0000 -2.9312
# 2 52.2590 84.7422 21.0190 0.0000 0.0000 2.9312
# 3 21.0190 21.0190 44.0934 0.0000 0.0000 0.0000
# 4 0.0000 0.0000 0.0000 24.3001 0.0000 0.0000
# 5 0.0000 0.0000 0.0000 0.0000 24.3001 0.0000
# 6 -2.9312 2.9312 0.0000 0.0000 0.0000 29.8226
#
#
#
# Elastic Compliance Matrix: (Units=1/GPa)
#
#
# Indices 1 2 3 4 5 6 
#
# 1 0.019945 -0.011396 -0.004076 0.000000 0.000000 0.003080
# 2 -0.011396 0.019945 -0.004076 0.000000 0.000000 -0.003080
# 3 -0.004076 -0.004076 0.026565 0.000000 0.000000 0.000000
# 4 0.000000 0.000000 0.000000 0.041152 0.000000 0.000000
# 5 0.000000 0.000000 0.000000 0.000000 0.041152 0.000000
# 6 0.003080 -0.003080 0.000000 0.000000 0.000000 0.034137
#
#
# Mechanical properties :
#
#
# Convention : Reuss Voigt Hill
#
# Bulk Modulus (GPa) = 36.54721 44.68575 40.61648
# Shear Modulus (GPa) = 21.63458 23.63660 22.63559
#
# Velocity S-wave (km/s) = 3.32406 3.47446 3.40009
# Velocity P-wave (km/s) = 5.77912 6.23844 6.01317
#
# Compressibility (1/GPa) = 0.02736187
#
# Stress axis : x y z
#
# Youngs Moduli (GPa) = 50.13674 50.13674 37.64387
#
# Poissons Ratio (x) = 0.57134 0.15342
# Poissons Ratio (y) = 0.57134 0.15342
# Poissons Ratio (z) = 0.20434 0.20434
#
# Static dielectric constant tensor:
#      x y z
#    x 3.658170 0.000000 0.000000 
#    y 0.000000 3.658170 0.000000 
#    z 0.000000 0.000000 3.299360 
# 
# 
# High freq. dielectric constant tensor:
#      x y z
#    x 1.763800 0.000000 0.000000 
#    y 0.000000 1.763800 0.000000 
#    z 0.000000 0.000000 1.744590 
# 
# From -- ./inp_files/3038.got.cif
#   From: 2010.03.12/outbox.cif.g09.slc.cpg/sg86_2_cif.got.tgz:3038.got - 2010.04.08 20:12:58.
