data_PCOD8303790
_publ_section_title
;
Structure prediction by ZEFSAII (Michael W. Deem and Ramdas Pophale) SiO2 
 PCOD8303790
Probable space group: I 4/M
;
_chemical_formula_sum "Si O2"
_cell_formula_units_Z 72
_cell_length_a 20.918556
_cell_length_b 20.918556
_cell_length_c 10.297288
_cell_angle_alpha 90.000000
_cell_angle_beta 90.000000
_cell_angle_gamma 90.000000
_cell_volume 4505.948914
_symmetry_space_group_name_H-M "I 4/M"
_symmetry_group_IT_number 87
_symmetry_cell_setting 'tetragonal'
loop_
_space_group_symop_operation_xyz
x,y,z
-y,x,z
-x,-y,z
y,-x,z
-x,-y,-z
y,-x,-z
x,y,-z
-y,x,-z
1/2+x,1/2+y,1/2+z
1/2-y,1/2+x,1/2+z
1/2-x,1/2-y,1/2+z
1/2+y,1/2-x,1/2+z
1/2-x,1/2-y,1/2-z
1/2+y,1/2-x,1/2-z
1/2+x,1/2+y,1/2-z
1/2-y,1/2+x,1/2-z
loop_
_atom_site_type_symbol
_atom_site_label
_atom_site_fract_x
_atom_site_fract_y
_atom_site_fract_z
Si Si1 0.438364 0.412483 0.500000
Si Si2 0.839215 0.735584 0.647203
Si Si3 0.771500 0.662257 0.145679
Si Si4 0.330146 0.439548 0.143988
Si Si5 0.924412 0.844377 0.741159
O O1 0.515291 0.412376 0.500000
O O2 0.407944 0.373043 0.381444
O O3 0.857564 0.712805 0.500000
O O4 0.824986 0.675716 0.743872
O O5 0.776776 0.778770 0.638125
O O6 0.897426 0.773639 0.714772
O O7 0.732646 0.599223 0.190014
O O8 0.801205 0.653172 0.000000
O O9 0.391892 0.393099 0.139622
O O10 0.342886 0.499328 0.235324
O O11 0.319055 0.466170 0.000000
#
# Coordination Sequence:
#
# PCOD8303790 Si02
#       5
#     8  16  16  16  16
#     4  11  22  36  42  60  96 130 164 193 229 272
#     4   9  17  30  47  67  85 112 152 190 233 276
#     4   8  16  30  45  64  88 115 145 186 231 281
#     4  10  19  32  47  66  90 120 158 191 229 270
#     4  11  20  32  46  65  90 123 156 197 226 272
#
# _framework density 15.978877000000001
#
# number of rings (size 3 to 8) (size 9 to 14) (size 15 to 20)
#    0.000    2.333    2.222    3.333    1.556    0.444 
#    8.000    1.111    0.000    0.000    0.000    0.000 
#    0.000    0.889    0.000    7.111    0.000    0.444 
#
# Total GULP energy -446126.872163 kJ/mol
# GULP energy per Si atom -12392.413116 kJ/mol
# Density = 1.594251 g / cm^3
# Si number density = 15.978877 Si / 1000 Ang^3
#
#
#
# Elastic Constant Matrix: (Units=GPa)
#
#
# Indices 1 2 3 4 5 6 
#
# 1 44.9529 43.0731 27.9663 0.0000 0.0000 1.2855
# 2 43.0731 44.9529 27.9663 0.0000 0.0000 -1.2855
# 3 27.9663 27.9663 92.1313 0.0000 0.0000 0.0000
# 4 0.0000 0.0000 0.0000 20.8733 0.0000 0.0000
# 5 0.0000 0.0000 0.0000 0.0000 20.8733 0.0000
# 6 1.2855 -1.2855 0.0000 0.0000 0.0000 20.0475
#
#
#
# Elastic Compliance Matrix: (Units=1/GPa)
#
#
# Indices 1 2 3 4 5 6 
#
# 1 0.298608 -0.284533 -0.004272 0.000000 0.000000 -0.037393
# 2 -0.284533 0.298608 -0.004272 0.000000 0.000000 0.037393
# 3 -0.004272 -0.004272 0.013448 0.000000 0.000000 0.000000
# 4 0.000000 0.000000 0.000000 0.047908 0.000000 0.000000
# 5 0.000000 0.000000 0.000000 0.000000 0.047908 0.000000
# 6 -0.037393 0.037393 0.000000 0.000000 0.000000 0.054677
#
#
# Mechanical properties :
#
#
# Convention : Reuss Voigt Hill
#
# Bulk Modulus (GPa) = 40.80279 42.22762 41.51520
# Shear Modulus (GPa) = 3.68872 17.89425 10.79149
#
# Velocity S-wave (km/s) = 1.52102 3.35008 2.60159
# Velocity P-wave (km/s) = 5.35496 6.43805 5.92132
#
# Compressibility (1/GPa) = 0.02450813
#
# Stress axis : x y z
#
# Youngs Moduli (GPa) = 3.34887 3.34887 74.36116
#
# Poissons Ratio (x) = 0.95286 0.31771
# Poissons Ratio (y) = 0.95286 0.31771
# Poissons Ratio (z) = 0.01431 0.01431
#
# Static dielectric constant tensor:
#      x y z
#    x 2.786200 0.000000 0.000000 
#    y 0.000000 2.786200 0.000000 
#    z 0.000000 0.000000 3.318880 
# 
# 
# High freq. dielectric constant tensor:
#      x y z
#    x 1.577380 0.000000 0.000000 
#    y 0.000000 1.577380 0.000000 
#    z 0.000000 0.000000 1.629970 
# 
# From -- ./inp_files/1171.got.cif
#   From: 2010.03.12/outbox.cif.g09.slc.cpg/sg87_1_cif.got.tgz:1171.got - 2010.04.08 20:16:13.
