data_PCOD8303996
_publ_section_title
;
Structure prediction by ZEFSAII (Michael W. Deem and Ramdas Pophale) SiO2 
 PCOD8303996
Probable space group: I 4/M
;
_chemical_formula_sum "Si O2"
_cell_formula_units_Z 112
_cell_length_a 15.732587
_cell_length_b 15.732587
_cell_length_c 22.500271
_cell_angle_alpha 90.000000
_cell_angle_beta 90.000000
_cell_angle_gamma 90.000000
_cell_volume 5569.138685
_symmetry_space_group_name_H-M "I 4/M"
_symmetry_group_IT_number 87
_symmetry_cell_setting 'tetragonal'
loop_
_space_group_symop_operation_xyz
x,y,z
-y,x,z
-x,-y,z
y,-x,z
-x,-y,-z
y,-x,-z
x,y,-z
-y,x,-z
1/2+x,1/2+y,1/2+z
1/2-y,1/2+x,1/2+z
1/2-x,1/2-y,1/2+z
1/2+y,1/2-x,1/2+z
1/2-x,1/2-y,1/2-z
1/2+y,1/2-x,1/2-z
1/2+x,1/2+y,1/2-z
1/2-y,1/2+x,1/2-z
loop_
_atom_site_type_symbol
_atom_site_label
_atom_site_fract_x
_atom_site_fract_y
_atom_site_fract_z
Si Si1 0.910189 0.361246 0.824944
Si Si2 0.583853 0.230771 0.129186
Si Si3 0.096279 0.344767 0.207992
Si Si4 0.187163 0.172831 0.181888
Si Si5 0.581178 0.818798 0.067226
Si Si6 0.731325 0.744651 0.434393
Si Si7 0.119002 0.070550 0.282876
O O1 0.884876 0.426344 0.772431
O O2 0.841297 0.287597 0.810990
O O3 0.899748 0.404819 0.889503
O O4 0.006099 0.325959 0.822994
O O5 0.583827 0.148463 0.171794
O O6 0.495086 0.238672 0.093892
O O7 0.657536 0.216106 0.081327
O O8 0.605054 0.313030 0.169736
O O9 0.152379 0.258564 0.212470
O O10 0.177345 0.182670 0.109980
O O11 0.143103 0.092247 0.214127
O O12 0.667181 0.765197 0.067803
O O13 0.559426 0.849112 0.000000
O O14 0.695869 0.725027 0.500000
O O15 0.029536 0.115427 0.293831
#
# Coordination Sequence:
#
# PCOD8303996 Si02
#       7
#    16  16  16  16  16  16  16
#     4  11  22  37  57  84 118 151 204 245 295 372
#     4  11  21  36  59  85 120 160 198 250 307 373
#     4  11  23  36  59  89 115 159 193 249 312 355
#     4  10  21  37  60  83 116 153 195 248 305 360
#     4  10  22  38  58  82 118 165 203 252 302 358
#     4   9  20  37  58  83 111 155 211 247 293 371
#     4  11  23  36  58  93 125 155 199 261 319 369
#
# _framework density 20.110828999999999
#
# number of rings (size 3 to 8) (size 9 to 14) (size 15 to 20)
#    0.000    1.571    1.429    3.429    6.000    2.000 
#    0.000    4.286    0.000    4.286    0.000    7.000 
#    0.000    0.000    0.000    0.000    0.000    0.000 
#
# Total GULP energy -693846.074493 kJ/mol
# GULP energy per Si atom -12390.108473 kJ/mol
# Density = 2.006506 g / cm^3
# Si number density = 20.110829 Si / 1000 Ang^3
#
#
#
# Elastic Constant Matrix: (Units=GPa)
#
#
# Indices 1 2 3 4 5 6 
#
# 1 61.6494 31.4358 45.5350 0.0000 0.0000 5.4207
# 2 31.4358 61.6494 45.5350 0.0000 0.0000 -5.4207
# 3 45.5350 45.5350 152.7206 0.0000 0.0000 0.0000
# 4 0.0000 0.0000 0.0000 27.2396 0.0000 0.0000
# 5 0.0000 0.0000 0.0000 0.0000 27.2396 0.0000
# 6 5.4207 -5.4207 0.0000 0.0000 0.0000 23.2694
#
#
#
# Elastic Compliance Matrix: (Units=1/GPa)
#
#
# Indices 1 2 3 4 5 6 
#
# 1 0.025642 -0.010475 -0.004522 0.000000 0.000000 -0.008414
# 2 -0.010475 0.025642 -0.004522 0.000000 0.000000 0.008414
# 3 -0.004522 -0.004522 0.009245 0.000000 0.000000 0.000000
# 4 0.000000 0.000000 0.000000 0.036711 0.000000 0.000000
# 5 0.000000 0.000000 0.000000 0.000000 0.036711 0.000000
# 6 -0.008414 0.008414 0.000000 0.000000 0.000000 0.046895
#
#
# Mechanical properties :
#
#
# Convention : Reuss Voigt Hill
#
# Bulk Modulus (GPa) = 46.53324 57.89232 52.21278
# Shear Modulus (GPa) = 22.02185 25.78399 23.90292
#
# Velocity S-wave (km/s) = 3.31271 3.58452 3.45129
# Velocity P-wave (km/s) = 6.14985 6.78092 6.47308
#
# Compressibility (1/GPa) = 0.02149002
#
# Stress axis : x y z
#
# Youngs Moduli (GPa) = 38.99866 38.99866 108.17146
#
# Poissons Ratio (x) = 0.40850 0.48917
# Poissons Ratio (y) = 0.40850 0.48917
# Poissons Ratio (z) = 0.17636 0.17636
#
# Static dielectric constant tensor:
#      x y z
#    x 3.510980 0.000000 0.000000 
#    y 0.000000 3.510980 0.000000 
#    z 0.000000 0.000000 3.934480 
# 
# 
# High freq. dielectric constant tensor:
#      x y z
#    x 1.774440 0.000000 0.000000 
#    y 0.000000 1.774440 0.000000 
#    z 0.000000 0.000000 1.787060 
# 
# From -- ./inp_files/5915.got.cif
#   From: 2010.03.12/outbox.cif.g09.slc.cpg/sg87_3_cif.got.tgz:5915.got - 2010.04.08 20:16:13.
