data_PCOD8303202
_publ_section_title
;
Structure prediction by ZEFSAII (Michael W. Deem and Ramdas Pophale) SiO2 
 PCOD8303202
Probable space group: P 42/M
;
_chemical_formula_sum "Si O2"
_cell_formula_units_Z 64
_cell_length_a 12.008462
_cell_length_b 12.008462
_cell_length_c 21.762109
_cell_angle_alpha 90.000000
_cell_angle_beta 90.000000
_cell_angle_gamma 90.000000
_cell_volume 3138.164877
_symmetry_space_group_name_H-M "P 42/M"
_symmetry_group_IT_number 84
_symmetry_cell_setting 'tetragonal'
loop_
_space_group_symop_operation_xyz
x,y,z
-y,x,1/2+z
-x,-y,z
y,-x,1/2+z
-x,-y,-z
y,-x,1/2-z
x,y,-z
-y,x,1/2-z
loop_
_atom_site_type_symbol
_atom_site_label
_atom_site_fract_x
_atom_site_fract_y
_atom_site_fract_z
Si Si1 0.152040 0.226040 0.429993
Si Si2 0.769776 0.487768 0.070282
Si Si3 0.181486 0.045650 0.753707
Si Si4 0.048347 0.615095 0.157752
Si Si5 0.775139 0.911574 0.889866
Si Si6 0.311924 0.407702 0.430673
Si Si7 0.699076 0.350158 0.427937
Si Si8 0.781682 0.016542 0.427893
O O1 0.192735 0.218411 0.500000
O O2 0.223303 0.323993 0.397433
O O3 0.177935 0.103961 0.402402
O O4 0.022882 0.254195 0.426274
O O5 0.842363 0.417724 0.118690
O O6 0.647382 0.432823 0.069500
O O7 0.743646 0.612035 0.095742
O O8 0.819842 0.484636 0.000000
O O9 0.284709 0.064896 0.706701
O O10 0.239116 0.068896 0.818172
O O11 0.080753 0.133979 0.744730
O O12 0.961016 0.663531 0.106505
O O13 0.000000 0.500000 0.187124
O O14 0.687378 0.822428 0.912583
O O15 0.900749 0.877175 0.905978
O O16 0.268906 0.429128 0.500000
O O17 0.317066 0.527855 0.397056
O O18 0.677775 0.357126 0.500000
O O19 0.763294 0.027807 0.500000
#
# Coordination Sequence:
#
# PCOD8303202 Si02
#       8
#     8   8   8   8   8   8   8   8
#     4  10  20  34  57  92 129 163 200 248 311 379
#     4  10  20  37  64  96 128 163 203 253 320 384
#     4  11  26  47  67  84 116 169 223 257 299 377
#     4  12  24  41  63  93 127 160 205 265 320 369
#     4  12  23  38  60  88 124 161 210 256 316 372
#     4   9  18  35  57  87 126 165 203 237 292 378
#     4  10  21  37  61  95 131 165 201 254 316 379
#     4  11  21  37  62  97 132 159 197 257 327 390
#
# _framework density 20.394085
#
# number of rings (size 3 to 8) (size 9 to 14) (size 15 to 20)
#    0.000    1.375    2.500    3.750    1.750    5.000 
#    2.250    1.875    0.000    0.000    0.000    0.000 
#    0.000    0.000    0.000    0.000    0.000    0.000 
#
# Total GULP energy -793045.926247 kJ/mol
# GULP energy per Si atom -12391.342598 kJ/mol
# Density = 2.034767 g / cm^3
# Si number density = 20.394085 Si / 1000 Ang^3
#
#
#
# Elastic Constant Matrix: (Units=GPa)
#
#
# Indices 1 2 3 4 5 6 
#
# 1 91.6075 8.3798 22.0869 0.0000 0.0000 -2.1625
# 2 8.3798 91.6075 22.0869 0.0000 0.0000 2.1625
# 3 22.0869 22.0869 64.5859 0.0000 0.0000 0.0000
# 4 0.0000 0.0000 0.0000 19.7279 0.0000 0.0000
# 5 0.0000 0.0000 0.0000 0.0000 19.7279 0.0000
# 6 -2.1625 2.1625 0.0000 0.0000 0.0000 20.9638
#
#
#
# Elastic Compliance Matrix: (Units=1/GPa)
#
#
# Indices 1 2 3 4 5 6 
#
# 1 0.011931 -0.000149 -0.004029 0.000000 0.000000 0.001246
# 2 -0.000149 0.011931 -0.004029 0.000000 0.000000 -0.001246
# 3 -0.004029 -0.004029 0.018239 0.000000 0.000000 0.000000
# 4 0.000000 0.000000 0.000000 0.050690 0.000000 0.000000
# 5 0.000000 0.000000 0.000000 0.000000 0.050690 0.000000
# 6 0.001246 -0.001246 0.000000 0.000000 0.000000 0.047958
#
#
# Mechanical properties :
#
#
# Convention : Reuss Voigt Hill
#
# Bulk Modulus (GPa) = 38.93223 39.21199 39.07211
# Shear Modulus (GPa) = 23.10389 25.10042 24.10215
#
# Velocity S-wave (km/s) = 3.36947 3.51204 3.44149
# Velocity P-wave (km/s) = 5.85399 5.97618 5.91540
#
# Compressibility (1/GPa) = 0.02568566
#
# Stress axis : x y z
#
# Youngs Moduli (GPa) = 83.81807 83.81807 54.82806
#
# Poissons Ratio (x) = 0.01252 0.22090
# Poissons Ratio (y) = 0.01252 0.22090
# Poissons Ratio (z) = 0.33769 0.33769
#
# Static dielectric constant tensor:
#      x y z
#    x 3.882400 0.000000 0.000000 
#    y 0.000000 3.882400 0.000000 
#    z 0.000000 0.000000 3.382300 
# 
# 
# High freq. dielectric constant tensor:
#      x y z
#    x 1.807330 0.000000 0.000000 
#    y 0.000000 1.807330 0.000000 
#    z 0.000000 0.000000 1.753270 
# 
# From -- ./inp_files/5083.got.cif
#   From: 2010.03.12/outbox.cif.g09.slc.cpg/sg84_3_cif.got.tgz:5083.got - 2010.04.08 20:07:29.
