data_PCOD8303733
_publ_section_title
;
Structure prediction by ZEFSAII (Michael W. Deem and Ramdas Pophale) SiO2 
 PCOD8303733
Probable space group: I 4/M
;
_chemical_formula_sum "Si O2"
_cell_formula_units_Z 104
_cell_length_a 26.216581
_cell_length_b 26.216581
_cell_length_c 7.626254
_cell_angle_alpha 90.000000
_cell_angle_beta 90.000000
_cell_angle_gamma 90.000000
_cell_volume 5241.593921
_symmetry_space_group_name_H-M "I 4/M"
_symmetry_group_IT_number 87
_symmetry_cell_setting 'tetragonal'
loop_
_space_group_symop_operation_xyz
x,y,z
-y,x,z
-x,-y,z
y,-x,z
-x,-y,-z
y,-x,-z
x,y,-z
-y,x,-z
1/2+x,1/2+y,1/2+z
1/2-y,1/2+x,1/2+z
1/2-x,1/2-y,1/2+z
1/2+y,1/2-x,1/2+z
1/2-x,1/2-y,1/2-z
1/2+y,1/2-x,1/2-z
1/2+x,1/2+y,1/2-z
1/2-y,1/2+x,1/2-z
loop_
_atom_site_type_symbol
_atom_site_label
_atom_site_fract_x
_atom_site_fract_y
_atom_site_fract_z
Si Si1 0.001778 0.085268 0.500000
Si Si2 0.518774 0.334402 0.707763
Si Si3 0.010280 0.279267 0.792541
Si Si4 0.126532 0.795328 0.792379
Si Si5 0.813842 0.596343 0.292736
Si Si6 0.182830 0.615673 0.297374
Si Si7 0.763579 0.192953 0.794356
O O1 0.004380 0.120108 0.324433
O O2 0.051425 0.049432 0.500000
O O3 0.512310 0.347066 0.500000
O O4 0.491435 0.280819 0.757016
O O5 0.578279 0.329218 0.764587
O O6 0.961578 0.310833 0.719579
O O7 0.060284 0.306754 0.711427
O O8 0.008570 0.283007 0.000000
O O9 0.123936 0.737236 0.720233
O O10 0.179369 0.819937 0.722830
O O11 0.125800 0.791295 0.000000
O O12 0.815272 0.596705 0.500000
O O13 0.864595 0.625002 0.225493
O O14 0.195836 0.610404 0.500000
O O15 0.222278 0.655334 0.206323
O O16 0.750000 0.250000 0.750000
O O17 0.762699 0.184769 0.000000
#
# Coordination Sequence:
#
# PCOD8303733 Si02
#       7
#     8  16  16  16  16  16  16
#     4  11  26  44  60  86 120 144 190 259 298 336
#     4   9  19  40  65  83 108 153 196 233 292 347
#     4   8  17  35  56  77 105 144 187 228 269 331
#     4   8  15  30  52  75 103 143 182 214 258 335
#     4   9  16  31  51  69 100 139 175 214 264 322
#     4  10  19  30  48  76 105 135 173 221 271 322
#     4  10  18  28  43  70 107 137 165 207 262 330
#
# _framework density 19.841294000000001
#
# number of rings (size 3 to 8) (size 9 to 14) (size 15 to 20)
#    0.000    2.846    1.538    1.846    0.000    1.846 
#    8.308    3.846    0.000    0.462    0.000    3.231 
#    0.000    0.000    0.000    0.000    0.000    0.000 
#
# Total GULP energy -644245.168020 kJ/mol
# GULP energy per Si atom -12389.330154 kJ/mol
# Density = 1.979613 g / cm^3
# Si number density = 19.841294 Si / 1000 Ang^3
#
#
#
# Elastic Constant Matrix: (Units=GPa)
#
#
# Indices 1 2 3 4 5 6 
#
# 1 137.1307 71.3725 19.8466 0.0000 0.0000 6.7492
# 2 71.3725 137.1307 19.8466 0.0000 0.0000 -6.7492
# 3 19.8466 19.8466 43.7839 0.0000 0.0000 0.0000
# 4 0.0000 0.0000 0.0000 20.0005 0.0000 0.0000
# 5 0.0000 0.0000 0.0000 0.0000 20.0005 0.0000
# 6 6.7492 -6.7492 0.0000 0.0000 0.0000 32.5324
#
#
#
# Elastic Compliance Matrix: (Units=1/GPa)
#
#
# Indices 1 2 3 4 5 6 
#
# 1 0.010566 -0.005317 -0.002379 0.000000 0.000000 -0.003295
# 2 -0.005317 0.010566 -0.002379 0.000000 0.000000 0.003295
# 3 -0.002379 -0.002379 0.024996 0.000000 0.000000 0.000000
# 4 0.000000 0.000000 0.000000 0.049999 0.000000 0.000000
# 5 0.000000 0.000000 0.000000 0.000000 0.049999 0.000000
# 6 -0.003295 0.003295 0.000000 0.000000 0.000000 0.032106
#
#
# Mechanical properties :
#
#
# Convention : Reuss Voigt Hill
#
# Bulk Modulus (GPa) = 38.49514 60.01962 49.25738
# Shear Modulus (GPa) = 24.14953 28.30533 26.22743
#
# Velocity S-wave (km/s) = 3.49253 3.78112 3.63968
# Velocity P-wave (km/s) = 5.97556 7.02695 6.52247
#
# Compressibility (1/GPa) = 0.02597731
#
# Stress axis : x y z
#
# Youngs Moduli (GPa) = 94.64013 94.64013 40.00564
#
# Poissons Ratio (x) = 0.50323 0.09519
# Poissons Ratio (y) = 0.50323 0.09519
# Poissons Ratio (z) = 0.22518 0.22518
#
# Static dielectric constant tensor:
#      x y z
#    x 3.938830 0.000000 0.000000 
#    y 0.000000 3.938830 0.000000 
#    z 0.000000 0.000000 3.286110 
# 
# 
# High freq. dielectric constant tensor:
#      x y z
#    x 1.762830 0.000000 0.000000 
#    y 0.000000 1.762830 0.000000 
#    z 0.000000 0.000000 1.751370 
# 
# From -- ./inp_files/1641.got.cif
#   From: 2010.03.12/outbox.cif.g09.slc.cpg/sg87_1_cif.got.tgz:1641.got - 2010.04.08 20:16:13.
