data_PCOD8303506
_publ_section_title
;
Structure prediction by ZEFSAII (Michael W. Deem and Ramdas Pophale) SiO2 
 PCOD8303506
Probable space group: P 42/N
;
_chemical_formula_sum "Si O2"
_cell_formula_units_Z 48
_cell_length_a 8.500390
_cell_length_b 8.500390
_cell_length_c 29.671624
_cell_angle_alpha 90.000000
_cell_angle_beta 90.000000
_cell_angle_gamma 90.000000
_cell_volume 2143.971561
_symmetry_space_group_name_H-M "P 42/N"
_symmetry_group_IT_number 86
_space_group.IT_coordinate_system_code '2'
_symmetry_cell_setting 'tetragonal'
loop_
_space_group_symop_operation_xyz
x,y,z
-y,1/2+x,1/2+z
1/2-x,1/2-y,z
1/2+y,-x,1/2+z
-x,-y,-z
y,1/2-x,1/2-z
1/2+x,1/2+y,-z
1/2-y,x,1/2-z
loop_
_atom_site_type_symbol
_atom_site_label
_atom_site_fract_x
_atom_site_fract_y
_atom_site_fract_z
Si Si1 0.538832 0.938934 0.431757
Si Si2 0.103155 0.474439 0.340606
Si Si3 0.848754 0.092406 0.421615
Si Si4 0.613324 0.960765 0.836225
Si Si5 0.564520 0.758925 0.515189
Si Si6 0.106910 0.033890 0.751653
O O1 0.498966 0.790635 0.464353
O O2 0.464912 0.922305 0.382145
O O3 0.729742 0.949841 0.431802
O O4 0.470029 0.096504 0.452356
O O5 0.026503 0.301989 0.338552
O O6 0.288620 0.454856 0.344327
O O7 0.062891 0.573675 0.296623
O O8 0.750000 0.250000 0.413839
O O9 0.935433 0.042136 0.376075
O O10 0.972346 0.109491 0.463334
O O11 0.558711 0.024576 0.788484
O O12 0.750000 0.750000 0.516709
O O13 0.036379 0.207441 0.756777
#
# Coordination Sequence:
#
# PCOD8303506 Si02
#       6
#     8   8   8   8   8   8
#     4  10  21  37  62  89 126 172 213 276 325 386
#     4  11  22  41  67  97 130 161 222 268 322 393
#     4  10  19  36  64  92 121 169 215 264 336 378
#     4  11  22  39  70  99 120 171 216 271 323 390
#     4  10  20  37  59  89 124 169 217 272 321 386
#     4  11  26  44  65  95 134 170 206 261 329 396
#
# _framework density 22.388355000000001
#
# number of rings (size 3 to 8) (size 9 to 14) (size 15 to 20)
#    0.000    1.500    3.333    3.000    0.000    4.000 
#    6.000    3.333    3.667    0.000    0.000    0.000 
#    0.000    0.000    0.000    0.000    0.000    0.000 
#
# Total GULP energy -595216.211424 kJ/mol
# GULP energy per Si atom -12400.337738 kJ/mol
# Density = 2.233740 g / cm^3
# Si number density = 22.388355 Si / 1000 Ang^3
#
#
#
# Elastic Constant Matrix: (Units=GPa)
#
#
# Indices 1 2 3 4 5 6 
#
# 1 51.2140 18.5985 41.2591 0.0000 0.0000 -2.3273
# 2 18.5985 51.2140 41.2591 0.0000 0.0000 2.3273
# 3 41.2591 41.2591 187.2906 0.0000 0.0000 0.0000
# 4 0.0000 0.0000 0.0000 25.7703 0.0000 0.0000
# 5 0.0000 0.0000 0.0000 0.0000 25.7703 0.0000
# 6 -2.3273 2.3273 0.0000 0.0000 0.0000 16.9315
#
#
#
# Elastic Compliance Matrix: (Units=1/GPa)
#
#
# Indices 1 2 3 4 5 6 
#
# 1 0.025320 -0.005953 -0.004266 0.000000 0.000000 0.004299
# 2 -0.005953 0.025320 -0.004266 0.000000 0.000000 -0.004299
# 3 -0.004266 -0.004266 0.007219 0.000000 0.000000 0.000000
# 4 0.000000 0.000000 0.000000 0.038804 0.000000 0.000000
# 5 0.000000 0.000000 0.000000 0.000000 0.038804 0.000000
# 6 0.004299 -0.004299 0.000000 0.000000 0.000000 0.060243
#
#
# Mechanical properties :
#
#
# Convention : Reuss Voigt Hill
#
# Bulk Modulus (GPa) = 34.61730 54.66134 44.63932
# Shear Modulus (GPa) = 21.33894 26.26789 23.80341
#
# Velocity S-wave (km/s) = 3.09062 3.42904 3.26422
# Velocity P-wave (km/s) = 5.31335 6.33607 5.84712
#
# Compressibility (1/GPa) = 0.02888729
#
# Stress axis : x y z
#
# Youngs Moduli (GPa) = 39.49386 39.49386 138.52241
#
# Poissons Ratio (x) = 0.23512 0.59100
# Poissons Ratio (y) = 0.23512 0.59100
# Poissons Ratio (z) = 0.16850 0.16850
#
# Static dielectric constant tensor:
#      x y z
#    x 4.108890 0.000000 0.000000 
#    y 0.000000 4.108890 0.000000 
#    z 0.000000 0.000000 4.251620 
# 
# 
# High freq. dielectric constant tensor:
#      x y z
#    x 1.877720 0.000000 0.000000 
#    y 0.000000 1.877720 0.000000 
#    z 0.000000 0.000000 1.898160 
# 
# From -- ./inp_files/5189.got.cif
#   From: 2010.03.12/outbox.cif.g09.slc.cpg/sg86_3_cif.got.tgz:5189.got - 2010.04.08 20:12:58.
