data_PCOD8303411
_publ_section_title
;
Structure prediction by ZEFSAII (Michael W. Deem and Ramdas Pophale) SiO2 
 PCOD8303411
Probable space group: P 4/N
;
_chemical_formula_sum "Si O2"
_cell_formula_units_Z 64
_cell_length_a 18.122573
_cell_length_b 18.122573
_cell_length_c 10.370740
_cell_angle_alpha 90.000000
_cell_angle_beta 90.000000
_cell_angle_gamma 90.000000
_cell_volume 3406.037789
_symmetry_space_group_name_H-M "P 4/N"
_symmetry_group_IT_number 85
_symmetry_cell_setting 'tetragonal'
loop_
_space_group_symop_operation_xyz
x,y,z
1/2-y,x,z
1/2-x,1/2-y,z
y,1/2-x,z
-x,-y,-z
1/2+y,-x,-z
1/2+x,1/2+y,-z
-y,1/2+x,-z
loop_
_atom_site_type_symbol
_atom_site_label
_atom_site_fract_x
_atom_site_fract_y
_atom_site_fract_z
Si Si1 0.075136 0.177834 0.467891
Si Si2 0.062296 0.689878 0.396531
Si Si3 0.365521 0.284927 0.747690
Si Si4 0.044307 0.334208 0.393754
Si Si5 0.257625 0.635889 0.037099
Si Si6 0.206301 0.523055 0.841109
Si Si7 0.834793 0.412666 0.510310
Si Si8 0.864944 0.096818 0.745123
O O1 0.112881 0.206548 0.598400
O O2 0.060340 0.247310 0.374167
O O3 0.124051 0.121652 0.386667
O O4 0.997381 0.138112 0.500478
O O5 0.041382 0.735717 0.272031
O O6 0.090200 0.746415 0.510187
O O7 0.126431 0.629094 0.367654
O O8 0.990770 0.651356 0.462618
O O9 0.298916 0.340937 0.776938
O O10 0.434455 0.303790 0.842801
O O11 0.991616 0.364597 0.278554
O O12 0.291600 0.620979 0.177545
O O13 0.182530 0.683616 0.049513
O O14 0.241870 0.556407 0.970804
O O15 0.126409 0.561636 0.819042
O O16 0.864121 0.363756 0.392139
#
# Coordination Sequence:
#
# PCOD8303411 Si02
#       8
#     8   8   8   8   8   8   8   8
#     4  11  18  32  49  80 108 141 178 217 275 324
#     4   9  17  30  43  74 101 136 172 209 275 317
#     4  11  20  34  57  83 106 136 179 230 271 314
#     4  10  20  31  51  76 108 142 176 220 270 334
#     4   9  19  34  59  81 102 146 191 229 269 318
#     4  10  18  36  55  78 108 138 181 233 270 319
#     4   9  18  29  46  70 110 139 172 215 267 331
#     4   9  18  34  52  76 110 144 178 217 275 324
#
# _framework density 18.79016
#
# number of rings (size 3 to 8) (size 9 to 14) (size 15 to 20)
#    0.000    2.250    5.000    0.000    0.000    5.500 
#    2.250    5.000    2.750    1.500    0.000    0.000 
#    0.000    0.000    0.000    0.000    0.000    0.000 
#
# Total GULP energy -792865.325872 kJ/mol
# GULP energy per Si atom -12388.520717 kJ/mol
# Density = 1.874739 g / cm^3
# Si number density = 18.790160 Si / 1000 Ang^3
#
#
#
# Elastic Constant Matrix: (Units=GPa)
#
#
# Indices 1 2 3 4 5 6 
#
# 1 108.6144 58.9144 29.4733 0.0000 0.0000 2.7189
# 2 58.9144 108.6144 29.4733 0.0000 0.0000 -2.7189
# 3 29.4733 29.4733 38.9253 0.0000 0.0000 0.0000
# 4 0.0000 0.0000 0.0000 21.4696 0.0000 0.0000
# 5 0.0000 0.0000 0.0000 0.0000 21.4696 0.0000
# 6 2.7189 -2.7189 0.0000 0.0000 0.0000 30.5533
#
#
#
# Elastic Compliance Matrix: (Units=1/GPa)
#
#
# Indices 1 2 3 4 5 6 
#
# 1 0.014228 -0.006091 -0.006161 0.000000 0.000000 -0.001808
# 2 -0.006091 0.014228 -0.006161 0.000000 0.000000 0.001808
# 3 -0.006161 -0.006161 0.035020 0.000000 0.000000 0.000000
# 4 0.000000 0.000000 0.000000 0.046577 0.000000 0.000000
# 5 0.000000 0.000000 0.000000 0.000000 0.046577 0.000000
# 6 -0.001808 0.001808 0.000000 0.000000 0.000000 0.033052
#
#
# Mechanical properties :
#
#
# Convention : Reuss Voigt Hill
#
# Bulk Modulus (GPa) = 37.52374 54.65288 46.08831
# Shear Modulus (GPa) = 21.24121 23.91804 22.57963
#
# Velocity S-wave (km/s) = 3.36585 3.57165 3.47028
# Velocity P-wave (km/s) = 5.92609 6.79396 6.37481
#
# Compressibility (1/GPa) = 0.02664979
#
# Stress axis : x y z
#
# Youngs Moduli (GPa) = 70.28519 70.28519 28.55489
#
# Poissons Ratio (x) = 0.42809 0.17593
# Poissons Ratio (y) = 0.42809 0.17593
# Poissons Ratio (z) = 0.43303 0.43303
#
# Static dielectric constant tensor:
#      x y z
#    x 3.664520 0.000000 0.000000 
#    y 0.000000 3.664520 0.000000 
#    z 0.000000 0.000000 2.995790 
# 
# 
# High freq. dielectric constant tensor:
#      x y z
#    x 1.731450 0.000000 0.000000 
#    y 0.000000 1.731450 0.000000 
#    z 0.000000 0.000000 1.674770 
# 
# From -- ./inp_files/1843.got.cif
#   From: 2010.03.12/outbox.cif.g09.slc.cpg/sg85_cif.got.tgz:1843.got - 2010.04.08 20:10:46.
