data_PCOD8303272
_publ_section_title
;
Structure prediction by ZEFSAII (Michael W. Deem and Ramdas Pophale) SiO2 
 PCOD8303272
Probable space group: P 42/M
;
_chemical_formula_sum "Si O2"
_cell_formula_units_Z 24
_cell_length_a 11.875336
_cell_length_b 11.875336
_cell_length_c 8.571392
_cell_angle_alpha 90.000000
_cell_angle_beta 90.000000
_cell_angle_gamma 90.000000
_cell_volume 1208.768601
_symmetry_space_group_name_H-M "P 42/M"
_symmetry_group_IT_number 84
_symmetry_cell_setting 'tetragonal'
loop_
_space_group_symop_operation_xyz
x,y,z
-y,x,1/2+z
-x,-y,z
y,-x,1/2+z
-x,-y,-z
y,-x,1/2-z
x,y,-z
-y,x,1/2-z
loop_
_atom_site_type_symbol
_atom_site_label
_atom_site_fract_x
_atom_site_fract_y
_atom_site_fract_z
Si Si1 0.029850 0.166128 0.817377
Si Si2 0.584888 0.099840 0.681425
Si Si3 0.335784 0.466532 0.680851
O O1 0.063060 0.291001 0.765549
O O2 0.917486 0.131906 0.724425
O O3 0.003422 0.159130 0.000000
O O4 0.581912 0.132545 0.500000
O O5 0.546317 0.205330 0.782068
O O6 0.500000 0.000000 0.720596
O O7 0.374840 0.592594 0.723289
O O8 0.357623 0.444538 0.500000
#
# Coordination Sequence:
#
# PCOD8303272 Si02
#       3
#     8   8   8
#     4  10  21  38  61  87 119 158 201 247 299 357
#     4  10  23  41  61  90 125 160 200 249 303 357
#     4  11  23  41  65  91 122 160 203 249 303 361
#
# _framework density 19.854915999999999
#
# number of rings (size 3 to 8) (size 9 to 14) (size 15 to 20)
#    0.000    1.667    0.000    6.000    4.667    3.333 
#    0.000    0.000    0.000    0.000    0.000    0.000 
#    0.000    0.000    0.000    0.000    0.000    0.000 
#
# Total GULP energy -297747.759173 kJ/mol
# GULP energy per Si atom -12406.156632 kJ/mol
# Density = 1.980973 g / cm^3
# Si number density = 19.854916 Si / 1000 Ang^3
#
#
#
# Elastic Constant Matrix: (Units=GPa)
#
#
# Indices 1 2 3 4 5 6 
#
# 1 127.2162 63.6272 27.6731 0.0000 0.0000 0.6030
# 2 63.6272 127.2162 27.6731 0.0000 0.0000 -0.6030
# 3 27.6731 27.6731 60.2829 0.0000 0.0000 0.0000
# 4 0.0000 0.0000 0.0000 28.7431 0.0000 0.0000
# 5 0.0000 0.0000 0.0000 0.0000 28.7431 0.0000
# 6 0.6030 -0.6030 0.0000 0.0000 0.0000 19.2784
#
#
#
# Elastic Compliance Matrix: (Units=1/GPa)
#
#
# Indices 1 2 3 4 5 6 
#
# 1 0.010890 -0.004845 -0.002775 0.000000 0.000000 -0.000492
# 2 -0.004845 0.010890 -0.002775 0.000000 0.000000 0.000492
# 3 -0.002775 -0.002775 0.019136 0.000000 0.000000 0.000000
# 4 0.000000 0.000000 0.000000 0.034791 0.000000 0.000000
# 5 0.000000 0.000000 0.000000 0.000000 0.034791 0.000000
# 6 -0.000492 0.000492 0.000000 0.000000 0.000000 0.051902
#
#
# Mechanical properties :
#
#
# Convention : Reuss Voigt Hill
#
# Bulk Modulus (GPa) = 49.68688 61.40689 55.54689
# Shear Modulus (GPa) = 26.32982 28.40238 27.36610
#
# Velocity S-wave (km/s) = 3.64553 3.78629 3.71658
# Velocity P-wave (km/s) = 6.54211 7.07882 6.81575
#
# Compressibility (1/GPa) = 0.02012604
#
# Stress axis : x y z
#
# Youngs Moduli (GPa) = 91.82757 91.82757 52.25746
#
# Poissons Ratio (x) = 0.44494 0.14500
# Poissons Ratio (y) = 0.44494 0.14500
# Poissons Ratio (z) = 0.25480 0.25480
#
# Static dielectric constant tensor:
#      x y z
#    x 3.630000 0.000000 0.000000 
#    y 0.000000 3.630000 0.000000 
#    z 0.000000 0.000000 3.595750 
# 
# 
# High freq. dielectric constant tensor:
#      x y z
#    x 1.780470 0.000000 0.000000 
#    y 0.000000 1.780470 0.000000 
#    z 0.000000 0.000000 1.778810 
# 
# From -- ./inp_files/388.got.cif
#   From: 2010.03.12/outbox.cif.g09.slc.cpg/sg84_1_cif.got.tgz:388.got - 2010.04.08 20:07:29.
