data_PCOD8303858
_publ_section_title
;
Structure prediction by ZEFSAII (Michael W. Deem and Ramdas Pophale) SiO2 
 PCOD8303858
Probable space group: I 4/M
;
_chemical_formula_sum "Si O2"
_cell_formula_units_Z 96
_cell_length_a 15.496025
_cell_length_b 15.496025
_cell_length_c 23.272869
_cell_angle_alpha 90.000000
_cell_angle_beta 90.000000
_cell_angle_gamma 90.000000
_cell_volume 5588.439346
_symmetry_space_group_name_H-M "I 4/M"
_symmetry_group_IT_number 87
_symmetry_cell_setting 'tetragonal'
loop_
_space_group_symop_operation_xyz
x,y,z
-y,x,z
-x,-y,z
y,-x,z
-x,-y,-z
y,-x,-z
x,y,-z
-y,x,-z
1/2+x,1/2+y,1/2+z
1/2-y,1/2+x,1/2+z
1/2-x,1/2-y,1/2+z
1/2+y,1/2-x,1/2+z
1/2-x,1/2-y,1/2-z
1/2+y,1/2-x,1/2-z
1/2+x,1/2+y,1/2-z
1/2-y,1/2+x,1/2-z
loop_
_atom_site_type_symbol
_atom_site_label
_atom_site_fract_x
_atom_site_fract_y
_atom_site_fract_z
Si Si1 0.408933 0.967119 0.565655
Si Si2 0.227443 0.365195 0.565085
Si Si3 0.863452 0.963301 0.274717
Si Si4 0.522024 0.264891 0.884903
Si Si5 0.548380 0.366627 0.355074
Si Si6 0.686981 0.344617 0.066132
O O1 0.392005 0.997177 0.500000
O O2 0.411299 0.864482 0.569509
O O3 0.500000 0.000000 0.588976
O O4 0.336812 0.008429 0.606899
O O5 0.262905 0.367264 0.500000
O O6 0.291959 0.419796 0.603622
O O7 0.216711 0.266127 0.586990
O O8 0.785439 0.948168 0.319560
O O9 0.830851 0.946881 0.210038
O O10 0.940153 0.896422 0.285468
O O11 0.434390 0.316018 0.899454
O O12 0.597225 0.295718 0.927475
O O13 0.608583 0.449269 0.366602
O O14 0.705101 0.368536 0.000000
#
# Coordination Sequence:
#
# PCOD8303858 Si02
#       6
#    16  16  16  16  16  16
#     4   9  19  35  54  72  99 142 181 209 250 311
#     4   9  19  35  53  75 103 133 171 222 265 308
#     4   9  17  32  52  77 104 140 169 199 254 322
#     4  11  18  31  52  75 108 140 170 210 258 314
#     4   9  19  35  56  77 102 132 173 222 270 318
#     4  10  20  31  48  79 112 138 170 213 258 312
#
# _framework density 17.178321
#
# number of rings (size 3 to 8) (size 9 to 14) (size 15 to 20)
#    0.000    2.500    1.667    3.500    0.000    2.333 
#    0.000    5.833    7.333    0.000    0.000    0.000 
#    0.000    0.000    0.000    0.000    0.000    0.000 
#
# Total GULP energy -595083.290992 kJ/mol
# GULP energy per Si atom -12397.568562 kJ/mol
# Density = 1.713922 g / cm^3
# Si number density = 17.178321 Si / 1000 Ang^3
#
#
#
# Elastic Constant Matrix: (Units=GPa)
#
#
# Indices 1 2 3 4 5 6 
#
# 1 91.9253 46.0980 46.7950 0.0000 0.0000 10.3108
# 2 46.0980 91.9253 46.7950 0.0000 0.0000 -10.3108
# 3 46.7950 46.7950 95.5034 0.0000 0.0000 0.0000
# 4 0.0000 0.0000 0.0000 29.4720 0.0000 0.0000
# 5 0.0000 0.0000 0.0000 0.0000 29.4720 0.0000
# 6 10.3108 -10.3108 0.0000 0.0000 0.0000 27.4810
#
#
#
# Elastic Compliance Matrix: (Units=1/GPa)
#
#
# Indices 1 2 3 4 5 6 
#
# 1 0.018552 -0.007702 -0.005316 0.000000 0.000000 -0.009850
# 2 -0.007702 0.018552 -0.005316 0.000000 0.000000 0.009850
# 3 -0.005316 -0.005316 0.015681 0.000000 0.000000 0.000000
# 4 0.000000 0.000000 0.000000 0.033931 0.000000 0.000000
# 5 0.000000 0.000000 0.000000 0.000000 0.033931 0.000000
# 6 -0.009850 0.009850 0.000000 0.000000 0.000000 0.043780
#
#
# Mechanical properties :
#
#
# Convention : Reuss Voigt Hill
#
# Bulk Modulus (GPa) = 62.05246 62.08109 62.06678
# Shear Modulus (GPa) = 24.21704 26.59607 25.40655
#
# Velocity S-wave (km/s) = 3.75873 3.93903 3.84994
# Velocity P-wave (km/s) = 7.41878 7.54358 7.48144
#
# Compressibility (1/GPa) = 0.01611540
#
# Stress axis : x y z
#
# Youngs Moduli (GPa) = 53.90322 53.90322 63.77296
#
# Poissons Ratio (x) = 0.41515 0.33904
# Poissons Ratio (y) = 0.41515 0.33904
# Poissons Ratio (z) = 0.28657 0.28657
#
# Static dielectric constant tensor:
#      x y z
#    x 3.081150 0.000000 0.000000 
#    y 0.000000 3.081150 0.000000 
#    z 0.000000 0.000000 3.116440 
# 
# 
# High freq. dielectric constant tensor:
#      x y z
#    x 1.655420 0.000000 0.000000 
#    y 0.000000 1.655420 0.000000 
#    z 0.000000 0.000000 1.654820 
# 
# From -- ./inp_files/5276.got.cif
#   From: 2010.03.12/outbox.cif.g09.slc.cpg/sg87_3_cif.got.tgz:5276.got - 2010.04.08 20:16:13.
