data_PCOD8303800
_publ_section_title
;
Structure prediction by ZEFSAII (Michael W. Deem and Ramdas Pophale) SiO2 
 PCOD8303800
Probable space group: I 4/M
;
_chemical_formula_sum "Si O2"
_cell_formula_units_Z 120
_cell_length_a 27.092281
_cell_length_b 27.092281
_cell_length_c 8.618196
_cell_angle_alpha 90.000000
_cell_angle_beta 90.000000
_cell_angle_gamma 90.000000
_cell_volume 6325.684245
_symmetry_space_group_name_H-M "I 4/M"
_symmetry_group_IT_number 87
_symmetry_cell_setting 'tetragonal'
loop_
_space_group_symop_operation_xyz
x,y,z
-y,x,z
-x,-y,z
y,-x,z
-x,-y,-z
y,-x,-z
x,y,-z
-y,x,-z
1/2+x,1/2+y,1/2+z
1/2-y,1/2+x,1/2+z
1/2-x,1/2-y,1/2+z
1/2+y,1/2-x,1/2+z
1/2-x,1/2-y,1/2-z
1/2+y,1/2-x,1/2-z
1/2+x,1/2+y,1/2-z
1/2-y,1/2+x,1/2-z
loop_
_atom_site_type_symbol
_atom_site_label
_atom_site_fract_x
_atom_site_fract_y
_atom_site_fract_z
Si Si1 0.419767 0.483808 0.500000
Si Si2 0.689590 0.836634 0.818906
Si Si3 0.328145 0.458847 0.327853
Si Si4 0.143492 0.240471 0.183899
Si Si5 0.854407 0.199126 0.183986
Si Si6 0.008818 0.360292 0.181690
Si Si7 0.091318 0.612314 0.319482
Si Si8 0.966155 0.749628 0.815931
O O1 0.461742 0.442246 0.500000
O O2 0.385422 0.476723 0.345962
O O3 0.675107 0.787883 0.727371
O O4 0.744173 0.851703 0.764780
O O5 0.654066 0.881967 0.780342
O O6 0.687582 0.825050 0.000000
O O7 0.304817 0.451848 0.500000
O O8 0.324124 0.405292 0.246048
O O9 0.293705 0.499848 0.244623
O O10 0.169120 0.191691 0.255240
O O11 0.088565 0.244820 0.255420
O O12 0.141183 0.237622 0.000000
O O13 0.852540 0.193036 0.000000
O O14 0.966422 0.387005 0.279773
O O15 0.059526 0.386792 0.227439
O O16 0.011290 0.303006 0.231671
O O17 0.997453 0.365773 0.000000
O O18 0.100559 0.622803 0.500000
O O19 0.961561 0.754188 0.000000
#
# Coordination Sequence:
#
# PCOD8303800 Si02
#       8
#     8  16  16  16  16  16  16  16
#     4   9  18  26  38  68 110 144 182 223 278 330
#     4  11  21  35  53  78 112 144 176 226 285 328
#     4   8  16  25  45  67  97 139 182 214 264 319
#     4  10  19  32  54  77 105 141 188 230 272 329
#     4   9  18  30  48  75 104 139 186 228 268 331
#     4  10  21  38  57  78 107 136 177 223 273 319
#     4  11  23  39  59  82 106 141 181 225 271 327
#     4   9  16  30  51  74  99 137 179 225 262 324
#
# _framework density 18.970279999999999
#
# number of rings (size 3 to 8) (size 9 to 14) (size 15 to 20)
#    0.400    1.933    1.333    2.000    1.867    3.467 
#    0.000    2.000    0.000    0.000    0.000    0.000 
#    0.000    0.000    0.000    0.000    0.000    1.333 
#
# Total GULP energy -743801.239462 kJ/mol
# GULP energy per Si atom -12396.687324 kJ/mol
# Density = 1.892710 g / cm^3
# Si number density = 18.970280 Si / 1000 Ang^3
#
#
#
# Elastic Constant Matrix: (Units=GPa)
#
#
# Indices 1 2 3 4 5 6 
#
# 1 143.2454 67.8698 10.4910 0.0000 0.0000 -1.5028
# 2 67.8698 143.2454 10.4910 0.0000 0.0000 1.5028
# 3 10.4910 10.4910 8.9991 0.0000 0.0000 0.0000
# 4 0.0000 0.0000 0.0000 18.2363 0.0000 0.0000
# 5 0.0000 0.0000 0.0000 0.0000 18.2363 0.0000
# 6 -1.5028 1.5028 0.0000 0.0000 0.0000 37.5815
#
#
#
# Elastic Compliance Matrix: (Units=1/GPa)
#
#
# Indices 1 2 3 4 5 6 
#
# 1 0.009323 -0.003965 -0.006246 0.000000 0.000000 0.000531
# 2 -0.003965 0.009323 -0.006246 0.000000 0.000000 -0.000531
# 3 -0.006246 -0.006246 0.125684 0.000000 0.000000 0.000000
# 4 0.000000 0.000000 0.000000 0.054836 0.000000 0.000000
# 5 0.000000 0.000000 0.000000 0.000000 0.054836 0.000000
# 6 0.000531 -0.000531 0.000000 0.000000 0.000000 0.026651
#
#
# Mechanical properties :
#
#
# Convention : Reuss Voigt Hill
#
# Bulk Modulus (GPa) = 8.97535 52.57707 30.77621
# Shear Modulus (GPa) = 14.25703 28.58670 21.42186
#
# Velocity S-wave (km/s) = 2.74441 3.88612 3.36405
# Velocity P-wave (km/s) = 3.84498 6.92182 5.59890
#
# Compressibility (1/GPa) = 0.11141627
#
# Stress axis : x y z
#
# Youngs Moduli (GPa) = 107.26416 107.26416 7.95646
#
# Poissons Ratio (x) = 0.42533 0.04969
# Poissons Ratio (y) = 0.42533 0.04969
# Poissons Ratio (z) = 0.66994 0.66994
#
# Static dielectric constant tensor:
#      x y z
#    x 3.673430 0.000000 0.000000 
#    y 0.000000 3.673430 0.000000 
#    z 0.000000 0.000000 2.900220 
# 
# 
# High freq. dielectric constant tensor:
#      x y z
#    x 1.750930 0.000000 0.000000 
#    y 0.000000 1.750930 0.000000 
#    z 0.000000 0.000000 1.674110 
# 
# From -- ./inp_files/1725.got.cif
#   From: 2010.03.12/outbox.cif.g09.slc.cpg/sg87_1_cif.got.tgz:1725.got - 2010.04.08 20:16:13.
