data_PCOD8303693
_publ_section_title
;
Structure prediction by ZEFSAII (Michael W. Deem and Ramdas Pophale) SiO2 
 PCOD8303693
Probable space group: P 42/N
;
_chemical_formula_sum "Si O2"
_cell_formula_units_Z 26
_cell_length_a 10.434355
_cell_length_b 10.434355
_cell_length_c 10.155719
_cell_angle_alpha 90.000000
_cell_angle_beta 90.000000
_cell_angle_gamma 90.000000
_cell_volume 1105.711668
_symmetry_space_group_name_H-M "P 42/N"
_symmetry_group_IT_number 86
_space_group.IT_coordinate_system_code '2'
_symmetry_cell_setting 'tetragonal'
loop_
_space_group_symop_operation_xyz
x,y,z
-y,1/2+x,1/2+z
1/2-x,1/2-y,z
1/2+y,-x,1/2+z
-x,-y,-z
y,1/2-x,1/2-z
1/2+x,1/2+y,-z
1/2-y,x,1/2-z
loop_
_atom_site_type_symbol
_atom_site_label
_atom_site_fract_x
_atom_site_fract_y
_atom_site_fract_z
Si Si1 0.798262 0.940419 0.965834
Si Si2 0.556589 0.925062 0.123557
Si Si3 0.533969 0.352893 0.886162
Si Si4 0.750000 0.750000 0.750000
O O1 0.736049 0.877949 0.836684
O O2 0.827957 0.092614 0.938165
O O3 0.706756 0.907655 0.089250
O O4 0.932348 0.871763 0.996671
O O5 0.470074 0.798002 0.145901
O O6 0.556871 0.001430 0.260449
O O7 0.500000 0.000000 0.000000
#
# Coordination Sequence:
#
# PCOD8303693 Si02
#       4
#     8   8   8   2
#     4  11  24  41  68 103 137 180 234 294 353 430
#     4  12  24  46  72 100 141 192 234 297 371 426
#     4  11  24  44  68 100 138 181 241 292 353 435
#     4  12  20  40  70 108 144 180 236 290 372 440
#
# _framework density 23.514265999999999
#
# number of rings (size 3 to 8) (size 9 to 14) (size 15 to 20)
#    0.000    0.615    6.154    1.846    0.000    1.231 
#    0.000    3.077    0.000    0.000    0.000    0.000 
#    0.000    0.000    0.000    0.000    0.000    0.000 
#
# Total GULP energy -322222.314213 kJ/mol
# GULP energy per Si atom -12393.165931 kJ/mol
# Density = 2.346075 g / cm^3
# Si number density = 23.514266 Si / 1000 Ang^3
#
#
#
# Elastic Constant Matrix: (Units=GPa)
#
#
# Indices 1 2 3 4 5 6 
#
# 1 63.8483 27.5180 5.9514 0.0000 0.0000 -4.7346
# 2 27.5180 63.8483 5.9514 0.0000 0.0000 4.7346
# 3 5.9514 5.9514 98.9200 0.0000 0.0000 0.0000
# 4 0.0000 0.0000 0.0000 39.5006 0.0000 0.0000
# 5 0.0000 0.0000 0.0000 0.0000 39.5006 0.0000
# 6 -4.7346 4.7346 0.0000 0.0000 0.0000 39.9670
#
#
#
# Elastic Compliance Matrix: (Units=1/GPa)
#
#
# Indices 1 2 3 4 5 6 
#
# 1 0.019717 -0.008685 -0.000664 0.000000 0.000000 0.003365
# 2 -0.008685 0.019717 -0.000664 0.000000 0.000000 -0.003365
# 3 -0.000664 -0.000664 0.010189 0.000000 0.000000 0.000000
# 4 0.000000 0.000000 0.000000 0.025316 0.000000 0.000000
# 5 0.000000 0.000000 0.000000 0.000000 0.025316 0.000000
# 6 0.003365 -0.003365 0.000000 0.000000 0.000000 0.025818
#
#
# Mechanical properties :
#
#
# Convention : Reuss Voigt Hill
#
# Bulk Modulus (GPa) = 33.78711 33.93983 33.86347
# Shear Modulus (GPa) = 32.05867 36.27335 34.16601
#
# Velocity S-wave (km/s) = 3.69639 3.93187 3.81595
# Velocity P-wave (km/s) = 5.71119 5.92265 5.81788
#
# Compressibility (1/GPa) = 0.02959709
#
# Stress axis : x y z
#
# Youngs Moduli (GPa) = 50.71804 50.71804 98.14471
#
# Poissons Ratio (x) = 0.44051 0.06514
# Poissons Ratio (y) = 0.44051 0.06514
# Poissons Ratio (z) = 0.03366 0.03366
#
# Static dielectric constant tensor:
#      x y z
#    x 4.516250 0.000000 0.000000 
#    y 0.000000 4.516250 0.000000 
#    z 0.000000 0.000000 4.249020 
# 
# 
# High freq. dielectric constant tensor:
#      x y z
#    x 1.916920 0.000000 0.000000 
#    y 0.000000 1.916920 0.000000 
#    z 0.000000 0.000000 1.945770 
# 
# From -- ./inp_files/757.got.cif
#   From: 2010.03.12/outbox.cif.g09.slc.cpg/sg86_1_cif.got.tgz:757.got - 2010.04.08 20:12:58.
