data_PCOD8303386
_publ_section_title
;
Structure prediction by ZEFSAII (Michael W. Deem and Ramdas Pophale) SiO2 
 PCOD8303386
Probable space group: P 42/M
;
_chemical_formula_sum "Si O2"
_cell_formula_units_Z 40
_cell_length_a 9.186964
_cell_length_b 9.186964
_cell_length_c 22.782024
_cell_angle_alpha 90.000000
_cell_angle_beta 90.000000
_cell_angle_gamma 90.000000
_cell_volume 1922.809832
_symmetry_space_group_name_H-M "P 42/M"
_symmetry_group_IT_number 84
_symmetry_cell_setting 'tetragonal'
loop_
_space_group_symop_operation_xyz
x,y,z
-y,x,1/2+z
-x,-y,z
y,-x,1/2+z
-x,-y,-z
y,-x,1/2-z
x,y,-z
-y,x,1/2-z
loop_
_atom_site_type_symbol
_atom_site_label
_atom_site_fract_x
_atom_site_fract_y
_atom_site_fract_z
Si Si1 0.489720 0.171599 0.067625
Si Si2 0.687494 0.251958 0.635039
Si Si3 0.811697 0.846213 0.749487
Si Si4 0.984598 0.331189 0.062536
Si Si5 0.279018 0.656986 0.864155
O O1 0.329279 0.230887 0.080637
O O2 0.572849 0.264428 0.117686
O O3 0.500000 0.000000 0.080139
O O4 0.532719 0.206422 0.000000
O O5 0.771971 0.270905 0.695921
O O6 0.517779 0.297227 0.641681
O O7 0.712268 0.085227 0.616815
O O8 0.721592 0.786816 0.694894
O O9 0.979755 0.797586 0.745090
O O10 0.821474 0.296069 0.081507
O O11 0.000000 0.500000 0.051337
O O12 0.015885 0.250795 0.000000
#
# Coordination Sequence:
#
# PCOD8303386 Si02
#       5
#     8   8   8   8   8
#     4  11  25  45  67  97 137 177 218 273 338 399
#     4  11  23  41  66  97 130 173 221 276 333 393
#     4  11  24  42  63  90 136 180 223 272 335 408
#     4   9  18  36  63  95 127 159 206 265 328 395
#     4  11  23  41  66  97 130 173 221 276 333 393
#
# _framework density 20.802889
#
# number of rings (size 3 to 8) (size 9 to 14) (size 15 to 20)
#    0.000    1.400    2.000    3.000    2.800    3.200 
#    0.000    0.000    0.000    4.800    0.000    0.000 
#    0.000    0.000    0.000    0.000    0.000    0.000 
#
# Total GULP energy -495677.895791 kJ/mol
# GULP energy per Si atom -12391.947395 kJ/mol
# Density = 2.075554 g / cm^3
# Si number density = 20.802889 Si / 1000 Ang^3
#
#
#
# Elastic Constant Matrix: (Units=GPa)
#
#
# Indices 1 2 3 4 5 6 
#
# 1 86.2606 32.2245 35.3638 0.0000 0.0000 2.5082
# 2 32.2245 86.2606 35.3638 0.0000 0.0000 -2.5082
# 3 35.3638 35.3638 130.9343 0.0000 0.0000 0.0000
# 4 0.0000 0.0000 0.0000 40.0152 0.0000 0.0000
# 5 0.0000 0.0000 0.0000 0.0000 40.0152 0.0000
# 6 2.5082 -2.5082 0.0000 0.0000 0.0000 29.6003
#
#
#
# Elastic Compliance Matrix: (Units=1/GPa)
#
#
# Indices 1 2 3 4 5 6 
#
# 1 0.014357 -0.004295 -0.002718 0.000000 0.000000 -0.001581
# 2 -0.004295 0.014357 -0.002718 0.000000 0.000000 0.001581
# 3 -0.002718 -0.002718 0.009105 0.000000 0.000000 0.000000
# 4 0.000000 0.000000 0.000000 0.024991 0.000000 0.000000
# 5 0.000000 0.000000 0.000000 0.000000 0.024991 0.000000
# 6 -0.001581 0.001581 0.000000 0.000000 0.000000 0.034051
#
#
# Mechanical properties :
#
#
# Convention : Reuss Voigt Hill
#
# Bulk Modulus (GPa) = 54.46903 56.59553 55.53228
# Shear Modulus (GPa) = 33.91352 35.29304 34.60328
#
# Velocity S-wave (km/s) = 4.04199 4.12338 4.08289
# Velocity P-wave (km/s) = 6.92992 7.06643 6.99851
#
# Compressibility (1/GPa) = 0.01835906
#
# Stress axis : x y z
#
# Youngs Moduli (GPa) = 69.65001 69.65001 109.82456
#
# Poissons Ratio (x) = 0.29917 0.29847
# Poissons Ratio (y) = 0.29917 0.29847
# Poissons Ratio (z) = 0.18929 0.18929
#
# Static dielectric constant tensor:
#      x y z
#    x 3.522960 0.000000 0.000000 
#    y 0.000000 3.522960 0.000000 
#    z 0.000000 0.000000 3.928170 
# 
# 
# High freq. dielectric constant tensor:
#      x y z
#    x 1.812230 0.000000 0.000000 
#    y 0.000000 1.812230 0.000000 
#    z 0.000000 0.000000 1.831040 
# 
# From -- ./inp_files/4802.got.cif
#   From: 2010.03.12/outbox.cif.g09.slc.cpg/sg84_3_cif.got.tgz:4802.got - 2010.04.08 20:07:29.
