data_PCOD8303387
_publ_section_title
;
Structure prediction by ZEFSAII (Michael W. Deem and Ramdas Pophale) SiO2 
 PCOD8303387
Probable space group: P 42/M
;
_chemical_formula_sum "Si O2"
_cell_formula_units_Z 40
_cell_length_a 14.282651
_cell_length_b 14.282651
_cell_length_c 9.653165
_cell_angle_alpha 90.000000
_cell_angle_beta 90.000000
_cell_angle_gamma 90.000000
_cell_volume 1969.188895
_symmetry_space_group_name_H-M "P 42/M"
_symmetry_group_IT_number 84
_symmetry_cell_setting 'tetragonal'
loop_
_space_group_symop_operation_xyz
x,y,z
-y,x,1/2+z
-x,-y,z
y,-x,1/2+z
-x,-y,-z
y,-x,1/2-z
x,y,-z
-y,x,1/2-z
loop_
_atom_site_type_symbol
_atom_site_label
_atom_site_fract_x
_atom_site_fract_y
_atom_site_fract_z
Si Si1 0.270523 0.616094 0.340393
Si Si2 0.408493 0.938127 0.159910
Si Si3 0.092688 0.735039 0.267381
Si Si4 0.075105 0.855046 0.000000
Si Si5 0.243663 0.441782 0.838795
Si Si6 0.870430 0.939847 0.000000
O O1 0.255215 0.584218 0.500000
O O2 0.176342 0.662260 0.283593
O O3 0.355933 0.686140 0.327949
O O4 0.291413 0.527758 0.242297
O O5 0.412970 0.851364 0.263144
O O6 0.500000 0.000000 0.181860
O O7 0.317221 0.995706 0.203224
O O8 0.400411 0.905086 0.000000
O O9 0.105536 0.821152 0.369465
O O10 0.094769 0.784045 0.121579
O O11 0.973926 0.900831 0.000000
O O12 0.141013 0.946853 0.000000
O O13 0.224248 0.467425 0.000000
#
# Coordination Sequence:
#
# PCOD8303387 Si02
#       6
#     8   8   8   4   8   4
#     4  11  25  48  68 100 136 177 222 276 345 408
#     4  11  23  41  66  98 135 179 218 272 343 398
#     4  12  24  41  70  97 133 181 230 275 336 401
#     4  11  28  40  65  98 138 179 230 287 319 392
#     4  11  27  44  73 102 135 174 224 285 335 400
#     4  11  24  48  61  92 140 187 228 267 343 398
#
# _framework density 20.312933999999998
#
# number of rings (size 3 to 8) (size 9 to 14) (size 15 to 20)
#    0.000    0.800    4.000    1.800    8.400    4.000 
#    0.000    2.000    0.000    0.000    0.000    0.000 
#    0.000    0.000    0.000    0.000    0.000    0.000 
#
# Total GULP energy -496034.062813 kJ/mol
# GULP energy per Si atom -12400.851570 kJ/mol
# Density = 2.026670 g / cm^3
# Si number density = 20.312934 Si / 1000 Ang^3
#
#
#
# Elastic Constant Matrix: (Units=GPa)
#
#
# Indices 1 2 3 4 5 6 
#
# 1 80.5879 34.4194 56.8844 0.0000 0.0000 -3.5672
# 2 34.4194 80.5879 56.8844 0.0000 0.0000 3.5672
# 3 56.8844 56.8844 185.1035 0.0000 0.0000 0.0000
# 4 0.0000 0.0000 0.0000 37.5053 0.0000 0.0000
# 5 0.0000 0.0000 0.0000 0.0000 37.5053 0.0000
# 6 -3.5672 3.5672 0.0000 0.0000 0.0000 26.5407
#
#
#
# Elastic Compliance Matrix: (Units=1/GPa)
#
#
# Indices 1 2 3 4 5 6 
#
# 1 0.017306 -0.004813 -0.003839 0.000000 0.000000 0.002973
# 2 -0.004813 0.017306 -0.003839 0.000000 0.000000 -0.002973
# 3 -0.003839 -0.003839 0.007762 0.000000 0.000000 0.000000
# 4 0.000000 0.000000 0.000000 0.026663 0.000000 0.000000
# 5 0.000000 0.000000 0.000000 0.000000 0.026663 0.000000
# 6 0.002973 -0.002973 0.000000 0.000000 0.000000 0.038477
#
#
# Mechanical properties :
#
#
# Convention : Reuss Voigt Hill
#
# Bulk Modulus (GPa) = 57.50065 71.40616 64.45341
# Shear Modulus (GPa) = 30.31086 33.51634 31.91360
#
# Velocity S-wave (km/s) = 3.86708 4.06643 3.96801
# Velocity P-wave (km/s) = 6.95039 7.56817 7.26585
#
# Compressibility (1/GPa) = 0.01739111
#
# Stress axis : x y z
#
# Youngs Moduli (GPa) = 57.78312 57.78312 128.83174
#
# Poissons Ratio (x) = 0.27812 0.49462
# Poissons Ratio (y) = 0.27812 0.49462
# Poissons Ratio (z) = 0.22184 0.22184
#
# Static dielectric constant tensor:
#      x y z
#    x 3.872020 0.000000 0.000000 
#    y 0.000000 3.872020 0.000000 
#    z 0.000000 0.000000 3.918940 
# 
# 
# High freq. dielectric constant tensor:
#      x y z
#    x 1.802820 0.000000 0.000000 
#    y 0.000000 1.802820 0.000000 
#    z 0.000000 0.000000 1.809570 
# 
# From -- ./inp_files/837.got.cif
#   From: 2010.03.12/outbox.cif.g09.slc.cpg/sg84_1_cif.got.tgz:837.got - 2010.04.08 20:07:29.
