data_PCOD8303838
_publ_section_title
;
Structure prediction by ZEFSAII (Michael W. Deem and Ramdas Pophale) SiO2 
 PCOD8303838
Probable space group: I 4/M
;
_chemical_formula_sum "Si O2"
_cell_formula_units_Z 72
_cell_length_a 21.733729
_cell_length_b 21.733729
_cell_length_c 7.646414
_cell_angle_alpha 90.000000
_cell_angle_beta 90.000000
_cell_angle_gamma 90.000000
_cell_volume 3611.821703
_symmetry_space_group_name_H-M "I 4/M"
_symmetry_group_IT_number 87
_symmetry_cell_setting 'tetragonal'
loop_
_space_group_symop_operation_xyz
x,y,z
-y,x,z
-x,-y,z
y,-x,z
-x,-y,-z
y,-x,-z
x,y,-z
-y,x,-z
1/2+x,1/2+y,1/2+z
1/2-y,1/2+x,1/2+z
1/2-x,1/2-y,1/2+z
1/2+y,1/2-x,1/2+z
1/2-x,1/2-y,1/2-z
1/2+y,1/2-x,1/2-z
1/2+x,1/2+y,1/2-z
1/2-y,1/2+x,1/2-z
loop_
_atom_site_type_symbol
_atom_site_label
_atom_site_fract_x
_atom_site_fract_y
_atom_site_fract_z
Si Si1 0.900603 0.973901 0.500000
Si Si2 0.116957 0.376063 0.708002
Si Si3 0.308592 0.436095 0.300143
Si Si4 0.006818 0.682300 0.298944
Si Si5 0.760052 0.680323 0.703804
O O1 0.859868 0.965056 0.674261
O O2 0.956464 0.925507 0.500000
O O3 0.113643 0.377066 0.500000
O O4 0.126336 0.445144 0.777138
O O5 0.174387 0.337568 0.784757
O O6 0.056128 0.343888 0.784173
O O7 0.333881 0.436529 0.500000
O O8 0.244457 0.473737 0.300736
O O9 0.293611 0.366337 0.230546
O O10 0.998148 0.700443 0.500000
O O11 0.763873 0.669790 0.500000
O O12 0.750000 0.750000 0.750000
#
# Coordination Sequence:
#
# PCOD8303838 Si02
#       5
#     8  16  16  16  16
#     4  11  26  46  68  94 122 161 210 256 308 370
#     4   9  20  35  51  78 117 157 202 253 301 360
#     4  10  22  42  64  90 127 162 201 256 311 366
#     4  10  19  35  58  84 118 163 207 249 304 363
#     4   9  19  34  55  85 118 153 195 250 307 360
#
# _framework density 19.934539000000001
#
# number of rings (size 3 to 8) (size 9 to 14) (size 15 to 20)
#    0.000    2.333    1.111    2.000    1.556    5.778 
#    0.000    5.556    0.000    0.000    0.000    0.000 
#    0.000    0.000    0.000    0.000    0.000    0.000 
#
# Total GULP energy -446205.653505 kJ/mol
# GULP energy per Si atom -12394.601486 kJ/mol
# Density = 1.988917 g / cm^3
# Si number density = 19.934539 Si / 1000 Ang^3
#
#
#
# Elastic Constant Matrix: (Units=GPa)
#
#
# Indices 1 2 3 4 5 6 
#
# 1 133.1132 60.0286 31.1962 0.0000 0.0000 12.1799
# 2 60.0286 133.1132 31.1962 0.0000 0.0000 -12.1799
# 3 31.1962 31.1962 69.8203 0.0000 0.0000 0.0000
# 4 0.0000 0.0000 0.0000 26.4769 0.0000 0.0000
# 5 0.0000 0.0000 0.0000 0.0000 26.4769 0.0000
# 6 12.1799 -12.1799 0.0000 0.0000 0.0000 26.6649
#
#
#
# Elastic Compliance Matrix: (Units=1/GPa)
#
#
# Indices 1 2 3 4 5 6 
#
# 1 0.011095 -0.005045 -0.002704 0.000000 0.000000 -0.007372
# 2 -0.005045 0.011095 -0.002704 0.000000 0.000000 0.007372
# 3 -0.002704 -0.002704 0.016738 0.000000 0.000000 0.000000
# 4 0.000000 0.000000 0.000000 0.037769 0.000000 0.000000
# 5 0.000000 0.000000 0.000000 0.000000 0.037769 0.000000
# 6 -0.007372 0.007372 0.000000 0.000000 0.000000 0.044238
#
#
# Mechanical properties :
#
#
# Convention : Reuss Voigt Hill
#
# Bulk Modulus (GPa) = 55.47573 64.54320 60.00946
# Shear Modulus (GPa) = 26.93724 30.16545 28.55135
#
# Velocity S-wave (km/s) = 3.67997 3.89424 3.78862
# Velocity P-wave (km/s) = 6.77832 7.25727 7.02188
#
# Compressibility (1/GPa) = 0.01802590
#
# Stress axis : x y z
#
# Youngs Moduli (GPa) = 90.12679 90.12679 59.74274
#
# Poissons Ratio (x) = 0.45465 0.16152
# Poissons Ratio (y) = 0.45465 0.16152
# Poissons Ratio (z) = 0.24367 0.24367
#
# Static dielectric constant tensor:
#      x y z
#    x 3.645800 0.000000 0.000000 
#    y 0.000000 3.645800 0.000000 
#    z 0.000000 0.000000 3.550720 
# 
# 
# High freq. dielectric constant tensor:
#      x y z
#    x 1.773940 0.000000 0.000000 
#    y 0.000000 1.773940 0.000000 
#    z 0.000000 0.000000 1.777630 
# 
# From -- ./inp_files/1081.got.cif
#   From: 2010.03.12/outbox.cif.g09.slc.cpg/sg87_1_cif.got.tgz:1081.got - 2010.04.08 20:16:13.
