data_PCOD8303188
_publ_section_title
;
Structure prediction by ZEFSAII (Michael W. Deem and Ramdas Pophale) SiO2 
 PCOD8303188
Probable space group: P 42/M
;
_chemical_formula_sum "Si O2"
_cell_formula_units_Z 40
_cell_length_a 16.567993
_cell_length_b 16.567993
_cell_length_c 8.687247
_cell_angle_alpha 90.000000
_cell_angle_beta 90.000000
_cell_angle_gamma 90.000000
_cell_volume 2384.635333
_symmetry_space_group_name_H-M "P 42/M"
_symmetry_group_IT_number 84
_symmetry_cell_setting 'tetragonal'
loop_
_space_group_symop_operation_xyz
x,y,z
-y,x,1/2+z
-x,-y,z
y,-x,1/2+z
-x,-y,-z
y,-x,1/2-z
x,y,-z
-y,x,1/2-z
loop_
_atom_site_type_symbol
_atom_site_label
_atom_site_fract_x
_atom_site_fract_y
_atom_site_fract_z
Si Si1 0.104075 0.729227 0.173395
Si Si2 0.114800 0.035312 0.180024
Si Si3 0.384130 0.218166 0.180253
Si Si4 0.445247 0.070822 0.325128
Si Si5 0.548373 0.610762 0.181994
O O1 0.068009 0.796763 0.283523
O O2 0.192163 0.699638 0.235264
O O3 0.045579 0.650011 0.178093
O O4 0.112837 0.762940 0.000000
O O5 0.048546 0.100997 0.230935
O O6 0.106545 0.019029 0.000000
O O7 0.454770 0.154033 0.228008
O O8 0.409247 0.306821 0.235246
O O9 0.369408 0.215033 0.000000
O O10 0.473829 0.087396 0.500000
O O11 0.500000 0.000000 0.251364
O O12 0.605544 0.537526 0.233170
O O13 0.533955 0.607854 0.000000
#
# Coordination Sequence:
#
# PCOD8303188 Si02
#       5
#     8   8   8   8   8
#     4   9  18  33  53  75 103 136 170 214 259 307
#     4  11  21  35  55  78 106 139 177 216 260 310
#     4   9  18  32  50  75 102 133 169 215 262 307
#     4   8  16  31  52  75 101 136 171 205 254 310
#     4  10  20  33  52  75 103 137 176 216 261 312
#
# _framework density 16.774054
#
# number of rings (size 3 to 8) (size 9 to 14) (size 15 to 20)
#    1.200    1.400    0.000    4.200    0.000    3.600 
#    0.000    2.000    0.000    7.200    0.000    0.000 
#    0.000    0.000    0.000    0.000    0.000    0.000 
#
# Total GULP energy -495644.936805 kJ/mol
# GULP energy per Si atom -12391.123420 kJ/mol
# Density = 1.673588 g / cm^3
# Si number density = 16.774054 Si / 1000 Ang^3
#
#
#
# Elastic Constant Matrix: (Units=GPa)
#
#
# Indices 1 2 3 4 5 6 
#
# 1 84.7017 42.8910 19.7821 0.0000 0.0000 -0.4371
# 2 42.8910 84.7017 19.7821 0.0000 0.0000 0.4371
# 3 19.7821 19.7821 62.1802 0.0000 0.0000 0.0000
# 4 0.0000 0.0000 0.0000 23.9279 0.0000 0.0000
# 5 0.0000 0.0000 0.0000 0.0000 23.9279 0.0000
# 6 -0.4371 0.4371 0.0000 0.0000 0.0000 22.2003
#
#
#
# Elastic Compliance Matrix: (Units=1/GPa)
#
#
# Indices 1 2 3 4 5 6 
#
# 1 0.016311 -0.007616 -0.002766 0.000000 0.000000 0.000471
# 2 -0.007616 0.016311 -0.002766 0.000000 0.000000 -0.000471
# 3 -0.002766 -0.002766 0.017842 0.000000 0.000000 0.000000
# 4 0.000000 0.000000 0.000000 0.041792 0.000000 0.000000
# 5 0.000000 0.000000 0.000000 0.000000 0.041792 0.000000
# 6 0.000471 -0.000471 0.000000 0.000000 0.000000 0.045063
#
#
# Mechanical properties :
#
#
# Convention : Reuss Voigt Hill
#
# Bulk Modulus (GPa) = 41.37766 44.05491 42.71629
# Shear Modulus (GPa) = 23.42302 23.95313 23.68808
#
# Velocity S-wave (km/s) = 3.74088 3.78297 3.76198
# Velocity P-wave (km/s) = 6.58636 6.73809 6.66266
#
# Compressibility (1/GPa) = 0.02416763
#
# Stress axis : x y z
#
# Youngs Moduli (GPa) = 61.30763 61.30763 56.04615
#
# Poissons Ratio (x) = 0.46692 0.15504
# Poissons Ratio (y) = 0.46692 0.15504
# Poissons Ratio (z) = 0.16960 0.16960
#
# Static dielectric constant tensor:
#      x y z
#    x 3.021590 0.000000 0.000000 
#    y 0.000000 3.021590 0.000000 
#    z 0.000000 0.000000 3.176000 
# 
# 
# High freq. dielectric constant tensor:
#      x y z
#    x 1.629550 0.000000 0.000000 
#    y 0.000000 1.629550 0.000000 
#    z 0.000000 0.000000 1.659780 
# 
# From -- ./inp_files/907.got.cif
#   From: 2010.03.12/outbox.cif.g09.slc.cpg/sg84_1_cif.got.tgz:907.got - 2010.04.08 20:07:29.
