data_PCOD8303012
_publ_section_title
;
Structure prediction by ZEFSAII (Michael W. Deem and Ramdas Pophale) SiO2 
 PCOD8303012
Probable space group: P 4/M
;
_chemical_formula_sum "Si O2"
_cell_formula_units_Z 37
_cell_length_a 8.421046
_cell_length_b 8.421046
_cell_length_c 23.056244
_cell_angle_alpha 90.000000
_cell_angle_beta 90.000000
_cell_angle_gamma 90.000000
_cell_volume 1635.010850
_symmetry_space_group_name_H-M "P 4/M"
_symmetry_group_IT_number 83
_symmetry_cell_setting 'tetragonal'
loop_
_space_group_symop_operation_xyz
x,y,z
-y,x,z
-x,-y,z
y,-x,z
-x,-y,-z
y,-x,-z
x,y,-z
-y,x,-z
loop_
_atom_site_type_symbol
_atom_site_label
_atom_site_fract_x
_atom_site_fract_y
_atom_site_fract_z
Si Si1 0.658818 0.101917 0.000000
Si Si2 0.896634 0.759590 0.226582
Si Si3 0.380082 0.730985 0.119913
Si Si4 0.000000 0.000000 0.000000
Si Si5 0.103260 0.238876 0.565656
Si Si6 0.256359 0.404516 0.331658
O O1 0.661038 0.214093 0.055822
O O2 0.807854 0.979602 0.000000
O O3 0.500000 0.000000 0.000000
O O4 0.863956 0.682088 0.164223
O O5 0.852307 0.636957 0.276937
O O6 0.081482 0.794342 0.232602
O O7 0.289147 0.566635 0.130889
O O8 0.129157 0.299292 0.500000
O O9 0.161217 0.375168 0.608869
O O10 0.919374 0.204130 0.577311
O O11 0.411793 0.296530 0.329167
#
# Coordination Sequence:
#
# PCOD8303012 Si02
#       6
#     4   8   8   1   8   8
#     4  12  28  47  74 107 142 185 225 288 346 398
#     4  11  26  43  66  96 128 168 221 278 336 405
#     4  11  25  45  69 100 137 176 222 274 338 409
#     4  12  28  44  76 104 140 180 244 276 326 448
#     4   9  19  37  62  91 124 163 212 269 326 389
#     4  11  24  41  60  88 128 170 215 269 330 397
#
# _framework density 22.629818
#
# number of rings (size 3 to 8) (size 9 to 14) (size 15 to 20)
#    0.000    1.297    0.000    5.189    6.054   10.378 
#    0.000    3.243    0.000    0.000    0.000    0.000 
#    0.000    0.000    0.000    0.000    0.000    0.000 
#
# Total GULP energy -458590.117641 kJ/mol
# GULP energy per Si atom -12394.327504 kJ/mol
# Density = 2.257831 g / cm^3
# Si number density = 22.629818 Si / 1000 Ang^3
#
#
#
# Elastic Constant Matrix: (Units=GPa)
#
#
# Indices 1 2 3 4 5 6 
#
# 1 39.1829 5.7471 0.0964 0.0000 0.0000 -0.9284
# 2 5.7471 39.1829 0.0964 0.0000 0.0000 0.9284
# 3 0.0964 0.0964 122.2311 0.0000 0.0000 0.0000
# 4 0.0000 0.0000 0.0000 11.4468 0.0000 0.0000
# 5 0.0000 0.0000 0.0000 0.0000 11.4468 0.0000
# 6 -0.9284 0.9284 0.0000 0.0000 0.0000 32.9503
#
#
#
# Elastic Compliance Matrix: (Units=1/GPa)
#
#
# Indices 1 2 3 4 5 6 
#
# 1 0.026106 -0.003849 -0.000018 0.000000 0.000000 0.000844
# 2 -0.003849 0.026106 -0.000018 0.000000 0.000000 -0.000844
# 3 -0.000018 -0.000018 0.008181 0.000000 0.000000 0.000000
# 4 0.000000 0.000000 0.000000 0.087361 0.000000 0.000000
# 5 0.000000 0.000000 0.000000 0.000000 0.087361 0.000000
# 6 0.000844 -0.000844 0.000000 0.000000 0.000000 0.030396
#
#
# Mechanical properties :
#
#
# Convention : Reuss Voigt Hill
#
# Bulk Modulus (GPa) = 19.00242 23.60853 21.30548
# Shear Modulus (GPa) = 17.19272 24.14591 20.66932
#
# Velocity S-wave (km/s) = 2.75932 3.27003 3.02547
# Velocity P-wave (km/s) = 4.30896 4.97118 4.65187
#
# Compressibility (1/GPa) = 0.05262487
#
# Stress axis : x y z
#
# Youngs Moduli (GPa) = 38.30544 38.30544 122.23073
#
# Poissons Ratio (x) = 0.14744 0.00215
# Poissons Ratio (y) = 0.14744 0.00215
# Poissons Ratio (z) = 0.00067 0.00067
#
# Static dielectric constant tensor:
#      x y z
#    x 4.154740 0.000000 0.000000 
#    y 0.000000 4.154740 0.000000 
#    z 0.000000 0.000000 4.063240 
# 
# 
# High freq. dielectric constant tensor:
#      x y z
#    x 1.904660 0.000000 0.000000 
#    y 0.000000 1.904660 0.000000 
#    z 0.000000 0.000000 1.894000 
# 
# From -- ./inp_files/3140.got.cif
#   From: 2010.03.12/outbox.cif.g09.slc.cpg/sg83_2_cif.got.tgz:3140.got - 2010.04.08 20:05:18.
