data_PCOD8303196
_publ_section_title
;
Structure prediction by ZEFSAII (Michael W. Deem and Ramdas Pophale) SiO2 
 PCOD8303196
Probable space group: P 42/M
;
_chemical_formula_sum "Si O2"
_cell_formula_units_Z 40
_cell_length_a 15.841336
_cell_length_b 15.841336
_cell_length_c 8.502771
_cell_angle_alpha 90.000000
_cell_angle_beta 90.000000
_cell_angle_gamma 90.000000
_cell_volume 2133.752750
_symmetry_space_group_name_H-M "P 42/M"
_symmetry_group_IT_number 84
_symmetry_cell_setting 'tetragonal'
loop_
_space_group_symop_operation_xyz
x,y,z
-y,x,1/2+z
-x,-y,z
y,-x,1/2+z
-x,-y,-z
y,-x,1/2-z
x,y,-z
-y,x,1/2-z
loop_
_atom_site_type_symbol
_atom_site_label
_atom_site_fract_x
_atom_site_fract_y
_atom_site_fract_z
Si Si1 0.236746 0.010401 0.815028
Si Si2 0.224435 0.358594 0.315947
Si Si3 0.435722 0.608687 0.318060
Si Si4 0.811394 0.161555 0.683749
Si Si5 0.581777 0.044725 0.814376
O O1 0.186663 0.937616 0.722837
O O2 0.335215 0.007757 0.765948
O O3 0.199958 0.099654 0.762394
O O4 0.225809 0.993576 0.000000
O O5 0.241015 0.371382 0.500000
O O6 0.302730 0.393150 0.219271
O O7 0.210533 0.259944 0.281488
O O8 0.141587 0.409733 0.257279
O O9 0.534906 0.611436 0.277561
O O10 0.424171 0.588043 0.500000
O O11 0.795222 0.176226 0.500000
O O12 0.500000 0.000000 0.736188
O O13 0.571702 0.045395 0.000000
#
# Coordination Sequence:
#
# PCOD8303196 Si02
#       5
#     8   8   8   8   8
#     4   9  19  34  51  74 103 135 175 222 271 324
#     4  10  20  35  55  80 110 142 177 221 271 322
#     4  11  22  38  58  81 110 143 182 225 271 320
#     4  10  20  34  53  76 104 140 179 222 272 324
#     4   8  15  30  52  75 100 133 173 214 257 310
#
# _framework density 18.746313000000001
#
# number of rings (size 3 to 8) (size 9 to 14) (size 15 to 20)
#    0.000    2.400    0.000    4.800    0.000    3.600 
#    0.000    6.000    0.000   15.000    0.000    0.000 
#    0.000    0.000    0.000    0.000    0.000    0.000 
#
# Total GULP energy -496033.479124 kJ/mol
# GULP energy per Si atom -12400.836978 kJ/mol
# Density = 1.870365 g / cm^3
# Si number density = 18.746313 Si / 1000 Ang^3
#
#
#
# Elastic Constant Matrix: (Units=GPa)
#
#
# Indices 1 2 3 4 5 6 
#
# 1 123.5880 76.0191 13.5272 0.0000 0.0000 15.3737
# 2 76.0191 123.5880 13.5272 0.0000 0.0000 -15.3737
# 3 13.5272 13.5272 44.9789 0.0000 0.0000 0.0000
# 4 0.0000 0.0000 0.0000 28.0137 0.0000 0.0000
# 5 0.0000 0.0000 0.0000 0.0000 28.0137 0.0000
# 6 15.3737 -15.3737 0.0000 0.0000 0.0000 32.6270
#
#
#
# Elastic Compliance Matrix: (Units=1/GPa)
#
#
# Indices 1 2 3 4 5 6 
#
# 1 0.017726 -0.012503 -0.001571 0.000000 0.000000 -0.014244
# 2 -0.012503 0.017726 -0.001571 0.000000 0.000000 0.014244
# 3 -0.001571 -0.001571 0.023177 0.000000 0.000000 0.000000
# 4 0.000000 0.000000 0.000000 0.035697 0.000000 0.000000
# 5 0.000000 0.000000 0.000000 0.000000 0.035697 0.000000
# 6 -0.014244 0.014244 0.000000 0.000000 0.000000 0.044073
#
#
# Mechanical properties :
#
#
# Convention : Reuss Voigt Hill
#
# Bulk Modulus (GPa) = 36.57640 55.36689 45.97165
# Shear Modulus (GPa) = 23.31025 30.33633 26.82329
#
# Velocity S-wave (km/s) = 3.53010 4.02712 3.78677
# Velocity P-wave (km/s) = 6.01407 7.15699 6.61028
#
# Compressibility (1/GPa) = 0.02734003
#
# Stress axis : x y z
#
# Youngs Moduli (GPa) = 56.41472 56.41472 43.14545
#
# Poissons Ratio (x) = 0.70536 0.06777
# Poissons Ratio (y) = 0.70536 0.06777
# Poissons Ratio (z) = 0.08861 0.08861
#
# Static dielectric constant tensor:
#      x y z
#    x 3.567330 0.000000 0.000000 
#    y 0.000000 3.567330 0.000000 
#    z 0.000000 0.000000 3.311570 
# 
# 
# High freq. dielectric constant tensor:
#      x y z
#    x 1.730410 0.000000 0.000000 
#    y 0.000000 1.730410 0.000000 
#    z 0.000000 0.000000 1.716660 
# 
# From -- ./inp_files/789.got.cif
#   From: 2010.03.12/outbox.cif.g09.slc.cpg/sg84_1_cif.got.tgz:789.got - 2010.04.08 20:07:29.
