data_PCOD8303899
_publ_section_title
;
Structure prediction by ZEFSAII (Michael W. Deem and Ramdas Pophale) SiO2 
 PCOD8303899
Probable space group: I 4/M
;
_chemical_formula_sum "Si O2"
_cell_formula_units_Z 120
_cell_length_a 26.619569
_cell_length_b 26.619569
_cell_length_c 8.292905
_cell_angle_alpha 90.000000
_cell_angle_beta 90.000000
_cell_angle_gamma 90.000000
_cell_volume 5876.364539
_symmetry_space_group_name_H-M "I 4/M"
_symmetry_group_IT_number 87
_symmetry_cell_setting 'tetragonal'
loop_
_space_group_symop_operation_xyz
x,y,z
-y,x,z
-x,-y,z
y,-x,z
-x,-y,-z
y,-x,-z
x,y,-z
-y,x,-z
1/2+x,1/2+y,1/2+z
1/2-y,1/2+x,1/2+z
1/2-x,1/2-y,1/2+z
1/2+y,1/2-x,1/2+z
1/2-x,1/2-y,1/2-z
1/2+y,1/2-x,1/2-z
1/2+x,1/2+y,1/2-z
1/2-y,1/2+x,1/2-z
loop_
_atom_site_type_symbol
_atom_site_label
_atom_site_fract_x
_atom_site_fract_y
_atom_site_fract_z
Si Si1 0.252370 0.404269 0.692645
Si Si2 0.218842 0.986133 0.813960
Si Si3 0.766756 0.385466 0.813048
Si Si4 0.552853 0.562207 0.000000
Si Si5 0.880618 0.066689 0.822842
Si Si6 0.545802 0.061025 0.687785
Si Si7 0.374871 0.857796 0.307930
Si Si8 0.829946 0.823525 0.822439
O O1 0.257477 0.404978 0.500000
O O2 0.267504 0.459404 0.761165
O O3 0.196836 0.391597 0.754678
O O4 0.289529 0.360746 0.761824
O O5 0.250130 0.941265 0.734758
O O6 0.159231 0.977838 0.788427
O O7 0.233620 0.985013 0.000000
O O8 0.820438 0.371684 0.733151
O O9 0.727426 0.340766 0.774902
O O10 0.775113 0.386036 0.000000
O O11 0.494174 0.570368 0.000000
O O12 0.573234 0.583606 0.169039
O O13 0.851579 0.117962 0.839927
O O14 0.907379 0.056765 0.000000
O O15 0.534624 0.069029 0.500000
O O16 0.494302 0.068474 0.785212
O O17 0.585033 0.101674 0.755294
O O18 0.373517 0.857914 0.500000
O O19 0.810319 0.808120 0.000000
#
# Coordination Sequence:
#
# PCOD8303899 Si02
#       8
#    16  16  16   8  16  16  16  16
#     4   9  18  35  58  83 110 140 188 238 277 335
#     4   9  19  35  58  85 105 140 196 240 283 338
#     4  10  20  35  54  79 115 152 180 221 288 348
#     4  11  26  40  54  86 120 158 200 238 299 373
#     4   9  20  38  60  86 114 151 198 250 302 349
#     4  10  20  36  57  82 110 148 191 228 276 331
#     4   9  20  35  54  83 117 150 181 226 286 338
#     4   9  19  36  58  83 106 142 193 236 281 341
#
# _framework density 20.420788999999999
#
# number of rings (size 3 to 8) (size 9 to 14) (size 15 to 20)
#    0.000    2.600    0.000    2.000    7.467    1.067 
#    0.000    3.333    0.000    4.000    0.000    0.000 
#    0.000    0.000    0.000    0.000    0.000    0.000 
#
# Total GULP energy -743591.754795 kJ/mol
# GULP energy per Si atom -12393.195913 kJ/mol
# Density = 2.037431 g / cm^3
# Si number density = 20.420789 Si / 1000 Ang^3
#
#
#
# Elastic Constant Matrix: (Units=GPa)
#
#
# Indices 1 2 3 4 5 6 
#
# 1 112.8624 57.2172 3.4568 0.0000 0.0000 -6.9191
# 2 57.2172 112.8624 3.4568 0.0000 0.0000 6.9191
# 3 3.4568 3.4568 52.2905 0.0000 0.0000 0.0000
# 4 0.0000 0.0000 0.0000 6.4285 0.0000 0.0000
# 5 0.0000 0.0000 0.0000 0.0000 6.4285 0.0000
# 6 -6.9191 6.9191 0.0000 0.0000 0.0000 35.7779
#
#
#
# Elastic Compliance Matrix: (Units=1/GPa)
#
#
# Indices 1 2 3 4 5 6 
#
# 1 0.012387 -0.006492 -0.000390 0.000000 0.000000 0.003651
# 2 -0.006492 0.012387 -0.000390 0.000000 0.000000 -0.003651
# 3 -0.000390 -0.000390 0.019175 0.000000 0.000000 0.000000
# 4 0.000000 0.000000 0.000000 0.155557 0.000000 0.000000
# 5 0.000000 0.000000 0.000000 0.000000 0.155557 0.000000
# 6 0.003651 -0.003651 0.000000 0.000000 0.000000 0.029362
#
#
# Mechanical properties :
#
#
# Convention : Reuss Voigt Hill
#
# Bulk Modulus (GPa) = 34.00503 45.14188 39.57345
# Shear Modulus (GPa) = 12.23176 23.98595 18.10886
#
# Velocity S-wave (km/s) = 2.45007 3.43094 2.98112
# Velocity P-wave (km/s) = 4.96912 6.15215 5.59201
#
# Compressibility (1/GPa) = 0.02940741
#
# Stress axis : x y z
#
# Youngs Moduli (GPa) = 80.72851 80.72851 52.14999
#
# Poissons Ratio (x) = 0.52407 0.02032
# Poissons Ratio (y) = 0.52407 0.02032
# Poissons Ratio (z) = 0.03146 0.03146
#
# Static dielectric constant tensor:
#      x y z
#    x 3.859330 0.000000 0.000000 
#    y 0.000000 3.859330 0.000000 
#    z 0.000000 0.000000 7.633850 
# 
# 
# High freq. dielectric constant tensor:
#      x y z
#    x 1.798610 0.000000 0.000000 
#    y 0.000000 1.798610 0.000000 
#    z 0.000000 0.000000 1.772920 
# 
# From -- ./inp_files/1699.got.cif
#   From: 2010.03.12/outbox.cif.g09.slc.cpg/sg87_1_cif.got.tgz:1699.got - 2010.04.08 20:16:13.
