data_PCOD8303215
_publ_section_title
;
Structure prediction by ZEFSAII (Michael W. Deem and Ramdas Pophale) SiO2 
 PCOD8303215
Probable space group: P 42/M
;
_chemical_formula_sum "Si O2"
_cell_formula_units_Z 40
_cell_length_a 11.974131
_cell_length_b 11.974131
_cell_length_c 13.099965
_cell_angle_alpha 90.000000
_cell_angle_beta 90.000000
_cell_angle_gamma 90.000000
_cell_volume 1878.270535
_symmetry_space_group_name_H-M "P 42/M"
_symmetry_group_IT_number 84
_symmetry_cell_setting 'tetragonal'
loop_
_space_group_symop_operation_xyz
x,y,z
-y,x,1/2+z
-x,-y,z
y,-x,1/2+z
-x,-y,-z
y,-x,1/2-z
x,y,-z
-y,x,1/2-z
loop_
_atom_site_type_symbol
_atom_site_label
_atom_site_fract_x
_atom_site_fract_y
_atom_site_fract_z
Si Si1 0.946612 0.883289 0.615897
Si Si2 0.005247 0.342090 0.292929
Si Si3 0.156358 0.499379 0.386354
Si Si4 0.338680 0.576696 0.748651
Si Si5 0.849004 0.316997 0.117019
O O1 0.985703 0.861955 0.500000
O O2 0.999622 0.790173 0.689633
O O3 0.814142 0.872681 0.623174
O O4 0.000000 0.000000 0.653735
O O5 0.128941 0.396343 0.306971
O O6 0.938294 0.405033 0.383097
O O7 0.949198 0.372458 0.183651
O O8 0.170014 0.450604 0.500000
O O9 0.268905 0.562014 0.354599
O O10 0.451228 0.637018 0.711723
O O11 0.270518 0.646886 0.834805
O O12 0.854739 0.358893 0.000000
#
# Coordination Sequence:
#
# PCOD8303215 Si02
#       5
#     8   8   8   8   8
#     4  10  21  36  58  89 124 164 203 245 299 367
#     4  10  20  35  61  86 119 155 204 253 302 357
#     4  10  20  38  63  89 113 153 207 262 309 358
#     4  10  22  40  62  89 119 157 207 260 316 372
#     4  10  23  40  59  89 128 166 203 249 314 373
#
# _framework density 21.296184
#
# number of rings (size 3 to 8) (size 9 to 14) (size 15 to 20)
#    0.000    2.000    0.000    3.600    2.800    3.200 
#    0.000   10.000    0.000    0.000    0.000    0.000 
#    0.000    0.000    0.000    0.000    0.000    0.000 
#
# Total GULP energy -495644.629401 kJ/mol
# GULP energy per Si atom -12391.115735 kJ/mol
# Density = 2.124771 g / cm^3
# Si number density = 21.296184 Si / 1000 Ang^3
#
#
#
# Elastic Constant Matrix: (Units=GPa)
#
#
# Indices 1 2 3 4 5 6 
#
# 1 112.3368 40.8238 42.9507 0.0000 0.0000 6.9393
# 2 40.8238 112.3368 42.9507 0.0000 0.0000 -6.9393
# 3 42.9507 42.9507 124.5802 0.0000 0.0000 0.0000
# 4 0.0000 0.0000 0.0000 23.1845 0.0000 0.0000
# 5 0.0000 0.0000 0.0000 0.0000 23.1845 0.0000
# 6 6.9393 -6.9393 0.0000 0.0000 0.0000 37.7757
#
#
#
# Elastic Compliance Matrix: (Units=1/GPa)
#
#
# Indices 1 2 3 4 5 6 
#
# 1 0.011297 -0.003203 -0.002791 0.000000 0.000000 -0.002664
# 2 -0.003203 0.011297 -0.002791 0.000000 0.000000 0.002664
# 3 -0.002791 -0.002791 0.009951 0.000000 0.000000 0.000000
# 4 0.000000 0.000000 0.000000 0.043132 0.000000 0.000000
# 5 0.000000 0.000000 0.000000 0.000000 0.043132 0.000000
# 6 -0.002664 0.002664 0.000000 0.000000 0.000000 0.027451
#
#
# Mechanical properties :
#
#
# Convention : Reuss Voigt Hill
#
# Bulk Modulus (GPa) = 66.76804 66.96711 66.86758
# Shear Modulus (GPa) = 29.61701 31.66418 30.64059
#
# Velocity S-wave (km/s) = 3.73328 3.86015 3.79724
# Velocity P-wave (km/s) = 7.07130 7.16809 7.11986
#
# Compressibility (1/GPa) = 0.01497723
#
# Stress axis : x y z
#
# Youngs Moduli (GPa) = 88.51656 88.51656 100.49096
#
# Poissons Ratio (x) = 0.28353 0.28043
# Poissons Ratio (y) = 0.28353 0.28043
# Poissons Ratio (z) = 0.24701 0.24701
#
# Static dielectric constant tensor:
#      x y z
#    x 3.983800 0.000000 0.000000 
#    y 0.000000 3.983800 0.000000 
#    z 0.000000 0.000000 3.712220 
# 
# 
# High freq. dielectric constant tensor:
#      x y z
#    x 1.838410 0.000000 0.000000 
#    y 0.000000 1.838410 0.000000 
#    z 0.000000 0.000000 1.819380 
# 
# From -- ./inp_files/2903.got.cif
#   From: 2010.03.12/outbox.cif.g09.slc.cpg/sg84_2_cif.got.tgz:2903.got - 2010.04.08 20:07:29.
