data_PCOD8303715
_publ_section_title
;
Structure prediction by ZEFSAII (Michael W. Deem and Ramdas Pophale) SiO2 
 PCOD8303715
Probable space group: P 42/N
;
_chemical_formula_sum "Si O2"
_cell_formula_units_Z 48
_cell_length_a 8.791492
_cell_length_b 8.791492
_cell_length_c 28.003165
_cell_angle_alpha 90.000000
_cell_angle_beta 90.000000
_cell_angle_gamma 90.000000
_cell_volume 2164.373908
_symmetry_space_group_name_H-M "P 42/N"
_symmetry_group_IT_number 86
_space_group.IT_coordinate_system_code '2'
_symmetry_cell_setting 'tetragonal'
loop_
_space_group_symop_operation_xyz
x,y,z
-y,1/2+x,1/2+z
1/2-x,1/2-y,z
1/2+y,-x,1/2+z
-x,-y,-z
y,1/2-x,1/2-z
1/2+x,1/2+y,-z
1/2-y,x,1/2-z
loop_
_atom_site_type_symbol
_atom_site_label
_atom_site_fract_x
_atom_site_fract_y
_atom_site_fract_z
Si Si1 0.925524 0.961862 0.105808
Si Si2 0.073279 0.072767 0.197752
Si Si3 0.971067 0.073934 0.602250
Si Si4 0.280332 0.570614 0.549960
Si Si5 0.433522 0.416849 0.303876
Si Si6 0.928497 0.787057 0.948364
O O1 0.972740 0.789242 0.094416
O O2 0.750290 0.993880 0.093490
O O3 0.955865 0.998072 0.161052
O O4 0.043066 0.040975 0.068506
O O5 0.017698 0.027551 0.251018
O O6 0.243552 0.011596 0.187422
O O7 0.073646 0.252835 0.192477
O O8 0.010907 0.024989 0.656560
O O9 0.796014 0.033611 0.591547
O O10 0.044006 0.964570 0.561256
O O11 0.250000 0.750000 0.550208
O O12 0.233014 0.495061 0.500650
O O13 0.750000 0.750000 0.945549
#
# Coordination Sequence:
#
# PCOD8303715 Si02
#       6
#     8   8   8   8   8   8
#     4  12  24  41  64  95 131 170 216 275 332 399
#     4   9  18  36  63  91 120 163 216 267 318 385
#     4  12  24  41  64  95 131 170 216 275 332 399
#     4  12  26  44  64  92 130 176 220 272 335 400
#     4   9  18  36  63  91 120 163 216 267 318 385
#     4  12  24  42  68  96 130 172 222 270 327 396
#
# _framework density 22.177312000000001
#
# number of rings (size 3 to 8) (size 9 to 14) (size 15 to 20)
#    0.000    1.000    1.667    8.000    0.000    0.000 
#    3.000    0.000    0.000    0.000    0.000    0.000 
#    0.000    0.000    0.000    0.000    0.000    0.000 
#
# Total GULP energy -595062.802771 kJ/mol
# GULP energy per Si atom -12397.141724 kJ/mol
# Density = 2.212684 g / cm^3
# Si number density = 22.177312 Si / 1000 Ang^3
#
#
#
# Elastic Constant Matrix: (Units=GPa)
#
#
# Indices 1 2 3 4 5 6 
#
# 1 87.4190 17.5068 27.4454 0.0000 0.0000 -0.5006
# 2 17.5068 87.4190 27.4454 0.0000 0.0000 0.5006
# 3 27.4454 27.4454 143.5451 0.0000 0.0000 0.0000
# 4 0.0000 0.0000 0.0000 30.6660 0.0000 0.0000
# 5 0.0000 0.0000 0.0000 0.0000 30.6660 0.0000
# 6 -0.5006 0.5006 0.0000 0.0000 0.0000 31.4156
#
#
#
# Elastic Compliance Matrix: (Units=1/GPa)
#
#
# Indices 1 2 3 4 5 6 
#
# 1 0.012448 -0.001859 -0.002025 0.000000 0.000000 0.000228
# 2 -0.001859 0.012448 -0.002025 0.000000 0.000000 -0.000228
# 3 -0.002025 -0.002025 0.007741 0.000000 0.000000 0.000000
# 4 0.000000 0.000000 0.000000 0.032609 0.000000 0.000000
# 5 0.000000 0.000000 0.000000 0.000000 0.032609 0.000000
# 6 0.000228 -0.000228 0.000000 0.000000 0.000000 0.031839
#
#
# Mechanical properties :
#
#
# Convention : Reuss Voigt Hill
#
# Bulk Modulus (GPa) = 48.02776 51.46427 49.74601
# Shear Modulus (GPa) = 33.68110 34.94856 34.31483
#
# Velocity S-wave (km/s) = 3.90130 3.97403 3.93783
# Velocity P-wave (km/s) = 6.48049 6.65683 6.56926
#
# Compressibility (1/GPa) = 0.02082129
#
# Stress axis : x y z
#
# Youngs Moduli (GPa) = 80.33202 80.33202 129.18731
#
# Poissons Ratio (x) = 0.14930 0.26157
# Poissons Ratio (y) = 0.14930 0.26157
# Poissons Ratio (z) = 0.16265 0.16265
#
# Static dielectric constant tensor:
#      x y z
#    x 3.865550 0.000000 0.000000 
#    y 0.000000 3.865550 0.000000 
#    z 0.000000 0.000000 4.194580 
# 
# 
# High freq. dielectric constant tensor:
#      x y z
#    x 1.866120 0.000000 0.000000 
#    y 0.000000 1.866120 0.000000 
#    z 0.000000 0.000000 1.886760 
# 
# From -- ./inp_files/5117.got.cif
#   From: 2010.03.12/outbox.cif.g09.slc.cpg/sg86_3_cif.got.tgz:5117.got - 2010.04.08 20:12:58.
