data_PCOD8303134
_publ_section_title
;
Structure prediction by ZEFSAII (Michael W. Deem and Ramdas Pophale) SiO2 
 PCOD8303134
Probable space group: P 42/M
;
_chemical_formula_sum "Si O2"
_cell_formula_units_Z 56
_cell_length_a 14.113413
_cell_length_b 14.113413
_cell_length_c 14.759266
_cell_angle_alpha 90.000000
_cell_angle_beta 90.000000
_cell_angle_gamma 90.000000
_cell_volume 2939.874971
_symmetry_space_group_name_H-M "P 42/M"
_symmetry_group_IT_number 84
_symmetry_cell_setting 'tetragonal'
loop_
_space_group_symop_operation_xyz
x,y,z
-y,x,1/2+z
-x,-y,z
y,-x,1/2+z
-x,-y,-z
y,-x,1/2-z
x,y,-z
-y,x,1/2-z
loop_
_atom_site_type_symbol
_atom_site_label
_atom_site_fract_x
_atom_site_fract_y
_atom_site_fract_z
Si Si1 0.473314 0.604183 0.100651
Si Si2 0.560215 0.908833 0.099290
Si Si3 0.257684 0.991827 0.104739
Si Si4 0.084386 0.891819 0.283244
Si Si5 0.530130 0.234449 0.765661
Si Si6 0.256937 0.795177 0.195889
Si Si7 0.251523 0.605090 0.898881
O O1 0.500000 0.500000 0.133752
O O2 0.509344 0.673499 0.180158
O O3 0.362509 0.615945 0.090911
O O4 0.518320 0.624751 0.000000
O O5 0.503115 0.851086 0.172998
O O6 0.500000 0.000000 0.078720
O O7 0.660991 0.938760 0.144450
O O8 0.571661 0.856873 0.000000
O O9 0.275749 0.882826 0.129731
O O10 0.153419 0.028786 0.131891
O O11 0.269584 0.998671 0.000000
O O12 0.176467 0.827697 0.266309
O O13 0.002852 0.887663 0.202591
O O14 0.644442 0.232565 0.753637
O O15 0.483368 0.226726 0.666310
O O16 0.214800 0.704741 0.142102
O O17 0.207620 0.588111 0.000000
#
# Coordination Sequence:
#
# PCOD8303134 Si02
#       7
#     8   8   8   8   8   8   8
#     4   9  20  35  52  75 106 142 183 232 277 330
#     4  10  19  32  53  86 115 138 179 237 290 337
#     4  10  19  34  58  85 114 140 175 231 293 341
#     4   9  19  37  58  83 112 141 179 228 281 343
#     4  11  21  33  58  79 109 152 190 226 284 339
#     4  10  20  36  57  81 105 148 187 228 280 341
#     4  10  22  36  51  76 109 146 194 233 266 326
#
# _framework density 19.04843
#
# number of rings (size 3 to 8) (size 9 to 14) (size 15 to 20)
#    0.000    2.143    1.429    1.714    4.000    1.143 
#    0.000    7.143    0.000    0.429    0.000    0.000 
#    0.000    0.000    0.000    0.000    0.000    0.000 
#
# Total GULP energy -693756.108335 kJ/mol
# GULP energy per Si atom -12388.501935 kJ/mol
# Density = 1.900507 g / cm^3
# Si number density = 19.048430 Si / 1000 Ang^3
#
#
#
# Elastic Constant Matrix: (Units=GPa)
#
#
# Indices 1 2 3 4 5 6 
#
# 1 71.9754 36.8656 33.3164 0.0000 0.0000 -0.7699
# 2 36.8656 71.9754 33.3164 0.0000 0.0000 0.7699
# 3 33.3164 33.3164 85.7798 0.0000 0.0000 0.0000
# 4 0.0000 0.0000 0.0000 28.0688 0.0000 0.0000
# 5 0.0000 0.0000 0.0000 0.0000 28.0688 0.0000
# 6 -0.7699 0.7699 0.0000 0.0000 0.0000 29.6176
#
#
#
# Elastic Compliance Matrix: (Units=1/GPa)
#
#
# Indices 1 2 3 4 5 6 
#
# 1 0.020284 -0.008230 -0.004682 0.000000 0.000000 0.000741
# 2 -0.008230 0.020284 -0.004682 0.000000 0.000000 -0.000741
# 3 -0.004682 -0.004682 0.015294 0.000000 0.000000 0.000000
# 4 0.000000 0.000000 0.000000 0.035627 0.000000 0.000000
# 5 0.000000 0.000000 0.000000 0.000000 0.035627 0.000000
# 6 0.000741 -0.000741 0.000000 0.000000 0.000000 0.033802
#
#
# Mechanical properties :
#
#
# Convention : Reuss Voigt Hill
#
# Bulk Modulus (GPa) = 48.36638 48.52523 48.44581
# Shear Modulus (GPa) = 24.63082 25.56651 25.09867
#
# Velocity S-wave (km/s) = 3.59982 3.66756 3.63385
# Velocity P-wave (km/s) = 6.53641 6.59277 6.56465
#
# Compressibility (1/GPa) = 0.02067552
#
# Stress axis : x y z
#
# Youngs Moduli (GPa) = 49.29943 49.29943 65.38344
#
# Poissons Ratio (x) = 0.40575 0.30610
# Poissons Ratio (y) = 0.40575 0.30610
# Poissons Ratio (z) = 0.23080 0.23080
#
# Static dielectric constant tensor:
#      x y z
#    x 3.661890 0.000000 0.000000 
#    y 0.000000 3.661890 0.000000 
#    z 0.000000 0.000000 3.466790 
# 
# 
# High freq. dielectric constant tensor:
#      x y z
#    x 1.740020 0.000000 0.000000 
#    y 0.000000 1.740020 0.000000 
#    z 0.000000 0.000000 1.718130 
# 
# From -- ./inp_files/3093.got.cif
#   From: 2010.03.12/outbox.cif.g09.slc.cpg/sg84_2_cif.got.tgz:3093.got - 2010.04.08 20:07:29.
