data_PCOD8303905
_publ_section_title
;
Structure prediction by ZEFSAII (Michael W. Deem and Ramdas Pophale) SiO2 
 PCOD8303905
Probable space group: I 4/M
;
_chemical_formula_sum "Si O2"
_cell_formula_units_Z 96
_cell_length_a 23.612658
_cell_length_b 23.612658
_cell_length_c 9.067179
_cell_angle_alpha 90.000000
_cell_angle_beta 90.000000
_cell_angle_gamma 90.000000
_cell_volume 5055.474724
_symmetry_space_group_name_H-M "I 4/M"
_symmetry_group_IT_number 87
_symmetry_cell_setting 'tetragonal'
loop_
_space_group_symop_operation_xyz
x,y,z
-y,x,z
-x,-y,z
y,-x,z
-x,-y,-z
y,-x,-z
x,y,-z
-y,x,-z
1/2+x,1/2+y,1/2+z
1/2-y,1/2+x,1/2+z
1/2-x,1/2-y,1/2+z
1/2+y,1/2-x,1/2+z
1/2-x,1/2-y,1/2-z
1/2+y,1/2-x,1/2-z
1/2+x,1/2+y,1/2-z
1/2-y,1/2+x,1/2-z
loop_
_atom_site_type_symbol
_atom_site_label
_atom_site_fract_x
_atom_site_fract_y
_atom_site_fract_z
Si Si1 0.351873 0.502597 0.326453
Si Si2 0.813724 0.808963 0.664764
Si Si3 0.866018 0.694274 0.672536
Si Si4 0.513643 0.759492 0.171259
Si Si5 0.113900 0.712555 0.674722
Si Si6 0.098888 0.096995 0.334452
O O1 0.357887 0.496324 0.500000
O O2 0.292113 0.528392 0.279281
O O3 0.355846 0.442714 0.245432
O O4 0.402015 0.542218 0.263701
O O5 0.792437 0.797093 0.500000
O O6 0.829696 0.748242 0.738297
O O7 0.764796 0.847767 0.741164
O O8 0.873268 0.841477 0.660934
O O9 0.853228 0.688881 0.500000
O O10 0.934020 0.697675 0.697376
O O11 0.845265 0.638176 0.756488
O O12 0.452493 0.784533 0.219057
O O13 0.511824 0.739416 0.000000
O O14 0.118701 0.711215 0.500000
O O15 0.085420 0.075496 0.500000
#
# Coordination Sequence:
#
# PCOD8303905 Si02
#       6
#    16  16  16  16  16  16
#     4  12  24  37  55  86 117 143 189 251 293 317
#     4   9  17  32  57  83 108 143 188 225 265 333
#     4  10  20  35  56  85 114 146 187 232 278 334
#     4  10  20  38  61  80 109 156 197 223 271 355
#     4  10  20  35  56  85 114 146 187 232 278 334
#     4  11  21  39  61  78 106 156 202 229 276 346
#
# _framework density 18.989315000000001
#
# number of rings (size 3 to 8) (size 9 to 14) (size 15 to 20)
#    0.000    1.667    3.333    2.500    0.000    1.667 
#    0.000    1.667    0.000    0.500    0.000    3.500 
#    0.000    0.000    0.000    0.000    0.000    0.000 
#
# Total GULP energy -594892.789135 kJ/mol
# GULP energy per Si atom -12393.599774 kJ/mol
# Density = 1.894609 g / cm^3
# Si number density = 18.989315 Si / 1000 Ang^3
#
#
#
# Elastic Constant Matrix: (Units=GPa)
#
#
# Indices 1 2 3 4 5 6 
#
# 1 92.3402 45.1152 29.7355 0.0000 0.0000 -0.4588
# 2 45.1152 92.3402 29.7355 0.0000 0.0000 0.4588
# 3 29.7355 29.7355 77.0066 0.0000 0.0000 0.0000
# 4 0.0000 0.0000 0.0000 27.4064 0.0000 0.0000
# 5 0.0000 0.0000 0.0000 0.0000 27.4064 0.0000
# 6 -0.4588 0.4588 0.0000 0.0000 0.0000 28.4238
#
#
#
# Elastic Compliance Matrix: (Units=1/GPa)
#
#
# Indices 1 2 3 4 5 6 
#
# 1 0.014958 -0.006224 -0.003373 0.000000 0.000000 0.000342
# 2 -0.006224 0.014958 -0.003373 0.000000 0.000000 -0.000342
# 3 -0.003373 -0.003373 0.015591 0.000000 0.000000 0.000000
# 4 0.000000 0.000000 0.000000 0.036488 0.000000 0.000000
# 5 0.000000 0.000000 0.000000 0.000000 0.036488 0.000000
# 6 0.000342 -0.000342 0.000000 0.000000 0.000000 0.035193
#
#
# Mechanical properties :
#
#
# Convention : Reuss Voigt Hill
#
# Bulk Modulus (GPa) = 51.10270 52.31772 51.71021
# Shear Modulus (GPa) = 26.86200 27.12068 26.99134
#
# Velocity S-wave (km/s) = 3.76518 3.78326 3.77423
# Velocity P-wave (km/s) = 6.77287 6.83338 6.80319
#
# Compressibility (1/GPa) = 0.01956844
#
# Stress axis : x y z
#
# Youngs Moduli (GPa) = 66.85344 66.85344 64.14128
#
# Poissons Ratio (x) = 0.41608 0.21633
# Poissons Ratio (y) = 0.41608 0.21633
# Poissons Ratio (z) = 0.22548 0.22548
#
# Static dielectric constant tensor:
#      x y z
#    x 3.423600 0.000000 0.000000 
#    y 0.000000 3.423600 0.000000 
#    z 0.000000 0.000000 3.202930 
# 
# 
# High freq. dielectric constant tensor:
#      x y z
#    x 1.728020 0.000000 0.000000 
#    y 0.000000 1.728020 0.000000 
#    z 0.000000 0.000000 1.715140 
# 
# From -- ./inp_files/1333.got.cif
#   From: 2010.03.12/outbox.cif.g09.slc.cpg/sg87_1_cif.got.tgz:1333.got - 2010.04.08 20:16:13.
