data_PCOD8303686
_publ_section_title
;
Structure prediction by ZEFSAII (Michael W. Deem and Ramdas Pophale) SiO2 
 PCOD8303686
Probable space group: P 42/N
;
_chemical_formula_sum "Si O2"
_cell_formula_units_Z 56
_cell_length_a 13.853757
_cell_length_b 13.853757
_cell_length_c 12.624551
_cell_angle_alpha 90.000000
_cell_angle_beta 90.000000
_cell_angle_gamma 90.000000
_cell_volume 2422.986936
_symmetry_space_group_name_H-M "P 42/N"
_symmetry_group_IT_number 86
_space_group.IT_coordinate_system_code '2'
_symmetry_cell_setting 'tetragonal'
loop_
_space_group_symop_operation_xyz
x,y,z
-y,1/2+x,1/2+z
1/2-x,1/2-y,z
1/2+y,-x,1/2+z
-x,-y,-z
y,1/2-x,1/2-z
1/2+x,1/2+y,-z
1/2-y,x,1/2-z
loop_
_atom_site_type_symbol
_atom_site_label
_atom_site_fract_x
_atom_site_fract_y
_atom_site_fract_z
Si Si1 0.599818 0.931246 0.242628
Si Si2 0.629263 0.744972 0.097595
Si Si3 0.600287 0.039358 0.039331
Si Si4 0.929007 0.722252 0.503370
Si Si5 0.201385 0.103889 0.233001
Si Si6 0.268206 0.521401 0.422200
Si Si7 0.453031 0.933963 0.409725
O O1 0.631462 0.831989 0.182424
O O2 0.665915 0.939719 0.346824
O O3 0.490623 0.949338 0.288145
O O4 0.619612 0.017643 0.162617
O O5 0.726464 0.675985 0.061911
O O6 0.577161 0.774629 0.989956
O O7 0.600003 0.156540 0.028693
O O8 0.500000 0.000000 0.000000
O O9 0.675276 0.977431 0.969596
O O10 0.916043 0.663057 0.613493
O O11 0.010411 0.673840 0.431918
O O12 0.136457 0.187937 0.281514
O O13 0.195074 0.008920 0.305359
O O14 0.162248 0.565650 0.415497
O O15 0.500000 0.000000 0.500000
#
# Coordination Sequence:
#
# PCOD8303686 Si02
#       7
#     8   8   8   8   8   8   8
#     4  11  24  42  73 104 136 194 243 310 377 441
#     4  11  23  46  69 103 142 184 254 303 367 439
#     4  12  27  44  68 104 151 183 244 308 379 435
#     4  11  25  45  70 104 141 194 239 302 365 454
#     4  11  23  39  69 105 139 183 235 297 366 425
#     4  12  25  43  69 105 146 189 238 305 362 450
#     4  11  23  46  74 100 144 196 248 298 377 453
#
# _framework density 23.111968999999998
#
# number of rings (size 3 to 8) (size 9 to 14) (size 15 to 20)
#    0.000    0.714    5.714    2.571    6.000    2.571 
#    0.000    0.000    0.000    1.714    0.000    0.000 
#    0.000    0.000    0.000    0.000    0.000    0.000 
#
# Total GULP energy -693731.182077 kJ/mol
# GULP energy per Si atom -12388.056823 kJ/mol
# Density = 2.305937 g / cm^3
# Si number density = 23.111969 Si / 1000 Ang^3
#
#
#
# Elastic Constant Matrix: (Units=GPa)
#
#
# Indices 1 2 3 4 5 6 
#
# 1 113.0438 27.3783 10.9782 0.0000 0.0000 -1.8520
# 2 27.3783 113.0438 10.9782 0.0000 0.0000 1.8520
# 3 10.9782 10.9782 92.6230 0.0000 0.0000 0.0000
# 4 0.0000 0.0000 0.0000 37.0088 0.0000 0.0000
# 5 0.0000 0.0000 0.0000 0.0000 37.0088 0.0000
# 6 -1.8520 1.8520 0.0000 0.0000 0.0000 23.2907
#
#
#
# Elastic Compliance Matrix: (Units=1/GPa)
#
#
# Indices 1 2 3 4 5 6 
#
# 1 0.009485 -0.002229 -0.000860 0.000000 0.000000 0.000931
# 2 -0.002229 0.009485 -0.000860 0.000000 0.000000 -0.000931
# 3 -0.000860 -0.000860 0.011000 0.000000 0.000000 0.000000
# 4 0.000000 0.000000 0.000000 0.027021 0.000000 0.000000
# 5 0.000000 0.000000 0.000000 0.000000 0.027021 0.000000
# 6 0.000931 -0.000931 0.000000 0.000000 0.000000 0.043084
#
#
# Mechanical properties :
#
#
# Convention : Reuss Voigt Hill
#
# Bulk Modulus (GPa) = 45.30621 46.37552 45.84087
# Shear Modulus (GPa) = 35.12474 37.42005 36.27239
#
# Velocity S-wave (km/s) = 3.90264 4.02814 3.96589
# Velocity P-wave (km/s) = 6.32084 6.46094 6.39127
#
# Compressibility (1/GPa) = 0.02207203
#
# Stress axis : x y z
#
# Youngs Moduli (GPa) = 105.43273 105.43273 90.90643
#
# Poissons Ratio (x) = 0.23500 0.07818
# Poissons Ratio (y) = 0.23500 0.07818
# Poissons Ratio (z) = 0.09067 0.09067
#
# Static dielectric constant tensor:
#      x y z
#    x 4.392450 0.000000 0.000000 
#    y 0.000000 4.392450 0.000000 
#    z 0.000000 0.000000 4.296190 
# 
# 
# High freq. dielectric constant tensor:
#      x y z
#    x 1.905420 0.000000 0.000000 
#    y 0.000000 1.905420 0.000000 
#    z 0.000000 0.000000 1.926460 
# 
# From -- ./inp_files/2400.got.cif
#   From: 2010.03.12/outbox.cif.g09.slc.cpg/sg86_2_cif.got.tgz:2400.got - 2010.04.08 20:12:58.
