data_PCOD8303837
_publ_section_title
;
Structure prediction by ZEFSAII (Michael W. Deem and Ramdas Pophale) SiO2 
 PCOD8303837
Probable space group: I 4/M
;
_chemical_formula_sum "Si O2"
_cell_formula_units_Z 96
_cell_length_a 23.536068
_cell_length_b 23.536068
_cell_length_c 8.883743
_cell_angle_alpha 90.000000
_cell_angle_beta 90.000000
_cell_angle_gamma 90.000000
_cell_volume 4921.118314
_symmetry_space_group_name_H-M "I 4/M"
_symmetry_group_IT_number 87
_symmetry_cell_setting 'tetragonal'
loop_
_space_group_symop_operation_xyz
x,y,z
-y,x,z
-x,-y,z
y,-x,z
-x,-y,-z
y,-x,-z
x,y,-z
-y,x,-z
1/2+x,1/2+y,1/2+z
1/2-y,1/2+x,1/2+z
1/2-x,1/2-y,1/2+z
1/2+y,1/2-x,1/2+z
1/2-x,1/2-y,1/2-z
1/2+y,1/2-x,1/2-z
1/2+x,1/2+y,1/2-z
1/2-y,1/2+x,1/2-z
loop_
_atom_site_type_symbol
_atom_site_label
_atom_site_fract_x
_atom_site_fract_y
_atom_site_fract_z
Si Si1 0.781034 0.614047 0.826476
Si Si2 0.375035 0.201185 0.674056
Si Si3 0.682995 0.695401 0.831146
Si Si4 0.013883 0.266259 0.679382
Si Si5 0.402463 0.599240 0.167623
Si Si6 0.150696 0.996926 0.822464
O O1 0.843211 0.640961 0.804794
O O2 0.732999 0.656327 0.755869
O O3 0.783484 0.549410 0.760710
O O4 0.763263 0.608090 0.000000
O O5 0.388028 0.213952 0.500000
O O6 0.331184 0.249326 0.732565
O O7 0.434774 0.193526 0.763009
O O8 0.625202 0.659955 0.840326
O O9 0.700874 0.714992 0.000000
O O10 0.016183 0.263129 0.500000
O O11 0.030745 0.206951 0.754779
O O12 0.440961 0.645061 0.252430
O O13 0.401874 0.541567 0.265524
O O14 0.425980 0.586835 0.000000
O O15 0.152549 0.999482 0.000000
#
# Coordination Sequence:
#
# PCOD8303837 Si02
#       6
#    16  16  16  16  16  16
#     4   9  20  38  59  83 115 152 190 232 280 338
#     4  11  22  36  57  89 120 145 184 241 291 330
#     4  10  19  35  58  83 113 154 192 224 276 347
#     4  11  21  39  61  81 112 157 195 225 279 353
#     4  11  22  38  60  81 110 153 201 237 281 344
#     4  12  24  38  57  84 115 148 195 248 291 325
#
# _framework density 19.507760999999999
#
# number of rings (size 3 to 8) (size 9 to 14) (size 15 to 20)
#    0.000    1.333    3.333    3.500    0.000    1.000 
#    0.000    5.833    0.000    0.500    0.000    3.500 
#    0.000    0.000    0.000    0.000    0.000    0.000 
#
# Total GULP energy -595004.780426 kJ/mol
# GULP energy per Si atom -12395.932926 kJ/mol
# Density = 1.946336 g / cm^3
# Si number density = 19.507761 Si / 1000 Ang^3
#
#
#
# Elastic Constant Matrix: (Units=GPa)
#
#
# Indices 1 2 3 4 5 6 
#
# 1 85.1772 36.4782 38.6421 0.0000 0.0000 -1.3214
# 2 36.4782 85.1772 38.6421 0.0000 0.0000 1.3214
# 3 38.6421 38.6421 119.6839 0.0000 0.0000 0.0000
# 4 0.0000 0.0000 0.0000 26.5479 0.0000 0.0000
# 5 0.0000 0.0000 0.0000 0.0000 26.5479 0.0000
# 6 -1.3214 1.3214 0.0000 0.0000 0.0000 21.8585
#
#
#
# Elastic Compliance Matrix: (Units=1/GPa)
#
#
# Indices 1 2 3 4 5 6 
#
# 1 0.015471 -0.005130 -0.003339 0.000000 0.000000 0.001245
# 2 -0.005130 0.015471 -0.003339 0.000000 0.000000 -0.001245
# 3 -0.003339 -0.003339 0.010511 0.000000 0.000000 0.000000
# 4 0.000000 0.000000 0.000000 0.037668 0.000000 0.000000
# 5 0.000000 0.000000 0.000000 0.000000 0.037668 0.000000
# 6 0.001245 -0.001245 0.000000 0.000000 0.000000 0.045899
#
#
# Mechanical properties :
#
#
# Convention : Reuss Voigt Hill
#
# Bulk Modulus (GPa) = 56.05958 57.50701 56.78330
# Shear Modulus (GPa) = 26.00765 26.74258 26.37512
#
# Velocity S-wave (km/s) = 3.65526 3.70654 3.68099
# Velocity P-wave (km/s) = 6.82744 6.91816 6.87295
#
# Compressibility (1/GPa) = 0.01783816
#
# Stress axis : x y z
#
# Youngs Moduli (GPa) = 64.63521 64.63521 95.13563
#
# Poissons Ratio (x) = 0.33161 0.31764
# Poissons Ratio (y) = 0.33161 0.31764
# Poissons Ratio (z) = 0.21580 0.21580
#
# Static dielectric constant tensor:
#      x y z
#    x 3.503690 0.000000 0.000000 
#    y 0.000000 3.503690 0.000000 
#    z 0.000000 0.000000 3.428240 
# 
# 
# High freq. dielectric constant tensor:
#      x y z
#    x 1.749870 0.000000 0.000000 
#    y 0.000000 1.749870 0.000000 
#    z 0.000000 0.000000 1.749110 
# 
# From -- ./inp_files/1441.got.cif
#   From: 2010.03.12/outbox.cif.g09.slc.cpg/sg87_1_cif.got.tgz:1441.got - 2010.04.08 20:16:13.
