data_PCOD8303942
_publ_section_title
;
Structure prediction by ZEFSAII (Michael W. Deem and Ramdas Pophale) SiO2 
 PCOD8303942
Probable space group: I 4/M
;
_chemical_formula_sum "Si O2"
_cell_formula_units_Z 64
_cell_length_a 15.931798
_cell_length_b 15.931798
_cell_length_c 12.445885
_cell_angle_alpha 90.000000
_cell_angle_beta 90.000000
_cell_angle_gamma 90.000000
_cell_volume 3159.041756
_symmetry_space_group_name_H-M "I 4/M"
_symmetry_group_IT_number 87
_symmetry_cell_setting 'tetragonal'
loop_
_space_group_symop_operation_xyz
x,y,z
-y,x,z
-x,-y,z
y,-x,z
-x,-y,-z
y,-x,-z
x,y,-z
-y,x,-z
1/2+x,1/2+y,1/2+z
1/2-y,1/2+x,1/2+z
1/2-x,1/2-y,1/2+z
1/2+y,1/2-x,1/2+z
1/2-x,1/2-y,1/2-z
1/2+y,1/2-x,1/2-z
1/2+x,1/2+y,1/2-z
1/2-y,1/2+x,1/2-z
loop_
_atom_site_type_symbol
_atom_site_label
_atom_site_fract_x
_atom_site_fract_y
_atom_site_fract_z
Si Si1 0.184690 0.634052 0.750947
Si Si2 0.840407 0.200391 0.873960
Si Si3 0.629885 0.545790 0.786032
Si Si4 0.301222 0.036590 0.377819
O O1 0.172758 0.702254 0.845240
O O2 0.271323 0.645409 0.687758
O O3 0.110046 0.638678 0.664454
O O4 0.184091 0.543767 0.804484
O O5 0.931734 0.167514 0.832399
O O6 0.833583 0.186767 0.000000
O O7 0.550305 0.605459 0.803874
O O8 0.703693 0.567071 0.870954
O O9 0.325007 0.016805 0.500000
#
# Coordination Sequence:
#
# PCOD8303942 Si02
#       4
#    16  16  16  16
#     4  10  22  41  60  92 124 156 216 260 292 380
#     4  10  20  38  63  86 123 169 203 250 311 364
#     4  10  21  39  60  94 130 153 202 255 301 378
#     4  11  23  42  67  90 124 167 204 258 314 358
#
# _framework density 20.259308999999998
#
# number of rings (size 3 to 8) (size 9 to 14) (size 15 to 20)
#    0.000    1.750    2.500    1.500    0.000    2.500 
#    0.000    7.500    0.000    0.000    0.000    0.000 
#    0.000    0.000    0.000    0.000    0.000    0.000 
#
# Total GULP energy -396725.978891 kJ/mol
# GULP energy per Si atom -12397.686840 kJ/mol
# Density = 2.021320 g / cm^3
# Si number density = 20.259309 Si / 1000 Ang^3
#
#
#
# Elastic Constant Matrix: (Units=GPa)
#
#
# Indices 1 2 3 4 5 6 
#
# 1 91.4634 39.8091 32.6697 0.0000 0.0000 -5.2671
# 2 39.8091 91.4634 32.6697 0.0000 0.0000 5.2671
# 3 32.6697 32.6697 117.2569 0.0000 0.0000 0.0000
# 4 0.0000 0.0000 0.0000 19.8676 0.0000 0.0000
# 5 0.0000 0.0000 0.0000 0.0000 19.8676 0.0000
# 6 -5.2671 5.2671 0.0000 0.0000 0.0000 35.1691
#
#
#
# Elastic Compliance Matrix: (Units=1/GPa)
#
#
# Indices 1 2 3 4 5 6 
#
# 1 0.014407 -0.005563 -0.002464 0.000000 0.000000 0.002991
# 2 -0.005563 0.014407 -0.002464 0.000000 0.000000 -0.002991
# 3 -0.002464 -0.002464 0.009901 0.000000 0.000000 0.000000
# 4 0.000000 0.000000 0.000000 0.050333 0.000000 0.000000
# 5 0.000000 0.000000 0.000000 0.000000 0.050333 0.000000
# 6 0.002991 -0.002991 0.000000 0.000000 0.000000 0.029330
#
#
# Mechanical properties :
#
#
# Convention : Reuss Voigt Hill
#
# Bulk Modulus (GPa) = 56.39118 56.72008 56.55563
# Shear Modulus (GPa) = 25.56184 27.98321 26.77252
#
# Velocity S-wave (km/s) = 3.55594 3.72055 3.63918
# Velocity P-wave (km/s) = 6.68990 6.82015 6.75534
#
# Compressibility (1/GPa) = 0.01773327
#
# Stress axis : x y z
#
# Youngs Moduli (GPa) = 69.41166 69.41166 100.99587
#
# Poissons Ratio (x) = 0.38611 0.24887
# Poissons Ratio (y) = 0.38611 0.24887
# Poissons Ratio (z) = 0.17104 0.17104
#
# Static dielectric constant tensor:
#      x y z
#    x 3.796620 0.000000 0.000000 
#    y 0.000000 3.796620 0.000000 
#    z 0.000000 0.000000 3.438710 
# 
# 
# High freq. dielectric constant tensor:
#      x y z
#    x 1.798280 0.000000 0.000000 
#    y 0.000000 1.798280 0.000000 
#    z 0.000000 0.000000 1.773880 
# 
# From -- ./inp_files/2334.got.cif
#   From: 2010.03.12/outbox.cif.g09.slc.cpg/sg87_2_cif.got.tgz:2334.got - 2010.04.08 20:16:13.
