data_PCOD8303989
_publ_section_title
;
Structure prediction by ZEFSAII (Michael W. Deem and Ramdas Pophale) SiO2 
 PCOD8303989
Probable space group: I 4/M
;
_chemical_formula_sum "Si O2"
_cell_formula_units_Z 64
_cell_length_a 19.778291
_cell_length_b 19.778291
_cell_length_c 8.622001
_cell_angle_alpha 90.000000
_cell_angle_beta 90.000000
_cell_angle_gamma 90.000000
_cell_volume 3372.761205
_symmetry_space_group_name_H-M "I 4/M"
_symmetry_group_IT_number 87
_symmetry_cell_setting 'tetragonal'
loop_
_space_group_symop_operation_xyz
x,y,z
-y,x,z
-x,-y,z
y,-x,z
-x,-y,-z
y,-x,-z
x,y,-z
-y,x,-z
1/2+x,1/2+y,1/2+z
1/2-y,1/2+x,1/2+z
1/2-x,1/2-y,1/2+z
1/2+y,1/2-x,1/2+z
1/2-x,1/2-y,1/2-z
1/2+y,1/2-x,1/2-z
1/2+x,1/2+y,1/2-z
1/2-y,1/2+x,1/2-z
loop_
_atom_site_type_symbol
_atom_site_label
_atom_site_fract_x
_atom_site_fract_y
_atom_site_fract_z
Si Si1 0.682894 0.924901 0.178709
Si Si2 0.574634 0.325182 0.820444
Si Si3 0.173554 0.931627 0.820963
Si Si4 0.327629 0.921975 0.177392
O O1 0.747824 0.907227 0.281998
O O2 0.623429 0.872451 0.210238
O O3 0.656552 0.000052 0.217398
O O4 0.705399 0.921155 0.000000
O O5 0.497319 0.342740 0.781179
O O6 0.622701 0.372403 0.719808
O O7 0.588312 0.339048 0.000000
O O8 0.249371 0.905778 0.788114
O O9 0.166012 0.952556 0.000000
O O10 0.346422 0.905357 0.000000
#
# Coordination Sequence:
#
# PCOD8303989 Si02
#       4
#    16  16  16  16
#     4  10  21  37  57  81 111 147 184 225 276 328
#     4  11  22  37  58  84 112 143 183 228 273 324
#     4  10  21  39  59  81 112 147 183 225 275 327
#     4   9  20  37  56  80 109 143 184 227 271 325
#
# _framework density 18.975550999999999
#
# number of rings (size 3 to 8) (size 9 to 14) (size 15 to 20)
#    0.000    2.000    0.000    5.250    0.000    8.000 
#    0.000    5.000    0.000    0.000    0.000    0.000 
#    0.000    0.000    0.000    0.000    0.000    0.000 
#
# Total GULP energy -396956.689080 kJ/mol
# GULP energy per Si atom -12404.896534 kJ/mol
# Density = 1.893236 g / cm^3
# Si number density = 18.975551 Si / 1000 Ang^3
#
#
#
# Elastic Constant Matrix: (Units=GPa)
#
#
# Indices 1 2 3 4 5 6 
#
# 1 86.5386 64.1096 20.5570 0.0000 0.0000 0.1867
# 2 64.1096 86.5386 20.5570 0.0000 0.0000 -0.1867
# 3 20.5570 20.5570 59.2430 0.0000 0.0000 0.0000
# 4 0.0000 0.0000 0.0000 32.9914 0.0000 0.0000
# 5 0.0000 0.0000 0.0000 0.0000 32.9914 0.0000
# 6 0.1867 -0.1867 0.0000 0.0000 0.0000 39.5101
#
#
#
# Elastic Compliance Matrix: (Units=1/GPa)
#
#
# Indices 1 2 3 4 5 6 
#
# 1 0.025960 -0.018628 -0.002544 0.000000 0.000000 -0.000211
# 2 -0.018628 0.025960 -0.002544 0.000000 0.000000 0.000211
# 3 -0.002544 -0.002544 0.018645 0.000000 0.000000 0.000000
# 4 0.000000 0.000000 0.000000 0.030311 0.000000 0.000000
# 5 0.000000 0.000000 0.000000 0.000000 0.030311 0.000000
# 6 -0.000211 0.000211 0.000000 0.000000 0.000000 0.025312
#
#
# Mechanical properties :
#
#
# Convention : Reuss Voigt Hill
#
# Bulk Modulus (GPa) = 43.22848 49.19638 46.21243
# Shear Modulus (GPa) = 23.62452 29.57169 26.59811
#
# Velocity S-wave (km/s) = 3.53228 3.95195 3.74800
# Velocity P-wave (km/s) = 6.28225 6.84152 6.56784
#
# Compressibility (1/GPa) = 0.02313290
#
# Stress axis : x y z
#
# Youngs Moduli (GPa) = 38.52011 38.52011 53.63274
#
# Poissons Ratio (x) = 0.71756 0.13646
# Poissons Ratio (y) = 0.71756 0.13646
# Poissons Ratio (z) = 0.09801 0.09801
#
# Static dielectric constant tensor:
#      x y z
#    x 3.392710 0.000000 0.000000 
#    y 0.000000 3.392710 0.000000 
#    z 0.000000 0.000000 3.416590 
# 
# 
# High freq. dielectric constant tensor:
#      x y z
#    x 1.737550 0.000000 0.000000 
#    y 0.000000 1.737550 0.000000 
#    z 0.000000 0.000000 1.745910 
# 
# From -- ./inp_files/928.got.cif
#   From: 2010.03.12/outbox.cif.g09.slc.cpg/sg87_1_cif.got.tgz:928.got - 2010.04.08 20:16:13.
