data_PCOD8303496
_publ_section_title
;
Structure prediction by ZEFSAII (Michael W. Deem and Ramdas Pophale) SiO2 
 PCOD8303496
Probable space group: P 42/N
;
_chemical_formula_sum "Si O2"
_cell_formula_units_Z 48
_cell_length_a 12.752637
_cell_length_b 12.752637
_cell_length_c 13.924159
_cell_angle_alpha 90.000000
_cell_angle_beta 90.000000
_cell_angle_gamma 90.000000
_cell_volume 2264.482503
_symmetry_space_group_name_H-M "P 42/N"
_symmetry_group_IT_number 86
_space_group.IT_coordinate_system_code '2'
_symmetry_cell_setting 'tetragonal'
loop_
_space_group_symop_operation_xyz
x,y,z
-y,1/2+x,1/2+z
1/2-x,1/2-y,z
1/2+y,-x,1/2+z
-x,-y,-z
y,1/2-x,1/2-z
1/2+x,1/2+y,-z
1/2-y,x,1/2-z
loop_
_atom_site_type_symbol
_atom_site_label
_atom_site_fract_x
_atom_site_fract_y
_atom_site_fract_z
Si Si1 0.047187 0.278129 0.334127
Si Si2 0.135449 0.091155 0.438932
Si Si3 0.019854 0.169323 0.138211
Si Si4 0.680162 0.155500 0.905378
Si Si5 0.965482 0.110482 0.582835
Si Si6 0.633940 0.206744 0.697109
O O1 0.133767 0.199262 0.378410
O O2 0.035211 0.254936 0.222131
O O3 0.074562 0.399211 0.352723
O O4 0.935433 0.263142 0.382977
O O5 0.255594 0.049374 0.452641
O O6 0.084558 0.115777 0.543873
O O7 0.061992 0.006345 0.378658
O O8 0.901821 0.122829 0.136821
O O9 0.750000 0.250000 0.944141
O O10 0.612097 0.185358 0.810194
O O11 0.609429 0.116694 0.992847
O O12 0.946851 0.205656 0.657336
O O13 0.750000 0.250000 0.683988
#
# Coordination Sequence:
#
# PCOD8303496 Si02
#       6
#     8   8   8   8   8   8
#     4  10  20  32  52  87 116 146 195 242 299 359
#     4  10  20  32  55  82 110 154 193 243 300 357
#     4  11  19  32  56  84 120 152 187 250 306 353
#     4   9  20  34  54  80 113 153 195 244 296 352
#     4  10  20  37  55  83 116 153 206 243 290 377
#     4  10  19  34  56  82 114 160 201 247 302 352
#
# _framework density 21.196897
#
# number of rings (size 3 to 8) (size 9 to 14) (size 15 to 20)
#    0.000    2.000    3.333    1.000    0.000    0.000 
#    0.000    3.333    3.667    0.000    0.000    0.000 
#    0.000    0.000    0.000    0.000    0.000    0.000 
#
# Total GULP energy -594789.266845 kJ/mol
# GULP energy per Si atom -12391.443059 kJ/mol
# Density = 2.114865 g / cm^3
# Si number density = 21.196897 Si / 1000 Ang^3
#
#
#
# Elastic Constant Matrix: (Units=GPa)
#
#
# Indices 1 2 3 4 5 6 
#
# 1 75.2511 -7.2111 4.6637 0.0000 0.0000 -3.0724
# 2 -7.2111 75.2511 4.6637 0.0000 0.0000 3.0724
# 3 4.6637 4.6637 52.2551 0.0000 0.0000 0.0000
# 4 0.0000 0.0000 0.0000 24.1448 0.0000 0.0000
# 5 0.0000 0.0000 0.0000 0.0000 24.1448 0.0000
# 6 -3.0724 3.0724 0.0000 0.0000 0.0000 32.9511
#
#
#
# Elastic Compliance Matrix: (Units=1/GPa)
#
#
# Indices 1 2 3 4 5 6 
#
# 1 0.013545 0.001334 -0.001328 0.000000 0.000000 0.001139
# 2 0.001334 0.013545 -0.001328 0.000000 0.000000 -0.001139
# 3 -0.001328 -0.001328 0.019374 0.000000 0.000000 0.000000
# 4 0.000000 0.000000 0.000000 0.041417 0.000000 0.000000
# 5 0.000000 0.000000 0.000000 0.000000 0.041417 0.000000
# 6 0.001139 -0.001139 0.000000 0.000000 0.000000 0.030560
#
#
# Mechanical properties :
#
#
# Convention : Reuss Voigt Hill
#
# Bulk Modulus (GPa) = 22.82029 22.99888 22.90958
# Shear Modulus (GPa) = 28.23109 29.62421 28.92765
#
# Velocity S-wave (km/s) = 3.65341 3.74247 3.69821
# Velocity P-wave (km/s) = 5.34657 5.43585 5.39139
#
# Compressibility (1/GPa) = 0.04382066
#
# Stress axis : x y z
#
# Youngs Moduli (GPa) = 73.82548 73.82548 51.61575
#
# Poissons Ratio (x) = -0.09847 0.06854
# Poissons Ratio (y) = -0.09847 0.06854
# Poissons Ratio (z) = 0.09804 0.09804
#
# Static dielectric constant tensor:
#      x y z
#    x 3.833880 0.000000 0.000000 
#    y 0.000000 3.833880 0.000000 
#    z 0.000000 0.000000 3.955270 
# 
# 
# High freq. dielectric constant tensor:
#      x y z
#    x 1.823370 0.000000 0.000000 
#    y 0.000000 1.823370 0.000000 
#    z 0.000000 0.000000 1.799700 
# 
# From -- ./inp_files/3578.got.cif
#   From: 2010.03.12/outbox.cif.g09.slc.cpg/sg86_2_cif.got.tgz:3578.got - 2010.04.08 20:12:58.
