data_PCOD8303768
_publ_section_title
;
Structure prediction by ZEFSAII (Michael W. Deem and Ramdas Pophale) SiO2 
 PCOD8303768
Probable space group: I 4/M
;
_chemical_formula_sum "Si O2"
_cell_formula_units_Z 112
_cell_length_a 25.591731
_cell_length_b 25.591731
_cell_length_c 10.215879
_cell_angle_alpha 90.000000
_cell_angle_beta 90.000000
_cell_angle_gamma 90.000000
_cell_volume 6690.754035
_symmetry_space_group_name_H-M "I 4/M"
_symmetry_group_IT_number 87
_symmetry_cell_setting 'tetragonal'
loop_
_space_group_symop_operation_xyz
x,y,z
-y,x,z
-x,-y,z
y,-x,z
-x,-y,-z
y,-x,-z
x,y,-z
-y,x,-z
1/2+x,1/2+y,1/2+z
1/2-y,1/2+x,1/2+z
1/2-x,1/2-y,1/2+z
1/2+y,1/2-x,1/2+z
1/2-x,1/2-y,1/2-z
1/2+y,1/2-x,1/2-z
1/2+x,1/2+y,1/2-z
1/2-y,1/2+x,1/2-z
loop_
_atom_site_type_symbol
_atom_site_label
_atom_site_fract_x
_atom_site_fract_y
_atom_site_fract_z
Si Si1 0.835773 0.238111 0.728687
Si Si2 0.104463 0.306628 0.150661
Si Si3 0.763785 0.318428 0.143838
Si Si4 0.068631 0.814347 0.152053
Si Si5 0.984265 0.293163 0.151533
Si Si6 0.904530 0.329534 0.644084
Si Si7 0.421932 0.473743 0.344131
O O1 0.806552 0.272800 0.838194
O O2 0.793722 0.206696 0.644176
O O3 0.873689 0.196013 0.794279
O O4 0.869855 0.276900 0.639381
O O5 0.137425 0.268369 0.244489
O O6 0.121462 0.366585 0.172589
O O7 0.044054 0.302527 0.188609
O O8 0.114103 0.289189 0.000000
O O9 0.772903 0.343169 0.000000
O O10 0.029155 0.766952 0.181528
O O11 0.044857 0.866808 0.217173
O O12 0.074947 0.823950 0.000000
O O13 0.948531 0.329631 0.243670
O O14 0.972587 0.307349 0.000000
O O15 0.930479 0.335344 0.500000
O O16 0.467507 0.434543 0.295356
O O17 0.419612 0.473966 0.500000
#
# Coordination Sequence:
#
# PCOD8303768 Si02
#       7
#    16  16  16  16  16  16  16
#     4   9  18  29  43  64  93 122 153 191 229 271
#     4   9  19  33  48  69  97 125 153 190 236 278
#     4  10  19  30  46  67  93 125 159 191 226 277
#     4   9  16  26  42  63  87 118 152 185 227 275
#     4   9  18  32  48  69  95 120 151 192 232 274
#     4   9  17  31  50  68  90 124 157 185 227 279
#     4   8  14  24  37  55  81 113 149 187 224 263
#
# _framework density 16.739518
#
# number of rings (size 3 to 8) (size 9 to 14) (size 15 to 20)
#    0.000    3.000    0.000    1.286    0.000    9.143 
#    0.000    2.857    0.000    0.429    0.000    3.000 
#    0.000    0.000    0.000   40.571    0.000   14.429 
#
# Total GULP energy -694153.071408 kJ/mol
# GULP energy per Si atom -12395.590561 kJ/mol
# Density = 1.670142 g / cm^3
# Si number density = 16.739518 Si / 1000 Ang^3
#
#
#
# Elastic Constant Matrix: (Units=GPa)
#
#
# Indices 1 2 3 4 5 6 
#
# 1 103.7853 48.7743 39.9719 0.0000 0.0000 7.4277
# 2 48.7743 103.7853 39.9719 0.0000 0.0000 -7.4277
# 3 39.9719 39.9719 79.5839 0.0000 0.0000 0.0000
# 4 0.0000 0.0000 0.0000 18.2110 0.0000 0.0000
# 5 0.0000 0.0000 0.0000 0.0000 18.2110 0.0000
# 6 7.4277 -7.4277 0.0000 0.0000 0.0000 17.6912
#
#
#
# Elastic Compliance Matrix: (Units=1/GPa)
#
#
# Indices 1 2 3 4 5 6 
#
# 1 0.014699 -0.005803 -0.004468 0.000000 0.000000 -0.008608
# 2 -0.005803 0.014699 -0.004468 0.000000 0.000000 0.008608
# 3 -0.004468 -0.004468 0.017054 0.000000 0.000000 0.000000
# 4 0.000000 0.000000 0.000000 0.054912 0.000000 0.000000
# 5 0.000000 0.000000 0.000000 0.000000 0.054912 0.000000
# 6 -0.008608 0.008608 0.000000 0.000000 0.000000 0.063753
#
#
# Mechanical properties :
#
#
# Convention : Reuss Voigt Hill
#
# Bulk Modulus (GPa) = 58.91593 60.51008 59.71300
# Shear Modulus (GPa) = 19.59500 21.38507 20.49003
#
# Velocity S-wave (km/s) = 3.42509 3.57812 3.50244
# Velocity P-wave (km/s) = 7.13539 7.30049 7.21841
#
# Compressibility (1/GPa) = 0.01697334
#
# Stress axis : x y z
#
# Youngs Moduli (GPa) = 68.02962 68.02962 58.63802
#
# Poissons Ratio (x) = 0.39479 0.26201
# Poissons Ratio (y) = 0.39479 0.26201
# Poissons Ratio (z) = 0.30397 0.30397
#
# Static dielectric constant tensor:
#      x y z
#    x 3.187870 0.000000 0.000000 
#    y 0.000000 3.187870 0.000000 
#    z 0.000000 0.000000 2.951870 
# 
# 
# High freq. dielectric constant tensor:
#      x y z
#    x 1.636100 0.000000 0.000000 
#    y 0.000000 1.636100 0.000000 
#    z 0.000000 0.000000 1.624230 
# 
# From -- ./inp_files/2919.got.cif
#   From: 2010.03.12/outbox.cif.g09.slc.cpg/sg87_2_cif.got.tgz:2919.got - 2010.04.08 20:16:13.
