data_PCOD8303924
_publ_section_title
;
Structure prediction by ZEFSAII (Michael W. Deem and Ramdas Pophale) SiO2 
 PCOD8303924
Probable space group: I 4/M
;
_chemical_formula_sum "Si O2"
_cell_formula_units_Z 96
_cell_length_a 23.708842
_cell_length_b 23.708842
_cell_length_c 8.881920
_cell_angle_alpha 90.000000
_cell_angle_beta 90.000000
_cell_angle_gamma 90.000000
_cell_volume 4992.608848
_symmetry_space_group_name_H-M "I 4/M"
_symmetry_group_IT_number 87
_symmetry_cell_setting 'tetragonal'
loop_
_space_group_symop_operation_xyz
x,y,z
-y,x,z
-x,-y,z
y,-x,z
-x,-y,-z
y,-x,-z
x,y,-z
-y,x,-z
1/2+x,1/2+y,1/2+z
1/2-y,1/2+x,1/2+z
1/2-x,1/2-y,1/2+z
1/2+y,1/2-x,1/2+z
1/2-x,1/2-y,1/2-z
1/2+y,1/2-x,1/2-z
1/2+x,1/2+y,1/2-z
1/2-y,1/2+x,1/2-z
loop_
_atom_site_type_symbol
_atom_site_label
_atom_site_fract_x
_atom_site_fract_y
_atom_site_fract_z
Si Si1 0.906153 0.607730 0.663860
Si Si2 0.373216 0.696527 0.319839
Si Si3 0.289591 0.616339 0.180142
Si Si4 0.306775 0.187699 0.167045
Si Si5 0.512828 0.269088 0.175796
Si Si6 0.502748 0.157148 0.330598
O O1 0.934627 0.620266 0.500000
O O2 0.843028 0.631139 0.663105
O O3 0.898575 0.541121 0.689017
O O4 0.939957 0.636430 0.797302
O O5 0.374251 0.697161 0.500000
O O6 0.346876 0.638997 0.254831
O O7 0.332709 0.747848 0.256028
O O8 0.437836 0.697292 0.262109
O O9 0.237795 0.655830 0.243492
O O10 0.284137 0.550848 0.231339
O O11 0.291501 0.618876 0.000000
O O12 0.291816 0.208902 0.000000
O O13 0.522159 0.203575 0.211444
O O14 0.519919 0.280861 0.000000
O O15 0.505492 0.181564 0.500000
#
# Coordination Sequence:
#
# PCOD8303924 Si02
#       6
#    16  16  16  16  16  16
#     4  10  20  37  55  75 111 152 193 242 291 338
#     4  11  22  37  59  88 121 150 186 237 285 335
#     4  10  21  38  59  84 115 152 192 229 278 343
#     4   9  17  34  56  81 116 152 184 229 284 337
#     4  11  22  38  61  84 114 155 191 230 282 345
#     4  11  22  36  56  81 110 148 199 248 286 335
#
# _framework density 19.228424
#
# number of rings (size 3 to 8) (size 9 to 14) (size 15 to 20)
#    0.000    1.667    3.333    2.000    0.000    3.000 
#    0.000    2.500    0.000    0.500    0.000    3.500 
#    0.000    0.000    0.000    0.000    0.000    0.000 
#
# Total GULP energy -594788.956406 kJ/mol
# GULP energy per Si atom -12391.436592 kJ/mol
# Density = 1.918466 g / cm^3
# Si number density = 19.228424 Si / 1000 Ang^3
#
#
#
# Elastic Constant Matrix: (Units=GPa)
#
#
# Indices 1 2 3 4 5 6 
#
# 1 94.2949 52.1442 34.5259 0.0000 0.0000 1.8595
# 2 52.1442 94.2949 34.5259 0.0000 0.0000 -1.8595
# 3 34.5259 34.5259 47.9535 0.0000 0.0000 0.0000
# 4 0.0000 0.0000 0.0000 26.0766 0.0000 0.0000
# 5 0.0000 0.0000 0.0000 0.0000 26.0766 0.0000
# 6 1.8595 -1.8595 0.0000 0.0000 0.0000 26.0892
#
#
#
# Elastic Compliance Matrix: (Units=1/GPa)
#
#
# Indices 1 2 3 4 5 6 
#
# 1 0.017107 -0.006768 -0.007444 0.000000 0.000000 -0.001702
# 2 -0.006768 0.017107 -0.007444 0.000000 0.000000 0.001702
# 3 -0.007444 -0.007444 0.031572 0.000000 0.000000 0.000000
# 4 0.000000 0.000000 0.000000 0.038348 0.000000 0.000000
# 5 0.000000 0.000000 0.000000 0.000000 0.038348 0.000000
# 6 -0.001702 0.001702 0.000000 0.000000 0.000000 0.038573
#
#
# Mechanical properties :
#
#
# Convention : Reuss Voigt Hill
#
# Bulk Modulus (GPa) = 44.49422 53.21502 48.85462
# Shear Modulus (GPa) = 21.56493 23.33833 22.45163
#
# Velocity S-wave (km/s) = 3.35253 3.48766 3.42076
# Velocity P-wave (km/s) = 6.17867 6.62975 6.40818
#
# Compressibility (1/GPa) = 0.02247483
#
# Stress axis : x y z
#
# Youngs Moduli (GPa) = 58.45672 58.45672 31.67318
#
# Poissons Ratio (x) = 0.39563 0.23577
# Poissons Ratio (y) = 0.39563 0.23577
# Poissons Ratio (z) = 0.43514 0.43514
#
# Static dielectric constant tensor:
#      x y z
#    x 3.499540 0.000000 0.000000 
#    y 0.000000 3.499540 0.000000 
#    z 0.000000 0.000000 3.350670 
# 
# 
# High freq. dielectric constant tensor:
#      x y z
#    x 1.738660 0.000000 0.000000 
#    y 0.000000 1.738660 0.000000 
#    z 0.000000 0.000000 1.732020 
# 
# From -- ./inp_files/1437.got.cif
#   From: 2010.03.12/outbox.cif.g09.slc.cpg/sg87_1_cif.got.tgz:1437.got - 2010.04.08 20:16:13.
