data_PCOD8303493
_publ_section_title
;
Structure prediction by ZEFSAII (Michael W. Deem and Ramdas Pophale) SiO2 
 PCOD8303493
Probable space group: P 42/N
;
_chemical_formula_sum "Si O2"
_cell_formula_units_Z 56
_cell_length_a 23.142224
_cell_length_b 23.142224
_cell_length_c 6.238099
_cell_angle_alpha 90.000000
_cell_angle_beta 90.000000
_cell_angle_gamma 90.000000
_cell_volume 3340.892093
_symmetry_space_group_name_H-M "P 42/N"
_symmetry_group_IT_number 86
_space_group.IT_coordinate_system_code '2'
_symmetry_cell_setting 'tetragonal'
loop_
_space_group_symop_operation_xyz
x,y,z
-y,1/2+x,1/2+z
1/2-x,1/2-y,z
1/2+y,-x,1/2+z
-x,-y,-z
y,1/2-x,1/2-z
1/2+x,1/2+y,-z
1/2-y,x,1/2-z
loop_
_atom_site_type_symbol
_atom_site_label
_atom_site_fract_x
_atom_site_fract_y
_atom_site_fract_z
Si Si1 0.639809 0.328468 0.142432
Si Si2 0.469695 0.813358 0.863689
Si Si3 0.491469 0.087371 0.866041
Si Si4 0.486626 0.588619 0.408232
Si Si5 0.908221 0.061505 0.969968
Si Si6 0.543512 0.286425 0.429661
Si Si7 0.389720 0.758554 0.192304
O O1 0.606971 0.389406 0.140322
O O2 0.607104 0.293101 0.326609
O O3 0.707078 0.336990 0.198038
O O4 0.636066 0.299992 0.906972
O O5 0.445089 0.854689 0.684735
O O6 0.493401 0.754900 0.738025
O O7 0.514520 0.849275 0.017457
O O8 0.414495 0.798096 0.004574
O O9 0.502065 0.087137 0.608190
O O10 0.432467 0.053149 0.916349
O O11 0.546875 0.053634 0.955382
O O12 0.487347 0.653070 0.510225
O O13 0.465044 0.582260 0.161154
O O14 0.556210 0.253758 0.651439
#
# Coordination Sequence:
#
# PCOD8303493 Si02
#       7
#     8   8   8   8   8   8   8
#     4  11  21  33  51  64  90 128 172 219 260 300
#     4  10  20  32  53  69  92 135 163 203 247 311
#     4  10  19  33  49  75 105 126 164 205 260 306
#     4  10  20  30  50  78 101 128 162 212 251 312
#     4  11  17  33  52  69  94 129 167 204 264 304
#     4  11  20  34  52  70  94 130 171 204 256 308
#     4  11  22  35  51  64  90 126 177 220 256 299
#
# _framework density 16.761990000000001
#
# number of rings (size 3 to 8) (size 9 to 14) (size 15 to 20)
#    0.000    1.429    5.714    1.286    0.000    0.000 
#    0.000    2.143    0.000    0.000    0.000    0.000 
#    0.000    0.571    0.000    0.143    0.000    0.143 
#
# Total GULP energy -693749.367798 kJ/mol
# GULP energy per Si atom -12388.381568 kJ/mol
# Density = 1.672384 g / cm^3
# Si number density = 16.761990 Si / 1000 Ang^3
#
#
#
# Elastic Constant Matrix: (Units=GPa)
#
#
# Indices 1 2 3 4 5 6 
#
# 1 69.4142 41.9005 31.1547 0.0000 0.0000 0.2072
# 2 41.9005 69.4142 31.1547 0.0000 0.0000 -0.2072
# 3 31.1547 31.1547 84.9378 0.0000 0.0000 0.0000
# 4 0.0000 0.0000 0.0000 23.8648 0.0000 0.0000
# 5 0.0000 0.0000 0.0000 0.0000 23.8648 0.0000
# 6 0.2072 -0.2072 0.0000 0.0000 0.0000 25.7307
#
#
#
# Elastic Compliance Matrix: (Units=1/GPa)
#
#
# Indices 1 2 3 4 5 6 
#
# 1 0.023827 -0.012523 -0.004146 0.000000 0.000000 -0.000293
# 2 -0.012523 0.023827 -0.004146 0.000000 0.000000 0.000293
# 3 -0.004146 -0.004146 0.014815 0.000000 0.000000 0.000000
# 4 0.000000 0.000000 0.000000 0.041903 0.000000 0.000000
# 5 0.000000 0.000000 0.000000 0.000000 0.041903 0.000000
# 6 -0.000293 0.000293 0.000000 0.000000 0.000000 0.038869
#
#
# Mechanical properties :
#
#
# Convention : Reuss Voigt Hill
#
# Bulk Modulus (GPa) = 47.98826 48.02066 48.00446
# Shear Modulus (GPa) = 21.39302 22.66248 22.02775
#
# Velocity S-wave (km/s) = 3.57638 3.68097 3.62905
# Velocity P-wave (km/s) = 6.76353 6.83935 6.80155
#
# Compressibility (1/GPa) = 0.02083843
#
# Stress axis : x y z
#
# Youngs Moduli (GPa) = 41.96881 41.96881 67.49870
#
# Poissons Ratio (x) = 0.52556 0.27988
# Poissons Ratio (y) = 0.52556 0.27988
# Poissons Ratio (z) = 0.17402 0.17402
#
# Static dielectric constant tensor:
#      x y z
#    x 3.039160 0.000000 0.000000 
#    y 0.000000 3.039160 0.000000 
#    z 0.000000 0.000000 3.527830 
# 
# 
# High freq. dielectric constant tensor:
#      x y z
#    x 1.608590 0.000000 0.000000 
#    y 0.000000 1.608590 0.000000 
#    z 0.000000 0.000000 1.675070 
# 
# From -- ./inp_files/519.got.cif
#   From: 2010.03.12/outbox.cif.g09.slc.cpg/sg86_1_cif.got.tgz:519.got - 2010.04.08 20:12:58.
