data_PCOD8303295
_publ_section_title
;
Structure prediction by ZEFSAII (Michael W. Deem and Ramdas Pophale) SiO2 
 PCOD8303295
Probable space group: P 42/M
;
_chemical_formula_sum "Si O2"
_cell_formula_units_Z 48
_cell_length_a 9.577180
_cell_length_b 9.577180
_cell_length_c 27.969212
_cell_angle_alpha 90.000000
_cell_angle_beta 90.000000
_cell_angle_gamma 90.000000
_cell_volume 2565.402601
_symmetry_space_group_name_H-M "P 42/M"
_symmetry_group_IT_number 84
_symmetry_cell_setting 'tetragonal'
loop_
_space_group_symop_operation_xyz
x,y,z
-y,x,1/2+z
-x,-y,z
y,-x,1/2+z
-x,-y,-z
y,-x,1/2-z
x,y,-z
-y,x,1/2-z
loop_
_atom_site_type_symbol
_atom_site_label
_atom_site_fract_x
_atom_site_fract_y
_atom_site_fract_z
Si Si1 0.903692 0.369482 0.500000
Si Si2 0.009951 0.164043 0.316341
Si Si3 0.165190 0.476002 0.193370
Si Si4 0.359869 0.091658 0.896814
Si Si5 0.633857 0.590804 0.000000
Si Si6 0.416978 0.644758 0.395146
Si Si7 0.783878 0.249255 0.755806
O O1 0.930269 0.290816 0.449820
O O2 0.746694 0.425144 0.500000
O O3 0.000000 0.500000 0.500000
O O4 0.957564 0.236461 0.363635
O O5 0.930192 0.217686 0.269498
O O6 0.167913 0.213675 0.306328
O O7 0.000000 0.000000 0.324110
O O8 0.241455 0.475956 0.141996
O O9 0.198103 0.331792 0.218972
O O10 0.230030 0.589589 0.229677
O O11 0.000000 0.500000 0.185377
O O12 0.391596 0.254021 0.885897
O O13 0.500000 0.000000 0.889156
O O14 0.500000 0.500000 0.000000
O O15 0.712293 0.562892 0.050958
O O16 0.500000 0.500000 0.389132
#
# Coordination Sequence:
#
# PCOD8303295 Si02
#       7
#     4   8   8   8   4   8   8
#     4   8  16  36  57  88 116 146 188 244 287 342
#     4  12  22  41  59  83 115 161 198 230 287 356
#     4  12  26  41  59  86 119 151 197 244 285 342
#     4  10  22  37  64  89 118 152 196 240 295 346
#     4   8  16  36  61  82 116 150 184 232 295 352
#     4  10  22  39  61  91 117 150 192 242 294 343
#     4  12  25  41  60  81 120 157 194 237 291 343
#
# _framework density 18.710512999999999
#
# number of rings (size 3 to 8) (size 9 to 14) (size 15 to 20)
#    0.000    1.333    5.000    0.000    7.000    0.000 
#    0.000    0.833    0.000    0.000    0.000    0.000 
#    0.000    0.000    0.000    0.000    0.000    0.000 
#
# Total GULP energy -594695.509873 kJ/mol
# GULP energy per Si atom -12389.489789 kJ/mol
# Density = 1.866793 g / cm^3
# Si number density = 18.710513 Si / 1000 Ang^3
#
#
#
# Elastic Constant Matrix: (Units=GPa)
#
#
# Indices 1 2 3 4 5 6 
#
# 1 69.9012 23.7776 51.0501 0.0000 0.0000 1.5432
# 2 23.7776 69.9012 51.0501 0.0000 0.0000 -1.5432
# 3 51.0501 51.0501 146.0595 0.0000 0.0000 0.0000
# 4 0.0000 0.0000 0.0000 24.3335 0.0000 0.0000
# 5 0.0000 0.0000 0.0000 0.0000 24.3335 0.0000
# 6 1.5432 -1.5432 0.0000 0.0000 0.0000 23.9054
#
#
#
# Elastic Compliance Matrix: (Units=1/GPa)
#
#
# Indices 1 2 3 4 5 6 
#
# 1 0.019509 -0.002266 -0.006027 0.000000 0.000000 -0.001406
# 2 -0.002266 0.019509 -0.006027 0.000000 0.000000 0.001406
# 3 -0.006027 -0.006027 0.011059 0.000000 0.000000 0.000000
# 4 0.000000 0.000000 0.000000 0.041096 0.000000 0.000000
# 5 0.000000 0.000000 0.000000 0.000000 0.041096 0.000000
# 6 -0.001406 0.001406 0.000000 0.000000 0.000000 0.042013
#
#
# Mechanical properties :
#
#
# Convention : Reuss Voigt Hill
#
# Bulk Modulus (GPa) = 46.64414 59.73530 53.18972
# Shear Modulus (GPa) = 23.80192 25.18010 24.49101
#
# Velocity S-wave (km/s) = 3.57054 3.67246 3.62186
# Velocity P-wave (km/s) = 6.47934 7.06951 6.78085
#
# Compressibility (1/GPa) = 0.02143892
#
# Stress axis : x y z
#
# Youngs Moduli (GPa) = 51.25797 51.25797 90.42005
#
# Poissons Ratio (x) = 0.11614 0.54495
# Poissons Ratio (y) = 0.11614 0.54495
# Poissons Ratio (z) = 0.30892 0.30892
#
# Static dielectric constant tensor:
#      x y z
#    x 3.428650 0.000000 0.000000 
#    y 0.000000 3.428650 0.000000 
#    z 0.000000 0.000000 4.443430 
# 
# 
# High freq. dielectric constant tensor:
#      x y z
#    x 1.720060 0.000000 0.000000 
#    y 0.000000 1.720060 0.000000 
#    z 0.000000 0.000000 1.744800 
# 
# From -- ./inp_files/5862.got.cif
#   From: 2010.03.12/outbox.cif.g09.slc.cpg/sg84_3_cif.got.tgz:5862.got - 2010.04.08 20:07:29.
