data_PCOD8303330
_publ_section_title
;
Structure prediction by ZEFSAII (Michael W. Deem and Ramdas Pophale) SiO2 
 PCOD8303330
Probable space group: P 42/M
;
_chemical_formula_sum "Si O2"
_cell_formula_units_Z 22
_cell_length_a 5.397241
_cell_length_b 5.397241
_cell_length_c 29.145525
_cell_angle_alpha 90.000000
_cell_angle_beta 90.000000
_cell_angle_gamma 90.000000
_cell_volume 849.015276
_symmetry_space_group_name_H-M "P 42/M"
_symmetry_group_IT_number 84
_symmetry_cell_setting 'tetragonal'
loop_
_space_group_symop_operation_xyz
x,y,z
-y,x,1/2+z
-x,-y,z
y,-x,1/2+z
-x,-y,-z
y,-x,1/2-z
x,y,-z
-y,x,1/2-z
loop_
_atom_site_type_symbol
_atom_site_label
_atom_site_fract_x
_atom_site_fract_y
_atom_site_fract_z
Si Si1 0.000000 0.000000 0.250000
Si Si2 0.252592 0.345354 0.500000
Si Si3 0.746758 0.364636 0.191589
Si Si4 0.757173 0.147709 0.902831
O O1 0.099510 0.224228 0.282814
O O2 0.500000 0.500000 0.500000
O O3 0.261859 0.182910 0.453273
O O4 0.000000 0.500000 0.500000
O O5 0.500000 0.500000 0.210373
O O6 0.720718 0.351331 0.136426
O O7 0.000000 0.500000 0.204775
O O8 0.500000 0.000000 0.905329
O O9 0.000000 0.000000 0.887245
#
# Coordination Sequence:
#
# PCOD8303330 Si02
#       4
#     2   4   8   8
#     4  12  32  52  72 114 164 200 284 336 420 482
#     4  10  23  44  74 114 156 206 258 317 391 479
#     4  12  29  50  81 113 156 209 267 334 410 482
#     4  11  23  47  75 112 155 203 258 325 396 477
#
# _framework density 25.912369999999999
#
# number of rings (size 3 to 8) (size 9 to 14) (size 15 to 20)
#    0.000    0.727    1.818    3.818    5.091    2.909 
#    0.000    8.182    0.000    0.000    0.000    0.000 
#    0.000    0.000    0.000    0.000    0.000    0.000 
#
# Total GULP energy -272652.283891 kJ/mol
# GULP energy per Si atom -12393.285631 kJ/mol
# Density = 2.585339 g / cm^3
# Si number density = 25.912370 Si / 1000 Ang^3
#
#
#
# Elastic Constant Matrix: (Units=GPa)
#
#
# Indices 1 2 3 4 5 6 
#
# 1 152.2355 47.5948 31.9071 0.0000 0.0000 0.6263
# 2 47.5948 152.2355 31.9071 0.0000 0.0000 -0.6263
# 3 31.9071 31.9071 196.1301 0.0000 0.0000 0.0000
# 4 0.0000 0.0000 0.0000 12.6116 0.0000 0.0000
# 5 0.0000 0.0000 0.0000 0.0000 12.6116 0.0000
# 6 0.6263 -0.6263 0.0000 0.0000 0.0000 50.0661
#
#
#
# Elastic Compliance Matrix: (Units=1/GPa)
#
#
# Indices 1 2 3 4 5 6 
#
# 1 0.007418 -0.002140 -0.000859 0.000000 0.000000 -0.000120
# 2 -0.002140 0.007418 -0.000859 0.000000 0.000000 0.000120
# 3 -0.000859 -0.000859 0.005378 0.000000 0.000000 0.000000
# 4 0.000000 0.000000 0.000000 0.079292 0.000000 0.000000
# 5 0.000000 0.000000 0.000000 0.000000 0.079292 0.000000
# 6 -0.000120 0.000120 0.000000 0.000000 0.000000 0.019977
#
#
# Mechanical properties :
#
#
# Convention : Reuss Voigt Hill
#
# Bulk Modulus (GPa) = 79.99925 80.37992 80.18958
# Shear Modulus (GPa) = 23.73528 41.00398 32.36963
#
# Velocity S-wave (km/s) = 3.02980 3.98227 3.53823
# Velocity P-wave (km/s) = 6.57112 7.22716 6.90693
#
# Compressibility (1/GPa) = 0.01250012
#
# Stress axis : x y z
#
# Youngs Moduli (GPa) = 134.80347 134.80347 185.94083
#
# Poissons Ratio (x) = 0.28844 0.15967
# Poissons Ratio (y) = 0.28844 0.15967
# Poissons Ratio (z) = 0.11576 0.11576
#
# Static dielectric constant tensor:
#      x y z
#    x 4.501290 0.000000 0.000000 
#    y 0.000000 4.501290 0.000000 
#    z 0.000000 0.000000 5.611320 
# 
# 
# High freq. dielectric constant tensor:
#      x y z
#    x 2.023720 0.000000 0.000000 
#    y 0.000000 2.023720 0.000000 
#    z 0.000000 0.000000 2.080360 
# 
# From -- ./inp_files/5537.got.cif
#   From: 2010.03.12/outbox.cif.g09.slc.cpg/sg84_3_cif.got.tgz:5537.got - 2010.04.08 20:07:29.
