data_PCOD8303653
_publ_section_title
;
Structure prediction by ZEFSAII (Michael W. Deem and Ramdas Pophale) SiO2 
 PCOD8303653
Probable space group: P 42/N
;
_chemical_formula_sum "Si O2"
_cell_formula_units_Z 48
_cell_length_a 14.037237
_cell_length_b 14.037237
_cell_length_c 11.323167
_cell_angle_alpha 90.000000
_cell_angle_beta 90.000000
_cell_angle_gamma 90.000000
_cell_volume 2231.162374
_symmetry_space_group_name_H-M "P 42/N"
_symmetry_group_IT_number 86
_space_group.IT_coordinate_system_code '2'
_symmetry_cell_setting 'tetragonal'
loop_
_space_group_symop_operation_xyz
x,y,z
-y,1/2+x,1/2+z
1/2-x,1/2-y,z
1/2+y,-x,1/2+z
-x,-y,-z
y,1/2-x,1/2-z
1/2+x,1/2+y,-z
1/2-y,x,1/2-z
loop_
_atom_site_type_symbol
_atom_site_label
_atom_site_fract_x
_atom_site_fract_y
_atom_site_fract_z
Si Si1 0.250000 0.750000 0.823609
Si Si2 0.435039 0.827080 0.698943
Si Si3 0.250000 0.250000 0.250000
Si Si4 0.497909 0.974524 0.295052
Si Si5 0.639727 0.904875 0.113020
Si Si6 0.705229 0.446145 0.062562
Si Si7 0.617744 0.603310 0.654457
Si Si8 0.750000 0.750000 0.250000
O O1 0.334938 0.785561 0.740427
O O2 0.282796 0.664429 0.907256
O O3 0.464318 0.776271 0.576420
O O4 0.515580 0.814156 0.801172
O O5 0.430291 0.940410 0.664932
O O6 0.294873 0.167911 0.169566
O O7 0.547469 0.917095 0.191615
O O8 0.475837 0.902417 0.401383
O O9 0.402146 0.021129 0.235100
O O10 0.686441 0.807991 0.157801
O O11 0.715572 0.990559 0.128192
O O12 0.594112 0.900421 0.983528
#
# Coordination Sequence:
#
# PCOD8303653 Si02
#       8
#     4   8   2   8   8   8   8   2
#     4  12  26  46  70 112 140 184 242 296 364 420
#     4  10  25  47  67 107 136 187 235 282 364 414
#     4  12  22  44  60 114 128 174 240 268 346 420
#     4  10  24  45  67  99 135 186 235 273 358 416
#     4  12  23  47  68 103 137 183 234 285 356 419
#     4  12  24  45  73  98 149 181 235 302 343 434
#     4  10  25  43  70  96 142 181 232 285 349 418
#     4  12  26  44  72 110 140 182 236 300 350 424
#
# _framework density 21.513448
#
# number of rings (size 3 to 8) (size 9 to 14) (size 15 to 20)
#    1.000    0.000    3.333    3.000    4.667    0.000 
#    6.000    0.000    0.000    0.000    0.000    0.000 
#    0.000    0.000    0.000    0.000    0.000    0.000 
#
# Total GULP energy -594892.916660 kJ/mol
# GULP energy per Si atom -12393.602430 kJ/mol
# Density = 2.146448 g / cm^3
# Si number density = 21.513448 Si / 1000 Ang^3
#
#
#
# Elastic Constant Matrix: (Units=GPa)
#
#
# Indices 1 2 3 4 5 6 
#
# 1 91.5828 28.5685 25.9585 0.0000 0.0000 5.4983
# 2 28.5685 91.5828 25.9585 0.0000 0.0000 -5.4983
# 3 25.9585 25.9585 96.7342 0.0000 0.0000 0.0000
# 4 0.0000 0.0000 0.0000 27.7068 0.0000 0.0000
# 5 0.0000 0.0000 0.0000 0.0000 27.7068 0.0000
# 6 5.4983 -5.4983 0.0000 0.0000 0.0000 43.3182
#
#
#
# Elastic Compliance Matrix: (Units=1/GPa)
#
#
# Indices 1 2 3 4 5 6 
#
# 1 0.012822 -0.003407 -0.002526 0.000000 0.000000 -0.002060
# 2 -0.003407 0.012822 -0.002526 0.000000 0.000000 0.002060
# 3 -0.002526 -0.002526 0.011694 0.000000 0.000000 0.000000
# 4 0.000000 0.000000 0.000000 0.036092 0.000000 0.000000
# 5 0.000000 0.000000 0.000000 0.000000 0.036092 0.000000
# 6 -0.002060 0.002060 0.000000 0.000000 0.000000 0.023608
#
#
# Mechanical properties :
#
#
# Convention : Reuss Voigt Hill
#
# Bulk Modulus (GPa) = 48.97881 48.98565 48.98223
# Shear Modulus (GPa) = 31.87660 33.04062 32.45861
#
# Velocity S-wave (km/s) = 3.85347 3.92320 3.88849
# Velocity P-wave (km/s) = 6.52802 6.58340 6.55577
#
# Compressibility (1/GPa) = 0.02041699
#
# Stress axis : x y z
#
# Youngs Moduli (GPa) = 77.99284 77.99284 85.51757
#
# Poissons Ratio (x) = 0.26574 0.21605
# Poissons Ratio (y) = 0.26574 0.21605
# Poissons Ratio (z) = 0.19704 0.19704
#
# Static dielectric constant tensor:
#      x y z
#    x 3.862750 0.000000 0.000000 
#    y 0.000000 3.862750 0.000000 
#    z 0.000000 0.000000 3.702870 
# 
# 
# High freq. dielectric constant tensor:
#      x y z
#    x 1.846860 0.000000 0.000000 
#    y 0.000000 1.846860 0.000000 
#    z 0.000000 0.000000 1.841180 
# 
# From -- ./inp_files/2344.got.cif
#   From: 2010.03.12/outbox.cif.g09.slc.cpg/sg86_2_cif.got.tgz:2344.got - 2010.04.08 20:12:58.
