data_PCOD8303782
_publ_section_title
;
Structure prediction by ZEFSAII (Michael W. Deem and Ramdas Pophale) SiO2 
 PCOD8303782
Probable space group: I 4/M
;
_chemical_formula_sum "Si O2"
_cell_formula_units_Z 96
_cell_length_a 23.403907
_cell_length_b 23.403907
_cell_length_c 9.469215
_cell_angle_alpha 90.000000
_cell_angle_beta 90.000000
_cell_angle_gamma 90.000000
_cell_volume 5186.694933
_symmetry_space_group_name_H-M "I 4/M"
_symmetry_group_IT_number 87
_symmetry_cell_setting 'tetragonal'
loop_
_space_group_symop_operation_xyz
x,y,z
-y,x,z
-x,-y,z
y,-x,z
-x,-y,-z
y,-x,-z
x,y,-z
-y,x,-z
1/2+x,1/2+y,1/2+z
1/2-y,1/2+x,1/2+z
1/2-x,1/2-y,1/2+z
1/2+y,1/2-x,1/2+z
1/2-x,1/2-y,1/2-z
1/2+y,1/2-x,1/2-z
1/2+x,1/2+y,1/2-z
1/2-y,1/2+x,1/2-z
loop_
_atom_site_type_symbol
_atom_site_label
_atom_site_fract_x
_atom_site_fract_y
_atom_site_fract_z
Si Si1 0.076569 0.752907 0.840201
Si Si2 0.579222 0.548178 0.844249
Si Si3 0.642900 0.926549 0.337414
Si Si4 0.940301 0.650420 0.336808
Si Si5 0.763900 0.054268 0.165112
Si Si6 0.866116 0.866209 0.158857
O O1 0.090568 0.703916 0.728172
O O2 0.130512 0.797113 0.828554
O O3 0.012787 0.779593 0.809580
O O4 0.075286 0.728072 0.000000
O O5 0.518490 0.577125 0.820503
O O6 0.620903 0.574063 0.731683
O O7 0.602227 0.562512 0.000000
O O8 0.640972 0.905484 0.500000
O O9 0.593616 0.898484 0.244803
O O10 0.633101 0.993865 0.327926
O O11 0.920406 0.655146 0.500000
O O12 0.928504 0.709738 0.258172
O O13 0.812520 0.098971 0.222745
O O14 0.751156 0.066143 0.000000
O O15 0.887298 0.871176 0.000000
#
# Coordination Sequence:
#
# PCOD8303782 Si02
#       6
#    16  16  16  16  16  16
#     4   9  18  33  52  75 106 141 176 218 265 310
#     4   9  18  30  42  61  93 131 170 217 272 321
#     4  10  21  37  58  83 109 137 169 206 252 308
#     4  10  21  37  58  83 109 137 169 206 252 308
#     4   9  18  33  52  75 106 141 176 218 265 310
#     4  10  19  31  50  75 100 133 179 223 264 310
#
# _framework density 18.508896
#
# number of rings (size 3 to 8) (size 9 to 14) (size 15 to 20)
#    0.000    2.500    0.000    2.500    0.000    5.667 
#    0.000    6.667    0.000    0.000    0.000    0.000 
#    0.000    0.000    0.000    0.000    0.000    0.000 
#
# Total GULP energy -594756.359194 kJ/mol
# GULP energy per Si atom -12390.757483 kJ/mol
# Density = 1.846677 g / cm^3
# Si number density = 18.508896 Si / 1000 Ang^3
#
#
#
# Elastic Constant Matrix: (Units=GPa)
#
#
# Indices 1 2 3 4 5 6 
#
# 1 54.5184 45.0222 41.0882 0.0000 0.0000 -0.5308
# 2 45.0222 54.5184 41.0882 0.0000 0.0000 0.5308
# 3 41.0882 41.0882 90.7358 0.0000 0.0000 0.0000
# 4 0.0000 0.0000 0.0000 15.5937 0.0000 0.0000
# 5 0.0000 0.0000 0.0000 0.0000 15.5937 0.0000
# 6 -0.5308 0.5308 0.0000 0.0000 0.0000 32.9425
#
#
#
# Elastic Compliance Matrix: (Units=1/GPa)
#
#
# Indices 1 2 3 4 5 6 
#
# 1 0.060770 -0.044726 -0.007265 0.000000 0.000000 0.001700
# 2 -0.044726 0.060770 -0.007265 0.000000 0.000000 -0.001700
# 3 -0.007265 -0.007265 0.017601 0.000000 0.000000 0.000000
# 4 0.000000 0.000000 0.000000 0.064128 0.000000 0.000000
# 5 0.000000 0.000000 0.000000 0.000000 0.064128 0.000000
# 6 0.001700 -0.001700 0.000000 0.000000 0.000000 0.030411
#
#
# Mechanical properties :
#
#
# Convention : Reuss Voigt Hill
#
# Bulk Modulus (GPa) = 48.47799 50.46329 49.47064
# Shear Modulus (GPa) = 11.81484 17.66426 14.73955
#
# Velocity S-wave (km/s) = 2.52927 3.09263 2.82503
# Velocity P-wave (km/s) = 5.89730 6.33056 6.11777
#
# Compressibility (1/GPa) = 0.02062792
#
# Stress axis : x y z
#
# Youngs Moduli (GPa) = 16.45554 16.45554 56.81521
#
# Poissons Ratio (x) = 0.73599 0.41278
# Poissons Ratio (y) = 0.73599 0.41278
# Poissons Ratio (z) = 0.11955 0.11955
#
# Static dielectric constant tensor:
#      x y z
#    x 3.500220 0.000000 0.000000 
#    y 0.000000 3.500220 0.000000 
#    z 0.000000 0.000000 3.529760 
# 
# 
# High freq. dielectric constant tensor:
#      x y z
#    x 1.705940 0.000000 0.000000 
#    y 0.000000 1.705940 0.000000 
#    z 0.000000 0.000000 1.725970 
# 
# From -- ./inp_files/1321.got.cif
#   From: 2010.03.12/outbox.cif.g09.slc.cpg/sg87_1_cif.got.tgz:1321.got - 2010.04.08 20:16:13.
