data_PCOD8303710
_publ_section_title
;
Structure prediction by ZEFSAII (Michael W. Deem and Ramdas Pophale) SiO2 
 PCOD8303710
Probable space group: P 42/N
;
_chemical_formula_sum "Si O2"
_cell_formula_units_Z 40
_cell_length_a 9.383361
_cell_length_b 9.383361
_cell_length_c 21.974138
_cell_angle_alpha 90.000000
_cell_angle_beta 90.000000
_cell_angle_gamma 90.000000
_cell_volume 1934.767117
_symmetry_space_group_name_H-M "P 42/N"
_symmetry_group_IT_number 86
_space_group.IT_coordinate_system_code '2'
_symmetry_cell_setting 'tetragonal'
loop_
_space_group_symop_operation_xyz
x,y,z
-y,1/2+x,1/2+z
1/2-x,1/2-y,z
1/2+y,-x,1/2+z
-x,-y,-z
y,1/2-x,1/2-z
1/2+x,1/2+y,-z
1/2-y,x,1/2-z
loop_
_atom_site_type_symbol
_atom_site_label
_atom_site_fract_x
_atom_site_fract_y
_atom_site_fract_z
Si Si1 0.391806 0.660227 0.939535
Si Si2 0.488770 0.149070 0.838431
Si Si3 0.750000 0.750000 0.750000
Si Si4 0.250000 0.250000 0.750000
Si Si5 0.750000 0.250000 0.263934
Si Si6 0.666162 0.484572 0.672434
Si Si7 0.830148 0.604905 0.449856
O O1 0.250000 0.750000 0.953565
O O2 0.461566 0.708416 0.876115
O O3 0.356557 0.493108 0.933904
O O4 0.503763 0.686151 0.992633
O O5 0.361827 0.167799 0.791228
O O6 0.639495 0.168671 0.806411
O O7 0.475501 0.259825 0.893230
O O8 0.481866 0.986047 0.862108
O O9 0.683227 0.633109 0.706147
O O10 0.638905 0.165948 0.222416
O O11 0.750000 0.750000 0.465346
#
# Coordination Sequence:
#
# PCOD8303710 Si02
#       7
#     8   8   2   2   4   8   8
#     4  11  27  48  72 100 139 180 233 292 346 412
#     4  12  26  43  71 100 140 179 230 278 346 412
#     4  12  28  44  66 104 144 184 224 282 352 416
#     4  12  24  40  66 104 132 176 216 282 332 416
#     4  12  26  42  66 104 138 180 220 282 338 418
#     4  12  26  45  69 102 140 183 226 284 348 413
#     4  11  27  48  72 102 133 184 236 285 347 415
#
# _framework density 20.674320999999999
#
# number of rings (size 3 to 8) (size 9 to 14) (size 15 to 20)
#    0.000    0.400    6.000    1.200    8.400    3.200 
#    0.000    0.000    0.000    0.000    0.000    0.000 
#    0.000    0.000    0.000    0.000    0.000    0.000 
#
# Total GULP energy -496250.035838 kJ/mol
# GULP energy per Si atom -12406.250896 kJ/mol
# Density = 2.062727 g / cm^3
# Si number density = 20.674321 Si / 1000 Ang^3
#
#
#
# Elastic Constant Matrix: (Units=GPa)
#
#
# Indices 1 2 3 4 5 6 
#
# 1 149.6431 53.4185 50.3156 0.0000 0.0000 0.3239
# 2 53.4185 149.6431 50.3156 0.0000 0.0000 -0.3239
# 3 50.3156 50.3156 96.7532 0.0000 0.0000 0.0000
# 4 0.0000 0.0000 0.0000 31.6805 0.0000 0.0000
# 5 0.0000 0.0000 0.0000 0.0000 31.6805 0.0000
# 6 0.3239 -0.3239 0.0000 0.0000 0.0000 31.2207
#
#
#
# Elastic Compliance Matrix: (Units=1/GPa)
#
#
# Indices 1 2 3 4 5 6 
#
# 1 0.008514 -0.001879 -0.003450 0.000000 0.000000 -0.000108
# 2 -0.001879 0.008514 -0.003450 0.000000 0.000000 0.000108
# 3 -0.003450 -0.003450 0.013924 0.000000 0.000000 0.000000
# 4 0.000000 0.000000 0.000000 0.031565 0.000000 0.000000
# 5 0.000000 0.000000 0.000000 0.000000 0.031565 0.000000
# 6 -0.000108 0.000108 0.000000 0.000000 0.000000 0.032032
#
#
# Mechanical properties :
#
#
# Convention : Reuss Voigt Hill
#
# Bulk Modulus (GPa) = 74.67035 78.23763 76.45399
# Shear Modulus (GPa) = 33.75240 35.04896 34.40068
#
# Velocity S-wave (km/s) = 4.04490 4.12186 4.08356
# Velocity P-wave (km/s) = 7.61648 7.78319 7.70028
#
# Compressibility (1/GPa) = 0.01339220
#
# Stress axis : x y z
#
# Youngs Moduli (GPa) = 117.45708 117.45708 71.81826
#
# Poissons Ratio (x) = 0.22074 0.24778
# Poissons Ratio (y) = 0.22074 0.24778
# Poissons Ratio (z) = 0.40525 0.40525
#
# Static dielectric constant tensor:
#      x y z
#    x 3.660710 0.000000 0.000000 
#    y 0.000000 3.660710 0.000000 
#    z 0.000000 0.000000 3.770220 
# 
# 
# High freq. dielectric constant tensor:
#      x y z
#    x 1.826850 0.000000 0.000000 
#    y 0.000000 1.826850 0.000000 
#    z 0.000000 0.000000 1.810020 
# 
# From -- ./inp_files/4865.got.cif
#   From: 2010.03.12/outbox.cif.g09.slc.cpg/sg86_3_cif.got.tgz:4865.got - 2010.04.08 20:12:58.
