data_PCOD8303287
_publ_section_title
;
Structure prediction by ZEFSAII (Michael W. Deem and Ramdas Pophale) SiO2 
 PCOD8303287
Probable space group: P 42/M
;
_chemical_formula_sum "Si O2"
_cell_formula_units_Z 48
_cell_length_a 9.491726
_cell_length_b 9.491726
_cell_length_c 26.673443
_cell_angle_alpha 90.000000
_cell_angle_beta 90.000000
_cell_angle_gamma 90.000000
_cell_volume 2403.086832
_symmetry_space_group_name_H-M "P 42/M"
_symmetry_group_IT_number 84
_symmetry_cell_setting 'tetragonal'
loop_
_space_group_symop_operation_xyz
x,y,z
-y,x,1/2+z
-x,-y,z
y,-x,1/2+z
-x,-y,-z
y,-x,1/2-z
x,y,-z
-y,x,1/2-z
loop_
_atom_site_type_symbol
_atom_site_label
_atom_site_fract_x
_atom_site_fract_y
_atom_site_fract_z
Si Si1 0.846925 0.468459 0.411196
Si Si2 0.862897 0.228548 0.663411
Si Si3 0.646811 0.083118 0.500000
Si Si4 0.350541 0.320609 0.251971
Si Si5 0.989972 0.160575 0.091692
Si Si6 0.175946 0.269461 0.655193
Si Si7 0.644093 0.418002 0.500000
O O1 0.847665 0.313925 0.388112
O O2 0.814187 0.572657 0.365405
O O3 0.726903 0.474015 0.452134
O O4 0.000000 0.500000 0.435594
O O5 0.757367 0.278017 0.705878
O O6 0.824807 0.071993 0.644841
O O7 0.024876 0.240484 0.681890
O O8 0.733432 0.041606 0.549272
O O9 0.620071 0.250421 0.500000
O O10 0.500000 0.000000 0.500000
O O11 0.302927 0.482515 0.249941
O O12 0.296626 0.250132 0.303273
O O13 0.830756 0.200152 0.107076
O O14 0.000000 0.000000 0.071188
O O15 0.500000 0.500000 0.500000
#
# Coordination Sequence:
#
# PCOD8303287 Si02
#       7
#     8   8   4   8   8   8   4
#     4  10  21  43  69  92 126 165 215 262 314 380
#     4  10  21  42  63  90 124 164 212 263 313 377
#     4  12  27  44  64  96 134 168 213 262 322 380
#     4  11  24  39  59  89 127 170 206 255 321 380
#     4  10  23  45  68  92 125 169 210 267 320 376
#     4  10  23  40  65  94 122 160 214 261 317 380
#     4  12  27  42  66  98 130 172 211 260 316 380
#
# _framework density 19.974311
#
# number of rings (size 3 to 8) (size 9 to 14) (size 15 to 20)
#    0.000    1.500    3.333    0.500    4.667    2.667 
#    0.000    0.000    0.000    0.000    0.000    0.000 
#    0.000    0.000    0.000    0.000    0.000    0.000 
#
# Total GULP energy -595249.295678 kJ/mol
# GULP energy per Si atom -12401.026993 kJ/mol
# Density = 1.992885 g / cm^3
# Si number density = 19.974311 Si / 1000 Ang^3
#
#
#
# Elastic Constant Matrix: (Units=GPa)
#
#
# Indices 1 2 3 4 5 6 
#
# 1 95.7888 47.0732 46.3496 0.0000 0.0000 -0.2478
# 2 47.0732 95.7888 46.3496 0.0000 0.0000 0.2478
# 3 46.3496 46.3496 87.3488 0.0000 0.0000 0.0000
# 4 0.0000 0.0000 0.0000 15.7433 0.0000 0.0000
# 5 0.0000 0.0000 0.0000 0.0000 15.7433 0.0000
# 6 -0.2478 0.2478 0.0000 0.0000 0.0000 31.1088
#
#
#
# Elastic Compliance Matrix: (Units=1/GPa)
#
#
# Indices 1 2 3 4 5 6 
#
# 1 0.015602 -0.004927 -0.005665 0.000000 0.000000 0.000164
# 2 -0.004927 0.015602 -0.005665 0.000000 0.000000 -0.000164
# 3 -0.005665 -0.005665 0.017460 0.000000 0.000000 0.000000
# 4 0.000000 0.000000 0.000000 0.063519 0.000000 0.000000
# 5 0.000000 0.000000 0.000000 0.000000 0.063519 0.000000
# 6 0.000164 -0.000164 0.000000 0.000000 0.000000 0.032148
#
#
# Mechanical properties :
#
#
# Convention : Reuss Voigt Hill
#
# Bulk Modulus (GPa) = 61.91120 62.05239 61.98180
# Shear Modulus (GPa) = 20.34614 21.79599 21.07106
#
# Velocity S-wave (km/s) = 3.19504 3.30692 3.25146
# Velocity P-wave (km/s) = 6.68384 6.76125 6.72266
#
# Compressibility (1/GPa) = 0.01615217
#
# Stress axis : x y z
#
# Youngs Moduli (GPa) = 64.09358 64.09358 57.27380
#
# Poissons Ratio (x) = 0.31578 0.32444
# Poissons Ratio (y) = 0.31578 0.32444
# Poissons Ratio (z) = 0.36307 0.36307
#
# Static dielectric constant tensor:
#      x y z
#    x 3.749190 0.000000 0.000000 
#    y 0.000000 3.749190 0.000000 
#    z 0.000000 0.000000 3.368330 
# 
# 
# High freq. dielectric constant tensor:
#      x y z
#    x 1.787980 0.000000 0.000000 
#    y 0.000000 1.787980 0.000000 
#    z 0.000000 0.000000 1.772400 
# 
# From -- ./inp_files/5870.got.cif
#   From: 2010.03.12/outbox.cif.g09.slc.cpg/sg84_3_cif.got.tgz:5870.got - 2010.04.08 20:07:29.
