data_PCOD8303651
_publ_section_title
;
Structure prediction by ZEFSAII (Michael W. Deem and Ramdas Pophale) SiO2 
 PCOD8303651
Probable space group: P 42/N
;
_chemical_formula_sum "Si O2"
_cell_formula_units_Z 50
_cell_length_a 8.467475
_cell_length_b 8.467475
_cell_length_c 31.130207
_cell_angle_alpha 90.000000
_cell_angle_beta 90.000000
_cell_angle_gamma 90.000000
_cell_volume 2231.977718
_symmetry_space_group_name_H-M "P 42/N"
_symmetry_group_IT_number 86
_space_group.IT_coordinate_system_code '2'
_symmetry_cell_setting 'tetragonal'
loop_
_space_group_symop_operation_xyz
x,y,z
-y,1/2+x,1/2+z
1/2-x,1/2-y,z
1/2+y,-x,1/2+z
-x,-y,-z
y,1/2-x,1/2-z
1/2+x,1/2+y,-z
1/2-y,x,1/2-z
loop_
_atom_site_type_symbol
_atom_site_label
_atom_site_fract_x
_atom_site_fract_y
_atom_site_fract_z
Si Si1 0.250000 0.250000 0.093650
Si Si2 0.250000 0.750000 0.584975
Si Si3 0.980106 0.448967 0.362800
Si Si4 0.462574 0.517876 0.297191
Si Si5 0.920737 0.204290 0.617534
Si Si6 0.009042 0.039471 0.450559
Si Si7 0.250000 0.250000 0.250000
Si Si8 0.203591 0.581674 0.718010
O O1 0.342667 0.370678 0.124354
O O2 0.119115 0.325861 0.062768
O O3 0.174802 0.613433 0.613619
O O4 0.376102 0.669932 0.554546
O O5 0.951250 0.422702 0.312234
O O6 0.988179 0.635426 0.371409
O O7 0.391815 0.591080 0.340935
O O8 0.347817 0.377320 0.279463
O O9 0.502271 0.652894 0.261970
O O10 0.642015 0.471300 0.308583
O O11 0.750000 0.250000 0.599144
O O12 0.015596 0.113604 0.579858
O O13 0.000000 0.000000 0.500000
O O14 0.250000 0.750000 0.736243
#
# Coordination Sequence:
#
# PCOD8303651 Si02
#       8
#     4   4   8   8   8   8   2   8
#     4  10  24  47  76 107 144 196 242 299 370 463
#     4  10  24  44  72 106 140 190 242 294 372 444
#     4  11  24  45  74 104 147 190 240 304 365 443
#     4  12  28  45  69 105 140 198 245 303 369 429
#     4  12  27  45  73 107 145 188 247 306 375 437
#     4  11  26  46  74 107 145 189 245 306 375 447
#     4  12  28  46  80 100 148 204 260 304 352 450
#     4  12  25  43  68 102 145 186 249 300 354 429
#
# _framework density 22.40166
#
# number of rings (size 3 to 8) (size 9 to 14) (size 15 to 20)
#    0.000    0.640    4.000    2.400    5.600    6.720 
#    0.000    3.200    0.000    0.000    0.000    0.000 
#    0.000    0.000    0.000    0.000    0.000    0.000 
#
# Total GULP energy -619763.983000 kJ/mol
# GULP energy per Si atom -12395.279660 kJ/mol
# Density = 2.235067 g / cm^3
# Si number density = 22.401660 Si / 1000 Ang^3
#
#
#
# Elastic Constant Matrix: (Units=GPa)
#
#
# Indices 1 2 3 4 5 6 
#
# 1 112.1504 33.3833 42.6598 0.0000 0.0000 -3.7161
# 2 33.3833 112.1504 42.6598 0.0000 0.0000 3.7161
# 3 42.6598 42.6598 154.1244 0.0000 0.0000 0.0000
# 4 0.0000 0.0000 0.0000 36.5542 0.0000 0.0000
# 5 0.0000 0.0000 0.0000 0.0000 36.5542 0.0000
# 6 -3.7161 3.7161 0.0000 0.0000 0.0000 37.3312
#
#
#
# Elastic Compliance Matrix: (Units=1/GPa)
#
#
# Indices 1 2 3 4 5 6 
#
# 1 0.010509 -0.002307 -0.002270 0.000000 0.000000 0.001276
# 2 -0.002307 0.010509 -0.002270 0.000000 0.000000 -0.001276
# 3 -0.002270 -0.002270 0.007745 0.000000 0.000000 0.000000
# 4 0.000000 0.000000 0.000000 0.027357 0.000000 0.000000
# 5 0.000000 0.000000 0.000000 0.000000 0.027357 0.000000
# 6 0.001276 -0.001276 0.000000 0.000000 0.000000 0.027041
#
#
# Mechanical properties :
#
#
# Convention : Reuss Voigt Hill
#
# Bulk Modulus (GPa) = 66.36422 68.42569 67.39496
# Shear Modulus (GPa) = 38.68906 39.40274 39.04590
#
# Velocity S-wave (km/s) = 4.16030 4.19850 4.17944
# Velocity P-wave (km/s) = 7.26405 7.35625 7.31030
#
# Compressibility (1/GPa) = 0.01506836
#
# Stress axis : x y z
#
# Youngs Moduli (GPa) = 95.15544 95.15544 129.11498
#
# Poissons Ratio (x) = 0.21951 0.29313
# Poissons Ratio (y) = 0.21951 0.29313
# Poissons Ratio (z) = 0.21603 0.21603
#
# Static dielectric constant tensor:
#      x y z
#    x 4.304610 0.000000 0.000000 
#    y 0.000000 4.304610 0.000000 
#    z 0.000000 0.000000 3.866860 
# 
# 
# High freq. dielectric constant tensor:
#      x y z
#    x 1.896360 0.000000 0.000000 
#    y 0.000000 1.896360 0.000000 
#    z 0.000000 0.000000 1.869560 
# 
# From -- ./inp_files/5284.got.cif
#   From: 2010.03.12/outbox.cif.g09.slc.cpg/sg86_3_cif.got.tgz:5284.got - 2010.04.08 20:12:58.
