data_PCOD8303936
_publ_section_title
;
Structure prediction by ZEFSAII (Michael W. Deem and Ramdas Pophale) SiO2 
 PCOD8303936
Probable space group: I 4/M
;
_chemical_formula_sum "Si O2"
_cell_formula_units_Z 64
_cell_length_a 14.111505
_cell_length_b 14.111505
_cell_length_c 14.936194
_cell_angle_alpha 90.000000
_cell_angle_beta 90.000000
_cell_angle_gamma 90.000000
_cell_volume 2974.312620
_symmetry_space_group_name_H-M "I 4/M"
_symmetry_group_IT_number 87
_symmetry_cell_setting 'tetragonal'
loop_
_space_group_symop_operation_xyz
x,y,z
-y,x,z
-x,-y,z
y,-x,z
-x,-y,-z
y,-x,-z
x,y,-z
-y,x,-z
1/2+x,1/2+y,1/2+z
1/2-y,1/2+x,1/2+z
1/2-x,1/2-y,1/2+z
1/2+y,1/2-x,1/2+z
1/2-x,1/2-y,1/2-z
1/2+y,1/2-x,1/2-z
1/2+x,1/2+y,1/2-z
1/2-y,1/2+x,1/2-z
loop_
_atom_site_type_symbol
_atom_site_label
_atom_site_fract_x
_atom_site_fract_y
_atom_site_fract_z
Si Si1 0.065422 0.863027 0.718943
Si Si2 0.196022 0.714043 0.338762
Si Si3 0.108945 0.773443 0.097003
Si Si4 0.524076 0.894567 0.603823
O O1 0.104643 0.781762 0.652718
O O2 0.075880 0.843573 0.825088
O O3 0.956205 0.874877 0.696065
O O4 0.250000 0.750000 0.250000
O O5 0.276405 0.727047 0.413926
O O6 0.155210 0.607163 0.337991
O O7 0.070465 0.667774 0.117359
O O8 0.068656 0.807312 0.000000
O O9 0.556613 0.899251 0.500000
O O10 0.500000 0.000000 0.639634
#
# Coordination Sequence:
#
# PCOD8303936 Si02
#       4
#    16  16  16  16
#     4  10  22  38  57  84 120 161 204 249 303 373
#     4  10  21  37  58  87 126 162 200 249 310 373
#     4  10  20  37  62  88 118 156 198 255 316 368
#     4  10  22  40  63  93 124 161 213 263 313 376
#
# _framework density 21.517578
#
# number of rings (size 3 to 8) (size 9 to 14) (size 15 to 20)
#    0.000    2.000    0.000    3.750    3.500    3.000 
#    4.500    1.250    0.000    0.000    0.000    7.000 
#    0.000    0.000    0.000    0.000    0.000    0.000 
#
# Total GULP energy -396519.259725 kJ/mol
# GULP energy per Si atom -12391.226866 kJ/mol
# Density = 2.146860 g / cm^3
# Si number density = 21.517578 Si / 1000 Ang^3
#
#
#
# Elastic Constant Matrix: (Units=GPa)
#
#
# Indices 1 2 3 4 5 6 
#
# 1 106.3037 92.8145 10.9411 0.0000 0.0000 22.8599
# 2 92.8145 106.3037 10.9411 0.0000 0.0000 -22.8599
# 3 10.9411 10.9411 28.4077 0.0000 0.0000 0.0000
# 4 0.0000 0.0000 0.0000 25.1747 0.0000 0.0000
# 5 0.0000 0.0000 0.0000 0.0000 25.1748 0.0000
# 6 22.8599 -22.8599 0.0000 0.0000 0.0000 33.8713
#
#
#
# Elastic Compliance Matrix: (Units=1/GPa)
#
#
# Indices 1 2 3 4 5 6 
#
# 1 -0.026168 0.031412 -0.002020 0.000000 0.000000 0.038861
# 2 0.031412 -0.026168 -0.002020 0.000000 0.000000 -0.038861
# 3 -0.002020 -0.002020 0.036758 0.000000 0.000000 0.000000
# 4 0.000000 0.000000 0.000000 0.039722 0.000000 0.000000
# 5 0.000000 0.000000 0.000000 0.000000 0.039722 0.000000
# 6 0.038861 -0.038861 0.000000 0.000000 0.000000 -0.022931
#
#
# Mechanical properties :
#
#
# Convention : Reuss Voigt Hill
#
# Bulk Modulus (GPa) = 25.53188 52.26763 38.89976
# Shear Modulus (GPa) = -6643.97006 25.26538 -3309.35234
#
# Velocity S-wave (km/s) = -55.62731 3.43034 -39.25959
# Velocity P-wave (km/s) = 64.14025 6.32717 45.13280
#
# Compressibility (1/GPa) = 0.03916672
#
# Stress axis : x y z
#
# Youngs Moduli (GPa) = -38.21526 -38.21526 27.20533
#
# Poissons Ratio (x) = 1.20040 0.05495
# Poissons Ratio (y) = 1.20040 0.05495
# Poissons Ratio (z) = -0.07718 -0.07719
#
# Static dielectric constant tensor:
#      x y z
#    x 4.171710 0.000000 0.000000 
#    y 0.000000 4.171710 0.000000 
#    z 0.000000 0.000000 3.869280 
# 
# 
# High freq. dielectric constant tensor:
#      x y z
#    x 1.850500 0.000000 0.000000 
#    y 0.000000 1.850500 0.000000 
#    z 0.000000 0.000000 1.819420 
# 
# From -- ./inp_files/3349.got.cif
#   From: 2010.03.12/outbox.cif.g09.slc.cpg/sg87_2_cif.got.tgz:3349.got - 2010.04.08 20:16:13.
