data_PCOD8303003
_publ_section_title
;
Structure prediction by ZEFSAII (Michael W. Deem and Ramdas Pophale) SiO2 
 PCOD8303003
Probable space group: P 4/M
;
_chemical_formula_sum "Si O2"
_cell_formula_units_Z 56
_cell_length_a 10.946046
_cell_length_b 10.946046
_cell_length_c 21.412633
_cell_angle_alpha 90.000000
_cell_angle_beta 90.000000
_cell_angle_gamma 90.000000
_cell_volume 2565.574387
_symmetry_space_group_name_H-M "P 4/M"
_symmetry_group_IT_number 83
_symmetry_cell_setting 'tetragonal'
loop_
_space_group_symop_operation_xyz
x,y,z
-y,x,z
-x,-y,z
y,-x,z
-x,-y,-z
y,-x,-z
x,y,-z
-y,x,-z
loop_
_atom_site_type_symbol
_atom_site_label
_atom_site_fract_x
_atom_site_fract_y
_atom_site_fract_z
Si Si1 0.804667 0.558535 0.069627
Si Si2 0.595944 0.323870 0.431912
Si Si3 0.355735 0.033724 0.294926
Si Si4 0.065823 0.681635 0.932008
Si Si5 0.964442 0.191545 0.188558
Si Si6 0.778475 0.721246 0.315626
Si Si7 0.399033 0.672718 0.805890
O O1 0.827278 0.415393 0.084810
O O2 0.724867 0.623420 0.123991
O O3 0.935420 0.619265 0.068253
O O4 0.743684 0.573251 0.000000
O O5 0.662642 0.452107 0.426552
O O6 0.628111 0.264870 0.500000
O O7 0.633423 0.242083 0.374088
O O8 0.323190 0.054504 0.221498
O O9 0.266071 0.925735 0.319049
O O10 0.500000 0.000000 0.304086
O O11 0.304479 0.157759 0.327154
O O12 0.060867 0.793536 0.884465
O O13 0.094866 0.737690 0.000000
O O14 0.860202 0.096212 0.208988
O O15 0.756274 0.653271 0.249375
O O16 0.335076 0.543507 0.797130
#
# Coordination Sequence:
#
# PCOD8303003 Si02
#       7
#     8   8   8   8   8   8   8
#     4   9  20  37  57  83 116 158 207 262 333 410
#     4   9  18  37  68 103 142 184 225 280 342 396
#     4  12  26  42  68  96 132 180 221 276 342 396
#     4   9  20  37  58  83 113 154 208 268 327 403
#     4  11  24  41  60  88 125 164 213 275 338 395
#     4  12  25  43  65  99 136 176 230 277 330 405
#     4  11  24  39  58  88 125 162 209 278 342 403
#
# _framework density 21.827470999999999
#
# number of rings (size 3 to 8) (size 9 to 14) (size 15 to 20)
#    0.000    1.571    1.429    4.714    6.000    2.571 
#    0.000    5.000    0.000    2.571    0.000    1.000 
#    0.000    0.000    0.000    0.000    0.000    0.000 
#
# Total GULP energy -693734.175050 kJ/mol
# GULP energy per Si atom -12388.110269 kJ/mol
# Density = 2.177779 g / cm^3
# Si number density = 21.827471 Si / 1000 Ang^3
#
#
#
# Elastic Constant Matrix: (Units=GPa)
#
#
# Indices 1 2 3 4 5 6 
#
# 1 76.2661 13.9278 20.8070 0.0000 0.0000 -1.8703
# 2 13.9278 76.2661 20.8070 0.0000 0.0000 1.8703
# 3 20.8070 20.8070 114.1115 0.0000 0.0000 0.0000
# 4 0.0000 0.0000 0.0000 23.3219 0.0000 0.0000
# 5 0.0000 0.0000 0.0000 0.0000 23.3219 0.0000
# 6 -1.8703 1.8703 0.0000 0.0000 0.0000 25.6121
#
#
#
# Elastic Compliance Matrix: (Units=1/GPa)
#
#
# Indices 1 2 3 4 5 6 
#
# 1 0.014109 -0.002003 -0.002207 0.000000 0.000000 0.001177
# 2 -0.002003 0.014109 -0.002207 0.000000 0.000000 -0.001177
# 3 -0.002207 -0.002207 0.009568 0.000000 0.000000 0.000000
# 4 0.000000 0.000000 0.000000 0.042878 0.000000 0.000000
# 5 0.000000 0.000000 0.000000 0.000000 0.042878 0.000000
# 6 0.001177 -0.001177 0.000000 0.000000 0.000000 0.039216
#
#
# Mechanical properties :
#
#
# Convention : Reuss Voigt Hill
#
# Bulk Modulus (GPa) = 40.07966 41.96967 41.02466
# Shear Modulus (GPa) = 27.18709 28.52464 27.85587
#
# Velocity S-wave (km/s) = 3.53306 3.61892 3.57625
# Velocity P-wave (km/s) = 5.91990 6.06068 5.99070
#
# Compressibility (1/GPa) = 0.02495031
#
# Stress axis : x y z
#
# Youngs Moduli (GPa) = 70.87733 70.87733 104.51149
#
# Poissons Ratio (x) = 0.14198 0.23069
# Poissons Ratio (y) = 0.14198 0.23069
# Poissons Ratio (z) = 0.15645 0.15645
#
# Static dielectric constant tensor:
#      x y z
#    x 3.953190 0.000000 0.000000 
#    y 0.000000 3.953190 0.000000 
#    z 0.000000 0.000000 4.221290 
# 
# 
# High freq. dielectric constant tensor:
#      x y z
#    x 1.854260 0.000000 0.000000 
#    y 0.000000 1.854260 0.000000 
#    z 0.000000 0.000000 1.843340 
# 
# From -- ./inp_files/2987.got.cif
#   From: 2010.03.12/outbox.cif.g09.slc.cpg/sg83_2_cif.got.tgz:2987.got - 2010.04.08 20:05:18.
