data_PCOD8303258
_publ_section_title
;
Structure prediction by ZEFSAII (Michael W. Deem and Ramdas Pophale) SiO2 
 PCOD8303258
Probable space group: P 42/M
;
_chemical_formula_sum "Si O2"
_cell_formula_units_Z 58
_cell_length_a 17.860331
_cell_length_b 17.860331
_cell_length_c 9.615712
_cell_angle_alpha 90.000000
_cell_angle_beta 90.000000
_cell_angle_gamma 90.000000
_cell_volume 3067.329658
_symmetry_space_group_name_H-M "P 42/M"
_symmetry_group_IT_number 84
_symmetry_cell_setting 'tetragonal'
loop_
_space_group_symop_operation_xyz
x,y,z
-y,x,1/2+z
-x,-y,z
y,-x,1/2+z
-x,-y,-z
y,-x,1/2-z
x,y,-z
-y,x,1/2-z
loop_
_atom_site_type_symbol
_atom_site_label
_atom_site_fract_x
_atom_site_fract_y
_atom_site_fract_z
Si Si1 0.672221 0.274090 0.840984
Si Si2 0.222023 0.857379 0.152731
Si Si3 0.691854 0.913052 0.162148
Si Si4 0.861569 0.912858 0.156648
Si Si5 0.385824 0.209369 0.341184
Si Si6 0.936881 0.624787 0.344716
Si Si7 0.442868 0.809641 0.334927
Si Si8 0.000000 0.000000 0.250000
O O1 0.742976 0.221937 0.802037
O O2 0.703815 0.358435 0.825371
O O3 0.604718 0.257332 0.735210
O O4 0.645680 0.256945 0.000000
O O5 0.158642 0.886673 0.255144
O O6 0.288302 0.916662 0.151242
O O7 0.185262 0.851438 0.000000
O O8 0.777310 0.937530 0.203184
O O9 0.666899 0.841123 0.246944
O O10 0.629256 0.976208 0.198646
O O11 0.688243 0.893571 0.000000
O O12 0.924269 0.978518 0.165967
O O13 0.858897 0.884641 0.000000
O O14 0.376342 0.182428 0.500000
O O15 0.471804 0.206766 0.296268
O O16 0.925884 0.589804 0.500000
O O17 0.889636 0.578731 0.231867
O O18 0.427962 0.811639 0.500000
#
# Coordination Sequence:
#
# PCOD8303258 Si02
#       8
#     8   8   8   8   8   8   8   2
#     4   9  18  36  59  81 110 147 178 211 266 331
#     4   9  17  33  58  78 101 140 182 224 275 329
#     4  10  21  36  56  80 107 142 187 236 274 323
#     4  11  23  38  54  76 102 137 188 241 280 320
#     4  10  21  38  58  83 114 146 178 218 273 327
#     4   9  19  36  53  75 112 151 182 218 277 335
#     4  10  21  35  56  86 114 140 179 227 266 312
#     4  12  26  40  52  70 110 152 184 230 294 340
#
# _framework density 18.908954999999999
#
# number of rings (size 3 to 8) (size 9 to 14) (size 15 to 20)
#    0.000    2.207    1.379    2.276    0.000    7.172 
#    0.000    4.138    0.000    0.414    0.000    2.897 
#    0.000    0.000    0.000    0.000    0.000    0.000 
#
# Total GULP energy -718753.458456 kJ/mol
# GULP energy per Si atom -12392.301008 kJ/mol
# Density = 1.886592 g / cm^3
# Si number density = 18.908955 Si / 1000 Ang^3
#
#
#
# Elastic Constant Matrix: (Units=GPa)
#
#
# Indices 1 2 3 4 5 6 
#
# 1 98.2910 35.3746 46.8389 0.0000 0.0000 -2.7800
# 2 35.3746 98.2910 46.8389 0.0000 0.0000 2.7800
# 3 46.8389 46.8389 82.0617 0.0000 0.0000 0.0000
# 4 0.0000 0.0000 0.0000 14.2869 0.0000 0.0000
# 5 0.0000 0.0000 0.0000 0.0000 14.2869 0.0000
# 6 -2.7800 2.7800 0.0000 0.0000 0.0000 10.5409
#
#
#
# Elastic Compliance Matrix: (Units=1/GPa)
#
#
# Indices 1 2 3 4 5 6 
#
# 1 0.014371 -0.001902 -0.007117 0.000000 0.000000 0.004292
# 2 -0.001902 0.014371 -0.007117 0.000000 0.000000 -0.004292
# 3 -0.007117 -0.007117 0.020311 0.000000 0.000000 0.000000
# 4 0.000000 0.000000 0.000000 0.069994 0.000000 0.000000
# 5 0.000000 0.000000 0.000000 0.000000 0.069994 0.000000
# 6 0.004292 -0.004292 0.000000 0.000000 0.000000 0.097132
#
#
# Mechanical properties :
#
#
# Convention : Reuss Voigt Hill
#
# Bulk Modulus (GPa) = 59.59302 59.63871 59.61587
# Shear Modulus (GPa) = 15.43018 17.79570 16.61294
#
# Velocity S-wave (km/s) = 2.85971 3.07110 2.96729
# Velocity P-wave (km/s) = 6.51829 6.64710 6.58301
#
# Compressibility (1/GPa) = 0.01678049
#
# Stress axis : x y z
#
# Youngs Moduli (GPa) = 69.58275 69.58275 49.23534
#
# Poissons Ratio (x) = 0.13235 0.35042
# Poissons Ratio (y) = 0.13235 0.35042
# Poissons Ratio (z) = 0.49523 0.49523
#
# Static dielectric constant tensor:
#      x y z
#    x 3.427430 0.000000 0.000000 
#    y 0.000000 3.427430 0.000000 
#    z 0.000000 0.000000 3.420440 
# 
# 
# High freq. dielectric constant tensor:
#      x y z
#    x 1.724240 0.000000 0.000000 
#    y 0.000000 1.724240 0.000000 
#    z 0.000000 0.000000 1.731710 
# 
# From -- ./inp_files/1174.got.cif
#   From: 2010.03.12/outbox.cif.g09.slc.cpg/sg84_1_cif.got.tgz:1174.got - 2010.04.08 20:07:29.
