data_PCOD8303334
_publ_section_title
;
Structure prediction by ZEFSAII (Michael W. Deem and Ramdas Pophale) SiO2 
 PCOD8303334
Probable space group: P 42/M
;
_chemical_formula_sum "Si O2"
_cell_formula_units_Z 38
_cell_length_a 9.151450
_cell_length_b 9.151450
_cell_length_c 22.233280
_cell_angle_alpha 90.000000
_cell_angle_beta 90.000000
_cell_angle_gamma 90.000000
_cell_volume 1862.015792
_symmetry_space_group_name_H-M "P 42/M"
_symmetry_group_IT_number 84
_symmetry_cell_setting 'tetragonal'
loop_
_space_group_symop_operation_xyz
x,y,z
-y,x,1/2+z
-x,-y,z
y,-x,1/2+z
-x,-y,-z
y,-x,1/2-z
x,y,-z
-y,x,1/2-z
loop_
_atom_site_type_symbol
_atom_site_label
_atom_site_fract_x
_atom_site_fract_y
_atom_site_fract_z
Si Si1 0.918837 0.799466 0.729141
Si Si2 0.348243 0.073144 0.872189
Si Si3 0.747772 0.961183 0.500000
Si Si4 0.249012 0.377572 0.180116
Si Si5 0.500000 0.000000 0.596385
Si Si6 0.227272 0.028170 0.000000
Si Si7 0.500000 0.500000 0.750000
O O1 0.832416 0.667248 0.758682
O O2 0.055104 0.822131 0.774822
O O3 0.976507 0.772930 0.661943
O O4 0.331711 0.241932 0.852144
O O5 0.328355 0.057594 0.942921
O O6 0.500000 0.000000 0.852652
O O7 0.642892 0.957803 0.442114
O O8 0.858948 0.824358 0.500000
O O9 0.851390 0.101307 0.500000
O O10 0.363864 0.494880 0.204454
O O11 0.141596 0.460968 0.135252
#
# Coordination Sequence:
#
# PCOD8303334 Si02
#       7
#     8   8   4   8   4   4   2
#     4   9  21  37  63  96 126 163 216 273 328 389
#     4  11  23  41  64  96 136 174 219 276 340 397
#     4  10  24  42  67  95 128 171 227 286 330 382
#     4  11  25  41  68  95 138 178 220 271 332 413
#     4  11  24  44  68  96 136 177 222 276 334 399
#     4  11  23  42  67  97 126 171 231 282 328 391
#     4  12  28  44  60 106 140 180 212 256 350 408
#
# _framework density 20.407990999999999
#
# number of rings (size 3 to 8) (size 9 to 14) (size 15 to 20)
#    0.000    1.474    2.105    1.579   10.316    3.368 
#    0.000    0.000    0.000    3.158    0.000    0.000 
#    0.000    0.000    0.000    0.000    0.000    0.000 
#
# Total GULP energy -471137.991142 kJ/mol
# GULP energy per Si atom -12398.368188 kJ/mol
# Density = 2.036154 g / cm^3
# Si number density = 20.407991 Si / 1000 Ang^3
#
#
#
# Elastic Constant Matrix: (Units=GPa)
#
#
# Indices 1 2 3 4 5 6 
#
# 1 100.5600 45.8419 40.9486 0.0000 0.0000 -0.1237
# 2 45.8419 100.5600 40.9486 0.0000 0.0000 0.1237
# 3 40.9486 40.9486 117.0203 0.0000 0.0000 0.0000
# 4 0.0000 0.0000 0.0000 21.9008 0.0000 0.0000
# 5 0.0000 0.0000 0.0000 0.0000 21.9008 0.0000
# 6 -0.1237 0.1237 0.0000 0.0000 0.0000 41.7349
#
#
#
# Elastic Compliance Matrix: (Units=1/GPa)
#
#
# Indices 1 2 3 4 5 6 
#
# 1 0.013384 -0.004891 -0.002972 0.000000 0.000000 0.000054
# 2 -0.004891 0.013384 -0.002972 0.000000 0.000000 -0.000054
# 3 -0.002972 -0.002972 0.010625 0.000000 0.000000 0.000000
# 4 0.000000 0.000000 0.000000 0.045660 0.000000 0.000000
# 5 0.000000 0.000000 0.000000 0.000000 0.045660 0.000000
# 6 0.000054 -0.000054 0.000000 0.000000 0.000000 0.023961
#
#
# Mechanical properties :
#
#
# Convention : Reuss Voigt Hill
#
# Bulk Modulus (GPa) = 63.59814 63.73537 63.66676
# Shear Modulus (GPa) = 27.84154 29.80072 28.82113
#
# Velocity S-wave (km/s) = 3.69758 3.82546 3.76206
# Velocity P-wave (km/s) = 7.03281 7.12816 7.08065
#
# Compressibility (1/GPa) = 0.01572373
#
# Stress axis : x y z
#
# Youngs Moduli (GPa) = 74.71402 74.71402 94.11372
#
# Poissons Ratio (x) = 0.36545 0.27970
# Poissons Ratio (y) = 0.36545 0.27970
# Poissons Ratio (z) = 0.22205 0.22205
#
# Static dielectric constant tensor:
#      x y z
#    x 3.748160 0.000000 0.000000 
#    y 0.000000 3.748160 0.000000 
#    z 0.000000 0.000000 3.661480 
# 
# 
# High freq. dielectric constant tensor:
#      x y z
#    x 1.801770 0.000000 0.000000 
#    y 0.000000 1.801770 0.000000 
#    z 0.000000 0.000000 1.800320 
# 
# From -- ./inp_files/4925.got.cif
#   From: 2010.03.12/outbox.cif.g09.slc.cpg/sg84_3_cif.got.tgz:4925.got - 2010.04.08 20:07:29.
