data_PCOD8303668
_publ_section_title
;
Structure prediction by ZEFSAII (Michael W. Deem and Ramdas Pophale) SiO2 
 PCOD8303668
Probable space group: P 42/N
;
_chemical_formula_sum "Si O2"
_cell_formula_units_Z 48
_cell_length_a 9.386230
_cell_length_b 9.386230
_cell_length_c 28.135846
_cell_angle_alpha 90.000000
_cell_angle_beta 90.000000
_cell_angle_gamma 90.000000
_cell_volume 2478.804992
_symmetry_space_group_name_H-M "P 42/N"
_symmetry_group_IT_number 86
_space_group.IT_coordinate_system_code '2'
_symmetry_cell_setting 'tetragonal'
loop_
_space_group_symop_operation_xyz
x,y,z
-y,1/2+x,1/2+z
1/2-x,1/2-y,z
1/2+y,-x,1/2+z
-x,-y,-z
y,1/2-x,1/2-z
1/2+x,1/2+y,-z
1/2-y,x,1/2-z
loop_
_atom_site_type_symbol
_atom_site_label
_atom_site_fract_x
_atom_site_fract_y
_atom_site_fract_z
Si Si1 0.903608 0.041604 0.108100
Si Si2 0.080208 0.086782 0.195673
Si Si3 0.003678 0.069630 0.608906
Si Si4 0.228673 0.411392 0.549332
Si Si5 0.422806 0.403052 0.303041
Si Si6 0.920451 0.727645 0.945021
O O1 0.950636 0.924238 0.069886
O O2 0.732010 0.056376 0.108824
O O3 0.965831 0.010369 0.160910
O O4 0.985766 0.180804 0.091295
O O5 0.034788 0.052125 0.249655
O O6 0.240375 0.029895 0.186034
O O7 0.079755 0.255614 0.188437
O O8 0.164897 0.056282 0.591959
O O9 0.003103 0.011040 0.662255
O O10 0.929314 0.962561 0.571734
O O11 0.250000 0.250000 0.534191
O O12 0.249935 0.485721 0.498047
O O13 0.750000 0.750000 0.938768
#
# Coordination Sequence:
#
# PCOD8303668 Si02
#       6
#     8   8   8   8   8   8
#     4  11  21  37  59  84 115 150 191 240 287 338
#     4   9  18  35  58  81 108 146 188 235 286 338
#     4  11  21  37  59  84 115 150 191 240 287 338
#     4   9  22  39  55  81 121 155 187 235 284 345
#     4   9  18  35  58  81 108 146 188 235 286 338
#     4  11  21  37  61  85 113 153 195 231 286 341
#
# _framework density 19.364169
#
# number of rings (size 3 to 8) (size 9 to 14) (size 15 to 20)
#    0.000    2.000    1.667    3.500    0.000    0.000 
#    3.000    8.333    0.000    0.000    0.000    0.000 
#    0.000    0.000    0.000    0.000    0.000    0.000 
#
# Total GULP energy -594843.645112 kJ/mol
# GULP energy per Si atom -12392.575940 kJ/mol
# Density = 1.932010 g / cm^3
# Si number density = 19.364169 Si / 1000 Ang^3
#
#
#
# Elastic Constant Matrix: (Units=GPa)
#
#
# Indices 1 2 3 4 5 6 
#
# 1 57.3216 16.5633 33.0380 0.0000 0.0000 -0.3163
# 2 16.5633 57.3216 33.0380 0.0000 0.0000 0.3163
# 3 33.0380 33.0380 149.5893 0.0000 0.0000 0.0000
# 4 0.0000 0.0000 0.0000 34.1012 0.0000 0.0000
# 5 0.0000 0.0000 0.0000 0.0000 34.1012 0.0000
# 6 -0.3163 0.3163 0.0000 0.0000 0.0000 18.2207
#
#
#
# Elastic Compliance Matrix: (Units=1/GPa)
#
#
# Indices 1 2 3 4 5 6 
#
# 1 0.020704 -0.003838 -0.003725 0.000000 0.000000 0.000426
# 2 -0.003838 0.020704 -0.003725 0.000000 0.000000 -0.000426
# 3 -0.003725 -0.003725 0.008330 0.000000 0.000000 0.000000
# 4 0.000000 0.000000 0.000000 0.029325 0.000000 0.000000
# 5 0.000000 0.000000 0.000000 0.000000 0.029325 0.000000
# 6 0.000426 -0.000426 0.000000 0.000000 0.000000 0.054897
#
#
# Mechanical properties :
#
#
# Convention : Reuss Voigt Hill
#
# Bulk Modulus (GPa) = 36.81590 47.72347 42.26969
# Shear Modulus (GPa) = 25.65240 29.39083 27.52162
#
# Velocity S-wave (km/s) = 3.64364 3.90012 3.77406
# Velocity P-wave (km/s) = 6.06260 6.70671 6.39277
#
# Compressibility (1/GPa) = 0.02716218
#
# Stress axis : x y z
#
# Youngs Moduli (GPa) = 48.30068 48.30068 120.04311
#
# Poissons Ratio (x) = 0.18537 0.44716
# Poissons Ratio (y) = 0.18537 0.44716
# Poissons Ratio (z) = 0.17992 0.17992
#
# Static dielectric constant tensor:
#      x y z
#    x 3.318660 0.000000 0.000000 
#    y 0.000000 3.318660 0.000000 
#    z 0.000000 0.000000 3.818950 
# 
# 
# High freq. dielectric constant tensor:
#      x y z
#    x 1.734930 0.000000 0.000000 
#    y 0.000000 1.734930 0.000000 
#    z 0.000000 0.000000 1.776390 
# 
# From -- ./inp_files/5116.got.cif
#   From: 2010.03.12/outbox.cif.g09.slc.cpg/sg86_3_cif.got.tgz:5116.got - 2010.04.08 20:12:58.
