data_PCOD8303484
_publ_section_title
;
Structure prediction by ZEFSAII (Michael W. Deem and Ramdas Pophale) SiO2 
 PCOD8303484
Probable space group: P 42/N
;
_chemical_formula_sum "Si O2"
_cell_formula_units_Z 38
_cell_length_a 13.659806
_cell_length_b 13.659806
_cell_length_c 10.026204
_cell_angle_alpha 90.000000
_cell_angle_beta 90.000000
_cell_angle_gamma 90.000000
_cell_volume 1870.792412
_symmetry_space_group_name_H-M "P 42/N"
_symmetry_group_IT_number 86
_space_group.IT_coordinate_system_code '2'
_symmetry_cell_setting 'tetragonal'
loop_
_space_group_symop_operation_xyz
x,y,z
-y,1/2+x,1/2+z
1/2-x,1/2-y,z
1/2+y,-x,1/2+z
-x,-y,-z
y,1/2-x,1/2-z
1/2+x,1/2+y,-z
1/2-y,x,1/2-z
loop_
_atom_site_type_symbol
_atom_site_label
_atom_site_fract_x
_atom_site_fract_y
_atom_site_fract_z
Si Si1 0.250000 0.750000 0.271688
Si Si2 0.250000 0.250000 0.750000
Si Si3 0.901531 0.450919 0.544624
Si Si4 0.776048 0.431226 0.080514
Si Si5 0.410934 0.612324 0.664855
Si Si6 0.745000 0.538749 0.344149
O O1 0.325729 0.687470 0.363206
O O2 0.312901 0.820326 0.178654
O O3 0.343588 0.244945 0.849012
O O4 0.913948 0.334538 0.527934
O O5 0.884999 0.476689 0.701677
O O6 0.812920 0.493945 0.459077
O O7 0.000000 0.500000 0.500000
O O8 0.848230 0.469852 0.963594
O O9 0.783247 0.511452 0.196329
O O10 0.365201 0.504399 0.639239
#
# Coordination Sequence:
#
# PCOD8303484 Si02
#       6
#     4   2   8   8   8   8
#     4   8  14  26  50  84 118 136 152 198 278 346
#     4  12  24  44  56  70 104 164 212 218 248 336
#     4  10  20  35  53  79 114 149 180 221 280 337
#     4  10  18  32  57  89 112 134 173 229 286 337
#     4  10  18  32  57  87 112 134 173 234 293 331
#     4  10  21  36  58  78 109 153 189 225 269 333
#
# _framework density 20.312248
#
# number of rings (size 3 to 8) (size 9 to 14) (size 15 to 20)
#    0.000    2.526    0.000    8.211    0.000    0.000 
#    0.000    6.316    0.000    1.263    0.000    0.000 
#    0.000    0.000    0.000    0.000    0.000    0.000 
#
# Total GULP energy -470919.623938 kJ/mol
# GULP energy per Si atom -12392.621683 kJ/mol
# Density = 2.026602 g / cm^3
# Si number density = 20.312248 Si / 1000 Ang^3
#
#
#
# Elastic Constant Matrix: (Units=GPa)
#
#
# Indices 1 2 3 4 5 6 
#
# 1 85.9926 13.0372 28.3899 0.0000 0.0000 -4.8971
# 2 13.0372 85.9926 28.3899 0.0000 0.0000 4.8971
# 3 28.3899 28.3899 118.5414 0.0000 0.0000 0.0000
# 4 0.0000 0.0000 0.0000 13.4591 0.0000 0.0000
# 5 0.0000 0.0000 0.0000 0.0000 13.4591 0.0000
# 6 -4.8971 4.8971 0.0000 0.0000 0.0000 16.4946
#
#
#
# Elastic Compliance Matrix: (Units=1/GPa)
#
#
# Indices 1 2 3 4 5 6 
#
# 1 0.012991 -0.001285 -0.002803 0.000000 0.000000 0.004238
# 2 -0.001285 0.012991 -0.002803 0.000000 0.000000 -0.004238
# 3 -0.002803 -0.002803 0.009779 0.000000 0.000000 0.000000
# 4 0.000000 0.000000 0.000000 0.074299 0.000000 0.000000
# 5 0.000000 0.000000 0.000000 0.000000 0.074299 0.000000
# 6 0.004238 -0.004238 0.000000 0.000000 0.000000 0.063142
#
#
# Mechanical properties :
#
#
# Convention : Reuss Voigt Hill
#
# Bulk Modulus (GPa) = 45.50448 47.79563 46.65006
# Shear Modulus (GPa) = 18.61432 23.39653 21.00543
#
# Velocity S-wave (km/s) = 3.03051 3.39756 3.21927
# Velocity P-wave (km/s) = 5.89037 6.24282 6.06915
#
# Compressibility (1/GPa) = 0.02197586
#
# Stress axis : x y z
#
# Youngs Moduli (GPa) = 76.97848 76.97848 102.26374
#
# Poissons Ratio (x) = 0.09894 0.28668
# Poissons Ratio (y) = 0.09894 0.28668
# Poissons Ratio (z) = 0.21580 0.21580
#
# Static dielectric constant tensor:
#      x y z
#    x 3.601670 0.000000 0.000000 
#    y 0.000000 3.601670 0.000000 
#    z 0.000000 0.000000 4.186620 
# 
# 
# High freq. dielectric constant tensor:
#      x y z
#    x 1.774500 0.000000 0.000000 
#    y 0.000000 1.774500 0.000000 
#    z 0.000000 0.000000 1.797450 
# 
# From -- ./inp_files/2151.got.cif
#   From: 2010.03.12/outbox.cif.g09.slc.cpg/sg86_2_cif.got.tgz:2151.got - 2010.04.08 20:12:58.
