data_PCOD8303957
_publ_section_title
;
Structure prediction by ZEFSAII (Michael W. Deem and Ramdas Pophale) SiO2 
 PCOD8303957
Probable space group: I 4/M
;
_chemical_formula_sum "Si O2"
_cell_formula_units_Z 120
_cell_length_a 15.377462
_cell_length_b 15.377462
_cell_length_c 28.620542
_cell_angle_alpha 90.000000
_cell_angle_beta 90.000000
_cell_angle_gamma 90.000000
_cell_volume 6767.794746
_symmetry_space_group_name_H-M "I 4/M"
_symmetry_group_IT_number 87
_symmetry_cell_setting 'tetragonal'
loop_
_space_group_symop_operation_xyz
x,y,z
-y,x,z
-x,-y,z
y,-x,z
-x,-y,-z
y,-x,-z
x,y,-z
-y,x,-z
1/2+x,1/2+y,1/2+z
1/2-y,1/2+x,1/2+z
1/2-x,1/2-y,1/2+z
1/2+y,1/2-x,1/2+z
1/2-x,1/2-y,1/2-z
1/2+y,1/2-x,1/2-z
1/2+x,1/2+y,1/2-z
1/2-y,1/2+x,1/2-z
loop_
_atom_site_type_symbol
_atom_site_label
_atom_site_fract_x
_atom_site_fract_y
_atom_site_fract_z
Si Si1 0.868333 0.707925 0.104602
Si Si2 0.626927 0.063428 0.699577
Si Si3 0.689352 0.637930 0.905635
Si Si4 0.035160 0.255938 0.381079
Si Si5 0.871106 0.060042 0.053279
Si Si6 0.129404 0.065679 0.500000
Si Si7 0.056636 0.370242 0.804767
Si Si8 0.404661 0.032340 0.445255
O O1 0.763437 0.711543 0.099826
O O2 0.906305 0.799194 0.088717
O O3 0.898266 0.693221 0.158065
O O4 0.902254 0.631764 0.071124
O O5 0.707649 0.080567 0.665575
O O6 0.661723 0.076864 0.752194
O O7 0.547748 0.128986 0.688199
O O8 0.593828 0.966499 0.689511
O O9 0.595424 0.677963 0.898208
O O10 0.713751 0.559377 0.870012
O O11 0.689058 0.592643 0.956370
O O12 0.026581 0.333411 0.418874
O O13 0.958579 0.113652 0.062850
O O14 0.840465 0.074500 0.000000
O O15 0.037654 0.115564 0.500000
O O16 0.386506 0.024382 0.500000
O O17 0.500000 0.000000 0.431494
#
# Coordination Sequence:
#
# PCOD8303957 Si02
#       8
#    16  16  16  16  16   8  16  16
#     4  11  21  33  56  85 112 132 186 232 279 324
#     4   9  17  34  59  81 109 142 177 219 280 338
#     4  11  24  34  55  79 115 147 188 228 274 308
#     4  11  22  37  53  77 113 148 187 228 267 323
#     4   9  20  39  58  76 106 149 189 224 267 329
#     4  11  22  38  56  76 106 163 206 220 252 325
#     4   9  17  32  60  87 104 140 176 221 281 339
#     4  10  21  34  51  78 116 148 170 220 292 341
#
# _framework density 17.731034999999999
#
# number of rings (size 3 to 8) (size 9 to 14) (size 15 to 20)
#    0.000    1.933    4.000    2.400    5.600    2.400 
#    0.000    2.000    2.933    0.000    0.000    0.000 
#    0.000    0.000    0.000    0.000    0.000    0.000 
#
# Total GULP energy -743932.407714 kJ/mol
# GULP energy per Si atom -12398.873462 kJ/mol
# Density = 1.769068 g / cm^3
# Si number density = 17.731035 Si / 1000 Ang^3
#
#
#
# Elastic Constant Matrix: (Units=GPa)
#
#
# Indices 1 2 3 4 5 6 
#
# 1 76.7975 35.9194 37.0049 0.0000 0.0000 -7.2274
# 2 35.9194 76.7975 37.0049 0.0000 0.0000 7.2274
# 3 37.0049 37.0049 95.0428 0.0000 0.0000 0.0000
# 4 0.0000 0.0000 0.0000 23.1701 0.0000 0.0000
# 5 0.0000 0.0000 0.0000 0.0000 23.1701 0.0000
# 6 -7.2274 7.2274 0.0000 0.0000 0.0000 26.6235
#
#
#
# Elastic Compliance Matrix: (Units=1/GPa)
#
#
# Indices 1 2 3 4 5 6 
#
# 1 0.019490 -0.007571 -0.004641 0.000000 0.000000 0.007346
# 2 -0.007571 0.019490 -0.004641 0.000000 0.000000 -0.007346
# 3 -0.004641 -0.004641 0.014135 0.000000 0.000000 0.000000
# 4 0.000000 0.000000 0.000000 0.043159 0.000000 0.000000
# 5 0.000000 0.000000 0.000000 0.000000 0.043159 0.000000
# 6 0.007346 -0.007346 0.000000 0.000000 0.000000 0.041549
#
#
# Mechanical properties :
#
#
# Convention : Reuss Voigt Hill
#
# Bulk Modulus (GPa) = 51.51863 52.05513 51.78688
# Shear Modulus (GPa) = 22.60845 23.83999 23.22422
#
# Velocity S-wave (km/s) = 3.57470 3.67077 3.62305
# Velocity P-wave (km/s) = 6.79387 6.88389 6.83903
#
# Compressibility (1/GPa) = 0.01941045
#
# Stress axis : x y z
#
# Youngs Moduli (GPa) = 51.30908 51.30908 70.74546
#
# Poissons Ratio (x) = 0.38846 0.32830
# Poissons Ratio (y) = 0.38846 0.32830
# Poissons Ratio (z) = 0.23810 0.23810
#
# Static dielectric constant tensor:
#      x y z
#    x 3.175800 0.000000 0.000000 
#    y 0.000000 3.175800 0.000000 
#    z 0.000000 0.000000 3.405120 
# 
# 
# High freq. dielectric constant tensor:
#      x y z
#    x 1.675720 0.000000 0.000000 
#    y 0.000000 1.675720 0.000000 
#    z 0.000000 0.000000 1.682940 
# 
# From -- ./inp_files/6745.got.cif
#   From: 2010.03.12/outbox.cif.g09.slc.cpg/sg87_4_cif.got.tgz:6745.got - 2010.04.08 20:16:13.
