data_PCOD8303796
_publ_section_title
;
Structure prediction by ZEFSAII (Michael W. Deem and Ramdas Pophale) SiO2 
 PCOD8303796
Probable space group: I 4/M
;
_chemical_formula_sum "Si O2"
_cell_formula_units_Z 96
_cell_length_a 20.045165
_cell_length_b 20.045165
_cell_length_c 12.319664
_cell_angle_alpha 90.000000
_cell_angle_beta 90.000000
_cell_angle_gamma 90.000000
_cell_volume 4950.147436
_symmetry_space_group_name_H-M "I 4/M"
_symmetry_group_IT_number 87
_symmetry_cell_setting 'tetragonal'
loop_
_space_group_symop_operation_xyz
x,y,z
-y,x,z
-x,-y,z
y,-x,z
-x,-y,-z
y,-x,-z
x,y,-z
-y,x,-z
1/2+x,1/2+y,1/2+z
1/2-y,1/2+x,1/2+z
1/2-x,1/2-y,1/2+z
1/2+y,1/2-x,1/2+z
1/2-x,1/2-y,1/2-z
1/2+y,1/2-x,1/2-z
1/2+x,1/2+y,1/2-z
1/2-y,1/2+x,1/2-z
loop_
_atom_site_type_symbol
_atom_site_label
_atom_site_fract_x
_atom_site_fract_y
_atom_site_fract_z
Si Si1 0.859868 0.378150 0.737126
Si Si2 0.278743 0.617539 0.627012
Si Si3 0.750822 0.855836 0.124966
Si Si4 0.016570 0.790626 0.231912
Si Si5 0.956208 0.100096 0.381438
Si Si6 0.495424 0.835927 0.870571
O O1 0.799694 0.389123 0.652905
O O2 0.837241 0.314045 0.806225
O O3 0.872454 0.440968 0.816515
O O4 0.927051 0.369977 0.668253
O O5 0.290443 0.612231 0.500000
O O6 0.312016 0.686521 0.668345
O O7 0.314824 0.553620 0.681810
O O8 0.762133 0.935450 0.138080
O O9 0.736329 0.839664 0.000000
O O10 0.060401 0.849739 0.284796
O O11 0.002798 0.739999 0.330491
O O12 0.942128 0.131989 0.500000
O O13 0.913524 0.034445 0.369170
O O14 0.501200 0.839725 0.000000
#
# Coordination Sequence:
#
# PCOD8303796 Si02
#       6
#    16  16  16  16  16  16
#     4  10  21  37  56  78 102 130 166 209 257 306
#     4  10  20  34  53  76 104 137 171 208 249 296
#     4  10  20  34  53  76 104 137 171 208 249 296
#     4  10  19  32  51  75 103 136 172 208 248 295
#     4   9  17  29  46  70 101 135 171 211 251 291
#     4  10  21  37  56  77 102 130 164 209 257 308
#
# _framework density 19.393362
#
# number of rings (size 3 to 8) (size 9 to 14) (size 15 to 20)
#    0.000    2.167    0.000    4.000    0.000    0.333 
#    0.000    3.333    0.000   16.000    0.000    7.000 
#    0.000    0.000    0.000    0.000    0.000    0.000 
#
# Total GULP energy -595024.592703 kJ/mol
# GULP energy per Si atom -12396.345681 kJ/mol
# Density = 1.934922 g / cm^3
# Si number density = 19.393362 Si / 1000 Ang^3
#
#
#
# Elastic Constant Matrix: (Units=GPa)
#
#
# Indices 1 2 3 4 5 6 
#
# 1 69.6265 1.0364 22.8103 0.0000 0.0000 -4.6077
# 2 1.0364 69.6265 22.8103 0.0000 0.0000 4.6077
# 3 22.8103 22.8103 89.9820 0.0000 0.0000 0.0000
# 4 0.0000 0.0000 0.0000 24.4501 0.0000 0.0000
# 5 0.0000 0.0000 0.0000 0.0000 24.4501 0.0000
# 6 -4.6077 4.6077 0.0000 0.0000 0.0000 24.8721
#
#
#
# Elastic Compliance Matrix: (Units=1/GPa)
#
#
# Indices 1 2 3 4 5 6 
#
# 1 0.015936 0.000985 -0.004289 0.000000 0.000000 0.002770
# 2 0.000985 0.015936 -0.004289 0.000000 0.000000 -0.002770
# 3 -0.004289 -0.004289 0.013288 0.000000 0.000000 0.000000
# 4 0.000000 0.000000 0.000000 0.040900 0.000000 0.000000
# 5 0.000000 0.000000 0.000000 0.000000 0.040900 0.000000
# 6 0.002770 -0.002770 0.000000 0.000000 0.000000 0.041232
#
#
# Mechanical properties :
#
#
# Convention : Reuss Voigt Hill
#
# Bulk Modulus (GPa) = 33.36414 35.83876 34.60145
# Shear Modulus (GPa) = 25.85708 26.92635 26.39171
#
# Velocity S-wave (km/s) = 3.65539 3.73021 3.69299
# Velocity P-wave (km/s) = 5.92090 6.08873 6.00540
#
# Compressibility (1/GPa) = 0.02997230
#
# Stress axis : x y z
#
# Youngs Moduli (GPa) = 62.75000 62.75000 75.25549
#
# Poissons Ratio (x) = -0.06179 0.32280
# Poissons Ratio (y) = -0.06179 0.32280
# Poissons Ratio (z) = 0.26916 0.26916
#
# Static dielectric constant tensor:
#      x y z
#    x 3.525090 0.000000 0.000000 
#    y 0.000000 3.525090 0.000000 
#    z 0.000000 0.000000 3.419930 
# 
# 
# High freq. dielectric constant tensor:
#      x y z
#    x 1.753310 0.000000 0.000000 
#    y 0.000000 1.753310 0.000000 
#    z 0.000000 0.000000 1.756040 
# 
# From -- ./inp_files/2730.got.cif
#   From: 2010.03.12/outbox.cif.g09.slc.cpg/sg87_2_cif.got.tgz:2730.got - 2010.04.08 20:16:13.
