data_PCOD8303637
_publ_section_title
;
Structure prediction by ZEFSAII (Michael W. Deem and Ramdas Pophale) SiO2 
 PCOD8303637
Probable space group: P 42/N
;
_chemical_formula_sum "Si O2"
_cell_formula_units_Z 48
_cell_length_a 9.252559
_cell_length_b 9.252559
_cell_length_c 27.072350
_cell_angle_alpha 90.000000
_cell_angle_beta 90.000000
_cell_angle_gamma 90.000000
_cell_volume 2317.659770
_symmetry_space_group_name_H-M "P 42/N"
_symmetry_group_IT_number 86
_space_group.IT_coordinate_system_code '2'
_symmetry_cell_setting 'tetragonal'
loop_
_space_group_symop_operation_xyz
x,y,z
-y,1/2+x,1/2+z
1/2-x,1/2-y,z
1/2+y,-x,1/2+z
-x,-y,-z
y,1/2-x,1/2-z
1/2+x,1/2+y,-z
1/2-y,x,1/2-z
loop_
_atom_site_type_symbol
_atom_site_label
_atom_site_fract_x
_atom_site_fract_y
_atom_site_fract_z
Si Si1 0.578960 0.740345 0.659066
Si Si2 0.170749 0.886651 0.965060
Si Si3 0.387129 0.156595 0.448665
Si Si4 0.531158 0.912625 0.193649
Si Si5 0.226500 0.916871 0.857699
Si Si6 0.002744 0.925266 0.196322
O O1 0.750000 0.750000 0.670947
O O2 0.546370 0.788259 0.602843
O O3 0.520882 0.579669 0.667065
O O4 0.481364 0.832415 0.697339
O O5 0.250000 0.750000 0.988959
O O6 0.258296 0.934303 0.915942
O O7 0.011089 0.843729 0.946324
O O8 0.177820 0.005142 0.006518
O O9 0.250000 0.250000 0.463001
O O10 0.503595 0.743945 0.181693
O O11 0.537033 0.926914 0.252357
O O12 0.682508 0.965048 0.172250
O O13 0.250000 0.750000 0.840446
O O14 0.064974 0.970739 0.845799
#
# Coordination Sequence:
#
# PCOD8303637 Si02
#       6
#     8   8   8   8   8   8
#     4  11  26  46  68 100 135 177 224 282 333 409
#     4  10  23  44  70  99 131 175 218 269 338 399
#     4  10  23  45  68 100 134 168 220 278 328 400
#     4  12  27  41  69  98 136 179 229 280 339 397
#     4  11  24  44  68  97 134 181 219 275 334 403
#     4  12  25  44  65  98 138 175 231 277 339 399
#
# _framework density 20.710547999999999
#
# number of rings (size 3 to 8) (size 9 to 14) (size 15 to 20)
#    0.000    1.000    3.333    2.000   11.667    3.333 
#    0.000    0.000    0.000    0.000    0.000    0.000 
#    0.000    0.000    0.000    0.000    0.000    0.000 
#
# Total GULP energy -595189.959008 kJ/mol
# GULP energy per Si atom -12399.790813 kJ/mol
# Density = 2.066341 g / cm^3
# Si number density = 20.710548 Si / 1000 Ang^3
#
#
#
# Elastic Constant Matrix: (Units=GPa)
#
#
# Indices 1 2 3 4 5 6 
#
# 1 102.3932 34.8978 41.9903 0.0000 0.0000 0.0937
# 2 34.8978 102.3932 41.9903 0.0000 0.0000 -0.0937
# 3 41.9903 41.9903 73.1401 0.0000 0.0000 0.0000
# 4 0.0000 0.0000 0.0000 30.2252 0.0000 0.0000
# 5 0.0000 0.0000 0.0000 0.0000 30.2252 0.0000
# 6 0.0937 -0.0937 0.0000 0.0000 0.0000 45.0650
#
#
#
# Elastic Compliance Matrix: (Units=1/GPa)
#
#
# Indices 1 2 3 4 5 6 
#
# 1 0.013021 -0.001795 -0.006445 0.000000 0.000000 -0.000031
# 2 -0.001795 0.013021 -0.006445 0.000000 0.000000 0.000031
# 3 -0.006445 -0.006445 0.021073 0.000000 0.000000 0.000000
# 4 0.000000 0.000000 0.000000 0.033085 0.000000 0.000000
# 5 0.000000 0.000000 0.000000 0.000000 0.033085 0.000000
# 6 -0.000031 0.000031 0.000000 0.000000 0.000000 0.022190
#
#
# Mechanical properties :
#
#
# Convention : Reuss Voigt Hill
#
# Bulk Modulus (GPa) = 56.35420 57.29817 56.82618
# Shear Modulus (GPa) = 29.28083 31.70627 30.49355
#
# Velocity S-wave (km/s) = 3.76415 3.91695 3.84131
# Velocity P-wave (km/s) = 6.79420 6.94139 6.86819
#
# Compressibility (1/GPa) = 0.01774491
#
# Stress axis : x y z
#
# Youngs Moduli (GPa) = 76.79860 76.79860 47.45466
#
# Poissons Ratio (x) = 0.13784 0.30585
# Poissons Ratio (y) = 0.13784 0.30585
# Poissons Ratio (z) = 0.49497 0.49497
#
# Static dielectric constant tensor:
#      x y z
#    x 3.811160 0.000000 0.000000 
#    y 0.000000 3.811160 0.000000 
#    z 0.000000 0.000000 3.631980 
# 
# 
# High freq. dielectric constant tensor:
#      x y z
#    x 1.819590 0.000000 0.000000 
#    y 0.000000 1.819590 0.000000 
#    z 0.000000 0.000000 1.813520 
# 
# From -- ./inp_files/5136.got.cif
#   From: 2010.03.12/outbox.cif.g09.slc.cpg/sg86_3_cif.got.tgz:5136.got - 2010.04.08 20:12:58.
