data_PCOD8303250
_publ_section_title
;
Structure prediction by ZEFSAII (Michael W. Deem and Ramdas Pophale) SiO2 
 PCOD8303250
Probable space group: P 42/M
;
_chemical_formula_sum "Si O2"
_cell_formula_units_Z 40
_cell_length_a 14.845547
_cell_length_b 14.845547
_cell_length_c 8.999178
_cell_angle_alpha 90.000000
_cell_angle_beta 90.000000
_cell_angle_gamma 90.000000
_cell_volume 1983.331231
_symmetry_space_group_name_H-M "P 42/M"
_symmetry_group_IT_number 84
_symmetry_cell_setting 'tetragonal'
loop_
_space_group_symop_operation_xyz
x,y,z
-y,x,1/2+z
-x,-y,z
y,-x,1/2+z
-x,-y,-z
y,-x,1/2-z
x,y,-z
-y,x,1/2-z
loop_
_atom_site_type_symbol
_atom_site_label
_atom_site_fract_x
_atom_site_fract_y
_atom_site_fract_z
Si Si1 0.441335 0.915191 0.828481
Si Si2 0.083313 0.250323 0.173361
Si Si3 0.805090 0.390308 0.668374
Si Si4 0.224383 0.120631 0.672244
Si Si5 0.569977 0.606767 0.171663
O O1 0.349620 0.903304 0.738935
O O2 0.504911 0.828483 0.801699
O O3 0.500000 0.000000 0.772121
O O4 0.414457 0.927816 0.000000
O O5 0.153954 0.179743 0.237684
O O6 0.984695 0.209802 0.206736
O O7 0.101529 0.259257 0.000000
O O8 0.833835 0.365057 0.500000
O O9 0.857159 0.326289 0.781168
O O10 0.699017 0.375757 0.691684
O O11 0.212001 0.142678 0.500000
O O12 0.620199 0.531377 0.267779
O O13 0.565586 0.577631 0.000000
#
# Coordination Sequence:
#
# PCOD8303250 Si02
#       5
#     8   8   8   8   8
#     4  10  20  38  65  92 124 163 199 243 304 367
#     4  11  25  43  65  95 127 163 208 260 314 373
#     4  10  22  39  60  90 124 160 203 253 306 366
#     4  11  25  43  65  92 124 163 209 260 315 375
#     4  10  21  37  56  81 117 159 204 249 298 358
#
# _framework density 20.168091
#
# number of rings (size 3 to 8) (size 9 to 14) (size 15 to 20)
#    0.000    1.600    2.000    2.400    2.800    5.600 
#    0.000    2.000    0.000    0.000    0.000    0.000 
#    0.000    0.000    0.000    0.000    0.000    0.000 
#
# Total GULP energy -496063.292043 kJ/mol
# GULP energy per Si atom -12401.582301 kJ/mol
# Density = 2.012219 g / cm^3
# Si number density = 20.168091 Si / 1000 Ang^3
#
#
#
# Elastic Constant Matrix: (Units=GPa)
#
#
# Indices 1 2 3 4 5 6 
#
# 1 98.5149 42.0309 47.8438 0.0000 0.0000 -4.9889
# 2 42.0309 98.5149 47.8438 0.0000 0.0000 4.9889
# 3 47.8438 47.8438 84.4178 0.0000 0.0000 0.0000
# 4 0.0000 0.0000 0.0000 31.5611 0.0000 0.0000
# 5 0.0000 0.0000 0.0000 0.0000 31.5611 0.0000
# 6 -4.9889 4.9889 0.0000 0.0000 0.0000 30.5441
#
#
#
# Elastic Compliance Matrix: (Units=1/GPa)
#
#
# Indices 1 2 3 4 5 6 
#
# 1 0.014908 -0.003322 -0.006566 0.000000 0.000000 0.002978
# 2 -0.003322 0.014908 -0.006566 0.000000 0.000000 -0.002978
# 3 -0.006566 -0.006566 0.019289 0.000000 0.000000 0.000000
# 4 0.000000 0.000000 0.000000 0.031685 0.000000 0.000000
# 5 0.000000 0.000000 0.000000 0.000000 0.031685 0.000000
# 6 0.002978 -0.002978 0.000000 0.000000 0.000000 0.033712
#
#
# Mechanical properties :
#
#
# Convention : Reuss Voigt Hill
#
# Bulk Modulus (GPa) = 61.74685 61.87608 61.81147
# Shear Modulus (GPa) = 27.10131 28.31519 27.70825
#
# Velocity S-wave (km/s) = 3.66973 3.75101 3.71059
# Velocity P-wave (km/s) = 6.97413 7.03611 7.00519
#
# Compressibility (1/GPa) = 0.01619516
#
# Stress axis : x y z
#
# Youngs Moduli (GPa) = 67.07892 67.07892 51.84433
#
# Poissons Ratio (x) = 0.22286 0.34041
# Poissons Ratio (y) = 0.22286 0.34041
# Poissons Ratio (z) = 0.44045 0.44045
#
# Static dielectric constant tensor:
#      x y z
#    x 3.691060 0.000000 0.000000 
#    y 0.000000 3.691060 0.000000 
#    z 0.000000 0.000000 3.684750 
# 
# 
# High freq. dielectric constant tensor:
#      x y z
#    x 1.791380 0.000000 0.000000 
#    y 0.000000 1.791380 0.000000 
#    z 0.000000 0.000000 1.790510 
# 
# From -- ./inp_files/740.got.cif
#   From: 2010.03.12/outbox.cif.g09.slc.cpg/sg84_1_cif.got.tgz:740.got - 2010.04.08 20:07:29.
