data_PCOD8303926
_publ_section_title
;
Structure prediction by ZEFSAII (Michael W. Deem and Ramdas Pophale) SiO2 
 PCOD8303926
Probable space group: I 4/M
;
_chemical_formula_sum "Si O2"
_cell_formula_units_Z 96
_cell_length_a 14.586961
_cell_length_b 14.586961
_cell_length_c 23.920848
_cell_angle_alpha 90.000000
_cell_angle_beta 90.000000
_cell_angle_gamma 90.000000
_cell_volume 5089.864432
_symmetry_space_group_name_H-M "I 4/M"
_symmetry_group_IT_number 87
_symmetry_cell_setting 'tetragonal'
loop_
_space_group_symop_operation_xyz
x,y,z
-y,x,z
-x,-y,z
y,-x,z
-x,-y,-z
y,-x,-z
x,y,-z
-y,x,-z
1/2+x,1/2+y,1/2+z
1/2-y,1/2+x,1/2+z
1/2-x,1/2-y,1/2+z
1/2+y,1/2-x,1/2+z
1/2-x,1/2-y,1/2-z
1/2+y,1/2-x,1/2-z
1/2+x,1/2+y,1/2-z
1/2-y,1/2+x,1/2-z
loop_
_atom_site_type_symbol
_atom_site_label
_atom_site_fract_x
_atom_site_fract_y
_atom_site_fract_z
Si Si1 0.565003 0.917671 0.564098
Si Si2 0.214986 0.404725 0.437258
Si Si3 0.061696 0.862259 0.275920
Si Si4 0.581659 0.259363 0.883739
Si Si5 0.634147 0.567342 0.349993
Si Si6 0.724826 0.391847 0.936039
O O1 0.598593 0.934100 0.500000
O O2 0.506888 0.824709 0.569044
O O3 0.651025 0.910174 0.605512
O O4 0.500000 0.000000 0.583837
O O5 0.254193 0.390472 0.500000
O O6 0.295357 0.389113 0.393286
O O7 0.135389 0.330667 0.425827
O O8 0.095132 0.782722 0.318141
O O9 0.081254 0.828223 0.212909
O O10 0.954636 0.881239 0.286076
O O11 0.660094 0.308466 0.919054
O O12 0.482614 0.298097 0.901257
O O13 0.540089 0.620683 0.360246
O O14 0.706862 0.416064 0.000000
#
# Coordination Sequence:
#
# PCOD8303926 Si02
#       6
#    16  16  16  16  16  16
#     4  10  20  37  58  77 113 164 195 223 280 345
#     4  10  22  39  58  83 115 153 196 239 287 352
#     4   9  18  37  59  83 115 155 188 232 293 356
#     4  12  21  36  59  88 117 155 196 235 291 346
#     4   9  20  39  62  84 112 147 194 247 299 345
#     4  11  23  36  55  87 125 153 193 242 288 350
#
# _framework density 18.861011999999999
#
# number of rings (size 3 to 8) (size 9 to 14) (size 15 to 20)
#    0.000    1.833    3.333    2.500    2.333    1.000 
#    0.000    4.167    0.000    0.000    0.000    0.000 
#    0.000    0.000    0.000    0.000    0.000    0.000 
#
# Total GULP energy -595273.461558 kJ/mol
# GULP energy per Si atom -12401.530449 kJ/mol
# Density = 1.881808 g / cm^3
# Si number density = 18.861012 Si / 1000 Ang^3
#
#
#
# Elastic Constant Matrix: (Units=GPa)
#
#
# Indices 1 2 3 4 5 6 
#
# 1 76.2482 4.9385 32.1278 0.0000 0.0000 6.5428
# 2 4.9385 76.2482 32.1278 0.0000 0.0000 -6.5428
# 3 32.1278 32.1278 104.9403 0.0000 0.0000 0.0000
# 4 0.0000 0.0000 0.0000 31.3851 0.0000 0.0000
# 5 0.0000 0.0000 0.0000 0.0000 31.3851 0.0000
# 6 6.5428 -6.5428 0.0000 0.0000 0.0000 22.8106
#
#
#
# Elastic Compliance Matrix: (Units=1/GPa)
#
#
# Indices 1 2 3 4 5 6 
#
# 1 0.015529 0.000727 -0.004977 0.000000 0.000000 -0.004246
# 2 0.000727 0.015529 -0.004977 0.000000 0.000000 0.004246
# 3 -0.004977 -0.004977 0.012577 0.000000 0.000000 0.000000
# 4 0.000000 0.000000 0.000000 0.031862 0.000000 0.000000
# 5 0.000000 0.000000 0.000000 0.000000 0.031862 0.000000
# 6 -0.004246 0.004246 0.000000 0.000000 0.000000 0.046275
#
#
# Mechanical properties :
#
#
# Convention : Reuss Voigt Hill
#
# Bulk Modulus (GPa) = 39.71160 43.98054 41.84607
# Shear Modulus (GPa) = 27.70353 29.66566 28.68459
#
# Velocity S-wave (km/s) = 3.83668 3.97023 3.90403
# Velocity P-wave (km/s) = 6.38180 6.66227 6.52354
#
# Compressibility (1/GPa) = 0.02518156
#
# Stress axis : x y z
#
# Youngs Moduli (GPa) = 64.39410 64.39410 79.51255
#
# Poissons Ratio (x) = -0.04681 0.39573
# Poissons Ratio (y) = -0.04681 0.39573
# Poissons Ratio (z) = 0.32048 0.32048
#
# Static dielectric constant tensor:
#      x y z
#    x 3.315500 0.000000 0.000000 
#    y 0.000000 3.315500 0.000000 
#    z 0.000000 0.000000 3.397690 
# 
# 
# High freq. dielectric constant tensor:
#      x y z
#    x 1.727570 0.000000 0.000000 
#    y 0.000000 1.727570 0.000000 
#    z 0.000000 0.000000 1.726480 
# 
# From -- ./inp_files/5267.got.cif
#   From: 2010.03.12/outbox.cif.g09.slc.cpg/sg87_3_cif.got.tgz:5267.got - 2010.04.08 20:16:13.
