data_PCOD8303603
_publ_section_title
;
Structure prediction by ZEFSAII (Michael W. Deem and Ramdas Pophale) SiO2 
 PCOD8303603
Probable space group: P 42/N
;
_chemical_formula_sum "Si O2"
_cell_formula_units_Z 46
_cell_length_a 9.023487
_cell_length_b 9.023487
_cell_length_c 27.610187
_cell_angle_alpha 90.000000
_cell_angle_beta 90.000000
_cell_angle_gamma 90.000000
_cell_volume 2248.113026
_symmetry_space_group_name_H-M "P 42/N"
_symmetry_group_IT_number 86
_space_group.IT_coordinate_system_code '2'
_symmetry_cell_setting 'tetragonal'
loop_
_space_group_symop_operation_xyz
x,y,z
-y,1/2+x,1/2+z
1/2-x,1/2-y,z
1/2+y,-x,1/2+z
-x,-y,-z
y,1/2-x,1/2-z
1/2+x,1/2+y,-z
1/2-y,x,1/2-z
loop_
_atom_site_type_symbol
_atom_site_label
_atom_site_fract_x
_atom_site_fract_y
_atom_site_fract_z
Si Si1 0.250000 0.750000 0.011183
Si Si2 0.799486 0.527730 0.428380
Si Si3 0.956801 0.861825 0.180111
Si Si4 0.911592 0.189146 0.667099
Si Si5 0.697126 0.995609 0.061547
Si Si6 0.867180 0.964309 0.748671
Si Si7 0.750000 0.750000 0.250000
O O1 0.373474 0.673547 0.044797
O O2 0.177257 0.619410 0.979536
O O3 0.786676 0.501610 0.370688
O O4 0.942190 0.631737 0.437248
O O5 0.648049 0.597262 0.449006
O O6 0.899490 0.735349 0.217205
O O7 0.814834 0.968883 0.177613
O O8 0.098706 0.944494 0.202131
O O9 0.750000 0.250000 0.677687
O O10 0.928331 0.142332 0.611099
O O11 0.931657 0.046029 0.701273
O O12 0.948764 0.808214 0.753397
#
# Coordination Sequence:
#
# PCOD8303603 Si02
#       7
#     4   8   8   8   8   8   2
#     4  12  22  42  68  92 122 164 202 252 332 370
#     4  10  24  41  62  96 129 156 206 264 305 364
#     4  11  22  38  61  91 128 162 208 257 301 360
#     4  11  20  38  62  87 116 168 212 245 299 369
#     4  10  22  42  66  91 122 160 210 259 305 371
#     4  11  24  39  58  91 133 167 202 254 316 374
#     4  12  20  36  64  92 112 172 216 252 296 356
#
# _framework density 20.461603
#
# number of rings (size 3 to 8) (size 9 to 14) (size 15 to 20)
#    0.000    1.217    4.348    3.130    0.000    1.391 
#    1.565    0.000    0.000    2.087    0.000    0.000 
#    0.000    0.000    0.000    0.000    0.000    0.000 
#
# Total GULP energy -570410.840639 kJ/mol
# GULP energy per Si atom -12400.235666 kJ/mol
# Density = 2.041503 g / cm^3
# Si number density = 20.461603 Si / 1000 Ang^3
#
#
#
# Elastic Constant Matrix: (Units=GPa)
#
#
# Indices 1 2 3 4 5 6 
#
# 1 69.6963 27.8214 42.5833 0.0000 0.0000 -2.4339
# 2 27.8214 69.6963 42.5833 0.0000 0.0000 2.4339
# 3 42.5833 42.5833 137.1379 0.0000 0.0000 0.0000
# 4 0.0000 0.0000 0.0000 28.1209 0.0000 0.0000
# 5 0.0000 0.0000 0.0000 0.0000 28.1209 0.0000
# 6 -2.4339 2.4339 0.0000 0.0000 0.0000 26.1704
#
#
#
# Elastic Compliance Matrix: (Units=1/GPa)
#
#
# Indices 1 2 3 4 5 6 
#
# 1 0.019106 -0.005036 -0.004369 0.000000 0.000000 0.002245
# 2 -0.005036 0.019106 -0.004369 0.000000 0.000000 -0.002245
# 3 -0.004369 -0.004369 0.010005 0.000000 0.000000 0.000000
# 4 0.000000 0.000000 0.000000 0.035561 0.000000 0.000000
# 5 0.000000 0.000000 0.000000 0.000000 0.035561 0.000000
# 6 0.002245 -0.002245 0.000000 0.000000 0.000000 0.038629
#
#
# Mechanical properties :
#
#
# Convention : Reuss Voigt Hill
#
# Bulk Modulus (GPa) = 48.38022 55.83406 52.10714
# Shear Modulus (GPa) = 25.98690 27.38527 26.68608
#
# Velocity S-wave (km/s) = 3.56762 3.66235 3.61529
# Velocity P-wave (km/s) = 6.37701 6.72534 6.55349
#
# Compressibility (1/GPa) = 0.02066960
#
# Stress axis : x y z
#
# Youngs Moduli (GPa) = 52.33973 52.33973 99.94785
#
# Poissons Ratio (x) = 0.26357 0.43667
# Poissons Ratio (y) = 0.26357 0.43667
# Poissons Ratio (z) = 0.22867 0.22867
#
# Static dielectric constant tensor:
#      x y z
#    x 3.640660 0.000000 0.000000 
#    y 0.000000 3.640660 0.000000 
#    z 0.000000 0.000000 3.814380 
# 
# 
# High freq. dielectric constant tensor:
#      x y z
#    x 1.795890 0.000000 0.000000 
#    y 0.000000 1.795890 0.000000 
#    z 0.000000 0.000000 1.804300 
# 
# From -- ./inp_files/5094.got.cif
#   From: 2010.03.12/outbox.cif.g09.slc.cpg/sg86_3_cif.got.tgz:5094.got - 2010.04.08 20:12:58.
