data_PCOD8303894
_publ_section_title
;
Structure prediction by ZEFSAII (Michael W. Deem and Ramdas Pophale) SiO2 
 PCOD8303894
Probable space group: I 4/M
;
_chemical_formula_sum "Si O2"
_cell_formula_units_Z 120
_cell_length_a 17.627440
_cell_length_b 17.627440
_cell_length_c 18.922022
_cell_angle_alpha 90.000000
_cell_angle_beta 90.000000
_cell_angle_gamma 90.000000
_cell_volume 5879.576336
_symmetry_space_group_name_H-M "I 4/M"
_symmetry_group_IT_number 87
_symmetry_cell_setting 'tetragonal'
loop_
_space_group_symop_operation_xyz
x,y,z
-y,x,z
-x,-y,z
y,-x,z
-x,-y,-z
y,-x,-z
x,y,-z
-y,x,-z
1/2+x,1/2+y,1/2+z
1/2-y,1/2+x,1/2+z
1/2-x,1/2-y,1/2+z
1/2+y,1/2-x,1/2+z
1/2-x,1/2-y,1/2-z
1/2+y,1/2-x,1/2-z
1/2+x,1/2+y,1/2-z
1/2-y,1/2+x,1/2-z
loop_
_atom_site_type_symbol
_atom_site_label
_atom_site_fract_x
_atom_site_fract_y
_atom_site_fract_z
Si Si1 0.426925 0.963660 0.367066
Si Si2 0.771984 0.410325 0.921651
Si Si3 0.347280 0.046229 0.757877
Si Si4 0.017550 0.120979 0.619114
Si Si5 0.196910 0.704815 0.801885
Si Si6 0.874374 0.151301 0.854539
Si Si7 0.908171 0.084922 0.000000
Si Si8 0.182892 0.981428 0.228634
O O1 0.353852 0.952019 0.416761
O O2 0.458935 0.884343 0.335944
O O3 0.500000 0.000000 0.407690
O O4 0.404209 0.018648 0.302238
O O5 0.702719 0.470392 0.917795
O O6 0.760320 0.352566 0.855642
O O7 0.769276 0.372163 0.000000
O O8 0.335149 0.136970 0.749049
O O9 0.269775 0.999162 0.752070
O O10 0.015932 0.130522 0.702967
O O11 0.936562 0.085236 0.596294
O O12 0.250000 0.750000 0.750000
O O13 0.152127 0.762057 0.853232
O O14 0.867036 0.120894 0.933142
O O15 0.819472 0.102695 0.803614
O O16 0.960905 0.146307 0.827700
O O17 0.995948 0.105976 0.000000
#
# Coordination Sequence:
#
# PCOD8303894 Si02
#       8
#    16  16  16  16  16  16   8  16
#     4  11  20  37  66  94 121 158 206 261 317 377
#     4  11  26  44  61  90 132 170 206 263 332 392
#     4  10  20  34  59  94 121 148 199 266 316 360
#     4  11  23  39  66  95 124 165 221 273 322 379
#     4  10  24  40  63  90 120 161 213 265 318 379
#     4  11  22  35  58  87 124 164 213 257 312 382
#     4  11  22  36  54  86 132 180 210 251 320 402
#     4  11  20  34  57  91 120 158 206 269 311 362
#
# _framework density 20.409634
#
# number of rings (size 3 to 8) (size 9 to 14) (size 15 to 20)
#    0.000    1.267    5.333    0.800    4.667    1.067 
#    0.000    0.667    0.000    0.000    3.467    0.000 
#    0.000    0.000    0.000    0.000    0.000    0.000 
#
# Total GULP energy -743766.870884 kJ/mol
# GULP energy per Si atom -12396.114515 kJ/mol
# Density = 2.036318 g / cm^3
# Si number density = 20.409634 Si / 1000 Ang^3
#
#
#
# Elastic Constant Matrix: (Units=GPa)
#
#
# Indices 1 2 3 4 5 6 
#
# 1 93.2799 35.0342 18.6640 0.0000 0.0000 3.1426
# 2 35.0342 93.2799 18.6640 0.0000 0.0000 -3.1426
# 3 18.6640 18.6640 78.5999 0.0000 0.0000 0.0000
# 4 0.0000 0.0000 0.0000 15.0465 0.0000 0.0000
# 5 0.0000 0.0000 0.0000 0.0000 15.0465 0.0000
# 6 3.1426 -3.1426 0.0000 0.0000 0.0000 36.5076
#
#
#
# Elastic Compliance Matrix: (Units=1/GPa)
#
#
# Indices 1 2 3 4 5 6 
#
# 1 0.012851 -0.004479 -0.001988 0.000000 0.000000 -0.001492
# 2 -0.004479 0.012851 -0.001988 0.000000 0.000000 0.001492
# 3 -0.001988 -0.001988 0.013667 0.000000 0.000000 0.000000
# 4 0.000000 0.000000 0.000000 0.066461 0.000000 0.000000
# 5 0.000000 0.000000 0.000000 0.000000 0.066461 0.000000
# 6 -0.001492 0.001492 0.000000 0.000000 0.000000 0.027648
#
#
# Mechanical properties :
#
#
# Convention : Reuss Voigt Hill
#
# Bulk Modulus (GPa) = 44.52660 45.54268 45.03464
# Shear Modulus (GPa) = 22.28826 26.17329 24.23078
#
# Velocity S-wave (km/s) = 3.30820 3.58494 3.44935
# Velocity P-wave (km/s) = 6.03788 6.28478 6.16257
#
# Compressibility (1/GPa) = 0.02245848
#
# Stress axis : x y z
#
# Youngs Moduli (GPa) = 77.81704 77.81704 73.17028
#
# Poissons Ratio (x) = 0.34854 0.14546
# Poissons Ratio (y) = 0.34854 0.14546
# Poissons Ratio (z) = 0.15469 0.15469
#
# Static dielectric constant tensor:
#      x y z
#    x 3.843900 0.000000 0.000000 
#    y 0.000000 3.843900 0.000000 
#    z 0.000000 0.000000 3.419390 
# 
# 
# High freq. dielectric constant tensor:
#      x y z
#    x 1.804280 0.000000 0.000000 
#    y 0.000000 1.804280 0.000000 
#    z 0.000000 0.000000 1.772000 
# 
# From -- ./inp_files/5535.got.cif
#   From: 2010.03.12/outbox.cif.g09.slc.cpg/sg87_3_cif.got.tgz:5535.got - 2010.04.08 20:16:13.
