data_PCOD8303779
_publ_section_title
;
Structure prediction by ZEFSAII (Michael W. Deem and Ramdas Pophale) SiO2 
 PCOD8303779
Probable space group: I 4/M
;
_chemical_formula_sum "Si O2"
_cell_formula_units_Z 96
_cell_length_a 25.121281
_cell_length_b 25.121281
_cell_length_c 8.895347
_cell_angle_alpha 90.000000
_cell_angle_beta 90.000000
_cell_angle_gamma 90.000000
_cell_volume 5613.664546
_symmetry_space_group_name_H-M "I 4/M"
_symmetry_group_IT_number 87
_symmetry_cell_setting 'tetragonal'
loop_
_space_group_symop_operation_xyz
x,y,z
-y,x,z
-x,-y,z
y,-x,z
-x,-y,-z
y,-x,-z
x,y,-z
-y,x,-z
1/2+x,1/2+y,1/2+z
1/2-y,1/2+x,1/2+z
1/2-x,1/2-y,1/2+z
1/2+y,1/2-x,1/2+z
1/2-x,1/2-y,1/2-z
1/2+y,1/2-x,1/2-z
1/2+x,1/2+y,1/2-z
1/2-y,1/2+x,1/2-z
loop_
_atom_site_type_symbol
_atom_site_label
_atom_site_fract_x
_atom_site_fract_y
_atom_site_fract_z
Si Si1 0.254339 0.048815 0.166540
Si Si2 0.750334 0.333391 0.323398
Si Si3 0.057401 0.257302 0.323908
Si Si4 0.866839 0.439456 0.330163
Si Si5 0.241728 0.332004 0.322859
Si Si6 0.121229 0.447587 0.338211
O O1 0.245544 0.108029 0.237361
O O2 0.316705 0.040253 0.154718
O O3 0.231871 0.998685 0.263476
O O4 0.228248 0.045995 0.000000
O O5 0.758889 0.339948 0.500000
O O6 0.732304 0.390008 0.253858
O O7 0.702875 0.293135 0.284005
O O8 0.805850 0.310417 0.255089
O O9 0.059931 0.246335 0.500000
O O10 0.061158 0.319630 0.289264
O O11 0.844924 0.431739 0.500000
O O12 0.902204 0.493181 0.311631
O O13 0.907145 0.391718 0.294072
O O14 0.229187 0.334540 0.500000
O O15 0.101769 0.424752 0.500000
#
# Coordination Sequence:
#
# PCOD8303779 Si02
#       6
#    16  16  16  16  16  16
#     4   9  18  33  49  66  90 118 150 188 229 273
#     4  10  19  31  49  73 100 129 159 191 232 282
#     4  11  21  32  47  66  90 121 155 190 228 270
#     4  10  20  32  45  60  79 107 144 186 230 273
#     4   9  18  32  51  74  99 127 157 193 237 282
#     4   9  18  30  43  60  82 108 139 180 228 272
#
# _framework density 17.101129
#
# number of rings (size 3 to 8) (size 9 to 14) (size 15 to 20)
#    0.000    2.333    0.000    4.500    0.000    6.333 
#    0.000    1.667    0.000    0.000    0.000    0.000 
#    0.000    0.667    0.000    7.667    0.000    3.000 
#
# Total GULP energy -594731.873810 kJ/mol
# GULP energy per Si atom -12390.247371 kJ/mol
# Density = 1.706221 g / cm^3
# Si number density = 17.101129 Si / 1000 Ang^3
#
#
#
# Elastic Constant Matrix: (Units=GPa)
#
#
# Indices 1 2 3 4 5 6 
#
# 1 79.7653 18.0187 28.3541 0.0000 0.0000 0.3719
# 2 18.0187 79.7653 28.3541 0.0000 0.0000 -0.3719
# 3 28.3541 28.3541 79.1791 0.0000 0.0000 0.0000
# 4 0.0000 0.0000 0.0000 21.3556 0.0000 0.0000
# 5 0.0000 0.0000 0.0000 0.0000 21.3556 0.0000
# 6 0.3719 -0.3719 0.0000 0.0000 0.0000 18.8003
#
#
#
# Elastic Compliance Matrix: (Units=1/GPa)
#
#
# Indices 1 2 3 4 5 6 
#
# 1 0.014553 -0.001646 -0.004622 0.000000 0.000000 -0.000320
# 2 -0.001646 0.014553 -0.004622 0.000000 0.000000 0.000320
# 3 -0.004622 -0.004622 0.015940 0.000000 0.000000 0.000000
# 4 0.000000 0.000000 0.000000 0.046826 0.000000 0.000000
# 5 0.000000 0.000000 0.000000 0.000000 0.046826 0.000000
# 6 -0.000320 0.000320 0.000000 0.000000 0.000000 0.053203
#
#
# Mechanical properties :
#
#
# Convention : Reuss Voigt Hill
#
# Bulk Modulus (GPa) = 42.98126 43.12925 43.05526
# Shear Modulus (GPa) = 22.57977 23.23449 22.90713
#
# Velocity S-wave (km/s) = 3.63763 3.68999 3.66390
# Velocity P-wave (km/s) = 6.54456 6.59011 6.56737
#
# Compressibility (1/GPa) = 0.02326595
#
# Stress axis : x y z
#
# Youngs Moduli (GPa) = 68.71391 68.71391 62.73566
#
# Poissons Ratio (x) = 0.11310 0.28997
# Poissons Ratio (y) = 0.11310 0.28997
# Poissons Ratio (z) = 0.31760 0.31760
#
# Static dielectric constant tensor:
#      x y z
#    x 3.185330 0.000000 0.000000 
#    y 0.000000 3.185330 0.000000 
#    z 0.000000 0.000000 3.246850 
# 
# 
# High freq. dielectric constant tensor:
#      x y z
#    x 1.635770 0.000000 0.000000 
#    y 0.000000 1.635770 0.000000 
#    z 0.000000 0.000000 1.662800 
# 
# From -- ./inp_files/1534.got.cif
#   From: 2010.03.12/outbox.cif.g09.slc.cpg/sg87_1_cif.got.tgz:1534.got - 2010.04.08 20:16:13.
