data_PCOD8303447
_publ_section_title
;
Structure prediction by ZEFSAII (Michael W. Deem and Ramdas Pophale) SiO2 
 PCOD8303447
Probable space group: P 4/N
;
_chemical_formula_sum "Si O2"
_cell_formula_units_Z 18
_cell_length_a 9.436215
_cell_length_b 9.436215
_cell_length_c 10.240636
_cell_angle_alpha 90.000000
_cell_angle_beta 90.000000
_cell_angle_gamma 90.000000
_cell_volume 911.848283
_symmetry_space_group_name_H-M "P 4/N"
_symmetry_group_IT_number 85
_symmetry_cell_setting 'tetragonal'
loop_
_space_group_symop_operation_xyz
x,y,z
1/2-y,x,z
1/2-x,1/2-y,z
y,1/2-x,z
-x,-y,-z
1/2+y,-x,-z
1/2+x,1/2+y,-z
-y,1/2+x,-z
loop_
_atom_site_type_symbol
_atom_site_label
_atom_site_fract_x
_atom_site_fract_y
_atom_site_fract_z
Si Si1 0.250000 0.750000 0.000000
Si Si2 0.631491 0.414445 0.549156
Si Si3 0.979271 0.714165 0.828389
O O1 0.306196 0.618982 0.085368
O O2 0.500000 0.500000 0.500000
O O3 0.750848 0.418090 0.433971
O O4 0.702329 0.477385 0.677871
O O5 0.910181 0.866887 0.858478
#
# Coordination Sequence:
#
# PCOD8303447 Si02
#       3
#     2   8   8
#     4  12  24  44  70  92 128 184 232 258 316 396
#     4  11  22  39  65  96 128 166 212 265 334 392
#     4  11  24  43  66  95 134 173 215 275 326 381
#
# _framework density 19.740127000000001
#
# number of rings (size 3 to 8) (size 9 to 14) (size 15 to 20)
#    0.000    0.889    4.444    4.000    0.000    0.889 
#    0.000    0.000    0.000    0.000    0.000    0.000 
#    0.000    0.000    0.000    0.000    0.000    0.000 
#
# Total GULP energy -223137.733949 kJ/mol
# GULP energy per Si atom -12396.540775 kJ/mol
# Density = 1.969520 g / cm^3
# Si number density = 19.740127 Si / 1000 Ang^3
#
#
#
# Elastic Constant Matrix: (Units=GPa)
#
#
# Indices 1 2 3 4 5 6 
#
# 1 137.2440 62.3372 39.0295 0.0000 0.0000 -5.9583
# 2 62.3372 137.2440 39.0295 0.0000 0.0000 5.9583
# 3 39.0295 39.0295 76.3634 0.0000 0.0000 0.0000
# 4 0.0000 0.0000 0.0000 33.1971 0.0000 0.0000
# 5 0.0000 0.0000 0.0000 0.0000 33.1971 0.0000
# 6 -5.9583 5.9583 0.0000 0.0000 0.0000 33.7707
#
#
#
# Elastic Compliance Matrix: (Units=1/GPa)
#
#
# Indices 1 2 3 4 5 6 
#
# 1 0.009999 -0.003737 -0.003201 0.000000 0.000000 0.002423
# 2 -0.003737 0.009999 -0.003201 0.000000 0.000000 -0.002423
# 3 -0.003201 -0.003201 0.016367 0.000000 0.000000 0.000000
# 4 0.000000 0.000000 0.000000 0.030123 0.000000 0.000000
# 5 0.000000 0.000000 0.000000 0.000000 0.030123 0.000000
# 6 0.002423 -0.002423 0.000000 0.000000 0.000000 0.030467
#
#
# Mechanical properties :
#
#
# Convention : Reuss Voigt Hill
#
# Bulk Modulus (GPa) = 62.15453 70.18267 66.16860
# Shear Modulus (GPa) = 32.74041 34.06334 33.40187
#
# Velocity S-wave (km/s) = 4.07697 4.15853 4.11795
# Velocity P-wave (km/s) = 7.32919 7.66083 7.49684
#
# Compressibility (1/GPa) = 0.01608893
#
# Stress axis : x y z
#
# Youngs Moduli (GPa) = 100.01107 100.01107 61.09839
#
# Poissons Ratio (x) = 0.37370 0.19556
# Poissons Ratio (y) = 0.37370 0.19556
# Poissons Ratio (z) = 0.32010 0.32010
#
# Static dielectric constant tensor:
#      x y z
#    x 3.894720 0.000000 0.000000 
#    y 0.000000 3.894720 0.000000 
#    z 0.000000 0.000000 3.426980 
# 
# 
# High freq. dielectric constant tensor:
#      x y z
#    x 1.788180 0.000000 0.000000 
#    y 0.000000 1.788180 0.000000 
#    z 0.000000 0.000000 1.747910 
# 
# From -- ./inp_files/625.got.cif
#   From: 2010.03.12/outbox.cif.g09.slc.cpg/sg85_cif.got.tgz:625.got - 2010.04.08 20:10:46.
