data_PCOD8303621
_publ_section_title
;
Structure prediction by ZEFSAII (Michael W. Deem and Ramdas Pophale) SiO2 
 PCOD8303621
Probable space group: P 42/N
;
_chemical_formula_sum "Si O2"
_cell_formula_units_Z 50
_cell_length_a 8.572998
_cell_length_b 8.572998
_cell_length_c 31.327271
_cell_angle_alpha 90.000000
_cell_angle_beta 90.000000
_cell_angle_gamma 90.000000
_cell_volume 2302.438342
_symmetry_space_group_name_H-M "P 42/N"
_symmetry_group_IT_number 86
_space_group.IT_coordinate_system_code '2'
_symmetry_cell_setting 'tetragonal'
loop_
_space_group_symop_operation_xyz
x,y,z
-y,1/2+x,1/2+z
1/2-x,1/2-y,z
1/2+y,-x,1/2+z
-x,-y,-z
y,1/2-x,1/2-z
1/2+x,1/2+y,-z
1/2-y,x,1/2-z
loop_
_atom_site_type_symbol
_atom_site_label
_atom_site_fract_x
_atom_site_fract_y
_atom_site_fract_z
Si Si1 0.445790 0.491526 0.134975
Si Si2 0.250000 0.750000 0.587456
Si Si3 0.928164 0.209560 0.618046
Si Si4 0.987182 0.056346 0.707564
Si Si5 0.750000 0.750000 0.911475
Si Si6 0.213007 0.916920 0.213975
Si Si7 0.006745 0.961248 0.549170
Si Si8 0.750000 0.750000 0.250000
O O1 0.336036 0.624634 0.116401
O O2 0.627132 0.520375 0.124088
O O3 0.385126 0.325772 0.117646
O O4 0.421695 0.496473 0.186284
O O5 0.172364 0.881043 0.557886
O O6 0.750000 0.250000 0.609976
O O7 0.947565 0.100933 0.659305
O O8 0.994246 0.118568 0.577175
O O9 0.849140 0.114178 0.738292
O O10 0.154033 0.130111 0.720393
O O11 0.983350 0.870340 0.712452
O O12 0.836438 0.627608 0.941447
O O13 0.250000 0.750000 0.193043
O O14 0.000000 0.000000 0.500000
#
# Coordination Sequence:
#
# PCOD8303621 Si02
#       8
#     8   4   8   8   4   8   8   2
#     4  11  24  44  73 100 143 186 237 289 350 421
#     4  10  24  46  70 106 140 182 228 290 360 428
#     4  12  27  46  73 104 139 188 244 295 358 431
#     4  12  27  43  68  99 140 188 241 295 358 416
#     4  10  22  46  71 103 142 188 227 291 356 430
#     4  12  26  44  66 101 144 187 240 294 350 419
#     4  11  26  46  75 107 143 182 234 294 366 436
#     4  12  24  44  70 100 140 192 242 304 348 412
#
# _framework density 21.71611
#
# number of rings (size 3 to 8) (size 9 to 14) (size 15 to 20)
#    0.000    0.640    4.000    3.360    3.360    2.240 
#    0.000    3.200    0.000    0.000    0.000    0.000 
#    0.000    0.000    0.000    0.000    0.000    0.000 
#
# Total GULP energy -620234.930247 kJ/mol
# GULP energy per Si atom -12404.698605 kJ/mol
# Density = 2.166668 g / cm^3
# Si number density = 21.716110 Si / 1000 Ang^3
#
#
#
# Elastic Constant Matrix: (Units=GPa)
#
#
# Indices 1 2 3 4 5 6 
#
# 1 114.1831 17.9747 41.7334 0.0000 0.0000 -1.4552
# 2 17.9747 114.1831 41.7334 0.0000 0.0000 1.4552
# 3 41.7334 41.7334 156.0504 0.0000 0.0000 0.0000
# 4 0.0000 0.0000 0.0000 22.3071 0.0000 0.0000
# 5 0.0000 0.0000 0.0000 0.0000 22.3071 0.0000
# 6 -1.4552 1.4552 0.0000 0.0000 0.0000 37.5453
#
#
#
# Elastic Compliance Matrix: (Units=1/GPa)
#
#
# Indices 1 2 3 4 5 6 
#
# 1 0.009755 -0.000651 -0.002435 0.000000 0.000000 0.000403
# 2 -0.000651 0.009755 -0.002435 0.000000 0.000000 -0.000403
# 3 -0.002435 -0.002435 0.007711 0.000000 0.000000 0.000000
# 4 0.000000 0.000000 0.000000 0.044829 0.000000 0.000000
# 5 0.000000 0.000000 0.000000 0.000000 0.044829 0.000000
# 6 0.000403 -0.000403 0.000000 0.000000 0.000000 0.026666
#
#
# Mechanical properties :
#
#
# Convention : Reuss Voigt Hill
#
# Bulk Modulus (GPa) = 61.80448 65.25554 63.53001
# Shear Modulus (GPa) = 31.25401 35.29688 33.27545
#
# Velocity S-wave (km/s) = 3.79781 4.03597 3.91870
# Velocity P-wave (km/s) = 6.91036 7.19954 7.05643
#
# Compressibility (1/GPa) = 0.01618006
#
# Stress axis : x y z
#
# Youngs Moduli (GPa) = 102.50728 102.50728 129.69285
#
# Poissons Ratio (x) = 0.06672 0.31579
# Poissons Ratio (y) = 0.06672 0.31579
# Poissons Ratio (z) = 0.24959 0.24959
#
# Static dielectric constant tensor:
#      x y z
#    x 4.148430 0.000000 0.000000 
#    y 0.000000 4.148430 0.000000 
#    z 0.000000 0.000000 3.729610 
# 
# 
# High freq. dielectric constant tensor:
#      x y z
#    x 1.865370 0.000000 0.000000 
#    y 0.000000 1.865370 0.000000 
#    z 0.000000 0.000000 1.843440 
# 
# From -- ./inp_files/5275.got.cif
#   From: 2010.03.12/outbox.cif.g09.slc.cpg/sg86_3_cif.got.tgz:5275.got - 2010.04.08 20:12:58.
