data_PCOD8303788
_publ_section_title
;
Structure prediction by ZEFSAII (Michael W. Deem and Ramdas Pophale) SiO2 
 PCOD8303788
Probable space group: I 4/M
;
_chemical_formula_sum "Si O2"
_cell_formula_units_Z 104
_cell_length_a 20.497927
_cell_length_b 20.497927
_cell_length_c 14.068363
_cell_angle_alpha 90.000000
_cell_angle_beta 90.000000
_cell_angle_gamma 90.000000
_cell_volume 5911.033899
_symmetry_space_group_name_H-M "I 4/M"
_symmetry_group_IT_number 87
_symmetry_cell_setting 'tetragonal'
loop_
_space_group_symop_operation_xyz
x,y,z
-y,x,z
-x,-y,z
y,-x,z
-x,-y,-z
y,-x,-z
x,y,-z
-y,x,-z
1/2+x,1/2+y,1/2+z
1/2-y,1/2+x,1/2+z
1/2-x,1/2-y,1/2+z
1/2+y,1/2-x,1/2+z
1/2-x,1/2-y,1/2-z
1/2+y,1/2-x,1/2-z
1/2+x,1/2+y,1/2-z
1/2-y,1/2+x,1/2-z
loop_
_atom_site_type_symbol
_atom_site_label
_atom_site_fract_x
_atom_site_fract_y
_atom_site_fract_z
Si Si1 0.627958 0.224315 0.607386
Si Si2 0.795763 0.475991 0.606694
Si Si3 0.100704 0.535886 0.247479
Si Si4 0.412760 0.653094 0.697667
Si Si5 0.901650 0.956860 0.000000
Si Si6 0.800745 0.406692 0.112009
Si Si7 0.451163 0.310260 0.246620
O O1 0.644451 0.247079 0.500000
O O2 0.553986 0.198437 0.612235
O O3 0.634691 0.284173 0.682382
O O4 0.678269 0.167464 0.637744
O O5 0.795063 0.449621 0.500000
O O6 0.858074 0.445465 0.659288
O O7 0.731231 0.448080 0.656638
O O8 0.082444 0.460673 0.252617
O O9 0.143915 0.545258 0.153008
O O10 0.441950 0.639774 0.593312
O O11 0.473343 0.668037 0.768798
O O12 0.374136 0.593163 0.742506
O O13 0.966711 0.915001 0.000000
O O14 0.730875 0.424552 0.157243
O O15 0.796428 0.417714 0.000000
#
# Coordination Sequence:
#
# PCOD8303788 Si02
#       7
#    16  16  16  16   8  16  16
#     4   9  17  30  54  75 102 145 184 216 271 332
#     4   9  18  32  49  75 111 142 175 219 273 337
#     4  10  19  31  52  82 110 140 182 230 283 333
#     4  11  20  34  55  86 119 146 180 227 292 342
#     4  11  20  30  52  90 128 152 169 221 293 372
#     4  10  21  40  56  76 107 153 198 233 268 327
#     4  10  23  35  55  83 111 147 187 233 281 342
#
# _framework density 17.594215999999999
#
# number of rings (size 3 to 8) (size 9 to 14) (size 15 to 20)
#    0.000    2.077    3.846    0.000    2.154    1.538 
#    0.000    2.308    0.000    0.000    0.000    1.077 
#    0.000    0.000    0.000    0.000    0.000    0.000 
#
# Total GULP energy -644713.811195 kJ/mol
# GULP energy per Si atom -12398.342523 kJ/mol
# Density = 1.755417 g / cm^3
# Si number density = 17.594216 Si / 1000 Ang^3
#
#
#
# Elastic Constant Matrix: (Units=GPa)
#
#
# Indices 1 2 3 4 5 6 
#
# 1 55.5735 70.7449 37.7798 0.0000 0.0000 34.2166
# 2 70.7449 55.5735 37.7798 0.0000 0.0000 -34.2166
# 3 37.7798 37.7798 89.9244 0.0000 0.0000 0.0000
# 4 0.0000 0.0000 0.0000 17.7634 0.0000 0.0000
# 5 0.0000 0.0000 0.0000 0.0000 17.7634 0.0000
# 6 34.2166 -34.2166 0.0000 0.0000 0.0000 2.5809
#
#
#
# Elastic Compliance Matrix: (Units=1/GPa)
#
#
# Indices 1 2 3 4 5 6 
#
# 1 0.004745 0.005829 -0.004442 0.000000 0.000000 0.014372
# 2 0.005829 0.004745 -0.004442 0.000000 0.000000 -0.014372
# 3 -0.004442 -0.004442 0.014853 0.000000 0.000000 0.000000
# 4 0.000000 0.000000 0.000000 0.056296 0.000000 0.000000
# 5 0.000000 0.000000 0.000000 0.000000 0.056296 0.000000
# 6 0.014372 -0.014372 0.000000 0.000000 0.000000 0.006373
#
#
# Mechanical properties :
#
#
# Convention : Reuss Voigt Hill
#
# Bulk Modulus (GPa) = 54.85065 54.85340 54.85202
# Shear Modulus (GPa) = 32.15532 11.27265 21.71399
#
# Velocity S-wave (km/s) = 4.27969 2.53396 3.51687
# Velocity P-wave (km/s) = 7.46084 6.30919 6.90905
#
# Compressibility (1/GPa) = 0.01823133
#
# Stress axis : x y z
#
# Youngs Moduli (GPa) = 210.75523 210.75523 67.32573
#
# Poissons Ratio (x) = -1.22848 0.29908
# Poissons Ratio (y) = -1.22848 0.29908
# Poissons Ratio (z) = 0.93625 0.93625
#
# Static dielectric constant tensor:
#      x y z
#    x 3.264050 0.000000 0.000000 
#    y 0.000000 3.264050 0.000000 
#    z 0.000000 0.000000 3.115020 
# 
# 
# High freq. dielectric constant tensor:
#      x y z
#    x 1.678200 0.000000 0.000000 
#    y 0.000000 1.678200 0.000000 
#    z 0.000000 0.000000 1.656170 
# 
# From -- ./inp_files/3828.got.cif
#   From: 2010.03.12/outbox.cif.g09.slc.cpg/sg87_2_cif.got.tgz:3828.got - 2010.04.08 20:16:13.
