data_PCOD8303209
_publ_section_title
;
Structure prediction by ZEFSAII (Michael W. Deem and Ramdas Pophale) SiO2 
 PCOD8303209
Probable space group: P 42/M
;
_chemical_formula_sum "Si O2"
_cell_formula_units_Z 48
_cell_length_a 17.021181
_cell_length_b 17.021181
_cell_length_c 8.521566
_cell_angle_alpha 90.000000
_cell_angle_beta 90.000000
_cell_angle_gamma 90.000000
_cell_volume 2468.873237
_symmetry_space_group_name_H-M "P 42/M"
_symmetry_group_IT_number 84
_symmetry_cell_setting 'tetragonal'
loop_
_space_group_symop_operation_xyz
x,y,z
-y,x,1/2+z
-x,-y,z
y,-x,1/2+z
-x,-y,-z
y,-x,1/2-z
x,y,-z
-y,x,1/2-z
loop_
_atom_site_type_symbol
_atom_site_label
_atom_site_fract_x
_atom_site_fract_y
_atom_site_fract_z
Si Si1 0.251369 0.661471 0.684801
Si Si2 0.928326 0.905374 0.184754
Si Si3 0.430151 0.105326 0.314531
Si Si4 0.397374 0.931613 0.686010
Si Si5 0.597188 0.430938 0.685592
Si Si6 0.837784 0.751253 0.812889
O O1 0.257733 0.666444 0.500000
O O2 0.172754 0.616761 0.728504
O O3 0.327019 0.615306 0.750371
O O4 0.249808 0.749455 0.755048
O O5 0.880651 0.829968 0.245430
O O6 0.019766 0.893239 0.224916
O O7 0.918727 0.918589 0.000000
O O8 0.422535 0.116535 0.500000
O O9 0.521192 0.108832 0.260215
O O10 0.393713 0.022180 0.258919
O O11 0.394662 0.930569 0.500000
O O12 0.324020 0.883899 0.757443
O O13 0.521977 0.393120 0.769875
O O14 0.586555 0.422633 0.500000
O O15 0.838280 0.747804 0.000000
#
# Coordination Sequence:
#
# PCOD8303209 Si02
#       6
#     8   8   8   8   8   8
#     4  10  22  36  53  80 111 142 175 214 266 321
#     4  10  20  35  56  78 105 140 177 218 264 314
#     4   9  18  33  58  83 103 134 178 224 260 307
#     4   8  16  33  55  80 104 135 179 217 260 314
#     4  10  21  37  58  81 108 142 180 220 266 319
#     4   9  19  34  53  76 107 143 174 211 263 318
#
# _framework density 19.442066000000001
#
# number of rings (size 3 to 8) (size 9 to 14) (size 15 to 20)
#    0.000    2.667    0.000    3.000    4.667    1.333 
#    0.000    2.500    0.000    3.000    0.000    0.000 
#    0.000    0.000    0.000    0.000    0.000    0.000 
#
# Total GULP energy -595157.867748 kJ/mol
# GULP energy per Si atom -12399.122245 kJ/mol
# Density = 1.939782 g / cm^3
# Si number density = 19.442066 Si / 1000 Ang^3
#
#
#
# Elastic Constant Matrix: (Units=GPa)
#
#
# Indices 1 2 3 4 5 6 
#
# 1 160.8765 110.8724 4.6572 0.0000 0.0000 -1.6544
# 2 110.8724 160.8765 4.6572 0.0000 0.0000 1.6544
# 3 4.6572 4.6572 15.2252 0.0000 0.0000 0.0000
# 4 0.0000 0.0000 0.0000 22.1262 0.0000 0.0000
# 5 0.0000 0.0000 0.0000 0.0000 22.1262 0.0000
# 6 -1.6544 1.6544 0.0000 0.0000 0.0000 39.0999
#
#
#
# Elastic Compliance Matrix: (Units=1/GPa)
#
#
# Indices 1 2 3 4 5 6 
#
# 1 0.011887 -0.008168 -0.001138 0.000000 0.000000 0.000849
# 2 -0.008168 0.011887 -0.001138 0.000000 0.000000 -0.000849
# 3 -0.001138 -0.001138 0.066377 0.000000 0.000000 0.000000
# 4 0.000000 0.000000 0.000000 0.045195 0.000000 0.000000
# 5 0.000000 0.000000 0.000000 0.000000 0.045195 0.000000
# 6 0.000849 -0.000849 0.000000 0.000000 0.000000 0.025647
#
#
# Mechanical properties :
#
#
# Convention : Reuss Voigt Hill
#
# Bulk Modulus (GPa) = 14.43749 64.15020 39.29384
# Shear Modulus (GPa) = 19.98708 31.12324 25.55516
#
# Velocity S-wave (km/s) = 3.20977 4.00536 3.62943
# Velocity P-wave (km/s) = 4.60205 7.37955 6.14966
#
# Compressibility (1/GPa) = 0.06926411
#
# Stress axis : x y z
#
# Youngs Moduli (GPa) = 84.12783 84.12783 15.06555
#
# Poissons Ratio (x) = 0.68714 0.01714
# Poissons Ratio (y) = 0.68714 0.01714
# Poissons Ratio (z) = 0.09570 0.09570
#
# Static dielectric constant tensor:
#      x y z
#    x 3.830850 0.000000 0.000000 
#    y 0.000000 3.830850 0.000000 
#    z 0.000000 0.000000 3.133820 
# 
# 
# High freq. dielectric constant tensor:
#      x y z
#    x 1.767430 0.000000 0.000000 
#    y 0.000000 1.767430 0.000000 
#    z 0.000000 0.000000 1.720310 
# 
# From -- ./inp_files/993.got.cif
#   From: 2010.03.12/outbox.cif.g09.slc.cpg/sg84_1_cif.got.tgz:993.got - 2010.04.08 20:07:29.
