data_PCOD8303622
_publ_section_title
;
Structure prediction by ZEFSAII (Michael W. Deem and Ramdas Pophale) SiO2 
 PCOD8303622
Probable space group: P 42/N
;
_chemical_formula_sum "Si O2"
_cell_formula_units_Z 48
_cell_length_a 11.709633
_cell_length_b 11.709633
_cell_length_c 17.057153
_cell_angle_alpha 90.000000
_cell_angle_beta 90.000000
_cell_angle_gamma 90.000000
_cell_volume 2338.800147
_symmetry_space_group_name_H-M "P 42/N"
_symmetry_group_IT_number 86
_space_group.IT_coordinate_system_code '2'
_symmetry_cell_setting 'tetragonal'
loop_
_space_group_symop_operation_xyz
x,y,z
-y,1/2+x,1/2+z
1/2-x,1/2-y,z
1/2+y,-x,1/2+z
-x,-y,-z
y,1/2-x,1/2-z
1/2+x,1/2+y,-z
1/2-y,x,1/2-z
loop_
_atom_site_type_symbol
_atom_site_label
_atom_site_fract_x
_atom_site_fract_y
_atom_site_fract_z
Si Si1 0.349677 0.969831 0.443298
Si Si2 0.870132 0.303539 0.688998
Si Si3 0.875085 0.697708 0.847839
Si Si4 0.482345 0.715602 0.702218
Si Si5 0.932516 0.082878 0.889476
Si Si6 0.577874 0.694710 0.241392
O O1 0.368873 0.850304 0.399006
O O2 0.335646 0.937761 0.534401
O O3 0.237177 0.037891 0.415883
O O4 0.455071 0.051871 0.421251
O O5 0.750000 0.250000 0.709053
O O6 0.877950 0.404487 0.753556
O O7 0.972181 0.212516 0.698813
O O8 0.750000 0.750000 0.858034
O O9 0.931027 0.724203 0.763347
O O10 0.859438 0.560772 0.856213
O O11 0.409333 0.811416 0.655390
O O12 0.036193 0.123625 0.834028
O O13 0.624762 0.820477 0.216497
#
# Coordination Sequence:
#
# PCOD8303622 Si02
#       6
#     8   8   8   8   8   8
#     4  10  23  38  59  89 134 163 200 257 320 382
#     4  11  22  40  67  91 117 166 208 265 321 364
#     4  11  18  33  59  96 120 153 203 266 315 362
#     4  11  19  33  64  92 121 153 211 268 311 368
#     4  11  21  41  60  90 128 166 207 256 316 372
#     4  11  24  43  64  89 124 170 221 256 300 387
#
# _framework density 20.523344000000002
#
# number of rings (size 3 to 8) (size 9 to 14) (size 15 to 20)
#    0.000    1.167    6.667    1.000    0.000    0.000 
#    9.000    0.000    0.000    2.000    0.000    0.000 
#    0.000    0.000    0.000    0.000    0.000    0.000 
#
# Total GULP energy -595010.250532 kJ/mol
# GULP energy per Si atom -12396.046886 kJ/mol
# Density = 2.047663 g / cm^3
# Si number density = 20.523344 Si / 1000 Ang^3
#
#
#
# Elastic Constant Matrix: (Units=GPa)
#
#
# Indices 1 2 3 4 5 6 
#
# 1 59.2299 8.7872 19.9549 0.0000 0.0000 -2.4873
# 2 8.7872 59.2299 19.9549 0.0000 0.0000 2.4873
# 3 19.9549 19.9549 95.4630 0.0000 0.0000 0.0000
# 4 0.0000 0.0000 0.0000 22.3667 0.0000 0.0000
# 5 0.0000 0.0000 0.0000 0.0000 22.3667 0.0000
# 6 -2.4873 2.4873 0.0000 0.0000 0.0000 36.2312
#
#
#
# Elastic Compliance Matrix: (Units=1/GPa)
#
#
# Indices 1 2 3 4 5 6 
#
# 1 0.018359 -0.001601 -0.003503 0.000000 0.000000 0.001370
# 2 -0.001601 0.018359 -0.003503 0.000000 0.000000 -0.001370
# 3 -0.003503 -0.003503 0.011940 0.000000 0.000000 0.000000
# 4 0.000000 0.000000 0.000000 0.044709 0.000000 0.000000
# 5 0.000000 0.000000 0.000000 0.000000 0.044709 0.000000
# 6 0.001370 -0.001370 0.000000 0.000000 0.000000 0.027789
#
#
# Mechanical properties :
#
#
# Convention : Reuss Voigt Hill
#
# Bulk Modulus (GPa) = 31.80332 34.59075 33.19703
# Shear Modulus (GPa) = 25.83196 27.20799 26.51998
#
# Velocity S-wave (km/s) = 3.55161 3.64498 3.59860
# Velocity P-wave (km/s) = 5.68757 5.88264 5.78592
#
# Compressibility (1/GPa) = 0.03144326
#
# Stress axis : x y z
#
# Youngs Moduli (GPa) = 54.47048 54.47048 83.75428
#
# Poissons Ratio (x) = 0.08721 0.29338
# Poissons Ratio (y) = 0.08721 0.29338
# Poissons Ratio (z) = 0.19080 0.19080
#
# Static dielectric constant tensor:
#      x y z
#    x 4.048500 0.000000 0.000000 
#    y 0.000000 4.048500 0.000000 
#    z 0.000000 0.000000 3.535740 
# 
# 
# High freq. dielectric constant tensor:
#      x y z
#    x 1.804880 0.000000 0.000000 
#    y 0.000000 1.804880 0.000000 
#    z 0.000000 0.000000 1.766470 
# 
# From -- ./inp_files/3550.got.cif
#   From: 2010.03.12/outbox.cif.g09.slc.cpg/sg86_2_cif.got.tgz:3550.got - 2010.04.08 20:12:58.
