data_PCOD8303487
_publ_section_title
;
Structure prediction by ZEFSAII (Michael W. Deem and Ramdas Pophale) SiO2 
 PCOD8303487
Probable space group: P 42/N
;
_chemical_formula_sum "Si O2"
_cell_formula_units_Z 48
_cell_length_a 9.406056
_cell_length_b 9.406056
_cell_length_c 27.315894
_cell_angle_alpha 90.000000
_cell_angle_beta 90.000000
_cell_angle_gamma 90.000000
_cell_volume 2416.743387
_symmetry_space_group_name_H-M "P 42/N"
_symmetry_group_IT_number 86
_space_group.IT_coordinate_system_code '2'
_symmetry_cell_setting 'tetragonal'
loop_
_space_group_symop_operation_xyz
x,y,z
-y,1/2+x,1/2+z
1/2-x,1/2-y,z
1/2+y,-x,1/2+z
-x,-y,-z
y,1/2-x,1/2-z
1/2+x,1/2+y,-z
1/2-y,x,1/2-z
loop_
_atom_site_type_symbol
_atom_site_label
_atom_site_fract_x
_atom_site_fract_y
_atom_site_fract_z
Si Si1 0.474568 0.414671 0.800838
Si Si2 0.413991 0.278542 0.632970
Si Si3 0.830990 0.397401 0.042476
Si Si4 0.094784 0.977027 0.703073
Si Si5 0.909594 0.266546 0.365557
Si Si6 0.104198 0.164141 0.452062
O O1 0.322765 0.457696 0.822527
O O2 0.503265 0.505533 0.751423
O O3 0.477592 0.253400 0.782075
O O4 0.575174 0.442470 0.847503
O O5 0.250000 0.250000 0.616728
O O6 0.516745 0.259707 0.586904
O O7 0.444434 0.434874 0.654234
O O8 0.750000 0.250000 0.034817
O O9 0.996734 0.363395 0.051429
O O10 0.805520 0.494567 0.995359
O O11 0.083244 0.815622 0.686133
O O12 0.750000 0.250000 0.388513
O O13 0.030421 0.219038 0.402725
O O14 0.250000 0.250000 0.460779
#
# Coordination Sequence:
#
# PCOD8303487 Si02
#       6
#     8   8   8   8   8   8
#     4  10  20  34  62  90 122 169 214 259 307 366
#     4  10  20  37  66  92 123 161 215 263 306 359
#     4  11  25  45  67  97 122 162 210 259 310 379
#     4  10  18  37  58  88 125 164 216 258 309 364
#     4  10  22  41  62  90 125 170 204 257 322 371
#     4  11  25  46  67  91 131 161 202 259 321 376
#
# _framework density 19.861440000000002
#
# number of rings (size 3 to 8) (size 9 to 14) (size 15 to 20)
#    0.000    1.667    3.333    1.000    2.333    0.667 
#    6.000    0.000    0.000    0.000    0.000    0.000 
#    0.000    0.000    0.000    0.000    0.000    0.000 
#
# Total GULP energy -595018.863609 kJ/mol
# GULP energy per Si atom -12396.226325 kJ/mol
# Density = 1.981623 g / cm^3
# Si number density = 19.861440 Si / 1000 Ang^3
#
#
#
# Elastic Constant Matrix: (Units=GPa)
#
#
# Indices 1 2 3 4 5 6 
#
# 1 83.0566 48.5875 38.3157 0.0000 0.0000 -0.5987
# 2 48.5875 83.0566 38.3157 0.0000 0.0000 0.5987
# 3 38.3157 38.3157 98.8093 0.0000 0.0000 0.0000
# 4 0.0000 0.0000 0.0000 14.6768 0.0000 0.0000
# 5 0.0000 0.0000 0.0000 0.0000 14.6768 0.0000
# 6 -0.5987 0.5987 0.0000 0.0000 0.0000 29.9842
#
#
#
# Elastic Compliance Matrix: (Units=1/GPa)
#
#
# Indices 1 2 3 4 5 6 
#
# 1 0.019421 -0.009610 -0.003804 0.000000 0.000000 0.000580
# 2 -0.009610 0.019421 -0.003804 0.000000 0.000000 -0.000580
# 3 -0.003804 -0.003804 0.013071 0.000000 0.000000 0.000000
# 4 0.000000 0.000000 0.000000 0.068135 0.000000 0.000000
# 5 0.000000 0.000000 0.000000 0.000000 0.068135 0.000000
# 6 0.000580 -0.000580 0.000000 0.000000 0.000000 0.033374
#
#
# Mechanical properties :
#
#
# Convention : Reuss Voigt Hill
#
# Bulk Modulus (GPa) = 57.22434 57.26227 57.24331
# Shear Modulus (GPa) = 19.09711 21.18117 20.13914
#
# Velocity S-wave (km/s) = 3.10420 3.26919 3.18776
# Velocity P-wave (km/s) = 6.45929 6.56838 6.51406
#
# Compressibility (1/GPa) = 0.01747508
#
# Stress axis : x y z
#
# Youngs Moduli (GPa) = 51.49014 51.49014 76.50536
#
# Poissons Ratio (x) = 0.49484 0.29106
# Poissons Ratio (y) = 0.49484 0.29106
# Poissons Ratio (z) = 0.19589 0.19589
#
# Static dielectric constant tensor:
#      x y z
#    x 3.535680 0.000000 0.000000 
#    y 0.000000 3.535680 0.000000 
#    z 0.000000 0.000000 3.503750 
# 
# 
# High freq. dielectric constant tensor:
#      x y z
#    x 1.767330 0.000000 0.000000 
#    y 0.000000 1.767330 0.000000 
#    z 0.000000 0.000000 1.783190 
# 
# From -- ./inp_files/5122.got.cif
#   From: 2010.03.12/outbox.cif.g09.slc.cpg/sg86_3_cif.got.tgz:5122.got - 2010.04.08 20:12:58.
