data_PCOD8303008
_publ_section_title
;
Structure prediction by ZEFSAII (Michael W. Deem and Ramdas Pophale) SiO2 
 PCOD8303008
Probable space group: P 4/M
;
_chemical_formula_sum "Si O2"
_cell_formula_units_Z 48
_cell_length_a 8.149564
_cell_length_b 8.149564
_cell_length_c 32.223498
_cell_angle_alpha 90.000000
_cell_angle_beta 90.000000
_cell_angle_gamma 90.000000
_cell_volume 2140.136296
_symmetry_space_group_name_H-M "P 4/M"
_symmetry_group_IT_number 83
_symmetry_cell_setting 'tetragonal'
loop_
_space_group_symop_operation_xyz
x,y,z
-y,x,z
-x,-y,z
y,-x,z
-x,-y,-z
y,-x,-z
x,y,-z
-y,x,-z
loop_
_atom_site_type_symbol
_atom_site_label
_atom_site_fract_x
_atom_site_fract_y
_atom_site_fract_z
Si Si1 0.105379 0.247660 0.046941
Si Si2 0.000000 0.500000 0.266737
Si Si3 0.759993 0.424138 0.334972
Si Si4 0.412259 0.755152 0.876833
Si Si5 0.742521 0.909187 0.589503
Si Si6 0.260166 0.923307 0.801556
Si Si7 0.746728 0.908026 0.500000
O O1 0.166170 0.389684 0.077642
O O2 0.915516 0.210255 0.055289
O O3 0.131492 0.310703 0.000000
O O4 0.875620 0.394747 0.295210
O O5 0.894666 0.624707 0.238360
O O6 0.701945 0.611022 0.333807
O O7 0.864578 0.393327 0.376518
O O8 0.294202 0.599593 0.871069
O O9 0.365234 0.891438 0.842915
O O10 0.655435 0.876182 0.544075
O O11 0.902239 0.794913 0.594717
O O12 0.110360 0.797951 0.800684
O O13 0.904122 0.795102 0.500000
#
# Coordination Sequence:
#
# PCOD8303008 Si02
#       7
#     8   4   8   8   8   8   4
#     4   9  19  37  61  89 121 159 205 254 300 348
#     4  12  24  44  66  87 115 152 194 240 294 358
#     4  11  24  40  59  86 121 157 192 237 295 353
#     4  11  24  40  59  87 125 164 200 244 300 357
#     4   9  17  33  59  88 118 155 198 241 285 341
#     4  11  24  42  66  93 117 147 193 246 295 350
#     4   7  12  26  52  85 116 149 194 242 284 331
#
# _framework density 22.428481000000001
#
# number of rings (size 3 to 8) (size 9 to 14) (size 15 to 20)
#    0.000    1.917    0.000    5.500    0.000    4.000 
#    0.000    6.667    0.000    4.500    0.000    0.000 
#    0.000    0.000    0.000    0.000    0.000    0.000 
#
# Total GULP energy -595140.268384 kJ/mol
# GULP energy per Si atom -12398.755591 kJ/mol
# Density = 2.237743 g / cm^3
# Si number density = 22.428481 Si / 1000 Ang^3
#
#
#
# Elastic Constant Matrix: (Units=GPa)
#
#
# Indices 1 2 3 4 5 6 
#
# 1 75.7354 27.5283 55.9707 0.0000 0.0000 5.0685
# 2 27.5283 75.7354 55.9707 0.0000 0.0000 -5.0685
# 3 55.9707 55.9707 201.1434 0.0000 0.0000 0.0000
# 4 0.0000 0.0000 0.0000 33.1545 0.0000 0.0000
# 5 0.0000 0.0000 0.0000 0.0000 33.1545 0.0000
# 6 5.0685 -5.0685 0.0000 0.0000 0.0000 35.1073
#
#
#
# Elastic Compliance Matrix: (Units=1/GPa)
#
#
# Indices 1 2 3 4 5 6 
#
# 1 0.017630 -0.003763 -0.003859 0.000000 0.000000 -0.003089
# 2 -0.003763 0.017630 -0.003859 0.000000 0.000000 0.003089
# 3 -0.003859 -0.003859 0.007119 0.000000 0.000000 0.000000
# 4 0.000000 0.000000 0.000000 0.030162 0.000000 0.000000
# 5 0.000000 0.000000 0.000000 0.000000 0.030162 0.000000
# 6 -0.003089 0.003089 0.000000 0.000000 0.000000 0.029376
#
#
# Mechanical properties :
#
#
# Convention : Reuss Voigt Hill
#
# Bulk Modulus (GPa) = 51.49820 70.17265 60.83542
# Shear Modulus (GPa) = 30.95740 34.49290 32.72515
#
# Velocity S-wave (km/s) = 3.71923 3.92587 3.82395
# Velocity P-wave (km/s) = 6.43852 7.20452 6.83226
#
# Compressibility (1/GPa) = 0.01941816
#
# Stress axis : x y z
#
# Youngs Moduli (GPa) = 56.72134 56.72134 140.46922
#
# Poissons Ratio (x) = 0.21346 0.54202
# Poissons Ratio (y) = 0.21346 0.54202
# Poissons Ratio (z) = 0.21887 0.21887
#
# Static dielectric constant tensor:
#      x y z
#    x 3.838300 0.000000 0.000000 
#    y 0.000000 3.838300 0.000000 
#    z 0.000000 0.000000 4.281080 
# 
# 
# High freq. dielectric constant tensor:
#      x y z
#    x 1.875660 0.000000 0.000000 
#    y 0.000000 1.875660 0.000000 
#    z 0.000000 0.000000 1.898960 
# 
# From -- ./inp_files/3499.got.cif
#   From: 2010.03.12/outbox.cif.g09.slc.cpg/sg83_2_cif.got.tgz:3499.got - 2010.04.08 20:05:18.
