data_PCOD8303869
_publ_section_title
;
Structure prediction by ZEFSAII (Michael W. Deem and Ramdas Pophale) SiO2 
 PCOD8303869
Probable space group: I 4/M
;
_chemical_formula_sum "Si O2"
_cell_formula_units_Z 96
_cell_length_a 23.668565
_cell_length_b 23.668565
_cell_length_c 8.930788
_cell_angle_alpha 90.000000
_cell_angle_beta 90.000000
_cell_angle_gamma 90.000000
_cell_volume 5003.036093
_symmetry_space_group_name_H-M "I 4/M"
_symmetry_group_IT_number 87
_symmetry_cell_setting 'tetragonal'
loop_
_space_group_symop_operation_xyz
x,y,z
-y,x,z
-x,-y,z
y,-x,z
-x,-y,-z
y,-x,-z
x,y,-z
-y,x,-z
1/2+x,1/2+y,1/2+z
1/2-y,1/2+x,1/2+z
1/2-x,1/2-y,1/2+z
1/2+y,1/2-x,1/2+z
1/2-x,1/2-y,1/2-z
1/2+y,1/2-x,1/2-z
1/2+x,1/2+y,1/2-z
1/2-y,1/2+x,1/2-z
loop_
_atom_site_type_symbol
_atom_site_label
_atom_site_fract_x
_atom_site_fract_y
_atom_site_fract_z
Si Si1 0.302625 0.805257 0.170727
Si Si2 0.817314 0.428412 0.328981
Si Si3 0.081654 0.518392 0.822035
Si Si4 0.313953 0.573832 0.674130
Si Si5 0.315329 0.312109 0.169997
Si Si6 0.014771 0.088921 0.676187
O O1 0.338276 0.863053 0.189456
O O2 0.339813 0.747630 0.194928
O O3 0.253711 0.806473 0.293973
O O4 0.277296 0.804789 0.000000
O O5 0.825705 0.448569 0.500000
O O6 0.853705 0.467638 0.219253
O O7 0.751625 0.433485 0.281160
O O8 0.042216 0.565996 0.746937
O O9 0.073238 0.517204 0.000000
O O10 0.323029 0.570064 0.500000
O O11 0.337667 0.635108 0.727784
O O12 0.350348 0.524092 0.748340
O O13 0.335549 0.319821 0.000000
O O14 0.015894 0.097044 0.500000
O O15 0.954386 0.064109 0.726781
#
# Coordination Sequence:
#
# PCOD8303869 Si02
#       6
#    16  16  16  16  16  16
#     4   8  15  27  44  68 100 137 173 211 255 304
#     4   9  18  34  53  77 110 141 173 216 263 310
#     4  11  22  38  60  82 104 135 175 216 260 310
#     4  10  20  33  52  79 111 143 174 216 267 314
#     4   9  15  25  44  69  99 137 177 212 252 306
#     4   9  19  37  59  80 103 135 177 222 265 312
#
# _framework density 19.188347
#
# number of rings (size 3 to 8) (size 9 to 14) (size 15 to 20)
#    0.000    2.667    0.000    4.500    0.000    4.667 
#    0.000    2.500    0.000    2.000    0.000    0.000 
#    0.000    0.000    0.000    0.000    0.000    0.000 
#
# Total GULP energy -594780.618067 kJ/mol
# GULP energy per Si atom -12391.262876 kJ/mol
# Density = 1.914467 g / cm^3
# Si number density = 19.188347 Si / 1000 Ang^3
#
#
#
# Elastic Constant Matrix: (Units=GPa)
#
#
# Indices 1 2 3 4 5 6 
#
# 1 70.0268 39.0788 37.0865 0.0000 0.0000 0.4221
# 2 39.0788 70.0268 37.0865 0.0000 0.0000 -0.4221
# 3 37.0865 37.0865 83.4157 0.0000 0.0000 0.0000
# 4 0.0000 0.0000 0.0000 26.3793 0.0000 0.0000
# 5 0.0000 0.0000 0.0000 0.0000 26.3793 0.0000
# 6 0.4221 -0.4221 0.0000 0.0000 0.0000 24.1081
#
#
#
# Elastic Compliance Matrix: (Units=1/GPa)
#
#
# Indices 1 2 3 4 5 6 
#
# 1 0.022732 -0.009596 -0.005840 0.000000 0.000000 -0.000566
# 2 -0.009596 0.022732 -0.005840 0.000000 0.000000 0.000566
# 3 -0.005840 -0.005840 0.017181 0.000000 0.000000 0.000000
# 4 0.000000 0.000000 0.000000 0.037909 0.000000 0.000000
# 5 0.000000 0.000000 0.000000 0.000000 0.037909 0.000000
# 6 -0.000566 0.000566 0.000000 0.000000 0.000000 0.041500
#
#
# Mechanical properties :
#
#
# Convention : Reuss Voigt Hill
#
# Bulk Modulus (GPa) = 49.77079 49.99700 49.88390
# Shear Modulus (GPa) = 21.81394 22.72116 22.26755
#
# Velocity S-wave (km/s) = 3.37535 3.44483 3.41027
# Velocity P-wave (km/s) = 6.41756 6.47572 6.44670
#
# Compressibility (1/GPa) = 0.02009211
#
# Stress axis : x y z
#
# Youngs Moduli (GPa) = 43.99144 43.99144 58.20327
#
# Poissons Ratio (x) = 0.42214 0.33991
# Poissons Ratio (y) = 0.42214 0.33991
# Poissons Ratio (z) = 0.25692 0.25692
#
# Static dielectric constant tensor:
#      x y z
#    x 3.463980 0.000000 0.000000 
#    y 0.000000 3.463980 0.000000 
#    z 0.000000 0.000000 3.437050 
# 
# 
# High freq. dielectric constant tensor:
#      x y z
#    x 1.726360 0.000000 0.000000 
#    y 0.000000 1.726360 0.000000 
#    z 0.000000 0.000000 1.748220 
# 
# From -- ./inp_files/1382.got.cif
#   From: 2010.03.12/outbox.cif.g09.slc.cpg/sg87_1_cif.got.tgz:1382.got - 2010.04.08 20:16:13.
