data_PCOD8303481
_publ_section_title
;
Structure prediction by ZEFSAII (Michael W. Deem and Ramdas Pophale) SiO2 
 PCOD8303481
Probable space group: P 42/N
;
_chemical_formula_sum "Si O2"
_cell_formula_units_Z 64
_cell_length_a 21.640201
_cell_length_b 21.640201
_cell_length_c 8.461650
_cell_angle_alpha 90.000000
_cell_angle_beta 90.000000
_cell_angle_gamma 90.000000
_cell_volume 3962.576304
_symmetry_space_group_name_H-M "P 42/N"
_symmetry_group_IT_number 86
_space_group.IT_coordinate_system_code '2'
_symmetry_cell_setting 'tetragonal'
loop_
_space_group_symop_operation_xyz
x,y,z
-y,1/2+x,1/2+z
1/2-x,1/2-y,z
1/2+y,-x,1/2+z
-x,-y,-z
y,1/2-x,1/2-z
1/2+x,1/2+y,-z
1/2-y,x,1/2-z
loop_
_atom_site_type_symbol
_atom_site_label
_atom_site_fract_x
_atom_site_fract_y
_atom_site_fract_z
Si Si1 0.987762 0.095939 0.059760
Si Si2 0.097851 0.008439 0.075837
Si Si3 0.601916 0.396957 0.330859
Si Si4 0.368242 0.731563 0.530892
Si Si5 0.039227 0.771320 0.061740
Si Si6 0.839244 0.178841 0.790183
Si Si7 0.949877 0.350112 0.137285
Si Si8 0.698721 0.467421 0.140223
O O1 0.962931 0.095131 0.240387
O O2 0.993851 0.165708 0.993091
O O3 0.943390 0.053098 0.952850
O O4 0.056914 0.069620 0.060319
O O5 0.126003 0.006422 0.254023
O O6 0.152824 0.016264 0.944833
O O7 0.613953 0.326054 0.363747
O O8 0.603742 0.439413 0.488445
O O9 0.658112 0.413856 0.217809
O O10 0.332207 0.714468 0.372806
O O11 0.319590 0.774172 0.621713
O O12 0.434684 0.762412 0.497048
O O13 0.038467 0.719986 0.922987
O O14 0.109992 0.788367 0.099978
O O15 0.005413 0.743537 0.220599
O O16 0.855721 0.107937 0.754738
#
# Coordination Sequence:
#
# PCOD8303481 Si02
#       8
#     8   8   8   8   8   8   8   8
#     4  10  19  32  51  75  96 126 167 206 248 302
#     4  10  19  33  52  69  99 129 162 208 252 296
#     4   9  19  31  46  69  94 130 167 199 249 285
#     4  10  18  30  47  60  92 128 164 211 233 282
#     4  10  19  32  51  66  95 131 163 202 241 300
#     4  10  18  31  44  64  88 128 172 195 239 277
#     4  10  18  32  49  66  98 132 160 205 248 289
#     4   9  18  33  47  65  92 130 162 195 252 289
#
# _framework density 16.151109000000002
#
# number of rings (size 3 to 8) (size 9 to 14) (size 15 to 20)
#    0.000    2.250    2.500    1.500    0.000    0.500 
#    0.000   18.750    0.000    0.000    0.000    0.000 
#    0.000    3.000    0.000    0.000    0.000    0.000 
#
# Total GULP energy -793216.660320 kJ/mol
# GULP energy per Si atom -12394.010317 kJ/mol
# Density = 1.611435 g / cm^3
# Si number density = 16.151109 Si / 1000 Ang^3
#
#
#
# Elastic Constant Matrix: (Units=GPa)
#
#
# Indices 1 2 3 4 5 6 
#
# 1 75.0470 47.9202 50.1938 0.0000 0.0000 -3.9123
# 2 47.9202 75.0470 50.1938 0.0000 0.0000 3.9123
# 3 50.1938 50.1938 91.2679 0.0000 0.0000 0.0000
# 4 0.0000 0.0000 0.0000 20.7964 0.0000 0.0000
# 5 0.0000 0.0000 0.0000 0.0000 20.7964 0.0000
# 6 -3.9123 3.9123 0.0000 0.0000 0.0000 22.9827
#
#
#
# Elastic Compliance Matrix: (Units=1/GPa)
#
#
# Indices 1 2 3 4 5 6 
#
# 1 0.026763 -0.012004 -0.008117 0.000000 0.000000 0.006599
# 2 -0.012004 0.026763 -0.008117 0.000000 0.000000 -0.006599
# 3 -0.008117 -0.008117 0.019884 0.000000 0.000000 0.000000
# 4 0.000000 0.000000 0.000000 0.048085 0.000000 0.000000
# 5 0.000000 0.000000 0.000000 0.000000 0.048085 0.000000
# 6 0.006599 -0.006599 0.000000 0.000000 0.000000 0.045758
#
#
# Mechanical properties :
#
#
# Convention : Reuss Voigt Hill
#
# Bulk Modulus (GPa) = 59.04950 59.77530 59.41240
# Shear Modulus (GPa) = 18.02071 19.11872 18.56972
#
# Velocity S-wave (km/s) = 3.34392 3.44429 3.39447
# Velocity P-wave (km/s) = 7.17977 7.27378 7.22693
#
# Compressibility (1/GPa) = 0.01693494
#
# Stress axis : x y z
#
# Youngs Moduli (GPa) = 37.36514 37.36514 50.29077
#
# Poissons Ratio (x) = 0.44855 0.40819
# Poissons Ratio (y) = 0.44855 0.40819
# Poissons Ratio (z) = 0.30328 0.30328
#
# Static dielectric constant tensor:
#      x y z
#    x 2.859240 0.000000 0.000000 
#    y 0.000000 2.859240 0.000000 
#    z 0.000000 0.000000 3.437580 
# 
# 
# High freq. dielectric constant tensor:
#      x y z
#    x 1.584700 0.000000 0.000000 
#    y 0.000000 1.584700 0.000000 
#    z 0.000000 0.000000 1.643230 
# 
# From -- ./inp_files/1546.got.cif
#   From: 2010.03.12/outbox.cif.g09.slc.cpg/sg86_1_cif.got.tgz:1546.got - 2010.04.08 20:12:58.
