data_PCOD8303690
_publ_section_title
;
Structure prediction by ZEFSAII (Michael W. Deem and Ramdas Pophale) SiO2 
 PCOD8303690
Probable space group: P 42/N
;
_chemical_formula_sum "Si O2"
_cell_formula_units_Z 34
_cell_length_a 10.527517
_cell_length_b 10.527517
_cell_length_c 13.049573
_cell_angle_alpha 90.000000
_cell_angle_beta 90.000000
_cell_angle_gamma 90.000000
_cell_volume 1446.266091
_symmetry_space_group_name_H-M "P 42/N"
_symmetry_group_IT_number 86
_space_group.IT_coordinate_system_code '2'
_symmetry_cell_setting 'tetragonal'
loop_
_space_group_symop_operation_xyz
x,y,z
-y,1/2+x,1/2+z
1/2-x,1/2-y,z
1/2+y,-x,1/2+z
-x,-y,-z
y,1/2-x,1/2-z
1/2+x,1/2+y,-z
1/2-y,x,1/2-z
loop_
_atom_site_type_symbol
_atom_site_label
_atom_site_fract_x
_atom_site_fract_y
_atom_site_fract_z
Si Si1 0.250000 0.250000 0.250000
Si Si2 0.215650 0.446472 0.752102
Si Si3 0.927422 0.661338 0.925671
Si Si4 0.869535 0.455660 0.452779
Si Si5 0.203004 0.561454 0.957106
O O1 0.289453 0.371002 0.318514
O O2 0.341408 0.382783 0.704303
O O3 0.146381 0.539264 0.670495
O O4 0.269400 0.515677 0.852878
O O5 0.836523 0.548481 0.963469
O O6 0.934718 0.774484 0.007389
O O7 0.075522 0.626615 0.914705
O O8 0.848117 0.308152 0.487246
O O9 0.000000 0.500000 0.500000
#
# Coordination Sequence:
#
# PCOD8303690 Si02
#       5
#     2   8   8   8   8
#     4  12  28  44  76  98 148 212 244 304 384 458
#     4  11  23  42  73 108 144 194 249 304 373 455
#     4  11  27  47  66 106 146 190 250 307 372 452
#     4  12  24  44  74 103 145 192 247 306 381 455
#     4  11  25  47  71 104 149 189 244 318 375 448
#
# _framework density 23.508811999999999
#
# number of rings (size 3 to 8) (size 9 to 14) (size 15 to 20)
#    0.000    0.706    4.706    2.118    6.588    0.000 
#    0.000    2.353    0.000    0.000    0.000    0.000 
#    0.000    0.000    0.000    0.000    0.000    0.000 
#
# Total GULP energy -421272.565173 kJ/mol
# GULP energy per Si atom -12390.369564 kJ/mol
# Density = 2.345530 g / cm^3
# Si number density = 23.508812 Si / 1000 Ang^3
#
#
#
# Elastic Constant Matrix: (Units=GPa)
#
#
# Indices 1 2 3 4 5 6 
#
# 1 101.7642 30.2482 47.3694 0.0000 0.0000 7.3263
# 2 30.2482 101.7642 47.3694 0.0000 0.0000 -7.3263
# 3 47.3694 47.3694 135.2009 0.0000 0.0000 0.0000
# 4 0.0000 0.0000 0.0000 33.6382 0.0000 0.0000
# 5 0.0000 0.0000 0.0000 0.0000 33.6382 0.0000
# 6 7.3263 -7.3263 0.0000 0.0000 0.0000 40.2472
#
#
#
# Elastic Compliance Matrix: (Units=1/GPa)
#
#
# Indices 1 2 3 4 5 6 
#
# 1 0.012322 -0.002203 -0.003545 0.000000 0.000000 -0.002644
# 2 -0.002203 0.012322 -0.003545 0.000000 0.000000 0.002644
# 3 -0.003545 -0.003545 0.009881 0.000000 0.000000 0.000000
# 4 0.000000 0.000000 0.000000 0.029728 0.000000 0.000000
# 5 0.000000 0.000000 0.000000 0.000000 0.029728 0.000000
# 6 -0.002644 0.002644 0.000000 0.000000 0.000000 0.025809
#
#
# Mechanical properties :
#
#
# Convention : Reuss Voigt Hill
#
# Bulk Modulus (GPa) = 62.74394 65.41150 64.07772
# Shear Modulus (GPa) = 34.79718 35.75420 35.27569
#
# Velocity S-wave (km/s) = 3.85148 3.90408 3.87787
# Velocity P-wave (km/s) = 6.82100 6.94314 6.88234
#
# Compressibility (1/GPa) = 0.01593779
#
# Stress axis : x y z
#
# Youngs Moduli (GPa) = 81.15548 81.15548 101.20620
#
# Poissons Ratio (x) = 0.17875 0.35883
# Poissons Ratio (y) = 0.17875 0.35883
# Poissons Ratio (z) = 0.28774 0.28774
#
# Static dielectric constant tensor:
#      x y z
#    x 6.119380 0.000000 0.000000 
#    y 0.000000 6.119380 0.000000 
#    z 0.000000 0.000000 4.026940 
# 
# 
# High freq. dielectric constant tensor:
#      x y z
#    x 1.936550 0.000000 0.000000 
#    y 0.000000 1.936550 0.000000 
#    z 0.000000 0.000000 1.929070 
# 
# From -- ./inp_files/1988.got.cif
#   From: 2010.03.12/outbox.cif.g09.slc.cpg/sg86_1_cif.got.tgz:1988.got - 2010.04.08 20:12:58.
