data_PCOD8303802
_publ_section_title
;
Structure prediction by ZEFSAII (Michael W. Deem and Ramdas Pophale) SiO2 
 PCOD8303802
Probable space group: I 4/M
;
_chemical_formula_sum "Si O2"
_cell_formula_units_Z 112
_cell_length_a 18.380988
_cell_length_b 18.380988
_cell_length_c 17.439760
_cell_angle_alpha 90.000000
_cell_angle_beta 90.000000
_cell_angle_gamma 90.000000
_cell_volume 5892.209868
_symmetry_space_group_name_H-M "I 4/M"
_symmetry_group_IT_number 87
_symmetry_cell_setting 'tetragonal'
loop_
_space_group_symop_operation_xyz
x,y,z
-y,x,z
-x,-y,z
y,-x,z
-x,-y,-z
y,-x,-z
x,y,-z
-y,x,-z
1/2+x,1/2+y,1/2+z
1/2-y,1/2+x,1/2+z
1/2-x,1/2-y,1/2+z
1/2+y,1/2-x,1/2+z
1/2-x,1/2-y,1/2-z
1/2+y,1/2-x,1/2-z
1/2+x,1/2+y,1/2-z
1/2-y,1/2+x,1/2-z
loop_
_atom_site_type_symbol
_atom_site_label
_atom_site_fract_x
_atom_site_fract_y
_atom_site_fract_z
Si Si1 0.857078 0.350290 0.846505
Si Si2 0.321846 0.555992 0.414327
Si Si3 0.171050 0.516700 0.641957
Si Si4 0.268785 0.982564 0.688510
Si Si5 0.481037 0.384807 0.742922
Si Si6 0.868828 0.328283 0.667369
Si Si7 0.215097 0.225400 0.087824
O O1 0.939716 0.368716 0.875856
O O2 0.804751 0.418990 0.862722
O O3 0.856922 0.330193 0.757786
O O4 0.826475 0.281757 0.892150
O O5 0.353853 0.541317 0.500000
O O6 0.240687 0.523365 0.412787
O O7 0.369123 0.517740 0.348525
O O8 0.320013 0.641819 0.395305
O O9 0.192465 0.514983 0.730291
O O10 0.122544 0.589834 0.631496
O O11 0.183880 0.967286 0.702354
O O12 0.282935 0.059016 0.645652
O O13 0.559343 0.417319 0.763353
O O14 0.799833 0.284602 0.635491
O O15 0.219107 0.248619 0.000000
#
# Coordination Sequence:
#
# PCOD8303802 Si02
#       7
#    16  16  16  16  16  16  16
#     4  10  19  32  54  82 107 136 179 226 276 324
#     4   9  19  33  50  72 104 151 184 208 261 320
#     4   8  17  32  48  77 111 131 173 223 260 317
#     4   9  19  32  54  79  98 140 177 219 282 325
#     4  10  22  35  48  75 111 139 179 233 270 314
#     4   9  18  34  55  76 106 144 178 219 274 329
#     4  10  21  34  52  79 106 141 187 226 261 317
#
# _framework density 19.008150000000001
#
# number of rings (size 3 to 8) (size 9 to 14) (size 15 to 20)
#    0.000    2.714    0.000    1.286    8.000    1.714 
#    0.000    4.286    0.000    0.000    0.000    5.000 
#    0.000    1.143    0.000    0.000    0.000    0.000 
#
# Total GULP energy -694138.549193 kJ/mol
# GULP energy per Si atom -12395.331236 kJ/mol
# Density = 1.896489 g / cm^3
# Si number density = 19.008150 Si / 1000 Ang^3
#
#
#
# Elastic Constant Matrix: (Units=GPa)
#
#
# Indices 1 2 3 4 5 6 
#
# 1 98.6646 43.0618 11.0937 0.0000 0.0000 -8.4016
# 2 43.0618 98.6646 11.0937 0.0000 0.0000 8.4016
# 3 11.0937 11.0937 18.5130 0.0000 0.0000 0.0000
# 4 0.0000 0.0000 0.0000 13.4574 0.0000 0.0000
# 5 0.0000 0.0000 0.0000 0.0000 13.4574 0.0000
# 6 -8.4016 8.4016 0.0000 0.0000 0.0000 24.4604
#
#
#
# Elastic Compliance Matrix: (Units=1/GPa)
#
#
# Indices 1 2 3 4 5 6 
#
# 1 0.013927 -0.006141 -0.004666 0.000000 0.000000 0.006893
# 2 -0.006141 0.013927 -0.004666 0.000000 0.000000 -0.006893
# 3 -0.004666 -0.004666 0.059608 0.000000 0.000000 0.000000
# 4 0.000000 0.000000 0.000000 0.074309 0.000000 0.000000
# 5 0.000000 0.000000 0.000000 0.000000 0.074309 0.000000
# 6 0.006893 -0.006893 0.000000 0.000000 0.000000 0.045617
#
#
# Mechanical properties :
#
#
# Convention : Reuss Voigt Hill
#
# Bulk Modulus (GPa) = 17.69375 38.48229 28.08802
# Shear Modulus (GPa) = 15.08385 20.31457 17.69921
#
# Velocity S-wave (km/s) = 2.82005 3.27269 3.05477
# Velocity P-wave (km/s) = 4.46456 5.87961 5.22025
#
# Compressibility (1/GPa) = 0.05651714
#
# Stress axis : x y z
#
# Youngs Moduli (GPa) = 71.80302 71.80302 16.77630
#
# Poissons Ratio (x) = 0.44092 0.07828
# Poissons Ratio (y) = 0.44092 0.07828
# Poissons Ratio (z) = 0.33502 0.33502
#
# Static dielectric constant tensor:
#      x y z
#    x 3.630920 0.000000 0.000000 
#    y 0.000000 3.630920 0.000000 
#    z 0.000000 0.000000 3.154530 
# 
# 
# High freq. dielectric constant tensor:
#      x y z
#    x 1.737560 0.000000 0.000000 
#    y 0.000000 1.737560 0.000000 
#    z 0.000000 0.000000 1.698670 
# 
# From -- ./inp_files/5477.got.cif
#   From: 2010.03.12/outbox.cif.g09.slc.cpg/sg87_3_cif.got.tgz:5477.got - 2010.04.08 20:16:13.
