data_PCOD8303289
_publ_section_title
;
Structure prediction by ZEFSAII (Michael W. Deem and Ramdas Pophale) SiO2 
 PCOD8303289
Probable space group: P 42/M
;
_chemical_formula_sum "Si O2"
_cell_formula_units_Z 18
_cell_length_a 5.161061
_cell_length_b 5.161061
_cell_length_c 26.174459
_cell_angle_alpha 90.000000
_cell_angle_beta 90.000000
_cell_angle_gamma 90.000000
_cell_volume 697.197303
_symmetry_space_group_name_H-M "P 42/M"
_symmetry_group_IT_number 84
_symmetry_cell_setting 'tetragonal'
loop_
_space_group_symop_operation_xyz
x,y,z
-y,x,1/2+z
-x,-y,z
y,-x,1/2+z
-x,-y,-z
y,-x,1/2-z
x,y,-z
-y,x,1/2-z
loop_
_atom_site_type_symbol
_atom_site_label
_atom_site_fract_x
_atom_site_fract_y
_atom_site_fract_z
Si Si1 0.826786 0.250672 0.000000
Si Si2 0.000000 0.000000 0.250000
Si Si3 0.000000 0.500000 0.816327
Si Si4 0.164518 0.265222 0.390245
O O1 0.657103 0.252478 0.051957
O O2 0.000000 0.500000 0.000000
O O3 0.000000 0.000000 0.000000
O O4 0.749609 0.082549 0.283014
O O5 0.764465 0.415554 0.853837
O O6 0.000000 0.500000 0.367066
O O7 0.000000 0.000000 0.389379
#
# Coordination Sequence:
#
# PCOD8303289 Si02
#       4
#     4   2   4   8
#     4  10  21  44  70 115 157 201 248 308 380 469
#     4  12  32  48  80 102 152 196 268 336 396 462
#     4  12  28  55  74 114 146 205 262 332 402 464
#     4  11  25  47  78 113 155 202 253 316 388 475
#
# _framework density 25.81766
#
# number of rings (size 3 to 8) (size 9 to 14) (size 15 to 20)
#    0.000    0.889    4.444    0.667    3.111    6.222 
#    0.000    4.444    0.000    0.000    0.000    0.000 
#    0.000    0.000    0.000    0.000    0.000    0.000 
#
# Total GULP energy -223136.076136 kJ/mol
# GULP energy per Si atom -12396.448674 kJ/mol
# Density = 2.575890 g / cm^3
# Si number density = 25.817660 Si / 1000 Ang^3
#
#
#
# Elastic Constant Matrix: (Units=GPa)
#
#
# Indices 1 2 3 4 5 6 
#
# 1 169.5198 59.7133 65.1522 0.0000 0.0000 1.1795
# 2 59.7133 169.5198 65.1522 0.0000 0.0000 -1.1795
# 3 65.1522 65.1522 209.3498 0.0000 0.0000 0.0000
# 4 0.0000 0.0000 0.0000 -26.3730 0.0000 0.0000
# 5 0.0000 0.0000 0.0000 0.0000 -26.3730 0.0000
# 6 1.1795 -1.1795 0.0000 0.0000 0.0000 51.4101
#
#
#
# Elastic Compliance Matrix: (Units=1/GPa)
#
#
# Indices 1 2 3 4 5 6 
#
# 1 0.007206 -0.001906 -0.001649 0.000000 0.000000 -0.000209
# 2 -0.001906 0.007206 -0.001649 0.000000 0.000000 0.000209
# 3 -0.001649 -0.001649 0.005803 0.000000 0.000000 0.000000
# 4 0.000000 0.000000 0.000000 -0.037918 0.000000 0.000000
# 5 0.000000 0.000000 0.000000 0.000000 -0.037918 0.000000
# 6 -0.000209 0.000209 0.000000 0.000000 0.000000 0.019461
#
#
# Mechanical properties :
#
#
# Convention : Reuss Voigt Hill
#
# Bulk Modulus (GPa) = 101.98258 103.15832 102.57045
# Shear Modulus (GPa) = -222.40130 23.62428 -99.38851
#
# Velocity S-wave (km/s) = -9.29140 3.02825 -6.21127
# Velocity P-wave (km/s) = 8.69022 7.22982 3.40952
#
# Compressibility (1/GPa) = 0.00980560
#
# Stress axis : x y z
#
# Youngs Moduli (GPa) = 138.77927 138.77927 172.31487
#
# Poissons Ratio (x) = 0.26448 0.28422
# Poissons Ratio (y) = 0.26448 0.28422
# Poissons Ratio (z) = 0.22890 0.22890
#
# Static dielectric constant tensor:
#      x y z
#    x 4.464040 0.000000 0.000000 
#    y 0.000000 4.464040 0.000000 
#    z 0.000000 0.000000 5.849040 
# 
# 
# High freq. dielectric constant tensor:
#      x y z
#    x 2.025800 0.000000 0.000000 
#    y 0.000000 2.025800 0.000000 
#    z 0.000000 0.000000 2.056250 
# 
# From -- ./inp_files/5135.got.cif
#   From: 2010.03.12/outbox.cif.g09.slc.cpg/sg84_3_cif.got.tgz:5135.got - 2010.04.08 20:07:29.
