data_PCOD8303076
_publ_section_title
;
Structure prediction by ZEFSAII (Michael W. Deem and Ramdas Pophale) SiO2 
 PCOD8303076
Probable space group: P 42/M
;
_chemical_formula_sum "Si O2"
_cell_formula_units_Z 56
_cell_length_a 11.097099
_cell_length_b 11.097099
_cell_length_c 24.826082
_cell_angle_alpha 90.000000
_cell_angle_beta 90.000000
_cell_angle_gamma 90.000000
_cell_volume 3057.222918
_symmetry_space_group_name_H-M "P 42/M"
_symmetry_group_IT_number 84
_symmetry_cell_setting 'tetragonal'
loop_
_space_group_symop_operation_xyz
x,y,z
-y,x,1/2+z
-x,-y,z
y,-x,1/2+z
-x,-y,-z
y,-x,1/2-z
x,y,-z
-y,x,1/2-z
loop_
_atom_site_type_symbol
_atom_site_label
_atom_site_fract_x
_atom_site_fract_y
_atom_site_fract_z
Si Si1 0.726692 0.398742 0.607569
Si Si2 0.363783 0.474303 0.183542
Si Si3 0.492622 0.192352 0.000000
Si Si4 0.840685 0.926561 0.225699
Si Si5 0.295821 0.980354 0.000000
Si Si6 0.746158 0.952666 0.111115
Si Si7 0.710183 0.715969 0.270807
Si Si8 0.569603 0.106274 0.170418
O O1 0.590677 0.360603 0.624761
O O2 0.722476 0.471631 0.551794
O O3 0.810616 0.280828 0.603677
O O4 0.782150 0.485487 0.653877
O O5 0.500000 0.500000 0.200114
O O6 0.308945 0.381520 0.225185
O O7 0.285980 0.598392 0.186561
O O8 0.630888 0.145643 0.000000
O O9 0.396053 0.085105 0.000000
O O10 0.834143 0.967171 0.162642
O O11 0.724237 0.847320 0.243236
O O12 0.960889 0.847169 0.233590
O O13 0.209188 0.994597 0.053167
O O14 0.622238 0.028478 0.120191
O O15 0.837920 0.683038 0.298269
O O16 0.500000 0.000000 0.204383
#
# Coordination Sequence:
#
# PCOD8303076 Si02
#       8
#     8   8   4   8   4   8   8   8
#     4  10  18  31  49  75 113 143 183 222 271 324
#     4  12  21  31  48  76 109 146 181 213 263 325
#     4   9  16  28  47  78 111 145 180 233 273 320
#     4  11  24  39  56  80 109 140 176 231 291 336
#     4   9  16  28  52  83 109 139 188 233 277 329
#     4  10  18  33  53  80 108 143 183 229 278 328
#     4  12  21  35  51  75 110 147 182 220 268 337
#     4  10  19  29  52  79 107 141 178 219 270 326
#
# _framework density 18.317278000000002
#
# number of rings (size 3 to 8) (size 9 to 14) (size 15 to 20)
#    0.000    1.429    7.143    0.000    2.000    0.000 
#    0.000    0.357    0.000    1.714    0.000    0.000 
#    0.000    3.429    0.000    0.000    0.000    0.286 
#
# Total GULP energy -693750.252401 kJ/mol
# GULP energy per Si atom -12388.397364 kJ/mol
# Density = 1.827559 g / cm^3
# Si number density = 18.317278 Si / 1000 Ang^3
#
#
#
# Elastic Constant Matrix: (Units=GPa)
#
#
# Indices 1 2 3 4 5 6 
#
# 1 67.8394 26.6667 40.7378 0.0000 0.0000 -4.8023
# 2 26.6667 67.8394 40.7378 0.0000 0.0000 4.8023
# 3 40.7378 40.7378 128.7038 0.0000 0.0000 0.0000
# 4 0.0000 0.0000 0.0000 19.1239 0.0000 0.0000
# 5 0.0000 0.0000 0.0000 0.0000 19.1239 0.0000
# 6 -4.8023 4.8023 0.0000 0.0000 0.0000 28.4436
#
#
#
# Elastic Compliance Matrix: (Units=1/GPa)
#
#
# Indices 1 2 3 4 5 6 
#
# 1 0.019918 -0.005366 -0.004606 0.000000 0.000000 0.004269
# 2 -0.005366 0.019918 -0.004606 0.000000 0.000000 -0.004269
# 3 -0.004606 -0.004606 0.010686 0.000000 0.000000 0.000000
# 4 0.000000 0.000000 0.000000 0.052291 0.000000 0.000000
# 5 0.000000 0.000000 0.000000 0.000000 0.052291 0.000000
# 6 0.004269 -0.004269 0.000000 0.000000 0.000000 0.036599
#
#
# Mechanical properties :
#
#
# Convention : Reuss Voigt Hill
#
# Bulk Modulus (GPa) = 46.80380 53.40749 50.10565
# Shear Modulus (GPa) = 21.93176 23.75430 22.84303
#
# Velocity S-wave (km/s) = 3.46399 3.60505 3.53523
# Velocity P-wave (km/s) = 6.45029 6.82266 6.63909
#
# Compressibility (1/GPa) = 0.02136579
#
# Stress axis : x y z
#
# Youngs Moduli (GPa) = 50.20566 50.20566 93.58298
#
# Poissons Ratio (x) = 0.26939 0.43106
# Poissons Ratio (y) = 0.26939 0.43106
# Poissons Ratio (z) = 0.23126 0.23126
#
# Static dielectric constant tensor:
#      x y z
#    x 3.319730 0.000000 0.000000 
#    y 0.000000 3.319730 0.000000 
#    z 0.000000 0.000000 3.499890 
# 
# 
# High freq. dielectric constant tensor:
#      x y z
#    x 1.688570 0.000000 0.000000 
#    y 0.000000 1.688570 0.000000 
#    z 0.000000 0.000000 1.697240 
# 
# From -- ./inp_files/5057.got.cif
#   From: 2010.03.12/outbox.cif.g09.slc.cpg/sg84_3_cif.got.tgz:5057.got - 2010.04.08 20:07:29.
