data_PCOD8303304
_publ_section_title
;
Structure prediction by ZEFSAII (Michael W. Deem and Ramdas Pophale) SiO2 
 PCOD8303304
Probable space group: P 42/M
;
_chemical_formula_sum "Si O2"
_cell_formula_units_Z 56
_cell_length_a 10.970742
_cell_length_b 10.970742
_cell_length_c 21.137154
_cell_angle_alpha 90.000000
_cell_angle_beta 90.000000
_cell_angle_gamma 90.000000
_cell_volume 2544.008249
_symmetry_space_group_name_H-M "P 42/M"
_symmetry_group_IT_number 84
_symmetry_cell_setting 'tetragonal'
loop_
_space_group_symop_operation_xyz
x,y,z
-y,x,1/2+z
-x,-y,z
y,-x,1/2+z
-x,-y,-z
y,-x,1/2-z
x,y,-z
-y,x,1/2-z
loop_
_atom_site_type_symbol
_atom_site_label
_atom_site_fract_x
_atom_site_fract_y
_atom_site_fract_z
Si Si1 0.189918 0.662589 0.241083
Si Si2 0.340117 0.075396 0.388042
Si Si3 0.074968 0.115100 0.571257
Si Si4 0.416967 0.261531 0.074236
Si Si5 0.183295 0.420912 0.927523
Si Si6 0.427338 0.784266 0.813504
Si Si7 0.968307 0.333429 0.357429
O O1 0.090748 0.668171 0.186590
O O2 0.234878 0.526604 0.258031
O O3 0.302045 0.742173 0.216299
O O4 0.122519 0.715852 0.302838
O O5 0.217834 0.092218 0.427159
O O6 0.433414 0.177588 0.416201
O O7 0.373037 0.934090 0.391191
O O8 0.034142 0.146597 0.500000
O O9 0.048938 0.224272 0.617795
O O10 0.000000 0.000000 0.596541
O O11 0.308560 0.355553 0.094391
O O12 0.530757 0.289162 0.122179
O O13 0.380978 0.119854 0.086133
O O14 0.453224 0.278750 0.000000
O O15 0.164103 0.388418 0.000000
O O16 0.428446 0.928621 0.831841
#
# Coordination Sequence:
#
# PCOD8303304 Si02
#       7
#     8   8   8   8   8   8   8
#     4  11  26  44  67  94 135 175 230 278 341 409
#     4  11  22  40  67  99 137 182 224 286 341 410
#     4  11  23  42  67 101 139 178 225 281 351 421
#     4  10  22  43  71 101 136 179 230 284 342 413
#     4  10  22  40  68 101 133 179 227 278 342 407
#     4  11  26  47  66 103 131 183 230 285 345 417
#     4  11  24  43  65 100 137 173 231 279 344 416
#
# _framework density 22.012508
#
# number of rings (size 3 to 8) (size 9 to 14) (size 15 to 20)
#    0.000    1.286    1.429    4.714    8.000    5.429 
#    0.000    0.000    0.000    1.714    0.000    0.000 
#    0.000    0.000    0.000    0.000    0.000    0.000 
#
# Total GULP energy -693991.641352 kJ/mol
# GULP energy per Si atom -12392.707881 kJ/mol
# Density = 2.196241 g / cm^3
# Si number density = 22.012508 Si / 1000 Ang^3
#
#
#
# Elastic Constant Matrix: (Units=GPa)
#
#
# Indices 1 2 3 4 5 6 
#
# 1 95.2452 38.1076 26.1587 0.0000 0.0000 4.8093
# 2 38.1076 95.2452 26.1587 0.0000 0.0000 -4.8093
# 3 26.1587 26.1587 91.1248 0.0000 0.0000 0.0000
# 4 0.0000 0.0000 0.0000 31.1188 0.0000 0.0000
# 5 0.0000 0.0000 0.0000 0.0000 31.1188 0.0000
# 6 4.8093 -4.8093 0.0000 0.0000 0.0000 33.8458
#
#
#
# Elastic Compliance Matrix: (Units=1/GPa)
#
#
# Indices 1 2 3 4 5 6 
#
# 1 0.013191 -0.004740 -0.002426 0.000000 0.000000 -0.002548
# 2 -0.004740 0.013191 -0.002426 0.000000 0.000000 0.002548
# 3 -0.002426 -0.002426 0.012367 0.000000 0.000000 0.000000
# 4 0.000000 0.000000 0.000000 0.032135 0.000000 0.000000
# 5 0.000000 0.000000 0.000000 0.000000 0.032135 0.000000
# 6 -0.002548 0.002548 0.000000 0.000000 0.000000 0.030270
#
#
# Mechanical properties :
#
#
# Convention : Reuss Voigt Hill
#
# Bulk Modulus (GPa) = 51.11305 51.38505 51.24905
# Shear Modulus (GPa) = 31.44801 31.96266 31.70533
#
# Velocity S-wave (km/s) = 3.78384 3.81468 3.79929
# Velocity P-wave (km/s) = 6.50848 6.54191 6.52522
#
# Compressibility (1/GPa) = 0.01956447
#
# Stress axis : x y z
#
# Youngs Moduli (GPa) = 75.81168 75.81168 80.86212
#
# Poissons Ratio (x) = 0.35934 0.19616
# Poissons Ratio (y) = 0.35934 0.19616
# Poissons Ratio (z) = 0.18391 0.18391
#
# Static dielectric constant tensor:
#      x y z
#    x 4.180340 0.000000 0.000000 
#    y 0.000000 4.180340 0.000000 
#    z 0.000000 0.000000 4.201090 
# 
# 
# High freq. dielectric constant tensor:
#      x y z
#    x 1.866180 0.000000 0.000000 
#    y 0.000000 1.866180 0.000000 
#    z 0.000000 0.000000 1.874340 
# 
# From -- ./inp_files/4484.got.cif
#   From: 2010.03.12/outbox.cif.g09.slc.cpg/sg84_3_cif.got.tgz:4484.got - 2010.04.08 20:07:29.
