data_PCOD8303246
_publ_section_title
;
Structure prediction by ZEFSAII (Michael W. Deem and Ramdas Pophale) SiO2 
 PCOD8303246
Probable space group: P 42/M
;
_chemical_formula_sum "Si O2"
_cell_formula_units_Z 48
_cell_length_a 9.501000
_cell_length_b 9.501000
_cell_length_c 26.787167
_cell_angle_alpha 90.000000
_cell_angle_beta 90.000000
_cell_angle_gamma 90.000000
_cell_volume 2418.050805
_symmetry_space_group_name_H-M "P 42/M"
_symmetry_group_IT_number 84
_symmetry_cell_setting 'tetragonal'
loop_
_space_group_symop_operation_xyz
x,y,z
-y,x,1/2+z
-x,-y,z
y,-x,1/2+z
-x,-y,-z
y,-x,1/2-z
x,y,-z
-y,x,1/2-z
loop_
_atom_site_type_symbol
_atom_site_label
_atom_site_fract_x
_atom_site_fract_y
_atom_site_fract_z
Si Si1 0.266119 0.347403 0.795319
Si Si2 0.334777 0.304912 0.314222
Si Si3 0.991012 0.340282 0.140859
Si Si4 0.345624 0.057667 0.054221
Si Si5 0.903212 0.133996 0.944795
Si Si6 0.537425 0.836821 0.146734
O O1 0.332355 0.497572 0.811652
O O2 0.248978 0.346380 0.735791
O O3 0.376131 0.223737 0.806840
O O4 0.123228 0.308300 0.823889
O O5 0.310391 0.141750 0.324376
O O6 0.261902 0.398281 0.357968
O O7 0.977588 0.243114 0.092263
O O8 0.000000 0.500000 0.121319
O O9 0.361644 0.176957 0.097227
O O10 0.500000 0.000000 0.046553
O O11 0.249024 0.926476 0.072529
O O12 0.291193 0.117009 0.000000
O O13 0.890337 0.203848 0.000000
O O14 0.000000 0.000000 0.947522
O O15 0.500000 0.000000 0.156067
#
# Coordination Sequence:
#
# PCOD8303246 Si02
#       6
#     8   8   8   8   8   8
#     4  11  23  39  59  81 117 157 201 245 294 361
#     4  11  23  39  59  82 115 161 198 244 301 357
#     4  10  23  39  57  87 121 150 199 254 295 346
#     4   9  18  34  57  87 117 149 192 244 292 345
#     4  10  20  38  62  86 119 159 194 237 302 364
#     4  11  22  35  63  88 114 155 202 242 289 358
#
# _framework density 19.850701000000001
#
# number of rings (size 3 to 8) (size 9 to 14) (size 15 to 20)
#    0.000    1.667    1.667    3.500    2.333    0.333 
#    0.000    0.000    0.000    4.000    0.000    0.000 
#    0.000    0.000    0.000    0.000    0.000    0.000 
#
# Total GULP energy -594728.940689 kJ/mol
# GULP energy per Si atom -12390.186264 kJ/mol
# Density = 1.980552 g / cm^3
# Si number density = 19.850701 Si / 1000 Ang^3
#
#
#
# Elastic Constant Matrix: (Units=GPa)
#
#
# Indices 1 2 3 4 5 6 
#
# 1 106.6236 49.9568 47.9574 0.0000 0.0000 7.7504
# 2 49.9568 106.6236 47.9574 0.0000 0.0000 -7.7504
# 3 47.9574 47.9574 117.8127 0.0000 0.0000 0.0000
# 4 0.0000 0.0000 0.0000 29.1133 0.0000 0.0000
# 5 0.0000 0.0000 0.0000 0.0000 29.1133 0.0000
# 6 7.7504 -7.7504 0.0000 0.0000 0.0000 32.5985
#
#
#
# Elastic Compliance Matrix: (Units=1/GPa)
#
#
# Indices 1 2 3 4 5 6 
#
# 1 0.013691 -0.005183 -0.003463 0.000000 0.000000 -0.004487
# 2 -0.005183 0.013691 -0.003463 0.000000 0.000000 0.004487
# 3 -0.003463 -0.003463 0.011308 0.000000 0.000000 0.000000
# 4 0.000000 0.000000 0.000000 0.034349 0.000000 0.000000
# 5 0.000000 0.000000 0.000000 0.000000 0.034349 0.000000
# 6 -0.004487 0.004487 0.000000 0.000000 0.000000 0.032810
#
#
# Mechanical properties :
#
#
# Convention : Reuss Voigt Hill
#
# Bulk Modulus (GPa) = 69.10670 69.20036 69.15353
# Shear Modulus (GPa) = 29.54374 30.51090 30.02732
#
# Velocity S-wave (km/s) = 3.86203 3.92474 3.89351
# Velocity P-wave (km/s) = 7.40107 7.44810 7.42462
#
# Compressibility (1/GPa) = 0.01447038
#
# Stress axis : x y z
#
# Youngs Moduli (GPa) = 73.03928 73.03928 88.43592
#
# Poissons Ratio (x) = 0.37858 0.30628
# Poissons Ratio (y) = 0.37858 0.30628
# Poissons Ratio (z) = 0.25296 0.25296
#
# Static dielectric constant tensor:
#      x y z
#    x 3.502140 0.000000 0.000000 
#    y 0.000000 3.502140 0.000000 
#    z 0.000000 0.000000 4.559840 
# 
# 
# High freq. dielectric constant tensor:
#      x y z
#    x 1.772890 0.000000 0.000000 
#    y 0.000000 1.772890 0.000000 
#    z 0.000000 0.000000 1.775940 
# 
# From -- ./inp_files/5767.got.cif
#   From: 2010.03.12/outbox.cif.g09.slc.cpg/sg84_3_cif.got.tgz:5767.got - 2010.04.08 20:07:29.
