data_PCOD8303753
_publ_section_title
;
Structure prediction by ZEFSAII (Michael W. Deem and Ramdas Pophale) SiO2 
 PCOD8303753
Probable space group: I 4/M
;
_chemical_formula_sum "Si O2"
_cell_formula_units_Z 48
_cell_length_a 18.025675
_cell_length_b 18.025675
_cell_length_c 8.868098
_cell_angle_alpha 90.000000
_cell_angle_beta 90.000000
_cell_angle_gamma 90.000000
_cell_volume 2881.466381
_symmetry_space_group_name_H-M "I 4/M"
_symmetry_group_IT_number 87
_symmetry_cell_setting 'tetragonal'
loop_
_space_group_symop_operation_xyz
x,y,z
-y,x,z
-x,-y,z
y,-x,z
-x,-y,-z
y,-x,-z
x,y,-z
-y,x,-z
1/2+x,1/2+y,1/2+z
1/2-y,1/2+x,1/2+z
1/2-x,1/2-y,1/2+z
1/2+y,1/2-x,1/2+z
1/2-x,1/2-y,1/2-z
1/2+y,1/2-x,1/2-z
1/2+x,1/2+y,1/2-z
1/2-y,1/2+x,1/2-z
loop_
_atom_site_type_symbol
_atom_site_label
_atom_site_fract_x
_atom_site_fract_y
_atom_site_fract_z
Si Si1 0.678607 0.331356 0.000000
Si Si2 0.966522 0.728590 0.500000
Si Si3 0.925328 0.230587 0.248596
Si Si4 0.620569 0.523634 0.500000
Si Si5 0.181069 0.342729 0.500000
O O1 0.694046 0.419980 0.000000
O O2 0.634017 0.311771 0.149551
O O3 0.757851 0.287995 0.000000
O O4 0.909150 0.659183 0.500000
O O5 0.016159 0.724898 0.350349
O O6 0.967795 0.170361 0.148223
O O7 0.884022 0.291587 0.148816
O O8 0.557981 0.586596 0.500000
#
# Coordination Sequence:
#
# PCOD8303753 Si02
#       5
#     8   8  16   8   8
#     4   9  18  32  52  78  98 127 164 204 249 290
#     4   9  20  32  51  76  98 129 162 207 252 295
#     4  10  18  34  52  73 105 129 166 209 241 291
#     4  10  20  31  47  74 109 144 165 190 238 299
#     4   9  20  33  52  77  99 126 169 207 249 289
#
# _framework density 16.658183999999999
#
# number of rings (size 3 to 8) (size 9 to 14) (size 15 to 20)
#    1.000    1.500    0.000    3.000    0.000    0.000 
#    0.000    5.000    0.000   11.000    0.000    0.000 
#    0.000    0.000    0.000    0.000    0.000    0.000 
#
# Total GULP energy -297512.114038 kJ/mol
# GULP energy per Si atom -12396.338085 kJ/mol
# Density = 1.662027 g / cm^3
# Si number density = 16.658184 Si / 1000 Ang^3
#
#
#
# Elastic Constant Matrix: (Units=GPa)
#
#
# Indices 1 2 3 4 5 6 
#
# 1 50.8060 -6.5911 24.9833 0.0000 0.0000 5.7548
# 2 -6.5911 50.8060 24.9833 0.0000 0.0000 -5.7548
# 3 24.9833 24.9833 118.4547 0.0000 0.0000 0.0000
# 4 0.0000 0.0000 0.0000 8.6397 0.0000 0.0000
# 5 0.0000 0.0000 0.0000 0.0000 8.6397 0.0000
# 6 5.7548 -5.7548 0.0000 0.0000 0.0000 27.7874
#
#
#
# Elastic Compliance Matrix: (Units=1/GPa)
#
#
# Indices 1 2 3 4 5 6 
#
# 1 0.023936 0.005758 -0.006263 0.000000 0.000000 -0.003765
# 2 0.005758 0.023936 -0.006263 0.000000 0.000000 0.003765
# 3 -0.006263 -0.006263 0.011084 0.000000 0.000000 0.000000
# 4 0.000000 0.000000 0.000000 0.115744 0.000000 0.000000
# 5 0.000000 0.000000 0.000000 0.000000 0.115744 0.000000
# 6 -0.003765 0.003765 0.000000 0.000000 0.000000 0.037547
#
#
# Mechanical properties :
#
#
# Convention : Reuss Voigt Hill
#
# Bulk Modulus (GPa) = 22.01618 34.09089 28.05353
# Shear Modulus (GPa) = 14.01872 20.79279 17.40576
#
# Velocity S-wave (km/s) = 2.90410 3.53682 3.23596
# Velocity P-wave (km/s) = 4.94875 6.09821 5.55330
#
# Compressibility (1/GPa) = 0.04542115
#
# Stress axis : x y z
#
# Youngs Moduli (GPa) = 41.77832 41.77832 90.22142
#
# Poissons Ratio (x) = -0.24058 0.56504
# Poissons Ratio (y) = -0.24058 0.56504
# Poissons Ratio (z) = 0.26165 0.26165
#
# Static dielectric constant tensor:
#      x y z
#    x 2.996810 0.000000 0.000000 
#    y 0.000000 2.996810 0.000000 
#    z 0.000000 0.000000 3.221130 
# 
# 
# High freq. dielectric constant tensor:
#      x y z
#    x 1.631340 0.000000 0.000000 
#    y 0.000000 1.631340 0.000000 
#    z 0.000000 0.000000 1.657710 
# 
# From -- ./inp_files/628.got.cif
#   From: 2010.03.12/outbox.cif.g09.slc.cpg/sg87_1_cif.got.tgz:628.got - 2010.04.08 20:16:13.
