data_PCOD8303362
_publ_section_title
;
Structure prediction by ZEFSAII (Michael W. Deem and Ramdas Pophale) SiO2 
 PCOD8303362
Probable space group: P 42/M
;
_chemical_formula_sum "Si O2"
_cell_formula_units_Z 48
_cell_length_a 9.130841
_cell_length_b 9.130841
_cell_length_c 28.787834
_cell_angle_alpha 90.000000
_cell_angle_beta 90.000000
_cell_angle_gamma 90.000000
_cell_volume 2400.106705
_symmetry_space_group_name_H-M "P 42/M"
_symmetry_group_IT_number 84
_symmetry_cell_setting 'tetragonal'
loop_
_space_group_symop_operation_xyz
x,y,z
-y,x,1/2+z
-x,-y,z
y,-x,1/2+z
-x,-y,-z
y,-x,1/2-z
x,y,-z
-y,x,1/2-z
loop_
_atom_site_type_symbol
_atom_site_label
_atom_site_fract_x
_atom_site_fract_y
_atom_site_fract_z
Si Si1 0.266548 0.438756 0.250981
Si Si2 0.505200 0.833424 0.848018
Si Si3 0.286063 0.645321 0.099306
Si Si4 0.208617 0.347257 0.153481
Si Si5 0.927224 0.662699 0.000000
Si Si6 0.013115 0.824545 0.093552
Si Si7 0.526345 0.669215 0.500000
O O1 0.326999 0.600596 0.242176
O O2 0.167757 0.429023 0.297228
O O3 0.170406 0.395760 0.206081
O O4 0.436717 0.711868 0.882246
O O5 0.668205 0.776013 0.844712
O O6 0.500000 0.000000 0.867521
O O7 0.247220 0.491964 0.123852
O O8 0.288338 0.620882 0.044461
O O9 0.176063 0.779527 0.107171
O O10 0.074252 0.259747 0.133128
O O11 0.966838 0.760325 0.043996
O O12 0.753038 0.630421 0.000000
O O13 0.000000 0.500000 0.000000
O O14 0.000000 0.000000 0.094721
O O15 0.500000 0.500000 0.500000
#
# Coordination Sequence:
#
# PCOD8303362 Si02
#       7
#     8   8   8   8   4   8   4
#     4   9  18  36  62  90 118 161 221 266 311 383
#     4  11  23  39  61  93 132 161 207 279 335 377
#     4  12  23  42  66  92 126 170 220 262 319 394
#     4  11  21  40  66  91 121 172 221 263 319 396
#     4  12  21  44  67  95 123 176 223 259 312 389
#     4  12  25  41  64  95 135 169 214 273 331 391
#     4  12  24  40  67  99 122 157 221 272 303 375
#
# _framework density 19.999109000000001
#
# number of rings (size 3 to 8) (size 9 to 14) (size 15 to 20)
#    0.000    0.833    5.000    3.250    0.000    1.333 
#    0.000    0.417    0.000    0.000    0.000    0.000 
#    0.000    0.000    0.000    0.000    0.000    0.000 
#
# Total GULP energy -595006.879244 kJ/mol
# GULP energy per Si atom -12395.976651 kJ/mol
# Density = 1.995359 g / cm^3
# Si number density = 19.999109 Si / 1000 Ang^3
#
#
#
# Elastic Constant Matrix: (Units=GPa)
#
#
# Indices 1 2 3 4 5 6 
#
# 1 87.2998 6.6734 8.1945 0.0000 0.0000 1.2066
# 2 6.6734 87.2998 8.1945 0.0000 0.0000 -1.2066
# 3 8.1945 8.1945 107.7143 0.0000 0.0000 0.0000
# 4 0.0000 0.0000 0.0000 19.3751 0.0000 0.0000
# 5 0.0000 0.0000 0.0000 0.0000 19.3751 0.0000
# 6 1.2066 -1.2066 0.0000 0.0000 0.0000 34.3886
#
#
#
# Elastic Compliance Matrix: (Units=1/GPa)
#
#
# Indices 1 2 3 4 5 6 
#
# 1 0.011600 -0.000816 -0.000820 0.000000 0.000000 -0.000436
# 2 -0.000816 0.011600 -0.000820 0.000000 0.000000 0.000436
# 3 -0.000820 -0.000820 0.009409 0.000000 0.000000 0.000000
# 4 0.000000 0.000000 0.000000 0.051613 0.000000 0.000000
# 5 0.000000 0.000000 0.000000 0.000000 0.051613 0.000000
# 6 -0.000436 0.000436 0.000000 0.000000 0.000000 0.029110
#
#
# Mechanical properties :
#
#
# Convention : Reuss Voigt Hill
#
# Bulk Modulus (GPa) = 36.10664 36.49317 36.29991
# Shear Modulus (GPa) = 27.91905 31.91122 29.91513
#
# Velocity S-wave (km/s) = 3.74038 3.99887 3.87178
# Velocity P-wave (km/s) = 6.06195 6.29351 6.17882
#
# Compressibility (1/GPa) = 0.02769574
#
# Stress axis : x y z
#
# Youngs Moduli (GPa) = 86.20566 86.20566 106.28516
#
# Poissons Ratio (x) = 0.07032 0.08720
# Poissons Ratio (y) = 0.07032 0.08720
# Poissons Ratio (z) = 0.07073 0.07073
#
# Static dielectric constant tensor:
#      x y z
#    x 3.760630 0.000000 0.000000 
#    y 0.000000 3.760630 0.000000 
#    z 0.000000 0.000000 3.788790 
# 
# 
# High freq. dielectric constant tensor:
#      x y z
#    x 1.777890 0.000000 0.000000 
#    y 0.000000 1.777890 0.000000 
#    z 0.000000 0.000000 1.793630 
# 
# From -- ./inp_files/5860.got.cif
#   From: 2010.03.12/outbox.cif.g09.slc.cpg/sg84_3_cif.got.tgz:5860.got - 2010.04.08 20:07:29.
