data_PCOD8303524
_publ_section_title
;
Structure prediction by ZEFSAII (Michael W. Deem and Ramdas Pophale) SiO2 
 PCOD8303524
Probable space group: P 42/N
;
_chemical_formula_sum "Si O2"
_cell_formula_units_Z 52
_cell_length_a 18.139353
_cell_length_b 18.139353
_cell_length_c 8.347313
_cell_angle_alpha 90.000000
_cell_angle_beta 90.000000
_cell_angle_gamma 90.000000
_cell_volume 2746.567543
_symmetry_space_group_name_H-M "P 42/N"
_symmetry_group_IT_number 86
_space_group.IT_coordinate_system_code '2'
_symmetry_cell_setting 'tetragonal'
loop_
_space_group_symop_operation_xyz
x,y,z
-y,1/2+x,1/2+z
1/2-x,1/2-y,z
1/2+y,-x,1/2+z
-x,-y,-z
y,1/2-x,1/2-z
1/2+x,1/2+y,-z
1/2-y,x,1/2-z
loop_
_atom_site_type_symbol
_atom_site_label
_atom_site_fract_x
_atom_site_fract_y
_atom_site_fract_z
Si Si1 0.140672 0.215936 0.272723
Si Si2 0.885446 0.047180 0.969572
Si Si3 0.250000 0.750000 0.685222
Si Si4 0.497209 0.207045 0.177216
Si Si5 0.522114 0.518708 0.238488
Si Si6 0.211420 0.634984 0.436946
Si Si7 0.927526 0.918684 0.556588
O O1 0.174690 0.295346 0.332296
O O2 0.108149 0.161975 0.410624
O O3 0.071998 0.237871 0.164393
O O4 0.816718 0.016020 0.862676
O O5 0.956325 0.058228 0.856928
O O6 0.863481 0.123765 0.049968
O O7 0.908987 0.994242 0.117823
O O8 0.245450 0.674627 0.589022
O O9 0.323989 0.740689 0.782069
O O10 0.555394 0.253725 0.078636
O O11 0.482038 0.133587 0.077026
O O12 0.545109 0.577693 0.374210
O O13 0.493788 0.441156 0.319644
#
# Coordination Sequence:
#
# PCOD8303524 Si02
#       7
#     8   8   4   8   8   8   8
#     4   9  18  35  59  86 116 153 196 244 293 358
#     4  10  20  36  56  80 117 152 190 240 295 350
#     4  10  24  38  56  78 120 152 202 236 304 356
#     4  10  20  35  58  83 110 154 202 234 295 356
#     4   9  19  35  56  87 119 146 187 246 295 347
#     4  11  21  40  54  83 113 161 193 249 287 369
#     4   9  18  35  57  88 114 149 193 239 293 359
#
# _framework density 18.932722999999999
#
# number of rings (size 3 to 8) (size 9 to 14) (size 15 to 20)
#    0.000    2.308    1.538    0.923    2.154    1.231 
#    5.538    0.000    0.000    0.000    0.000    8.615 
#    0.000    0.000    0.000    0.000    0.000    0.000 
#
# Total GULP energy -644198.378736 kJ/mol
# GULP energy per Si atom -12388.430360 kJ/mol
# Density = 1.888963 g / cm^3
# Si number density = 18.932723 Si / 1000 Ang^3
#
#
#
# Elastic Constant Matrix: (Units=GPa)
#
#
# Indices 1 2 3 4 5 6 
#
# 1 88.5621 35.1770 29.8187 0.0000 0.0000 1.2614
# 2 35.1770 88.5621 29.8187 0.0000 0.0000 -1.2614
# 3 29.8187 29.8187 92.9899 0.0000 0.0000 0.0000
# 4 0.0000 0.0000 0.0000 28.5435 0.0000 0.0000
# 5 0.0000 0.0000 0.0000 0.0000 28.5435 0.0000
# 6 1.2614 -1.2614 0.0000 0.0000 0.0000 31.6991
#
#
#
# Elastic Compliance Matrix: (Units=1/GPa)
#
#
# Indices 1 2 3 4 5 6 
#
# 1 0.014163 -0.004604 -0.003065 0.000000 0.000000 -0.000747
# 2 -0.004604 0.014163 -0.003065 0.000000 0.000000 0.000747
# 3 -0.003065 -0.003065 0.012720 0.000000 0.000000 0.000000
# 4 0.000000 0.000000 0.000000 0.035034 0.000000 0.000000
# 5 0.000000 0.000000 0.000000 0.000000 0.035034 0.000000
# 6 -0.000747 0.000747 0.000000 0.000000 0.000000 0.031606
#
#
# Mechanical properties :
#
#
# Convention : Reuss Voigt Hill
#
# Bulk Modulus (GPa) = 51.08152 51.08253 51.08203
# Shear Modulus (GPa) = 29.28863 29.44387 29.36625
#
# Velocity S-wave (km/s) = 3.93744 3.94786 3.94265
# Velocity P-wave (km/s) = 6.90727 6.91523 6.91125
#
# Compressibility (1/GPa) = 0.01957655
#
# Stress axis : x y z
#
# Youngs Moduli (GPa) = 70.60666 70.60666 78.61847
#
# Poissons Ratio (x) = 0.32508 0.24098
# Poissons Ratio (y) = 0.32508 0.24098
# Poissons Ratio (z) = 0.21642 0.21642
#
# Static dielectric constant tensor:
#      x y z
#    x 3.574050 0.000000 0.000000 
#    y 0.000000 3.574050 0.000000 
#    z 0.000000 0.000000 3.344030 
# 
# 
# High freq. dielectric constant tensor:
#      x y z
#    x 1.739470 0.000000 0.000000 
#    y 0.000000 1.739470 0.000000 
#    z 0.000000 0.000000 1.712330 
# 
# From -- ./inp_files/1411.got.cif
#   From: 2010.03.12/outbox.cif.g09.slc.cpg/sg86_1_cif.got.tgz:1411.got - 2010.04.08 20:12:58.
