data_PCOD8303559
_publ_section_title
;
Structure prediction by ZEFSAII (Michael W. Deem and Ramdas Pophale) SiO2 
 PCOD8303559
Probable space group: P 42/N
;
_chemical_formula_sum "Si O2"
_cell_formula_units_Z 40
_cell_length_a 8.322052
_cell_length_b 8.322052
_cell_length_c 26.773567
_cell_angle_alpha 90.000000
_cell_angle_beta 90.000000
_cell_angle_gamma 90.000000
_cell_volume 1854.244868
_symmetry_space_group_name_H-M "P 42/N"
_symmetry_group_IT_number 86
_space_group.IT_coordinate_system_code '2'
_symmetry_cell_setting 'tetragonal'
loop_
_space_group_symop_operation_xyz
x,y,z
-y,1/2+x,1/2+z
1/2-x,1/2-y,z
1/2+y,-x,1/2+z
-x,-y,-z
y,1/2-x,1/2-z
1/2+x,1/2+y,-z
1/2-y,x,1/2-z
loop_
_atom_site_type_symbol
_atom_site_label
_atom_site_fract_x
_atom_site_fract_y
_atom_site_fract_z
Si Si1 0.514114 0.864621 0.760486
Si Si2 0.539825 0.985777 0.942587
Si Si3 0.576140 0.305901 0.640348
Si Si4 0.750000 0.250000 0.904771
Si Si5 0.250000 0.250000 0.112174
Si Si6 0.037525 0.545100 0.659512
O O1 0.675714 0.962948 0.747810
O O2 0.434264 0.905789 0.813916
O O3 0.399532 0.923501 0.715764
O O4 0.683549 0.110814 0.938966
O O5 0.387939 0.017301 0.906153
O O6 0.612188 0.816346 0.924458
O O7 0.500000 0.000000 0.000000
O O8 0.750000 0.250000 0.621786
O O9 0.481532 0.145553 0.654345
O O10 0.598566 0.313637 0.873747
O O11 0.340398 0.380155 0.147741
#
# Coordination Sequence:
#
# PCOD8303559 Si02
#       6
#     8   8   8   4   4   8
#     4  11  21  37  65  98 134 184 229 264 326 416
#     4  11  25  44  70  97 134 176 233 285 349 399
#     4  12  24  41  67 103 136 173 231 285 333 394
#     4  10  26  44  66  96 130 176 226 278 342 418
#     4  10  20  44  69  98 130 188 231 270 318 428
#     4  11  23  42  68  96 139 175 222 273 336 411
#
# _framework density 21.572122
#
# number of rings (size 3 to 8) (size 9 to 14) (size 15 to 20)
#    0.000    1.000    4.000    3.600    2.800    4.000 
#    0.000    4.000    0.000    0.000    0.000    0.000 
#    0.000    0.000    0.000    0.000    0.000    0.000 
#
# Total GULP energy -495640.082755 kJ/mol
# GULP energy per Si atom -12391.002069 kJ/mol
# Density = 2.152302 g / cm^3
# Si number density = 21.572122 Si / 1000 Ang^3
#
#
#
# Elastic Constant Matrix: (Units=GPa)
#
#
# Indices 1 2 3 4 5 6 
#
# 1 79.8109 16.2451 39.8321 0.0000 0.0000 -1.1052
# 2 16.2451 79.8109 39.8321 0.0000 0.0000 1.1052
# 3 39.8321 39.8321 182.5274 0.0000 0.0000 0.0000
# 4 0.0000 0.0000 0.0000 12.0786 0.0000 0.0000
# 5 0.0000 0.0000 0.0000 0.0000 12.0786 0.0000
# 6 -1.1052 1.1052 0.0000 0.0000 0.0000 32.3047
#
#
#
# Elastic Compliance Matrix: (Units=1/GPa)
#
#
# Indices 1 2 3 4 5 6 
#
# 1 0.014231 -0.001520 -0.002774 0.000000 0.000000 0.000539
# 2 -0.001520 0.014231 -0.002774 0.000000 0.000000 -0.000539
# 3 -0.002774 -0.002774 0.006689 0.000000 0.000000 0.000000
# 4 0.000000 0.000000 0.000000 0.082791 0.000000 0.000000
# 5 0.000000 0.000000 0.000000 0.000000 0.082791 0.000000
# 6 0.000539 -0.000539 0.000000 0.000000 0.000000 0.030992
#
#
# Mechanical properties :
#
#
# Convention : Reuss Voigt Hill
#
# Bulk Modulus (GPa) = 47.58282 59.32977 53.45630
# Shear Modulus (GPa) = 19.77334 27.70836 23.74085
#
# Velocity S-wave (km/s) = 3.03085 3.58781 3.32103
# Velocity P-wave (km/s) = 5.86119 6.68774 6.28806
#
# Compressibility (1/GPa) = 0.02101599
#
# Stress axis : x y z
#
# Youngs Moduli (GPa) = 70.27008 70.27008 149.49254
#
# Poissons Ratio (x) = 0.10679 0.41468
# Poissons Ratio (y) = 0.10679 0.41468
# Poissons Ratio (z) = 0.19492 0.19492
#
# Static dielectric constant tensor:
#      x y z
#    x 3.960320 0.000000 0.000000 
#    y 0.000000 3.960320 0.000000 
#    z 0.000000 0.000000 3.921170 
# 
# 
# High freq. dielectric constant tensor:
#      x y z
#    x 1.847130 0.000000 0.000000 
#    y 0.000000 1.847130 0.000000 
#    z 0.000000 0.000000 1.845360 
# 
# From -- ./inp_files/4538.got.cif
#   From: 2010.03.12/outbox.cif.g09.slc.cpg/sg86_3_cif.got.tgz:4538.got - 2010.04.08 20:12:58.
