data_PCOD8303133
_publ_section_title
;
Structure prediction by ZEFSAII (Michael W. Deem and Ramdas Pophale) SiO2 
 PCOD8303133
Probable space group: P 42/M
;
_chemical_formula_sum "Si O2"
_cell_formula_units_Z 34
_cell_length_a 10.012384
_cell_length_b 10.012384
_cell_length_c 18.048187
_cell_angle_alpha 90.000000
_cell_angle_beta 90.000000
_cell_angle_gamma 90.000000
_cell_volume 1809.291643
_symmetry_space_group_name_H-M "P 42/M"
_symmetry_group_IT_number 84
_symmetry_cell_setting 'tetragonal'
loop_
_space_group_symop_operation_xyz
x,y,z
-y,x,1/2+z
-x,-y,z
y,-x,1/2+z
-x,-y,-z
y,-x,1/2-z
x,y,-z
-y,x,1/2-z
loop_
_atom_site_type_symbol
_atom_site_label
_atom_site_fract_x
_atom_site_fract_y
_atom_site_fract_z
Si Si1 0.589480 0.195330 0.000000
Si Si2 0.273320 0.456551 0.346885
Si Si3 0.249117 0.183938 0.157516
Si Si4 0.078782 0.707332 0.500000
Si Si5 0.641872 0.047394 0.744967
Si Si6 0.500000 0.500000 0.250000
O O1 0.603813 0.290076 0.928731
O O2 0.444102 0.128699 0.000000
O O3 0.703612 0.082216 0.000000
O O4 0.272634 0.617426 0.347230
O O5 0.138711 0.394819 0.314967
O O6 0.401137 0.410159 0.299783
O O7 0.124323 0.275469 0.181708
O O8 0.268993 0.071288 0.220754
O O9 0.217564 0.126338 0.075172
O O10 0.500000 0.000000 0.709758
#
# Coordination Sequence:
#
# PCOD8303133 Si02
#       6
#     4   8   8   4   8   2
#     4   9  16  31  52  81 108 140 189 233 270 320
#     4  10  19  32  53  81 112 143 179 231 284 330
#     4  10  19  34  56  81 107 143 187 232 273 324
#     4   9  16  30  57  80 105 141 188 233 275 310
#     4  10  20  34  55  81 109 143 186 228 276 334
#     4  12  20  30  52  80 124 146 168 220 300 346
#
# _framework density 18.791884
#
# number of rings (size 3 to 8) (size 9 to 14) (size 15 to 20)
#    0.000    2.118    4.706    0.000    0.000    0.941 
#    0.000    0.588    0.000    4.235    0.000    0.000 
#    0.000    0.000    0.000    0.000    0.000    0.000 
#
# Total GULP energy -421473.049308 kJ/mol
# GULP energy per Si atom -12396.266156 kJ/mol
# Density = 1.874911 g / cm^3
# Si number density = 18.791884 Si / 1000 Ang^3
#
#
#
# Elastic Constant Matrix: (Units=GPa)
#
#
# Indices 1 2 3 4 5 6 
#
# 1 70.1612 37.2057 53.9818 0.0000 0.0000 0.7974
# 2 37.2057 70.1612 53.9818 0.0000 0.0000 -0.7974
# 3 53.9818 53.9818 153.9018 0.0000 0.0000 0.0000
# 4 0.0000 0.0000 0.0000 22.4810 0.0000 0.0000
# 5 0.0000 0.0000 0.0000 0.0000 22.4810 0.0000
# 6 0.7974 -0.7974 0.0000 0.0000 0.0000 32.2310
#
#
#
# Elastic Compliance Matrix: (Units=1/GPa)
#
#
# Indices 1 2 3 4 5 6 
#
# 1 0.022385 -0.007996 -0.005047 0.000000 0.000000 -0.000752
# 2 -0.007996 0.022385 -0.005047 0.000000 0.000000 0.000752
# 3 -0.005047 -0.005047 0.010038 0.000000 0.000000 0.000000
# 4 0.000000 0.000000 0.000000 0.044482 0.000000 0.000000
# 5 0.000000 0.000000 0.000000 0.000000 0.044482 0.000000
# 6 -0.000752 0.000752 0.000000 0.000000 0.000000 0.031063
#
#
# Mechanical properties :
#
#
# Convention : Reuss Voigt Hill
#
# Bulk Modulus (GPa) = 53.68256 64.95142 59.31699
# Shear Modulus (GPa) = 23.01780 25.37560 24.19670
#
# Velocity S-wave (km/s) = 3.50363 3.67870 3.59223
# Velocity P-wave (km/s) = 6.70791 7.25826 6.98851
#
# Compressibility (1/GPa) = 0.01862802
#
# Stress axis : x y z
#
# Youngs Moduli (GPa) = 44.67361 44.67361 99.62001
#
# Poissons Ratio (x) = 0.35720 0.50278
# Poissons Ratio (y) = 0.35720 0.50278
# Poissons Ratio (z) = 0.22547 0.22547
#
# Static dielectric constant tensor:
#      x y z
#    x 3.231060 0.000000 0.000000 
#    y 0.000000 3.231060 0.000000 
#    z 0.000000 0.000000 3.580530 
# 
# 
# High freq. dielectric constant tensor:
#      x y z
#    x 1.705560 0.000000 0.000000 
#    y 0.000000 1.705560 0.000000 
#    z 0.000000 0.000000 1.732380 
# 
# From -- ./inp_files/2846.got.cif
#   From: 2010.03.12/outbox.cif.g09.slc.cpg/sg84_2_cif.got.tgz:2846.got - 2010.04.08 20:07:29.
