data_PCOD8303797
_publ_section_title
;
Structure prediction by ZEFSAII (Michael W. Deem and Ramdas Pophale) SiO2 
 PCOD8303797
Probable space group: I 4/M
;
_chemical_formula_sum "Si O2"
_cell_formula_units_Z 96
_cell_length_a 23.598880
_cell_length_b 23.598880
_cell_length_c 9.077464
_cell_angle_alpha 90.000000
_cell_angle_beta 90.000000
_cell_angle_gamma 90.000000
_cell_volume 5055.304490
_symmetry_space_group_name_H-M "I 4/M"
_symmetry_group_IT_number 87
_symmetry_cell_setting 'tetragonal'
loop_
_space_group_symop_operation_xyz
x,y,z
-y,x,z
-x,-y,z
y,-x,z
-x,-y,-z
y,-x,-z
x,y,-z
-y,x,-z
1/2+x,1/2+y,1/2+z
1/2-y,1/2+x,1/2+z
1/2-x,1/2-y,1/2+z
1/2+y,1/2-x,1/2+z
1/2-x,1/2-y,1/2-z
1/2+y,1/2-x,1/2-z
1/2+x,1/2+y,1/2-z
1/2-y,1/2+x,1/2-z
loop_
_atom_site_type_symbol
_atom_site_label
_atom_site_fract_x
_atom_site_fract_y
_atom_site_fract_z
Si Si1 0.519362 0.589722 0.671106
Si Si2 0.317216 0.694779 0.334631
Si Si3 0.983694 0.579624 0.672388
Si Si4 0.580903 0.684559 0.173239
Si Si5 0.682524 0.196603 0.164791
Si Si6 0.914685 0.686902 0.669307
O O1 0.457457 0.566275 0.711088
O O2 0.523141 0.605459 0.500000
O O3 0.529988 0.646017 0.766264
O O4 0.341761 0.691371 0.500000
O O5 0.336431 0.639262 0.246529
O O6 0.342727 0.750229 0.254860
O O7 0.249946 0.699598 0.337276
O O8 0.991985 0.565641 0.500000
O O9 0.933091 0.540742 0.737320
O O10 0.967744 0.645389 0.695943
O O11 0.567535 0.749686 0.217223
O O12 0.586599 0.676880 0.000000
O O13 0.663102 0.138172 0.238574
O O14 0.657672 0.198933 0.000000
O O15 0.895125 0.686989 0.500000
#
# Coordination Sequence:
#
# PCOD8303797 Si02
#       6
#    16  16  16  16  16  16
#     4   9  19  37  58  77 100 134 174 212 254 309
#     4   9  16  27  44  67  99 137 172 206 250 304
#     4  10  20  36  57  78 101 133 174 216 258 306
#     4  10  19  32  52  78 106 135 171 215 261 308
#     4   9  16  26  44  70  98 132 173 211 247 296
#     4   9  19  34  51  74 106 139 168 207 261 315
#
# _framework density 18.989954000000001
#
# number of rings (size 3 to 8) (size 9 to 14) (size 15 to 20)
#    0.000    2.667    0.000    3.000    0.000    6.667 
#    0.000    2.500    0.000    8.000    0.000    0.000 
#    0.000    0.000    0.000    0.000    0.000    0.000 
#
# Total GULP energy -595166.968003 kJ/mol
# GULP energy per Si atom -12399.311833 kJ/mol
# Density = 1.894673 g / cm^3
# Si number density = 18.989954 Si / 1000 Ang^3
#
#
#
# Elastic Constant Matrix: (Units=GPa)
#
#
# Indices 1 2 3 4 5 6 
#
# 1 68.5671 36.2737 33.9031 0.0000 0.0000 0.3349
# 2 36.2737 68.5671 33.9031 0.0000 0.0000 -0.3349
# 3 33.9031 33.9031 103.4289 0.0000 0.0000 0.0000
# 4 0.0000 0.0000 0.0000 27.9643 0.0000 0.0000
# 5 0.0000 0.0000 0.0000 0.0000 27.9643 0.0000
# 6 0.3349 -0.3349 0.0000 0.0000 0.0000 23.7389
#
#
#
# Elastic Compliance Matrix: (Units=1/GPa)
#
#
# Indices 1 2 3 4 5 6 
#
# 1 0.021540 -0.009435 -0.003968 0.000000 0.000000 -0.000437
# 2 -0.009435 0.021540 -0.003968 0.000000 0.000000 0.000437
# 3 -0.003968 -0.003968 0.012270 0.000000 0.000000 0.000000
# 4 0.000000 0.000000 0.000000 0.035760 0.000000 0.000000
# 5 0.000000 0.000000 0.000000 0.000000 0.035760 0.000000
# 6 -0.000437 0.000437 0.000000 0.000000 0.000000 0.042137
#
#
# Mechanical properties :
#
#
# Convention : Reuss Voigt Hill
#
# Bulk Modulus (GPa) = 48.52585 49.85813 49.19199
# Shear Modulus (GPa) = 23.73975 25.03237 24.38606
#
# Velocity S-wave (km/s) = 3.53954 3.63463 3.58740
# Velocity P-wave (km/s) = 6.50487 6.62767 6.56656
#
# Compressibility (1/GPa) = 0.02060757
#
# Stress axis : x y z
#
# Youngs Moduli (GPa) = 46.42570 46.42570 81.50190
#
# Poissons Ratio (x) = 0.43804 0.32338
# Poissons Ratio (y) = 0.43804 0.32338
# Poissons Ratio (z) = 0.18420 0.18420
#
# Static dielectric constant tensor:
#      x y z
#    x 3.280980 0.000000 0.000000 
#    y 0.000000 3.280980 0.000000 
#    z 0.000000 0.000000 3.590290 
# 
# 
# High freq. dielectric constant tensor:
#      x y z
#    x 1.717590 0.000000 0.000000 
#    y 0.000000 1.717590 0.000000 
#    z 0.000000 0.000000 1.748130 
# 
# From -- ./inp_files/1406.got.cif
#   From: 2010.03.12/outbox.cif.g09.slc.cpg/sg87_1_cif.got.tgz:1406.got - 2010.04.08 20:16:13.
