data_PCOD8303399
_publ_section_title
;
Structure prediction by ZEFSAII (Michael W. Deem and Ramdas Pophale) SiO2 
 PCOD8303399
Probable space group: P 42/M
;
_chemical_formula_sum "Si O2"
_cell_formula_units_Z 34
_cell_length_a 9.645082
_cell_length_b 9.645082
_cell_length_c 20.275133
_cell_angle_alpha 90.000000
_cell_angle_beta 90.000000
_cell_angle_gamma 90.000000
_cell_volume 1886.147100
_symmetry_space_group_name_H-M "P 42/M"
_symmetry_group_IT_number 84
_symmetry_cell_setting 'tetragonal'
loop_
_space_group_symop_operation_xyz
x,y,z
-y,x,1/2+z
-x,-y,z
y,-x,1/2+z
-x,-y,-z
y,-x,1/2-z
x,y,-z
-y,x,1/2-z
loop_
_atom_site_type_symbol
_atom_site_label
_atom_site_fract_x
_atom_site_fract_y
_atom_site_fract_z
Si Si1 0.060175 0.345205 0.574138
Si Si2 0.038367 0.355674 0.219571
Si Si3 0.444891 0.748254 0.171099
Si Si4 0.741202 0.844283 0.173740
Si Si5 0.500000 0.500000 0.750000
O O1 0.069594 0.286881 0.500000
O O2 0.216838 0.356445 0.604831
O O3 0.000000 0.500000 0.576665
O O4 0.962156 0.243650 0.617235
O O5 0.127277 0.409071 0.280788
O O6 0.121273 0.251147 0.171909
O O7 0.000000 0.500000 0.181041
O O8 0.907817 0.274589 0.252104
O O9 0.609902 0.746553 0.157168
O O10 0.406364 0.600514 0.203805
#
# Coordination Sequence:
#
# PCOD8303399 Si02
#       5
#     8   8   8   8   2
#     4   8  15  29  47  66  91 127 167 203 236 282
#     4   9  17  28  42  67  97 119 152 199 245 296
#     4   9  17  26  43  68  95 123 151 195 251 300
#     4   9  16  28  44  66  94 122 155 196 243 289
#     4  12  16  24  46  68 100 128 144 190 276 304
#
# _framework density 18.026164000000001
#
# number of rings (size 3 to 8) (size 9 to 14) (size 15 to 20)
#    0.000    3.059    2.353    2.824    0.000    0.471 
#    0.000    0.588    0.000    0.706    0.000   13.176 
#    0.000    0.000    0.000    3.765    0.000    1.882 
#
# Total GULP energy -421220.484211 kJ/mol
# GULP energy per Si atom -12388.837771 kJ/mol
# Density = 1.798514 g / cm^3
# Si number density = 18.026164 Si / 1000 Ang^3
#
#
#
# Elastic Constant Matrix: (Units=GPa)
#
#
# Indices 1 2 3 4 5 6 
#
# 1 69.6955 37.9054 36.9256 0.0000 0.0000 2.9198
# 2 37.9054 69.6955 36.9256 0.0000 0.0000 -2.9198
# 3 36.9256 36.9256 94.3019 0.0000 0.0000 0.0000
# 4 0.0000 0.0000 0.0000 15.0550 0.0000 0.0000
# 5 0.0000 0.0000 0.0000 0.0000 15.0550 0.0000
# 6 2.9198 -2.9198 0.0000 0.0000 0.0000 32.5252
#
#
#
# Elastic Compliance Matrix: (Units=1/GPa)
#
#
# Indices 1 2 3 4 5 6 
#
# 1 0.022346 -0.009637 -0.004977 0.000000 0.000000 -0.002871
# 2 -0.009637 0.022346 -0.004977 0.000000 0.000000 0.002871
# 3 -0.004977 -0.004977 0.014502 0.000000 0.000000 0.000000
# 4 0.000000 0.000000 0.000000 0.066423 0.000000 0.000000
# 5 0.000000 0.000000 0.000000 0.000000 0.066423 0.000000
# 6 -0.002871 0.002871 0.000000 0.000000 0.000000 0.031261
#
#
# Mechanical properties :
#
#
# Convention : Reuss Voigt Hill
#
# Bulk Modulus (GPa) = 49.96537 50.80070 50.38303
# Shear Modulus (GPa) = 18.57676 20.65612 19.61644
#
# Velocity S-wave (km/s) = 3.21369 3.38878 3.30240
# Velocity P-wave (km/s) = 6.44584 6.59959 6.52317
#
# Compressibility (1/GPa) = 0.02001386
#
# Stress axis : x y z
#
# Youngs Moduli (GPa) = 44.74978 44.74978 68.95818
#
# Poissons Ratio (x) = 0.43127 0.34317
# Poissons Ratio (y) = 0.43127 0.34317
# Poissons Ratio (z) = 0.22270 0.22270
#
# Static dielectric constant tensor:
#      x y z
#    x 3.280510 0.000000 0.000000 
#    y 0.000000 3.280510 0.000000 
#    z 0.000000 0.000000 3.190980 
# 
# 
# High freq. dielectric constant tensor:
#      x y z
#    x 1.682010 0.000000 0.000000 
#    y 0.000000 1.682010 0.000000 
#    z 0.000000 0.000000 1.648140 
# 
# From -- ./inp_files/4734.got.cif
#   From: 2010.03.12/outbox.cif.g09.slc.cpg/sg84_3_cif.got.tgz:4734.got - 2010.04.08 20:07:29.
