data_PCOD8303640
_publ_section_title
;
Structure prediction by ZEFSAII (Michael W. Deem and Ramdas Pophale) SiO2 
 PCOD8303640
Probable space group: P 42/N
;
_chemical_formula_sum "Si O2"
_cell_formula_units_Z 42
_cell_length_a 8.802266
_cell_length_b 8.802266
_cell_length_c 26.903181
_cell_angle_alpha 90.000000
_cell_angle_beta 90.000000
_cell_angle_gamma 90.000000
_cell_volume 2084.455417
_symmetry_space_group_name_H-M "P 42/N"
_symmetry_group_IT_number 86
_space_group.IT_coordinate_system_code '2'
_symmetry_cell_setting 'tetragonal'
loop_
_space_group_symop_operation_xyz
x,y,z
-y,1/2+x,1/2+z
1/2-x,1/2-y,z
1/2+y,-x,1/2+z
-x,-y,-z
y,1/2-x,1/2-z
1/2+x,1/2+y,-z
1/2-y,x,1/2-z
loop_
_atom_site_type_symbol
_atom_site_label
_atom_site_fract_x
_atom_site_fract_y
_atom_site_fract_z
Si Si1 0.250000 0.750000 0.480998
Si Si2 0.750000 0.250000 0.355900
Si Si3 0.011615 0.788935 0.564717
Si Si4 0.580331 0.033299 0.280476
Si Si5 0.278499 0.033693 0.417712
Si Si6 0.245963 0.578524 0.311807
Si Si7 0.250000 0.250000 0.750000
O O1 0.395052 0.706397 0.513821
O O2 0.186976 0.622127 0.444558
O O3 0.628669 0.337487 0.391222
O O4 0.645915 0.142036 0.322582
O O5 0.870637 0.899984 0.556039
O O6 0.935393 0.626203 0.576924
O O7 0.560188 0.121324 0.228522
O O8 0.415940 0.963845 0.289336
O O9 0.701869 0.896868 0.281559
O O10 0.229853 0.025972 0.359822
O O11 0.250000 0.750000 0.330899
#
# Coordination Sequence:
#
# PCOD8303640 Si02
#       7
#     4   4   8   8   8   8   2
#     4  11  22  43  66  90 126 161 210 271 326 390
#     4  11  22  43  62  94 130 171 218 265 320 392
#     4  10  24  40  65  92 124 166 212 267 329 382
#     4  12  25  42  65  93 136 176 217 265 325 385
#     4  11  23  41  65  93 126 163 216 266 324 385
#     4  12  25  41  65  99 130 175 216 269 320 380
#     4  12  24  40  64  88 132 176 216 268 316 380
#
# _framework density 20.149148
#
# number of rings (size 3 to 8) (size 9 to 14) (size 15 to 20)
#    0.000    0.762    5.714    1.143    5.333    0.381 
#    0.000    0.000    0.000    0.000    0.000    0.000 
#    0.000    0.000    0.000    0.000    0.000    0.000 
#
# Total GULP energy -520560.647214 kJ/mol
# GULP energy per Si atom -12394.301124 kJ/mol
# Density = 2.010329 g / cm^3
# Si number density = 20.149148 Si / 1000 Ang^3
#
#
#
# Elastic Constant Matrix: (Units=GPa)
#
#
# Indices 1 2 3 4 5 6 
#
# 1 79.4115 1.5315 14.1765 0.0000 0.0000 4.0486
# 2 1.5315 79.4115 14.1765 0.0000 0.0000 -4.0486
# 3 14.1765 14.1765 94.8026 0.0000 0.0000 0.0000
# 4 0.0000 0.0000 0.0000 29.0213 0.0000 0.0000
# 5 0.0000 0.0000 0.0000 0.0000 29.0213 0.0000
# 6 4.0486 -4.0486 0.0000 0.0000 0.0000 39.4272
#
#
#
# Elastic Compliance Matrix: (Units=1/GPa)
#
#
# Indices 1 2 3 4 5 6 
#
# 1 0.013008 0.000029 -0.001950 0.000000 0.000000 -0.001333
# 2 0.000029 0.013008 -0.001950 0.000000 0.000000 0.001333
# 3 -0.001950 -0.001950 0.011131 0.000000 0.000000 0.000000
# 4 0.000000 0.000000 0.000000 0.034457 0.000000 0.000000
# 5 0.000000 0.000000 0.000000 0.000000 0.034457 0.000000
# 6 -0.001333 0.001333 0.000000 0.000000 0.000000 0.025637
#
#
# Mechanical properties :
#
#
# Convention : Reuss Voigt Hill
#
# Bulk Modulus (GPa) = 34.00479 34.82162 34.41320
# Shear Modulus (GPa) = 33.50275 34.41004 33.95639
#
# Velocity S-wave (km/s) = 4.08209 4.13700 4.10964
# Velocity P-wave (km/s) = 6.25549 6.33554 6.29564
#
# Compressibility (1/GPa) = 0.02940762
#
# Stress axis : x y z
#
# Youngs Moduli (GPa) = 76.87544 76.87544 89.83679
#
# Poissons Ratio (x) = -0.00225 0.17514
# Poissons Ratio (y) = -0.00225 0.17514
# Poissons Ratio (z) = 0.14987 0.14987
#
# Static dielectric constant tensor:
#      x y z
#    x 3.726590 0.000000 0.000000 
#    y 0.000000 3.726590 0.000000 
#    z 0.000000 0.000000 3.633670 
# 
# 
# High freq. dielectric constant tensor:
#      x y z
#    x 1.794980 0.000000 0.000000 
#    y 0.000000 1.794980 0.000000 
#    z 0.000000 0.000000 1.790550 
# 
# From -- ./inp_files/4860.got.cif
#   From: 2010.03.12/outbox.cif.g09.slc.cpg/sg86_3_cif.got.tgz:4860.got - 2010.04.08 20:12:58.
