data_PCOD8303660
_publ_section_title
;
Structure prediction by ZEFSAII (Michael W. Deem and Ramdas Pophale) SiO2 
 PCOD8303660
Probable space group: P 42/N
;
_chemical_formula_sum "Si O2"
_cell_formula_units_Z 36
_cell_length_a 11.629202
_cell_length_b 11.629202
_cell_length_c 10.520224
_cell_angle_alpha 90.000000
_cell_angle_beta 90.000000
_cell_angle_gamma 90.000000
_cell_volume 1422.737621
_symmetry_space_group_name_H-M "P 42/N"
_symmetry_group_IT_number 86
_space_group.IT_coordinate_system_code '2'
_symmetry_cell_setting 'tetragonal'
loop_
_space_group_symop_operation_xyz
x,y,z
-y,1/2+x,1/2+z
1/2-x,1/2-y,z
1/2+y,-x,1/2+z
-x,-y,-z
y,1/2-x,1/2-z
1/2+x,1/2+y,-z
1/2-y,x,1/2-z
loop_
_atom_site_type_symbol
_atom_site_label
_atom_site_fract_x
_atom_site_fract_y
_atom_site_fract_z
Si Si1 0.469050 0.463947 0.642639
Si Si2 0.750000 0.250000 0.683841
Si Si3 0.787595 0.997977 0.732795
Si Si4 0.793980 0.006148 0.155169
Si Si5 0.660909 0.657266 0.949376
O O1 0.500000 0.500000 0.500000
O O2 0.575180 0.512764 0.722143
O O3 0.444624 0.329051 0.661544
O O4 0.354221 0.519921 0.705668
O O5 0.739752 0.368577 0.764727
O O6 0.865591 0.266201 0.599964
O O7 0.759286 0.913416 0.849099
O O8 0.717224 0.953458 0.608380
O O9 0.875643 0.931489 0.061300
O O10 0.750000 0.750000 0.005095
#
# Coordination Sequence:
#
# PCOD8303660 Si02
#       5
#     8   4   8   8   8
#     4  11  27  48  74 116 160 203 269 345 406 493
#     4  10  26  48  66 108 154 204 254 322 402 480
#     4  11  23  45  73 108 148 206 260 324 404 479
#     4  11  28  47  78 112 157 210 261 333 417 484
#     4  12  24  44  79 114 148 207 273 331 402 489
#
# _framework density 25.303331
#
# number of rings (size 3 to 8) (size 9 to 14) (size 15 to 20)
#    0.000    0.889    2.222    2.667    9.333    4.444 
#    8.000    0.000    0.000    0.000    0.000    0.000 
#    0.000    0.000    0.000    0.000    0.000    0.000 
#
# Total GULP energy -446005.508240 kJ/mol
# GULP energy per Si atom -12389.041896 kJ/mol
# Density = 2.524574 g / cm^3
# Si number density = 25.303331 Si / 1000 Ang^3
#
#
#
# Elastic Constant Matrix: (Units=GPa)
#
#
# Indices 1 2 3 4 5 6 
#
# 1 164.6266 32.0742 44.4054 0.0000 0.0000 0.5416
# 2 32.0742 164.6266 44.4054 0.0000 0.0000 -0.5416
# 3 44.4054 44.4054 113.2213 0.0000 0.0000 0.0000
# 4 0.0000 0.0000 0.0000 29.5266 0.0000 0.0000
# 5 0.0000 0.0000 0.0000 0.0000 29.5266 0.0000
# 6 0.5416 -0.5416 0.0000 0.0000 0.0000 36.6607
#
#
#
# Elastic Compliance Matrix: (Units=1/GPa)
#
#
# Indices 1 2 3 4 5 6 
#
# 1 0.006861 -0.000684 -0.002423 0.000000 0.000000 -0.000111
# 2 -0.000684 0.006861 -0.002423 0.000000 0.000000 0.000111
# 3 -0.002423 -0.002423 0.010733 0.000000 0.000000 0.000000
# 4 0.000000 0.000000 0.000000 0.033868 0.000000 0.000000
# 5 0.000000 0.000000 0.000000 0.000000 0.033868 0.000000
# 6 -0.000111 0.000111 0.000000 0.000000 0.000000 0.027280
#
#
# Mechanical properties :
#
#
# Convention : Reuss Voigt Hill
#
# Bulk Modulus (GPa) = 74.64528 76.02718 75.33623
# Shear Modulus (GPa) = 37.03806 40.58209 38.81007
#
# Velocity S-wave (km/s) = 3.83007 4.00912 3.92062
# Velocity P-wave (km/s) = 7.00881 7.17930 7.09456
#
# Compressibility (1/GPa) = 0.01339669
#
# Stress axis : x y z
#
# Youngs Moduli (GPa) = 145.74149 145.74149 93.17213
#
# Poissons Ratio (x) = 0.09963 0.22575
# Poissons Ratio (y) = 0.09963 0.22575
# Poissons Ratio (z) = 0.35312 0.35312
#
# Static dielectric constant tensor:
#      x y z
#    x 4.869830 0.000000 0.000000 
#    y 0.000000 4.869830 0.000000 
#    z 0.000000 0.000000 4.094940 
# 
# 
# High freq. dielectric constant tensor:
#      x y z
#    x 2.029220 0.000000 0.000000 
#    y 0.000000 2.029220 0.000000 
#    z 0.000000 0.000000 1.960090 
# 
# From -- ./inp_files/2073.got.cif
#   From: 2010.03.12/outbox.cif.g09.slc.cpg/sg86_2_cif.got.tgz:2073.got - 2010.04.08 20:12:58.
