data_PCOD8303464
_publ_section_title
;
Structure prediction by ZEFSAII (Michael W. Deem and Ramdas Pophale) SiO2 
 PCOD8303464
Probable space group: P 4/N
;
_chemical_formula_sum "Si O2"
_cell_formula_units_Z 32
_cell_length_a 12.974096
_cell_length_b 12.974096
_cell_length_c 8.468062
_cell_angle_alpha 90.000000
_cell_angle_beta 90.000000
_cell_angle_gamma 90.000000
_cell_volume 1425.404887
_symmetry_space_group_name_H-M "P 4/N"
_symmetry_group_IT_number 85
_symmetry_cell_setting 'tetragonal'
loop_
_space_group_symop_operation_xyz
x,y,z
1/2-y,x,z
1/2-x,1/2-y,z
y,1/2-x,z
-x,-y,-z
1/2+y,-x,-z
1/2+x,1/2+y,-z
-y,1/2+x,-z
loop_
_atom_site_type_symbol
_atom_site_label
_atom_site_fract_x
_atom_site_fract_y
_atom_site_fract_z
Si Si1 0.369678 0.980189 0.171270
Si Si2 0.697361 0.096619 0.506090
Si Si3 0.020458 0.331607 0.018382
Si Si4 0.243071 0.411885 0.708395
O O1 0.371504 0.959696 0.359609
O O2 0.249788 0.962754 0.129323
O O3 0.408747 0.095390 0.128915
O O4 0.440108 0.897992 0.082160
O O5 0.635448 0.191925 0.429022
O O6 0.724542 0.023737 0.360180
O O7 0.083346 0.256956 0.898139
O O8 0.144031 0.346994 0.650695
#
# Coordination Sequence:
#
# PCOD8303464 Si02
#       4
#     8   8   8   8
#     4  11  26  42  69 100 132 182 227 287 336 417
#     4  11  26  44  68 102 143 180 229 282 351 418
#     4  11  24  45  68  98 133 177 234 279 345 405
#     4  11  24  45  69  97 134 183 225 287 347 410
#
# _framework density 22.449759
#
# number of rings (size 3 to 8) (size 9 to 14) (size 15 to 20)
#    0.000    1.000    5.000    0.000    7.000    2.000 
#    0.000    0.000    0.000    0.000    0.000    0.000 
#    0.000    0.000    0.000    0.000    0.000    0.000 
#
# Total GULP energy -396575.936823 kJ/mol
# GULP energy per Si atom -12392.998026 kJ/mol
# Density = 2.239866 g / cm^3
# Si number density = 22.449759 Si / 1000 Ang^3
#
#
#
# Elastic Constant Matrix: (Units=GPa)
#
#
# Indices 1 2 3 4 5 6 
#
# 1 72.3554 12.9846 29.9489 0.0000 0.0000 -6.6933
# 2 12.9846 72.3554 29.9489 0.0000 0.0000 6.6933
# 3 29.9489 29.9489 90.6773 0.0000 0.0000 0.0000
# 4 0.0000 0.0000 0.0000 38.1741 0.0000 0.0000
# 5 0.0000 0.0000 0.0000 0.0000 38.1741 0.0000
# 6 -6.6933 6.6933 0.0000 0.0000 0.0000 6.6292
#
#
#
# Elastic Compliance Matrix: (Units=1/GPa)
#
#
# Indices 1 2 3 4 5 6 
#
# 1 0.018531 -0.003277 -0.005038 0.000000 0.000000 0.022019
# 2 -0.003277 0.018531 -0.005038 0.000000 0.000000 -0.022019
# 3 -0.005038 -0.005038 0.014356 0.000000 0.000000 0.000000
# 4 0.000000 0.000000 0.000000 0.026196 0.000000 0.000000
# 5 0.000000 0.000000 0.000000 0.000000 0.026196 0.000000
# 6 0.022019 -0.022019 0.000000 0.000000 0.000000 0.195311
#
#
# Mechanical properties :
#
#
# Convention : Reuss Voigt Hill
#
# Bulk Modulus (GPa) = 40.46677 42.35033 41.40855
# Shear Modulus (GPa) = 14.96720 27.42920 21.19820
#
# Velocity S-wave (km/s) = 2.58485 3.49922 3.07620
# Velocity P-wave (km/s) = 5.19357 5.93561 5.57695
#
# Compressibility (1/GPa) = 0.02471163
#
# Stress axis : x y z
#
# Youngs Moduli (GPa) = 53.96384 53.96384 69.65698
#
# Poissons Ratio (x) = 0.17684 0.35094
# Poissons Ratio (y) = 0.17684 0.35094
# Poissons Ratio (z) = 0.27187 0.27187
#
# Static dielectric constant tensor:
#      x y z
#    x 4.177820 0.000000 0.000000 
#    y 0.000000 4.177820 0.000000 
#    z 0.000000 0.000000 3.793600 
# 
# 
# High freq. dielectric constant tensor:
#      x y z
#    x 1.893760 0.000000 0.000000 
#    y 0.000000 1.893760 0.000000 
#    z 0.000000 0.000000 1.868990 
# 
# From -- ./inp_files/751.got.cif
#   From: 2010.03.12/outbox.cif.g09.slc.cpg/sg85_cif.got.tgz:751.got - 2010.04.08 20:10:46.
