data_PCOD8303207
_publ_section_title
;
Structure prediction by ZEFSAII (Michael W. Deem and Ramdas Pophale) SiO2 
 PCOD8303207
Probable space group: P 42/M
;
_chemical_formula_sum "Si O2"
_cell_formula_units_Z 58
_cell_length_a 17.813040
_cell_length_b 17.813040
_cell_length_c 9.198794
_cell_angle_alpha 90.000000
_cell_angle_beta 90.000000
_cell_angle_gamma 90.000000
_cell_volume 2918.817756
_symmetry_space_group_name_H-M "P 42/M"
_symmetry_group_IT_number 84
_symmetry_cell_setting 'tetragonal'
loop_
_space_group_symop_operation_xyz
x,y,z
-y,x,1/2+z
-x,-y,z
y,-x,1/2+z
-x,-y,-z
y,-x,1/2-z
x,y,-z
-y,x,1/2-z
loop_
_atom_site_type_symbol
_atom_site_label
_atom_site_fract_x
_atom_site_fract_y
_atom_site_fract_z
Si Si1 0.740349 0.631565 0.837567
Si Si2 0.650801 0.430515 0.662302
Si Si3 0.289950 0.127927 0.829535
Si Si4 0.959674 0.688379 0.670675
Si Si5 0.449885 0.861722 0.829949
Si Si6 0.201440 0.578592 0.827511
Si Si7 0.500000 0.500000 0.750000
Si Si8 0.160369 0.226476 0.839748
O O1 0.653531 0.626296 0.797055
O O2 0.782364 0.586996 0.710746
O O3 0.770084 0.716090 0.835004
O O4 0.755054 0.596948 0.000000
O O5 0.685074 0.433084 0.500000
O O6 0.717071 0.453371 0.774483
O O7 0.577010 0.483813 0.662463
O O8 0.339285 0.186081 0.736216
O O9 0.201797 0.147686 0.803086
O O10 0.302951 0.043766 0.770331
O O11 0.311034 0.135038 0.000000
O O12 0.956787 0.698157 0.500000
O O13 0.928841 0.606232 0.716801
O O14 0.906866 0.754374 0.731523
O O15 0.526270 0.865927 0.736444
O O16 0.468880 0.865248 0.000000
O O17 0.199568 0.580137 0.000000
O O18 0.124139 0.224595 0.000000
#
# Coordination Sequence:
#
# PCOD8303207 Si02
#       8
#     8   8   8   8   8   8   2   8
#     4   9  17  33  57  80 106 145 189 235 285 338
#     4  11  23  41  58  78 110 149 193 243 296 345
#     4  10  20  39  62  86 116 152 188 227 282 339
#     4   9  20  36  59  88 116 148 188 229 274 336
#     4  10  20  35  54  80 114 151 186 230 286 341
#     4  12  25  38  57  83 110 147 194 244 288 340
#     4  12  26  36  60  90 110 148 200 250 294 340
#     4   9  17  33  59  85 113 149 184 225 278 331
#
# _framework density 19.871058000000001
#
# number of rings (size 3 to 8) (size 9 to 14) (size 15 to 20)
#    0.000    1.931    1.379    2.690    0.000    4.966 
#    0.000    2.759    0.000    0.414    0.000    2.897 
#    0.000    0.000    0.000    0.000    0.000    0.000 
#
# Total GULP energy -718917.023529 kJ/mol
# GULP energy per Si atom -12395.121095 kJ/mol
# Density = 1.982583 g / cm^3
# Si number density = 19.871058 Si / 1000 Ang^3
#
#
#
# Elastic Constant Matrix: (Units=GPa)
#
#
# Indices 1 2 3 4 5 6 
#
# 1 86.0067 22.1938 29.7645 0.0000 0.0000 2.4290
# 2 22.1938 86.0067 29.7645 0.0000 0.0000 -2.4290
# 3 29.7645 29.7645 82.3074 0.0000 0.0000 0.0000
# 4 0.0000 0.0000 0.0000 23.5786 0.0000 0.0000
# 5 0.0000 0.0000 0.0000 0.0000 23.5786 0.0000
# 6 2.4290 -2.4290 0.0000 0.0000 0.0000 15.7556
#
#
#
# Elastic Compliance Matrix: (Units=1/GPa)
#
#
# Indices 1 2 3 4 5 6 
#
# 1 0.013697 -0.002160 -0.004172 0.000000 0.000000 -0.002445
# 2 -0.002160 0.013697 -0.004172 0.000000 0.000000 0.002445
# 3 -0.004172 -0.004172 0.015167 0.000000 0.000000 0.000000
# 4 0.000000 0.000000 0.000000 0.042411 0.000000 0.000000
# 5 0.000000 0.000000 0.000000 0.000000 0.042411 0.000000
# 6 -0.002445 0.002445 0.000000 0.000000 0.000000 0.064223
#
#
# Mechanical properties :
#
#
# Convention : Reuss Voigt Hill
#
# Bulk Modulus (GPa) = 46.39684 46.41851 46.40768
# Shear Modulus (GPa) = 22.74788 24.08908 23.41848
#
# Velocity S-wave (km/s) = 3.38712 3.48554 3.43668
# Velocity P-wave (km/s) = 6.22065 6.29359 6.25722
#
# Compressibility (1/GPa) = 0.02155319
#
# Stress axis : x y z
#
# Youngs Moduli (GPa) = 73.00733 73.00733 65.93167
#
# Poissons Ratio (x) = 0.15767 0.27509
# Poissons Ratio (y) = 0.15767 0.27509
# Poissons Ratio (z) = 0.30461 0.30461
#
# Static dielectric constant tensor:
#      x y z
#    x 3.626180 0.000000 0.000000 
#    y 0.000000 3.626180 0.000000 
#    z 0.000000 0.000000 3.463340 
# 
# 
# High freq. dielectric constant tensor:
#      x y z
#    x 1.764130 0.000000 0.000000 
#    y 0.000000 1.764130 0.000000 
#    z 0.000000 0.000000 1.765400 
# 
# From -- ./inp_files/1137.got.cif
#   From: 2010.03.12/outbox.cif.g09.slc.cpg/sg84_1_cif.got.tgz:1137.got - 2010.04.08 20:07:29.
