data_PCOD8303571
_publ_section_title
;
Structure prediction by ZEFSAII (Michael W. Deem and Ramdas Pophale) SiO2 
 PCOD8303571
Probable space group: P 42/N
;
_chemical_formula_sum "Si O2"
_cell_formula_units_Z 36
_cell_length_a 7.477386
_cell_length_b 7.477386
_cell_length_c 27.314012
_cell_angle_alpha 90.000000
_cell_angle_beta 90.000000
_cell_angle_gamma 90.000000
_cell_volume 1527.161957
_symmetry_space_group_name_H-M "P 42/N"
_symmetry_group_IT_number 86
_space_group.IT_coordinate_system_code '2'
_symmetry_cell_setting 'tetragonal'
loop_
_space_group_symop_operation_xyz
x,y,z
-y,1/2+x,1/2+z
1/2-x,1/2-y,z
1/2+y,-x,1/2+z
-x,-y,-z
y,1/2-x,1/2-z
1/2+x,1/2+y,-z
1/2-y,x,1/2-z
loop_
_atom_site_type_symbol
_atom_site_label
_atom_site_fract_x
_atom_site_fract_y
_atom_site_fract_z
Si Si1 0.750000 0.250000 0.508020
Si Si2 0.750000 0.750000 0.750000
Si Si3 0.871837 0.477014 0.425182
Si Si4 0.250000 0.750000 0.155572
Si Si5 0.250000 0.250000 0.750000
Si Si6 0.522119 0.016828 0.192568
Si Si7 0.985506 0.142203 0.585925
O O1 0.893532 0.359124 0.474515
O O2 0.653259 0.400669 0.542319
O O3 0.682508 0.577385 0.719034
O O4 0.898312 0.349172 0.378222
O O5 0.004368 0.641708 0.419751
O O6 0.668188 0.543829 0.424083
O O7 0.384936 0.852905 0.190207
O O8 0.427321 0.305677 0.719045
O O9 0.587907 0.087399 0.139432
#
# Coordination Sequence:
#
# PCOD8303571 Si02
#       7
#     4   2   8   4   2   8   8
#     4  11  20  32  57  88 120 158 199 256 304 353
#     4  12  28  44  64 100 134 152 204 284 340 364
#     4   9  19  36  57  85 122 161 205 250 296 370
#     4   9  18  38  63  86 120 164 207 254 316 375
#     4  12  24  44  72  88 114 172 228 256 312 404
#     4  11  24  42  65  93 124 165 209 267 322 382
#     4  10  21  37  57  84 120 162 206 245 307 382
#
# _framework density 23.573138
#
# number of rings (size 3 to 8) (size 9 to 14) (size 15 to 20)
#    0.000    1.778    0.000    5.333    0.000    3.556 
#    0.000    4.444    0.000    0.000    0.000    0.000 
#    0.000    0.000    0.000    0.000    0.000    0.000 
#
# Total GULP energy -446151.341674 kJ/mol
# GULP energy per Si atom -12393.092824 kJ/mol
# Density = 2.351948 g / cm^3
# Si number density = 23.573138 Si / 1000 Ang^3
#
#
#
# Elastic Constant Matrix: (Units=GPa)
#
#
# Indices 1 2 3 4 5 6 
#
# 1 67.8679 6.4849 32.7522 0.0000 0.0000 -3.4585
# 2 6.4849 67.8679 32.7522 0.0000 0.0000 3.4585
# 3 32.7522 32.7522 130.8037 0.0000 0.0000 0.0000
# 4 0.0000 0.0000 0.0000 25.7164 0.0000 0.0000
# 5 0.0000 0.0000 0.0000 0.0000 25.7164 0.0000
# 6 -3.4585 3.4585 0.0000 0.0000 0.0000 38.1000
#
#
#
# Elastic Compliance Matrix: (Units=1/GPa)
#
#
# Indices 1 2 3 4 5 6 
#
# 1 0.016858 0.000398 -0.004321 0.000000 0.000000 0.001494
# 2 0.000398 0.016858 -0.004321 0.000000 0.000000 -0.001494
# 3 -0.004321 -0.004321 0.009809 0.000000 0.000000 0.000000
# 4 0.000000 0.000000 0.000000 0.038886 0.000000 0.000000
# 5 0.000000 0.000000 0.000000 0.000000 0.038886 0.000000
# 6 0.001494 -0.001494 0.000000 0.000000 0.000000 0.026518
#
#
# Mechanical properties :
#
#
# Convention : Reuss Voigt Hill
#
# Bulk Modulus (GPa) = 36.98540 45.61314 41.29927
# Shear Modulus (GPa) = 28.84956 30.87657 29.86306
#
# Velocity S-wave (km/s) = 3.50213 3.62307 3.56311
# Velocity P-wave (km/s) = 5.66365 6.07403 5.87242
#
# Compressibility (1/GPa) = 0.02703769
#
# Stress axis : x y z
#
# Youngs Moduli (GPa) = 59.31995 59.31995 101.94917
#
# Poissons Ratio (x) = -0.02362 0.44050
# Poissons Ratio (y) = -0.02362 0.44050
# Poissons Ratio (z) = 0.25631 0.25631
#
# Static dielectric constant tensor:
#      x y z
#    x 4.125780 0.000000 0.000000 
#    y 0.000000 4.125780 0.000000 
#    z 0.000000 0.000000 4.399480 
# 
# 
# High freq. dielectric constant tensor:
#      x y z
#    x 1.918620 0.000000 0.000000 
#    y 0.000000 1.918620 0.000000 
#    z 0.000000 0.000000 1.947430 
# 
# From -- ./inp_files/4793.got.cif
#   From: 2010.03.12/outbox.cif.g09.slc.cpg/sg86_3_cif.got.tgz:4793.got - 2010.04.08 20:12:58.
