data_PCOD8303950
_publ_section_title
;
Structure prediction by ZEFSAII (Michael W. Deem and Ramdas Pophale) SiO2 
 PCOD8303950
Probable space group: I 4/M
;
_chemical_formula_sum "Si O2"
_cell_formula_units_Z 112
_cell_length_a 14.193550
_cell_length_b 14.193550
_cell_length_c 26.365896
_cell_angle_alpha 90.000000
_cell_angle_beta 90.000000
_cell_angle_gamma 90.000000
_cell_volume 5311.590661
_symmetry_space_group_name_H-M "I 4/M"
_symmetry_group_IT_number 87
_symmetry_cell_setting 'tetragonal'
loop_
_space_group_symop_operation_xyz
x,y,z
-y,x,z
-x,-y,z
y,-x,z
-x,-y,-z
y,-x,-z
x,y,-z
-y,x,-z
1/2+x,1/2+y,1/2+z
1/2-y,1/2+x,1/2+z
1/2-x,1/2-y,1/2+z
1/2+y,1/2-x,1/2+z
1/2-x,1/2-y,1/2-z
1/2+y,1/2-x,1/2-z
1/2+x,1/2+y,1/2-z
1/2-y,1/2+x,1/2-z
loop_
_atom_site_type_symbol
_atom_site_label
_atom_site_fract_x
_atom_site_fract_y
_atom_site_fract_z
Si Si1 0.900901 0.660182 0.124324
Si Si2 0.382420 0.104271 0.847846
Si Si3 0.776970 0.543193 0.809269
Si Si4 0.652952 0.002994 0.556978
Si Si5 0.152561 0.005954 0.600459
Si Si6 0.926555 0.863194 0.143496
Si Si7 0.839804 0.221449 0.781455
O O1 0.813161 0.637038 0.161293
O O2 0.897916 0.594140 0.074439
O O3 0.898000 0.771914 0.109365
O O4 0.993212 0.633856 0.156813
O O5 0.464975 0.139391 0.809501
O O6 0.410073 0.127607 0.906010
O O7 0.285182 0.155325 0.832283
O O8 0.690091 0.501873 0.841649
O O9 0.742467 0.567817 0.752906
O O10 0.620538 0.026781 0.500000
O O11 0.764712 0.987444 0.559274
O O12 0.089372 0.096661 0.591063
O O13 0.888914 0.837612 0.200785
O O14 0.037751 0.874243 0.133436
O O15 0.750000 0.250000 0.750000
#
# Coordination Sequence:
#
# PCOD8303950 Si02
#       7
#    16  16  16  16  16  16  16
#     4  10  20  43  62  92 126 167 209 277 340 403
#     4  10  23  40  62  93 132 169 220 273 342 397
#     4  10  23  35  61  89 129 174 224 268 323 398
#     4  10  23  42  71 101 128 163 219 282 349 416
#     4   9  20  39  62  89 131 176 215 265 322 392
#     4  11  24  42  62  88 124 177 231 270 323 394
#     4  12  25  37  62  91 138 180 228 274 329 398
#
# _framework density 21.085961999999999
#
# number of rings (size 3 to 8) (size 9 to 14) (size 15 to 20)
#    0.000    2.000    2.857    1.714    8.000    1.714 
#    0.000    2.143    0.000    0.857    0.000    1.000 
#    0.000    0.000    0.000    0.000    0.000    0.000 
#
# Total GULP energy -693827.376374 kJ/mol
# GULP energy per Si atom -12389.774578 kJ/mol
# Density = 2.103797 g / cm^3
# Si number density = 21.085962 Si / 1000 Ang^3
#
#
#
# Elastic Constant Matrix: (Units=GPa)
#
#
# Indices 1 2 3 4 5 6 
#
# 1 89.8143 13.2428 19.1066 0.0000 0.0000 -1.4916
# 2 13.2428 89.8143 19.1066 0.0000 0.0000 1.4916
# 3 19.1066 19.1066 102.9193 0.0000 0.0000 0.0000
# 4 0.0000 0.0000 0.0000 18.6114 0.0000 0.0000
# 5 0.0000 0.0000 0.0000 0.0000 18.6114 0.0000
# 6 -1.4916 1.4916 0.0000 0.0000 0.0000 16.0148
#
#
#
# Elastic Compliance Matrix: (Units=1/GPa)
#
#
# Indices 1 2 3 4 5 6 
#
# 1 0.011764 -0.001343 -0.001935 0.000000 0.000000 0.001221
# 2 -0.001343 0.011764 -0.001935 0.000000 0.000000 -0.001221
# 3 -0.001935 -0.001935 0.010435 0.000000 0.000000 0.000000
# 4 0.000000 0.000000 0.000000 0.053731 0.000000 0.000000
# 5 0.000000 0.000000 0.000000 0.000000 0.053731 0.000000
# 6 0.001221 -0.001221 0.000000 0.000000 0.000000 0.062670
#
#
# Mechanical properties :
#
#
# Convention : Reuss Voigt Hill
#
# Bulk Modulus (GPa) = 42.48494 42.82889 42.65691
# Shear Modulus (GPa) = 22.48563 26.05363 24.26963
#
# Velocity S-wave (km/s) = 3.26909 3.51891 3.39630
# Velocity P-wave (km/s) = 5.86868 6.07174 5.97107
#
# Compressibility (1/GPa) = 0.02353775
#
# Stress axis : x y z
#
# Youngs Moduli (GPa) = 85.00529 85.00529 95.83460
#
# Poissons Ratio (x) = 0.11419 0.18540
# Poissons Ratio (y) = 0.11419 0.18540
# Poissons Ratio (z) = 0.16445 0.16445
#
# Static dielectric constant tensor:
#      x y z
#    x 4.034010 0.000000 0.000000 
#    y 0.000000 4.034010 0.000000 
#    z 0.000000 0.000000 3.433860 
# 
# 
# High freq. dielectric constant tensor:
#      x y z
#    x 1.838940 0.000000 0.000000 
#    y 0.000000 1.838940 0.000000 
#    z 0.000000 0.000000 1.772270 
# 
# From -- ./inp_files/6299.got.cif
#   From: 2010.03.12/outbox.cif.g09.slc.cpg/sg87_4_cif.got.tgz:6299.got - 2010.04.08 20:16:13.
