data_PCOD8303474
_publ_section_title
;
Structure prediction by ZEFSAII (Michael W. Deem and Ramdas Pophale) SiO2 
 PCOD8303474
Probable space group: P 42/N
;
_chemical_formula_sum "Si O2"
_cell_formula_units_Z 40
_cell_length_a 16.104257
_cell_length_b 16.104257
_cell_length_c 8.845612
_cell_angle_alpha 90.000000
_cell_angle_beta 90.000000
_cell_angle_gamma 90.000000
_cell_volume 2294.083763
_symmetry_space_group_name_H-M "P 42/N"
_symmetry_group_IT_number 86
_space_group.IT_coordinate_system_code '2'
_symmetry_cell_setting 'tetragonal'
loop_
_space_group_symop_operation_xyz
x,y,z
-y,1/2+x,1/2+z
1/2-x,1/2-y,z
1/2+y,-x,1/2+z
-x,-y,-z
y,1/2-x,1/2-z
1/2+x,1/2+y,-z
1/2-y,x,1/2-z
loop_
_atom_site_type_symbol
_atom_site_label
_atom_site_fract_x
_atom_site_fract_y
_atom_site_fract_z
Si Si1 0.612852 0.480381 0.392632
Si Si2 0.753146 0.386463 0.255146
Si Si3 0.250000 0.750000 0.995223
Si Si4 0.163368 0.146010 0.503878
Si Si5 0.250000 0.250000 0.750000
Si Si6 0.117947 0.506130 0.885966
Si Si7 0.750000 0.750000 0.750000
O O1 0.668010 0.439001 0.261874
O O2 0.667718 0.544746 0.496309
O O3 0.537275 0.534171 0.317636
O O4 0.576875 0.406882 0.494781
O O5 0.754518 0.331981 0.105015
O O6 0.761078 0.331970 0.405031
O O7 0.829491 0.451329 0.247326
O O8 0.217137 0.175778 0.646235
O O9 0.198182 0.184529 0.349455
O O10 0.066113 0.171751 0.528547
#
# Coordination Sequence:
#
# PCOD8303474 Si02
#       7
#     8   8   4   8   2   8   2
#     4   9  19  36  56  79 113 149 181 234 290 326
#     4  11  19  42  55  87 114 152 192 241 275 358
#     4  10  24  34  64  82 112 158 196 226 292 330
#     4   9  19  34  56  81 111 150 179 230 277 338
#     4  10  16  30  56  82 104 146 188 206 276 346
#     4   9  19  36  56  79 113 149 181 234 290 326
#     4  10  20  38  52  90 116 134 200 226 280 342
#
# _framework density 17.436154999999999
#
# number of rings (size 3 to 8) (size 9 to 14) (size 15 to 20)
#    1.200    1.200    2.000    1.200    0.000    0.000 
#    7.200    1.000    0.000    0.000    0.000    0.000 
#    0.000    0.000    0.000    0.000    0.000    0.000 
#
# Total GULP energy -495555.788247 kJ/mol
# GULP energy per Si atom -12388.894706 kJ/mol
# Density = 1.739647 g / cm^3
# Si number density = 17.436155 Si / 1000 Ang^3
#
#
#
# Elastic Constant Matrix: (Units=GPa)
#
#
# Indices 1 2 3 4 5 6 
#
# 1 72.0887 31.4606 35.7216 0.0000 0.0000 2.1771
# 2 31.4606 72.0887 35.7216 0.0000 0.0000 -2.1771
# 3 35.7216 35.7216 85.3825 0.0000 0.0000 0.0000
# 4 0.0000 0.0000 0.0000 26.9253 0.0000 0.0000
# 5 0.0000 0.0000 0.0000 0.0000 26.9253 0.0000
# 6 2.1771 -2.1771 0.0000 0.0000 0.0000 35.6973
#
#
#
# Elastic Compliance Matrix: (Units=1/GPa)
#
#
# Indices 1 2 3 4 5 6 
#
# 1 0.019176 -0.005600 -0.005680 0.000000 0.000000 -0.001511
# 2 -0.005600 0.019176 -0.005680 0.000000 0.000000 0.001511
# 3 -0.005680 -0.005680 0.016465 0.000000 0.000000 0.000000
# 4 0.000000 0.000000 0.000000 0.037140 0.000000 0.000000
# 5 0.000000 0.000000 0.000000 0.000000 0.037140 0.000000
# 6 -0.001511 0.001511 0.000000 0.000000 0.000000 0.028198
#
#
# Mechanical properties :
#
#
# Convention : Reuss Voigt Hill
#
# Bulk Modulus (GPa) = 47.85308 48.37415 48.11362
# Shear Modulus (GPa) = 25.22991 26.35333 25.79162
#
# Velocity S-wave (km/s) = 3.80806 3.89191 3.85021
# Velocity P-wave (km/s) = 6.84393 6.92819 6.88619
#
# Compressibility (1/GPa) = 0.02089729
#
# Stress axis : x y z
#
# Youngs Moduli (GPa) = 52.14935 52.14935 60.73668
#
# Poissons Ratio (x) = 0.29202 0.34497
# Poissons Ratio (y) = 0.29202 0.34497
# Poissons Ratio (z) = 0.29620 0.29620
#
# Static dielectric constant tensor:
#      x y z
#    x 3.307560 0.000000 0.000000 
#    y 0.000000 3.307560 0.000000 
#    z 0.000000 0.000000 2.919090 
# 
# 
# High freq. dielectric constant tensor:
#      x y z
#    x 1.680930 0.000000 0.000000 
#    y 0.000000 1.680930 0.000000 
#    z 0.000000 0.000000 1.638970 
# 
# From -- ./inp_files/1300.got.cif
#   From: 2010.03.12/outbox.cif.g09.slc.cpg/sg86_1_cif.got.tgz:1300.got - 2010.04.08 20:12:58.
