data_PCOD8303227
_publ_section_title
;
Structure prediction by ZEFSAII (Michael W. Deem and Ramdas Pophale) SiO2 
 PCOD8303227
Probable space group: P 42/M
;
_chemical_formula_sum "Si O2"
_cell_formula_units_Z 58
_cell_length_a 17.998367
_cell_length_b 17.998367
_cell_length_c 9.367128
_cell_angle_alpha 90.000000
_cell_angle_beta 90.000000
_cell_angle_gamma 90.000000
_cell_volume 3034.398822
_symmetry_space_group_name_H-M "P 42/M"
_symmetry_group_IT_number 84
_symmetry_cell_setting 'tetragonal'
loop_
_space_group_symop_operation_xyz
x,y,z
-y,x,1/2+z
-x,-y,z
y,-x,1/2+z
-x,-y,-z
y,-x,1/2-z
x,y,-z
-y,x,1/2-z
loop_
_atom_site_type_symbol
_atom_site_label
_atom_site_fract_x
_atom_site_fract_y
_atom_site_fract_z
Si Si1 0.691698 0.268385 0.665550
Si Si2 0.230098 0.854165 0.170666
Si Si3 0.691248 0.931612 0.161504
Si Si4 0.861227 0.913182 0.839826
Si Si5 0.398668 0.213383 0.158563
Si Si6 0.941509 0.646575 0.834103
Si Si7 0.455850 0.808568 0.337240
Si Si8 0.000000 0.000000 0.250000
O O1 0.702189 0.242049 0.500000
O O2 0.750508 0.226479 0.766210
O O3 0.707583 0.356448 0.681520
O O4 0.608015 0.248757 0.715408
O O5 0.149391 0.880110 0.223710
O O6 0.288788 0.911335 0.233391
O O7 0.232085 0.853825 0.000000
O O8 0.778705 0.944323 0.197073
O O9 0.666300 0.846826 0.182588
O O10 0.637671 0.975527 0.273076
O O11 0.675124 0.958285 0.000000
O O12 0.926127 0.975783 0.837747
O O13 0.858681 0.879558 0.000000
O O14 0.467878 0.206070 0.259858
O O15 0.431471 0.207607 0.000000
O O16 0.893215 0.571932 0.812664
O O17 0.941943 0.669993 0.000000
O O18 0.474026 0.793338 0.500000
#
# Coordination Sequence:
#
# PCOD8303227 Si02
#       8
#     8   8   8   8   8   8   8   2
#     4   9  18  38  61  83 115 154 184 221 281 335
#     4  11  21  34  58  85 107 141 193 242 282 335
#     4  10  21  37  58  81 110 149 189 238 287 338
#     4  11  23  41  57  76 110 148 190 242 296 342
#     4  10  20  36  60  86 114 149 187 227 279 336
#     4  10  21  37  55  78 114 155 187 228 287 341
#     4   9  20  36  57  84 115 149 186 228 275 330
#     4  12  26  36  60  86 102 148 204 250 286 336
#
# _framework density 19.114163999999999
#
# number of rings (size 3 to 8) (size 9 to 14) (size 15 to 20)
#    0.000    1.931    1.379    3.517    0.000    7.172 
#    0.000    2.759    0.000    0.414    0.000    2.897 
#    0.000    0.000    0.000    0.000    0.000    0.000 
#
# Total GULP energy -718798.739463 kJ/mol
# GULP energy per Si atom -12393.081715 kJ/mol
# Density = 1.907066 g / cm^3
# Si number density = 19.114164 Si / 1000 Ang^3
#
#
#
# Elastic Constant Matrix: (Units=GPa)
#
#
# Indices 1 2 3 4 5 6 
#
# 1 94.7787 33.2391 39.6990 0.0000 0.0000 0.5168
# 2 33.2391 94.7787 39.6990 0.0000 0.0000 -0.5168
# 3 39.6990 39.6990 101.9908 0.0000 0.0000 0.0000
# 4 0.0000 0.0000 0.0000 29.5637 0.0000 0.0000
# 5 0.0000 0.0000 0.0000 0.0000 29.5637 0.0000
# 6 0.5168 -0.5168 0.0000 0.0000 0.0000 12.8266
#
#
#
# Elastic Compliance Matrix: (Units=1/GPa)
#
#
# Indices 1 2 3 4 5 6 
#
# 1 0.013279 -0.002982 -0.004008 0.000000 0.000000 -0.000655
# 2 -0.002982 0.013279 -0.004008 0.000000 0.000000 0.000655
# 3 -0.004008 -0.004008 0.012925 0.000000 0.000000 0.000000
# 4 0.000000 0.000000 0.000000 0.033825 0.000000 0.000000
# 5 0.000000 0.000000 0.000000 0.000000 0.033825 0.000000
# 6 -0.000655 0.000655 0.000000 0.000000 0.000000 0.078016
#
#
# Mechanical properties :
#
#
# Convention : Reuss Voigt Hill
#
# Bulk Modulus (GPa) = 57.18486 57.42469 57.30478
# Shear Modulus (GPa) = 23.47702 26.31822 24.89762
#
# Velocity S-wave (km/s) = 3.50845 3.71468 3.61303
# Velocity P-wave (km/s) = 6.81137 6.96467 6.88845
#
# Compressibility (1/GPa) = 0.01748714
#
# Stress axis : x y z
#
# Youngs Moduli (GPa) = 75.30682 75.30682 77.36911
#
# Poissons Ratio (x) = 0.22454 0.31011
# Poissons Ratio (y) = 0.22454 0.31011
# Poissons Ratio (z) = 0.30184 0.30184
#
# Static dielectric constant tensor:
#      x y z
#    x 3.407400 0.000000 0.000000 
#    y 0.000000 3.407400 0.000000 
#    z 0.000000 0.000000 3.482120 
# 
# 
# High freq. dielectric constant tensor:
#      x y z
#    x 1.731560 0.000000 0.000000 
#    y 0.000000 1.731560 0.000000 
#    z 0.000000 0.000000 1.741950 
# 
# From -- ./inp_files/1173.got.cif
#   From: 2010.03.12/outbox.cif.g09.slc.cpg/sg84_1_cif.got.tgz:1173.got - 2010.04.08 20:07:29.
