data_PCOD8303318
_publ_section_title
;
Structure prediction by ZEFSAII (Michael W. Deem and Ramdas Pophale) SiO2 
 PCOD8303318
Probable space group: P 42/M
;
_chemical_formula_sum "Si O2"
_cell_formula_units_Z 32
_cell_length_a 8.958135
_cell_length_b 8.958135
_cell_length_c 18.522336
_cell_angle_alpha 90.000000
_cell_angle_beta 90.000000
_cell_angle_gamma 90.000000
_cell_volume 1486.383803
_symmetry_space_group_name_H-M "P 42/M"
_symmetry_group_IT_number 84
_symmetry_cell_setting 'tetragonal'
loop_
_space_group_symop_operation_xyz
x,y,z
-y,x,1/2+z
-x,-y,z
y,-x,1/2+z
-x,-y,-z
y,-x,1/2-z
x,y,-z
-y,x,1/2-z
loop_
_atom_site_type_symbol
_atom_site_label
_atom_site_fract_x
_atom_site_fract_y
_atom_site_fract_z
Si Si1 0.547219 0.339182 0.917288
Si Si2 0.051043 0.333635 0.820621
Si Si3 0.153982 0.240468 0.327548
Si Si4 0.150006 0.743147 0.416651
O O1 0.500000 0.500000 0.885217
O O2 0.691859 0.286295 0.875045
O O3 0.424297 0.210152 0.908356
O O4 0.593488 0.360680 0.000000
O O5 0.141486 0.336743 0.745521
O O6 0.149830 0.280212 0.887865
O O7 0.000000 0.500000 0.839500
O O8 0.923616 0.210160 0.807809
O O9 0.999895 0.236147 0.371272
O O10 0.116716 0.781844 0.500000
#
# Coordination Sequence:
#
# PCOD8303318 Si02
#       4
#     8   8   8   8
#     4  10  22  43  70 102 137 176 226 284 343 414
#     4  12  26  43  64  97 134 175 225 285 347 409
#     4  12  24  43  67  96 136 177 228 282 345 420
#     4  11  24  43  69  99 132 180 228 278 346 415
#
# _framework density 21.528759000000001
#
# number of rings (size 3 to 8) (size 9 to 14) (size 15 to 20)
#    0.000    0.750    2.500    5.250    0.000    5.500 
#    0.000    0.000    0.000    0.000    0.000    0.000 
#    0.000    0.000    0.000    0.000    0.000    0.000 
#
# Total GULP energy -397004.289306 kJ/mol
# GULP energy per Si atom -12406.384041 kJ/mol
# Density = 2.147976 g / cm^3
# Si number density = 21.528759 Si / 1000 Ang^3
#
#
#
# Elastic Constant Matrix: (Units=GPa)
#
#
# Indices 1 2 3 4 5 6 
#
# 1 77.9038 4.4505 29.1668 0.0000 0.0000 9.4685
# 2 4.4505 77.9038 29.1668 0.0000 0.0000 -9.4685
# 3 29.1668 29.1668 85.1780 0.0000 0.0000 0.0000
# 4 0.0000 0.0000 0.0000 31.6066 0.0000 0.0000
# 5 0.0000 0.0000 0.0000 0.0000 31.6066 0.0000
# 6 9.4685 -9.4685 0.0000 0.0000 0.0000 44.8155
#
#
#
# Elastic Compliance Matrix: (Units=1/GPa)
#
#
# Indices 1 2 3 4 5 6 
#
# 1 0.015215 0.000816 -0.005489 0.000000 0.000000 -0.003042
# 2 0.000816 0.015215 -0.005489 0.000000 0.000000 0.003042
# 3 -0.005489 -0.005489 0.015499 0.000000 0.000000 0.000000
# 4 0.000000 0.000000 0.000000 0.031639 0.000000 0.000000
# 5 0.000000 0.000000 0.000000 0.000000 0.031639 0.000000
# 6 -0.003042 0.003042 0.000000 0.000000 0.000000 0.023599
#
#
# Mechanical properties :
#
#
# Convention : Reuss Voigt Hill
#
# Bulk Modulus (GPa) = 39.05649 40.72818 39.89233
# Shear Modulus (GPa) = 30.92814 33.48586 32.20700
#
# Velocity S-wave (km/s) = 3.79436 3.94814 3.87201
# Velocity P-wave (km/s) = 6.11368 6.30419 6.20967
#
# Compressibility (1/GPa) = 0.02560394
#
# Stress axis : x y z
#
# Youngs Moduli (GPa) = 65.72624 65.72624 64.51848
#
# Poissons Ratio (x) = -0.05365 0.35416
# Poissons Ratio (y) = -0.05365 0.35416
# Poissons Ratio (z) = 0.36079 0.36079
#
# Static dielectric constant tensor:
#      x y z
#    x 3.880840 0.000000 0.000000 
#    y 0.000000 3.880840 0.000000 
#    z 0.000000 0.000000 3.933940 
# 
# 
# High freq. dielectric constant tensor:
#      x y z
#    x 1.852390 0.000000 0.000000 
#    y 0.000000 1.852390 0.000000 
#    z 0.000000 0.000000 1.853300 
# 
# From -- ./inp_files/4084.got.cif
#   From: 2010.03.12/outbox.cif.g09.slc.cpg/sg84_3_cif.got.tgz:4084.got - 2010.04.08 20:07:29.
