data_PCOD8303324
_publ_section_title
;
Structure prediction by ZEFSAII (Michael W. Deem and Ramdas Pophale) SiO2 
 PCOD8303324
Probable space group: P 42/M
;
_chemical_formula_sum "Si O2"
_cell_formula_units_Z 40
_cell_length_a 16.021312
_cell_length_b 16.021312
_cell_length_c 7.677088
_cell_angle_alpha 90.000000
_cell_angle_beta 90.000000
_cell_angle_gamma 90.000000
_cell_volume 1970.573666
_symmetry_space_group_name_H-M "P 42/M"
_symmetry_group_IT_number 84
_symmetry_cell_setting 'tetragonal'
loop_
_space_group_symop_operation_xyz
x,y,z
-y,x,1/2+z
-x,-y,z
y,-x,1/2+z
-x,-y,-z
y,-x,1/2-z
x,y,-z
-y,x,1/2-z
loop_
_atom_site_type_symbol
_atom_site_label
_atom_site_fract_x
_atom_site_fract_y
_atom_site_fract_z
Si Si1 0.371134 0.949228 0.000000
Si Si2 0.612041 0.431747 0.699233
Si Si3 0.452692 0.128184 0.000000
Si Si4 0.780045 0.365316 0.197295
Si Si5 0.139302 0.807282 0.203212
Si Si6 0.754484 0.043717 0.303740
O O1 0.449010 0.887350 0.000000
O O2 0.318955 0.929177 0.173840
O O3 0.399312 0.044383 0.000000
O O4 0.522217 0.388246 0.710880
O O5 0.637683 0.443189 0.500000
O O6 0.679927 0.373707 0.794055
O O7 0.432807 0.178789 0.175342
O O8 0.805709 0.272801 0.257490
O O9 0.811449 0.381754 0.000000
O O10 0.173050 0.887189 0.306130
O O11 0.043898 0.792912 0.260079
O O12 0.147204 0.826311 0.000000
O O13 0.718315 0.034213 0.500000
#
# Coordination Sequence:
#
# PCOD8303324 Si02
#       6
#     4   8   4   8   8   8
#     4  11  24  44  66  94 133 164 221 266 315 392
#     4  11  22  39  62  91 126 166 212 265 327 384
#     4  11  24  42  70  92 124 181 204 268 330 375
#     4  11  23  42  65  93 129 166 217 266 317 387
#     4  10  23  42  65  95 130 171 216 270 319 385
#     4  11  24  41  67  97 132 173 215 266 327 382
#
# _framework density 20.298658
#
# number of rings (size 3 to 8) (size 9 to 14) (size 15 to 20)
#    0.000    1.200    4.000    2.400    2.800    2.800 
#    0.000    4.000    0.000    0.000    0.000    0.000 
#    0.000    0.000    0.000    0.000    0.000    0.000 
#
# Total GULP energy -496220.944399 kJ/mol
# GULP energy per Si atom -12405.523610 kJ/mol
# Density = 2.025246 g / cm^3
# Si number density = 20.298658 Si / 1000 Ang^3
#
#
#
# Elastic Constant Matrix: (Units=GPa)
#
#
# Indices 1 2 3 4 5 6 
#
# 1 121.5682 80.5258 33.9145 0.0000 0.0000 -12.0955
# 2 80.5258 121.5682 33.9145 0.0000 0.0000 12.0955
# 3 33.9145 33.9145 108.5438 0.0000 0.0000 0.0000
# 4 0.0000 0.0000 0.0000 25.2813 0.0000 0.0000
# 5 0.0000 0.0000 0.0000 0.0000 25.2813 0.0000
# 6 -12.0955 12.0955 0.0000 0.0000 0.0000 33.1181
#
#
#
# Elastic Compliance Matrix: (Units=1/GPa)
#
#
# Indices 1 2 3 4 5 6 
#
# 1 0.018288 -0.012761 -0.001727 0.000000 0.000000 0.011340
# 2 -0.012761 0.018288 -0.001727 0.000000 0.000000 -0.011340
# 3 -0.001727 -0.001727 0.010292 0.000000 0.000000 0.000000
# 4 0.000000 0.000000 0.000000 0.039555 0.000000 0.000000
# 5 0.000000 0.000000 0.000000 0.000000 0.039555 0.000000
# 6 0.011340 -0.011340 0.000000 0.000000 0.000000 0.038478
#
#
# Mechanical properties :
#
#
# Convention : Reuss Voigt Hill
#
# Bulk Modulus (GPa) = 69.25586 72.04333 70.64960
# Shear Modulus (GPa) = 24.78933 30.29117 27.54025
#
# Velocity S-wave (km/s) = 3.49840 3.86719 3.68741
# Velocity P-wave (km/s) = 7.10710 7.45043 7.28079
#
# Compressibility (1/GPa) = 0.01443921
#
# Stress axis : x y z
#
# Youngs Moduli (GPa) = 54.67946 54.67946 97.16105
#
# Poissons Ratio (x) = 0.69774 0.16782
# Poissons Ratio (y) = 0.69774 0.16782
# Poissons Ratio (z) = 0.09444 0.09444
#
# Static dielectric constant tensor:
#      x y z
#    x 3.678600 0.000000 0.000000 
#    y 0.000000 3.678600 0.000000 
#    z 0.000000 0.000000 3.751460 
# 
# 
# High freq. dielectric constant tensor:
#      x y z
#    x 1.790050 0.000000 0.000000 
#    y 0.000000 1.790050 0.000000 
#    z 0.000000 0.000000 1.806300 
# 
# From -- ./inp_files/825.got.cif
#   From: 2010.03.12/outbox.cif.g09.slc.cpg/sg84_1_cif.got.tgz:825.got - 2010.04.08 20:07:29.
