data_PCOD8303394
_publ_section_title
;
Structure prediction by ZEFSAII (Michael W. Deem and Ramdas Pophale) SiO2 
 PCOD8303394
Probable space group: P 42/M
;
_chemical_formula_sum "Si O2"
_cell_formula_units_Z 32
_cell_length_a 9.081021
_cell_length_b 9.081021
_cell_length_c 17.080260
_cell_angle_alpha 90.000000
_cell_angle_beta 90.000000
_cell_angle_gamma 90.000000
_cell_volume 1408.522657
_symmetry_space_group_name_H-M "P 42/M"
_symmetry_group_IT_number 84
_symmetry_cell_setting 'tetragonal'
loop_
_space_group_symop_operation_xyz
x,y,z
-y,x,1/2+z
-x,-y,z
y,-x,1/2+z
-x,-y,-z
y,-x,1/2-z
x,y,-z
-y,x,1/2-z
loop_
_atom_site_type_symbol
_atom_site_label
_atom_site_fract_x
_atom_site_fract_y
_atom_site_fract_z
Si Si1 0.334178 0.979036 0.911398
Si Si2 0.670021 0.526313 0.908771
Si Si3 0.780673 0.168530 0.667333
Si Si4 0.177612 0.734099 0.839716
O O1 0.210539 0.053992 0.856603
O O2 0.500000 0.000000 0.877795
O O3 0.277232 0.811274 0.907336
O O4 0.330322 0.037852 0.000000
O O5 0.500000 0.500000 0.886237
O O6 0.719211 0.691048 0.888172
O O7 0.780083 0.435333 0.852298
O O8 0.697478 0.494011 0.000000
O O9 0.759899 0.204606 0.758123
O O10 0.751490 0.997367 0.649941
#
# Coordination Sequence:
#
# PCOD8303394 Si02
#       4
#     8   8   8   8
#     4  11  25  45  71 101 140 189 238 291 358 425
#     4  11  27  49  73 105 144 187 242 301 364 435
#     4  12  26  43  71 106 145 190 239 296 358 432
#     4  12  26  43  71 106 145 190 239 296 358 432
#
# _framework density 22.718837000000001
#
# number of rings (size 3 to 8) (size 9 to 14) (size 15 to 20)
#    0.000    0.500    2.500    4.500    7.000   10.000 
#    0.000    0.000    0.000    0.000    0.000    0.000 
#    0.000    0.000    0.000    0.000    0.000    0.000 
#
# Total GULP energy -396828.384589 kJ/mol
# GULP energy per Si atom -12400.887018 kJ/mol
# Density = 2.266713 g / cm^3
# Si number density = 22.718837 Si / 1000 Ang^3
#
#
#
# Elastic Constant Matrix: (Units=GPa)
#
#
# Indices 1 2 3 4 5 6 
#
# 1 105.5381 24.0568 37.9705 0.0000 0.0000 0.9621
# 2 24.0568 105.5381 37.9705 0.0000 0.0000 -0.9621
# 3 37.9705 37.9705 88.6627 0.0000 0.0000 0.0000
# 4 0.0000 0.0000 0.0000 37.5193 0.0000 0.0000
# 5 0.0000 0.0000 0.0000 0.0000 37.5193 0.0000
# 6 0.9621 -0.9621 0.0000 0.0000 0.0000 48.2677
#
#
#
# Elastic Compliance Matrix: (Units=1/GPa)
#
#
# Indices 1 2 3 4 5 6 
#
# 1 0.011290 -0.000988 -0.004412 0.000000 0.000000 -0.000245
# 2 -0.000988 0.011290 -0.004412 0.000000 0.000000 0.000245
# 3 -0.004412 -0.004412 0.015057 0.000000 0.000000 0.000000
# 4 0.000000 0.000000 0.000000 0.026653 0.000000 0.000000
# 5 0.000000 0.000000 0.000000 0.000000 0.026653 0.000000
# 6 -0.000245 0.000245 0.000000 0.000000 0.000000 0.020728
#
#
# Mechanical properties :
#
#
# Convention : Reuss Voigt Hill
#
# Bulk Modulus (GPa) = 55.51350 55.52607 55.51979
# Shear Modulus (GPa) = 36.41678 37.97735 37.19707
#
# Velocity S-wave (km/s) = 4.00801 4.09299 4.05072
# Velocity P-wave (km/s) = 6.77546 6.84327 6.80945
#
# Compressibility (1/GPa) = 0.01801364
#
# Stress axis : x y z
#
# Youngs Moduli (GPa) = 88.57356 88.57356 66.41243
#
# Poissons Ratio (x) = 0.08755 0.29299
# Poissons Ratio (y) = 0.08755 0.29299
# Poissons Ratio (z) = 0.39076 0.39076
#
# Static dielectric constant tensor:
#      x y z
#    x 4.014450 0.000000 0.000000 
#    y 0.000000 4.014450 0.000000 
#    z 0.000000 0.000000 3.819120 
# 
# 
# High freq. dielectric constant tensor:
#      x y z
#    x 1.909020 0.000000 0.000000 
#    y 0.000000 1.909020 0.000000 
#    z 0.000000 0.000000 1.895550 
# 
# From -- ./inp_files/4137.got.cif
#   From: 2010.03.12/outbox.cif.g09.slc.cpg/sg84_3_cif.got.tgz:4137.got - 2010.04.08 20:07:29.
