data_PCOD8303069
_publ_section_title
;
Structure prediction by ZEFSAII (Michael W. Deem and Ramdas Pophale) SiO2 
 PCOD8303069
Probable space group: P 42/M
;
_chemical_formula_sum "Si O2"
_cell_formula_units_Z 64
_cell_length_a 14.815673
_cell_length_b 14.815673
_cell_length_c 18.090369
_cell_angle_alpha 90.000000
_cell_angle_beta 90.000000
_cell_angle_gamma 90.000000
_cell_volume 3970.911368
_symmetry_space_group_name_H-M "P 42/M"
_symmetry_group_IT_number 84
_symmetry_cell_setting 'tetragonal'
loop_
_space_group_symop_operation_xyz
x,y,z
-y,x,1/2+z
-x,-y,z
y,-x,1/2+z
-x,-y,-z
y,-x,1/2-z
x,y,-z
-y,x,1/2-z
loop_
_atom_site_type_symbol
_atom_site_label
_atom_site_fract_x
_atom_site_fract_y
_atom_site_fract_z
Si Si1 0.607108 0.001376 0.417018
Si Si2 0.226114 0.254900 0.708295
Si Si3 0.399391 0.857715 0.303213
Si Si4 0.969546 0.101510 0.418931
Si Si5 0.098270 0.893031 0.269991
Si Si6 0.267746 0.909893 0.915799
Si Si7 0.603632 0.850645 0.301143
Si Si8 0.402308 0.009576 0.179595
O O1 0.648390 0.994015 0.500000
O O2 0.638001 0.917126 0.366612
O O3 0.500000 0.000000 0.419996
O O4 0.636361 0.097105 0.379767
O O5 0.217530 0.330328 0.772716
O O6 0.177304 0.162224 0.730357
O O7 0.180730 0.286535 0.631250
O O8 0.331983 0.236992 0.696060
O O9 0.500374 0.817752 0.313532
O O10 0.402080 0.938152 0.245277
O O11 0.925812 0.112708 0.500000
O O12 0.893800 0.124188 0.358203
O O13 0.058674 0.163745 0.411515
O O14 0.000000 0.000000 0.403248
O O15 0.994682 0.872371 0.248699
O O16 0.326825 0.992007 0.882136
O O17 0.297095 0.890731 0.000000
O O18 0.613967 0.894348 0.219310
O O19 0.500000 0.000000 0.140328
#
# Coordination Sequence:
#
# PCOD8303069 Si02
#       8
#     8   8   8   8   8   8   8   8
#     4   8  14  27  47  69  96 124 149 187 237 287
#     4  11  20  29  50  65  88 121 155 194 228 274
#     4   8  17  31  44  68  92 116 153 194 233 273
#     4  10  18  30  41  54  85 123 151 182 212 243
#     4  11  19  30  44  62  85 120 161 184 210 266
#     4  10  19  29  41  64  92 113 145 189 227 265
#     4   9  17  29  49  67  88 120 159 191 229 277
#     4   8  15  30  48  64  84 114 149 187 227 267
#
# _framework density 16.117207000000001
#
# number of rings (size 3 to 8) (size 9 to 14) (size 15 to 20)
#    0.000    2.625    2.500    2.250    3.500    0.750 
#    0.000    0.625    0.000    1.125    0.000    0.000 
#    0.000    0.000    0.000   16.375    0.000    0.000 
#
# Total GULP energy -793157.353386 kJ/mol
# GULP energy per Si atom -12393.083647 kJ/mol
# Density = 1.608052 g / cm^3
# Si number density = 16.117207 Si / 1000 Ang^3
#
#
#
# Elastic Constant Matrix: (Units=GPa)
#
#
# Indices 1 2 3 4 5 6 
#
# 1 58.9296 25.3080 23.8210 0.0000 0.0000 -2.7045
# 2 25.3080 58.9296 23.8210 0.0000 0.0000 2.7045
# 3 23.8210 23.8210 108.8625 0.0000 0.0000 0.0000
# 4 0.0000 0.0000 0.0000 14.2832 0.0000 0.0000
# 5 0.0000 0.0000 0.0000 0.0000 14.2832 0.0000
# 6 -2.7045 2.7045 0.0000 0.0000 0.0000 23.0931
#
#
#
# Elastic Compliance Matrix: (Units=1/GPa)
#
#
# Indices 1 2 3 4 5 6 
#
# 1 0.021931 -0.008383 -0.002964 0.000000 0.000000 0.003550
# 2 -0.008383 0.021931 -0.002964 0.000000 0.000000 -0.003550
# 3 -0.002964 -0.002964 0.010483 0.000000 0.000000 0.000000
# 4 0.000000 0.000000 0.000000 0.070012 0.000000 0.000000
# 5 0.000000 0.000000 0.000000 0.000000 0.070012 0.000000
# 6 0.003550 -0.003550 0.000000 0.000000 0.000000 0.044135
#
#
# Mechanical properties :
#
#
# Convention : Reuss Voigt Hill
#
# Bulk Modulus (GPa) = 38.87887 41.40238 40.14063
# Shear Modulus (GPa) = 18.13555 20.58336 19.35946
#
# Velocity S-wave (km/s) = 3.35808 3.57754 3.46955
# Velocity P-wave (km/s) = 6.26184 6.54287 6.40389
#
# Compressibility (1/GPa) = 0.02572091
#
# Stress axis : x y z
#
# Youngs Moduli (GPa) = 45.59788 45.59788 95.39019
#
# Poissons Ratio (x) = 0.38225 0.28278
# Poissons Ratio (y) = 0.38225 0.28278
# Poissons Ratio (z) = 0.13517 0.13517
#
# Static dielectric constant tensor:
#      x y z
#    x 2.931130 0.000000 0.000000 
#    y 0.000000 2.931130 0.000000 
#    z 0.000000 0.000000 3.429100 
# 
# 
# High freq. dielectric constant tensor:
#      x y z
#    x 1.587300 0.000000 0.000000 
#    y 0.000000 1.587300 0.000000 
#    z 0.000000 0.000000 1.626130 
# 
# From -- ./inp_files/3871.got.cif
#   From: 2010.03.12/outbox.cif.g09.slc.cpg/sg84_2_cif.got.tgz:3871.got - 2010.04.08 20:07:29.
