data_PCOD8303624
_publ_section_title
;
Structure prediction by ZEFSAII (Michael W. Deem and Ramdas Pophale) SiO2 
 PCOD8303624
Probable space group: P 42/N
;
_chemical_formula_sum "Si O2"
_cell_formula_units_Z 40
_cell_length_a 11.017621
_cell_length_b 11.017621
_cell_length_c 14.549212
_cell_angle_alpha 90.000000
_cell_angle_beta 90.000000
_cell_angle_gamma 90.000000
_cell_volume 1766.099346
_symmetry_space_group_name_H-M "P 42/N"
_symmetry_group_IT_number 86
_space_group.IT_coordinate_system_code '2'
_symmetry_cell_setting 'tetragonal'
loop_
_space_group_symop_operation_xyz
x,y,z
-y,1/2+x,1/2+z
1/2-x,1/2-y,z
1/2+y,-x,1/2+z
-x,-y,-z
y,1/2-x,1/2-z
1/2+x,1/2+y,-z
1/2-y,x,1/2-z
loop_
_atom_site_type_symbol
_atom_site_label
_atom_site_fract_x
_atom_site_fract_y
_atom_site_fract_z
Si Si1 0.630417 0.904781 0.251569
Si Si2 0.023137 0.629164 0.656299
Si Si3 0.956064 0.045214 0.594982
Si Si4 0.875803 0.296446 0.534627
Si Si5 0.713197 0.005926 0.675220
O O1 0.770023 0.905394 0.215899
O O2 0.607360 0.009031 0.328335
O O3 0.535036 0.937751 0.170359
O O4 0.037890 0.663366 0.549420
O O5 0.057323 0.742469 0.724326
O O6 0.880855 0.605198 0.680677
O O7 0.931580 0.187522 0.592005
O O8 0.837556 0.967774 0.623337
O O9 0.000000 0.000000 0.500000
O O10 0.750000 0.250000 0.489656
O O11 0.857882 0.396702 0.612886
#
# Coordination Sequence:
#
# PCOD8303624 Si02
#       5
#     8   8   8   8   8
#     4  10  23  41  65  96 129 172 223 271 339 411
#     4  11  24  42  72  94 139 181 226 296 350 411
#     4  10  23  43  65  94 135 171 223 283 335 416
#     4  10  23  41  67  99 134 186 230 279 349 419
#     4  10  24  43  64 101 133 175 237 280 349 422
#
# _framework density 22.648785
#
# number of rings (size 3 to 8) (size 9 to 14) (size 15 to 20)
#    0.000    1.800    0.000    1.800   11.200    6.000 
#    3.600    0.000    0.000    0.000    0.000    0.000 
#    0.000    0.000    0.000    0.000    0.000    0.000 
#
# Total GULP energy -495607.811034 kJ/mol
# GULP energy per Si atom -12390.195276 kJ/mol
# Density = 2.259724 g / cm^3
# Si number density = 22.648785 Si / 1000 Ang^3
#
#
#
# Elastic Constant Matrix: (Units=GPa)
#
#
# Indices 1 2 3 4 5 6 
#
# 1 81.4157 21.6251 19.7956 0.0000 0.0000 7.2175
# 2 21.6251 81.4157 19.7956 0.0000 0.0000 -7.2175
# 3 19.7956 19.7956 111.4772 0.0000 0.0000 0.0000
# 4 0.0000 0.0000 0.0000 31.3446 0.0000 0.0000
# 5 0.0000 0.0000 0.0000 0.0000 31.3446 0.0000
# 6 7.2175 -7.2175 0.0000 0.0000 0.0000 27.1719
#
#
#
# Elastic Compliance Matrix: (Units=1/GPa)
#
#
# Indices 1 2 3 4 5 6 
#
# 1 0.014143 -0.003728 -0.001850 0.000000 0.000000 -0.004747
# 2 -0.003728 0.014143 -0.001850 0.000000 0.000000 0.004747
# 3 -0.001850 -0.001850 0.009627 0.000000 0.000000 0.000000
# 4 0.000000 0.000000 0.000000 0.031903 0.000000 0.000000
# 5 0.000000 0.000000 0.000000 0.000000 0.031903 0.000000
# 6 -0.004747 0.004747 0.000000 0.000000 0.000000 0.039325
#
#
# Mechanical properties :
#
#
# Convention : Reuss Voigt Hill
#
# Bulk Modulus (GPa) = 43.36471 44.08234 43.72353
# Shear Modulus (GPa) = 30.56499 32.17837 31.37168
#
# Velocity S-wave (km/s) = 3.67757 3.77338 3.72578
# Velocity P-wave (km/s) = 6.10089 6.20405 6.15268
#
# Compressibility (1/GPa) = 0.02306023
#
# Stress axis : x y z
#
# Youngs Moduli (GPa) = 70.70477 70.70477 103.87118
#
# Poissons Ratio (x) = 0.26357 0.19211
# Poissons Ratio (y) = 0.26357 0.19211
# Poissons Ratio (z) = 0.13077 0.13077
#
# Static dielectric constant tensor:
#      x y z
#    x 3.977590 0.000000 0.000000 
#    y 0.000000 3.977590 0.000000 
#    z 0.000000 0.000000 3.896460 
# 
# 
# High freq. dielectric constant tensor:
#      x y z
#    x 1.890680 0.000000 0.000000 
#    y 0.000000 1.890680 0.000000 
#    z 0.000000 0.000000 1.894840 
# 
# From -- ./inp_files/2879.got.cif
#   From: 2010.03.12/outbox.cif.g09.slc.cpg/sg86_2_cif.got.tgz:2879.got - 2010.04.08 20:12:58.
