data_PCOD8303499
_publ_section_title
;
Structure prediction by ZEFSAII (Michael W. Deem and Ramdas Pophale) SiO2 
 PCOD8303499
Probable space group: P 42/N
;
_chemical_formula_sum "Si O2"
_cell_formula_units_Z 48
_cell_length_a 15.855408
_cell_length_b 15.855408
_cell_length_c 11.165488
_cell_angle_alpha 90.000000
_cell_angle_beta 90.000000
_cell_angle_gamma 90.000000
_cell_volume 2806.936275
_symmetry_space_group_name_H-M "P 42/N"
_symmetry_group_IT_number 86
_space_group.IT_coordinate_system_code '2'
_symmetry_cell_setting 'tetragonal'
loop_
_space_group_symop_operation_xyz
x,y,z
-y,1/2+x,1/2+z
1/2-x,1/2-y,z
1/2+y,-x,1/2+z
-x,-y,-z
y,1/2-x,1/2-z
1/2+x,1/2+y,-z
1/2-y,x,1/2-z
loop_
_atom_site_type_symbol
_atom_site_label
_atom_site_fract_x
_atom_site_fract_y
_atom_site_fract_z
Si Si1 0.623363 0.319458 0.156486
Si Si2 0.695921 0.144339 0.201335
Si Si3 0.279007 0.115484 0.744767
Si Si4 0.066821 0.936184 0.634774
Si Si5 0.245216 0.540513 0.578109
Si Si6 0.493126 0.387342 0.598221
O O1 0.651905 0.233884 0.221321
O O2 0.715528 0.359261 0.125001
O O3 0.572081 0.379038 0.247394
O O4 0.559969 0.302809 0.046236
O O5 0.710638 0.110752 0.333538
O O6 0.628216 0.089328 0.132157
O O7 0.188955 0.153762 0.781567
O O8 0.308011 0.063747 0.862214
O O9 0.273714 0.054013 0.628438
O O10 0.155236 0.944857 0.564364
O O11 0.994203 0.899780 0.545687
O O12 0.039018 0.030549 0.670662
#
# Coordination Sequence:
#
# PCOD8303499 Si02
#       6
#     8   8   8   8   8   8
#     4  10  20  33  52  82 110 146 176 223 273 332
#     4   9  20  31  53  77 111 142 179 216 281 325
#     4  10  20  36  59  80 103 143 191 231 266 315
#     4  10  20  34  56  79 111 143 180 222 276 330
#     4  10  19  35  54  81 110 138 184 231 267 324
#     4  10  19  36  55  79 107 146 181 223 270 329
#
# _framework density 17.100494000000001
#
# number of rings (size 3 to 8) (size 9 to 14) (size 15 to 20)
#    0.000    2.167    3.333    0.000    2.333    1.333 
#    0.000    5.000    0.000    0.000    0.000    2.333 
#    0.000    0.000    0.000    0.000    0.000    0.000 
#
# Total GULP energy -594764.910485 kJ/mol
# GULP energy per Si atom -12390.935635 kJ/mol
# Density = 1.706157 g / cm^3
# Si number density = 17.100494 Si / 1000 Ang^3
#
#
#
# Elastic Constant Matrix: (Units=GPa)
#
#
# Indices 1 2 3 4 5 6 
#
# 1 90.9307 45.0041 54.3370 0.0000 0.0000 1.7313
# 2 45.0041 90.9307 54.3370 0.0000 0.0000 -1.7313
# 3 54.3370 54.3370 86.0958 0.0000 0.0000 0.0000
# 4 0.0000 0.0000 0.0000 25.5513 0.0000 0.0000
# 5 0.0000 0.0000 0.0000 0.0000 25.5513 0.0000
# 6 1.7313 -1.7313 0.0000 0.0000 0.0000 33.2898
#
#
#
# Elastic Compliance Matrix: (Units=1/GPa)
#
#
# Indices 1 2 3 4 5 6 
#
# 1 0.018354 -0.003506 -0.009371 0.000000 0.000000 -0.001137
# 2 -0.003506 0.018354 -0.009371 0.000000 0.000000 0.001137
# 3 -0.009371 -0.009371 0.023444 0.000000 0.000000 0.000000
# 4 0.000000 0.000000 0.000000 0.039137 0.000000 0.000000
# 5 0.000000 0.000000 0.000000 0.000000 0.039137 0.000000
# 6 -0.001137 0.001137 0.000000 0.000000 0.000000 0.030158
#
#
# Mechanical properties :
#
#
# Convention : Reuss Voigt Hill
#
# Bulk Modulus (GPa) = 63.87414 63.92367 63.89890
# Shear Modulus (GPa) = 22.90460 24.49709 23.70084
#
# Velocity S-wave (km/s) = 3.66377 3.78899 3.72691
# Velocity P-wave (km/s) = 7.43847 7.52358 7.48115
#
# Compressibility (1/GPa) = 0.01565579
#
# Stress axis : x y z
#
# Youngs Moduli (GPa) = 54.48434 54.48434 42.65573
#
# Poissons Ratio (x) = 0.19101 0.39973
# Poissons Ratio (y) = 0.19101 0.39973
# Poissons Ratio (z) = 0.51057 0.51057
#
# Static dielectric constant tensor:
#      x y z
#    x 3.350270 0.000000 0.000000 
#    y 0.000000 3.350270 0.000000 
#    z 0.000000 0.000000 2.982950 
# 
# 
# High freq. dielectric constant tensor:
#      x y z
#    x 1.665610 0.000000 0.000000 
#    y 0.000000 1.665610 0.000000 
#    z 0.000000 0.000000 1.633260 
# 
# From -- ./inp_files/1347.got.cif
#   From: 2010.03.12/outbox.cif.g09.slc.cpg/sg86_1_cif.got.tgz:1347.got - 2010.04.08 20:12:58.
