data_PCOD8303082
_publ_section_title
;
Structure prediction by ZEFSAII (Michael W. Deem and Ramdas Pophale) SiO2 
 PCOD8303082
Probable space group: P 42/M
;
_chemical_formula_sum "Si O2"
_cell_formula_units_Z 64
_cell_length_a 14.224874
_cell_length_b 14.224874
_cell_length_c 17.832713
_cell_angle_alpha 90.000000
_cell_angle_beta 90.000000
_cell_angle_gamma 90.000000
_cell_volume 3608.396696
_symmetry_space_group_name_H-M "P 42/M"
_symmetry_group_IT_number 84
_symmetry_cell_setting 'tetragonal'
loop_
_space_group_symop_operation_xyz
x,y,z
-y,x,1/2+z
-x,-y,z
y,-x,1/2+z
-x,-y,-z
y,-x,1/2-z
x,y,-z
-y,x,1/2-z
loop_
_atom_site_type_symbol
_atom_site_label
_atom_site_fract_x
_atom_site_fract_y
_atom_site_fract_z
Si Si1 0.655977 0.857415 0.416925
Si Si2 0.248181 0.023571 0.305273
Si Si3 0.592517 0.946043 0.800710
Si Si4 0.830472 0.172318 0.298363
Si Si5 0.263890 0.349960 0.267164
Si Si6 0.709890 0.178421 0.916745
Si Si7 0.442718 0.235836 0.287156
Si Si8 0.964673 0.272512 0.415197
O O1 0.616865 0.877217 0.500000
O O2 0.691765 0.954549 0.380075
O O3 0.746765 0.792299 0.418084
O O4 0.571107 0.811918 0.368854
O O5 0.322370 0.998535 0.239886
O O6 0.187750 0.115149 0.280344
O O7 0.179095 0.937102 0.317589
O O8 0.590462 0.838187 0.775657
O O9 0.500000 0.000000 0.778523
O O10 0.618019 0.952215 0.888979
O O11 0.727619 0.218906 0.288528
O O12 0.892933 0.211251 0.366173
O O13 0.206804 0.358389 0.346806
O O14 0.373540 0.325358 0.281529
O O15 0.263821 0.449555 0.224782
O O16 0.754573 0.074622 0.904730
O O17 0.659329 0.180473 0.000000
O O18 0.931394 0.261854 0.500000
#
# Coordination Sequence:
#
# PCOD8303082 Si02
#       8
#     8   8   8   8   8   8   8   8
#     4   9  18  35  54  78 109 143 190 227 261 322
#     4  10  20  32  53  78 106 146 179 231 272 320
#     4  10  18  33  54  80 102 136 187 226 266 318
#     4  11  20  35  51  77 112 144 184 223 278 325
#     4  11  19  37  58  80 109 138 180 229 278 326
#     4   9  17  33  56  79 106 143 181 225 272 313
#     4  10  20  34  58  82 105 141 179 229 275 320
#     4  10  20  33  50  76 113 144 174 220 276 333
#
# _framework density 17.736408999999998
#
# number of rings (size 3 to 8) (size 9 to 14) (size 15 to 20)
#    0.000    2.000    5.000    3.000    0.000    1.250 
#    0.000    1.250    0.000   15.000    0.000    3.500 
#    0.000    0.000    0.000    0.000    0.000    0.000 
#
# Total GULP energy -793025.638716 kJ/mol
# GULP energy per Si atom -12391.025605 kJ/mol
# Density = 1.769604 g / cm^3
# Si number density = 17.736409 Si / 1000 Ang^3
#
#
#
# Elastic Constant Matrix: (Units=GPa)
#
#
# Indices 1 2 3 4 5 6 
#
# 1 102.4977 32.9355 51.9129 0.0000 0.0000 -1.5996
# 2 32.9355 102.4977 51.9129 0.0000 0.0000 1.5996
# 3 51.9129 51.9129 118.8499 0.0000 0.0000 0.0000
# 4 0.0000 0.0000 0.0000 18.2028 0.0000 0.0000
# 5 0.0000 0.0000 0.0000 0.0000 18.2028 0.0000
# 6 -1.5996 1.5996 0.0000 0.0000 0.0000 21.4369
#
#
#
# Elastic Compliance Matrix: (Units=1/GPa)
#
#
# Indices 1 2 3 4 5 6 
#
# 1 0.012763 -0.001662 -0.004849 0.000000 0.000000 0.001076
# 2 -0.001662 0.012763 -0.004849 0.000000 0.000000 -0.001076
# 3 -0.004849 -0.004849 0.012650 0.000000 0.000000 0.000000
# 4 0.000000 0.000000 0.000000 0.054936 0.000000 0.000000
# 5 0.000000 0.000000 0.000000 0.000000 0.054936 0.000000
# 6 0.001076 -0.001076 0.000000 0.000000 0.000000 0.046809
#
#
# Mechanical properties :
#
#
# Convention : Reuss Voigt Hill
#
# Bulk Modulus (GPa) = 64.69803 66.37421 65.53612
# Shear Modulus (GPa) = 22.44875 24.04079 23.24477
#
# Velocity S-wave (km/s) = 3.56151 3.68564 3.62410
# Velocity P-wave (km/s) = 7.31226 7.45759 7.38529
#
# Compressibility (1/GPa) = 0.01545642
#
# Stress axis : x y z
#
# Youngs Moduli (GPa) = 78.35133 78.35133 79.05242
#
# Poissons Ratio (x) = 0.13023 0.38331
# Poissons Ratio (y) = 0.13023 0.38331
# Poissons Ratio (z) = 0.37991 0.37991
#
# Static dielectric constant tensor:
#      x y z
#    x 3.223350 0.000000 0.000000 
#    y 0.000000 3.223350 0.000000 
#    z 0.000000 0.000000 3.710450 
# 
# 
# High freq. dielectric constant tensor:
#      x y z
#    x 1.674310 0.000000 0.000000 
#    y 0.000000 1.674310 0.000000 
#    z 0.000000 0.000000 1.684010 
# 
# From -- ./inp_files/3863.got.cif
#   From: 2010.03.12/outbox.cif.g09.slc.cpg/sg84_2_cif.got.tgz:3863.got - 2010.04.08 20:07:29.
