data_PCOD8303267
_publ_section_title
;
Structure prediction by ZEFSAII (Michael W. Deem and Ramdas Pophale) SiO2 
 PCOD8303267
Probable space group: P 42/M
;
_chemical_formula_sum "Si O2"
_cell_formula_units_Z 40
_cell_length_a 14.916320
_cell_length_b 14.916320
_cell_length_c 8.902939
_cell_angle_alpha 90.000000
_cell_angle_beta 90.000000
_cell_angle_gamma 90.000000
_cell_volume 1980.873678
_symmetry_space_group_name_H-M "P 42/M"
_symmetry_group_IT_number 84
_symmetry_cell_setting 'tetragonal'
loop_
_space_group_symop_operation_xyz
x,y,z
-y,x,1/2+z
-x,-y,z
y,-x,1/2+z
-x,-y,-z
y,-x,1/2-z
x,y,-z
-y,x,1/2-z
loop_
_atom_site_type_symbol
_atom_site_label
_atom_site_fract_x
_atom_site_fract_y
_atom_site_fract_z
Si Si1 0.749959 0.418713 0.174945
Si Si2 0.414061 0.056231 0.823101
Si Si3 0.107562 0.933201 0.328274
Si Si4 0.911018 0.692758 0.827986
Si Si5 0.277824 0.379938 0.174594
O O1 0.845537 0.409252 0.253763
O O2 0.705115 0.515387 0.207037
O O3 0.679429 0.345953 0.231220
O O4 0.767057 0.404528 0.000000
O O5 0.500000 0.000000 0.765730
O O6 0.328836 0.997534 0.772978
O O7 0.414110 0.068268 0.000000
O O8 0.074517 0.928747 0.500000
O O9 0.203042 0.886035 0.309448
O O10 0.037182 0.883481 0.220953
O O11 0.823905 0.638925 0.772550
O O12 0.934533 0.669008 0.000000
O O13 0.289643 0.355247 0.000000
#
# Coordination Sequence:
#
# PCOD8303267 Si02
#       5
#     8   8   8   8   8
#     4  11  24  42  67  94 125 167 207 255 315 376
#     4  11  23  39  63  93 124 158 199 251 303 361
#     4  10  21  37  57  82 116 159 201 246 296 357
#     4  10  22  40  61  87 122 162 203 252 308 367
#     4  10  23  43  64  90 127 164 208 262 313 371
#
# _framework density 20.193110999999998
#
# number of rings (size 3 to 8) (size 9 to 14) (size 15 to 20)
#    0.000    1.600    2.000    2.400    2.800    5.200 
#    0.000    2.000    0.000    0.000    0.000    0.000 
#    0.000    0.000    0.000    0.000    0.000    0.000 
#
# Total GULP energy -496099.148657 kJ/mol
# GULP energy per Si atom -12402.478716 kJ/mol
# Density = 2.014715 g / cm^3
# Si number density = 20.193111 Si / 1000 Ang^3
#
#
#
# Elastic Constant Matrix: (Units=GPa)
#
#
# Indices 1 2 3 4 5 6 
#
# 1 90.8360 40.0217 35.3055 0.0000 0.0000 -7.5467
# 2 40.0217 90.8360 35.3055 0.0000 0.0000 7.5467
# 3 35.3055 35.3055 75.1966 0.0000 0.0000 0.0000
# 4 0.0000 0.0000 0.0000 33.1174 0.0000 0.0000
# 5 0.0000 0.0000 0.0000 0.0000 33.1174 0.0000
# 6 -7.5467 7.5467 0.0000 0.0000 0.0000 33.3279
#
#
#
# Elastic Compliance Matrix: (Units=1/GPa)
#
#
# Indices 1 2 3 4 5 6 
#
# 1 0.015667 -0.005432 -0.004805 0.000000 0.000000 0.004777
# 2 -0.005432 0.015667 -0.004805 0.000000 0.000000 -0.004777
# 3 -0.004805 -0.004805 0.017811 0.000000 0.000000 0.000000
# 4 0.000000 0.000000 0.000000 0.030196 0.000000 0.000000
# 5 0.000000 0.000000 0.000000 0.000000 0.030196 0.000000
# 6 0.004777 -0.004777 0.000000 0.000000 0.000000 0.032169
#
#
# Mechanical properties :
#
#
# Convention : Reuss Voigt Hill
#
# Bulk Modulus (GPa) = 52.46847 53.12603 52.79725
# Shear Modulus (GPa) = 28.06749 29.66161 28.86455
#
# Velocity S-wave (km/s) = 3.73225 3.83678 3.78488
# Velocity P-wave (km/s) = 6.67927 6.78188 6.73077
#
# Compressibility (1/GPa) = 0.01905907
#
# Stress axis : x y z
#
# Youngs Moduli (GPa) = 63.82963 63.82963 56.14570
#
# Poissons Ratio (x) = 0.34671 0.26980
# Poissons Ratio (y) = 0.34671 0.26980
# Poissons Ratio (z) = 0.30673 0.30673
#
# Static dielectric constant tensor:
#      x y z
#    x 3.649070 0.000000 0.000000 
#    y 0.000000 3.649070 0.000000 
#    z 0.000000 0.000000 3.639420 
# 
# 
# High freq. dielectric constant tensor:
#      x y z
#    x 1.792000 0.000000 0.000000 
#    y 0.000000 1.792000 0.000000 
#    z 0.000000 0.000000 1.790440 
# 
# From -- ./inp_files/776.got.cif
#   From: 2010.03.12/outbox.cif.g09.slc.cpg/sg84_1_cif.got.tgz:776.got - 2010.04.08 20:07:29.
