data_PCOD8303130
_publ_section_title
;
Structure prediction by ZEFSAII (Michael W. Deem and Ramdas Pophale) SiO2 
 PCOD8303130
Probable space group: P 42/M
;
_chemical_formula_sum "Si O2"
_cell_formula_units_Z 64
_cell_length_a 12.091264
_cell_length_b 12.091264
_cell_length_c 21.707752
_cell_angle_alpha 90.000000
_cell_angle_beta 90.000000
_cell_angle_gamma 90.000000
_cell_volume 3173.644365
_symmetry_space_group_name_H-M "P 42/M"
_symmetry_group_IT_number 84
_symmetry_cell_setting 'tetragonal'
loop_
_space_group_symop_operation_xyz
x,y,z
-y,x,1/2+z
-x,-y,z
y,-x,1/2+z
-x,-y,-z
y,-x,1/2-z
x,y,-z
-y,x,1/2-z
loop_
_atom_site_type_symbol
_atom_site_label
_atom_site_fract_x
_atom_site_fract_y
_atom_site_fract_z
Si Si1 0.124725 0.397560 0.930232
Si Si2 0.826152 0.723561 0.431604
Si Si3 0.090230 0.292965 0.296776
Si Si4 0.665185 0.568611 0.131647
Si Si5 0.102858 0.649266 0.106535
Si Si6 0.295846 0.148650 0.742647
Si Si7 0.428577 0.657044 0.884630
Si Si8 0.237643 0.475987 0.737114
O O1 0.237137 0.360149 0.897743
O O2 0.117707 0.530227 0.924838
O O3 0.027916 0.326885 0.898207
O O4 0.127664 0.360782 0.000000
O O5 0.884392 0.727851 0.500000
O O6 0.907717 0.718855 0.372189
O O7 0.745589 0.829506 0.427083
O O8 0.753345 0.610910 0.430410
O O9 0.179136 0.209963 0.265450
O O10 0.118156 0.414532 0.268459
O O11 0.965655 0.265529 0.276632
O O12 0.651558 0.446601 0.102077
O O13 0.557383 0.633886 0.110538
O O14 0.688702 0.551609 0.203484
O O15 0.132904 0.641824 0.177856
O O16 0.392591 0.218963 0.777947
O O17 0.410215 0.692501 0.814202
#
# Coordination Sequence:
#
# PCOD8303130 Si02
#       8
#     8   8   8   8   8   8   8   8
#     4  11  20  29  46  74 106 145 188 230 280 337
#     4  10  19  37  55  77 113 151 198 235 274 344
#     4  10  23  35  59  90 111 150 188 234 301 341
#     4  11  19  31  46  74 113 152 192 232 290 339
#     4  10  19  32  52  78 105 147 183 236 291 334
#     4  11  21  38  58  86 117 140 185 240 295 348
#     4  10  21  30  48  74 108 155 193 232 279 336
#     4  11  19  35  55  79 110 144 189 238 287 344
#
# _framework density 20.166090000000001
#
# number of rings (size 3 to 8) (size 9 to 14) (size 15 to 20)
#    0.000    1.500    2.500    5.625    1.750    1.750 
#    0.000    1.250    0.000    6.000    0.000   11.375 
#    0.000    0.000    0.000    0.000    0.000    0.000 
#
# Total GULP energy -792884.049835 kJ/mol
# GULP energy per Si atom -12388.813279 kJ/mol
# Density = 2.012019 g / cm^3
# Si number density = 20.166090 Si / 1000 Ang^3
#
#
#
# Elastic Constant Matrix: (Units=GPa)
#
#
# Indices 1 2 3 4 5 6 
#
# 1 67.1726 35.9378 17.2441 0.0000 0.0000 9.6971
# 2 35.9378 67.1726 17.2441 0.0000 0.0000 -9.6971
# 3 17.2441 17.2441 61.9096 0.0000 0.0000 0.0000
# 4 0.0000 0.0000 0.0000 1.7718 0.0000 0.0000
# 5 0.0000 0.0000 0.0000 0.0000 1.7718 0.0000
# 6 9.6971 -9.6971 0.0000 0.0000 0.0000 13.1941
#
#
#
# Elastic Compliance Matrix: (Units=1/GPa)
#
#
# Indices 1 2 3 4 5 6 
#
# 1 0.034792 -0.024098 -0.002979 0.000000 0.000000 -0.043282
# 2 -0.024098 0.034792 -0.002979 0.000000 0.000000 0.043282
# 3 -0.002979 -0.002979 0.017812 0.000000 0.000000 0.000000
# 4 0.000000 0.000000 0.000000 0.564404 0.000000 0.000000
# 5 0.000000 0.000000 0.000000 0.000000 0.564404 0.000000
# 6 -0.043282 0.043282 0.000000 0.000000 0.000000 0.139412
#
#
# Mechanical properties :
#
#
# Convention : Reuss Voigt Hill
#
# Bulk Modulus (GPa) = 36.64887 37.45632 37.05260
# Shear Modulus (GPa) = 3.50921 11.73611 7.62266
#
# Velocity S-wave (km/s) = 1.32058 2.41503 1.94632
# Velocity P-wave (km/s) = 4.53191 5.13719 4.84401
#
# Compressibility (1/GPa) = 0.02728597
#
# Stress axis : x y z
#
# Youngs Moduli (GPa) = 28.74194 28.74194 56.14178
#
# Poissons Ratio (x) = 0.69261 0.16724
# Poissons Ratio (y) = 0.69261 0.16724
# Poissons Ratio (z) = 0.08562 0.08562
#
# Static dielectric constant tensor:
#      x y z
#    x 3.680350 0.000000 0.000000 
#    y 0.000000 3.680350 0.000000 
#    z 0.000000 0.000000 3.629360 
# 
# 
# High freq. dielectric constant tensor:
#      x y z
#    x 1.772680 0.000000 0.000000 
#    y 0.000000 1.772680 0.000000 
#    z 0.000000 0.000000 1.779130 
# 
# From -- ./inp_files/5084.got.cif
#   From: 2010.03.12/outbox.cif.g09.slc.cpg/sg84_3_cif.got.tgz:5084.got - 2010.04.08 20:07:29.
