data_PCOD8303981
_publ_section_title
;
Structure prediction by ZEFSAII (Michael W. Deem and Ramdas Pophale) SiO2 
 PCOD8303981
Probable space group: I 4/M
;
_chemical_formula_sum "Si O2"
_cell_formula_units_Z 80
_cell_length_a 11.571116
_cell_length_b 11.571116
_cell_length_c 29.828367
_cell_angle_alpha 90.000000
_cell_angle_beta 90.000000
_cell_angle_gamma 90.000000
_cell_volume 3993.741698
_symmetry_space_group_name_H-M "I 4/M"
_symmetry_group_IT_number 87
_symmetry_cell_setting 'tetragonal'
loop_
_space_group_symop_operation_xyz
x,y,z
-y,x,z
-x,-y,z
y,-x,z
-x,-y,-z
y,-x,-z
x,y,-z
-y,x,-z
1/2+x,1/2+y,1/2+z
1/2-y,1/2+x,1/2+z
1/2-x,1/2-y,1/2+z
1/2+y,1/2-x,1/2+z
1/2-x,1/2-y,1/2-z
1/2+y,1/2-x,1/2-z
1/2+x,1/2+y,1/2-z
1/2-y,1/2+x,1/2-z
loop_
_atom_site_type_symbol
_atom_site_label
_atom_site_fract_x
_atom_site_fract_y
_atom_site_fract_z
Si Si1 0.129452 0.518525 0.617525
Si Si2 0.593837 0.205063 0.051144
Si Si3 0.903612 0.165863 0.243957
Si Si4 0.765152 0.356887 0.095718
Si Si5 0.781388 0.722805 0.177375
O O1 0.128602 0.579517 0.568839
O O2 0.186646 0.396118 0.604676
O O3 0.198251 0.594098 0.654246
O O4 0.000000 0.500000 0.636398
O O5 0.704284 0.288751 0.054990
O O6 0.491216 0.248799 0.083995
O O7 0.551756 0.198311 0.000000
O O8 0.854379 0.217521 0.196989
O O9 0.866368 0.254314 0.282863
O O10 0.040715 0.157618 0.247023
O O11 0.701989 0.322412 0.142026
#
# Coordination Sequence:
#
# PCOD8303981 Si02
#       5
#    16  16  16  16  16
#     4   9  20  36  57  83 112 152 199 237 286 345
#     4  10  21  36  57  87 117 153 191 240 297 346
#     4  10  22  37  57  84 117 151 190 244 297 352
#     4  10  21  36  58  81 115 151 192 238 281 357
#     4  10  21  38  59  83 114 154 197 238 297 345
#
# _framework density 20.031341000000001
#
# number of rings (size 3 to 8) (size 9 to 14) (size 15 to 20)
#    0.000    2.200    0.000    1.800    8.400    4.800 
#    0.000    1.000    0.000    5.400    0.000    5.600 
#    0.000    0.000    0.000    0.000    0.000    0.000 
#
# Total GULP energy -495664.369677 kJ/mol
# GULP energy per Si atom -12391.609242 kJ/mol
# Density = 1.998575 g / cm^3
# Si number density = 20.031341 Si / 1000 Ang^3
#
#
#
# Elastic Constant Matrix: (Units=GPa)
#
#
# Indices 1 2 3 4 5 6 
#
# 1 79.0641 22.4232 38.5732 0.0000 0.0000 5.2625
# 2 22.4232 79.0641 38.5732 0.0000 0.0000 -5.2625
# 3 38.5732 38.5732 118.5875 0.0000 0.0000 0.0000
# 4 0.0000 0.0000 0.0000 21.9426 0.0000 0.0000
# 5 0.0000 0.0000 0.0000 0.0000 21.9426 0.0000
# 6 5.2625 -5.2625 0.0000 0.0000 0.0000 29.4036
#
#
#
# Elastic Compliance Matrix: (Units=1/GPa)
#
#
# Indices 1 2 3 4 5 6 
#
# 1 0.015676 -0.002586 -0.004258 0.000000 0.000000 -0.003268
# 2 -0.002586 0.015676 -0.004258 0.000000 0.000000 0.003268
# 3 -0.004258 -0.004258 0.011203 0.000000 0.000000 0.000000
# 4 0.000000 0.000000 0.000000 0.045573 0.000000 0.000000
# 5 0.000000 0.000000 0.000000 0.000000 0.045573 0.000000
# 6 -0.003268 0.003268 0.000000 0.000000 0.000000 0.035179
#
#
# Mechanical properties :
#
#
# Convention : Reuss Voigt Hill
#
# Bulk Modulus (GPa) = 49.13686 52.87276 51.00481
# Shear Modulus (GPa) = 25.26926 26.46749 25.86838
#
# Velocity S-wave (km/s) = 3.55559 3.63892 3.59750
# Velocity P-wave (km/s) = 6.43736 6.64138 6.54017
#
# Compressibility (1/GPa) = 0.02035132
#
# Stress axis : x y z
#
# Youngs Moduli (GPa) = 63.79071 63.79071 89.26567
#
# Poissons Ratio (x) = 0.16497 0.38008
# Poissons Ratio (y) = 0.16497 0.38008
# Poissons Ratio (z) = 0.27161 0.27161
#
# Static dielectric constant tensor:
#      x y z
#    x 3.659330 0.000000 0.000000 
#    y 0.000000 3.659330 0.000000 
#    z 0.000000 0.000000 3.584480 
# 
# 
# High freq. dielectric constant tensor:
#      x y z
#    x 1.776190 0.000000 0.000000 
#    y 0.000000 1.776190 0.000000 
#    z 0.000000 0.000000 1.782890 
# 
# From -- ./inp_files/6477.got.cif
#   From: 2010.03.12/outbox.cif.g09.slc.cpg/sg87_4_cif.got.tgz:6477.got - 2010.04.08 20:16:13.
