data_PCOD8303574
_publ_section_title
;
Structure prediction by ZEFSAII (Michael W. Deem and Ramdas Pophale) SiO2 
 PCOD8303574
Probable space group: P 42/N
;
_chemical_formula_sum "Si O2"
_cell_formula_units_Z 38
_cell_length_a 13.802918
_cell_length_b 13.802918
_cell_length_c 9.211097
_cell_angle_alpha 90.000000
_cell_angle_beta 90.000000
_cell_angle_gamma 90.000000
_cell_volume 1754.903223
_symmetry_space_group_name_H-M "P 42/N"
_symmetry_group_IT_number 86
_space_group.IT_coordinate_system_code '2'
_symmetry_cell_setting 'tetragonal'
loop_
_space_group_symop_operation_xyz
x,y,z
-y,1/2+x,1/2+z
1/2-x,1/2-y,z
1/2+y,-x,1/2+z
-x,-y,-z
y,1/2-x,1/2-z
1/2+x,1/2+y,-z
1/2-y,x,1/2-z
loop_
_atom_site_type_symbol
_atom_site_label
_atom_site_fract_x
_atom_site_fract_y
_atom_site_fract_z
Si Si1 0.750000 0.250000 0.205263
Si Si2 0.210748 0.058652 0.906709
Si Si3 0.750000 0.750000 0.250000
Si Si4 0.877864 0.418609 0.107382
Si Si5 0.062817 0.028682 0.137424
Si Si6 0.594692 0.105643 0.795419
O O1 0.802334 0.329633 0.107061
O O2 0.832191 0.193843 0.298297
O O3 0.206073 0.167844 0.852383
O O4 0.319955 0.019153 0.912844
O O5 0.152797 0.992408 0.793074
O O6 0.165627 0.061146 0.070212
O O7 0.938548 0.420038 0.254685
O O8 0.941990 0.405437 0.961810
O O9 0.002039 0.111480 0.224731
O O10 0.000000 0.000000 0.000000
#
# Coordination Sequence:
#
# PCOD8303574 Si02
#       6
#     4   8   2   8   8   8
#     4  10  22  36  62  98 130 160 212 268 320 380
#     4  10  23  40  62  89 121 168 212 254 314 380
#     4  12  24  44  64  82 120 172 224 258 304 392
#     4  11  21  39  65  95 126 162 209 263 324 384
#     4  10  21  38  57  84 121 159 204 257 313 372
#     4  10  21  38  63  92 124 164 205 261 321 377
#
# _framework density 21.653614999999999
#
# number of rings (size 3 to 8) (size 9 to 14) (size 15 to 20)
#    0.000    1.684    0.000    5.053    0.000   10.105 
#    0.000    2.105    0.000    1.263    0.000    0.000 
#    0.000    0.000    0.000    0.000    0.000    0.000 
#
# Total GULP energy -470893.267081 kJ/mol
# GULP energy per Si atom -12391.928081 kJ/mol
# Density = 2.160433 g / cm^3
# Si number density = 21.653615 Si / 1000 Ang^3
#
#
#
# Elastic Constant Matrix: (Units=GPa)
#
#
# Indices 1 2 3 4 5 6 
#
# 1 102.4916 46.0496 54.8119 0.0000 0.0000 -2.7324
# 2 46.0496 102.4916 54.8119 0.0000 0.0000 2.7324
# 3 54.8119 54.8119 167.5245 0.0000 0.0000 0.0000
# 4 0.0000 0.0000 0.0000 19.3999 0.0000 0.0000
# 5 0.0000 0.0000 0.0000 0.0000 19.3999 0.0000
# 6 -2.7324 2.7324 0.0000 0.0000 0.0000 34.9388
#
#
#
# Elastic Compliance Matrix: (Units=1/GPa)
#
#
# Indices 1 2 3 4 5 6 
#
# 1 0.013364 -0.004489 -0.002904 0.000000 0.000000 0.001396
# 2 -0.004489 0.013364 -0.002904 0.000000 0.000000 -0.001396
# 3 -0.002904 -0.002904 0.007869 0.000000 0.000000 0.000000
# 4 0.000000 0.000000 0.000000 0.051547 0.000000 0.000000
# 5 0.000000 0.000000 0.000000 0.000000 0.051547 0.000000
# 6 0.001396 -0.001396 0.000000 0.000000 0.000000 0.028840
#
#
# Mechanical properties :
#
#
# Convention : Reuss Voigt Hill
#
# Bulk Modulus (GPa) = 71.40582 75.98381 73.69482
# Shear Modulus (GPa) = 26.06999 29.20333 27.63666
#
# Velocity S-wave (km/s) = 3.47357 3.67639 3.57642
# Velocity P-wave (km/s) = 7.00968 7.29300 7.15274
#
# Compressibility (1/GPa) = 0.01400446
#
# Stress axis : x y z
#
# Youngs Moduli (GPa) = 74.82883 74.82883 127.07320
#
# Poissons Ratio (x) = 0.33588 0.36900
# Poissons Ratio (y) = 0.33588 0.36900
# Poissons Ratio (z) = 0.21729 0.21729
#
# Static dielectric constant tensor:
#      x y z
#    x 4.102740 0.000000 0.000000 
#    y 0.000000 4.102740 0.000000 
#    z 0.000000 0.000000 4.078720 
# 
# 
# High freq. dielectric constant tensor:
#      x y z
#    x 1.842200 0.000000 0.000000 
#    y 0.000000 1.842200 0.000000 
#    z 0.000000 0.000000 1.860380 
# 
# From -- ./inp_files/1062.got.cif
#   From: 2010.03.12/outbox.cif.g09.slc.cpg/sg86_1_cif.got.tgz:1062.got - 2010.04.08 20:12:58.
