data_PCOD8303162
_publ_section_title
;
Structure prediction by ZEFSAII (Michael W. Deem and Ramdas Pophale) SiO2 
 PCOD8303162
Probable space group: P 42/M
;
_chemical_formula_sum "Si O2"
_cell_formula_units_Z 32
_cell_length_a 8.856297
_cell_length_b 8.856297
_cell_length_c 18.813794
_cell_angle_alpha 90.000000
_cell_angle_beta 90.000000
_cell_angle_gamma 90.000000
_cell_volume 1475.641054
_symmetry_space_group_name_H-M "P 42/M"
_symmetry_group_IT_number 84
_symmetry_cell_setting 'tetragonal'
loop_
_space_group_symop_operation_xyz
x,y,z
-y,x,1/2+z
-x,-y,z
y,-x,1/2+z
-x,-y,-z
y,-x,1/2-z
x,y,-z
-y,x,1/2-z
loop_
_atom_site_type_symbol
_atom_site_label
_atom_site_fract_x
_atom_site_fract_y
_atom_site_fract_z
Si Si1 0.715611 0.551862 0.718431
Si Si2 0.838376 0.076286 0.577093
Si Si3 0.162165 0.567263 0.578992
Si Si4 0.229166 0.946690 0.272599
O O1 0.678851 0.413981 0.772270
O O2 0.718288 0.494662 0.636998
O O3 0.879209 0.619131 0.738763
O O4 0.766093 0.032451 0.500000
O O5 0.853436 0.254500 0.583296
O O6 0.740447 0.016015 0.643871
O O7 0.000000 0.000000 0.584012
O O8 0.216964 0.517299 0.500000
O O9 0.000000 0.500000 0.596299
O O10 0.095562 0.820136 0.269883
#
# Coordination Sequence:
#
# PCOD8303162 Si02
#       4
#     8   8   8   8
#     4  11  24  40  58  88 130 169 214 257 317 382
#     4  10  19  35  58  90 125 155 198 260 320 372
#     4  10  21  39  63  91 122 165 216 264 317 377
#     4  11  21  36  60  92 121 161 215 264 322 379
#
# _framework density 21.685492
#
# number of rings (size 3 to 8) (size 9 to 14) (size 15 to 20)
#    0.000    1.500    5.000    1.500    0.000    0.000 
#    0.000    3.750    0.000    0.000    0.000    3.500 
#    0.000    0.000    0.000    0.000    0.000    0.000 
#
# Total GULP energy -396636.386234 kJ/mol
# GULP energy per Si atom -12394.887070 kJ/mol
# Density = 2.163613 g / cm^3
# Si number density = 21.685492 Si / 1000 Ang^3
#
#
#
# Elastic Constant Matrix: (Units=GPa)
#
#
# Indices 1 2 3 4 5 6 
#
# 1 44.7606 30.0722 43.3871 0.0000 0.0000 -2.2814
# 2 30.0722 44.7606 43.3871 0.0000 0.0000 2.2814
# 3 43.3871 43.3871 200.3134 0.0000 0.0000 0.0000
# 4 0.0000 0.0000 0.0000 35.5739 0.0000 0.0000
# 5 0.0000 0.0000 0.0000 0.0000 35.5739 0.0000
# 6 -2.2814 2.2814 0.0000 0.0000 0.0000 41.7754
#
#
#
# Elastic Compliance Matrix: (Units=1/GPa)
#
#
# Indices 1 2 3 4 5 6 
#
# 1 0.043551 -0.025705 -0.003865 0.000000 0.000000 0.003782
# 2 -0.025705 0.043551 -0.003865 0.000000 0.000000 -0.003782
# 3 -0.003865 -0.003865 0.006667 0.000000 0.000000 0.000000
# 4 0.000000 0.000000 0.000000 0.028110 0.000000 0.000000
# 5 0.000000 0.000000 0.000000 0.000000 0.028110 0.000000
# 6 0.003782 -0.003782 0.000000 0.000000 0.000000 0.024351
#
#
# Mechanical properties :
#
#
# Convention : Reuss Voigt Hill
#
# Bulk Modulus (GPa) = 37.18025 58.16970 47.67498
# Shear Modulus (GPa) = 19.98592 34.11719 27.05156
#
# Velocity S-wave (km/s) = 3.03912 3.97075 3.53576
# Velocity P-wave (km/s) = 5.43116 6.92134 6.22103
#
# Compressibility (1/GPa) = 0.02689600
#
# Stress axis : x y z
#
# Youngs Moduli (GPa) = 22.96183 22.96183 150.00286
#
# Poissons Ratio (x) = 0.59024 0.57979
# Poissons Ratio (y) = 0.59024 0.57979
# Poissons Ratio (z) = 0.08875 0.08875
#
# Static dielectric constant tensor:
#      x y z
#    x 3.753380 0.000000 0.000000 
#    y 0.000000 3.753380 0.000000 
#    z 0.000000 0.000000 4.594020 
# 
# 
# High freq. dielectric constant tensor:
#      x y z
#    x 1.830550 0.000000 0.000000 
#    y 0.000000 1.830550 0.000000 
#    z 0.000000 0.000000 1.874630 
# 
# From -- ./inp_files/4115.got.cif
#   From: 2010.03.12/outbox.cif.g09.slc.cpg/sg84_3_cif.got.tgz:4115.got - 2010.04.08 20:07:29.
