data_PCOD8303988
_publ_section_title
;
Structure prediction by ZEFSAII (Michael W. Deem and Ramdas Pophale) SiO2 
 PCOD8303988
Probable space group: I 4/M
;
_chemical_formula_sum "Si O2"
_cell_formula_units_Z 96
_cell_length_a 23.925859
_cell_length_b 23.925859
_cell_length_c 8.654965
_cell_angle_alpha 90.000000
_cell_angle_beta 90.000000
_cell_angle_gamma 90.000000
_cell_volume 4954.506403
_symmetry_space_group_name_H-M "I 4/M"
_symmetry_group_IT_number 87
_symmetry_cell_setting 'tetragonal'
loop_
_space_group_symop_operation_xyz
x,y,z
-y,x,z
-x,-y,z
y,-x,z
-x,-y,-z
y,-x,-z
x,y,-z
-y,x,-z
1/2+x,1/2+y,1/2+z
1/2-y,1/2+x,1/2+z
1/2-x,1/2-y,1/2+z
1/2+y,1/2-x,1/2+z
1/2-x,1/2-y,1/2-z
1/2+y,1/2-x,1/2-z
1/2+x,1/2+y,1/2-z
1/2-y,1/2+x,1/2-z
loop_
_atom_site_type_symbol
_atom_site_label
_atom_site_fract_x
_atom_site_fract_y
_atom_site_fract_z
Si Si1 0.854629 0.233867 0.820622
Si Si2 0.653197 0.149052 0.180893
Si Si3 0.439814 0.637586 0.322125
Si Si4 0.140182 0.943458 0.322370
Si Si5 0.559634 0.060084 0.817083
Si Si6 0.772457 0.151698 0.320523
O O1 0.867631 0.289142 0.723215
O O2 0.905535 0.193056 0.781345
O O3 0.796038 0.205361 0.771487
O O4 0.850647 0.249612 0.000000
O O5 0.606805 0.104281 0.234236
O O6 0.710234 0.136349 0.270486
O O7 0.664486 0.144265 0.000000
O O8 0.432007 0.621140 0.500000
O O9 0.418400 0.586040 0.218820
O O10 0.503642 0.649768 0.285331
O O11 0.139637 0.961868 0.500000
O O12 0.190472 0.902053 0.282100
O O13 0.501391 0.078153 0.738430
O O14 0.551045 0.059705 0.000000
O O15 0.774261 0.167038 0.500000
#
# Coordination Sequence:
#
# PCOD8303988 Si02
#       6
#    16  16  16  16  16  16
#     4  10  21  37  57  81 112 148 183 225 275 324
#     4  11  23  37  57  85 113 144 183 223 267 326
#     4  10  21  37  57  81 110 145 185 229 276 325
#     4  10  21  37  57  81 110 145 185 229 276 325
#     4  10  22  40  61  83 110 144 180 224 274 323
#     4  10  21  37  57  81 112 148 183 225 275 324
#
# _framework density 19.376297999999998
#
# number of rings (size 3 to 8) (size 9 to 14) (size 15 to 20)
#    0.000    1.833    0.000    4.000    0.000    8.333 
#    0.000    8.333    0.000    0.000    0.000    0.000 
#    0.000    0.000    0.000    0.000    0.000    0.000 
#
# Total GULP energy -595441.716822 kJ/mol
# GULP energy per Si atom -12405.035767 kJ/mol
# Density = 1.933220 g / cm^3
# Si number density = 19.376298 Si / 1000 Ang^3
#
#
#
# Elastic Constant Matrix: (Units=GPa)
#
#
# Indices 1 2 3 4 5 6 
#
# 1 37.5591 129.6925 22.6901 0.0000 0.0000 12.0997
# 2 129.6925 37.5591 22.6901 0.0000 0.0000 -12.0997
# 3 22.6901 22.6901 37.8047 0.0000 0.0000 0.0000
# 4 0.0000 0.0000 0.0000 33.2371 0.0000 0.0000
# 5 0.0000 0.0000 0.0000 0.0000 33.2371 0.0000
# 6 12.0997 -12.0997 0.0000 0.0000 0.0000 25.7965
#
#
#
# Elastic Compliance Matrix: (Units=1/GPa)
#
#
# Indices 1 2 3 4 5 6 
#
# 1 -0.001261 0.008403 -0.004287 0.000000 0.000000 0.004533
# 2 0.008403 -0.001261 -0.004287 0.000000 0.000000 -0.004533
# 3 -0.004287 -0.004287 0.031597 0.000000 0.000000 0.000000
# 4 0.000000 0.000000 0.000000 0.030087 0.000000 0.000000
# 5 0.000000 0.000000 0.000000 0.000000 0.030087 0.000000
# 6 0.004533 -0.004533 0.000000 0.000000 0.000000 0.034513
#
#
# Mechanical properties :
#
#
# Convention : Reuss Voigt Hill
#
# Bulk Modulus (GPa) = 34.80077 51.45205 43.12641
# Shear Modulus (GPa) = 37.40208 14.31081 25.85645
#
# Velocity S-wave (km/s) = 4.39828 2.72062 3.65696
# Velocity P-wave (km/s) = 6.61760 6.03993 6.33536
#
# Compressibility (1/GPa) = 0.02873500
#
# Stress axis : x y z
#
# Youngs Moduli (GPa) = -793.26367 -793.26367 31.64820
#
# Poissons Ratio (x) = 6.66558 0.13566
# Poissons Ratio (y) = 6.66558 0.13566
# Poissons Ratio (z) = -3.40044 -3.40044
#
# Static dielectric constant tensor:
#      x y z
#    x 3.550660 0.000000 0.000000 
#    y 0.000000 3.550660 0.000000 
#    z 0.000000 0.000000 3.596550 
# 
# 
# High freq. dielectric constant tensor:
#      x y z
#    x 1.756110 0.000000 0.000000 
#    y 0.000000 1.756110 0.000000 
#    z 0.000000 0.000000 1.767860 
# 
# From -- ./inp_files/1447.got.cif
#   From: 2010.03.12/outbox.cif.g09.slc.cpg/sg87_1_cif.got.tgz:1447.got - 2010.04.08 20:16:13.
