data_PCOD8303024
_publ_section_title
;
Structure prediction by ZEFSAII (Michael W. Deem and Ramdas Pophale) SiO2 
 PCOD8303024
Probable space group: P 4/M
;
_chemical_formula_sum "Si O2"
_cell_formula_units_Z 41
_cell_length_a 8.643944
_cell_length_b 8.643944
_cell_length_c 26.661077
_cell_angle_alpha 90.000000
_cell_angle_beta 90.000000
_cell_angle_gamma 90.000000
_cell_volume 1992.056163
_symmetry_space_group_name_H-M "P 4/M"
_symmetry_group_IT_number 83
_symmetry_cell_setting 'tetragonal'
loop_
_space_group_symop_operation_xyz
x,y,z
-y,x,z
-x,-y,z
y,-x,z
-x,-y,-z
y,-x,-z
x,y,-z
-y,x,-z
loop_
_atom_site_type_symbol
_atom_site_label
_atom_site_fract_x
_atom_site_fract_y
_atom_site_fract_z
Si Si1 0.500000 0.500000 0.500000
Si Si2 0.587586 0.737436 0.683834
Si Si3 0.063170 0.245242 0.056830
Si Si4 0.000000 0.500000 0.869673
Si Si5 0.743069 0.428509 0.797477
Si Si6 0.592827 0.840762 0.500000
Si Si7 0.767151 0.897200 0.398874
O O1 0.481067 0.688720 0.500000
O O2 0.411126 0.694118 0.673482
O O3 0.599773 0.800046 0.740650
O O4 0.645360 0.867179 0.645799
O O5 0.889788 0.185432 0.066444
O O6 0.097728 0.384138 0.095095
O O7 0.079410 0.306659 0.000000
O O8 0.115140 0.601382 0.835043
O O9 0.688929 0.603870 0.807366
O O10 0.697983 0.841572 0.450926
O O11 0.500000 0.000000 0.500000
O O12 0.922268 0.798545 0.393936
#
# Coordination Sequence:
#
# PCOD8303024 Si02
#       7
#     1   8   8   4   8   4   8
#     4  12  28  44  76 104 132 172 244 252 324 432
#     4   9  21  39  62  86 115 155 204 248 293 368
#     4   9  19  35  52  76 113 151 190 240 294 352
#     4  12  19  30  58  86 106 147 200 242 294 356
#     4   9  20  38  54  80 118 152 189 243 300 351
#     4  12  28  47  68 101 132 169 209 272 316 382
#     4  11  25  43  64  93 129 162 198 255 323 371
#
# _framework density 20.581751000000001
#
# number of rings (size 3 to 8) (size 9 to 14) (size 15 to 20)
#    0.000    1.951    0.000    4.976    5.463    3.902 
#    0.000    0.000    0.000    2.341    0.000    8.195 
#    0.000    0.000    0.000    0.000    0.000    0.000 
#
# Total GULP energy -507923.376110 kJ/mol
# GULP energy per Si atom -12388.375027 kJ/mol
# Density = 2.053491 g / cm^3
# Si number density = 20.581751 Si / 1000 Ang^3
#
#
#
# Elastic Constant Matrix: (Units=GPa)
#
#
# Indices 1 2 3 4 5 6 
#
# 1 75.4608 27.4823 48.8631 0.0000 0.0000 1.4364
# 2 27.4823 75.4608 48.8631 0.0000 0.0000 -1.4364
# 3 48.8631 48.8631 142.9225 0.0000 0.0000 0.0000
# 4 0.0000 0.0000 0.0000 23.0041 0.0000 0.0000
# 5 0.0000 0.0000 0.0000 0.0000 23.0041 0.0000
# 6 1.4364 -1.4364 0.0000 0.0000 0.0000 30.8947
#
#
#
# Elastic Compliance Matrix: (Units=1/GPa)
#
#
# Indices 1 2 3 4 5 6 
#
# 1 0.017641 -0.003259 -0.004917 0.000000 0.000000 -0.000972
# 2 -0.003259 0.017641 -0.004917 0.000000 0.000000 0.000972
# 3 -0.004917 -0.004917 0.010359 0.000000 0.000000 0.000000
# 4 0.000000 0.000000 0.000000 0.043471 0.000000 0.000000
# 5 0.000000 0.000000 0.000000 0.000000 0.043471 0.000000
# 6 -0.000972 0.000972 0.000000 0.000000 0.000000 0.032458
#
#
# Mechanical properties :
#
#
# Convention : Reuss Voigt Hill
#
# Bulk Modulus (GPa) = 51.40116 60.47347 55.93732
# Shear Modulus (GPa) = 25.28921 26.62295 25.95608
#
# Velocity S-wave (km/s) = 3.50911 3.60046 3.55508
# Velocity P-wave (km/s) = 6.43792 6.83595 6.63992
#
# Compressibility (1/GPa) = 0.01945481
#
# Stress axis : x y z
#
# Youngs Moduli (GPa) = 56.68498 56.68498 96.53567
#
# Poissons Ratio (x) = 0.18476 0.47466
# Poissons Ratio (y) = 0.18476 0.47466
# Poissons Ratio (z) = 0.27872 0.27872
#
# Static dielectric constant tensor:
#      x y z
#    x 3.614650 0.000000 0.000000 
#    y 0.000000 3.614650 0.000000 
#    z 0.000000 0.000000 3.602040 
# 
# 
# High freq. dielectric constant tensor:
#      x y z
#    x 1.801640 0.000000 0.000000 
#    y 0.000000 1.801640 0.000000 
#    z 0.000000 0.000000 1.810040 
# 
# From -- ./inp_files/3310.got.cif
#   From: 2010.03.12/outbox.cif.g09.slc.cpg/sg83_2_cif.got.tgz:3310.got - 2010.04.08 20:05:18.
