data_PCOD8303665
_publ_section_title
;
Structure prediction by ZEFSAII (Michael W. Deem and Ramdas Pophale) SiO2 
 PCOD8303665
Probable space group: P 42/N
;
_chemical_formula_sum "Si O2"
_cell_formula_units_Z 46
_cell_length_a 11.605142
_cell_length_b 11.605142
_cell_length_c 16.648800
_cell_angle_alpha 90.000000
_cell_angle_beta 90.000000
_cell_angle_gamma 90.000000
_cell_volume 2242.249077
_symmetry_space_group_name_H-M "P 42/N"
_symmetry_group_IT_number 86
_space_group.IT_coordinate_system_code '2'
_symmetry_cell_setting 'tetragonal'
loop_
_space_group_symop_operation_xyz
x,y,z
-y,1/2+x,1/2+z
1/2-x,1/2-y,z
1/2+y,-x,1/2+z
-x,-y,-z
y,1/2-x,1/2-z
1/2+x,1/2+y,-z
1/2-y,x,1/2-z
loop_
_atom_site_type_symbol
_atom_site_label
_atom_site_fract_x
_atom_site_fract_y
_atom_site_fract_z
Si Si1 0.594012 0.569794 0.322146
Si Si2 0.753221 0.028158 0.074841
Si Si3 0.511251 0.013702 0.658070
Si Si4 0.250000 0.250000 0.750000
Si Si5 0.750000 0.250000 0.993903
Si Si6 0.151584 0.338723 0.445424
Si Si7 0.983263 0.222212 0.925318
O O1 0.508847 0.664923 0.356645
O O2 0.531446 0.490159 0.254889
O O3 0.710851 0.638023 0.298756
O O4 0.647475 0.486779 0.390183
O O5 0.875119 0.064479 0.114166
O O6 0.695626 0.145553 0.044320
O O7 0.768977 0.934570 0.003993
O O8 0.581883 0.899806 0.628796
O O9 0.376730 0.016020 0.637192
O O10 0.851218 0.193347 0.942862
O O11 0.250000 0.250000 0.412680
O O12 0.215076 0.437921 0.495672
#
# Coordination Sequence:
#
# PCOD8303665 Si02
#       7
#     8   8   8   2   4   8   8
#     4  12  21  35  64 102 133 169 218 281 346 400
#     4  11  21  38  64  96 129 169 219 275 331 395
#     4  11  20  38  62  98 131 169 209 280 352 387
#     4  12  16  32  68  96 132 148 208 278 328 392
#     4  12  24  40  62  92 132 176 226 272 322 398
#     4  11  20  39  68  97 127 172 223 272 329 400
#     4  11  21  38  64  96 129 169 219 275 331 395
#
# _framework density 20.515117
#
# number of rings (size 3 to 8) (size 9 to 14) (size 15 to 20)
#    0.000    0.696    8.696    2.087    0.000    0.696 
#    0.000    3.478    0.000    0.000   13.565    0.000 
#    0.000    0.000    0.000    0.000    0.000    0.000 
#
# Total GULP energy -570075.190475 kJ/mol
# GULP energy per Si atom -12392.938923 kJ/mol
# Density = 2.046842 g / cm^3
# Si number density = 20.515117 Si / 1000 Ang^3
#
#
#
# Elastic Constant Matrix: (Units=GPa)
#
#
# Indices 1 2 3 4 5 6 
#
# 1 78.9552 33.7855 38.8472 0.0000 0.0000 1.7815
# 2 33.7855 78.9552 38.8472 0.0000 0.0000 -1.7815
# 3 38.8472 38.8472 89.3354 0.0000 0.0000 0.0000
# 4 0.0000 0.0000 0.0000 21.2131 0.0000 0.0000
# 5 0.0000 0.0000 0.0000 0.0000 21.2131 0.0000
# 6 1.7815 -1.7815 0.0000 0.0000 0.0000 38.9948
#
#
#
# Elastic Compliance Matrix: (Units=1/GPa)
#
#
# Indices 1 2 3 4 5 6 
#
# 1 0.017442 -0.004777 -0.005507 0.000000 0.000000 -0.001015
# 2 -0.004777 0.017442 -0.005507 0.000000 0.000000 0.001015
# 3 -0.005507 -0.005507 0.015984 0.000000 0.000000 0.000000
# 4 0.000000 0.000000 0.000000 0.047141 0.000000 0.000000
# 5 0.000000 0.000000 0.000000 0.000000 0.047141 0.000000
# 6 -0.001015 0.001015 0.000000 0.000000 0.000000 0.025737
#
#
# Mechanical properties :
#
#
# Convention : Reuss Voigt Hill
#
# Bulk Modulus (GPa) = 51.85549 52.24505 52.05027
# Shear Modulus (GPa) = 23.93514 25.33525 24.63519
#
# Velocity S-wave (km/s) = 3.41942 3.51801 3.46906
# Velocity P-wave (km/s) = 6.39699 6.48257 6.43992
#
# Compressibility (1/GPa) = 0.01928436
#
# Stress axis : x y z
#
# Youngs Moduli (GPa) = 57.33257 57.33257 62.56411
#
# Poissons Ratio (x) = 0.27386 0.34457
# Poissons Ratio (y) = 0.27386 0.34457
# Poissons Ratio (z) = 0.31576 0.31576
#
# Static dielectric constant tensor:
#      x y z
#    x 3.670630 0.000000 0.000000 
#    y 0.000000 3.670630 0.000000 
#    z 0.000000 0.000000 3.552310 
# 
# 
# High freq. dielectric constant tensor:
#      x y z
#    x 1.797580 0.000000 0.000000 
#    y 0.000000 1.797580 0.000000 
#    z 0.000000 0.000000 1.779440 
# 
# From -- ./inp_files/3598.got.cif
#   From: 2010.03.12/outbox.cif.g09.slc.cpg/sg86_2_cif.got.tgz:3598.got - 2010.04.08 20:12:58.
