data_PCOD8303966
_publ_section_title
;
Structure prediction by ZEFSAII (Michael W. Deem and Ramdas Pophale) SiO2 
 PCOD8303966
Probable space group: I 4/M
;
_chemical_formula_sum "Si O2"
_cell_formula_units_Z 120
_cell_length_a 27.038706
_cell_length_b 27.038706
_cell_length_c 7.937756
_cell_angle_alpha 90.000000
_cell_angle_beta 90.000000
_cell_angle_gamma 90.000000
_cell_volume 5803.226910
_symmetry_space_group_name_H-M "I 4/M"
_symmetry_group_IT_number 87
_symmetry_cell_setting 'tetragonal'
loop_
_space_group_symop_operation_xyz
x,y,z
-y,x,z
-x,-y,z
y,-x,z
-x,-y,-z
y,-x,-z
x,y,-z
-y,x,-z
1/2+x,1/2+y,1/2+z
1/2-y,1/2+x,1/2+z
1/2-x,1/2-y,1/2+z
1/2+y,1/2-x,1/2+z
1/2-x,1/2-y,1/2-z
1/2+y,1/2-x,1/2-z
1/2+x,1/2+y,1/2-z
1/2-y,1/2+x,1/2-z
loop_
_atom_site_type_symbol
_atom_site_label
_atom_site_fract_x
_atom_site_fract_y
_atom_site_fract_z
Si Si1 0.944890 0.370695 0.301833
Si Si2 0.651294 0.505612 0.803012
Si Si3 0.445080 0.133271 0.692718
Si Si4 0.821997 0.102735 0.692812
Si Si5 0.636834 0.205731 0.800672
Si Si6 0.420521 0.487729 0.500000
Si Si7 0.188757 0.110789 0.304270
Si Si8 0.372818 0.215020 0.699199
O O1 0.955758 0.370609 0.500000
O O2 0.917587 0.420879 0.237054
O O3 0.911068 0.325133 0.242240
O O4 0.996731 0.366098 0.209440
O O5 0.675067 0.453710 0.737771
O O6 0.607519 0.518472 0.676431
O O7 0.689268 0.551364 0.779566
O O8 0.633682 0.503560 0.000000
O O9 0.428240 0.134215 0.500000
O O10 0.418994 0.182212 0.769459
O O11 0.836275 0.098227 0.500000
O O12 0.861963 0.140523 0.778082
O O13 0.767751 0.125273 0.712546
O O14 0.632889 0.260837 0.721774
O O15 0.687364 0.178049 0.745562
O O16 0.635204 0.208531 0.000000
O O17 0.458805 0.443818 0.500000
O O18 0.188828 0.124540 0.500000
O O19 0.375384 0.223530 0.500000
#
# Coordination Sequence:
#
# PCOD8303966 Si02
#       8
#    16  16  16  16  16   8  16  16
#     4   9  18  32  52  74  98 137 182 218 261 322
#     4  10  22  40  61  87 122 157 192 246 304 349
#     4   9  19  34  49  72 106 137 174 222 269 319
#     4  10  21  35  56  85 111 142 186 232 278 337
#     4   8  16  33  55  77 105 146 189 224 274 342
#     4  11  24  40  62  90 120 158 202 246 293 358
#     4   9  18  35  58  82 111 147 187 232 278 336
#     4   9  19  35  54  77 109 147 180 224 285 339
#
# _framework density 20.678149000000001
#
# number of rings (size 3 to 8) (size 9 to 14) (size 15 to 20)
#    0.000    2.733    0.000    2.400    2.800    3.467 
#    1.200    4.000    1.467    0.000    0.000    0.000 
#    0.000    0.000    0.000    0.000    0.000    0.000 
#
# Total GULP energy -743411.967567 kJ/mol
# GULP energy per Si atom -12390.199459 kJ/mol
# Density = 2.063108 g / cm^3
# Si number density = 20.678149 Si / 1000 Ang^3
#
#
#
# Elastic Constant Matrix: (Units=GPa)
#
#
# Indices 1 2 3 4 5 6 
#
# 1 132.6748 43.8411 1.5073 0.0000 0.0000 -0.6211
# 2 43.8411 132.6748 1.5073 0.0000 0.0000 0.6211
# 3 1.5073 1.5073 35.2006 0.0000 0.0000 0.0000
# 4 0.0000 0.0000 0.0000 15.5018 0.0000 0.0000
# 5 0.0000 0.0000 0.0000 0.0000 15.5018 0.0000
# 6 -0.6211 0.6211 0.0000 0.0000 0.0000 33.7894
#
#
#
# Elastic Compliance Matrix: (Units=1/GPa)
#
#
# Indices 1 2 3 4 5 6 
#
# 1 0.008465 -0.002795 -0.000243 0.000000 0.000000 0.000207
# 2 -0.002795 0.008465 -0.000243 0.000000 0.000000 -0.000207
# 3 -0.000243 -0.000243 0.028429 0.000000 0.000000 0.000000
# 4 0.000000 0.000000 0.000000 0.064509 0.000000 0.000000
# 5 0.000000 0.000000 0.000000 0.000000 0.064509 0.000000
# 6 0.000207 -0.000207 0.000000 0.000000 0.000000 0.029603
#
#
# Mechanical properties :
#
#
# Convention : Reuss Voigt Hill
#
# Bulk Modulus (GPa) = 25.77517 43.80686 34.79102
# Shear Modulus (GPa) = 22.37411 29.87156 26.12283
#
# Velocity S-wave (km/s) = 3.29297 3.80491 3.55816
# Velocity P-wave (km/s) = 5.19136 6.36665 5.80880
#
# Compressibility (1/GPa) = 0.03879702
#
# Stress axis : x y z
#
# Youngs Moduli (GPa) = 118.13875 118.13875 35.17489
#
# Poissons Ratio (x) = 0.33023 0.00854
# Poissons Ratio (y) = 0.33023 0.00854
# Poissons Ratio (z) = 0.02868 0.02868
#
# Static dielectric constant tensor:
#      x y z
#    x 3.904280 0.000000 0.000000 
#    y 0.000000 3.904280 0.000000 
#    z 0.000000 0.000000 3.375090 
# 
# 
# High freq. dielectric constant tensor:
#      x y z
#    x 1.812850 0.000000 0.000000 
#    y 0.000000 1.812850 0.000000 
#    z 0.000000 0.000000 1.775880 
# 
# From -- ./inp_files/1722.got.cif
#   From: 2010.03.12/outbox.cif.g09.slc.cpg/sg87_1_cif.got.tgz:1722.got - 2010.04.08 20:16:13.
