data_PCOD8303434
_publ_section_title
;
Structure prediction by ZEFSAII (Michael W. Deem and Ramdas Pophale) SiO2 
 PCOD8303434
Probable space group: P 4/N
;
_chemical_formula_sum "Si O2"
_cell_formula_units_Z 64
_cell_length_a 11.629051
_cell_length_b 11.629051
_cell_length_c 23.085799
_cell_angle_alpha 90.000000
_cell_angle_beta 90.000000
_cell_angle_gamma 90.000000
_cell_volume 3122.004038
_symmetry_space_group_name_H-M "P 4/N"
_symmetry_group_IT_number 85
_symmetry_cell_setting 'tetragonal'
loop_
_space_group_symop_operation_xyz
x,y,z
1/2-y,x,z
1/2-x,1/2-y,z
y,1/2-x,z
-x,-y,-z
1/2+y,-x,-z
1/2+x,1/2+y,-z
-y,1/2+x,-z
loop_
_atom_site_type_symbol
_atom_site_label
_atom_site_fract_x
_atom_site_fract_y
_atom_site_fract_z
Si Si1 0.919656 0.667017 0.565308
Si Si2 0.000615 0.000179 0.348094
Si Si3 0.339267 0.583712 0.064207
Si Si4 0.585240 0.158528 0.935887
Si Si5 0.345038 0.083890 0.747684
Si Si6 0.915845 0.845652 0.748316
Si Si7 0.666950 0.580350 0.434019
Si Si8 0.000772 0.498859 0.844302
O O1 0.901330 0.800931 0.576920
O O2 0.961806 0.646626 0.499664
O O3 0.011653 0.612704 0.609970
O O4 0.988786 0.887075 0.307895
O O5 0.887556 0.011639 0.389408
O O6 0.013573 0.113541 0.308195
O O7 0.397934 0.707084 0.071415
O O8 0.203816 0.590349 0.072128
O O9 0.389554 0.503634 0.114380
O O10 0.367582 0.534395 0.999997
O O11 0.502313 0.113387 0.885435
O O12 0.406539 0.208359 0.746350
O O13 0.385431 0.015683 0.804981
O O14 0.791119 0.906675 0.747842
O O15 0.986292 0.887517 0.804624
O O16 0.800859 0.598680 0.422335
#
# Coordination Sequence:
#
# PCOD8303434 Si02
#       8
#     8   8   8   8   8   8   8   8
#     4   9  18  33  54  80 107 133 163 201 245 295
#     4  11  19  30  54  76  95 129 170 204 238 293
#     4   9  18  32  50  75 107 137 163 197 246 304
#     4   9  18  32  50  75 107 137 163 197 246 304
#     4  10  22  37  51  71  99 130 167 213 259 297
#     4  10  22  37  51  71  99 130 167 213 259 297
#     4   9  18  33  54  80 107 133 163 201 245 295
#     4  11  19  32  56  78  95 127 174 216 248 291
#
# _framework density 20.499651
#
# number of rings (size 3 to 8) (size 9 to 14) (size 15 to 20)
#    0.000    2.250    0.000    5.250    0.000    2.000 
#    0.000    0.000    0.000   33.000    0.000   24.500 
#    0.000    0.000    0.000    0.000    0.000    0.000 
#
# Total GULP energy -793352.602631 kJ/mol
# GULP energy per Si atom -12396.134416 kJ/mol
# Density = 2.045299 g / cm^3
# Si number density = 20.499651 Si / 1000 Ang^3
#
#
#
# Elastic Constant Matrix: (Units=GPa)
#
#
# Indices 1 2 3 4 5 6 
#
# 1 43.5994 12.7752 31.6717 0.0000 0.0000 -1.5646
# 2 12.7752 43.5994 31.6717 0.0000 0.0000 1.5646
# 3 31.6717 31.6717 149.0042 0.0000 0.0000 0.0000
# 4 0.0000 0.0000 0.0000 27.3416 0.0000 0.0000
# 5 0.0000 0.0000 0.0000 0.0000 27.3416 0.0000
# 6 -1.5646 1.5646 0.0000 0.0000 0.0000 31.5822
#
#
#
# Elastic Compliance Matrix: (Units=1/GPa)
#
#
# Indices 1 2 3 4 5 6 
#
# 1 0.027955 -0.004651 -0.004953 0.000000 0.000000 0.001615
# 2 -0.004651 0.027955 -0.004953 0.000000 0.000000 -0.001615
# 3 -0.004953 -0.004953 0.008817 0.000000 0.000000 0.000000
# 4 0.000000 0.000000 0.000000 0.036574 0.000000 0.000000
# 5 0.000000 0.000000 0.000000 0.000000 0.036574 0.000000
# 6 0.001615 -0.001615 0.000000 0.000000 0.000000 0.031823
#
#
# Mechanical properties :
#
#
# Convention : Reuss Voigt Hill
#
# Bulk Modulus (GPa) = 28.08065 43.16002 35.62033
# Shear Modulus (GPa) = 23.73205 27.92538 25.82872
#
# Velocity S-wave (km/s) = 3.40616 3.69485 3.55344
# Velocity P-wave (km/s) = 5.40343 6.26916 5.85233
#
# Compressibility (1/GPa) = 0.03561171
#
# Stress axis : x y z
#
# Youngs Moduli (GPa) = 35.77155 35.77155 113.41733
#
# Poissons Ratio (x) = 0.16637 0.56181
# Poissons Ratio (y) = 0.16637 0.56181
# Poissons Ratio (z) = 0.17719 0.17719
#
# Static dielectric constant tensor:
#      x y z
#    x 3.466500 0.000000 0.000000 
#    y 0.000000 3.466500 0.000000 
#    z 0.000000 0.000000 4.060770 
# 
# 
# High freq. dielectric constant tensor:
#      x y z
#    x 1.773620 0.000000 0.000000 
#    y 0.000000 1.773620 0.000000 
#    z 0.000000 0.000000 1.831660 
# 
# From -- ./inp_files/2348.got.cif
#   From: 2010.03.12/outbox.cif.g09.slc.cpg/sg85_cif.got.tgz:2348.got - 2010.04.08 20:10:46.
