data_PCOD8303771
_publ_section_title
;
Structure prediction by ZEFSAII (Michael W. Deem and Ramdas Pophale) SiO2 
 PCOD8303771
Probable space group: I 4/M
;
_chemical_formula_sum "Si O2"
_cell_formula_units_Z 96
_cell_length_a 25.228404
_cell_length_b 25.228404
_cell_length_c 8.825660
_cell_angle_alpha 90.000000
_cell_angle_beta 90.000000
_cell_angle_gamma 90.000000
_cell_volume 5617.288723
_symmetry_space_group_name_H-M "I 4/M"
_symmetry_group_IT_number 87
_symmetry_cell_setting 'tetragonal'
loop_
_space_group_symop_operation_xyz
x,y,z
-y,x,z
-x,-y,z
y,-x,z
-x,-y,-z
y,-x,-z
x,y,-z
-y,x,-z
1/2+x,1/2+y,1/2+z
1/2-y,1/2+x,1/2+z
1/2-x,1/2-y,1/2+z
1/2+y,1/2-x,1/2+z
1/2-x,1/2-y,1/2-z
1/2+y,1/2-x,1/2-z
1/2+x,1/2+y,1/2-z
1/2-y,1/2+x,1/2-z
loop_
_atom_site_type_symbol
_atom_site_label
_atom_site_fract_x
_atom_site_fract_y
_atom_site_fract_z
Si Si1 0.243582 0.937019 0.832634
Si Si2 0.135413 0.060243 0.179480
Si Si3 0.252175 0.062384 0.166262
Si Si4 0.053752 0.139041 0.677668
Si Si5 0.444713 0.857416 0.822146
Si Si6 0.359048 0.941664 0.179575
O O1 0.196446 0.920822 0.718900
O O2 0.301295 0.917967 0.772103
O O3 0.247748 0.999713 0.844692
O O4 0.231202 0.913335 0.000000
O O5 0.194293 0.082631 0.220123
O O6 0.094573 0.093838 0.276598
O O7 0.129088 0.999430 0.228172
O O8 0.124385 0.064593 0.000000
O O9 0.299288 0.078218 0.279717
O O10 0.265709 0.085543 0.000000
O O11 0.041697 0.136573 0.500000
O O12 0.403431 0.901142 0.761853
O O13 0.501158 0.870414 0.750042
O O14 0.450938 0.860251 0.000000
O O15 0.360175 0.948825 0.000000
#
# Coordination Sequence:
#
# PCOD8303771 Si02
#       6
#    16  16  16  16  16  16
#     4   8  15  31  50  65  89 127 163 191 229 286
#     4  10  20  35  52  70  96 132 163 185 228 292
#     4   8  16  31  50  69  91 122 160 197 231 277
#     4  11  21  32  49  76 102 121 153 202 241 269
#     4  10  19  30  48  72  96 125 160 199 240 279
#     4   9  19  33  47  68  98 129 160 194 236 287
#
# _framework density 17.090095000000002
#
# number of rings (size 3 to 8) (size 9 to 14) (size 15 to 20)
#    0.000    2.667    0.000    4.500    0.000    8.667 
#    0.000    3.333    0.000    1.000    0.000    0.000 
#    0.000    0.000    0.000    0.000    0.000    0.000 
#
# Total GULP energy -594908.582688 kJ/mol
# GULP energy per Si atom -12393.928806 kJ/mol
# Density = 1.705120 g / cm^3
# Si number density = 17.090095 Si / 1000 Ang^3
#
#
#
# Elastic Constant Matrix: (Units=GPa)
#
#
# Indices 1 2 3 4 5 6 
#
# 1 82.6111 44.8987 22.2971 0.0000 0.0000 -1.1843
# 2 44.8987 82.6111 22.2971 0.0000 0.0000 1.1843
# 3 22.2971 22.2971 50.2527 0.0000 0.0000 0.0000
# 4 0.0000 0.0000 0.0000 21.6824 0.0000 0.0000
# 5 0.0000 0.0000 0.0000 0.0000 21.6824 0.0000
# 6 -1.1843 1.1843 0.0000 0.0000 0.0000 0.3787
#
#
#
# Elastic Compliance Matrix: (Units=1/GPa)
#
#
# Indices 1 2 3 4 5 6 
#
# 1 0.021140 -0.011857 -0.004119 0.000000 0.000000 0.103191
# 2 -0.011857 0.021140 -0.004119 0.000000 0.000000 -0.103191
# 3 -0.004119 -0.004119 0.023555 0.000000 0.000000 0.000000
# 4 0.000000 0.000000 0.000000 0.046120 0.000000 0.000000
# 5 0.000000 0.000000 0.000000 0.000000 0.046120 0.000000
# 6 0.103191 -0.103191 0.000000 0.000000 0.000000 3.285970
#
#
# Mechanical properties :
#
#
# Convention : Reuss Voigt Hill
#
# Bulk Modulus (GPa) = 38.99383 43.82896 41.41139
# Shear Modulus (GPa) = 1.43152 17.14750 9.28951
#
# Velocity S-wave (km/s) = 0.91622 3.17102 2.33397
# Velocity P-wave (km/s) = 4.89749 6.25369 5.61668
#
# Compressibility (1/GPa) = 0.02564508
#
# Stress axis : x y z
#
# Youngs Moduli (GPa) = 47.30299 47.30299 42.45469
#
# Poissons Ratio (x) = 0.56088 0.17487
# Poissons Ratio (y) = 0.56088 0.17487
# Poissons Ratio (z) = 0.19484 0.19484
#
# Static dielectric constant tensor:
#      x y z
#    x 3.377860 0.000000 0.000000 
#    y 0.000000 3.377860 0.000000 
#    z 0.000000 0.000000 3.182590 
# 
# 
# High freq. dielectric constant tensor:
#      x y z
#    x 1.644670 0.000000 0.000000 
#    y 0.000000 1.644670 0.000000 
#    z 0.000000 0.000000 1.661210 
# 
# From -- ./inp_files/1324.got.cif
#   From: 2010.03.12/outbox.cif.g09.slc.cpg/sg87_1_cif.got.tgz:1324.got - 2010.04.08 20:16:13.
