data_PCOD8303204
_publ_section_title
;
Structure prediction by ZEFSAII (Michael W. Deem and Ramdas Pophale) SiO2 
 PCOD8303204
Probable space group: P 42/M
;
_chemical_formula_sum "Si O2"
_cell_formula_units_Z 40
_cell_length_a 15.730846
_cell_length_b 15.730846
_cell_length_c 8.926353
_cell_angle_alpha 90.000000
_cell_angle_beta 90.000000
_cell_angle_gamma 90.000000
_cell_volume 2208.910992
_symmetry_space_group_name_H-M "P 42/M"
_symmetry_group_IT_number 84
_symmetry_cell_setting 'tetragonal'
loop_
_space_group_symop_operation_xyz
x,y,z
-y,x,1/2+z
-x,-y,z
y,-x,1/2+z
-x,-y,-z
y,-x,1/2-z
x,y,-z
-y,x,1/2-z
loop_
_atom_site_type_symbol
_atom_site_label
_atom_site_fract_x
_atom_site_fract_y
_atom_site_fract_z
Si Si1 0.611944 0.556592 0.677952
Si Si2 0.246660 0.021206 0.825677
Si Si3 0.588196 0.040240 0.323372
Si Si4 0.209789 0.362817 0.327108
Si Si5 0.840527 0.824482 0.671440
O O1 0.611806 0.461760 0.744435
O O2 0.597380 0.554019 0.500000
O O3 0.700225 0.599831 0.722708
O O4 0.195055 0.104134 0.780173
O O5 0.336091 0.017308 0.740909
O O6 0.189835 0.939019 0.787202
O O7 0.267877 0.023712 0.000000
O O8 0.595989 0.039350 0.500000
O O9 0.591849 0.137088 0.268401
O O10 0.500000 0.000000 0.268177
O O11 0.189632 0.381781 0.500000
O O12 0.211511 0.261901 0.298434
O O13 0.830128 0.854275 0.500000
#
# Coordination Sequence:
#
# PCOD8303204 Si02
#       5
#     8   8   8   8   8
#     4  10  20  35  54  77 106 138 175 217 261 309
#     4  10  21  36  55  79 106 138 175 215 259 307
#     4  10  21  36  55  79 106 137 173 214 260 309
#     4   9  20  37  55  77 106 139 174 215 260 308
#     4   9  19  36  54  75 106 138 171 214 260 306
#
# _framework density 18.108468999999999
#
# number of rings (size 3 to 8) (size 9 to 14) (size 15 to 20)
#    0.000    2.400    0.000    3.600    0.000    9.200 
#    0.000    8.000    0.000    0.000    0.000    0.000 
#    0.000    0.000    0.000    0.000    0.000    0.000 
#
# Total GULP energy -496111.833543 kJ/mol
# GULP energy per Si atom -12402.795839 kJ/mol
# Density = 1.806725 g / cm^3
# Si number density = 18.108469 Si / 1000 Ang^3
#
#
#
# Elastic Constant Matrix: (Units=GPa)
#
#
# Indices 1 2 3 4 5 6 
#
# 1 122.3901 78.3921 45.9743 0.0000 0.0000 13.8181
# 2 78.3921 122.3901 45.9743 0.0000 0.0000 -13.8181
# 3 45.9743 45.9743 63.9975 0.0000 0.0000 0.0000
# 4 0.0000 0.0000 0.0000 29.0769 0.0000 0.0000
# 5 0.0000 0.0000 0.0000 0.0000 29.0769 0.0000
# 6 13.8181 -13.8181 0.0000 0.0000 0.0000 30.0082
#
#
#
# Elastic Compliance Matrix: (Units=1/GPa)
#
#
# Indices 1 2 3 4 5 6 
#
# 1 0.019700 -0.012277 -0.005332 0.000000 0.000000 -0.014725
# 2 -0.012277 0.019700 -0.005332 0.000000 0.000000 0.014725
# 3 -0.005332 -0.005332 0.023286 0.000000 0.000000 0.000000
# 4 0.000000 0.000000 0.000000 0.034392 0.000000 0.000000
# 5 0.000000 0.000000 0.000000 0.000000 0.034392 0.000000
# 6 -0.014725 0.014725 0.000000 0.000000 0.000000 0.046885
#
#
# Mechanical properties :
#
#
# Convention : Reuss Voigt Hill
#
# Bulk Modulus (GPa) = 59.51332 72.16215 65.83773
# Shear Modulus (GPa) = 21.75442 26.86152 24.30797
#
# Velocity S-wave (km/s) = 3.46979 3.85563 3.66779
# Velocity P-wave (km/s) = 6.99921 7.73031 7.37382
#
# Compressibility (1/GPa) = 0.01680296
#
# Stress axis : x y z
#
# Youngs Moduli (GPa) = 50.76196 50.76196 42.94346
#
# Poissons Ratio (x) = 0.62323 0.22898
# Poissons Ratio (y) = 0.62323 0.22898
# Poissons Ratio (z) = 0.27066 0.27066
#
# Static dielectric constant tensor:
#      x y z
#    x 3.398940 0.000000 0.000000 
#    y 0.000000 3.398940 0.000000 
#    z 0.000000 0.000000 3.343980 
# 
# 
# High freq. dielectric constant tensor:
#      x y z
#    x 1.703690 0.000000 0.000000 
#    y 0.000000 1.703690 0.000000 
#    z 0.000000 0.000000 1.709720 
# 
# From -- ./inp_files/742.got.cif
#   From: 2010.03.12/outbox.cif.g09.slc.cpg/sg84_1_cif.got.tgz:742.got - 2010.04.08 20:07:29.
