data_PCOD8303344
_publ_section_title
;
Structure prediction by ZEFSAII (Michael W. Deem and Ramdas Pophale) SiO2 
 PCOD8303344
Probable space group: P 42/M
;
_chemical_formula_sum "Si O2"
_cell_formula_units_Z 34
_cell_length_a 11.118111
_cell_length_b 11.118111
_cell_length_c 15.223900
_cell_angle_alpha 90.000000
_cell_angle_beta 90.000000
_cell_angle_gamma 90.000000
_cell_volume 1881.862698
_symmetry_space_group_name_H-M "P 42/M"
_symmetry_group_IT_number 84
_symmetry_cell_setting 'tetragonal'
loop_
_space_group_symop_operation_xyz
x,y,z
-y,x,1/2+z
-x,-y,z
y,-x,1/2+z
-x,-y,-z
y,-x,1/2-z
x,y,-z
-y,x,1/2-z
loop_
_atom_site_type_symbol
_atom_site_label
_atom_site_fract_x
_atom_site_fract_y
_atom_site_fract_z
Si Si1 0.415249 0.318787 0.000000
Si Si2 0.500000 0.500000 0.250000
Si Si3 0.896439 0.657280 0.601360
Si Si4 0.712733 0.346434 0.179623
Si Si5 0.329200 0.584604 0.000000
Si Si6 0.851584 0.386625 0.352895
O O1 0.386536 0.456212 0.000000
O O2 0.563188 0.312494 0.000000
O O3 0.350585 0.260305 0.914788
O O4 0.577846 0.402847 0.194416
O O5 0.877739 0.698774 0.500000
O O6 0.798060 0.711838 0.668850
O O7 0.889085 0.515192 0.610881
O O8 0.030567 0.697726 0.633743
O O9 0.809207 0.383744 0.252176
O O10 0.754274 0.399223 0.085672
#
# Coordination Sequence:
#
# PCOD8303344 Si02
#       6
#     4   2   8   8   4   8
#     4  11  18  30  49  77 117 147 179 216 259 336
#     4  12  20  30  48  88 120 146 172 210 280 336
#     4  11  20  36  54  77 108 149 190 220 264 323
#     4  12  20  32  52  80 114 146 176 221 272 326
#     4  11  20  27  46  81 115 149 172 210 279 334
#     4  11  20  32  52  77 108 145 187 225 260 315
#
# _framework density 18.067205000000001
#
# number of rings (size 3 to 8) (size 9 to 14) (size 15 to 20)
#    0.000    0.706    8.235    3.529    0.000    0.000 
#    0.000    0.000    0.000    4.941    0.000    1.647 
#    0.000    0.000    0.000    0.000    0.000    0.000 
#
# Total GULP energy -421236.528010 kJ/mol
# GULP energy per Si atom -12389.309647 kJ/mol
# Density = 1.802608 g / cm^3
# Si number density = 18.067205 Si / 1000 Ang^3
#
#
#
# Elastic Constant Matrix: (Units=GPa)
#
#
# Indices 1 2 3 4 5 6 
#
# 1 74.2177 11.6412 36.5125 0.0000 0.0000 -2.9157
# 2 11.6412 74.2177 36.5125 0.0000 0.0000 2.9157
# 3 36.5125 36.5125 152.9605 0.0000 0.0000 0.0000
# 4 0.0000 0.0000 0.0000 11.5326 0.0000 0.0000
# 5 0.0000 0.0000 0.0000 0.0000 11.5326 0.0000
# 6 -2.9157 2.9157 0.0000 0.0000 0.0000 6.3832
#
#
#
# Elastic Compliance Matrix: (Units=1/GPa)
#
#
# Indices 1 2 3 4 5 6 
#
# 1 0.015652 -0.001038 -0.003488 0.000000 0.000000 0.007624
# 2 -0.001038 0.015652 -0.003488 0.000000 0.000000 -0.007624
# 3 -0.003488 -0.003488 0.008203 0.000000 0.000000 0.000000
# 4 0.000000 0.000000 0.000000 0.086711 0.000000 0.000000
# 5 0.000000 0.000000 0.000000 0.000000 0.086711 0.000000
# 6 0.007624 -0.007624 0.000000 0.000000 0.000000 0.163626
#
#
# Mechanical properties :
#
#
# Convention : Reuss Voigt Hill
#
# Bulk Modulus (GPa) = 42.59431 52.30314 47.44873
# Shear Modulus (GPa) = 12.48712 20.33832 16.41272
#
# Velocity S-wave (km/s) = 2.63182 3.35879 3.01728
# Velocity P-wave (km/s) = 5.73254 6.63732 6.20145
#
# Compressibility (1/GPa) = 0.02347731
#
# Stress axis : x y z
#
# Youngs Moduli (GPa) = 63.88768 63.88768 121.90572
#
# Poissons Ratio (x) = 0.06634 0.42526
# Poissons Ratio (y) = 0.06634 0.42526
# Poissons Ratio (z) = 0.22287 0.22287
#
# Static dielectric constant tensor:
#      x y z
#    x 3.329950 0.000000 0.000000 
#    y 0.000000 3.329950 0.000000 
#    z 0.000000 0.000000 3.493270 
# 
# 
# High freq. dielectric constant tensor:
#      x y z
#    x 1.662040 0.000000 0.000000 
#    y 0.000000 1.662040 0.000000 
#    z 0.000000 0.000000 1.717100 
# 
# From -- ./inp_files/2836.got.cif
#   From: 2010.03.12/outbox.cif.g09.slc.cpg/sg84_2_cif.got.tgz:2836.got - 2010.04.08 20:07:29.
