data_PCOD8303944
_publ_section_title
;
Structure prediction by ZEFSAII (Michael W. Deem and Ramdas Pophale) SiO2 
 PCOD8303944
Probable space group: I 4/M
;
_chemical_formula_sum "Si O2"
_cell_formula_units_Z 112
_cell_length_a 15.340871
_cell_length_b 15.340871
_cell_length_c 23.265711
_cell_angle_alpha 90.000000
_cell_angle_beta 90.000000
_cell_angle_gamma 90.000000
_cell_volume 5475.406474
_symmetry_space_group_name_H-M "I 4/M"
_symmetry_group_IT_number 87
_symmetry_cell_setting 'tetragonal'
loop_
_space_group_symop_operation_xyz
x,y,z
-y,x,z
-x,-y,z
y,-x,z
-x,-y,-z
y,-x,-z
x,y,-z
-y,x,-z
1/2+x,1/2+y,1/2+z
1/2-y,1/2+x,1/2+z
1/2-x,1/2-y,1/2+z
1/2+y,1/2-x,1/2+z
1/2-x,1/2-y,1/2-z
1/2+y,1/2-x,1/2-z
1/2+x,1/2+y,1/2-z
1/2-y,1/2+x,1/2-z
loop_
_atom_site_type_symbol
_atom_site_label
_atom_site_fract_x
_atom_site_fract_y
_atom_site_fract_z
Si Si1 0.678859 0.090493 0.935857
Si Si2 0.194505 0.490494 0.935083
Si Si3 0.292850 0.277869 0.654855
Si Si4 0.031895 0.861503 0.360615
Si Si5 0.359249 0.710854 0.770008
Si Si6 0.158614 0.405251 0.395056
Si Si7 0.385449 0.065693 0.770760
O O1 0.578662 0.117431 0.925693
O O2 0.737327 0.132246 0.885321
O O3 0.683050 0.985332 0.936475
O O4 0.709451 0.121137 0.000000
O O5 0.276485 0.456049 0.898872
O O6 0.159264 0.585578 0.919624
O O7 0.228038 0.492894 0.000000
O O8 0.336560 0.322273 0.712378
O O9 0.218059 0.210280 0.677401
O O10 0.245344 0.349570 0.615866
O O11 0.052633 0.835227 0.293830
O O12 0.935791 0.896708 0.373145
O O13 0.373491 0.810694 0.753211
O O14 0.124332 0.452122 0.337819
O O15 0.475084 0.117172 0.762586
#
# Coordination Sequence:
#
# PCOD8303944 Si02
#       7
#    16  16  16  16  16  16  16
#     4  11  24  41  62  91 127 166 214 272 326 382
#     4  11  24  40  63  89 125 171 216 266 322 384
#     4  10  22  39  64  92 122 167 209 265 321 387
#     4  11  24  41  63  91 129 174 215 263 318 384
#     4  10  20  39  60  87 127 165 210 259 313 381
#     4  11  23  39  62  91 125 166 214 266 326 384
#     4  10  21  31  55  91 125 165 201 258 316 379
#
# _framework density 20.455102
#
# number of rings (size 3 to 8) (size 9 to 14) (size 15 to 20)
#    0.000    1.429    1.429    3.429    4.000    7.429 
#    0.000    0.714    0.000    0.429    0.000    1.000 
#    0.000    0.000    0.000    0.000    0.000    0.000 
#
# Total GULP energy -694183.512634 kJ/mol
# GULP energy per Si atom -12396.134154 kJ/mol
# Density = 2.040854 g / cm^3
# Si number density = 20.455102 Si / 1000 Ang^3
#
#
#
# Elastic Constant Matrix: (Units=GPa)
#
#
# Indices 1 2 3 4 5 6 
#
# 1 79.2262 34.0058 43.0870 0.0000 0.0000 1.3679
# 2 34.0058 79.2262 43.0870 0.0000 0.0000 -1.3679
# 3 43.0870 43.0870 105.1537 0.0000 0.0000 0.0000
# 4 0.0000 0.0000 0.0000 24.2899 0.0000 0.0000
# 5 0.0000 0.0000 0.0000 0.0000 24.2899 0.0000
# 6 1.3679 -1.3679 0.0000 0.0000 0.0000 34.0847
#
#
#
# Elastic Compliance Matrix: (Units=1/GPa)
#
#
# Indices 1 2 3 4 5 6 
#
# 1 0.017501 -0.004667 -0.005259 0.000000 0.000000 -0.000890
# 2 -0.004667 0.017501 -0.005259 0.000000 0.000000 0.000890
# 3 -0.005259 -0.005259 0.013819 0.000000 0.000000 0.000000
# 4 0.000000 0.000000 0.000000 0.041169 0.000000 0.000000
# 5 0.000000 0.000000 0.000000 0.000000 0.041169 0.000000
# 6 -0.000890 0.000890 0.000000 0.000000 0.000000 0.029410
#
#
# Mechanical properties :
#
#
# Convention : Reuss Voigt Hill
#
# Bulk Modulus (GPa) = 54.19480 55.99621 55.09551
# Shear Modulus (GPa) = 25.36935 26.09466 25.73201
#
# Velocity S-wave (km/s) = 3.52553 3.57557 3.55064
# Velocity P-wave (km/s) = 6.56693 6.66940 6.61836
#
# Compressibility (1/GPa) = 0.01845195
#
# Stress axis : x y z
#
# Youngs Moduli (GPa) = 57.14104 57.14104 72.36272
#
# Poissons Ratio (x) = 0.26669 0.38052
# Poissons Ratio (y) = 0.26669 0.38052
# Poissons Ratio (z) = 0.30048 0.30048
#
# Static dielectric constant tensor:
#      x y z
#    x 3.619680 0.000000 0.000000 
#    y 0.000000 3.619680 0.000000 
#    z 0.000000 0.000000 3.939060 
# 
# 
# High freq. dielectric constant tensor:
#      x y z
#    x 1.792340 0.000000 0.000000 
#    y 0.000000 1.792340 0.000000 
#    z 0.000000 0.000000 1.805790 
# 
# From -- ./inp_files/5898.got.cif
#   From: 2010.03.12/outbox.cif.g09.slc.cpg/sg87_3_cif.got.tgz:5898.got - 2010.04.08 20:16:13.
