data_PCOD8303516
_publ_section_title
;
Structure prediction by ZEFSAII (Michael W. Deem and Ramdas Pophale) SiO2 
 PCOD8303516
Probable space group: P 42/N
;
_chemical_formula_sum "Si O2"
_cell_formula_units_Z 56
_cell_length_a 10.985637
_cell_length_b 10.985637
_cell_length_c 23.985087
_cell_angle_alpha 90.000000
_cell_angle_beta 90.000000
_cell_angle_gamma 90.000000
_cell_volume 2894.621523
_symmetry_space_group_name_H-M "P 42/N"
_symmetry_group_IT_number 86
_space_group.IT_coordinate_system_code '2'
_symmetry_cell_setting 'tetragonal'
loop_
_space_group_symop_operation_xyz
x,y,z
-y,1/2+x,1/2+z
1/2-x,1/2-y,z
1/2+y,-x,1/2+z
-x,-y,-z
y,1/2-x,1/2-z
1/2+x,1/2+y,-z
1/2-y,x,1/2-z
loop_
_atom_site_type_symbol
_atom_site_label
_atom_site_fract_x
_atom_site_fract_y
_atom_site_fract_z
Si Si1 0.153400 0.556962 0.963356
Si Si2 0.284125 0.620730 0.854063
Si Si3 0.265898 0.049940 0.755874
Si Si4 0.387022 0.703659 0.150474
Si Si5 0.165237 0.008697 0.549509
Si Si6 0.020243 0.026143 0.095903
Si Si7 0.617154 0.863757 0.494002
O O1 0.217740 0.625068 0.913258
O O2 0.042576 0.475454 0.939879
O O3 0.239361 0.457634 0.992907
O O4 0.103958 0.662215 0.005153
O O5 0.250000 0.750000 0.825315
O O6 0.234941 0.510185 0.816855
O O7 0.428151 0.600410 0.864148
O O8 0.140143 0.120615 0.746577
O O9 0.278162 0.943687 0.711116
O O10 0.250000 0.750000 0.151289
O O11 0.465591 0.782337 0.107814
O O12 0.394452 0.561073 0.133669
O O13 0.241164 0.127136 0.525795
O O14 0.956144 0.944685 0.049078
O O15 0.098859 0.120156 0.059400
#
# Coordination Sequence:
#
# PCOD8303516 Si02
#       7
#     8   8   8   8   8   8   8
#     4  10  20  33  51  80 114 151 194 235 296 353
#     4  11  21  36  57  82 116 152 196 248 302 363
#     4  11  23  40  60  84 115 151 200 254 310 361
#     4  11  21  36  57  82 116 152 196 248 302 363
#     4  10  20  33  51  80 114 151 194 235 296 353
#     4   9  18  32  50  80 110 144 195 230 293 351
#     4   9  17  30  50  74 109 151 186 236 281 349
#
# _framework density 19.346226000000001
#
# number of rings (size 3 to 8) (size 9 to 14) (size 15 to 20)
#    0.000    1.857    1.429    3.429    0.000    2.857 
#    0.000    0.000    0.000    0.000    0.000    0.000 
#    0.000    0.000    0.000    0.000    0.000    0.000 
#
# Total GULP energy -694034.260150 kJ/mol
# GULP energy per Si atom -12393.468931 kJ/mol
# Density = 1.930219 g / cm^3
# Si number density = 19.346226 Si / 1000 Ang^3
#
#
#
# Elastic Constant Matrix: (Units=GPa)
#
#
# Indices 1 2 3 4 5 6 
#
# 1 70.0967 15.4635 14.9420 0.0000 0.0000 -6.4872
# 2 15.4635 70.0967 14.9420 0.0000 0.0000 6.4872
# 3 14.9420 14.9420 64.0740 0.0000 0.0000 0.0000
# 4 0.0000 0.0000 0.0000 26.7658 0.0000 0.0000
# 5 0.0000 0.0000 0.0000 0.0000 26.7658 0.0000
# 6 -6.4872 6.4872 0.0000 0.0000 0.0000 34.3861
#
#
#
# Elastic Compliance Matrix: (Units=1/GPa)
#
#
# Indices 1 2 3 4 5 6 
#
# 1 0.015943 -0.003219 -0.002967 0.000000 0.000000 0.003615
# 2 -0.003219 0.015943 -0.002967 0.000000 0.000000 -0.003615
# 3 -0.002967 -0.002967 0.016991 0.000000 0.000000 0.000000
# 4 0.000000 0.000000 0.000000 0.037361 0.000000 0.000000
# 5 0.000000 0.000000 0.000000 0.000000 0.037361 0.000000
# 6 0.003615 -0.003615 0.000000 0.000000 0.000000 0.030446
#
#
# Mechanical properties :
#
#
# Convention : Reuss Voigt Hill
#
# Bulk Modulus (GPa) = 32.71178 32.77360 32.74269
# Shear Modulus (GPa) = 27.39088 28.17819 27.78454
#
# Velocity S-wave (km/s) = 3.76683 3.82058 3.79380
# Velocity P-wave (km/s) = 5.98865 6.03654 6.01264
#
# Compressibility (1/GPa) = 0.03057003
#
# Stress axis : x y z
#
# Youngs Moduli (GPa) = 62.72251 62.72251 58.85515
#
# Poissons Ratio (x) = 0.20192 0.17464
# Poissons Ratio (y) = 0.20192 0.17464
# Poissons Ratio (z) = 0.18611 0.18611
#
# Static dielectric constant tensor:
#      x y z
#    x 3.549610 0.000000 0.000000 
#    y 0.000000 3.549610 0.000000 
#    z 0.000000 0.000000 3.451070 
# 
# 
# High freq. dielectric constant tensor:
#      x y z
#    x 1.751010 0.000000 0.000000 
#    y 0.000000 1.751010 0.000000 
#    z 0.000000 0.000000 1.739950 
# 
# From -- ./inp_files/4178.got.cif
#   From: 2010.03.12/outbox.cif.g09.slc.cpg/sg86_3_cif.got.tgz:4178.got - 2010.04.08 20:12:58.
