data_PCOD8303983
_publ_section_title
;
Structure prediction by ZEFSAII (Michael W. Deem and Ramdas Pophale) SiO2 
 PCOD8303983
Probable space group: I 4/M
;
_chemical_formula_sum "Si O2"
_cell_formula_units_Z 56
_cell_length_a 19.649282
_cell_length_b 19.649282
_cell_length_c 7.824845
_cell_angle_alpha 90.000000
_cell_angle_beta 90.000000
_cell_angle_gamma 90.000000
_cell_volume 3021.127921
_symmetry_space_group_name_H-M "I 4/M"
_symmetry_group_IT_number 87
_symmetry_cell_setting 'tetragonal'
loop_
_space_group_symop_operation_xyz
x,y,z
-y,x,z
-x,-y,z
y,-x,z
-x,-y,-z
y,-x,-z
x,y,-z
-y,x,-z
1/2+x,1/2+y,1/2+z
1/2-y,1/2+x,1/2+z
1/2-x,1/2-y,1/2+z
1/2+y,1/2-x,1/2+z
1/2-x,1/2-y,1/2-z
1/2+y,1/2-x,1/2-z
1/2+x,1/2+y,1/2-z
1/2-y,1/2+x,1/2-z
loop_
_atom_site_type_symbol
_atom_site_label
_atom_site_fract_x
_atom_site_fract_y
_atom_site_fract_z
Si Si1 0.479979 0.608924 0.000000
Si Si2 0.737729 0.849706 0.197328
Si Si3 0.758786 0.141002 0.805079
Si Si4 0.991922 0.209031 0.199742
O O1 0.421195 0.554472 0.000000
O O2 0.470253 0.648114 0.177737
O O3 0.806460 0.814238 0.276624
O O4 0.670800 0.817335 0.283963
O O5 0.735783 0.931127 0.224254
O O6 0.734532 0.829423 0.000000
O O7 0.761836 0.064074 0.730160
O O8 0.778006 0.131506 0.000000
O O9 0.993592 0.185640 0.000000
#
# Coordination Sequence:
#
# PCOD8303983 Si02
#       4
#     8  16  16  16
#     4  11  24  36  52  80 110 147 186 218 264 327
#     4   9  18  32  52  77 103 135 176 223 271 319
#     4   9  18  32  52  77 103 135 176 223 271 319
#     4  10  21  37  55  77 109 145 181 223 272 323
#
# _framework density 18.536123
#
# number of rings (size 3 to 8) (size 9 to 14) (size 15 to 20)
#    0.000    2.429    0.000    1.714    4.000    3.429 
#    0.000    1.429    0.000    0.857    0.000    6.000 
#    0.000    0.000    0.000    0.000    0.000    0.000 
#
# Total GULP energy -346910.893944 kJ/mol
# GULP energy per Si atom -12389.674784 kJ/mol
# Density = 1.849393 g / cm^3
# Si number density = 18.536123 Si / 1000 Ang^3
#
#
#
# Elastic Constant Matrix: (Units=GPa)
#
#
# Indices 1 2 3 4 5 6 
#
# 1 88.7165 19.6851 13.8996 0.0000 0.0000 5.4004
# 2 19.6851 88.7165 13.8996 0.0000 0.0000 -5.4004
# 3 13.8996 13.8996 54.6598 0.0000 0.0000 0.0000
# 4 0.0000 0.0000 0.0000 23.0179 0.0000 0.0000
# 5 0.0000 0.0000 0.0000 0.0000 23.0179 0.0000
# 6 5.4004 -5.4004 0.0000 0.0000 0.0000 49.0215
#
#
#
# Elastic Compliance Matrix: (Units=1/GPa)
#
#
# Indices 1 2 3 4 5 6 
#
# 1 0.012304 -0.002436 -0.002509 0.000000 0.000000 -0.001624
# 2 -0.002436 0.012304 -0.002509 0.000000 0.000000 0.001624
# 3 -0.002509 -0.002509 0.019571 0.000000 0.000000 0.000000
# 4 0.000000 0.000000 0.000000 0.043444 0.000000 0.000000
# 5 0.000000 0.000000 0.000000 0.000000 0.043444 0.000000
# 6 -0.001624 0.001624 0.000000 0.000000 0.000000 0.020757
#
#
# Mechanical properties :
#
#
# Convention : Reuss Voigt Hill
#
# Bulk Modulus (GPa) = 34.16433 36.34017 35.25225
# Shear Modulus (GPa) = 28.32985 31.31870 29.82427
#
# Velocity S-wave (km/s) = 3.91366 4.11494 4.01556
# Velocity P-wave (km/s) = 6.23647 6.49804 6.36860
#
# Compressibility (1/GPa) = 0.02927029
#
# Stress axis : x y z
#
# Youngs Moduli (GPa) = 81.27195 81.27195 51.09532
#
# Poissons Ratio (x) = 0.19797 0.12822
# Poissons Ratio (y) = 0.19797 0.12822
# Poissons Ratio (z) = 0.20395 0.20395
#
# Static dielectric constant tensor:
#      x y z
#    x 3.427030 0.000000 0.000000 
#    y 0.000000 3.427030 0.000000 
#    z 0.000000 0.000000 3.432390 
# 
# 
# High freq. dielectric constant tensor:
#      x y z
#    x 1.704770 0.000000 0.000000 
#    y 0.000000 1.704770 0.000000 
#    z 0.000000 0.000000 1.719750 
# 
# From -- ./inp_files/705.got.cif
#   From: 2010.03.12/outbox.cif.g09.slc.cpg/sg87_1_cif.got.tgz:705.got - 2010.04.08 20:16:13.
