data_PCOD8303815
_publ_section_title
;
Structure prediction by ZEFSAII (Michael W. Deem and Ramdas Pophale) SiO2 
 PCOD8303815
Probable space group: I 4/M
;
_chemical_formula_sum "Si O2"
_cell_formula_units_Z 128
_cell_length_a 23.412537
_cell_length_b 23.412537
_cell_length_c 12.460347
_cell_angle_alpha 90.000000
_cell_angle_beta 90.000000
_cell_angle_gamma 90.000000
_cell_volume 6830.100441
_symmetry_space_group_name_H-M "I 4/M"
_symmetry_group_IT_number 87
_symmetry_cell_setting 'tetragonal'
loop_
_space_group_symop_operation_xyz
x,y,z
-y,x,z
-x,-y,z
y,-x,z
-x,-y,-z
y,-x,-z
x,y,-z
-y,x,-z
1/2+x,1/2+y,1/2+z
1/2-y,1/2+x,1/2+z
1/2-x,1/2-y,1/2+z
1/2+y,1/2-x,1/2+z
1/2-x,1/2-y,1/2-z
1/2+y,1/2-x,1/2-z
1/2+x,1/2+y,1/2-z
1/2-y,1/2+x,1/2-z
loop_
_atom_site_type_symbol
_atom_site_label
_atom_site_fract_x
_atom_site_fract_y
_atom_site_fract_z
Si Si1 0.609287 0.380552 0.709949
Si Si2 0.584425 0.701812 0.875362
Si Si3 0.562448 0.979244 0.621891
Si Si4 0.058480 0.366054 0.767549
Si Si5 0.813634 0.349020 0.121935
Si Si6 0.239018 0.119961 0.875284
Si Si7 0.994306 0.860747 0.117152
Si Si8 0.498127 0.248250 0.708081
O O1 0.641700 0.396483 0.820402
O O2 0.639704 0.325245 0.656463
O O3 0.540820 0.368248 0.714486
O O4 0.606058 0.435954 0.634390
O O5 0.636658 0.746779 0.860138
O O6 0.526812 0.729065 0.823532
O O7 0.572092 0.689132 0.000000
O O8 0.573100 0.994688 0.500000
O O9 0.570516 0.911745 0.639688
O O10 0.500000 0.000000 0.659188
O O11 0.610839 0.011456 0.686266
O O12 0.115992 0.353290 0.702877
O O13 0.031810 0.310719 0.823634
O O14 0.826776 0.281963 0.143239
O O15 0.830877 0.365262 0.000000
O O16 0.257931 0.067134 0.797988
O O17 0.239689 0.100538 0.000000
O O18 0.978078 0.793664 0.118815
O O19 0.019513 0.876904 0.000000
#
# Coordination Sequence:
#
# PCOD8303815 Si02
#       8
#    16  16  16  16  16  16  16  16
#     4  10  20  34  55  81 109 139 168 205 259 318
#     4   9  19  37  55  76 105 144 187 223 258 308
#     4  11  22  32  45  67  97 136 181 227 278 317
#     4  11  18  35  49  70 102 139 183 231 269 316
#     4   9  19  33  55  78 103 142 186 224 269 318
#     4  10  19  33  53  83 111 137 175 222 272 324
#     4  10  19  35  55  83 111 133 163 205 261 326
#     4   9  19  31  53  76 103 138 176 216 265 313
#
# _framework density 18.740573999999999
#
# number of rings (size 3 to 8) (size 9 to 14) (size 15 to 20)
#    0.000    2.125    1.250    3.375    0.000    2.250 
#    0.000    6.250    0.000    0.750    0.000    7.875 
#    0.000    0.000    0.000    0.000    0.000    0.000 
#
# Total GULP energy -792894.462920 kJ/mol
# GULP energy per Si atom -12388.975983 kJ/mol
# Density = 1.869792 g / cm^3
# Si number density = 18.740574 Si / 1000 Ang^3
#
#
#
# Elastic Constant Matrix: (Units=GPa)
#
#
# Indices 1 2 3 4 5 6 
#
# 1 90.2246 28.9494 31.7976 0.0000 0.0000 -3.9217
# 2 28.9494 90.2246 31.7976 0.0000 0.0000 3.9217
# 3 31.7976 31.7976 79.8677 0.0000 0.0000 0.0000
# 4 0.0000 0.0000 0.0000 22.3733 0.0000 0.0000
# 5 0.0000 0.0000 0.0000 0.0000 22.3733 0.0000
# 6 -3.9217 3.9217 0.0000 0.0000 0.0000 26.9847
#
#
#
# Elastic Compliance Matrix: (Units=1/GPa)
#
#
# Indices 1 2 3 4 5 6 
#
# 1 0.013642 -0.002987 -0.004242 0.000000 0.000000 0.002417
# 2 -0.002987 0.013642 -0.004242 0.000000 0.000000 -0.002417
# 3 -0.004242 -0.004242 0.015898 0.000000 0.000000 0.000000
# 4 0.000000 0.000000 0.000000 0.044696 0.000000 0.000000
# 5 0.000000 0.000000 0.000000 0.000000 0.044696 0.000000
# 6 0.002417 -0.002417 0.000000 0.000000 0.000000 0.037761
#
#
# Mechanical properties :
#
#
# Convention : Reuss Voigt Hill
#
# Bulk Modulus (GPa) = 49.40698 49.48956 49.44827
# Shear Modulus (GPa) = 24.99701 25.53108 25.26405
#
# Velocity S-wave (km/s) = 3.65615 3.69500 3.67562
# Velocity P-wave (km/s) = 6.65162 6.68349 6.66757
#
# Compressibility (1/GPa) = 0.02024006
#
# Stress axis : x y z
#
# Youngs Moduli (GPa) = 73.30330 73.30330 62.89941
#
# Poissons Ratio (x) = 0.21897 0.26682
# Poissons Ratio (y) = 0.21897 0.26682
# Poissons Ratio (z) = 0.31095 0.31095
#
# Static dielectric constant tensor:
#      x y z
#    x 3.573550 0.000000 0.000000 
#    y 0.000000 3.573550 0.000000 
#    z 0.000000 0.000000 3.319950 
# 
# 
# High freq. dielectric constant tensor:
#      x y z
#    x 1.726660 0.000000 0.000000 
#    y 0.000000 1.726660 0.000000 
#    z 0.000000 0.000000 1.709610 
# 
# From -- ./inp_files/2987.got.cif
#   From: 2010.03.12/outbox.cif.g09.slc.cpg/sg87_2_cif.got.tgz:2987.got - 2010.04.08 20:16:13.
