data_PCOD8303851
_publ_section_title
;
Structure prediction by ZEFSAII (Michael W. Deem and Ramdas Pophale) SiO2 
 PCOD8303851
Probable space group: I 4/M
;
_chemical_formula_sum "Si O2"
_cell_formula_units_Z 120
_cell_length_a 26.755449
_cell_length_b 26.755449
_cell_length_c 8.836453
_cell_angle_alpha 90.000000
_cell_angle_beta 90.000000
_cell_angle_gamma 90.000000
_cell_volume 6325.610678
_symmetry_space_group_name_H-M "I 4/M"
_symmetry_group_IT_number 87
_symmetry_cell_setting 'tetragonal'
loop_
_space_group_symop_operation_xyz
x,y,z
-y,x,z
-x,-y,z
y,-x,z
-x,-y,-z
y,-x,-z
x,y,-z
-y,x,-z
1/2+x,1/2+y,1/2+z
1/2-y,1/2+x,1/2+z
1/2-x,1/2-y,1/2+z
1/2+y,1/2-x,1/2+z
1/2-x,1/2-y,1/2-z
1/2+y,1/2-x,1/2-z
1/2+x,1/2+y,1/2-z
1/2-y,1/2+x,1/2-z
loop_
_atom_site_type_symbol
_atom_site_label
_atom_site_fract_x
_atom_site_fract_y
_atom_site_fract_z
Si Si1 0.418640 0.485373 0.000000
Si Si2 0.693150 0.840296 0.322328
Si Si3 0.325740 0.461183 0.167004
Si Si4 0.150283 0.236588 0.179596
Si Si5 0.862353 0.203666 0.179045
Si Si6 0.016153 0.359880 0.174471
Si Si7 0.096203 0.609225 0.174618
Si Si8 0.962148 0.752842 0.822001
O O1 0.460116 0.442467 0.000000
O O2 0.383619 0.478868 0.850756
O O3 0.703382 0.842765 0.500000
O O4 0.683658 0.783499 0.266940
O O5 0.739624 0.863550 0.234634
O O6 0.644561 0.872143 0.283542
O O7 0.325165 0.411156 0.265437
O O8 0.294732 0.504730 0.244455
O O9 0.302822 0.450141 0.000000
O O10 0.175398 0.186359 0.244728
O O11 0.094071 0.241914 0.242518
O O12 0.148006 0.235680 0.000000
O O13 0.862081 0.203637 0.000000
O O14 0.052565 0.391347 0.281552
O O15 0.016894 0.301620 0.220232
O O16 0.961757 0.381575 0.204636
O O17 0.032690 0.366000 0.000000
O O18 0.110002 0.619433 0.000000
O O19 0.964268 0.762317 0.000000
#
# Coordination Sequence:
#
# PCOD8303851 Si02
#       8
#     8  16  16  16  16  16  16  16
#     4   9  22  44  66  88 126 164 204 257 324 388
#     4  11  21  39  61  86 122 163 201 242 301 366
#     4  10  23  36  61  91 118 155 205 248 311 358
#     4   9  20  36  60  87 118 161 200 241 304 362
#     4  11  22  37  57  88 127 159 201 247 298 365
#     4  10  22  40  60  81 115 157 194 245 303 354
#     4  11  23  38  60  88 114 152 203 251 303 356
#     4  10  19  38  62  86 119 158 197 248 307 367
#
# _framework density 18.970500000000001
#
# number of rings (size 3 to 8) (size 9 to 14) (size 15 to 20)
#    0.400    1.400    1.333    2.800    1.867    2.933 
#    0.000    4.000    0.000    0.000    0.000    3.733 
#    0.000    0.000    0.000    0.000    0.000    0.000 
#
# Total GULP energy -744129.097827 kJ/mol
# GULP energy per Si atom -12402.151630 kJ/mol
# Density = 1.892732 g / cm^3
# Si number density = 18.970500 Si / 1000 Ang^3
#
#
#
# Elastic Constant Matrix: (Units=GPa)
#
#
# Indices 1 2 3 4 5 6 
#
# 1 114.3471 49.7718 31.7926 0.0000 0.0000 1.1055
# 2 49.7718 114.3471 31.7926 0.0000 0.0000 -1.1055
# 3 31.7926 31.7926 57.1295 0.0000 0.0000 0.0000
# 4 0.0000 0.0000 0.0000 25.5778 0.0000 0.0000
# 5 0.0000 0.0000 0.0000 0.0000 25.5778 0.0000
# 6 1.1055 -1.1055 0.0000 0.0000 0.0000 36.0843
#
#
#
# Elastic Compliance Matrix: (Units=1/GPa)
#
#
# Indices 1 2 3 4 5 6 
#
# 1 0.011635 -0.003867 -0.004323 0.000000 0.000000 -0.000475
# 2 -0.003867 0.011635 -0.004323 0.000000 0.000000 0.000475
# 3 -0.004323 -0.004323 0.022315 0.000000 0.000000 0.000000
# 4 0.000000 0.000000 0.000000 0.039096 0.000000 0.000000
# 5 0.000000 0.000000 0.000000 0.000000 0.039096 0.000000
# 6 -0.000475 0.000475 0.000000 0.000000 0.000000 0.027742
#
#
# Mechanical properties :
#
#
# Convention : Reuss Voigt Hill
#
# Bulk Modulus (GPa) = 48.63840 56.94863 52.79352
# Shear Modulus (GPa) = 27.26294 28.94576 28.10435
#
# Velocity S-wave (km/s) = 3.79505 3.91043 3.85317
# Velocity P-wave (km/s) = 6.70059 7.10446 6.90548
#
# Compressibility (1/GPa) = 0.02055989
#
# Stress axis : x y z
#
# Youngs Moduli (GPa) = 85.94748 85.94748 44.81200
#
# Poissons Ratio (x) = 0.33236 0.19372
# Poissons Ratio (y) = 0.33236 0.19372
# Poissons Ratio (z) = 0.37154 0.37154
#
# Static dielectric constant tensor:
#      x y z
#    x 3.544290 0.000000 0.000000 
#    y 0.000000 3.544290 0.000000 
#    z 0.000000 0.000000 3.329600 
# 
# 
# High freq. dielectric constant tensor:
#      x y z
#    x 1.745810 0.000000 0.000000 
#    y 0.000000 1.745810 0.000000 
#    z 0.000000 0.000000 1.723360 
# 
# From -- ./inp_files/1727.got.cif
#   From: 2010.03.12/outbox.cif.g09.slc.cpg/sg87_1_cif.got.tgz:1727.got - 2010.04.08 20:16:13.
