data_PCOD8303755
_publ_section_title
;
Structure prediction by ZEFSAII (Michael W. Deem and Ramdas Pophale) SiO2 
 PCOD8303755
Probable space group: I 4/M
;
_chemical_formula_sum "Si O2"
_cell_formula_units_Z 96
_cell_length_a 18.548212
_cell_length_b 18.548212
_cell_length_c 15.115046
_cell_angle_alpha 90.000000
_cell_angle_beta 90.000000
_cell_angle_gamma 90.000000
_cell_volume 5200.122511
_symmetry_space_group_name_H-M "I 4/M"
_symmetry_group_IT_number 87
_symmetry_cell_setting 'tetragonal'
loop_
_space_group_symop_operation_xyz
x,y,z
-y,x,z
-x,-y,z
y,-x,z
-x,-y,-z
y,-x,-z
x,y,-z
-y,x,-z
1/2+x,1/2+y,1/2+z
1/2-y,1/2+x,1/2+z
1/2-x,1/2-y,1/2+z
1/2+y,1/2-x,1/2+z
1/2-x,1/2-y,1/2-z
1/2+y,1/2-x,1/2-z
1/2+x,1/2+y,1/2-z
1/2-y,1/2+x,1/2-z
loop_
_atom_site_type_symbol
_atom_site_label
_atom_site_fract_x
_atom_site_fract_y
_atom_site_fract_z
Si Si1 0.104361 0.181357 0.332185
Si Si2 0.337080 0.168966 0.101189
Si Si3 0.334349 0.143919 0.599146
Si Si4 0.087627 0.577858 0.247014
Si Si5 0.700771 0.712650 0.322280
Si Si6 0.553558 0.306852 0.897237
O O1 0.141044 0.247624 0.384281
O O2 0.131206 0.179579 0.228922
O O3 0.125904 0.106076 0.378135
O O4 0.017796 0.188520 0.336616
O O5 0.387041 0.116939 0.157972
O O6 0.253077 0.155040 0.128826
O O7 0.348956 0.147413 0.000000
O O8 0.357990 0.123297 0.500000
O O9 0.398852 0.130927 0.666564
O O10 0.319998 0.229192 0.603273
O O11 0.265093 0.097364 0.628630
O O12 0.099837 0.493844 0.236669
O O13 0.750000 0.750000 0.250000
O O14 0.530764 0.306841 0.000000
#
# Coordination Sequence:
#
# PCOD8303755 Si02
#       6
#    16  16  16  16  16  16
#     4  11  21  35  54  81 117 152 192 232 288 344
#     4  11  20  37  62  84 110 150 198 241 287 337
#     4  11  21  37  59  82 109 148 192 236 286 341
#     4  11  24  39  55  81 120 157 190 235 287 343
#     4  10  18  35  57  83 106 139 188 242 282 328
#     4  11  21  33  54  83 114 151 190 234 288 350
#
# _framework density 18.461103999999999
#
# number of rings (size 3 to 8) (size 9 to 14) (size 15 to 20)
#    0.000    1.167    6.667    3.000    0.000    3.000 
#    0.000    2.500    0.000    0.000    0.000    0.000 
#    0.000    0.000    0.000   11.000    0.000    0.000 
#
# Total GULP energy -595100.105999 kJ/mol
# GULP energy per Si atom -12397.918875 kJ/mol
# Density = 1.841909 g / cm^3
# Si number density = 18.461104 Si / 1000 Ang^3
#
#
#
# Elastic Constant Matrix: (Units=GPa)
#
#
# Indices 1 2 3 4 5 6 
#
# 1 -115.6619 228.9581 40.9287 0.0000 0.0000 -64.5443
# 2 228.9581 -115.6619 40.9287 0.0000 0.0000 64.5443
# 3 40.9287 40.9287 120.3326 0.0000 0.0000 0.0000
# 4 0.0000 0.0000 0.0000 14.1731 0.0000 0.0000
# 5 0.0000 0.0000 0.0000 0.0000 14.1731 0.0000
# 6 -64.5443 64.5443 0.0000 0.0000 0.0000 3.6947
#
#
#
# Elastic Compliance Matrix: (Units=1/GPa)
#
#
# Indices 1 2 3 4 5 6 
#
# 1 0.005659 0.006043 -0.003980 0.000000 0.000000 -0.006720
# 2 0.006043 0.005659 -0.003980 0.000000 0.000000 0.006720
# 3 -0.003980 -0.003980 0.011018 0.000000 0.000000 0.000000
# 4 0.000000 0.000000 0.000000 0.070556 0.000000 0.000000
# 5 0.000000 0.000000 0.000000 0.000000 0.070556 0.000000
# 6 -0.006720 0.006720 0.000000 0.000000 0.000000 0.035879
#
#
# Mechanical properties :
#
#
# Convention : Reuss Voigt Hill
#
# Bulk Modulus (GPa) = 54.05039 56.73773 55.39406
# Shear Modulus (GPa) = 23.88598 -21.71228 1.08685
#
# Velocity S-wave (km/s) = 3.60092 -3.43317 0.76812
# Velocity P-wave (km/s) = 6.82864 3.88393 5.55496
#
# Compressibility (1/GPa) = 0.01850125
#
# Stress axis : x y z
#
# Youngs Moduli (GPa) = 176.71676 176.71676 90.76131
#
# Poissons Ratio (x) = -1.06797 0.36125
# Poissons Ratio (y) = -1.06797 0.36125
# Poissons Ratio (z) = 0.70338 0.70338
#
# Static dielectric constant tensor:
#      x y z
#    x 3.499260 0.000000 0.000000 
#    y 0.000000 3.499260 0.000000 
#    z 0.000000 0.000000 3.539080 
# 
# 
# High freq. dielectric constant tensor:
#      x y z
#    x 1.702910 0.000000 0.000000 
#    y 0.000000 1.702910 0.000000 
#    z 0.000000 0.000000 1.712840 
# 
# From -- ./inp_files/4449.got.cif
#   From: 2010.03.12/outbox.cif.g09.slc.cpg/sg87_3_cif.got.tgz:4449.got - 2010.04.08 20:16:13.
