data_PCOD8303666
_publ_section_title
;
Structure prediction by ZEFSAII (Michael W. Deem and Ramdas Pophale) SiO2 
 PCOD8303666
Probable space group: P 42/N
;
_chemical_formula_sum "Si O2"
_cell_formula_units_Z 40
_cell_length_a 11.921920
_cell_length_b 11.921920
_cell_length_c 13.867189
_cell_angle_alpha 90.000000
_cell_angle_beta 90.000000
_cell_angle_gamma 90.000000
_cell_volume 1970.973754
_symmetry_space_group_name_H-M "P 42/N"
_symmetry_group_IT_number 86
_space_group.IT_coordinate_system_code '2'
_symmetry_cell_setting 'tetragonal'
loop_
_space_group_symop_operation_xyz
x,y,z
-y,1/2+x,1/2+z
1/2-x,1/2-y,z
1/2+y,-x,1/2+z
-x,-y,-z
y,1/2-x,1/2-z
1/2+x,1/2+y,-z
1/2-y,x,1/2-z
loop_
_atom_site_type_symbol
_atom_site_label
_atom_site_fract_x
_atom_site_fract_y
_atom_site_fract_z
Si Si1 0.341120 0.409668 0.250097
Si Si2 0.173686 0.900901 0.684134
Si Si3 0.877793 0.277017 0.600881
Si Si4 0.597544 0.165186 0.394000
Si Si5 0.513009 0.460316 0.607335
O O1 0.400002 0.291224 0.235071
O O2 0.372061 0.482550 0.156117
O O3 0.386446 0.469316 0.345539
O O4 0.157295 0.881072 0.798369
O O5 0.303197 0.911638 0.651234
O O6 0.120373 0.796119 0.627536
O O7 0.105693 0.014120 0.659912
O O8 0.750000 0.250000 0.575698
O O9 0.918088 0.351297 0.509301
O O10 0.958652 0.170237 0.612440
O O11 0.500000 0.500000 0.500000
#
# Coordination Sequence:
#
# PCOD8303666 Si02
#       5
#     8   8   8   8   8
#     4  11  22  38  60  92 131 166 213 278 326 383
#     4  11  21  36  60  93 126 162 215 263 313 381
#     4  12  21  37  66  92 127 168 214 272 319 395
#     4  11  20  39  62  93 125 167 215 262 329 384
#     4  12  22  39  65  95 124 172 220 261 331 384
#
# _framework density 20.294539
#
# number of rings (size 3 to 8) (size 9 to 14) (size 15 to 20)
#    0.000    0.600   10.000    0.000    0.000    0.000 
#    0.000    3.000    0.000    3.000    0.000    0.000 
#    0.000    0.000    0.000    0.000    0.000    0.000 
#
# Total GULP energy -496027.060704 kJ/mol
# GULP energy per Si atom -12400.676518 kJ/mol
# Density = 2.024835 g / cm^3
# Si number density = 20.294539 Si / 1000 Ang^3
#
#
#
# Elastic Constant Matrix: (Units=GPa)
#
#
# Indices 1 2 3 4 5 6 
#
# 1 62.1396 25.2098 23.2241 0.0000 0.0000 -4.8973
# 2 25.2098 62.1396 23.2241 0.0000 0.0000 4.8973
# 3 23.2241 23.2241 166.1479 0.0000 0.0000 0.0000
# 4 0.0000 0.0000 0.0000 27.7024 0.0000 0.0000
# 5 0.0000 0.0000 0.0000 0.0000 27.7024 0.0000
# 6 -4.8973 4.8973 0.0000 0.0000 0.0000 35.3337
#
#
#
# Elastic Compliance Matrix: (Units=1/GPa)
#
#
# Indices 1 2 3 4 5 6 
#
# 1 0.020240 -0.007872 -0.001729 0.000000 0.000000 0.003896
# 2 -0.007872 0.020240 -0.001729 0.000000 0.000000 -0.003896
# 3 -0.001729 -0.001729 0.006502 0.000000 0.000000 0.000000
# 4 0.000000 0.000000 0.000000 0.036098 0.000000 0.000000
# 5 0.000000 0.000000 0.000000 0.000000 0.036098 0.000000
# 6 0.003896 -0.003896 0.000000 0.000000 0.000000 0.029382
#
#
# Mechanical properties :
#
#
# Convention : Reuss Voigt Hill
#
# Bulk Modulus (GPa) = 41.11477 48.19367 44.65422
# Shear Modulus (GPa) = 27.88226 32.73229 30.30728
#
# Velocity S-wave (km/s) = 3.71061 4.02040 3.86861
# Velocity P-wave (km/s) = 6.21781 6.73425 6.48118
#
# Compressibility (1/GPa) = 0.02432216
#
# Stress axis : x y z
#
# Youngs Moduli (GPa) = 49.40801 49.40801 153.79841
#
# Poissons Ratio (x) = 0.38894 0.26588
# Poissons Ratio (y) = 0.38894 0.26588
# Poissons Ratio (z) = 0.08541 0.08541
#
# Static dielectric constant tensor:
#      x y z
#    x 3.879060 0.000000 0.000000 
#    y 0.000000 3.879060 0.000000 
#    z 0.000000 0.000000 3.954740 
# 
# 
# High freq. dielectric constant tensor:
#      x y z
#    x 1.776220 0.000000 0.000000 
#    y 0.000000 1.776220 0.000000 
#    z 0.000000 0.000000 1.812210 
# 
# From -- ./inp_files/2880.got.cif
#   From: 2010.03.12/outbox.cif.g09.slc.cpg/sg86_2_cif.got.tgz:2880.got - 2010.04.08 20:12:58.
