data_PCOD8303240
_publ_section_title
;
Structure prediction by ZEFSAII (Michael W. Deem and Ramdas Pophale) SiO2 
 PCOD8303240
Probable space group: P 42/M
;
_chemical_formula_sum "Si O2"
_cell_formula_units_Z 40
_cell_length_a 15.205031
_cell_length_b 15.205031
_cell_length_c 8.820664
_cell_angle_alpha 90.000000
_cell_angle_beta 90.000000
_cell_angle_gamma 90.000000
_cell_volume 2039.275487
_symmetry_space_group_name_H-M "P 42/M"
_symmetry_group_IT_number 84
_symmetry_cell_setting 'tetragonal'
loop_
_space_group_symop_operation_xyz
x,y,z
-y,x,1/2+z
-x,-y,z
y,-x,1/2+z
-x,-y,-z
y,-x,1/2-z
x,y,-z
-y,x,1/2-z
loop_
_atom_site_type_symbol
_atom_site_label
_atom_site_fract_x
_atom_site_fract_y
_atom_site_fract_z
Si Si1 0.763189 0.024887 0.172528
Si Si2 0.528032 0.256344 0.677300
Si Si3 0.694559 0.332793 0.179058
Si Si4 0.829020 0.195030 0.321848
Si Si5 0.923138 0.563640 0.328001
O O1 0.813332 0.094011 0.277892
O O2 0.660352 0.039622 0.184140
O O3 0.781530 0.926975 0.233102
O O4 0.796601 0.036004 0.000000
O O5 0.538245 0.273648 0.500000
O O6 0.429095 0.275274 0.733062
O O7 0.595224 0.320060 0.763750
O O8 0.551638 0.156303 0.713072
O O9 0.758929 0.258558 0.243183
O O10 0.696186 0.322969 0.000000
O O11 0.818208 0.207977 0.500000
O O12 0.892670 0.541829 0.500000
O O13 0.000000 0.500000 0.273571
#
# Coordination Sequence:
#
# PCOD8303240 Si02
#       5
#     8   8   8   8   8
#     4  10  22  39  60  89 125 165 207 255 311 367
#     4  11  24  40  62  92 123 162 209 256 310 370
#     4  11  24  42  63  90 127 165 204 259 316 370
#     4  11  23  40  64  92 124 165 211 257 309 374
#     4  10  20  37  62  90 122 162 205 253 311 368
#
# _framework density 19.614809000000001
#
# number of rings (size 3 to 8) (size 9 to 14) (size 15 to 20)
#    0.000    1.400    2.000    3.000    0.000    7.600 
#    0.000    4.000    0.000    0.000    0.000    0.000 
#    0.000    0.000    0.000    0.000    0.000    0.000 
#
# Total GULP energy -496206.859808 kJ/mol
# GULP energy per Si atom -12405.171495 kJ/mol
# Density = 1.957016 g / cm^3
# Si number density = 19.614809 Si / 1000 Ang^3
#
#
#
# Elastic Constant Matrix: (Units=GPa)
#
#
# Indices 1 2 3 4 5 6 
#
# 1 122.9266 32.2923 34.7263 0.0000 0.0000 1.6180
# 2 32.2923 122.9266 34.7263 0.0000 0.0000 -1.6180
# 3 34.7263 34.7263 62.4425 0.0000 0.0000 0.0000
# 4 0.0000 0.0000 0.0000 19.0841 0.0000 0.0000
# 5 0.0000 0.0000 0.0000 0.0000 19.0841 0.0000
# 6 1.6180 -1.6180 0.0000 0.0000 0.0000 42.7699
#
#
#
# Elastic Compliance Matrix: (Units=1/GPa)
#
#
# Indices 1 2 3 4 5 6 
#
# 1 0.009813 -0.001236 -0.004770 0.000000 0.000000 -0.000418
# 2 -0.001236 0.009813 -0.004770 0.000000 0.000000 0.000418
# 3 -0.004770 -0.004770 0.021320 0.000000 0.000000 0.000000
# 4 0.000000 0.000000 0.000000 0.052400 0.000000 0.000000
# 5 0.000000 0.000000 0.000000 0.000000 0.052400 0.000000
# 6 -0.000418 0.000418 0.000000 0.000000 0.000000 0.023413
#
#
# Mechanical properties :
#
#
# Convention : Reuss Voigt Hill
#
# Bulk Modulus (GPa) = 51.56158 56.86507 54.21332
# Shear Modulus (GPa) = 25.35852 29.95768 27.65810
#
# Velocity S-wave (km/s) = 3.59949 3.91231 3.75915
# Velocity P-wave (km/s) = 6.60449 7.03292 6.82207
#
# Compressibility (1/GPa) = 0.01939429
#
# Stress axis : x y z
#
# Youngs Moduli (GPa) = 101.91064 101.91064 46.90424
#
# Poissons Ratio (x) = 0.12594 0.22372
# Poissons Ratio (y) = 0.12594 0.22372
# Poissons Ratio (z) = 0.48610 0.48610
#
# Static dielectric constant tensor:
#      x y z
#    x 3.899840 0.000000 0.000000 
#    y 0.000000 3.899840 0.000000 
#    z 0.000000 0.000000 3.588800 
# 
# 
# High freq. dielectric constant tensor:
#      x y z
#    x 1.775420 0.000000 0.000000 
#    y 0.000000 1.775420 0.000000 
#    z 0.000000 0.000000 1.764470 
# 
# From -- ./inp_files/735.got.cif
#   From: 2010.03.12/outbox.cif.g09.slc.cpg/sg84_1_cif.got.tgz:735.got - 2010.04.08 20:07:29.
