data_PCOD8303891
_publ_section_title
;
Structure prediction by ZEFSAII (Michael W. Deem and Ramdas Pophale) SiO2 
 PCOD8303891
Probable space group: I 4/M
;
_chemical_formula_sum "Si O2"
_cell_formula_units_Z 112
_cell_length_a 15.417914
_cell_length_b 15.417914
_cell_length_c 22.651664
_cell_angle_alpha 90.000000
_cell_angle_beta 90.000000
_cell_angle_gamma 90.000000
_cell_volume 5384.573986
_symmetry_space_group_name_H-M "I 4/M"
_symmetry_group_IT_number 87
_symmetry_cell_setting 'tetragonal'
loop_
_space_group_symop_operation_xyz
x,y,z
-y,x,z
-x,-y,z
y,-x,z
-x,-y,-z
y,-x,-z
x,y,-z
-y,x,-z
1/2+x,1/2+y,1/2+z
1/2-y,1/2+x,1/2+z
1/2-x,1/2-y,1/2+z
1/2+y,1/2-x,1/2+z
1/2-x,1/2-y,1/2-z
1/2+y,1/2-x,1/2-z
1/2+x,1/2+y,1/2-z
1/2-y,1/2+x,1/2-z
loop_
_atom_site_type_symbol
_atom_site_label
_atom_site_fract_x
_atom_site_fract_y
_atom_site_fract_z
Si Si1 0.984500 0.592967 0.602298
Si Si2 0.922305 0.881786 0.795466
Si Si3 0.439271 0.845271 0.300089
Si Si4 0.073990 0.122273 0.662013
Si Si5 0.759814 0.364243 0.065614
Si Si6 0.636089 0.129031 0.821344
Si Si7 0.723637 0.703787 0.350608
O O1 0.931118 0.575741 0.661989
O O2 0.932452 0.660951 0.561953
O O3 0.000000 0.500000 0.569514
O O4 0.078836 0.631130 0.618898
O O5 0.903468 0.846334 0.728668
O O6 0.876473 0.827739 0.848123
O O7 0.023742 0.881616 0.803810
O O8 0.432888 0.865861 0.231291
O O9 0.537032 0.810721 0.314093
O O10 0.362272 0.776746 0.310211
O O11 0.109434 0.190229 0.614676
O O12 0.971029 0.117036 0.651826
O O13 0.794149 0.268358 0.084723
O O14 0.719011 0.358430 0.000000
O O15 0.698653 0.213489 0.824148
#
# Coordination Sequence:
#
# PCOD8303891 Si02
#       7
#    16  16  16  16  16  16  16
#     4   9  21  38  59  85 114 157 205 246 304 358
#     4   9  19  37  63  95 131 156 182 238 310 386
#     4  10  20  34  54  84 123 154 187 237 306 374
#     4   9  21  40  62  90 122 158 195 240 302 367
#     4  11  26  43  59  82 120 164 213 262 292 339
#     4  11  20  34  57  85 120 157 190 241 299 375
#     4  11  24  35  55  91 121 155 200 247 307 360
#
# _framework density 20.800160999999999
#
# number of rings (size 3 to 8) (size 9 to 14) (size 15 to 20)
#    0.000    2.000    1.429    2.143    8.000    2.000 
#    0.000    0.714    0.000    9.429    0.000    1.000 
#    0.000    0.000    0.000    0.000    0.000    0.000 
#
# Total GULP energy -693766.587675 kJ/mol
# GULP energy per Si atom -12388.689066 kJ/mol
# Density = 2.075282 g / cm^3
# Si number density = 20.800161 Si / 1000 Ang^3
#
#
#
# Elastic Constant Matrix: (Units=GPa)
#
#
# Indices 1 2 3 4 5 6 
#
# 1 90.1230 40.5639 28.6882 0.0000 0.0000 2.1149
# 2 40.5639 90.1230 28.6882 0.0000 0.0000 -2.1149
# 3 28.6882 28.6882 57.2801 0.0000 0.0000 0.0000
# 4 0.0000 0.0000 0.0000 13.6732 0.0000 0.0000
# 5 0.0000 0.0000 0.0000 0.0000 13.6731 0.0000
# 6 2.1149 -2.1149 0.0000 0.0000 0.0000 36.6445
#
#
#
# Elastic Compliance Matrix: (Units=1/GPa)
#
#
# Indices 1 2 3 4 5 6 
#
# 1 0.015043 -0.005235 -0.004913 0.000000 0.000000 -0.001170
# 2 -0.005235 0.015043 -0.004913 0.000000 0.000000 0.001170
# 3 -0.004913 -0.004913 0.022379 0.000000 0.000000 0.000000
# 4 0.000000 0.000000 0.000000 0.073136 0.000000 0.000000
# 5 0.000000 0.000000 0.000000 0.000000 0.073136 0.000000
# 6 -0.001170 0.001170 0.000000 0.000000 0.000000 0.027424
#
#
# Mechanical properties :
#
#
# Convention : Reuss Voigt Hill
#
# Bulk Modulus (GPa) = 44.75084 48.15627 46.45356
# Shear Modulus (GPa) = 18.95879 22.10389 20.53134
#
# Velocity S-wave (km/s) = 3.02234 3.26341 3.14518
# Velocity P-wave (km/s) = 5.80868 6.11571 5.96417
#
# Compressibility (1/GPa) = 0.02234595
#
# Stress axis : x y z
#
# Youngs Moduli (GPa) = 66.47497 66.47497 44.68494
#
# Poissons Ratio (x) = 0.34797 0.21952
# Poissons Ratio (y) = 0.34797 0.21952
# Poissons Ratio (z) = 0.32656 0.32656
#
# Static dielectric constant tensor:
#      x y z
#    x 3.995710 0.000000 0.000000 
#    y 0.000000 3.995710 0.000000 
#    z 0.000000 0.000000 3.198790 
# 
# 
# High freq. dielectric constant tensor:
#      x y z
#    x 1.828610 0.000000 0.000000 
#    y 0.000000 1.828610 0.000000 
#    z 0.000000 0.000000 1.755300 
# 
# From -- ./inp_files/5902.got.cif
#   From: 2010.03.12/outbox.cif.g09.slc.cpg/sg87_3_cif.got.tgz:5902.got - 2010.04.08 20:16:13.
