data_PCOD8303656
_publ_section_title
;
Structure prediction by ZEFSAII (Michael W. Deem and Ramdas Pophale) SiO2 
 PCOD8303656
Probable space group: P 42/N
;
_chemical_formula_sum "Si O2"
_cell_formula_units_Z 40
_cell_length_a 9.313877
_cell_length_b 9.313877
_cell_length_c 22.736901
_cell_angle_alpha 90.000000
_cell_angle_beta 90.000000
_cell_angle_gamma 90.000000
_cell_volume 1972.387617
_symmetry_space_group_name_H-M "P 42/N"
_symmetry_group_IT_number 86
_space_group.IT_coordinate_system_code '2'
_symmetry_cell_setting 'tetragonal'
loop_
_space_group_symop_operation_xyz
x,y,z
-y,1/2+x,1/2+z
1/2-x,1/2-y,z
1/2+y,-x,1/2+z
-x,-y,-z
y,1/2-x,1/2-z
1/2+x,1/2+y,-z
1/2-y,x,1/2-z
loop_
_atom_site_type_symbol
_atom_site_label
_atom_site_fract_x
_atom_site_fract_y
_atom_site_fract_z
Si Si1 0.422032 0.779948 0.671923
Si Si2 0.329182 0.401512 0.054866
Si Si3 0.897275 0.334740 0.551299
Si Si4 0.489173 0.981836 0.240636
Si Si5 0.743577 0.078649 0.177911
O O1 0.250000 0.750000 0.666369
O O2 0.493539 0.785165 0.607905
O O3 0.504704 0.668445 0.714220
O O4 0.461487 0.926730 0.703508
O O5 0.250000 0.250000 0.060134
O O6 0.496823 0.364916 0.050494
O O7 0.283763 0.485903 0.996053
O O8 0.750000 0.250000 0.540455
O O9 0.966083 0.300513 0.614488
O O10 0.496786 0.822785 0.267356
O O11 0.585109 0.013823 0.183420
O O12 0.750000 0.250000 0.186643
#
# Coordination Sequence:
#
# PCOD8303656 Si02
#       5
#     8   8   8   8   8
#     4  12  26  44  66 100 139 173 222 278 332 393
#     4  11  26  46  72 102 124 182 231 267 338 396
#     4  10  24  48  69  94 141 170 220 288 327 389
#     4  12  22  43  65  98 138 174 216 273 334 398
#     4  11  23  44  65  99 133 178 217 272 335 390
#
# _framework density 20.279989
#
# number of rings (size 3 to 8) (size 9 to 14) (size 15 to 20)
#    0.000    0.800    6.000    0.600    8.400    1.200 
#   10.800    0.000    0.000    0.000    0.000    0.000 
#    0.000    0.000    0.000    0.000    0.000    0.000 
#
# Total GULP energy -495711.244163 kJ/mol
# GULP energy per Si atom -12392.781104 kJ/mol
# Density = 2.023383 g / cm^3
# Si number density = 20.279989 Si / 1000 Ang^3
#
#
#
# Elastic Constant Matrix: (Units=GPa)
#
#
# Indices 1 2 3 4 5 6 
#
# 1 85.1533 45.5637 55.9555 0.0000 0.0000 -0.7232
# 2 45.5637 85.1533 55.9555 0.0000 0.0000 0.7232
# 3 55.9555 55.9555 125.3688 0.0000 0.0000 0.0000
# 4 0.0000 0.0000 0.0000 20.5994 0.0000 0.0000
# 5 0.0000 0.0000 0.0000 0.0000 20.5994 0.0000
# 6 -0.7232 0.7232 0.0000 0.0000 0.0000 32.3495
#
#
#
# Elastic Compliance Matrix: (Units=1/GPa)
#
#
# Indices 1 2 3 4 5 6 
#
# 1 0.018830 -0.006449 -0.005526 0.000000 0.000000 0.000565
# 2 -0.006449 0.018830 -0.005526 0.000000 0.000000 -0.000565
# 3 -0.005526 -0.005526 0.012909 0.000000 0.000000 0.000000
# 4 0.000000 0.000000 0.000000 0.048545 0.000000 0.000000
# 5 0.000000 0.000000 0.000000 0.000000 0.048545 0.000000
# 6 0.000565 -0.000565 0.000000 0.000000 0.000000 0.030938
#
#
# Mechanical properties :
#
#
# Convention : Reuss Voigt Hill
#
# Bulk Modulus (GPa) = 64.23672 67.84723 66.04197
# Shear Modulus (GPa) = 22.85296 23.92304 23.38800
#
# Velocity S-wave (km/s) = 3.36053 3.43831 3.39965
# Velocity P-wave (km/s) = 6.84115 7.02072 6.93152
#
# Compressibility (1/GPa) = 0.01556742
#
# Stress axis : x y z
#
# Youngs Moduli (GPa) = 53.10542 53.10542 77.46347
#
# Poissons Ratio (x) = 0.34249 0.42807
# Poissons Ratio (y) = 0.34249 0.42807
# Poissons Ratio (z) = 0.29346 0.29346
#
# Static dielectric constant tensor:
#      x y z
#    x 3.765100 0.000000 0.000000 
#    y 0.000000 3.765100 0.000000 
#    z 0.000000 0.000000 3.949280 
# 
# 
# High freq. dielectric constant tensor:
#      x y z
#    x 1.794580 0.000000 0.000000 
#    y 0.000000 1.794580 0.000000 
#    z 0.000000 0.000000 1.809710 
# 
# From -- ./inp_files/4430.got.cif
#   From: 2010.03.12/outbox.cif.g09.slc.cpg/sg86_3_cif.got.tgz:4430.got - 2010.04.08 20:12:58.
