data_PCOD8303967
_publ_section_title
;
Structure prediction by ZEFSAII (Michael W. Deem and Ramdas Pophale) SiO2 
 PCOD8303967
Probable space group: I 4/M
;
_chemical_formula_sum "Si O2"
_cell_formula_units_Z 96
_cell_length_a 23.766427
_cell_length_b 23.766427
_cell_length_c 8.904823
_cell_angle_alpha 90.000000
_cell_angle_beta 90.000000
_cell_angle_gamma 90.000000
_cell_volume 5029.827404
_symmetry_space_group_name_H-M "I 4/M"
_symmetry_group_IT_number 87
_symmetry_cell_setting 'tetragonal'
loop_
_space_group_symop_operation_xyz
x,y,z
-y,x,z
-x,-y,z
y,-x,z
-x,-y,-z
y,-x,-z
x,y,-z
-y,x,-z
1/2+x,1/2+y,1/2+z
1/2-y,1/2+x,1/2+z
1/2-x,1/2-y,1/2+z
1/2+y,1/2-x,1/2+z
1/2-x,1/2-y,1/2-z
1/2+y,1/2-x,1/2-z
1/2+x,1/2+y,1/2-z
1/2-y,1/2+x,1/2-z
loop_
_atom_site_type_symbol
_atom_site_label
_atom_site_fract_x
_atom_site_fract_y
_atom_site_fract_z
Si Si1 0.790718 0.952531 0.176612
Si Si2 0.740841 0.663611 0.823900
Si Si3 0.580072 0.022067 0.822272
Si Si4 0.448644 0.206991 0.325448
Si Si5 0.231113 0.665967 0.175814
Si Si6 0.486282 0.587474 0.678387
O O1 0.778819 0.895115 0.259909
O O2 0.849753 0.976747 0.239624
O O3 0.741786 0.996040 0.217425
O O4 0.793696 0.940636 0.000000
O O5 0.694050 0.709651 0.779355
O O6 0.800921 0.680132 0.754313
O O7 0.749099 0.658718 0.000000
O O8 0.537926 0.068604 0.755536
O O9 0.642586 0.041034 0.780933
O O10 0.570999 0.016120 0.000000
O O11 0.433905 0.213642 0.500000
O O12 0.397811 0.232323 0.230634
O O13 0.220320 0.668223 0.000000
O O14 0.436274 0.546360 0.736266
O O15 0.486669 0.588023 0.500000
#
# Coordination Sequence:
#
# PCOD8303967 Si02
#       6
#    16  16  16  16  16  16
#     4  10  21  35  57  87 117 153 191 236 285 337
#     4  10  22  40  60  85 116 151 191 239 290 343
#     4  10  21  38  58  82 112 148 188 234 282 339
#     4  10  23  38  56  88 121 148 188 237 286 339
#     4  10  22  40  62  85 112 152 195 237 288 345
#     4   8  15  29  51  81 113 147 190 235 278 325
#
# _framework density 19.086143
#
# number of rings (size 3 to 8) (size 9 to 14) (size 15 to 20)
#    0.000    2.333    0.000    2.500    4.667    4.000 
#    0.000    0.000    0.000    0.000    0.000    1.167 
#    0.000    0.000    0.000    0.000    0.000    0.000 
#
# Total GULP energy -595312.649323 kJ/mol
# GULP energy per Si atom -12402.346861 kJ/mol
# Density = 1.904270 g / cm^3
# Si number density = 19.086143 Si / 1000 Ang^3
#
#
#
# Elastic Constant Matrix: (Units=GPa)
#
#
# Indices 1 2 3 4 5 6 
#
# 1 110.7522 47.0571 42.7516 0.0000 0.0000 -0.1641
# 2 47.0571 110.7522 42.7516 0.0000 0.0000 0.1641
# 3 42.7516 42.7516 61.4773 0.0000 0.0000 0.0000
# 4 0.0000 0.0000 0.0000 28.3935 0.0000 0.0000
# 5 0.0000 0.0000 0.0000 0.0000 28.3935 0.0000
# 6 -0.1641 0.1641 0.0000 0.0000 0.0000 24.3207
#
#
#
# Elastic Compliance Matrix: (Units=1/GPa)
#
#
# Indices 1 2 3 4 5 6 
#
# 1 0.012934 -0.002766 -0.007071 0.000000 0.000000 0.000106
# 2 -0.002766 0.012934 -0.007071 0.000000 0.000000 -0.000106
# 3 -0.007071 -0.007071 0.026100 0.000000 0.000000 0.000000
# 4 0.000000 0.000000 0.000000 0.035219 0.000000 0.000000
# 5 0.000000 0.000000 0.000000 0.000000 0.035219 0.000000
# 6 0.000106 -0.000106 0.000000 0.000000 0.000000 0.041119
#
#
# Mechanical properties :
#
#
# Convention : Reuss Voigt Hill
#
# Bulk Modulus (GPa) = 55.08772 60.90025 57.99398
# Shear Modulus (GPa) = 24.58305 26.24962 25.41633
#
# Velocity S-wave (km/s) = 3.59277 3.71256 3.65316
# Velocity P-wave (km/s) = 6.79235 7.09611 6.94589
#
# Compressibility (1/GPa) = 0.01815287
#
# Stress axis : x y z
#
# Youngs Moduli (GPa) = 77.31524 77.31524 38.31383
#
# Poissons Ratio (x) = 0.21388 0.27091
# Poissons Ratio (y) = 0.21388 0.27091
# Poissons Ratio (z) = 0.54668 0.54668
#
# Static dielectric constant tensor:
#      x y z
#    x 3.626970 0.000000 0.000000 
#    y 0.000000 3.626970 0.000000 
#    z 0.000000 0.000000 3.320630 
# 
# 
# High freq. dielectric constant tensor:
#      x y z
#    x 1.750260 0.000000 0.000000 
#    y 0.000000 1.750260 0.000000 
#    z 0.000000 0.000000 1.726350 
# 
# From -- ./inp_files/1429.got.cif
#   From: 2010.03.12/outbox.cif.g09.slc.cpg/sg87_1_cif.got.tgz:1429.got - 2010.04.08 20:16:13.
