data_PCOD8303925
_publ_section_title
;
Structure prediction by ZEFSAII (Michael W. Deem and Ramdas Pophale) SiO2 
 PCOD8303925
Probable space group: I 4/M
;
_chemical_formula_sum "Si O2"
_cell_formula_units_Z 96
_cell_length_a 24.139300
_cell_length_b 24.139300
_cell_length_c 8.364112
_cell_angle_alpha 90.000000
_cell_angle_beta 90.000000
_cell_angle_gamma 90.000000
_cell_volume 4873.816612
_symmetry_space_group_name_H-M "I 4/M"
_symmetry_group_IT_number 87
_symmetry_cell_setting 'tetragonal'
loop_
_space_group_symop_operation_xyz
x,y,z
-y,x,z
-x,-y,z
y,-x,z
-x,-y,-z
y,-x,-z
x,y,-z
-y,x,-z
1/2+x,1/2+y,1/2+z
1/2-y,1/2+x,1/2+z
1/2-x,1/2-y,1/2+z
1/2+y,1/2-x,1/2+z
1/2-x,1/2-y,1/2-z
1/2+y,1/2-x,1/2-z
1/2+x,1/2+y,1/2-z
1/2-y,1/2+x,1/2-z
loop_
_atom_site_type_symbol
_atom_site_label
_atom_site_fract_x
_atom_site_fract_y
_atom_site_fract_z
Si Si1 0.352043 0.268641 0.688117
Si Si2 0.440589 0.938479 0.187689
Si Si3 0.058122 0.147551 0.185428
Si Si4 0.852225 0.351333 0.814109
Si Si5 0.267242 0.350379 0.184079
Si Si6 0.435992 0.648357 0.312506
O O1 0.346190 0.277772 0.500000
O O2 0.403488 0.303966 0.757945
O O3 0.364759 0.205527 0.728193
O O4 0.295234 0.291910 0.765395
O O5 0.503918 0.922801 0.229380
O O6 0.400680 0.889084 0.242303
O O7 0.435010 0.947043 0.000000
O O8 0.086822 0.088270 0.214330
O O9 0.997343 0.148510 0.262947
O O10 0.049268 0.159094 0.000000
O O11 0.864907 0.286882 0.786859
O O12 0.847009 0.364381 0.000000
O O13 0.308616 0.400830 0.210637
O O14 0.249557 0.345531 0.000000
O O15 0.432565 0.664184 0.500000
#
# Coordination Sequence:
#
# PCOD8303925 Si02
#       6
#    16  16  16  16  16  16
#     4  10  20  37  57  82 114 149 186 233 287 342
#     4  11  23  43  66  90 119 153 189 232 282 335
#     4   8  16  30  53  79 108 143 184 229 275 323
#     4  12  24  39  60  87 114 148 189 232 279 338
#     4  11  22  37  55  80 112 149 188 234 287 343
#     4   9  17  33  53  78 109 146 187 231 280 332
#
# _framework density 19.697088999999998
#
# number of rings (size 3 to 8) (size 9 to 14) (size 15 to 20)
#    0.000    1.833    0.000    7.000    0.000    1.667 
#    0.000   10.833    0.000    0.000    0.000    4.667 
#    0.000    0.000    0.000    0.000    0.000    0.000 
#
# Total GULP energy -595165.143789 kJ/mol
# GULP energy per Si atom -12399.273829 kJ/mol
# Density = 1.965226 g / cm^3
# Si number density = 19.697089 Si / 1000 Ang^3
#
#
#
# Elastic Constant Matrix: (Units=GPa)
#
#
# Indices 1 2 3 4 5 6 
#
# 1 204.2598 -77.4109 5.5340 0.0000 0.0000 -26.9639
# 2 -77.4109 204.2598 5.5340 0.0000 0.0000 26.9639
# 3 5.5340 5.5340 60.1610 0.0000 0.0000 0.0000
# 4 0.0000 0.0000 0.0000 26.6646 0.0000 0.0000
# 5 0.0000 0.0000 0.0000 0.0000 26.6646 0.0000
# 6 -26.9639 26.9639 0.0000 0.0000 0.0000 37.7583
#
#
#
# Elastic Compliance Matrix: (Units=1/GPa)
#
#
# Indices 1 2 3 4 5 6 
#
# 1 0.006030 0.001917 -0.000731 0.000000 0.000000 0.002937
# 2 0.001917 0.006030 -0.000731 0.000000 0.000000 -0.002937
# 3 -0.000731 -0.000731 0.016757 0.000000 0.000000 0.000000
# 4 0.000000 0.000000 0.000000 0.037503 0.000000 0.000000
# 5 0.000000 0.000000 0.000000 0.000000 0.037503 0.000000
# 6 0.002937 -0.002937 0.000000 0.000000 0.000000 0.030679
#
#
# Mechanical properties :
#
#
# Convention : Reuss Voigt Hill
#
# Bulk Modulus (GPa) = 33.63971 37.33276 35.48623
# Shear Modulus (GPa) = 34.84339 53.88572 44.36456
#
# Velocity S-wave (km/s) = 4.21047 5.23609 4.75103
# Velocity P-wave (km/s) = 6.38380 7.45319 6.93913
#
# Compressibility (1/GPa) = 0.02972678
#
# Stress axis : x y z
#
# Youngs Moduli (GPa) = 165.84162 165.84162 59.67816
#
# Poissons Ratio (x) = -0.31797 0.04363
# Poissons Ratio (y) = -0.31797 0.04363
# Poissons Ratio (z) = 0.12124 0.12124
#
# Static dielectric constant tensor:
#      x y z
#    x 3.789200 0.000000 0.000000 
#    y 0.000000 3.789200 0.000000 
#    z 0.000000 0.000000 3.446590 
# 
# 
# High freq. dielectric constant tensor:
#      x y z
#    x 1.771680 0.000000 0.000000 
#    y 0.000000 1.771680 0.000000 
#    z 0.000000 0.000000 1.759190 
# 
# From -- ./inp_files/1353.got.cif
#   From: 2010.03.12/outbox.cif.g09.slc.cpg/sg87_1_cif.got.tgz:1353.got - 2010.04.08 20:16:13.
