data_PCOD8303072
_publ_section_title
;
Structure prediction by ZEFSAII (Michael W. Deem and Ramdas Pophale) SiO2 
 PCOD8303072
Probable space group: P 42/M
;
_chemical_formula_sum "Si O2"
_cell_formula_units_Z 48
_cell_length_a 17.855012
_cell_length_b 17.855012
_cell_length_c 8.615962
_cell_angle_alpha 90.000000
_cell_angle_beta 90.000000
_cell_angle_gamma 90.000000
_cell_volume 2746.781209
_symmetry_space_group_name_H-M "P 42/M"
_symmetry_group_IT_number 84
_symmetry_cell_setting 'tetragonal'
loop_
_space_group_symop_operation_xyz
x,y,z
-y,x,1/2+z
-x,-y,z
y,-x,1/2+z
-x,-y,-z
y,-x,1/2-z
x,y,-z
-y,x,1/2-z
loop_
_atom_site_type_symbol
_atom_site_label
_atom_site_fract_x
_atom_site_fract_y
_atom_site_fract_z
Si Si1 0.415101 0.695735 0.319268
Si Si2 0.198122 0.923827 0.180898
Si Si3 0.414685 0.295181 0.682184
Si Si4 0.805650 0.686244 0.321374
Si Si5 0.795327 0.916772 0.319620
Si Si6 0.302860 0.195388 0.819110
O O1 0.405224 0.679150 0.500000
O O2 0.367552 0.634562 0.225319
O O3 0.500541 0.689211 0.265010
O O4 0.384943 0.780177 0.281737
O O5 0.280258 0.887811 0.217616
O O6 0.132063 0.867279 0.231274
O O7 0.188146 0.997475 0.282185
O O8 0.191378 0.943761 0.000000
O O9 0.410718 0.280025 0.500000
O O10 0.387200 0.219655 0.772140
O O11 0.800555 0.662488 0.500000
O O12 0.748236 0.753169 0.289781
O O13 0.778784 0.906864 0.500000
O O14 0.720930 0.889456 0.224987
O O15 0.289287 0.210718 0.000000
#
# Coordination Sequence:
#
# PCOD8303072 Si02
#       6
#     8   8   8   8   8   8
#     4  10  20  32  49  73  98 128 164 199 239 287
#     4   9  19  33  48  71  99 127 161 196 236 286
#     4  10  20  33  49  71 100 129 160 200 241 285
#     4   9  17  31  50  70  95 126 161 201 239 280
#     4  10  20  33  50  72  99 130 161 197 241 284
#     4  10  18  30  50  71  93 124 163 201 236 282
#
# _framework density 17.474999
#
# number of rings (size 3 to 8) (size 9 to 14) (size 15 to 20)
#    0.000    2.333    0.000    6.500    0.000    7.333 
#    0.000    3.333    0.000    1.000    0.000    7.000 
#    0.000    0.000    0.000    0.000    0.000    0.000 
#
# Total GULP energy -594926.921572 kJ/mol
# GULP energy per Si atom -12394.310866 kJ/mol
# Density = 1.743522 g / cm^3
# Si number density = 17.474999 Si / 1000 Ang^3
#
#
#
# Elastic Constant Matrix: (Units=GPa)
#
#
# Indices 1 2 3 4 5 6 
#
# 1 76.0999 70.3912 31.3510 0.0000 0.0000 -0.6032
# 2 70.3912 76.0999 31.3510 0.0000 0.0000 0.6032
# 3 31.3510 31.3510 50.4096 0.0000 0.0000 0.0000
# 4 0.0000 0.0000 0.0000 26.2456 0.0000 0.0000
# 5 0.0000 0.0000 0.0000 0.0000 26.2456 0.0000
# 6 -0.6032 0.6032 0.0000 0.0000 0.0000 19.0045
#
#
#
# Elastic Compliance Matrix: (Units=1/GPa)
#
#
# Indices 1 2 3 4 5 6 
#
# 1 0.092828 -0.083526 -0.005786 0.000000 0.000000 0.005597
# 2 -0.083526 0.092828 -0.005786 0.000000 0.000000 -0.005597
# 3 -0.005786 -0.005786 0.027034 0.000000 0.000000 0.000000
# 4 0.000000 0.000000 0.000000 0.038102 0.000000 0.000000
# 5 0.000000 0.000000 0.000000 0.000000 0.038102 0.000000
# 6 0.005597 -0.005597 0.000000 0.000000 0.000000 0.052974
#
#
# Mechanical properties :
#
#
# Convention : Reuss Voigt Hill
#
# Bulk Modulus (GPa) = 44.45044 52.08844 48.26944
# Shear Modulus (GPa) = 9.26680 18.93358 14.10019
#
# Velocity S-wave (km/s) = 2.30530 3.29518 2.84364
# Velocity P-wave (km/s) = 5.70769 6.65956 6.20191
#
# Compressibility (1/GPa) = 0.02249696
#
# Stress axis : x y z
#
# Youngs Moduli (GPa) = 10.77257 10.77257 36.99059
#
# Poissons Ratio (x) = 0.89979 0.21401
# Poissons Ratio (y) = 0.89979 0.21401
# Poissons Ratio (z) = 0.06233 0.06233
#
# Static dielectric constant tensor:
#      x y z
#    x 3.386680 0.000000 0.000000 
#    y 0.000000 3.386680 0.000000 
#    z 0.000000 0.000000 3.223050 
# 
# 
# High freq. dielectric constant tensor:
#      x y z
#    x 1.657880 0.000000 0.000000 
#    y 0.000000 1.657880 0.000000 
#    z 0.000000 0.000000 1.686970 
# 
# From -- ./inp_files/984.got.cif
#   From: 2010.03.12/outbox.cif.g09.slc.cpg/sg84_1_cif.got.tgz:984.got - 2010.04.08 20:07:29.
