data_PCOD8303149
_publ_section_title
;
Structure prediction by ZEFSAII (Michael W. Deem and Ramdas Pophale) SiO2 
 PCOD8303149
Probable space group: P 42/M
;
_chemical_formula_sum "Si O2"
_cell_formula_units_Z 64
_cell_length_a 20.717688
_cell_length_b 20.717688
_cell_length_c 8.938684
_cell_angle_alpha 90.000000
_cell_angle_beta 90.000000
_cell_angle_gamma 90.000000
_cell_volume 3836.685152
_symmetry_space_group_name_H-M "P 42/M"
_symmetry_group_IT_number 84
_symmetry_cell_setting 'tetragonal'
loop_
_space_group_symop_operation_xyz
x,y,z
-y,x,1/2+z
-x,-y,z
y,-x,1/2+z
-x,-y,-z
y,-x,1/2-z
x,y,-z
-y,x,1/2-z
loop_
_atom_site_type_symbol
_atom_site_label
_atom_site_fract_x
_atom_site_fract_y
_atom_site_fract_z
Si Si1 0.620849 0.709422 0.164650
Si Si2 0.730743 0.812824 0.162642
Si Si3 0.248769 0.501039 0.167828
Si Si4 0.077224 0.639553 0.678421
Si Si5 0.382774 0.705857 0.824226
Si Si6 0.898472 0.495967 0.168066
Si Si7 0.945629 0.634978 0.823851
Si Si8 0.813879 0.702093 0.821619
O O1 0.683075 0.753076 0.146404
O O2 0.572943 0.747921 0.270860
O O3 0.641189 0.643590 0.246191
O O4 0.591552 0.694796 0.000000
O O5 0.692829 0.871425 0.246813
O O6 0.794849 0.776569 0.231712
O O7 0.750311 0.840110 0.000000
O O8 0.290527 0.457472 0.279375
O O9 0.174717 0.479734 0.168558
O O10 0.276813 0.496598 0.000000
O O11 0.082200 0.639648 0.500000
O O12 0.091772 0.566441 0.729246
O O13 0.007328 0.661814 0.734854
O O14 0.348686 0.769929 0.764517
O O15 0.373657 0.700187 0.000000
O O16 0.936981 0.559536 0.224376
O O17 0.920221 0.476868 0.000000
O O18 0.887078 0.682854 0.779229
O O19 0.958087 0.638411 0.000000
O O20 0.802619 0.695099 0.000000
#
# Coordination Sequence:
#
# PCOD8303149 Si02
#       8
#     8   8   8   8   8   8   8   8
#     4  10  19  34  52  71  95 124 160 203 248 294
#     4   8  16  30  49  69  92 122 157 198 243 287
#     4  11  20  33  52  73  96 125 162 205 247 290
#     4  11  21  32  46  70 100 131 165 200 243 289
#     4  11  21  32  49  74  98 123 158 201 251 299
#     4  10  20  33  47  66  96 132 170 201 234 282
#     4  10  20  34  49  67  94 134 171 200 241 288
#     4   9  17  34  53  68  91 126 166 205 244 289
#
# _framework density 16.681066000000001
#
# number of rings (size 3 to 8) (size 9 to 14) (size 15 to 20)
#    0.000    2.000    2.500    3.375    0.000    3.000 
#    0.000    0.625    0.000    0.375    0.000    2.625 
#    0.000    0.500    0.000    6.250    0.000    0.000 
#
# Total GULP energy -792931.380434 kJ/mol
# GULP energy per Si atom -12389.552819 kJ/mol
# Density = 1.664310 g / cm^3
# Si number density = 16.681066 Si / 1000 Ang^3
#
#
#
# Elastic Constant Matrix: (Units=GPa)
#
#
# Indices 1 2 3 4 5 6 
#
# 1 68.4313 42.4422 25.6242 0.0000 0.0000 -0.8211
# 2 42.4422 68.4313 25.6242 0.0000 0.0000 0.8211
# 3 25.6242 25.6242 67.4960 0.0000 0.0000 0.0000
# 4 0.0000 0.0000 0.0000 19.8964 0.0000 0.0000
# 5 0.0000 0.0000 0.0000 0.0000 19.8964 0.0000
# 6 -0.8211 0.8211 0.0000 0.0000 0.0000 24.5874
#
#
#
# Elastic Compliance Matrix: (Units=1/GPa)
#
#
# Indices 1 2 3 4 5 6 
#
# 1 0.024749 -0.013810 -0.004153 0.000000 0.000000 0.001288
# 2 -0.013810 0.024749 -0.004153 0.000000 0.000000 -0.001288
# 3 -0.004153 -0.004153 0.017969 0.000000 0.000000 0.000000
# 4 0.000000 0.000000 0.000000 0.050260 0.000000 0.000000
# 5 0.000000 0.000000 0.000000 0.000000 0.050260 0.000000
# 6 0.001288 -0.001288 0.000000 0.000000 0.000000 0.040757
#
#
# Mechanical properties :
#
#
# Convention : Reuss Voigt Hill
#
# Bulk Modulus (GPa) = 43.03812 43.52665 43.28238
# Shear Modulus (GPa) = 19.17759 20.25392 19.71575
#
# Velocity S-wave (km/s) = 3.39434 3.48830 3.44164
# Velocity P-wave (km/s) = 6.42018 6.50956 6.46502
#
# Compressibility (1/GPa) = 0.02323522
#
# Stress axis : x y z
#
# Youngs Moduli (GPa) = 40.40580 40.40580 55.65185
#
# Poissons Ratio (x) = 0.55801 0.23111
# Poissons Ratio (y) = 0.55801 0.23111
# Poissons Ratio (z) = 0.16780 0.16780
#
# Static dielectric constant tensor:
#      x y z
#    x 3.145720 0.000000 0.000000 
#    y 0.000000 3.145720 0.000000 
#    z 0.000000 0.000000 3.091500 
# 
# 
# High freq. dielectric constant tensor:
#      x y z
#    x 1.624280 0.000000 0.000000 
#    y 0.000000 1.624280 0.000000 
#    z 0.000000 0.000000 1.635770 
# 
# From -- ./inp_files/1349.got.cif
#   From: 2010.03.12/outbox.cif.g09.slc.cpg/sg84_1_cif.got.tgz:1349.got - 2010.04.08 20:07:29.
