data_PCOD8303093
_publ_section_title
;
Structure prediction by ZEFSAII (Michael W. Deem and Ramdas Pophale) SiO2 
 PCOD8303093
Probable space group: P 42/M
;
_chemical_formula_sum "Si O2"
_cell_formula_units_Z 40
_cell_length_a 13.451983
_cell_length_b 13.451983
_cell_length_c 13.701901
_cell_angle_alpha 90.000000
_cell_angle_beta 90.000000
_cell_angle_gamma 90.000000
_cell_volume 2479.439096
_symmetry_space_group_name_H-M "P 42/M"
_symmetry_group_IT_number 84
_symmetry_cell_setting 'tetragonal'
loop_
_space_group_symop_operation_xyz
x,y,z
-y,x,1/2+z
-x,-y,z
y,-x,1/2+z
-x,-y,-z
y,-x,1/2-z
x,y,-z
-y,x,1/2-z
loop_
_atom_site_type_symbol
_atom_site_label
_atom_site_fract_x
_atom_site_fract_y
_atom_site_fract_z
Si Si1 0.605912 0.966711 0.245636
Si Si2 0.542111 0.802952 0.892306
Si Si3 0.678341 0.799411 0.613290
Si Si4 0.571548 0.646703 0.743039
Si Si5 0.866736 0.675739 0.389893
O O1 0.579539 0.906506 0.149015
O O2 0.663095 0.901868 0.326741
O O3 0.500000 0.000000 0.292811
O O4 0.673800 0.055450 0.200818
O O5 0.593763 0.712496 0.837195
O O6 0.422787 0.798670 0.886141
O O7 0.583371 0.794125 0.000000
O O8 0.653966 0.819199 0.500000
O O9 0.606571 0.709499 0.648801
O O10 0.793213 0.768422 0.628111
O O11 0.630010 0.546032 0.762859
O O12 0.914305 0.683625 0.500000
#
# Coordination Sequence:
#
# PCOD8303093 Si02
#       5
#     8   8   8   8   8
#     4   9  18  31  51  73  98 126 163 205 249 290
#     4   9  16  28  46  69  93 123 164 206 242 281
#     4  10  20  33  50  73 100 132 168 202 244 297
#     4  10  19  29  43  66 101 140 170 198 234 282
#     4   9  16  30  51  72  93 120 160 207 247 289
#
# _framework density 16.132680000000001
#
# number of rings (size 3 to 8) (size 9 to 14) (size 15 to 20)
#    0.000    2.600    2.000    0.600    0.000    3.600 
#    0.000    2.000    0.000    3.000    0.000    2.800 
#    0.000    0.000    0.000    0.000    0.000    0.000 
#
# Total GULP energy -495656.371869 kJ/mol
# GULP energy per Si atom -12391.409297 kJ/mol
# Density = 1.609596 g / cm^3
# Si number density = 16.132680 Si / 1000 Ang^3
#
#
#
# Elastic Constant Matrix: (Units=GPa)
#
#
# Indices 1 2 3 4 5 6 
#
# 1 72.6359 31.7238 47.1225 0.0000 0.0000 1.1864
# 2 31.7238 72.6359 47.1225 0.0000 0.0000 -1.1864
# 3 47.1225 47.1225 116.4917 0.0000 0.0000 0.0000
# 4 0.0000 0.0000 0.0000 16.7753 0.0000 0.0000
# 5 0.0000 0.0000 0.0000 0.0000 16.7753 0.0000
# 6 1.1864 -1.1864 0.0000 0.0000 0.0000 19.2758
#
#
#
# Elastic Compliance Matrix: (Units=1/GPa)
#
#
# Indices 1 2 3 4 5 6 
#
# 1 0.019814 -0.004716 -0.006107 0.000000 0.000000 -0.001510
# 2 -0.004716 0.019814 -0.006107 0.000000 0.000000 0.001510
# 3 -0.006107 -0.006107 0.013525 0.000000 0.000000 0.000000
# 4 0.000000 0.000000 0.000000 0.059611 0.000000 0.000000
# 5 0.000000 0.000000 0.000000 0.000000 0.059611 0.000000
# 6 -0.001510 0.001510 0.000000 0.000000 0.000000 0.052064
#
#
# Mechanical properties :
#
#
# Convention : Reuss Voigt Hill
#
# Bulk Modulus (GPa) = 51.83618 57.07789 54.45704
# Shear Modulus (GPa) = 18.88704 19.61826 19.25265
#
# Velocity S-wave (km/s) = 3.42531 3.49098 3.45830
# Velocity P-wave (km/s) = 6.91698 7.19072 7.05517
#
# Compressibility (1/GPa) = 0.01929155
#
# Stress axis : x y z
#
# Youngs Moduli (GPa) = 50.46974 50.46974 73.93634
#
# Poissons Ratio (x) = 0.23803 0.45154
# Poissons Ratio (y) = 0.23803 0.45154
# Poissons Ratio (z) = 0.30823 0.30823
#
# Static dielectric constant tensor:
#      x y z
#    x 2.986530 0.000000 0.000000 
#    y 0.000000 2.986530 0.000000 
#    z 0.000000 0.000000 3.033800 
# 
# 
# High freq. dielectric constant tensor:
#      x y z
#    x 1.604970 0.000000 0.000000 
#    y 0.000000 1.604970 0.000000 
#    z 0.000000 0.000000 1.620240 
# 
# From -- ./inp_files/2022.got.cif
#   From: 2010.03.12/outbox.cif.g09.slc.cpg/sg84_2_cif.got.tgz:2022.got - 2010.04.08 20:07:29.
