data_PCOD8303542
_publ_section_title
;
Structure prediction by ZEFSAII (Michael W. Deem and Ramdas Pophale) SiO2 
 PCOD8303542
Probable space group: P 42/N
;
_chemical_formula_sum "Si O2"
_cell_formula_units_Z 48
_cell_length_a 8.545251
_cell_length_b 8.545251
_cell_length_c 28.647810
_cell_angle_alpha 90.000000
_cell_angle_beta 90.000000
_cell_angle_gamma 90.000000
_cell_volume 2091.900748
_symmetry_space_group_name_H-M "P 42/N"
_symmetry_group_IT_number 86
_space_group.IT_coordinate_system_code '2'
_symmetry_cell_setting 'tetragonal'
loop_
_space_group_symop_operation_xyz
x,y,z
-y,1/2+x,1/2+z
1/2-x,1/2-y,z
1/2+y,-x,1/2+z
-x,-y,-z
y,1/2-x,1/2-z
1/2+x,1/2+y,-z
1/2-y,x,1/2-z
loop_
_atom_site_type_symbol
_atom_site_label
_atom_site_fract_x
_atom_site_fract_y
_atom_site_fract_z
Si Si1 0.358008 0.388340 0.184492
Si Si2 0.269041 0.564711 0.390397
Si Si3 0.925254 0.889296 0.225621
Si Si4 0.934429 0.965283 0.949283
Si Si5 0.350793 0.954528 0.107244
Si Si6 0.915002 0.812707 0.118238
O O1 0.250000 0.250000 0.204498
O O2 0.503797 0.317408 0.156132
O O3 0.430526 0.487256 0.227992
O O4 0.259940 0.505230 0.151256
O O5 0.250000 0.750000 0.395155
O O6 0.449295 0.513038 0.388656
O O7 0.215926 0.463578 0.436400
O O8 0.967783 0.732967 0.254317
O O9 0.895061 0.845914 0.172394
O O10 0.753660 0.017708 0.940013
O O11 0.057709 0.033510 0.911671
O O12 0.000000 0.000000 0.000000
O O13 0.421548 0.780844 0.108439
O O14 0.750000 0.750000 0.098898
#
# Coordination Sequence:
#
# PCOD8303542 Si02
#       6
#     8   8   8   8   8   8
#     4   9  20  42  71 101 139 191 236 294 372 435
#     4  10  20  38  67 100 136 184 235 295 362 435
#     4  11  22  39  74 111 146 184 254 308 368 454
#     4  11  24  42  65 100 141 192 246 293 363 448
#     4  10  22  40  73  97 142 189 236 296 373 435
#     4  12  23  42  70 106 143 190 236 309 378 438
#
# _framework density 22.945637999999999
#
# number of rings (size 3 to 8) (size 9 to 14) (size 15 to 20)
#    0.000    1.500    5.000    3.000    0.000    2.667 
#    0.000    2.500   18.333    4.000    0.000    0.000 
#    0.000    0.000    0.000    0.000    0.000    0.000 
#
# Total GULP energy -594729.397470 kJ/mol
# GULP energy per Si atom -12390.195781 kJ/mol
# Density = 2.289341 g / cm^3
# Si number density = 22.945638 Si / 1000 Ang^3
#
#
#
# Elastic Constant Matrix: (Units=GPa)
#
#
# Indices 1 2 3 4 5 6 
#
# 1 120.4951 36.8822 38.3502 0.0000 0.0000 -5.1584
# 2 36.8822 120.4951 38.3502 0.0000 0.0000 5.1584
# 3 38.3502 38.3502 110.3243 0.0000 0.0000 0.0000
# 4 0.0000 0.0000 0.0000 24.5689 0.0000 0.0000
# 5 0.0000 0.0000 0.0000 0.0000 24.5689 0.0000
# 6 -5.1584 5.1584 0.0000 0.0000 0.0000 51.4185
#
#
#
# Elastic Compliance Matrix: (Units=1/GPa)
#
#
# Indices 1 2 3 4 5 6 
#
# 1 0.009880 -0.002230 -0.002659 0.000000 0.000000 0.001215
# 2 -0.002230 0.009880 -0.002659 0.000000 0.000000 -0.001215
# 3 -0.002659 -0.002659 0.010913 0.000000 0.000000 0.000000
# 4 0.000000 0.000000 0.000000 0.040702 0.000000 0.000000
# 5 0.000000 0.000000 0.000000 0.000000 0.040702 0.000000
# 6 0.001215 -0.001215 0.000000 0.000000 0.000000 0.019692
#
#
# Mechanical properties :
#
#
# Convention : Reuss Voigt Hill
#
# Bulk Modulus (GPa) = 64.20059 64.27552 64.23805
# Shear Modulus (GPa) = 32.88227 35.96006 34.42116
#
# Velocity S-wave (km/s) = 3.78967 3.96306 3.87734
# Velocity P-wave (km/s) = 6.86943 7.00100 6.93553
#
# Compressibility (1/GPa) = 0.01557618
#
# Stress axis : x y z
#
# Youngs Moduli (GPa) = 101.21460 101.21460 91.63375
#
# Poissons Ratio (x) = 0.22569 0.24368
# Poissons Ratio (y) = 0.22569 0.24368
# Poissons Ratio (z) = 0.26916 0.26916
#
# Static dielectric constant tensor:
#      x y z
#    x 4.424850 0.000000 0.000000 
#    y 0.000000 4.424850 0.000000 
#    z 0.000000 0.000000 3.869670 
# 
# 
# High freq. dielectric constant tensor:
#      x y z
#    x 1.921360 0.000000 0.000000 
#    y 0.000000 1.921360 0.000000 
#    z 0.000000 0.000000 1.870550 
# 
# From -- ./inp_files/5172.got.cif
#   From: 2010.03.12/outbox.cif.g09.slc.cpg/sg86_3_cif.got.tgz:5172.got - 2010.04.08 20:12:58.
