data_PCOD8303523
_publ_section_title
;
Structure prediction by ZEFSAII (Michael W. Deem and Ramdas Pophale) SiO2 
 PCOD8303523
Probable space group: P 42/N
;
_chemical_formula_sum "Si O2"
_cell_formula_units_Z 48
_cell_length_a 9.352604
_cell_length_b 9.352604
_cell_length_c 28.879879
_cell_angle_alpha 90.000000
_cell_angle_beta 90.000000
_cell_angle_gamma 90.000000
_cell_volume 2526.157718
_symmetry_space_group_name_H-M "P 42/N"
_symmetry_group_IT_number 86
_space_group.IT_coordinate_system_code '2'
_symmetry_cell_setting 'tetragonal'
loop_
_space_group_symop_operation_xyz
x,y,z
-y,1/2+x,1/2+z
1/2-x,1/2-y,z
1/2+y,-x,1/2+z
-x,-y,-z
y,1/2-x,1/2-z
1/2+x,1/2+y,-z
1/2-y,x,1/2-z
loop_
_atom_site_type_symbol
_atom_site_label
_atom_site_fract_x
_atom_site_fract_y
_atom_site_fract_z
Si Si1 0.104670 0.822766 0.027286
Si Si2 0.913336 0.252862 0.217472
Si Si3 0.851066 0.617664 0.549056
Si Si4 0.508194 0.392264 0.309839
Si Si5 0.740259 0.081563 0.373652
Si Si6 0.927278 0.603433 0.650689
O O1 0.250000 0.750000 0.013890
O O2 0.024878 0.757150 0.073129
O O3 0.149370 0.986266 0.035851
O O4 0.009015 0.793940 0.982744
O O5 0.750000 0.250000 0.199268
O O6 0.912772 0.201114 0.270505
O O7 0.982921 0.409970 0.211558
O O8 0.011887 0.143994 0.190299
O O9 0.750000 0.750000 0.538387
O O10 0.843967 0.573870 0.602941
O O11 0.626573 0.471724 0.342306
O O12 0.417887 0.274909 0.339134
O O13 0.750000 0.250000 0.378805
O O14 0.589554 0.043816 0.350162
#
# Coordination Sequence:
#
# PCOD8303523 Si02
#       6
#     8   8   8   8   8   8
#     4   9  19  36  57  82 112 153 193 234 289 344
#     4  12  24  36  56  87 114 143 189 237 279 331
#     4  10  20  35  56  86 115 147 194 244 284 342
#     4  11  21  38  61  82 110 150 191 234 282 345
#     4   8  17  36  61  81 108 150 194 230 280 350
#     4  10  20  37  59  83 113 147 188 237 288 334
#
# _framework density 19.001187999999999
#
# number of rings (size 3 to 8) (size 9 to 14) (size 15 to 20)
#    0.000    2.000    1.667    4.000    0.000    1.333 
#    0.000    5.833    0.000    0.000    0.000    0.000 
#    0.000    0.000    0.000    0.000    0.000    0.000 
#
# Total GULP energy -595025.914473 kJ/mol
# GULP energy per Si atom -12396.373218 kJ/mol
# Density = 1.895794 g / cm^3
# Si number density = 19.001188 Si / 1000 Ang^3
#
#
#
# Elastic Constant Matrix: (Units=GPa)
#
#
# Indices 1 2 3 4 5 6 
#
# 1 78.9294 44.6988 39.6668 0.0000 0.0000 2.7393
# 2 44.6988 78.9294 39.6668 0.0000 0.0000 -2.7393
# 3 39.6668 39.6668 115.5257 0.0000 0.0000 0.0000
# 4 0.0000 0.0000 0.0000 18.1930 0.0000 0.0000
# 5 0.0000 0.0000 0.0000 0.0000 18.1930 0.0000
# 6 2.7393 -2.7393 0.0000 0.0000 0.0000 19.0997
#
#
#
# Elastic Compliance Matrix: (Units=1/GPa)
#
#
# Indices 1 2 3 4 5 6 
#
# 1 0.020137 -0.009763 -0.003562 0.000000 0.000000 -0.004288
# 2 -0.009763 0.020137 -0.003562 0.000000 0.000000 0.004288
# 3 -0.003562 -0.003562 0.011102 0.000000 0.000000 0.000000
# 4 0.000000 0.000000 0.000000 0.054966 0.000000 0.000000
# 5 0.000000 0.000000 0.000000 0.000000 0.054966 0.000000
# 6 -0.004288 0.004288 0.000000 0.000000 0.000000 0.053587
#
#
# Mechanical properties :
#
#
# Convention : Reuss Voigt Hill
#
# Bulk Modulus (GPa) = 56.80929 57.93882 57.37406
# Shear Modulus (GPa) = 19.64344 21.05396 20.34870
#
# Velocity S-wave (km/s) = 3.21877 3.33233 3.27604
# Velocity P-wave (km/s) = 6.61639 6.73530 6.67611
#
# Compressibility (1/GPa) = 0.01760275
#
# Stress axis : x y z
#
# Youngs Moduli (GPa) = 49.65904 49.65904 90.07102
#
# Poissons Ratio (x) = 0.48480 0.32086
# Poissons Ratio (y) = 0.48480 0.32086
# Poissons Ratio (z) = 0.17690 0.17690
#
# Static dielectric constant tensor:
#      x y z
#    x 3.420570 0.000000 0.000000 
#    y 0.000000 3.420570 0.000000 
#    z 0.000000 0.000000 3.848430 
# 
# 
# High freq. dielectric constant tensor:
#      x y z
#    x 1.721450 0.000000 0.000000 
#    y 0.000000 1.721450 0.000000 
#    z 0.000000 0.000000 1.756400 
# 
# From -- ./inp_files/5142.got.cif
#   From: 2010.03.12/outbox.cif.g09.slc.cpg/sg86_3_cif.got.tgz:5142.got - 2010.04.08 20:12:58.
