data_PCOD8303731
_publ_section_title
;
Structure prediction by ZEFSAII (Michael W. Deem and Ramdas Pophale) SiO2 
 PCOD8303731
Probable space group: I 4/M
;
_chemical_formula_sum "Si O2"
_cell_formula_units_Z 64
_cell_length_a 13.974489
_cell_length_b 13.974489
_cell_length_c 18.484068
_cell_angle_alpha 90.000000
_cell_angle_beta 90.000000
_cell_angle_gamma 90.000000
_cell_volume 3609.686040
_symmetry_space_group_name_H-M "I 4/M"
_symmetry_group_IT_number 87
_symmetry_cell_setting 'tetragonal'
loop_
_space_group_symop_operation_xyz
x,y,z
-y,x,z
-x,-y,z
y,-x,z
-x,-y,-z
y,-x,-z
x,y,-z
-y,x,-z
1/2+x,1/2+y,1/2+z
1/2-y,1/2+x,1/2+z
1/2-x,1/2-y,1/2+z
1/2+y,1/2-x,1/2+z
1/2-x,1/2-y,1/2-z
1/2+y,1/2-x,1/2-z
1/2+x,1/2+y,1/2-z
1/2-y,1/2+x,1/2-z
loop_
_atom_site_type_symbol
_atom_site_label
_atom_site_fract_x
_atom_site_fract_y
_atom_site_fract_z
Si Si1 0.930435 0.232523 0.418577
Si Si2 0.920351 0.863276 0.801159
Si Si3 0.805450 0.767151 0.082528
Si Si4 0.778058 0.121684 0.653560
O O1 0.963509 0.210401 0.500000
O O2 0.849008 0.316139 0.416887
O O3 0.882579 0.136606 0.384160
O O4 0.021292 0.266326 0.372340
O O5 0.895075 0.817048 0.878783
O O6 0.879147 0.792260 0.739868
O O7 0.033888 0.870666 0.794407
O O8 0.707512 0.792674 0.127468
O O9 0.798228 0.804993 0.000000
#
# Coordination Sequence:
#
# PCOD8303731 Si02
#       4
#    16  16  16  16
#     4   9  17  29  50  78 106 132 158 198 258 314
#     4  11  21  34  52  76 103 137 175 213 253 297
#     4   9  20  34  49  72 103 139 174 211 251 296
#     4  10  17  31  51  78 107 130 160 204 259 312
#
# _framework density 17.730073999999998
#
# number of rings (size 3 to 8) (size 9 to 14) (size 15 to 20)
#    1.500    0.750    2.500    2.250    0.000    1.500 
#    0.000    2.500    0.000    1.500    0.000    8.750 
#    0.000    0.000    0.000    0.000    0.000    0.000 
#
# Total GULP energy -396470.718601 kJ/mol
# GULP energy per Si atom -12389.709956 kJ/mol
# Density = 1.768972 g / cm^3
# Si number density = 17.730074 Si / 1000 Ang^3
#
#
#
# Elastic Constant Matrix: (Units=GPa)
#
#
# Indices 1 2 3 4 5 6 
#
# 1 26.1552 20.9218 31.7495 0.0000 0.0000 1.3762
# 2 20.9218 26.1552 31.7495 0.0000 0.0000 -1.3762
# 3 31.7495 31.7495 138.8998 0.0000 0.0000 0.0000
# 4 0.0000 0.0000 0.0000 28.6812 0.0000 0.0000
# 5 0.0000 0.0000 0.0000 0.0000 28.6812 0.0000
# 6 1.3762 -1.3762 0.0000 0.0000 0.0000 21.7958
#
#
#
# Elastic Compliance Matrix: (Units=1/GPa)
#
#
# Indices 1 2 3 4 5 6 
#
# 1 0.114176 -0.083466 -0.007020 0.000000 0.000000 -0.012479
# 2 -0.083466 0.114176 -0.007020 0.000000 0.000000 0.012479
# 3 -0.007020 -0.007020 0.010409 0.000000 0.000000 0.000000
# 4 0.000000 0.000000 0.000000 0.034866 0.000000 0.000000
# 5 0.000000 0.000000 0.000000 0.000000 0.034866 0.000000
# 6 -0.012479 0.012479 0.000000 0.000000 0.000000 0.047456
#
#
# Mechanical properties :
#
#
# Convention : Reuss Voigt Hill
#
# Bulk Modulus (GPa) = 22.85704 40.00575 31.43140
# Shear Modulus (GPa) = 8.84105 22.95094 15.89599
#
# Velocity S-wave (km/s) = 2.23546 3.60177 2.99750
# Velocity P-wave (km/s) = 4.42524 6.31742 5.45401
#
# Compressibility (1/GPa) = 0.04375019
#
# Stress axis : x y z
#
# Youngs Moduli (GPa) = 8.75839 8.75839 96.07497
#
# Poissons Ratio (x) = 0.73103 0.67442
# Poissons Ratio (y) = 0.73103 0.67442
# Poissons Ratio (z) = 0.06148 0.06148
#
# Static dielectric constant tensor:
#      x y z
#    x 2.902170 0.000000 0.000000 
#    y 0.000000 2.902170 0.000000 
#    z 0.000000 0.000000 3.292490 
# 
# 
# High freq. dielectric constant tensor:
#      x y z
#    x 1.649620 0.000000 0.000000 
#    y 0.000000 1.649620 0.000000 
#    z 0.000000 0.000000 1.702830 
# 
# From -- ./inp_files/4170.got.cif
#   From: 2010.03.12/outbox.cif.g09.slc.cpg/sg87_3_cif.got.tgz:4170.got - 2010.04.08 20:16:13.
