data_PCOD8303065
_publ_section_title
;
Structure prediction by ZEFSAII (Michael W. Deem and Ramdas Pophale) SiO2 
 PCOD8303065
Probable space group: P 42/M
;
_chemical_formula_sum "Si O2"
_cell_formula_units_Z 64
_cell_length_a 20.220144
_cell_length_b 20.220144
_cell_length_c 8.669589
_cell_angle_alpha 90.000000
_cell_angle_beta 90.000000
_cell_angle_gamma 90.000000
_cell_volume 3544.598078
_symmetry_space_group_name_H-M "P 42/M"
_symmetry_group_IT_number 84
_symmetry_cell_setting 'tetragonal'
loop_
_space_group_symop_operation_xyz
x,y,z
-y,x,1/2+z
-x,-y,z
y,-x,1/2+z
-x,-y,-z
y,-x,1/2-z
x,y,-z
-y,x,1/2-z
loop_
_atom_site_type_symbol
_atom_site_label
_atom_site_fract_x
_atom_site_fract_y
_atom_site_fract_z
Si Si1 0.407423 0.130188 0.682035
Si Si2 0.553287 0.130467 0.678341
Si Si3 0.092510 0.028491 0.678700
Si Si4 0.908467 0.753760 0.678826
Si Si5 0.323953 0.794372 0.677859
Si Si6 0.134050 0.831842 0.679707
Si Si7 0.011038 0.355293 0.183420
Si Si8 0.298052 0.213514 0.177543
O O1 0.410792 0.128976 0.500000
O O2 0.480998 0.139131 0.755348
O O3 0.362946 0.192960 0.729324
O O4 0.377355 0.061113 0.743218
O O5 0.541023 0.116737 0.500000
O O6 0.596626 0.198449 0.701514
O O7 0.591416 0.065681 0.742832
O O8 0.093372 0.007841 0.500000
O O9 0.160818 0.064777 0.728042
O O10 0.034119 0.081207 0.711866
O O11 0.916670 0.771714 0.500000
O O12 0.845737 0.706405 0.702838
O O13 0.894758 0.819890 0.776657
O O14 0.973674 0.715992 0.740751
O O15 0.305566 0.814762 0.500000
O O16 0.291133 0.721982 0.708942
O O17 0.119063 0.833540 0.500000
O O18 0.168412 0.763683 0.731156
O O19 0.013985 0.348238 0.000000
O O20 0.314279 0.201660 0.000000
#
# Coordination Sequence:
#
# PCOD8303065 Si02
#       8
#     8   8   8   8   8   8   8   8
#     4  10  19  29  46  71  96 122 153 192 232 269
#     4   8  14  28  50  70  87 117 164 202 222 258
#     4  11  22  37  54  71  89 111 143 188 241 292
#     4  10  18  28  45  69  91 115 154 198 236 273
#     4   8  15  31  51  65  84 120 160 191 222 266
#     4  10  20  36  53  67  87 120 159 195 235 282
#     4   9  17  30  45  63  93 130 162 189 224 274
#     4   9  19  33  48  67  94 124 148 180 229 278
#
# _framework density 18.055644000000001
#
# number of rings (size 3 to 8) (size 9 to 14) (size 15 to 20)
#    0.000    2.625    0.000    4.875    0.000    5.500 
#    0.000    5.000    0.000    3.750    0.000    0.000 
#    0.000    0.500    0.000    6.250    0.000    0.000 
#
# Total GULP energy -793002.885118 kJ/mol
# GULP energy per Si atom -12390.670080 kJ/mol
# Density = 1.801455 g / cm^3
# Si number density = 18.055644 Si / 1000 Ang^3
#
#
#
# Elastic Constant Matrix: (Units=GPa)
#
#
# Indices 1 2 3 4 5 6 
#
# 1 57.3817 39.5108 6.8587 0.0000 0.0000 -3.4344
# 2 39.5108 57.3817 6.8587 0.0000 0.0000 3.4344
# 3 6.8587 6.8587 40.9709 0.0000 0.0000 0.0000
# 4 0.0000 0.0000 0.0000 18.0190 0.0000 0.0000
# 5 0.0000 0.0000 0.0000 0.0000 18.0190 0.0000
# 6 -3.4344 3.4344 0.0000 0.0000 0.0000 22.9457
#
#
#
# Elastic Compliance Matrix: (Units=1/GPa)
#
#
# Indices 1 2 3 4 5 6 
#
# 1 0.034972 -0.024401 -0.001770 0.000000 0.000000 0.008887
# 2 -0.024401 0.034972 -0.001770 0.000000 0.000000 -0.008887
# 3 -0.001770 -0.001770 0.025000 0.000000 0.000000 0.000000
# 4 0.000000 0.000000 0.000000 0.055497 0.000000 0.000000
# 5 0.000000 0.000000 0.000000 0.000000 0.055497 0.000000
# 6 0.008887 -0.008887 0.000000 0.000000 0.000000 0.046241
#
#
# Mechanical properties :
#
#
# Convention : Reuss Voigt Hill
#
# Bulk Modulus (GPa) = 25.59909 29.13230 27.36570
# Shear Modulus (GPa) = 15.57241 18.63048 17.10144
#
# Velocity S-wave (km/s) = 2.93997 3.21571 3.08092
# Velocity P-wave (km/s) = 5.07279 5.47334 5.27687
#
# Compressibility (1/GPa) = 0.03906388
#
# Stress axis : x y z
#
# Youngs Moduli (GPa) = 28.59434 28.59434 39.99992
#
# Poissons Ratio (x) = 0.69772 0.07079
# Poissons Ratio (y) = 0.69772 0.07079
# Poissons Ratio (z) = 0.05060 0.05060
#
# Static dielectric constant tensor:
#      x y z
#    x 3.428780 0.000000 0.000000 
#    y 0.000000 3.428780 0.000000 
#    z 0.000000 0.000000 3.093280 
# 
# 
# High freq. dielectric constant tensor:
#      x y z
#    x 1.677800 0.000000 0.000000 
#    y 0.000000 1.677800 0.000000 
#    z 0.000000 0.000000 1.680650 
# 
# From -- ./inp_files/1404.got.cif
#   From: 2010.03.12/outbox.cif.g09.slc.cpg/sg84_1_cif.got.tgz:1404.got - 2010.04.08 20:07:29.
