data_PCOD8303554
_publ_section_title
;
Structure prediction by ZEFSAII (Michael W. Deem and Ramdas Pophale) SiO2 
 PCOD8303554
Probable space group: P 42/N
;
_chemical_formula_sum "Si O2"
_cell_formula_units_Z 60
_cell_length_a 11.815773
_cell_length_b 11.815773
_cell_length_c 21.039111
_cell_angle_alpha 90.000000
_cell_angle_beta 90.000000
_cell_angle_gamma 90.000000
_cell_volume 2937.322707
_symmetry_space_group_name_H-M "P 42/N"
_symmetry_group_IT_number 86
_space_group.IT_coordinate_system_code '2'
_symmetry_cell_setting 'tetragonal'
loop_
_space_group_symop_operation_xyz
x,y,z
-y,1/2+x,1/2+z
1/2-x,1/2-y,z
1/2+y,-x,1/2+z
-x,-y,-z
y,1/2-x,1/2-z
1/2+x,1/2+y,-z
1/2-y,x,1/2-z
loop_
_atom_site_type_symbol
_atom_site_label
_atom_site_fract_x
_atom_site_fract_y
_atom_site_fract_z
Si Si1 0.857172 0.826329 0.466446
Si Si2 0.428468 0.261048 0.766031
Si Si3 0.091642 0.302471 0.222048
Si Si4 0.042269 0.682241 0.104448
Si Si5 0.589795 0.929005 0.907096
Si Si6 0.906569 0.164889 0.571927
Si Si7 0.750000 0.250000 0.464934
Si Si8 0.841368 0.165534 0.710558
O O1 0.750000 0.750000 0.451535
O O2 0.899764 0.816930 0.539505
O O3 0.963202 0.791148 0.421056
O O4 0.820896 0.954511 0.453038
O O5 0.367107 0.156906 0.730537
O O6 0.475139 0.228428 0.834852
O O7 0.532255 0.297911 0.723488
O O8 0.169750 0.375068 0.270968
O O9 0.114141 0.343915 0.150702
O O10 0.959491 0.318737 0.238028
O O11 0.097249 0.558341 0.118159
O O12 0.141991 0.767003 0.081621
O O13 0.469024 0.910547 0.940799
O O14 0.856809 0.229590 0.510897
O O15 0.830805 0.179403 0.634613
O O16 0.750000 0.250000 0.742506
#
# Coordination Sequence:
#
# PCOD8303554 Si02
#       8
#     8   8   8   8   8   8   4   8
#     4  11  22  38  67  96 127 169 221 266 334 398
#     4  11  26  45  68  98 134 174 226 286 337 397
#     4  10  24  42  65  93 135 177 224 276 330 401
#     4  11  24  41  70  95 129 177 222 276 332 401
#     4  10  20  42  65  93 127 177 221 260 335 407
#     4  10  20  42  65  92 128 173 216 270 322 404
#     4  12  20  40  68 102 132 164 222 278 340 388
#     4  11  25  41  71  95 131 180 224 272 345 409
#
# _framework density 20.426766000000001
#
# number of rings (size 3 to 8) (size 9 to 14) (size 15 to 20)
#    0.000    1.333    3.333    3.200   10.267    0.000 
#    0.000    0.667    0.000    0.000    0.000    0.000 
#    0.000    0.000    0.000    0.000    0.000    0.000 
#
# Total GULP energy -743650.219788 kJ/mol
# GULP energy per Si atom -12394.170330 kJ/mol
# Density = 2.038027 g / cm^3
# Si number density = 20.426766 Si / 1000 Ang^3
#
#
#
# Elastic Constant Matrix: (Units=GPa)
#
#
# Indices 1 2 3 4 5 6 
#
# 1 126.2018 70.7186 40.2284 0.0000 0.0000 10.0275
# 2 70.7186 126.2018 40.2284 0.0000 0.0000 -10.0275
# 3 40.2284 40.2284 87.2316 0.0000 0.0000 0.0000
# 4 0.0000 0.0000 0.0000 30.4160 0.0000 0.0000
# 5 0.0000 0.0000 0.0000 0.0000 30.4160 0.0000
# 6 10.0275 -10.0275 0.0000 0.0000 0.0000 35.3181
#
#
#
# Elastic Compliance Matrix: (Units=1/GPa)
#
#
# Indices 1 2 3 4 5 6 
#
# 1 0.013171 -0.006914 -0.002886 0.000000 0.000000 -0.005702
# 2 -0.006914 0.013171 -0.002886 0.000000 0.000000 0.005702
# 3 -0.002886 -0.002886 0.014125 0.000000 0.000000 0.000000
# 4 0.000000 0.000000 0.000000 0.032877 0.000000 0.000000
# 5 0.000000 0.000000 0.000000 0.000000 0.032877 0.000000
# 6 -0.005702 0.005702 0.000000 0.000000 0.000000 0.031552
#
#
# Mechanical properties :
#
#
# Convention : Reuss Voigt Hill
#
# Bulk Modulus (GPa) = 66.23762 71.33177 68.78469
# Shear Modulus (GPa) = 29.73067 31.79400 30.76234
#
# Velocity S-wave (km/s) = 3.81921 3.94951 3.88491
# Velocity P-wave (km/s) = 7.20734 7.46959 7.33964
#
# Compressibility (1/GPa) = 0.01509716
#
# Stress axis : x y z
#
# Youngs Moduli (GPa) = 75.92480 75.92480 70.79524
#
# Poissons Ratio (x) = 0.52492 0.20429
# Poissons Ratio (y) = 0.52492 0.20429
# Poissons Ratio (z) = 0.21909 0.21909
#
# Static dielectric constant tensor:
#      x y z
#    x 3.801330 0.000000 0.000000 
#    y 0.000000 3.801330 0.000000 
#    z 0.000000 0.000000 3.678270 
# 
# 
# High freq. dielectric constant tensor:
#      x y z
#    x 1.793610 0.000000 0.000000 
#    y 0.000000 1.793610 0.000000 
#    z 0.000000 0.000000 1.800970 
# 
# From -- ./inp_files/4270.got.cif
#   From: 2010.03.12/outbox.cif.g09.slc.cpg/sg86_3_cif.got.tgz:4270.got - 2010.04.08 20:12:58.
