data_PCOD8303081
_publ_section_title
;
Structure prediction by ZEFSAII (Michael W. Deem and Ramdas Pophale) SiO2 
 PCOD8303081
Probable space group: P 42/M
;
_chemical_formula_sum "Si O2"
_cell_formula_units_Z 48
_cell_length_a 16.763186
_cell_length_b 16.763186
_cell_length_c 9.178026
_cell_angle_alpha 90.000000
_cell_angle_beta 90.000000
_cell_angle_gamma 90.000000
_cell_volume 2579.065734
_symmetry_space_group_name_H-M "P 42/M"
_symmetry_group_IT_number 84
_symmetry_cell_setting 'tetragonal'
loop_
_space_group_symop_operation_xyz
x,y,z
-y,x,1/2+z
-x,-y,z
y,-x,1/2+z
-x,-y,-z
y,-x,1/2-z
x,y,-z
-y,x,1/2-z
loop_
_atom_site_type_symbol
_atom_site_label
_atom_site_fract_x
_atom_site_fract_y
_atom_site_fract_z
Si Si1 0.278021 0.251250 0.826707
Si Si2 0.795127 0.986748 0.164185
Si Si3 0.170582 0.398250 0.828234
Si Si4 0.855744 0.158361 0.164464
Si Si5 0.178382 0.575255 0.168354
Si Si6 0.639152 0.992288 0.668985
O O1 0.234281 0.332544 0.768742
O O2 0.224157 0.179064 0.772051
O O3 0.365732 0.235223 0.760718
O O4 0.285026 0.251161 0.000000
O O5 0.860846 0.942973 0.266864
O O6 0.711429 0.962826 0.232715
O O7 0.802173 0.080964 0.170424
O O8 0.802548 0.955135 0.000000
O O9 0.202637 0.485629 0.783386
O O10 0.078921 0.389192 0.770892
O O11 0.166586 0.389760 0.000000
O O12 0.862408 0.191445 0.000000
O O13 0.081578 0.578024 0.190187
O O14 0.198553 0.591927 0.000000
O O15 0.664251 0.000067 0.500000
#
# Coordination Sequence:
#
# PCOD8303081 Si02
#       6
#     8   8   8   8   8   8
#     4  11  21  35  57  83 112 145 182 224 275 329
#     4  11  23  36  54  79 109 144 188 235 275 319
#     4   9  19  35  56  83 113 148 185 223 269 331
#     4  11  23  38  55  77 107 148 191 229 275 326
#     4  10  20  35  57  84 113 146 187 225 270 330
#     4  10  18  32  56  83 111 145 181 221 272 328
#
# _framework density 18.611391000000001
#
# number of rings (size 3 to 8) (size 9 to 14) (size 15 to 20)
#    0.000    1.667    3.333    2.000    0.000    4.333 
#    0.000    4.167    0.000    2.500    0.000    3.500 
#    0.000    0.000    0.000    0.000    0.000    0.000 
#
# Total GULP energy -594738.670317 kJ/mol
# GULP energy per Si atom -12390.388965 kJ/mol
# Density = 1.856903 g / cm^3
# Si number density = 18.611391 Si / 1000 Ang^3
#
#
#
# Elastic Constant Matrix: (Units=GPa)
#
#
# Indices 1 2 3 4 5 6 
#
# 1 97.6961 54.9412 39.8347 0.0000 0.0000 1.5288
# 2 54.9412 97.6961 39.8347 0.0000 0.0000 -1.5288
# 3 39.8347 39.8347 77.0213 0.0000 0.0000 0.0000
# 4 0.0000 0.0000 0.0000 22.0184 0.0000 0.0000
# 5 0.0000 0.0000 0.0000 0.0000 22.0184 0.0000
# 6 1.5288 -1.5288 0.0000 0.0000 0.0000 23.2663
#
#
#
# Elastic Compliance Matrix: (Units=1/GPa)
#
#
# Indices 1 2 3 4 5 6 
#
# 1 0.016237 -0.007263 -0.004641 0.000000 0.000000 -0.001544
# 2 -0.007263 0.016237 -0.004641 0.000000 0.000000 0.001544
# 3 -0.004641 -0.004641 0.017784 0.000000 0.000000 0.000000
# 4 0.000000 0.000000 0.000000 0.045417 0.000000 0.000000
# 5 0.000000 0.000000 0.000000 0.000000 0.045417 0.000000
# 6 -0.001544 0.001544 0.000000 0.000000 0.000000 0.043184
#
#
# Mechanical properties :
#
#
# Convention : Reuss Voigt Hill
#
# Bulk Modulus (GPa) = 58.25066 60.18163 59.21615
# Shear Modulus (GPa) = 22.41272 22.64747 22.53010
#
# Velocity S-wave (km/s) = 3.47399 3.49214 3.48308
# Velocity P-wave (km/s) = 6.88896 6.97611 6.93268
#
# Compressibility (1/GPa) = 0.01716719
#
# Stress axis : x y z
#
# Youngs Moduli (GPa) = 61.58861 61.58861 56.22944
#
# Poissons Ratio (x) = 0.44730 0.26098
# Poissons Ratio (y) = 0.44730 0.26098
# Poissons Ratio (z) = 0.28585 0.28585
#
# Static dielectric constant tensor:
#      x y z
#    x 3.461880 0.000000 0.000000 
#    y 0.000000 3.461880 0.000000 
#    z 0.000000 0.000000 3.341550 
# 
# 
# High freq. dielectric constant tensor:
#      x y z
#    x 1.713750 0.000000 0.000000 
#    y 0.000000 1.713750 0.000000 
#    z 0.000000 0.000000 1.710210 
# 
# From -- ./inp_files/1000.got.cif
#   From: 2010.03.12/outbox.cif.g09.slc.cpg/sg84_1_cif.got.tgz:1000.got - 2010.04.08 20:07:29.
