data_PCOD8303732
_publ_section_title
;
Structure prediction by ZEFSAII (Michael W. Deem and Ramdas Pophale) SiO2 
 PCOD8303732
Probable space group: I 4/M
;
_chemical_formula_sum "Si O2"
_cell_formula_units_Z 96
_cell_length_a 23.871198
_cell_length_b 23.871198
_cell_length_c 8.866572
_cell_angle_alpha 90.000000
_cell_angle_beta 90.000000
_cell_angle_gamma 90.000000
_cell_volume 5052.475022
_symmetry_space_group_name_H-M "I 4/M"
_symmetry_group_IT_number 87
_symmetry_cell_setting 'tetragonal'
loop_
_space_group_symop_operation_xyz
x,y,z
-y,x,z
-x,-y,z
y,-x,z
-x,-y,-z
y,-x,-z
x,y,-z
-y,x,-z
1/2+x,1/2+y,1/2+z
1/2-y,1/2+x,1/2+z
1/2-x,1/2-y,1/2+z
1/2+y,1/2-x,1/2+z
1/2-x,1/2-y,1/2-z
1/2+y,1/2-x,1/2-z
1/2+x,1/2+y,1/2-z
1/2-y,1/2+x,1/2-z
loop_
_atom_site_type_symbol
_atom_site_label
_atom_site_fract_x
_atom_site_fract_y
_atom_site_fract_z
Si Si1 0.050837 0.143583 0.175590
Si Si2 0.360503 0.434969 0.821989
Si Si3 0.955988 0.725979 0.823610
Si Si4 0.360805 0.146926 0.332645
Si Si5 0.436388 0.042817 0.333493
Si Si6 0.767063 0.572989 0.179001
O O1 0.100747 0.114874 0.265682
O O2 0.057544 0.209381 0.205313
O O3 0.992167 0.121150 0.240397
O O4 0.054321 0.128404 0.000000
O O5 0.297388 0.418969 0.774343
O O6 0.366613 0.443313 0.000000
O O7 0.903327 0.690492 0.750602
O O8 0.014682 0.709351 0.747000
O O9 0.961444 0.711289 0.000000
O O10 0.351049 0.171548 0.500000
O O11 0.385782 0.085039 0.337020
O O12 0.300321 0.129391 0.259777
O O13 0.446968 0.018390 0.500000
O O14 0.491827 0.076200 0.279324
O O15 0.774396 0.568903 0.000000
#
# Coordination Sequence:
#
# PCOD8303732 Si02
#       6
#    16  16  16  16  16  16
#     4  10  20  35  56  80 106 134 164 201 246 298
#     4  10  20  35  56  80 106 134 164 201 246 298
#     4   9  18  33  52  73 100 134 171 211 253 297
#     4   9  17  30  48  69  93 128 171 208 247 294
#     4  10  18  27  40  59  87 120 157 204 254 299
#     4   9  18  33  52  73 100 134 171 211 253 297
#
# _framework density 19.000589000000002
#
# number of rings (size 3 to 8) (size 9 to 14) (size 15 to 20)
#    0.000    2.500    0.000    3.000    0.000    1.667 
#    0.000    5.000    0.000    0.000    0.000    0.000 
#    0.000    0.000    0.000    0.000    0.000    0.000 
#
# Total GULP energy -594727.083230 kJ/mol
# GULP energy per Si atom -12390.147567 kJ/mol
# Density = 1.895734 g / cm^3
# Si number density = 19.000589 Si / 1000 Ang^3
#
#
#
# Elastic Constant Matrix: (Units=GPa)
#
#
# Indices 1 2 3 4 5 6 
#
# 1 71.1282 44.3008 13.4377 0.0000 0.0000 -1.6879
# 2 44.3008 71.1282 13.4377 0.0000 0.0000 1.6879
# 3 13.4377 13.4377 41.8225 0.0000 0.0000 0.0000
# 4 0.0000 0.0000 0.0000 24.0402 0.0000 0.0000
# 5 0.0000 0.0000 0.0000 0.0000 24.0402 0.0000
# 6 -1.6879 1.6879 0.0000 0.0000 0.0000 39.9533
#
#
#
# Elastic Compliance Matrix: (Units=1/GPa)
#
#
# Indices 1 2 3 4 5 6 
#
# 1 0.023419 -0.014055 -0.003009 0.000000 0.000000 0.001583
# 2 -0.014055 0.023419 -0.003009 0.000000 0.000000 -0.001583
# 3 -0.003009 -0.003009 0.025844 0.000000 0.000000 0.000000
# 4 0.000000 0.000000 0.000000 0.041597 0.000000 0.000000
# 5 0.000000 0.000000 0.000000 0.000000 0.041597 0.000000
# 6 0.001583 -0.001583 0.000000 0.000000 0.000000 0.025163
#
#
# Mechanical properties :
#
#
# Convention : Reuss Voigt Hill
#
# Bulk Modulus (GPa) = 30.73416 36.27015 33.50216
# Shear Modulus (GPa) = 21.54892 25.13357 23.34125
#
# Velocity S-wave (km/s) = 3.37132 3.64095 3.50873
# Velocity P-wave (km/s) = 5.60044 6.06677 5.83826
#
# Compressibility (1/GPa) = 0.03253709
#
# Stress axis : x y z
#
# Youngs Moduli (GPa) = 42.70009 42.70009 38.69381
#
# Poissons Ratio (x) = 0.60016 0.11642
# Poissons Ratio (y) = 0.60016 0.11642
# Poissons Ratio (z) = 0.12847 0.12847
#
# Static dielectric constant tensor:
#      x y z
#    x 3.507970 0.000000 0.000000 
#    y 0.000000 3.507970 0.000000 
#    z 0.000000 0.000000 3.424220 
# 
# 
# High freq. dielectric constant tensor:
#      x y z
#    x 1.735210 0.000000 0.000000 
#    y 0.000000 1.735210 0.000000 
#    z 0.000000 0.000000 1.721900 
# 
# From -- ./inp_files/1393.got.cif
#   From: 2010.03.12/outbox.cif.g09.slc.cpg/sg87_1_cif.got.tgz:1393.got - 2010.04.08 20:16:13.
