data_PCOD8303406
_publ_section_title
;
Structure prediction by ZEFSAII (Michael W. Deem and Ramdas Pophale) SiO2 
 PCOD8303406
Probable space group: P 4/N
;
_chemical_formula_sum "Si O2"
_cell_formula_units_Z 64
_cell_length_a 30.494099
_cell_length_b 30.494099
_cell_length_c 5.088818
_cell_angle_alpha 90.000000
_cell_angle_beta 90.000000
_cell_angle_gamma 90.000000
_cell_volume 4732.041346
_symmetry_space_group_name_H-M "P 4/N"
_symmetry_group_IT_number 85
_symmetry_cell_setting 'tetragonal'
loop_
_space_group_symop_operation_xyz
x,y,z
1/2-y,x,z
1/2-x,1/2-y,z
y,1/2-x,z
-x,-y,-z
1/2+y,-x,-z
1/2+x,1/2+y,-z
-y,1/2+x,-z
loop_
_atom_site_type_symbol
_atom_site_label
_atom_site_fract_x
_atom_site_fract_y
_atom_site_fract_z
Si Si1 0.501895 0.570193 0.520213
Si Si2 0.498105 0.070193 0.520213
Si Si3 0.109459 0.963584 0.031772
Si Si4 0.297676 0.868911 0.460536
Si Si5 0.201517 0.574925 0.960759
Si Si6 0.868911 0.297676 0.539464
Si Si7 0.201517 0.925074 0.039241
Si Si8 0.963584 0.109459 0.968228
O O1 0.469567 0.530433 0.458096
O O2 0.551663 0.551663 0.500001
O O3 0.494349 0.590385 0.805103
O O4 0.491473 0.606276 0.299137
O O5 0.508527 0.106276 0.299137
O O6 0.505651 0.090385 0.805104
O O7 0.161139 0.957236 0.978147
O O8 0.083016 0.916984 0.042502
O O9 0.302450 0.884456 0.161061
O O10 0.250000 0.847330 0.499999
O O11 0.333383 0.833383 0.531608
O O12 0.303589 0.909437 0.660500
O O13 0.250000 0.552697 0.000000
O O14 0.161140 0.542764 0.021852
O O15 0.909437 0.303589 0.339500
O O16 0.884456 0.302450 0.838939
#
# Coordination Sequence:
#
# PCOD8303406 Si02
#       8
#     8   8   8   8   8   8   8   8
#     4   9  17  27  39  58  79  95 115 145 181 223
#     4   9  17  27  39  58  79  95 115 145 181 223
#     4  10  17  26  42  57  73  99 123 146 185 230
#     4  10  19  30  42  54  70  90 116 155 196 235
#     4  10  20  31  42  57  75  95 123 157 188 221
#     4  10  19  30  42  54  70  90 116 155 196 235
#     4  10  20  31  42  57  75  95 123 157 188 221
#     4  10  17  26  42  57  73  99 123 146 185 230
#
# _framework density 13.524818
#
# number of rings (size 3 to 8) (size 9 to 14) (size 15 to 20)
#    0.000    2.250    0.000    4.500    0.000    5.250 
#    0.000    0.000    0.000    4.500    0.000    0.000 
#    0.000    0.000    0.000    0.000    0.000    0.000 
#
# Total GULP energy -793360.903306 kJ/mol
# GULP energy per Si atom -12396.264114 kJ/mol
# Density = 1.349403 g / cm^3
# Si number density = 13.524818 Si / 1000 Ang^3
#
#
#
# Elastic Constant Matrix: (Units=GPa)
#
#
# Indices 1 2 3 4 5 6 
#
# 1 51.0251 35.9365 5.0537 0.0000 0.0000 0.0000
# 2 35.9365 51.0251 5.0537 0.0000 0.0000 0.0000
# 3 5.0537 5.0537 57.2774 0.0000 0.0000 0.0000
# 4 0.0000 0.0000 0.0000 14.3132 0.0000 0.0000
# 5 0.0000 0.0000 0.0000 0.0000 14.3132 0.0000
# 6 0.0000 0.0000 0.0000 0.0000 0.0000 17.2512
#
#
#
# Elastic Compliance Matrix: (Units=1/GPa)
#
#
# Indices 1 2 3 4 5 6 
#
# 1 0.038947 -0.027328 -0.001025 0.000000 0.000000 0.000000
# 2 -0.027328 0.038947 -0.001025 0.000000 0.000000 0.000000
# 3 -0.001025 -0.001025 0.017640 0.000000 0.000000 0.000000
# 4 0.000000 0.000000 0.000000 0.069866 0.000000 0.000000
# 5 0.000000 0.000000 0.000000 0.000000 0.069866 0.000000
# 6 0.000000 0.000000 0.000000 0.000000 0.000000 0.057967
#
#
# Mechanical properties :
#
#
# Convention : Reuss Voigt Hill
#
# Bulk Modulus (GPa) = 27.19142 27.93501 27.56322
# Shear Modulus (GPa) = 13.72692 16.72777 15.22735
#
# Velocity S-wave (km/s) = 3.18927 3.52066 3.35906
# Velocity P-wave (km/s) = 5.80607 6.10133 5.95553
#
# Compressibility (1/GPa) = 0.03677631
#
# Stress axis : x y z
#
# Youngs Moduli (GPa) = 25.67600 25.67600 56.68998
#
# Poissons Ratio (x) = 0.70168 0.05811
# Poissons Ratio (y) = 0.70168 0.05811
# Poissons Ratio (z) = 0.02632 0.02632
#
# Static dielectric constant tensor:
#      x y z
#    x 2.551950 0.000000 0.000000 
#    y 0.000000 2.551950 0.000000 
#    z 0.000000 0.000000 2.874610 
# 
# 
# High freq. dielectric constant tensor:
#      x y z
#    x 1.478820 0.000000 0.000000 
#    y 0.000000 1.478820 0.000000 
#    z 0.000000 0.000000 1.542500 
# 
# From -- ./inp_files/596.got.cif
#   From: 2010.03.12/outbox.cif.g09.slc.cpg/sg85_cif.got.tgz:596.got - 2010.04.08 20:10:46.
