data_PCOD8303052
_publ_section_title
;
Structure prediction by ZEFSAII (Michael W. Deem and Ramdas Pophale) SiO2 
 PCOD8303052
Probable space group: P 42/M
;
_chemical_formula_sum "Si O2"
_cell_formula_units_Z 40
_cell_length_a 18.020853
_cell_length_b 18.020853
_cell_length_c 8.759812
_cell_angle_alpha 90.000000
_cell_angle_beta 90.000000
_cell_angle_gamma 90.000000
_cell_volume 2844.758958
_symmetry_space_group_name_H-M "P 42/M"
_symmetry_group_IT_number 84
_symmetry_cell_setting 'tetragonal'
loop_
_space_group_symop_operation_xyz
x,y,z
-y,x,1/2+z
-x,-y,z
y,-x,1/2+z
-x,-y,-z
y,-x,1/2-z
x,y,-z
-y,x,1/2-z
loop_
_atom_site_type_symbol
_atom_site_label
_atom_site_fract_x
_atom_site_fract_y
_atom_site_fract_z
Si Si1 0.492298 0.088535 0.670312
Si Si2 0.346909 0.083784 0.822825
Si Si3 0.921580 0.199166 0.178983
Si Si4 0.651261 0.075975 0.679638
Si Si5 0.082089 0.202216 0.320542
O O1 0.470410 0.112309 0.500000
O O2 0.426373 0.120259 0.776690
O O3 0.574430 0.121079 0.713467
O O4 0.500000 0.000000 0.682333
O O5 0.276156 0.117577 0.733068
O O6 0.349833 0.997711 0.780992
O O7 0.333902 0.096408 0.000000
O O8 0.868022 0.131843 0.223293
O O9 0.998902 0.185672 0.265187
O O10 0.937470 0.203033 0.000000
O O11 0.655246 0.055935 0.500000
O O12 0.725604 0.118117 0.734828
O O13 0.082440 0.217361 0.500000
#
# Coordination Sequence:
#
# PCOD8303052 Si02
#       5
#     8   8   8   8   8
#     4   8  14  24  37  54  75  96 115 137 175 224
#     4  10  17  24  38  57  74  93 118 149 182 219
#     4  10  20  32  43  54  72  97 124 160 202 235
#     4   9  16  26  40  55  73  96 117 144 184 226
#     4  10  20  31  43  57  71  93 127 164 198 230
#
# _framework density 14.060945
#
# number of rings (size 3 to 8) (size 9 to 14) (size 15 to 20)
#    0.000    2.600    0.000    7.200    0.000    8.000 
#    0.000    2.000    0.000    0.000    0.000    0.000 
#    0.000    0.000    0.000    0.000    0.000    1.000 
#
# Total GULP energy -495524.679725 kJ/mol
# GULP energy per Si atom -12388.116993 kJ/mol
# Density = 1.402894 g / cm^3
# Si number density = 14.060945 Si / 1000 Ang^3
#
#
#
# Elastic Constant Matrix: (Units=GPa)
#
#
# Indices 1 2 3 4 5 6 
#
# 1 73.6615 38.6747 26.6406 0.0000 0.0000 -0.3173
# 2 38.6747 73.6615 26.6406 0.0000 0.0000 0.3173
# 3 26.6406 26.6406 50.4520 0.0000 0.0000 0.0000
# 4 0.0000 0.0000 0.0000 13.8192 0.0000 0.0000
# 5 0.0000 0.0000 0.0000 0.0000 13.8192 0.0000
# 6 -0.3173 0.3173 0.0000 0.0000 0.0000 0.4500
#
#
#
# Elastic Compliance Matrix: (Units=1/GPa)
#
#
# Indices 1 2 3 4 5 6 
#
# 1 0.020414 -0.008538 -0.006271 0.000000 0.000000 0.020416
# 2 -0.008538 0.020414 -0.006271 0.000000 0.000000 -0.020416
# 3 -0.006271 -0.006271 0.026444 0.000000 0.000000 0.000000
# 4 0.000000 0.000000 0.000000 0.072363 0.000000 0.000000
# 5 0.000000 0.000000 0.000000 0.000000 0.072363 0.000000
# 6 0.020416 -0.020416 0.000000 0.000000 0.000000 2.251064
#
#
# Mechanical properties :
#
#
# Convention : Reuss Voigt Hill
#
# Bulk Modulus (GPa) = 39.82217 42.40964 41.11591
# Shear Modulus (GPa) = 1.98918 12.67229 7.33074
#
# Velocity S-wave (km/s) = 1.19070 3.00532 2.28580
# Velocity P-wave (km/s) = 5.50209 6.50149 6.02256
#
# Compressibility (1/GPa) = 0.02511164
#
# Stress axis : x y z
#
# Youngs Moduli (GPa) = 48.98509 48.98509 37.81633
#
# Poissons Ratio (x) = 0.41824 0.23715
# Poissons Ratio (y) = 0.41824 0.23715
# Poissons Ratio (z) = 0.30719 0.30719
#
# Static dielectric constant tensor:
#      x y z
#    x 2.911520 0.000000 0.000000 
#    y 0.000000 2.911520 0.000000 
#    z 0.000000 0.000000 2.855470 
# 
# 
# High freq. dielectric constant tensor:
#      x y z
#    x 1.503350 0.000000 0.000000 
#    y 0.000000 1.503350 0.000000 
#    z 0.000000 0.000000 1.552620 
# 
# From -- ./inp_files/893.got.cif
#   From: 2010.03.12/outbox.cif.g09.slc.cpg/sg84_1_cif.got.tgz:893.got - 2010.04.08 20:07:29.
