data_PCOD8303351
_publ_section_title
;
Structure prediction by ZEFSAII (Michael W. Deem and Ramdas Pophale) SiO2 
 PCOD8303351
Probable space group: P 42/M
;
_chemical_formula_sum "Si O2"
_cell_formula_units_Z 40
_cell_length_a 17.226001
_cell_length_b 17.226001
_cell_length_c 7.602525
_cell_angle_alpha 90.000000
_cell_angle_beta 90.000000
_cell_angle_gamma 90.000000
_cell_volume 2255.936096
_symmetry_space_group_name_H-M "P 42/M"
_symmetry_group_IT_number 84
_symmetry_cell_setting 'tetragonal'
loop_
_space_group_symop_operation_xyz
x,y,z
-y,x,1/2+z
-x,-y,z
y,-x,1/2+z
-x,-y,-z
y,-x,1/2-z
x,y,-z
-y,x,1/2-z
loop_
_atom_site_type_symbol
_atom_site_label
_atom_site_fract_x
_atom_site_fract_y
_atom_site_fract_z
Si Si1 0.768878 0.511527 0.309697
Si Si2 0.558215 0.932893 0.201545
Si Si3 0.175618 0.825356 0.000000
Si Si4 0.661280 0.890565 0.500000
Si Si5 0.078595 0.098155 0.794846
Si Si6 0.255268 0.342770 0.500000
Si Si7 0.275996 0.581931 0.000000
O O1 0.747464 0.474412 0.500000
O O2 0.856074 0.490417 0.258536
O O3 0.764454 0.605835 0.325096
O O4 0.711117 0.474039 0.167857
O O5 0.634426 0.936340 0.324547
O O6 0.500000 0.000000 0.256304
O O7 0.586245 0.940156 0.000000
O O8 0.160743 0.875700 0.175771
O O9 0.115568 0.753832 0.000000
O O10 0.264027 0.794297 0.000000
O O11 0.622899 0.806700 0.500000
O O12 0.987419 0.106988 0.758048
O O13 0.095963 0.114445 0.000000
O O14 0.348329 0.336435 0.500000
#
# Coordination Sequence:
#
# PCOD8303351 Si02
#       7
#     8   8   4   4   8   4   4
#     4   8  17  34  51  77 104 137 179 213 276 332
#     4   9  16  30  52  74 103 143 180 214 264 334
#     4  11  22  38  52  85 119 136 189 242 282 320
#     4   9  19  32  50  75 105 141 184 220 254 331
#     4  11  20  39  63  79 107 156 198 231 276 336
#     4   9  20  38  54  84 116 135 178 250 273 324
#     4   9  16  35  59  70 103 149 176 209 275 343
#
# _framework density 17.730999000000001
#
# number of rings (size 3 to 8) (size 9 to 14) (size 15 to 20)
#    0.600    2.000    2.000    0.900    0.000    0.800 
#    7.200    2.000    0.000    1.800    0.000    0.000 
#    0.000    0.000    0.000    0.000    0.000    0.000 
#
# Total GULP energy -495643.295659 kJ/mol
# GULP energy per Si atom -12391.082391 kJ/mol
# Density = 1.769064 g / cm^3
# Si number density = 17.730999 Si / 1000 Ang^3
#
#
#
# Elastic Constant Matrix: (Units=GPa)
#
#
# Indices 1 2 3 4 5 6 
#
# 1 73.8733 29.2928 40.3665 0.0000 0.0000 1.2048
# 2 29.2928 73.8733 40.3665 0.0000 0.0000 -1.2048
# 3 40.3665 40.3665 122.7459 0.0000 0.0000 0.0000
# 4 0.0000 0.0000 0.0000 22.9384 0.0000 0.0000
# 5 0.0000 0.0000 0.0000 0.0000 22.9384 0.0000
# 6 1.2048 -1.2048 0.0000 0.0000 0.0000 21.6382
#
#
#
# Elastic Compliance Matrix: (Units=1/GPa)
#
#
# Indices 1 2 3 4 5 6 
#
# 1 0.017776 -0.004723 -0.004292 0.000000 0.000000 -0.001253
# 2 -0.004723 0.017776 -0.004292 0.000000 0.000000 0.001253
# 3 -0.004292 -0.004292 0.010970 0.000000 0.000000 0.000000
# 4 0.000000 0.000000 0.000000 0.043595 0.000000 0.000000
# 5 0.000000 0.000000 0.000000 0.000000 0.043595 0.000000
# 6 -0.001253 0.001253 0.000000 0.000000 0.000000 0.046354
#
#
# Mechanical properties :
#
#
# Convention : Reuss Voigt Hill
#
# Bulk Modulus (GPa) = 50.23886 54.50489 52.37187
# Shear Modulus (GPa) = 23.43932 24.20077 23.82005
#
# Velocity S-wave (km/s) = 3.63979 3.69844 3.66924
# Velocity P-wave (km/s) = 6.78672 7.00318 6.89580
#
# Compressibility (1/GPa) = 0.01990491
#
# Stress axis : x y z
#
# Youngs Moduli (GPa) = 56.25704 56.25704 91.15708
#
# Poissons Ratio (x) = 0.26573 0.39128
# Poissons Ratio (y) = 0.26573 0.39128
# Poissons Ratio (z) = 0.24147 0.24147
#
# Static dielectric constant tensor:
#      x y z
#    x 3.188830 0.000000 0.000000 
#    y 0.000000 3.188830 0.000000 
#    z 0.000000 0.000000 3.413100 
# 
# 
# High freq. dielectric constant tensor:
#      x y z
#    x 1.667670 0.000000 0.000000 
#    y 0.000000 1.667670 0.000000 
#    z 0.000000 0.000000 1.692490 
# 
# From -- ./inp_files/946.got.cif
#   From: 2010.03.12/outbox.cif.g09.slc.cpg/sg84_1_cif.got.tgz:946.got - 2010.04.08 20:07:29.
