data_PCOD8303611
_publ_section_title
;
Structure prediction by ZEFSAII (Michael W. Deem and Ramdas Pophale) SiO2 
 PCOD8303611
Probable space group: P 42/N
;
_chemical_formula_sum "Si O2"
_cell_formula_units_Z 34
_cell_length_a 11.430246
_cell_length_b 11.430246
_cell_length_c 12.783051
_cell_angle_alpha 90.000000
_cell_angle_beta 90.000000
_cell_angle_gamma 90.000000
_cell_volume 1670.112307
_symmetry_space_group_name_H-M "P 42/N"
_symmetry_group_IT_number 86
_space_group.IT_coordinate_system_code '2'
_symmetry_cell_setting 'tetragonal'
loop_
_space_group_symop_operation_xyz
x,y,z
-y,1/2+x,1/2+z
1/2-x,1/2-y,z
1/2+y,-x,1/2+z
-x,-y,-z
y,1/2-x,1/2-z
1/2+x,1/2+y,-z
1/2-y,x,1/2-z
loop_
_atom_site_type_symbol
_atom_site_label
_atom_site_fract_x
_atom_site_fract_y
_atom_site_fract_z
Si Si1 0.367793 0.537423 0.155805
Si Si2 0.374841 0.028013 0.822420
Si Si3 0.750000 0.750000 0.250000
Si Si4 0.546383 0.383320 0.243983
Si Si5 0.782013 0.121145 0.054413
O O1 0.444727 0.635439 0.218011
O O2 0.428157 0.411197 0.177261
O O3 0.235482 0.533159 0.194430
O O4 0.365563 0.563360 0.032451
O O5 0.288397 0.139282 0.819501
O O6 0.511170 0.068232 0.828307
O O7 0.336422 0.954112 0.924896
O O8 0.653936 0.375552 0.165221
O O9 0.750000 0.250000 0.014419
#
# Coordination Sequence:
#
# PCOD8303611 Si02
#       5
#     8   8   2   8   8
#     4  10  24  41  66  93 135 173 217 272 327 389
#     4  10  23  39  65  96 128 171 218 270 323 388
#     4  12  20  40  68  88 140 166 208 272 336 376
#     4  10  22  43  63  95 137 170 219 275 327 383
#     4  12  22  39  70  98 125 178 224 266 335 395
#
# _framework density 20.357913
#
# number of rings (size 3 to 8) (size 9 to 14) (size 15 to 20)
#    1.412    0.000    4.706    0.706    3.294    1.412 
#    0.000    4.706    0.000    0.000    0.000    0.000 
#    0.000    0.000    0.000    0.000    0.000    0.000 
#
# Total GULP energy -421288.089316 kJ/mol
# GULP energy per Si atom -12390.826156 kJ/mol
# Density = 2.031158 g / cm^3
# Si number density = 20.357913 Si / 1000 Ang^3
#
#
#
# Elastic Constant Matrix: (Units=GPa)
#
#
# Indices 1 2 3 4 5 6 
#
# 1 105.1778 21.0596 14.0908 0.0000 0.0000 2.1858
# 2 21.0596 105.1778 14.0908 0.0000 0.0000 -2.1858
# 3 14.0908 14.0908 41.8373 0.0000 0.0000 0.0000
# 4 0.0000 0.0000 0.0000 22.3061 0.0000 0.0000
# 5 0.0000 0.0000 0.0000 0.0000 22.3061 0.0000
# 6 2.1858 -2.1858 0.0000 0.0000 0.0000 26.8291
#
#
#
# Elastic Compliance Matrix: (Units=1/GPa)
#
#
# Indices 1 2 3 4 5 6 
#
# 1 0.010252 -0.001686 -0.002885 0.000000 0.000000 -0.000973
# 2 -0.001686 0.010252 -0.002885 0.000000 0.000000 0.000973
# 3 -0.002885 -0.002885 0.025845 0.000000 0.000000 0.000000
# 4 0.000000 0.000000 0.000000 0.044831 0.000000 0.000000
# 5 0.000000 0.000000 0.000000 0.000000 0.044831 0.000000
# 6 -0.000973 0.000973 0.000000 0.000000 0.000000 0.037431
#
#
# Mechanical properties :
#
#
# Convention : Reuss Voigt Hill
#
# Bulk Modulus (GPa) = 31.80965 38.96394 35.38679
# Shear Modulus (GPa) = 25.14660 27.81838 26.48249
#
# Velocity S-wave (km/s) = 3.51839 3.70058 3.61064
# Velocity P-wave (km/s) = 5.67138 6.11883 5.89935
#
# Compressibility (1/GPa) = 0.03143701
#
# Stress axis : x y z
#
# Youngs Moduli (GPa) = 97.54102 97.54102 38.69164
#
# Poissons Ratio (x) = 0.16450 0.11162
# Poissons Ratio (y) = 0.16450 0.11162
# Poissons Ratio (z) = 0.28140 0.28140
#
# Static dielectric constant tensor:
#      x y z
#    x 3.689930 0.000000 0.000000 
#    y 0.000000 3.689930 0.000000 
#    z 0.000000 0.000000 3.300900 
# 
# 
# High freq. dielectric constant tensor:
#      x y z
#    x 1.797900 0.000000 0.000000 
#    y 0.000000 1.797900 0.000000 
#    z 0.000000 0.000000 1.767330 
# 
# From -- ./inp_files/1964.got.cif
#   From: 2010.03.12/outbox.cif.g09.slc.cpg/sg86_1_cif.got.tgz:1964.got - 2010.04.08 20:12:58.
