data_PCOD8303991
_publ_section_title
;
Structure prediction by ZEFSAII (Michael W. Deem and Ramdas Pophale) SiO2 
 PCOD8303991
Probable space group: I 4/M
;
_chemical_formula_sum "Si O2"
_cell_formula_units_Z 96
_cell_length_a 23.801541
_cell_length_b 23.801541
_cell_length_c 8.705190
_cell_angle_alpha 90.000000
_cell_angle_beta 90.000000
_cell_angle_gamma 90.000000
_cell_volume 4931.606384
_symmetry_space_group_name_H-M "I 4/M"
_symmetry_group_IT_number 87
_symmetry_cell_setting 'tetragonal'
loop_
_space_group_symop_operation_xyz
x,y,z
-y,x,z
-x,-y,z
y,-x,z
-x,-y,-z
y,-x,-z
x,y,-z
-y,x,-z
1/2+x,1/2+y,1/2+z
1/2-y,1/2+x,1/2+z
1/2-x,1/2-y,1/2+z
1/2+y,1/2-x,1/2+z
1/2-x,1/2-y,1/2-z
1/2+y,1/2-x,1/2-z
1/2+x,1/2+y,1/2-z
1/2-y,1/2+x,1/2-z
loop_
_atom_site_type_symbol
_atom_site_label
_atom_site_fract_x
_atom_site_fract_y
_atom_site_fract_z
Si Si1 0.432418 0.438356 0.679120
Si Si2 0.944598 0.358185 0.172160
Si Si3 0.149851 0.151125 0.679878
Si Si4 0.940711 0.649857 0.324594
Si Si5 0.268399 0.151852 0.175972
Si Si6 0.356554 0.230647 0.321073
O O1 0.496399 0.421772 0.720587
O O2 0.421036 0.428008 0.500000
O O3 0.389599 0.400997 0.776188
O O4 0.912006 0.415981 0.207258
O O5 0.902283 0.306999 0.192748
O O6 0.993311 0.351540 0.295586
O O7 0.969789 0.358853 0.000000
O O8 0.145165 0.161702 0.500000
O O9 0.213935 0.138305 0.724126
O O10 0.129680 0.206520 0.768368
O O11 0.928165 0.667525 0.500000
O O12 0.911923 0.694746 0.213698
O O13 0.301586 0.206792 0.234765
O O14 0.250930 0.163130 0.000000
O O15 0.343469 0.229215 0.500000
#
# Coordination Sequence:
#
# PCOD8303991 Si02
#       6
#    16  16  16  16  16  16
#     4   9  20  41  65  86 112 147 185 228 280 333
#     4   9  20  37  56  80 111 149 189 232 282 333
#     4  12  24  37  58  88 117 148 188 228 272 332
#     4  10  21  37  57  82 113 148 189 236 282 332
#     4  10  21  39  59  82 115 150 187 232 282 334
#     4  11  22  38  59  82 113 150 187 231 283 335
#
# _framework density 19.466273000000001
#
# number of rings (size 3 to 8) (size 9 to 14) (size 15 to 20)
#    0.000    1.833    0.000    6.000    0.000    6.333 
#    0.000    4.167    0.000    0.000    0.000    0.000 
#    0.000    0.000    0.000    0.000    0.000    0.000 
#
# Total GULP energy -595377.727315 kJ/mol
# GULP energy per Si atom -12403.702652 kJ/mol
# Density = 1.942197 g / cm^3
# Si number density = 19.466273 Si / 1000 Ang^3
#
#
#
# Elastic Constant Matrix: (Units=GPa)
#
#
# Indices 1 2 3 4 5 6 
#
# 1 -78.8367 187.8059 31.2961 0.0000 0.0000 -0.2638
# 2 187.8059 -78.8367 31.2961 0.0000 0.0000 0.2638
# 3 31.2961 31.2961 83.3782 0.0000 0.0000 0.0000
# 4 0.0000 0.0000 0.0000 33.7450 0.0000 0.0000
# 5 0.0000 0.0000 0.0000 0.0000 33.7450 0.0000
# 6 -0.2638 0.2638 0.0000 0.0000 0.0000 23.5842
#
#
#
# Elastic Compliance Matrix: (Units=1/GPa)
#
#
# Indices 1 2 3 4 5 6 
#
# 1 0.003975 0.007725 -0.004391 0.000000 0.000000 -0.000042
# 2 0.007725 0.003975 -0.004391 0.000000 0.000000 0.000042
# 3 -0.004391 -0.004391 0.015290 0.000000 0.000000 0.000000
# 4 0.000000 0.000000 0.000000 0.029634 0.000000 0.000000
# 5 0.000000 0.000000 0.000000 0.000000 0.029634 0.000000
# 6 -0.000042 0.000042 0.000000 0.000000 0.000000 0.042400
#
#
# Mechanical properties :
#
#
# Convention : Reuss Voigt Hill
#
# Bulk Modulus (GPa) = 47.34095 47.38900 47.36498
# Shear Modulus (GPa) = 37.29549 -3.43137 16.93206
#
# Velocity S-wave (km/s) = 4.38185 -1.32912 2.95246
# Velocity P-wave (km/s) = 7.06917 4.69485 6.00061
#
# Compressibility (1/GPa) = 0.02112336
#
# Stress axis : x y z
#
# Youngs Moduli (GPa) = 251.60197 251.60197 65.40158
#
# Poissons Ratio (x) = -1.94357 0.28720
# Poissons Ratio (y) = -1.94357 0.28720
# Poissons Ratio (z) = 1.10487 1.10487
#
# Static dielectric constant tensor:
#      x y z
#    x 3.506280 0.000000 0.000000 
#    y 0.000000 3.506280 0.000000 
#    z 0.000000 0.000000 3.569810 
# 
# 
# High freq. dielectric constant tensor:
#      x y z
#    x 1.759440 0.000000 0.000000 
#    y 0.000000 1.759440 0.000000 
#    z 0.000000 0.000000 1.764710 
# 
# From -- ./inp_files/1326.got.cif
#   From: 2010.03.12/outbox.cif.g09.slc.cpg/sg87_1_cif.got.tgz:1326.got - 2010.04.08 20:16:13.
