data_PCOD8303111
_publ_section_title
;
Structure prediction by ZEFSAII (Michael W. Deem and Ramdas Pophale) SiO2 
 PCOD8303111
Probable space group: P 42/M
;
_chemical_formula_sum "Si O2"
_cell_formula_units_Z 48
_cell_length_a 17.618752
_cell_length_b 17.618752
_cell_length_c 9.079373
_cell_angle_alpha 90.000000
_cell_angle_beta 90.000000
_cell_angle_gamma 90.000000
_cell_volume 2818.422798
_symmetry_space_group_name_H-M "P 42/M"
_symmetry_group_IT_number 84
_symmetry_cell_setting 'tetragonal'
loop_
_space_group_symop_operation_xyz
x,y,z
-y,x,1/2+z
-x,-y,z
y,-x,1/2+z
-x,-y,-z
y,-x,1/2-z
x,y,-z
-y,x,1/2-z
loop_
_atom_site_type_symbol
_atom_site_label
_atom_site_fract_x
_atom_site_fract_y
_atom_site_fract_z
Si Si1 0.193597 0.322116 0.162878
Si Si2 0.683828 0.810169 0.165164
Si Si3 0.084738 0.196342 0.171919
Si Si4 0.704868 0.421620 0.170641
Si Si5 0.424131 0.701957 0.169404
Si Si6 0.798205 0.909011 0.326975
O O1 0.255732 0.256561 0.160802
O O2 0.115170 0.281278 0.211583
O O3 0.218372 0.387669 0.276003
O O4 0.186067 0.358499 0.000000
O O5 0.609167 0.780575 0.249488
O O6 0.720599 0.880828 0.251150
O O7 0.661174 0.835402 0.000000
O O8 0.127489 0.133059 0.266827
O O9 0.996936 0.192067 0.211486
O O10 0.100929 0.179824 0.000000
O O11 0.634193 0.366119 0.195844
O O12 0.681388 0.501904 0.237961
O O13 0.724092 0.430995 0.000000
O O14 0.446413 0.711482 0.000000
O O15 0.791262 0.893922 0.500000
#
# Coordination Sequence:
#
# PCOD8303111 Si02
#       6
#     8   8   8   8   8   8
#     4   8  15  30  49  66  89 123 160 195 233 280
#     4   9  17  31  50  70  94 124 160 200 239 281
#     4   9  19  33  48  70  99 130 162 198 242 288
#     4  10  20  33  50  72  98 129 162 194 235 286
#     4  10  20  32  48  72  98 124 158 197 236 280
#     4  10  19  31  49  72  98 128 163 200 239 287
#
# _framework density 17.030802999999999
#
# number of rings (size 3 to 8) (size 9 to 14) (size 15 to 20)
#    0.000    2.667    0.000    3.000    0.000    8.000 
#    0.000    3.333    0.000    1.000    0.000    7.000 
#    0.000    0.000    0.000    0.000    0.000    0.000 
#
# Total GULP energy -595140.174094 kJ/mol
# GULP energy per Si atom -12398.753627 kJ/mol
# Density = 1.699204 g / cm^3
# Si number density = 17.030803 Si / 1000 Ang^3
#
#
#
# Elastic Constant Matrix: (Units=GPa)
#
#
# Indices 1 2 3 4 5 6 
#
# 1 65.7770 60.4657 60.7096 0.0000 0.0000 1.0410
# 2 60.4657 65.7770 60.7096 0.0000 0.0000 -1.0410
# 3 60.7096 60.7096 127.6481 0.0000 0.0000 0.0000
# 4 0.0000 0.0000 0.0000 27.5213 0.0000 0.0000
# 5 0.0000 0.0000 0.0000 0.0000 27.5213 0.0000
# 6 1.0410 -1.0410 0.0000 0.0000 0.0000 13.8428
#
#
#
# Elastic Compliance Matrix: (Units=1/GPa)
#
#
# Indices 1 2 3 4 5 6 
#
# 1 0.104298 -0.089698 -0.006944 0.000000 0.000000 -0.014589
# 2 -0.089698 0.104298 -0.006944 0.000000 0.000000 0.014589
# 3 -0.006944 -0.006944 0.014439 0.000000 0.000000 0.000000
# 4 0.000000 0.000000 0.000000 0.036335 0.000000 0.000000
# 5 0.000000 0.000000 0.000000 0.000000 0.036335 0.000000
# 6 -0.014589 0.014589 0.000000 0.000000 0.000000 0.074434
#
#
# Mechanical properties :
#
#
# Convention : Reuss Voigt Hill
#
# Bulk Modulus (GPa) = 63.03751 69.21912 66.12832
# Shear Modulus (GPa) = 8.58224 18.93156 13.75690
#
# Velocity S-wave (km/s) = 2.24726 3.33769 2.84521
# Velocity P-wave (km/s) = 6.62025 7.45556 7.05029
#
# Compressibility (1/GPa) = 0.01586357
#
# Stress axis : x y z
#
# Youngs Moduli (GPa) = 9.58791 9.58791 69.25810
#
# Poissons Ratio (x) = 0.86002 0.48090
# Poissons Ratio (y) = 0.86002 0.48090
# Poissons Ratio (z) = 0.06657 0.06657
#
# Static dielectric constant tensor:
#      x y z
#    x 3.138560 0.000000 0.000000 
#    y 0.000000 3.138560 0.000000 
#    z 0.000000 0.000000 3.374270 
# 
# 
# High freq. dielectric constant tensor:
#      x y z
#    x 1.639260 0.000000 0.000000 
#    y 0.000000 1.639260 0.000000 
#    z 0.000000 0.000000 1.671330 
# 
# From -- ./inp_files/973.got.cif
#   From: 2010.03.12/outbox.cif.g09.slc.cpg/sg84_1_cif.got.tgz:973.got - 2010.04.08 20:07:29.
