data_PCOD8303410
_publ_section_title
;
Structure prediction by ZEFSAII (Michael W. Deem and Ramdas Pophale) SiO2 
 PCOD8303410
Probable space group: P 4/N
;
_chemical_formula_sum "Si O2"
_cell_formula_units_Z 48
_cell_length_a 16.807210
_cell_length_b 16.807210
_cell_length_c 8.477894
_cell_angle_alpha 90.000000
_cell_angle_beta 90.000000
_cell_angle_gamma 90.000000
_cell_volume 2394.855064
_symmetry_space_group_name_H-M "P 4/N"
_symmetry_group_IT_number 85
_symmetry_cell_setting 'tetragonal'
loop_
_space_group_symop_operation_xyz
x,y,z
1/2-y,x,z
1/2-x,1/2-y,z
y,1/2-x,z
-x,-y,-z
1/2+y,-x,-z
1/2+x,1/2+y,-z
-y,1/2+x,-z
loop_
_atom_site_type_symbol
_atom_site_label
_atom_site_fract_x
_atom_site_fract_y
_atom_site_fract_z
Si Si1 0.797740 0.141610 0.934626
Si Si2 0.673925 0.536223 0.421955
Si Si3 0.536475 0.560786 0.820684
Si Si4 0.156078 0.458402 0.477642
Si Si5 0.409843 0.891798 0.642809
Si Si6 0.001352 0.370646 0.914732
O O1 0.835039 0.143961 0.756759
O O2 0.703515 0.159917 0.943498
O O3 0.808090 0.051742 0.990890
O O4 0.754698 0.572547 0.493748
O O5 0.601342 0.594603 0.446547
O O6 0.659639 0.450766 0.504206
O O7 0.679379 0.531527 0.233527
O O8 0.540725 0.638031 0.709317
O O9 0.561415 0.478703 0.735952
O O10 0.445218 0.553936 0.869902
O O11 0.595154 0.572212 0.972069
O O12 0.147789 0.544400 0.560005
#
# Coordination Sequence:
#
# PCOD8303410 Si02
#       6
#     8   8   8   8   8   8
#     4  10  22  35  50  82 122 151 185 239 308 372
#     4  11  22  36  60  85 114 154 197 252 307 358
#     4   9  18  34  58  80 111 141 198 248 279 349
#     4  11  21  38  56  85 117 150 202 249 300 369
#     4  10  19  37  56  78 109 149 195 243 285 358
#     4  10  18  35  58  83 108 154 194 240 300 348
#
# _framework density 20.042966
#
# number of rings (size 3 to 8) (size 9 to 14) (size 15 to 20)
#    0.000    1.833    3.333    2.000    2.333    0.333 
#    0.000    0.000    0.000    2.000    0.000    7.000 
#    0.000    0.000    0.000    0.000    0.000    0.000 
#
# Total GULP energy -594923.867782 kJ/mol
# GULP energy per Si atom -12394.247245 kJ/mol
# Density = 1.999735 g / cm^3
# Si number density = 20.042966 Si / 1000 Ang^3
#
#
#
# Elastic Constant Matrix: (Units=GPa)
#
#
# Indices 1 2 3 4 5 6 
#
# 1 68.0185 12.0694 33.8764 0.0000 0.0000 -2.7869
# 2 12.0694 68.0185 33.8764 0.0000 0.0000 2.7869
# 3 33.8764 33.8764 136.2868 0.0000 0.0000 0.0000
# 4 0.0000 0.0000 0.0000 32.0956 0.0000 0.0000
# 5 0.0000 0.0000 0.0000 0.0000 32.0956 0.0000
# 6 -2.7869 2.7869 0.0000 0.0000 0.0000 14.3505
#
#
#
# Elastic Compliance Matrix: (Units=1/GPa)
#
#
# Indices 1 2 3 4 5 6 
#
# 1 0.017019 -0.001207 -0.003930 0.000000 0.000000 0.003540
# 2 -0.001207 0.017019 -0.003930 0.000000 0.000000 -0.003540
# 3 -0.003930 -0.003930 0.009291 0.000000 0.000000 0.000000
# 4 0.000000 0.000000 0.000000 0.031157 0.000000 0.000000
# 5 0.000000 0.000000 0.000000 0.000000 0.031157 0.000000
# 6 0.003540 -0.003540 0.000000 0.000000 0.000000 0.071059
#
#
# Mechanical properties :
#
#
# Convention : Reuss Voigt Hill
#
# Bulk Modulus (GPa) = 39.69363 47.99649 43.84506
# Shear Modulus (GPa) = 24.60216 28.54176 26.57196
#
# Velocity S-wave (km/s) = 3.50733 3.77772 3.64504
# Velocity P-wave (km/s) = 6.02072 6.55950 6.29588
#
# Compressibility (1/GPa) = 0.02519296
#
# Stress axis : x y z
#
# Youngs Moduli (GPa) = 58.75945 58.75945 107.62794
#
# Poissons Ratio (x) = 0.07095 0.42299
# Poissons Ratio (y) = 0.07095 0.42299
# Poissons Ratio (z) = 0.23093 0.23093
#
# Static dielectric constant tensor:
#      x y z
#    x 3.419130 0.000000 0.000000 
#    y 0.000000 3.419130 0.000000 
#    z 0.000000 0.000000 4.054080 
# 
# 
# High freq. dielectric constant tensor:
#      x y z
#    x 1.759810 0.000000 0.000000 
#    y 0.000000 1.759810 0.000000 
#    z 0.000000 0.000000 1.795480 
# 
# From -- ./inp_files/1089.got.cif
#   From: 2010.03.12/outbox.cif.g09.slc.cpg/sg85_cif.got.tgz:1089.got - 2010.04.08 20:10:46.
