data_PCOD8303195
_publ_section_title
;
Structure prediction by ZEFSAII (Michael W. Deem and Ramdas Pophale) SiO2 
 PCOD8303195
Probable space group: P 42/M
;
_chemical_formula_sum "Si O2"
_cell_formula_units_Z 56
_cell_length_a 11.728219
_cell_length_b 11.728219
_cell_length_c 21.041474
_cell_angle_alpha 90.000000
_cell_angle_beta 90.000000
_cell_angle_gamma 90.000000
_cell_volume 2894.278334
_symmetry_space_group_name_H-M "P 42/M"
_symmetry_group_IT_number 84
_symmetry_cell_setting 'tetragonal'
loop_
_space_group_symop_operation_xyz
x,y,z
-y,x,1/2+z
-x,-y,z
y,-x,1/2+z
-x,-y,-z
y,-x,1/2-z
x,y,-z
-y,x,1/2-z
loop_
_atom_site_type_symbol
_atom_site_label
_atom_site_fract_x
_atom_site_fract_y
_atom_site_fract_z
Si Si1 0.860867 0.882357 0.742180
Si Si2 0.402160 0.649864 0.740509
Si Si3 0.103149 0.348091 0.925848
Si Si4 0.716130 0.778583 0.149040
Si Si5 0.867385 0.498409 0.570451
Si Si6 0.296346 0.775714 0.149617
Si Si7 0.150772 0.603852 0.074789
O O1 0.757991 0.854073 0.791103
O O2 0.849543 0.810674 0.676282
O O3 0.983269 0.852989 0.773727
O O4 0.535259 0.644549 0.726634
O O5 0.342340 0.669060 0.673230
O O6 0.374681 0.749563 0.789668
O O7 0.174371 0.245855 0.894642
O O8 0.149931 0.471750 0.904835
O O9 0.970326 0.338443 0.907172
O O10 0.118167 0.333761 0.000000
O O11 0.612394 0.835804 0.111661
O O12 0.810022 0.489801 0.500000
O O13 0.839464 0.620725 0.601224
O O14 0.000000 0.500000 0.561712
O O15 0.249617 0.664100 0.114363
O O16 0.174481 0.617231 0.000000
#
# Coordination Sequence:
#
# PCOD8303195 Si02
#       7
#     8   8   8   8   8   8   8
#     4  10  22  38  58  84 112 144 190 248 298 342
#     4  10  20  34  52  78 110 140 174 224 268 320
#     4   9  18  33  54  82 114 146 185 233 281 335
#     4  11  20  36  58  80 109 151 187 230 281 347
#     4  11  24  40  57  81 113 149 192 239 284 337
#     4  11  20  36  58  80 109 151 187 230 281 347
#     4   9  18  33  54  82 114 146 185 233 281 335
#
# _framework density 19.348519
#
# number of rings (size 3 to 8) (size 9 to 14) (size 15 to 20)
#    0.000    1.857    1.429    4.286    0.000    0.000 
#    0.000    0.000    0.000    3.429    0.000   12.000 
#    0.000    0.000    0.000    0.000    0.000    0.000 
#
# Total GULP energy -694198.141984 kJ/mol
# GULP energy per Si atom -12396.395393 kJ/mol
# Density = 1.930448 g / cm^3
# Si number density = 19.348519 Si / 1000 Ang^3
#
#
#
# Elastic Constant Matrix: (Units=GPa)
#
#
# Indices 1 2 3 4 5 6 
#
# 1 64.7107 19.8996 31.2653 0.0000 0.0000 -1.7004
# 2 19.8996 64.7107 31.2653 0.0000 0.0000 1.7004
# 3 31.2653 31.2653 81.4833 0.0000 0.0000 0.0000
# 4 0.0000 0.0000 0.0000 -4.2965 0.0000 0.0000
# 5 0.0000 0.0000 0.0000 0.0000 -4.2965 0.0000
# 6 -1.7004 1.7004 0.0000 0.0000 0.0000 34.2226
#
#
#
# Elastic Compliance Matrix: (Units=1/GPa)
#
#
# Indices 1 2 3 4 5 6 
#
# 1 0.019449 -0.002952 -0.006330 0.000000 0.000000 0.001113
# 2 -0.002952 0.019449 -0.006330 0.000000 0.000000 -0.001113
# 3 -0.006330 -0.006330 0.017130 0.000000 0.000000 0.000000
# 4 0.000000 0.000000 0.000000 -0.232745 0.000000 0.000000
# 5 0.000000 0.000000 0.000000 0.000000 -0.232745 0.000000
# 6 0.001113 -0.001113 0.000000 0.000000 0.000000 0.029331
#
#
# Mechanical properties :
#
#
# Convention : Reuss Voigt Hill
#
# Bulk Modulus (GPa) = 40.31555 41.75168 41.03361
# Shear Modulus (GPa) = -14.67820 13.69086 -0.49367
#
# Velocity S-wave (km/s) = -2.75730 2.66295 -0.50567
# Velocity P-wave (km/s) = 3.27793 5.57500 4.57304
#
# Compressibility (1/GPa) = 0.02480432
#
# Stress axis : x y z
#
# Youngs Moduli (GPa) = 51.41739 51.41739 58.37689
#
# Poissons Ratio (x) = 0.15177 0.36952
# Poissons Ratio (y) = 0.15177 0.36952
# Poissons Ratio (z) = 0.32547 0.32547
#
# Static dielectric constant tensor:
#      x y z
#    x 3.531640 0.000000 0.000000 
#    y 0.000000 3.531640 0.000000 
#    z 0.000000 0.000000 3.507160 
# 
# 
# High freq. dielectric constant tensor:
#      x y z
#    x 1.751910 0.000000 0.000000 
#    y 0.000000 1.751910 0.000000 
#    z 0.000000 0.000000 1.751530 
# 
# From -- ./inp_files/4481.got.cif
#   From: 2010.03.12/outbox.cif.g09.slc.cpg/sg84_3_cif.got.tgz:4481.got - 2010.04.08 20:07:29.
