data_PCOD8303197
_publ_section_title
;
Structure prediction by ZEFSAII (Michael W. Deem and Ramdas Pophale) SiO2 
 PCOD8303197
Probable space group: P 42/M
;
_chemical_formula_sum "Si O2"
_cell_formula_units_Z 40
_cell_length_a 9.417733
_cell_length_b 9.417733
_cell_length_c 23.813543
_cell_angle_alpha 90.000000
_cell_angle_beta 90.000000
_cell_angle_gamma 90.000000
_cell_volume 2112.111116
_symmetry_space_group_name_H-M "P 42/M"
_symmetry_group_IT_number 84
_symmetry_cell_setting 'tetragonal'
loop_
_space_group_symop_operation_xyz
x,y,z
-y,x,1/2+z
-x,-y,z
y,-x,1/2+z
-x,-y,-z
y,-x,1/2-z
x,y,-z
-y,x,1/2-z
loop_
_atom_site_type_symbol
_atom_site_label
_atom_site_fract_x
_atom_site_fract_y
_atom_site_fract_z
Si Si1 0.117218 0.661240 0.670672
Si Si2 0.843640 0.623565 0.147967
Si Si3 0.356154 0.133648 0.703013
Si Si4 0.659670 0.450254 0.934319
Si Si5 0.190568 0.355310 0.642740
O O1 0.217660 0.790994 0.657081
O O2 0.066268 0.664198 0.735615
O O3 0.207533 0.519202 0.659735
O O4 0.977129 0.672950 0.631523
O O5 0.794934 0.513457 0.197297
O O6 0.778359 0.558835 0.090285
O O7 0.014797 0.643854 0.152862
O O8 0.237048 0.252404 0.693587
O O9 0.500000 0.500000 0.919735
O O10 0.679086 0.290142 0.910544
O O11 0.687064 0.444026 0.000000
#
# Coordination Sequence:
#
# PCOD8303197 Si02
#       5
#     8   8   8   8   8
#     4  11  19  34  54  80 118 147 179 221 274 336
#     4  10  20  35  54  81 108 147 184 224 272 330
#     4  10  20  34  53  81 116 147 183 218 270 337
#     4  10  20  39  60  80 103 141 192 244 279 313
#     4  10  21  34  52  82 110 143 182 226 273 330
#
# _framework density 18.938399
#
# number of rings (size 3 to 8) (size 9 to 14) (size 15 to 20)
#    0.000    1.800    2.000    4.800    0.000    0.800 
#    0.000   15.000    0.000    0.000    0.000   14.000 
#    0.000    0.000    0.000    0.000    0.000    0.000 
#
# Total GULP energy -495562.578062 kJ/mol
# GULP energy per Si atom -12389.064452 kJ/mol
# Density = 1.889529 g / cm^3
# Si number density = 18.938399 Si / 1000 Ang^3
#
#
#
# Elastic Constant Matrix: (Units=GPa)
#
#
# Indices 1 2 3 4 5 6 
#
# 1 85.0302 38.4007 29.5672 0.0000 0.0000 4.2228
# 2 38.4007 85.0302 29.5672 0.0000 0.0000 -4.2228
# 3 29.5672 29.5672 94.9910 0.0000 0.0000 0.0000
# 4 0.0000 0.0000 0.0000 22.8857 0.0000 0.0000
# 5 0.0000 0.0000 0.0000 0.0000 22.8857 0.0000
# 6 4.2228 -4.2228 0.0000 0.0000 0.0000 34.0280
#
#
#
# Elastic Compliance Matrix: (Units=1/GPa)
#
#
# Indices 1 2 3 4 5 6 
#
# 1 0.015730 -0.006209 -0.002964 0.000000 0.000000 -0.002723
# 2 -0.006209 0.015730 -0.002964 0.000000 0.000000 0.002723
# 3 -0.002964 -0.002964 0.012372 0.000000 0.000000 0.000000
# 4 0.000000 0.000000 0.000000 0.043695 0.000000 0.000000
# 5 0.000000 0.000000 0.000000 0.000000 0.043695 0.000000
# 6 -0.002723 0.002723 0.000000 0.000000 0.000000 0.030063
#
#
# Mechanical properties :
#
#
# Convention : Reuss Voigt Hill
#
# Bulk Modulus (GPa) = 51.12319 51.12464 51.12392
# Shear Modulus (GPa) = 26.03094 27.12762 26.57928
#
# Velocity S-wave (km/s) = 3.71146 3.78883 3.75034
# Velocity P-wave (km/s) = 6.73941 6.79663 6.76808
#
# Compressibility (1/GPa) = 0.01956059
#
# Stress axis : x y z
#
# Youngs Moduli (GPa) = 63.57213 63.57213 80.82561
#
# Poissons Ratio (x) = 0.39469 0.23954
# Poissons Ratio (y) = 0.39469 0.23954
# Poissons Ratio (z) = 0.18841 0.18841
#
# Static dielectric constant tensor:
#      x y z
#    x 3.490300 0.000000 0.000000 
#    y 0.000000 3.490300 0.000000 
#    z 0.000000 0.000000 3.148870 
# 
# 
# High freq. dielectric constant tensor:
#      x y z
#    x 1.742350 0.000000 0.000000 
#    y 0.000000 1.742350 0.000000 
#    z 0.000000 0.000000 1.696830 
# 
# From -- ./inp_files/4842.got.cif
#   From: 2010.03.12/outbox.cif.g09.slc.cpg/sg84_3_cif.got.tgz:4842.got - 2010.04.08 20:07:29.
