data_PCOD8303671
_publ_section_title
;
Structure prediction by ZEFSAII (Michael W. Deem and Ramdas Pophale) SiO2 
 PCOD8303671
Probable space group: P 42/N
;
_chemical_formula_sum "Si O2"
_cell_formula_units_Z 40
_cell_length_a 9.365651
_cell_length_b 9.365651
_cell_length_c 22.575737
_cell_angle_alpha 90.000000
_cell_angle_beta 90.000000
_cell_angle_gamma 90.000000
_cell_volume 1980.240222
_symmetry_space_group_name_H-M "P 42/N"
_symmetry_group_IT_number 86
_space_group.IT_coordinate_system_code '2'
_symmetry_cell_setting 'tetragonal'
loop_
_space_group_symop_operation_xyz
x,y,z
-y,1/2+x,1/2+z
1/2-x,1/2-y,z
1/2+y,-x,1/2+z
-x,-y,-z
y,1/2-x,1/2-z
1/2+x,1/2+y,-z
1/2-y,x,1/2-z
loop_
_atom_site_type_symbol
_atom_site_label
_atom_site_fract_x
_atom_site_fract_y
_atom_site_fract_z
Si Si1 0.269085 0.420896 0.556773
Si Si2 0.586159 0.731379 0.925712
Si Si3 0.068062 0.518699 0.130736
Si Si4 0.578638 0.598373 0.251741
Si Si5 0.944013 0.404941 0.363317
O O1 0.250000 0.250000 0.564460
O O2 0.238681 0.483506 0.491184
O O3 0.425994 0.472628 0.575523
O O4 0.179860 0.510509 0.604318
O O5 0.750000 0.750000 0.941595
O O6 0.547961 0.850403 0.877637
O O7 0.540835 0.586506 0.894857
O O8 0.233606 0.570647 0.130455
O O9 0.004546 0.561164 0.193074
O O10 0.567620 0.762568 0.273705
O O11 0.455487 0.558189 0.204786
#
# Coordination Sequence:
#
# PCOD8303671 Si02
#       5
#     8   8   8   8   8
#     4  11  21  41  67  93 129 167 202 259 318 379
#     4   9  22  41  63  95 129 163 208 257 320 371
#     4  11  23  41  64  93 125 166 214 262 310 370
#     4  11  24  42  61  84 126 166 211 260 317 372
#     4  11  23  41  64  93 125 166 214 262 310 370
#
# _framework density 20.199570000000001
#
# number of rings (size 3 to 8) (size 9 to 14) (size 15 to 20)
#    0.000    1.400    2.000    3.000    2.800    0.000 
#    0.000    9.000    0.000    0.000    0.000    0.000 
#    0.000    0.000    0.000    0.000    0.000    0.000 
#
# Total GULP energy -495737.413918 kJ/mol
# GULP energy per Si atom -12393.435348 kJ/mol
# Density = 2.015360 g / cm^3
# Si number density = 20.199570 Si / 1000 Ang^3
#
#
#
# Elastic Constant Matrix: (Units=GPa)
#
#
# Indices 1 2 3 4 5 6 
#
# 1 66.8176 27.9667 43.0078 0.0000 0.0000 13.1815
# 2 27.9667 66.8176 43.0078 0.0000 0.0000 -13.1815
# 3 43.0078 43.0078 93.6337 0.0000 0.0000 0.0000
# 4 0.0000 0.0000 0.0000 -0.3659 0.0000 0.0000
# 5 0.0000 0.0000 0.0000 0.0000 -0.3659 0.0000
# 6 13.1815 -13.1815 0.0000 0.0000 0.0000 7.7157
#
#
#
# Elastic Compliance Matrix: (Units=1/GPa)
#
#
# Indices 1 2 3 4 5 6 
#
# 1 -0.071763 0.089854 -0.008310 0.000000 0.000000 0.276105
# 2 0.089854 -0.071763 -0.008310 0.000000 0.000000 -0.276105
# 3 -0.008310 -0.008310 0.018313 0.000000 0.000000 0.000000
# 4 0.000000 0.000000 0.000000 -2.732794 0.000000 0.000000
# 5 0.000000 0.000000 0.000000 0.000000 -2.732794 0.000000
# 6 0.276105 -0.276105 0.000000 0.000000 0.000000 -0.813784
#
#
# Mechanical properties :
#
#
# Convention : Reuss Voigt Hill
#
# Bulk Modulus (GPa) = 47.04271 50.58150 48.81211
# Shear Modulus (GPa) = -0.76406 8.94922 4.09258
#
# Velocity S-wave (km/s) = -0.61569 2.10713 1.42495
# Velocity P-wave (km/s) = 4.77850 5.56914 5.18890
#
# Compressibility (1/GPa) = 0.02125728
#
# Stress axis : x y z
#
# Youngs Moduli (GPa) = -13.93479 -13.93479 54.60467
#
# Poissons Ratio (x) = 1.25210 0.45374
# Poissons Ratio (y) = 1.25210 0.45374
# Poissons Ratio (z) = -0.11579 -0.11579
#
# Static dielectric constant tensor:
#      x y z
#    x 5.676390 0.000000 0.000000 
#    y 0.000000 5.676390 0.000000 
#    z 0.000000 0.000000 3.635470 
# 
# 
# High freq. dielectric constant tensor:
#      x y z
#    x 1.791610 0.000000 0.000000 
#    y 0.000000 1.791610 0.000000 
#    z 0.000000 0.000000 1.798440 
# 
# From -- ./inp_files/4473.got.cif
#   From: 2010.03.12/outbox.cif.g09.slc.cpg/sg86_3_cif.got.tgz:4473.got - 2010.04.08 20:12:58.
