data_PCOD8303702
_publ_section_title
;
Structure prediction by ZEFSAII (Michael W. Deem and Ramdas Pophale) SiO2 
 PCOD8303702
Probable space group: P 42/N
;
_chemical_formula_sum "Si O2"
_cell_formula_units_Z 32
_cell_length_a 8.654761
_cell_length_b 8.654761
_cell_length_c 18.249741
_cell_angle_alpha 90.000000
_cell_angle_beta 90.000000
_cell_angle_gamma 90.000000
_cell_volume 1366.994805
_symmetry_space_group_name_H-M "P 42/N"
_symmetry_group_IT_number 86
_space_group.IT_coordinate_system_code '2'
_symmetry_cell_setting 'tetragonal'
loop_
_space_group_symop_operation_xyz
x,y,z
-y,1/2+x,1/2+z
1/2-x,1/2-y,z
1/2+y,-x,1/2+z
-x,-y,-z
y,1/2-x,1/2-z
1/2+x,1/2+y,-z
1/2-y,x,1/2-z
loop_
_atom_site_type_symbol
_atom_site_label
_atom_site_fract_x
_atom_site_fract_y
_atom_site_fract_z
Si Si1 0.781206 0.417838 0.795605
Si Si2 0.076161 0.288166 0.563249
Si Si3 0.409806 0.099192 0.408299
Si Si4 0.618553 0.459444 0.648444
O O1 0.750000 0.250000 0.832378
O O2 0.678594 0.551454 0.831530
O O3 0.739095 0.401378 0.710146
O O4 0.955599 0.474265 0.811759
O O5 0.250000 0.250000 0.590107
O O6 0.063245 0.280516 0.474921
O O7 0.030639 0.459942 0.586080
O O8 0.951642 0.176770 0.600213
O O9 0.226924 0.057477 0.407094
#
# Coordination Sequence:
#
# PCOD8303702 Si02
#       4
#     8   8   8   8
#     4  12  25  43  70 103 139 190 247 304 370 444
#     4  11  25  46  71 108 148 191 243 311 370 445
#     4  11  25  45  73 102 144 195 242 302 378 441
#     4  12  25  46  72 103 146 194 251 303 374 455
#
# _framework density 23.409015
#
# number of rings (size 3 to 8) (size 9 to 14) (size 15 to 20)
#    0.000    0.500    2.500    6.000    0.000    8.000 
#    0.000    0.000    0.000    0.000    0.000    0.000 
#    0.000    0.000    0.000    0.000    0.000    0.000 
#
# Total GULP energy -396730.513924 kJ/mol
# GULP energy per Si atom -12397.828560 kJ/mol
# Density = 2.335574 g / cm^3
# Si number density = 23.409015 Si / 1000 Ang^3
#
#
#
# Elastic Constant Matrix: (Units=GPa)
#
#
# Indices 1 2 3 4 5 6 
#
# 1 105.4598 26.9809 38.6839 0.0000 0.0000 0.8956
# 2 26.9809 105.4598 38.6839 0.0000 0.0000 -0.8956
# 3 38.6839 38.6839 132.0313 0.0000 0.0000 0.0000
# 4 0.0000 0.0000 0.0000 39.2884 0.0000 0.0000
# 5 0.0000 0.0000 0.0000 0.0000 39.2884 0.0000
# 6 0.8956 -0.8956 0.0000 0.0000 0.0000 50.5127
#
#
#
# Elastic Compliance Matrix: (Units=1/GPa)
#
#
# Indices 1 2 3 4 5 6 
#
# 1 0.010929 -0.001819 -0.002669 0.000000 0.000000 -0.000226
# 2 -0.001819 0.010929 -0.002669 0.000000 0.000000 0.000226
# 3 -0.002669 -0.002669 0.009138 0.000000 0.000000 0.000000
# 4 0.000000 0.000000 0.000000 0.025453 0.000000 0.000000
# 5 0.000000 0.000000 0.000000 0.000000 0.025453 0.000000
# 6 -0.000226 0.000226 0.000000 0.000000 0.000000 0.019805
#
#
# Mechanical properties :
#
#
# Convention : Reuss Voigt Hill
#
# Bulk Modulus (GPa) = 59.94774 61.29424 60.62099
# Shear Modulus (GPa) = 41.12513 41.72470 41.42491
#
# Velocity S-wave (km/s) = 4.19598 4.22645 4.21124
# Velocity P-wave (km/s) = 7.00995 7.07517 7.04264
#
# Compressibility (1/GPa) = 0.01668120
#
# Stress axis : x y z
#
# Youngs Moduli (GPa) = 91.50317 91.50317 109.43334
#
# Poissons Ratio (x) = 0.16643 0.29208
# Poissons Ratio (y) = 0.16643 0.29208
# Poissons Ratio (z) = 0.24423 0.24423
#
# Static dielectric constant tensor:
#      x y z
#    x 4.216640 0.000000 0.000000 
#    y 0.000000 4.216640 0.000000 
#    z 0.000000 0.000000 4.132070 
# 
# 
# High freq. dielectric constant tensor:
#      x y z
#    x 1.932540 0.000000 0.000000 
#    y 0.000000 1.932540 0.000000 
#    z 0.000000 0.000000 1.925000 
# 
# From -- ./inp_files/3845.got.cif
#   From: 2010.03.12/outbox.cif.g09.slc.cpg/sg86_2_cif.got.tgz:3845.got - 2010.04.08 20:12:58.
