data_PCOD8303278
_publ_section_title
;
Structure prediction by ZEFSAII (Michael W. Deem and Ramdas Pophale) SiO2 
 PCOD8303278
Probable space group: P 42/M
;
_chemical_formula_sum "Si O2"
_cell_formula_units_Z 48
_cell_length_a 9.544818
_cell_length_b 9.544818
_cell_length_c 27.480150
_cell_angle_alpha 90.000000
_cell_angle_beta 90.000000
_cell_angle_gamma 90.000000
_cell_volume 2503.539237
_symmetry_space_group_name_H-M "P 42/M"
_symmetry_group_IT_number 84
_symmetry_cell_setting 'tetragonal'
loop_
_space_group_symop_operation_xyz
x,y,z
-y,x,1/2+z
-x,-y,z
y,-x,1/2+z
-x,-y,-z
y,-x,1/2-z
x,y,-z
-y,x,1/2-z
loop_
_atom_site_type_symbol
_atom_site_label
_atom_site_fract_x
_atom_site_fract_y
_atom_site_fract_z
Si Si1 0.160260 0.207215 0.687715
Si Si2 0.091708 0.131292 0.055776
Si Si3 0.785665 0.839640 0.201782
Si Si4 0.331734 0.987211 0.637055
Si Si5 0.586368 0.860479 0.947559
Si Si6 0.494912 0.164418 0.153409
O O1 0.199163 0.150273 0.740652
O O2 0.255549 0.133393 0.647448
O O3 0.210204 0.366584 0.681473
O O4 0.993689 0.182071 0.678928
O O5 0.254018 0.093696 0.063355
O O6 0.062829 0.275279 0.084856
O O7 0.052601 0.162192 0.000000
O O8 0.000000 0.000000 0.075329
O O9 0.628959 0.792159 0.189375
O O10 0.884951 0.720295 0.180012
O O11 0.500000 0.000000 0.636965
O O12 0.527986 0.770072 0.901294
O O13 0.500000 0.000000 0.954268
O O14 0.578146 0.777793 0.000000
O O15 0.500000 0.000000 0.143831
#
# Coordination Sequence:
#
# PCOD8303278 Si02
#       6
#     8   8   8   8   8   8
#     4  11  23  37  63  88 117 159 203 252 301 360
#     4  10  21  39  66  94 119 153 202 256 305 359
#     4  11  21  38  61  86 118 155 204 250 302 356
#     4  12  26  39  58  88 126 163 204 250 303 359
#     4   9  17  32  57  91 122 147 186 245 303 350
#     4   9  20  35  57  88 118 151 192 249 300 361
#
# _framework density 19.172855999999999
#
# number of rings (size 3 to 8) (size 9 to 14) (size 15 to 20)
#    0.000    1.667    3.333    1.500    7.000    0.333 
#    0.000    0.833    0.000    0.000    0.000    2.333 
#    0.000    0.000    0.000    0.000    0.000    0.000 
#
# Total GULP energy -594836.854838 kJ/mol
# GULP energy per Si atom -12392.434476 kJ/mol
# Density = 1.912922 g / cm^3
# Si number density = 19.172856 Si / 1000 Ang^3
#
#
#
# Elastic Constant Matrix: (Units=GPa)
#
#
# Indices 1 2 3 4 5 6 
#
# 1 114.2394 43.0297 31.4107 0.0000 0.0000 -0.2932
# 2 43.0297 114.2394 31.4107 0.0000 0.0000 0.2932
# 3 31.4107 31.4107 82.9608 0.0000 0.0000 0.0000
# 4 0.0000 0.0000 0.0000 51.5794 0.0000 0.0000
# 5 0.0000 0.0000 0.0000 0.0000 51.5794 0.0000
# 6 -0.2932 0.2932 0.0000 0.0000 0.0000 4.7258
#
#
#
# Elastic Compliance Matrix: (Units=1/GPa)
#
#
# Indices 1 2 3 4 5 6 
#
# 1 0.010771 -0.003279 -0.002836 0.000000 0.000000 0.000872
# 2 -0.003279 0.010771 -0.002836 0.000000 0.000000 -0.000872
# 3 -0.002836 -0.002836 0.014202 0.000000 0.000000 0.000000
# 4 0.000000 0.000000 0.000000 0.019388 0.000000 0.000000
# 5 0.000000 0.000000 0.000000 0.000000 0.019388 0.000000
# 6 0.000872 -0.000872 0.000000 0.000000 0.000000 0.211711
#
#
# Mechanical properties :
#
#
# Convention : Reuss Voigt Hill
#
# Bulk Modulus (GPa) = 56.05680 58.12685 57.09183
# Shear Modulus (GPa) = 16.12484 35.28282 25.70383
#
# Velocity S-wave (km/s) = 2.90319 4.29447 3.66544
# Velocity P-wave (km/s) = 6.36703 7.41438 6.91057
#
# Compressibility (1/GPa) = 0.01783905
#
# Stress axis : x y z
#
# Youngs Moduli (GPa) = 92.84292 92.84292 70.41379
#
# Poissons Ratio (x) = 0.30446 0.19973
# Poissons Ratio (y) = 0.30446 0.19973
# Poissons Ratio (z) = 0.26335 0.26335
#
# Static dielectric constant tensor:
#      x y z
#    x 3.434740 0.000000 0.000000 
#    y 0.000000 3.434740 0.000000 
#    z 0.000000 0.000000 3.932150 
# 
# 
# High freq. dielectric constant tensor:
#      x y z
#    x 1.721840 0.000000 0.000000 
#    y 0.000000 1.721840 0.000000 
#    z 0.000000 0.000000 1.768280 
# 
# From -- ./inp_files/5770.got.cif
#   From: 2010.03.12/outbox.cif.g09.slc.cpg/sg84_3_cif.got.tgz:5770.got - 2010.04.08 20:07:29.
