data_PCOD8303232
_publ_section_title
;
Structure prediction by ZEFSAII (Michael W. Deem and Ramdas Pophale) SiO2 
 PCOD8303232
Probable space group: P 42/M
;
_chemical_formula_sum "Si O2"
_cell_formula_units_Z 56
_cell_length_a 14.993411
_cell_length_b 14.993411
_cell_length_c 12.382336
_cell_angle_alpha 90.000000
_cell_angle_beta 90.000000
_cell_angle_gamma 90.000000
_cell_volume 2783.578521
_symmetry_space_group_name_H-M "P 42/M"
_symmetry_group_IT_number 84
_symmetry_cell_setting 'tetragonal'
loop_
_space_group_symop_operation_xyz
x,y,z
-y,x,1/2+z
-x,-y,z
y,-x,1/2+z
-x,-y,-z
y,-x,1/2-z
x,y,-z
-y,x,1/2-z
loop_
_atom_site_type_symbol
_atom_site_label
_atom_site_fract_x
_atom_site_fract_y
_atom_site_fract_z
Si Si1 0.143345 0.329412 0.246447
Si Si2 0.256758 0.200969 0.121059
Si Si3 0.989493 0.220708 0.305445
Si Si4 0.597454 0.300191 0.872286
Si Si5 0.103191 0.498477 0.125986
Si Si6 0.085668 0.057076 0.620809
Si Si7 0.737041 0.419006 0.751559
O O1 0.179215 0.237361 0.197579
O O2 0.203581 0.359178 0.348163
O O3 0.144292 0.402039 0.151395
O O4 0.042035 0.312182 0.282084
O O5 0.251648 0.094682 0.126108
O O6 0.351063 0.241547 0.155685
O O7 0.239652 0.232517 0.000000
O O8 0.962478 0.170270 0.195445
O O9 0.055647 0.159771 0.376186
O O10 0.663751 0.378969 0.833952
O O11 0.506292 0.305778 0.803469
O O12 0.579406 0.309840 0.000000
O O13 0.168064 0.567849 0.187289
O O14 0.000000 0.500000 0.166215
O O15 0.108394 0.520145 0.000000
O O16 0.115608 0.031262 0.500000
O O17 0.000000 0.000000 0.657714
#
# Coordination Sequence:
#
# PCOD8303232 Si02
#       7
#     8   8   8   8   8   8   8
#     4  10  22  37  57  83 118 153 197 245 292 350
#     4  11  22  37  59  83 115 156 197 245 299 351
#     4  12  20  38  52  81 116 152 207 253 290 356
#     4  10  22  42  66  90 122 155 191 240 301 364
#     4  10  20  37  60  86 119 156 194 238 292 349
#     4  11  21  34  52  74 110 156 201 257 308 345
#     4  10  22  41  62  93 121 153 194 245 291 360
#
# _framework density 20.117988
#
# number of rings (size 3 to 8) (size 9 to 14) (size 15 to 20)
#    0.000    1.429    2.857    2.571    0.000    3.714 
#    0.000    3.571    0.000    4.714    0.000    0.000 
#    0.000    0.000    0.000    0.000    0.000    0.000 
#
# Total GULP energy -694360.024662 kJ/mol
# GULP energy per Si atom -12399.286155 kJ/mol
# Density = 2.007220 g / cm^3
# Si number density = 20.117988 Si / 1000 Ang^3
#
#
#
# Elastic Constant Matrix: (Units=GPa)
#
#
# Indices 1 2 3 4 5 6 
#
# 1 90.0575 22.2645 27.4775 0.0000 0.0000 5.1060
# 2 22.2645 90.0575 27.4775 0.0000 0.0000 -5.1060
# 3 27.4775 27.4775 108.1689 0.0000 0.0000 0.0000
# 4 0.0000 0.0000 0.0000 19.9639 0.0000 0.0000
# 5 0.0000 0.0000 0.0000 0.0000 19.9639 0.0000
# 6 5.1060 -5.1060 0.0000 0.0000 0.0000 36.0902
#
#
#
# Elastic Compliance Matrix: (Units=1/GPa)
#
#
# Indices 1 2 3 4 5 6 
#
# 1 0.012619 -0.002453 -0.002583 0.000000 0.000000 -0.002132
# 2 -0.002453 0.012619 -0.002583 0.000000 0.000000 0.002132
# 3 -0.002583 -0.002583 0.010557 0.000000 0.000000 0.000000
# 4 0.000000 0.000000 0.000000 0.050090 0.000000 0.000000
# 5 0.000000 0.000000 0.000000 0.000000 0.050090 0.000000
# 6 -0.002132 0.002132 0.000000 0.000000 0.000000 0.028312
#
#
# Mechanical properties :
#
#
# Convention : Reuss Voigt Hill
#
# Bulk Modulus (GPa) = 48.63877 49.19143 48.91510
# Shear Modulus (GPa) = 26.82739 29.27457 28.05098
#
# Velocity S-wave (km/s) = 3.65568 3.81877 3.73811
# Velocity P-wave (km/s) = 6.48443 6.62937 6.55730
#
# Compressibility (1/GPa) = 0.02055973
#
# Stress axis : x y z
#
# Youngs Moduli (GPa) = 79.24404 79.24404 94.72526
#
# Poissons Ratio (x) = 0.19437 0.24463
# Poissons Ratio (y) = 0.19437 0.24463
# Poissons Ratio (z) = 0.20465 0.20465
#
# Static dielectric constant tensor:
#      x y z
#    x 3.649550 0.000000 0.000000 
#    y 0.000000 3.649550 0.000000 
#    z 0.000000 0.000000 3.465960 
# 
# 
# High freq. dielectric constant tensor:
#      x y z
#    x 1.785840 0.000000 0.000000 
#    y 0.000000 1.785840 0.000000 
#    z 0.000000 0.000000 1.782550 
# 
# From -- ./inp_files/2245.got.cif
#   From: 2010.03.12/outbox.cif.g09.slc.cpg/sg84_2_cif.got.tgz:2245.got - 2010.04.08 20:07:29.
