data_PCOD8303046
_publ_section_title
;
Structure prediction by ZEFSAII (Michael W. Deem and Ramdas Pophale) SiO2 
 PCOD8303046
Probable space group: P 42/M
;
_chemical_formula_sum "Si O2"
_cell_formula_units_Z 46
_cell_length_a 11.309915
_cell_length_b 11.309915
_cell_length_c 18.449339
_cell_angle_alpha 90.000000
_cell_angle_beta 90.000000
_cell_angle_gamma 90.000000
_cell_volume 2359.932020
_symmetry_space_group_name_H-M "P 42/M"
_symmetry_group_IT_number 84
_symmetry_cell_setting 'tetragonal'
loop_
_space_group_symop_operation_xyz
x,y,z
-y,x,1/2+z
-x,-y,z
y,-x,1/2+z
-x,-y,-z
y,-x,1/2-z
x,y,-z
-y,x,1/2-z
loop_
_atom_site_type_symbol
_atom_site_label
_atom_site_fract_x
_atom_site_fract_y
_atom_site_fract_z
Si Si1 0.515148 0.637708 0.848210
Si Si2 0.587865 0.665069 0.000000
Si Si3 0.245157 0.394146 0.777605
Si Si4 0.777587 0.060602 0.341437
Si Si5 0.582645 0.887741 0.360142
Si Si6 0.839952 0.740270 0.000000
Si Si7 0.000000 0.000000 0.250000
Si Si8 0.778391 0.483716 0.000000
O O1 0.500000 0.500000 0.833105
O O2 0.650921 0.660206 0.826541
O O3 0.415126 0.710248 0.804419
O O4 0.502765 0.679974 0.930965
O O5 0.696815 0.759651 0.000000
O O6 0.642548 0.530678 0.000000
O O7 0.142631 0.299074 0.787711
O O8 0.196906 0.523893 0.800257
O O9 0.792177 0.104881 0.425209
O O10 0.903990 0.053199 0.304499
O O11 0.713624 0.932070 0.339368
O O12 0.595420 0.805021 0.430501
O O13 0.500000 0.000000 0.376335
O O14 0.864948 0.599361 0.000000
#
# Coordination Sequence:
#
# PCOD8303046 Si02
#       8
#     8   4   8   8   8   4   2   4
#     4  12  21  33  53  88 131 165 192 237 308 392
#     4  10  19  34  52  89 133 164 195 245 313 379
#     4  11  20  34  60  89 120 165 203 250 310 380
#     4  11  24  42  62  89 119 164 217 280 319 381
#     4  10  17  31  59  89 115 148 201 257 310 359
#     4  10  17  36  69  87 122 164 213 273 323 369
#     4  12  32  46  60  88 128 166 216 276 344 390
#     4  10  14  30  60  95 121 148 201 253 311 358
#
# _framework density 19.492087999999999
#
# number of rings (size 3 to 8) (size 9 to 14) (size 15 to 20)
#    0.522    0.696    8.696    1.043    2.435    0.348 
#    0.000    0.000    0.000    1.043    0.000    6.696 
#    0.000    0.000    0.000    0.000    0.000    0.000 
#
# Total GULP energy -570027.147587 kJ/mol
# GULP energy per Si atom -12391.894513 kJ/mol
# Density = 1.944772 g / cm^3
# Si number density = 19.492088 Si / 1000 Ang^3
#
#
#
# Elastic Constant Matrix: (Units=GPa)
#
#
# Indices 1 2 3 4 5 6 
#
# 1 61.3148 20.9388 50.7041 0.0000 0.0000 -5.6862
# 2 20.9388 61.3148 50.7041 0.0000 0.0000 5.6862
# 3 50.7041 50.7041 166.3669 0.0000 0.0000 0.0000
# 4 0.0000 0.0000 0.0000 22.1530 0.0000 0.0000
# 5 0.0000 0.0000 0.0000 0.0000 22.1530 0.0000
# 6 -5.6862 5.6862 0.0000 0.0000 0.0000 21.6786
#
#
#
# Elastic Compliance Matrix: (Units=1/GPa)
#
#
# Indices 1 2 3 4 5 6 
#
# 1 0.023109 -0.003634 -0.005936 0.000000 0.000000 0.007015
# 2 -0.003634 0.023109 -0.005936 0.000000 0.000000 -0.007015
# 3 -0.005936 -0.005936 0.009629 0.000000 0.000000 0.000000
# 4 0.000000 0.000000 0.000000 0.045141 0.000000 0.000000
# 5 0.000000 0.000000 0.000000 0.000000 0.045141 0.000000
# 6 0.007015 -0.007015 0.000000 0.000000 0.000000 0.049808
#
#
# Mechanical properties :
#
#
# Convention : Reuss Voigt Hill
#
# Bulk Modulus (GPa) = 40.26217 59.29892 49.78055
# Shear Modulus (GPa) = 21.25623 24.30690 22.78157
#
# Velocity S-wave (km/s) = 3.30586 3.53514 3.42242
# Velocity P-wave (km/s) = 5.93903 6.86666 6.41962
#
# Compressibility (1/GPa) = 0.02483721
#
# Stress axis : x y z
#
# Youngs Moduli (GPa) = 43.27300 43.27300 103.85531
#
# Poissons Ratio (x) = 0.15725 0.61644
# Poissons Ratio (y) = 0.15725 0.61644
# Poissons Ratio (z) = 0.25685 0.25685
#
# Static dielectric constant tensor:
#      x y z
#    x 3.399580 0.000000 0.000000 
#    y 0.000000 3.399580 0.000000 
#    z 0.000000 0.000000 3.573450 
# 
# 
# High freq. dielectric constant tensor:
#      x y z
#    x 1.732550 0.000000 0.000000 
#    y 0.000000 1.732550 0.000000 
#    z 0.000000 0.000000 1.765070 
# 
# From -- ./inp_files/3811.got.cif
#   From: 2010.03.12/outbox.cif.g09.slc.cpg/sg84_2_cif.got.tgz:3811.got - 2010.04.08 20:07:29.
