data_PCOD8303662
_publ_section_title
;
Structure prediction by ZEFSAII (Michael W. Deem and Ramdas Pophale) SiO2 
 PCOD8303662
Probable space group: P 42/N
;
_chemical_formula_sum "Si O2"
_cell_formula_units_Z 64
_cell_length_a 12.301203
_cell_length_b 12.301203
_cell_length_c 24.638758
_cell_angle_alpha 90.000000
_cell_angle_beta 90.000000
_cell_angle_gamma 90.000000
_cell_volume 3728.326888
_symmetry_space_group_name_H-M "P 42/N"
_symmetry_group_IT_number 86
_space_group.IT_coordinate_system_code '2'
_symmetry_cell_setting 'tetragonal'
loop_
_space_group_symop_operation_xyz
x,y,z
-y,1/2+x,1/2+z
1/2-x,1/2-y,z
1/2+y,-x,1/2+z
-x,-y,-z
y,1/2-x,1/2-z
1/2+x,1/2+y,-z
1/2-y,x,1/2-z
loop_
_atom_site_type_symbol
_atom_site_label
_atom_site_fract_x
_atom_site_fract_y
_atom_site_fract_z
Si Si1 0.476910 0.832373 0.019980
Si Si2 0.465177 0.179594 0.475613
Si Si3 0.667558 0.162099 0.543433
Si Si4 0.484573 0.513403 0.895987
Si Si5 0.874211 0.630627 0.814969
Si Si6 0.042310 0.100434 0.427033
Si Si7 0.619826 0.880746 0.693826
Si Si8 0.809569 0.643241 0.427695
O O1 0.564245 0.791081 0.063028
O O2 0.411362 0.917737 0.056245
O O3 0.403143 0.732134 0.002469
O O4 0.527310 0.883353 0.965622
O O5 0.566428 0.219376 0.512639
O O6 0.430157 0.271747 0.433052
O O7 0.360805 0.165366 0.513447
O O8 0.497894 0.067299 0.446470
O O9 0.750000 0.250000 0.569495
O O10 0.618987 0.089822 0.592047
O O11 0.550012 0.534551 0.841118
O O12 0.411303 0.403760 0.889840
O O13 0.931373 0.564694 0.864176
O O14 0.912112 0.589644 0.755806
O O15 0.909487 0.756134 0.821075
O O16 0.746202 0.608811 0.817545
O O17 0.750000 0.750000 0.402133
#
# Coordination Sequence:
#
# PCOD8303662 Si02
#       8
#     8   8   8   8   8   8   8   8
#     4  11  21  32  46  73 108 139 167 205 259 307
#     4  11  19  30  50  74 103 141 173 203 252 316
#     4  11  20  32  45  72 108 138 171 209 250 310
#     4  11  20  32  53  77 101 145 180 208 265 311
#     4   9  18  32  51  80 109 131 163 212 257 308
#     4  11  21  29  49  77 106 136 167 206 259 313
#     4   9  18  32  53  79 104 133 170 207 258 310
#     4  11  21  33  48  74 108 140 179 214 247 314
#
# _framework density 17.165877999999999
#
# number of rings (size 3 to 8) (size 9 to 14) (size 15 to 20)
#    0.000    1.500    6.250    2.250    0.000    0.000 
#    0.000    0.000    0.000    0.000   16.250    0.000 
#    0.000    0.000    0.000    0.000    0.000    0.000 
#
# Total GULP energy -793229.433577 kJ/mol
# GULP energy per Si atom -12394.209900 kJ/mol
# Density = 1.712681 g / cm^3
# Si number density = 17.165878 Si / 1000 Ang^3
#
#
#
# Elastic Constant Matrix: (Units=GPa)
#
#
# Indices 1 2 3 4 5 6 
#
# 1 65.7442 24.6908 31.4789 0.0000 0.0000 1.3375
# 2 24.6908 65.7442 31.4789 0.0000 0.0000 -1.3375
# 3 31.4789 31.4789 94.4663 0.0000 0.0000 0.0000
# 4 0.0000 0.0000 0.0000 20.6162 0.0000 0.0000
# 5 0.0000 0.0000 0.0000 0.0000 20.6162 0.0000
# 6 1.3375 -1.3375 0.0000 0.0000 0.0000 32.2331
#
#
#
# Elastic Compliance Matrix: (Units=1/GPa)
#
#
# Indices 1 2 3 4 5 6 
#
# 1 0.019411 -0.005013 -0.004798 0.000000 0.000000 -0.001013
# 2 -0.005013 0.019411 -0.004798 0.000000 0.000000 0.001013
# 3 -0.004798 -0.004798 0.013783 0.000000 0.000000 0.000000
# 4 0.000000 0.000000 0.000000 0.048505 0.000000 0.000000
# 5 0.000000 0.000000 0.000000 0.000000 0.048505 0.000000
# 6 -0.001013 0.001013 0.000000 0.000000 0.000000 0.031108
#
#
# Mechanical properties :
#
#
# Convention : Reuss Voigt Hill
#
# Bulk Modulus (GPa) = 42.75748 44.58357 43.67053
# Shear Modulus (GPa) = 22.96335 23.91351 23.43843
#
# Velocity S-wave (km/s) = 3.66147 3.73645 3.69915
# Velocity P-wave (km/s) = 6.54505 6.68157 6.61366
#
# Compressibility (1/GPa) = 0.02338772
#
# Stress axis : x y z
#
# Youngs Moduli (GPa) = 51.51683 51.51683 72.55174
#
# Poissons Ratio (x) = 0.25828 0.34808
# Poissons Ratio (y) = 0.25828 0.34808
# Poissons Ratio (z) = 0.24716 0.24716
#
# Static dielectric constant tensor:
#      x y z
#    x 3.223700 0.000000 0.000000 
#    y 0.000000 3.223700 0.000000 
#    z 0.000000 0.000000 2.951720 
# 
# 
# High freq. dielectric constant tensor:
#      x y z
#    x 1.661940 0.000000 0.000000 
#    y 0.000000 1.661940 0.000000 
#    z 0.000000 0.000000 1.625410 
# 
# From -- ./inp_files/4937.got.cif
#   From: 2010.03.12/outbox.cif.g09.slc.cpg/sg86_3_cif.got.tgz:4937.got - 2010.04.08 20:12:58.
