data_PCOD8303141
_publ_section_title
;
Structure prediction by ZEFSAII (Michael W. Deem and Ramdas Pophale) SiO2 
 PCOD8303141
Probable space group: P 42/M
;
_chemical_formula_sum "Si O2"
_cell_formula_units_Z 40
_cell_length_a 16.567288
_cell_length_b 16.567288
_cell_length_c 8.661721
_cell_angle_alpha 90.000000
_cell_angle_beta 90.000000
_cell_angle_gamma 90.000000
_cell_volume 2377.426146
_symmetry_space_group_name_H-M "P 42/M"
_symmetry_group_IT_number 84
_symmetry_cell_setting 'tetragonal'
loop_
_space_group_symop_operation_xyz
x,y,z
-y,x,1/2+z
-x,-y,z
y,-x,1/2+z
-x,-y,-z
y,-x,1/2-z
x,y,-z
-y,x,1/2-z
loop_
_atom_site_type_symbol
_atom_site_label
_atom_site_fract_x
_atom_site_fract_y
_atom_site_fract_z
Si Si1 0.272758 0.904970 0.325770
Si Si2 0.783981 0.598026 0.825021
Si Si3 0.391935 0.446125 0.182330
Si Si4 0.108223 0.947341 0.180433
Si Si5 0.059003 0.430607 0.318976
O O1 0.250115 0.930532 0.500000
O O2 0.307703 0.812800 0.319545
O O3 0.344963 0.963179 0.262853
O O4 0.195119 0.910543 0.218095
O O5 0.693743 0.589049 0.760362
O O6 0.848028 0.545805 0.723696
O O7 0.787091 0.565049 0.000000
O O8 0.396350 0.540299 0.226164
O O9 0.405030 0.435313 0.000000
O O10 0.104499 0.040702 0.230789
O O11 0.091327 0.940509 0.000000
O O12 0.048539 0.419564 0.500000
O O13 0.000000 0.500000 0.255234
#
# Coordination Sequence:
#
# PCOD8303141 Si02
#       5
#     8   8   8   8   8
#     4   9  18  34  53  74 102 136 171 216 259 306
#     4   8  18  33  51  71 101 136 170 210 257 307
#     4  10  19  33  51  76 102 136 174 213 258 307
#     4  11  21  35  55  79 106 140 177 215 260 311
#     4   9  17  30  51  77 103 134 171 210 260 312
#
# _framework density 16.824916999999999
#
# number of rings (size 3 to 8) (size 9 to 14) (size 15 to 20)
#    1.200    1.400    0.000    4.200    0.000    3.200 
#    0.000    2.000    0.000    7.200    0.000    0.000 
#    0.000    0.000    0.000    0.000    0.000    0.000 
#
# Total GULP energy -495631.019593 kJ/mol
# GULP energy per Si atom -12390.775490 kJ/mol
# Density = 1.678662 g / cm^3
# Si number density = 16.824917 Si / 1000 Ang^3
#
#
#
# Elastic Constant Matrix: (Units=GPa)
#
#
# Indices 1 2 3 4 5 6 
#
# 1 89.1683 41.5422 15.9817 0.0000 0.0000 2.1160
# 2 41.5422 89.1683 15.9817 0.0000 0.0000 -2.1160
# 3 15.9817 15.9817 59.2369 0.0000 0.0000 0.0000
# 4 0.0000 0.0000 0.0000 24.4969 0.0000 0.0000
# 5 0.0000 0.0000 0.0000 0.0000 24.4969 0.0000
# 6 2.1160 -2.1160 0.0000 0.0000 0.0000 18.1723
#
#
#
# Elastic Compliance Matrix: (Units=1/GPa)
#
#
# Indices 1 2 3 4 5 6 
#
# 1 0.014704 -0.006513 -0.002210 0.000000 0.000000 -0.002470
# 2 -0.006513 0.014704 -0.002210 0.000000 0.000000 0.002470
# 3 -0.002210 -0.002210 0.018074 0.000000 0.000000 0.000000
# 4 0.000000 0.000000 0.000000 0.040821 0.000000 0.000000
# 5 0.000000 0.000000 0.000000 0.000000 0.040821 0.000000
# 6 -0.002470 0.002470 0.000000 0.000000 0.000000 0.055604
#
#
# Mechanical properties :
#
#
# Convention : Reuss Voigt Hill
#
# Bulk Modulus (GPa) = 39.03789 42.73167 40.88478
# Shear Modulus (GPa) = 23.24158 24.37109 23.80633
#
# Velocity S-wave (km/s) = 3.72072 3.81006 3.76566
# Velocity P-wave (km/s) = 6.45842 6.69391 6.57722
#
# Compressibility (1/GPa) = 0.02561614
#
# Stress axis : x y z
#
# Youngs Moduli (GPa) = 68.01038 68.01038 55.32883
#
# Poissons Ratio (x) = 0.44294 0.12227
# Poissons Ratio (y) = 0.44294 0.12227
# Poissons Ratio (z) = 0.15029 0.15029
#
# Static dielectric constant tensor:
#      x y z
#    x 3.041280 0.000000 0.000000 
#    y 0.000000 3.041280 0.000000 
#    z 0.000000 0.000000 3.166160 
# 
# 
# High freq. dielectric constant tensor:
#      x y z
#    x 1.631180 0.000000 0.000000 
#    y 0.000000 1.631180 0.000000 
#    z 0.000000 0.000000 1.661660 
# 
# From -- ./inp_files/899.got.cif
#   From: 2010.03.12/outbox.cif.g09.slc.cpg/sg84_1_cif.got.tgz:899.got - 2010.04.08 20:07:29.
