data_PCOD8303185
_publ_section_title
;
Structure prediction by ZEFSAII (Michael W. Deem and Ramdas Pophale) SiO2 
 PCOD8303185
Probable space group: P 42/M
;
_chemical_formula_sum "Si O2"
_cell_formula_units_Z 56
_cell_length_a 15.007716
_cell_length_b 15.007716
_cell_length_c 14.141096
_cell_angle_alpha 90.000000
_cell_angle_beta 90.000000
_cell_angle_gamma 90.000000
_cell_volume 3185.020823
_symmetry_space_group_name_H-M "P 42/M"
_symmetry_group_IT_number 84
_symmetry_cell_setting 'tetragonal'
loop_
_space_group_symop_operation_xyz
x,y,z
-y,x,1/2+z
-x,-y,z
y,-x,1/2+z
-x,-y,-z
y,-x,1/2-z
x,y,-z
-y,x,1/2-z
loop_
_atom_site_type_symbol
_atom_site_label
_atom_site_fract_x
_atom_site_fract_y
_atom_site_fract_z
Si Si1 0.601290 0.899098 0.301402
Si Si2 0.726045 0.335332 0.893190
Si Si3 0.167873 0.396835 0.603767
Si Si4 0.588516 0.397932 0.752143
Si Si5 0.271347 0.341324 0.891956
Si Si6 0.603983 0.097283 0.303010
Si Si7 0.823148 0.402423 0.395180
O O1 0.663860 0.826642 0.352606
O O2 0.498536 0.882843 0.330742
O O3 0.611822 0.895262 0.187227
O O4 0.631692 0.997644 0.334577
O O5 0.682887 0.238080 0.885960
O O6 0.664741 0.398841 0.830920
O O7 0.727688 0.370722 0.000000
O O8 0.121085 0.389225 0.500000
O O9 0.098917 0.384391 0.689066
O O10 0.214089 0.495366 0.611782
O O11 0.491819 0.396902 0.802505
O O12 0.587879 0.317149 0.677498
O O13 0.168653 0.332780 0.856845
O O14 0.328177 0.251983 0.877994
O O15 0.273144 0.373879 0.000000
O O16 0.865350 0.387677 0.500000
#
# Coordination Sequence:
#
# PCOD8303185 Si02
#       7
#     8   8   8   8   8   8   8
#     4  10  20  33  49  70  99 135 172 208 249 299
#     4  11  21  34  52  71  98 134 170 210 254 296
#     4   9  17  31  53  77  99 128 168 212 258 302
#     4  11  22  34  50  72  98 132 175 214 250 294
#     4  11  21  34  52  71  98 134 170 210 254 296
#     4  10  20  33  49  70  99 135 172 208 249 299
#     4   9  17  31  53  77  99 128 168 212 258 302
#
# _framework density 17.582301999999999
#
# number of rings (size 3 to 8) (size 9 to 14) (size 15 to 20)
#    0.000    1.857    2.857    1.714    0.000    5.143 
#    0.000    5.714    0.000    0.000    0.000    0.000 
#    0.000    9.143    0.000   25.143    0.000    0.571 
#
# Total GULP energy -693769.528661 kJ/mol
# GULP energy per Si atom -12388.741583 kJ/mol
# Density = 1.754228 g / cm^3
# Si number density = 17.582302 Si / 1000 Ang^3
#
#
#
# Elastic Constant Matrix: (Units=GPa)
#
#
# Indices 1 2 3 4 5 6 
#
# 1 80.5668 10.6444 27.9163 0.0000 0.0000 0.0527
# 2 10.6444 80.5668 27.9163 0.0000 0.0000 -0.0527
# 3 27.9163 27.9163 99.8252 0.0000 0.0000 0.0000
# 4 0.0000 0.0000 0.0000 15.0227 0.0000 0.0000
# 5 0.0000 0.0000 0.0000 0.0000 15.0227 0.0000
# 6 0.0527 -0.0527 0.0000 0.0000 0.0000 11.6924
#
#
#
# Elastic Compliance Matrix: (Units=1/GPa)
#
#
# Indices 1 2 3 4 5 6 
#
# 1 0.013765 -0.000537 -0.003699 0.000000 0.000000 -0.000064
# 2 -0.000537 0.013765 -0.003699 0.000000 0.000000 0.000064
# 3 -0.003699 -0.003699 0.012086 0.000000 0.000000 0.000000
# 4 0.000000 0.000000 0.000000 0.066566 0.000000 0.000000
# 5 0.000000 0.000000 0.000000 0.000000 0.066566 0.000000
# 6 -0.000064 0.000064 0.000000 0.000000 0.000000 0.085526
#
#
# Mechanical properties :
#
#
# Convention : Reuss Voigt Hill
#
# Bulk Modulus (GPa) = 42.11321 43.76808 42.94065
# Shear Modulus (GPa) = 17.72674 21.31303 19.51988
#
# Velocity S-wave (km/s) = 3.17868 3.48542 3.33558
# Velocity P-wave (km/s) = 6.12177 6.41443 6.26981
#
# Compressibility (1/GPa) = 0.02374552
#
# Stress axis : x y z
#
# Youngs Moduli (GPa) = 72.64905 72.64905 82.73702
#
# Poissons Ratio (x) = 0.03900 0.30606
# Poissons Ratio (y) = 0.03900 0.30606
# Poissons Ratio (z) = 0.26874 0.26874
#
# Static dielectric constant tensor:
#      x y z
#    x 3.055310 0.000000 0.000000 
#    y 0.000000 3.055310 0.000000 
#    z 0.000000 0.000000 3.539730 
# 
# 
# High freq. dielectric constant tensor:
#      x y z
#    x 1.651050 0.000000 0.000000 
#    y 0.000000 1.651050 0.000000 
#    z 0.000000 0.000000 1.692140 
# 
# From -- ./inp_files/3142.got.cif
#   From: 2010.03.12/outbox.cif.g09.slc.cpg/sg84_2_cif.got.tgz:3142.got - 2010.04.08 20:07:29.
