data_PCOD8303594
_publ_section_title
;
Structure prediction by ZEFSAII (Michael W. Deem and Ramdas Pophale) SiO2 
 PCOD8303594
Probable space group: P 42/N
;
_chemical_formula_sum "Si O2"
_cell_formula_units_Z 32
_cell_length_a 8.231872
_cell_length_b 8.231872
_cell_length_c 19.241456
_cell_angle_alpha 90.000000
_cell_angle_beta 90.000000
_cell_angle_gamma 90.000000
_cell_volume 1303.872572
_symmetry_space_group_name_H-M "P 42/N"
_symmetry_group_IT_number 86
_space_group.IT_coordinate_system_code '2'
_symmetry_cell_setting 'tetragonal'
loop_
_space_group_symop_operation_xyz
x,y,z
-y,1/2+x,1/2+z
1/2-x,1/2-y,z
1/2+y,-x,1/2+z
-x,-y,-z
y,1/2-x,1/2-z
1/2+x,1/2+y,-z
1/2-y,x,1/2-z
loop_
_atom_site_type_symbol
_atom_site_label
_atom_site_fract_x
_atom_site_fract_y
_atom_site_fract_z
Si Si1 0.628063 0.443382 0.095864
Si Si2 0.286470 0.574983 0.058213
Si Si3 0.635582 0.930753 0.212703
Si Si4 0.162437 0.090622 0.349303
O O1 0.468696 0.547217 0.082887
O O2 0.751868 0.537126 0.146088
O O3 0.562554 0.271454 0.125966
O O4 0.727796 0.422333 0.024974
O O5 0.250000 0.750000 0.089938
O O6 0.155628 0.444365 0.085904
O O7 0.747867 0.942233 0.282921
O O8 0.482919 0.053482 0.213402
O O9 0.250000 0.250000 0.318236
#
# Coordination Sequence:
#
# PCOD8303594 Si02
#       4
#     8   8   8   8
#     4  10  23  47  69 111 152 190 245 300 370 439
#     4  10  22  40  79 111 145 190 237 311 378 434
#     4  11  26  46  70 102 146 198 245 297 349 432
#     4  10  23  49  73 106 146 191 243 307 373 433
#
# _framework density 24.542275
#
# number of rings (size 3 to 8) (size 9 to 14) (size 15 to 20)
#    0.000    1.750    0.000    2.250    7.000    4.000 
#   31.500    0.000    0.000    0.000    0.000    0.000 
#    0.000    0.000    0.000    0.000    0.000    0.000 
#
# Total GULP energy -396465.602725 kJ/mol
# GULP energy per Si atom -12389.550085 kJ/mol
# Density = 2.448642 g / cm^3
# Si number density = 24.542275 Si / 1000 Ang^3
#
#
#
# Elastic Constant Matrix: (Units=GPa)
#
#
# Indices 1 2 3 4 5 6 
#
# 1 133.0040 73.0609 63.1219 0.0000 0.0000 5.3893
# 2 73.0609 133.0040 63.1219 0.0000 0.0000 -5.3893
# 3 63.1219 63.1219 93.2579 0.0000 0.0000 0.0000
# 4 0.0000 0.0000 0.0000 38.1608 0.0000 0.0000
# 5 0.0000 0.0000 0.0000 0.0000 38.1608 0.0000
# 6 5.3893 -5.3893 0.0000 0.0000 0.0000 42.3848
#
#
#
# Elastic Compliance Matrix: (Units=1/GPa)
#
#
# Indices 1 2 3 4 5 6 
#
# 1 0.012682 -0.004391 -0.005612 0.000000 0.000000 -0.002171
# 2 -0.004391 0.012682 -0.005612 0.000000 0.000000 0.002171
# 3 -0.005612 -0.005612 0.018319 0.000000 0.000000 0.000000
# 4 0.000000 0.000000 0.000000 0.026205 0.000000 0.000000
# 5 0.000000 0.000000 0.000000 0.000000 0.026205 0.000000
# 6 -0.002171 0.002171 0.000000 0.000000 0.000000 0.024145
#
#
# Mechanical properties :
#
#
# Convention : Reuss Voigt Hill
#
# Bulk Modulus (GPa) = 80.29256 84.20839 82.25048
# Shear Modulus (GPa) = 32.12990 34.40536 33.26763
#
# Velocity S-wave (km/s) = 3.62216 3.74823 3.68574
# Velocity P-wave (km/s) = 7.09087 7.28824 7.19023
#
# Compressibility (1/GPa) = 0.01245445
#
# Stress axis : x y z
#
# Youngs Moduli (GPa) = 78.85326 78.85326 54.58677
#
# Poissons Ratio (x) = 0.34625 0.30632
# Poissons Ratio (y) = 0.34625 0.30632
# Poissons Ratio (z) = 0.44250 0.44250
#
# Static dielectric constant tensor:
#      x y z
#    x 4.716870 0.000000 0.000000 
#    y 0.000000 4.716870 0.000000 
#    z 0.000000 0.000000 4.272800 
# 
# 
# High freq. dielectric constant tensor:
#      x y z
#    x 1.991730 0.000000 0.000000 
#    y 0.000000 1.991730 0.000000 
#    z 0.000000 0.000000 1.957920 
# 
# From -- ./inp_files/3813.got.cif
#   From: 2010.03.12/outbox.cif.g09.slc.cpg/sg86_2_cif.got.tgz:3813.got - 2010.04.08 20:12:58.
