data_PCOD8303862
_publ_section_title
;
Structure prediction by ZEFSAII (Michael W. Deem and Ramdas Pophale) SiO2 
 PCOD8303862
Probable space group: I 4/M
;
_chemical_formula_sum "Si O2"
_cell_formula_units_Z 96
_cell_length_a 24.947127
_cell_length_b 24.947127
_cell_length_c 8.861487
_cell_angle_alpha 90.000000
_cell_angle_beta 90.000000
_cell_angle_gamma 90.000000
_cell_volume 5515.027478
_symmetry_space_group_name_H-M "I 4/M"
_symmetry_group_IT_number 87
_symmetry_cell_setting 'tetragonal'
loop_
_space_group_symop_operation_xyz
x,y,z
-y,x,z
-x,-y,z
y,-x,z
-x,-y,-z
y,-x,-z
x,y,-z
-y,x,-z
1/2+x,1/2+y,1/2+z
1/2-y,1/2+x,1/2+z
1/2-x,1/2-y,1/2+z
1/2+y,1/2-x,1/2+z
1/2-x,1/2-y,1/2-z
1/2+y,1/2-x,1/2-z
1/2+x,1/2+y,1/2-z
1/2-y,1/2+x,1/2-z
loop_
_atom_site_type_symbol
_atom_site_label
_atom_site_fract_x
_atom_site_fract_y
_atom_site_fract_z
Si Si1 0.558333 0.744739 0.334439
Si Si2 0.240343 0.057562 0.177457
Si Si3 0.372298 0.444140 0.175206
Si Si4 0.120493 0.952636 0.834611
Si Si5 0.757936 0.664606 0.175834
Si Si6 0.169575 0.248320 0.675675
O O1 0.576876 0.766104 0.500000
O O2 0.499872 0.770943 0.288080
O O3 0.541009 0.683576 0.348872
O O4 0.606223 0.750192 0.215097
O O5 0.188775 0.062932 0.282175
O O6 0.272239 0.110960 0.228301
O O7 0.226736 0.061196 0.000000
O O8 0.401829 0.492856 0.261398
O O9 0.403026 0.390639 0.224672
O O10 0.377514 0.454429 0.000000
O O11 0.094827 0.943568 0.000000
O O12 0.802691 0.707366 0.221426
O O13 0.698679 0.690848 0.208935
O O14 0.763600 0.651044 0.000000
O O15 0.176094 0.262766 0.500000
#
# Coordination Sequence:
#
# PCOD8303862 Si02
#       6
#    16  16  16  16  16  16
#     4   9  19  33  49  68  92 123 157 194 235 283
#     4  10  20  34  50  69  95 127 160 194 238 289
#     4  11  21  32  46  65  86 111 149 195 239 282
#     4  10  20  34  48  62  83 115 152 191 238 285
#     4  10  20  33  50  73 100 130 165 205 247 290
#     4  10  20  32  49  73 100 130 163 201 246 295
#
# _framework density 17.406984999999999
#
# number of rings (size 3 to 8) (size 9 to 14) (size 15 to 20)
#    0.000    2.000    0.000    5.500    0.000    9.000 
#    0.000    1.667    0.000    0.000    0.000    0.000 
#    0.000    0.667    0.000    7.000    0.000    3.000 
#
# Total GULP energy -594732.401566 kJ/mol
# GULP energy per Si atom -12390.258366 kJ/mol
# Density = 1.736737 g / cm^3
# Si number density = 17.406985 Si / 1000 Ang^3
#
#
#
# Elastic Constant Matrix: (Units=GPa)
#
#
# Indices 1 2 3 4 5 6 
#
# 1 66.9212 10.8728 28.5555 0.0000 0.0000 -1.1720
# 2 10.8728 66.9212 28.5555 0.0000 0.0000 1.1720
# 3 28.5555 28.5555 88.6022 0.0000 0.0000 0.0000
# 4 0.0000 0.0000 0.0000 26.0503 0.0000 0.0000
# 5 0.0000 0.0000 0.0000 0.0000 26.0503 0.0000
# 6 -1.1720 1.1720 0.0000 0.0000 0.0000 15.9501
#
#
#
# Elastic Compliance Matrix: (Units=1/GPa)
#
#
# Indices 1 2 3 4 5 6 
#
# 1 0.017368 -0.000529 -0.005427 0.000000 0.000000 0.001315
# 2 -0.000529 0.017368 -0.005427 0.000000 0.000000 -0.001315
# 3 -0.005427 -0.005427 0.014784 0.000000 0.000000 0.000000
# 4 0.000000 0.000000 0.000000 0.038387 0.000000 0.000000
# 5 0.000000 0.000000 0.000000 0.000000 0.038387 0.000000
# 6 0.001315 -0.001315 0.000000 0.000000 0.000000 0.062889
#
#
# Mechanical properties :
#
#
# Convention : Reuss Voigt Hill
#
# Bulk Modulus (GPa) = 37.37761 39.82358 38.60059
# Shear Modulus (GPa) = 22.63807 23.90751 23.27279
#
# Velocity S-wave (km/s) = 3.61018 3.71002 3.66044
# Velocity P-wave (km/s) = 6.23677 6.42495 6.33156
#
# Compressibility (1/GPa) = 0.02675399
#
# Stress axis : x y z
#
# Youngs Moduli (GPa) = 57.57842 57.57842 67.63869
#
# Poissons Ratio (x) = 0.03047 0.36707
# Poissons Ratio (y) = 0.03047 0.36707
# Poissons Ratio (z) = 0.31247 0.31247
#
# Static dielectric constant tensor:
#      x y z
#    x 3.138790 0.000000 0.000000 
#    y 0.000000 3.138790 0.000000 
#    z 0.000000 0.000000 3.306250 
# 
# 
# High freq. dielectric constant tensor:
#      x y z
#    x 1.644320 0.000000 0.000000 
#    y 0.000000 1.644320 0.000000 
#    z 0.000000 0.000000 1.688400 
# 
# From -- ./inp_files/1395.got.cif
#   From: 2010.03.12/outbox.cif.g09.slc.cpg/sg87_1_cif.got.tgz:1395.got - 2010.04.08 20:16:13.
