data_PCOD8303373
_publ_section_title
;
Structure prediction by ZEFSAII (Michael W. Deem and Ramdas Pophale) SiO2 
 PCOD8303373
Probable space group: P 42/M
;
_chemical_formula_sum "Si O2"
_cell_formula_units_Z 40
_cell_length_a 15.972565
_cell_length_b 15.972565
_cell_length_c 7.723359
_cell_angle_alpha 90.000000
_cell_angle_beta 90.000000
_cell_angle_gamma 90.000000
_cell_volume 1970.405226
_symmetry_space_group_name_H-M "P 42/M"
_symmetry_group_IT_number 84
_symmetry_cell_setting 'tetragonal'
loop_
_space_group_symop_operation_xyz
x,y,z
-y,x,1/2+z
-x,-y,z
y,-x,1/2+z
-x,-y,-z
y,-x,1/2-z
x,y,-z
-y,x,1/2-z
loop_
_atom_site_type_symbol
_atom_site_label
_atom_site_fract_x
_atom_site_fract_y
_atom_site_fract_z
Si Si1 0.370745 0.950797 0.000000
Si Si2 0.601181 0.416894 0.698104
Si Si3 0.452614 0.129582 0.000000
Si Si4 0.777772 0.367788 0.194369
Si Si5 0.129015 0.795556 0.298862
Si Si6 0.755658 0.052378 0.305584
O O1 0.449827 0.890239 0.000000
O O2 0.319549 0.931812 0.173443
O O3 0.395921 0.047447 0.000000
O O4 0.517049 0.387772 0.793473
O O5 0.596528 0.388392 0.500000
O O6 0.677647 0.369971 0.789983
O O7 0.433260 0.182049 0.172155
O O8 0.806536 0.273759 0.231855
O O9 0.804679 0.393517 0.000000
O O10 0.110742 0.780270 0.500000
O O11 0.168145 0.885930 0.259592
O O12 0.041527 0.790541 0.199728
O O13 0.722450 0.070796 0.500000
#
# Coordination Sequence:
#
# PCOD8303373 Si02
#       6
#     4   8   4   8   8   8
#     4  11  24  44  68  90 135 168 213 270 323 378
#     4  11  22  40  62  92 128 165 213 265 325 385
#     4  11  24  44  66  94 128 173 208 274 320 383
#     4  12  23  41  67  92 127 170 215 264 323 385
#     4  11  23  43  66  95 133 171 215 273 321 384
#     4  11  24  41  67  98 131 172 219 263 324 390
#
# _framework density 20.300391000000001
#
# number of rings (size 3 to 8) (size 9 to 14) (size 15 to 20)
#    0.000    0.800    5.000    3.000    2.800    2.800 
#    0.000    6.000    0.000    0.000    0.000    0.000 
#    0.000    0.000    0.000    0.000    0.000    0.000 
#
# Total GULP energy -496236.858742 kJ/mol
# GULP energy per Si atom -12405.921469 kJ/mol
# Density = 2.025419 g / cm^3
# Si number density = 20.300391 Si / 1000 Ang^3
#
#
#
# Elastic Constant Matrix: (Units=GPa)
#
#
# Indices 1 2 3 4 5 6 
#
# 1 101.7220 58.2550 21.5685 0.0000 0.0000 -12.6443
# 2 58.2550 101.7220 21.5685 0.0000 0.0000 12.6443
# 3 21.5685 21.5685 120.1717 0.0000 0.0000 0.0000
# 4 0.0000 0.0000 0.0000 25.3873 0.0000 0.0000
# 5 0.0000 0.0000 0.0000 0.0000 25.3873 0.0000
# 6 -12.6443 12.6443 0.0000 0.0000 0.0000 30.9918
#
#
#
# Elastic Compliance Matrix: (Units=1/GPa)
#
#
# Indices 1 2 3 4 5 6 
#
# 1 0.018368 -0.011799 -0.001179 0.000000 0.000000 0.012307
# 2 -0.011799 0.018368 -0.001179 0.000000 0.000000 -0.012307
# 3 -0.001179 -0.001179 0.008745 0.000000 0.000000 0.000000
# 4 0.000000 0.000000 0.000000 0.039390 0.000000 0.000000
# 5 0.000000 0.000000 0.000000 0.000000 0.039390 0.000000
# 6 0.012307 -0.012307 0.000000 0.000000 0.000000 0.042309
#
#
# Mechanical properties :
#
#
# Convention : Reuss Voigt Hill
#
# Bulk Modulus (GPa) = 58.25350 58.48884 58.37117
# Shear Modulus (GPa) = 24.92473 31.16821 28.04647
#
# Velocity S-wave (km/s) = 3.50779 3.92261 3.72098
# Velocity P-wave (km/s) = 6.72043 7.02780 6.87583
#
# Compressibility (1/GPa) = 0.01716635
#
# Stress axis : x y z
#
# Youngs Moduli (GPa) = 54.44380 54.44380 114.35583
#
# Poissons Ratio (x) = 0.64237 0.13482
# Poissons Ratio (y) = 0.64237 0.13482
# Poissons Ratio (z) = 0.06419 0.06419
#
# Static dielectric constant tensor:
#      x y z
#    x 3.679360 0.000000 0.000000 
#    y 0.000000 3.679360 0.000000 
#    z 0.000000 0.000000 3.853580 
# 
# 
# High freq. dielectric constant tensor:
#      x y z
#    x 1.792140 0.000000 0.000000 
#    y 0.000000 1.792140 0.000000 
#    z 0.000000 0.000000 1.811760 
# 
# From -- ./inp_files/824.got.cif
#   From: 2010.03.12/outbox.cif.g09.slc.cpg/sg84_1_cif.got.tgz:824.got - 2010.04.08 20:07:29.
