data_PCOD8303284
_publ_section_title
;
Structure prediction by ZEFSAII (Michael W. Deem and Ramdas Pophale) SiO2 
 PCOD8303284
Probable space group: P 42/M
;
_chemical_formula_sum "Si O2"
_cell_formula_units_Z 22
_cell_length_a 5.352026
_cell_length_b 5.352026
_cell_length_c 29.795067
_cell_angle_alpha 90.000000
_cell_angle_beta 90.000000
_cell_angle_gamma 90.000000
_cell_volume 853.455331
_symmetry_space_group_name_H-M "P 42/M"
_symmetry_group_IT_number 84
_symmetry_cell_setting 'tetragonal'
loop_
_space_group_symop_operation_xyz
x,y,z
-y,x,1/2+z
-x,-y,z
y,-x,1/2+z
-x,-y,-z
y,-x,1/2-z
x,y,-z
-y,x,1/2-z
loop_
_atom_site_type_symbol
_atom_site_label
_atom_site_fract_x
_atom_site_fract_y
_atom_site_fract_z
Si Si1 0.500000 0.500000 0.750000
Si Si2 0.148615 0.237360 0.311801
Si Si3 0.843081 0.754061 0.500000
Si Si4 0.350480 0.742800 0.905464
O O1 0.724290 0.391745 0.780706
O O2 0.222488 0.163358 0.363262
O O3 0.000000 0.500000 0.311968
O O4 0.000000 0.000000 0.292039
O O5 0.679556 0.772471 0.454082
O O6 0.000000 0.500000 0.500000
O O7 0.000000 0.000000 0.500000
O O8 0.500000 0.500000 0.890581
O O9 0.500000 0.000000 0.911709
#
# Coordination Sequence:
#
# PCOD8303284 Si02
#       4
#     2   8   4   8
#     4  12  28  48  76 110 148 204 264 324 404 466
#     4  11  27  48  75 107 151 196 256 319 392 466
#     4  10  21  40  70 106 148 196 248 307 377 457
#     4  10  21  45  70 108 146 197 247 313 380 459
#
# _framework density 25.777564000000002
#
# number of rings (size 3 to 8) (size 9 to 14) (size 15 to 20)
#    0.000    1.455    1.818    1.636    5.091    0.000 
#    0.000   25.455    0.000    0.000    0.000    0.000 
#    0.000    0.000    0.000    0.000    0.000    0.000 
#
# Total GULP energy -272552.268980 kJ/mol
# GULP energy per Si atom -12388.739499 kJ/mol
# Density = 2.571889 g / cm^3
# Si number density = 25.777564 Si / 1000 Ang^3
#
#
#
# Elastic Constant Matrix: (Units=GPa)
#
#
# Indices 1 2 3 4 5 6 
#
# 1 133.1412 35.0294 31.1855 0.0000 0.0000 -3.6077
# 2 35.0294 133.1412 31.1855 0.0000 0.0000 3.6077
# 3 31.1855 31.1855 234.6499 0.0000 0.0000 0.0000
# 4 0.0000 0.0000 0.0000 -5.0931 0.0000 0.0000
# 5 0.0000 0.0000 0.0000 0.0000 -5.0931 0.0000
# 6 -3.6077 3.6077 0.0000 0.0000 0.0000 48.8076
#
#
#
# Elastic Compliance Matrix: (Units=1/GPa)
#
#
# Indices 1 2 3 4 5 6 
#
# 1 0.008251 -0.001997 -0.000831 0.000000 0.000000 0.000758
# 2 -0.001997 0.008251 -0.000831 0.000000 0.000000 -0.000758
# 3 -0.000831 -0.000831 0.004483 0.000000 0.000000 0.000000
# 4 0.000000 0.000000 0.000000 -0.196342 0.000000 0.000000
# 5 0.000000 0.000000 0.000000 0.000000 -0.196342 0.000000
# 6 0.000758 -0.000758 0.000000 0.000000 0.000000 0.020601
#
#
# Mechanical properties :
#
#
# Convention : Reuss Voigt Hill
#
# Bulk Modulus (GPa) = 73.16961 77.30368 75.23665
# Shear Modulus (GPa) = -14.73952 34.62637 9.94343
#
# Velocity S-wave (km/s) = -2.39382 3.66905 1.96616
# Velocity P-wave (km/s) = 4.56137 6.92842 5.86554
#
# Compressibility (1/GPa) = 0.01366688
#
# Stress axis : x y z
#
# Youngs Moduli (GPa) = 121.19153 121.19153 223.08382
#
# Poissons Ratio (x) = 0.24199 0.18544
# Poissons Ratio (y) = 0.24199 0.18544
# Poissons Ratio (z) = 0.10074 0.10074
#
# Static dielectric constant tensor:
#      x y z
#    x 4.243980 0.000000 0.000000 
#    y 0.000000 4.243980 0.000000 
#    z 0.000000 0.000000 6.447690 
# 
# 
# High freq. dielectric constant tensor:
#      x y z
#    x 2.006910 0.000000 0.000000 
#    y 0.000000 2.006910 0.000000 
#    z 0.000000 0.000000 2.083320 
# 
# From -- ./inp_files/5520.got.cif
#   From: 2010.03.12/outbox.cif.g09.slc.cpg/sg84_3_cif.got.tgz:5520.got - 2010.04.08 20:07:29.
