data_PCOD8303677
_publ_section_title
;
Structure prediction by ZEFSAII (Michael W. Deem and Ramdas Pophale) SiO2 
 PCOD8303677
Probable space group: P 42/N
;
_chemical_formula_sum "Si O2"
_cell_formula_units_Z 40
_cell_length_a 8.787524
_cell_length_b 8.787524
_cell_length_c 22.986994
_cell_angle_alpha 90.000000
_cell_angle_beta 90.000000
_cell_angle_gamma 90.000000
_cell_volume 1775.068964
_symmetry_space_group_name_H-M "P 42/N"
_symmetry_group_IT_number 86
_space_group.IT_coordinate_system_code '2'
_symmetry_cell_setting 'tetragonal'
loop_
_space_group_symop_operation_xyz
x,y,z
-y,1/2+x,1/2+z
1/2-x,1/2-y,z
1/2+y,-x,1/2+z
-x,-y,-z
y,1/2-x,1/2-z
1/2+x,1/2+y,-z
1/2-y,x,1/2-z
loop_
_atom_site_type_symbol
_atom_site_label
_atom_site_fract_x
_atom_site_fract_y
_atom_site_fract_z
Si Si1 0.443975 0.615503 0.115871
Si Si2 0.907818 0.298386 0.642146
Si Si3 0.300295 0.083013 0.055878
Si Si4 0.739447 0.994363 0.260238
Si Si5 0.407387 0.404378 0.569195
O O1 0.532402 0.455857 0.123899
O O2 0.289316 0.558761 0.085519
O O3 0.422648 0.695224 0.179117
O O4 0.524201 0.738672 0.073592
O O5 0.750000 0.250000 0.610561
O O6 0.880575 0.276631 0.711092
O O7 0.055905 0.199423 0.624511
O O8 0.250000 0.250000 0.079954
O O9 0.475498 0.046079 0.069019
O O10 0.289580 0.082323 0.985840
O O11 0.891882 0.895710 0.265856
#
# Coordination Sequence:
#
# PCOD8303677 Si02
#       5
#     8   8   8   8   8
#     4  11  22  42  67  91 128 176 222 275 326 404
#     4  11  22  37  64  96 128 161 217 280 329 387
#     4  11  25  42  64  95 134 171 219 274 335 396
#     4   9  18  37  65  93 123 166 221 269 323 395
#     4  11  24  42  65  93 127 175 221 265 330 410
#
# _framework density 22.534337000000001
#
# number of rings (size 3 to 8) (size 9 to 14) (size 15 to 20)
#    0.000    1.400    2.000    3.600    0.000    8.000 
#    0.000    0.000    0.000    0.000    0.000    0.000 
#    0.000    0.000    0.000    0.000    0.000    0.000 
#
# Total GULP energy -495544.553003 kJ/mol
# GULP energy per Si atom -12388.613825 kJ/mol
# Density = 2.248305 g / cm^3
# Si number density = 22.534337 Si / 1000 Ang^3
#
#
#
# Elastic Constant Matrix: (Units=GPa)
#
#
# Indices 1 2 3 4 5 6 
#
# 1 78.8175 21.0130 21.2037 0.0000 0.0000 2.7714
# 2 21.0130 78.8175 21.2037 0.0000 0.0000 -2.7714
# 3 21.2037 21.2037 114.4038 0.0000 0.0000 0.0000
# 4 0.0000 0.0000 0.0000 23.6855 0.0000 0.0000
# 5 0.0000 0.0000 0.0000 0.0000 23.6855 0.0000
# 6 2.7714 -2.7714 0.0000 0.0000 0.0000 40.1056
#
#
#
# Elastic Compliance Matrix: (Units=1/GPa)
#
#
# Indices 1 2 3 4 5 6 
#
# 1 0.014144 -0.003271 -0.002015 0.000000 0.000000 -0.001203
# 2 -0.003271 0.014144 -0.002015 0.000000 0.000000 0.001203
# 3 -0.002015 -0.002015 0.009488 0.000000 0.000000 0.000000
# 4 0.000000 0.000000 0.000000 0.042220 0.000000 0.000000
# 5 0.000000 0.000000 0.000000 0.000000 0.042220 0.000000
# 6 -0.001203 0.001203 0.000000 0.000000 0.000000 0.025100
#
#
# Mechanical properties :
#
#
# Convention : Reuss Voigt Hill
#
# Bulk Modulus (GPa) = 43.15336 44.31995 43.73665
# Shear Modulus (GPa) = 29.47352 31.40321 30.43837
#
# Velocity S-wave (km/s) = 3.62047 3.73711 3.67925
# Velocity P-wave (km/s) = 6.05546 6.19126 6.12374
#
# Compressibility (1/GPa) = 0.02317317
#
# Stress axis : x y z
#
# Youngs Moduli (GPa) = 70.70102 70.70102 105.39665
#
# Poissons Ratio (x) = 0.23127 0.21240
# Poissons Ratio (y) = 0.23127 0.21240
# Poissons Ratio (z) = 0.14248 0.14248
#
# Static dielectric constant tensor:
#      x y z
#    x 3.857860 0.000000 0.000000 
#    y 0.000000 3.857860 0.000000 
#    z 0.000000 0.000000 4.071360 
# 
# 
# High freq. dielectric constant tensor:
#      x y z
#    x 1.884290 0.000000 0.000000 
#    y 0.000000 1.884290 0.000000 
#    z 0.000000 0.000000 1.886070 
# 
# From -- ./inp_files/4461.got.cif
#   From: 2010.03.12/outbox.cif.g09.slc.cpg/sg86_3_cif.got.tgz:4461.got - 2010.04.08 20:12:58.
