data_PCOD8303896
_publ_section_title
;
Structure prediction by ZEFSAII (Michael W. Deem and Ramdas Pophale) SiO2 
 PCOD8303896
Probable space group: I 4/M
;
_chemical_formula_sum "Si O2"
_cell_formula_units_Z 96
_cell_length_a 24.127068
_cell_length_b 24.127068
_cell_length_c 8.632955
_cell_angle_alpha 90.000000
_cell_angle_beta 90.000000
_cell_angle_gamma 90.000000
_cell_volume 5025.376142
_symmetry_space_group_name_H-M "I 4/M"
_symmetry_group_IT_number 87
_symmetry_cell_setting 'tetragonal'
loop_
_space_group_symop_operation_xyz
x,y,z
-y,x,z
-x,-y,z
y,-x,z
-x,-y,-z
y,-x,-z
x,y,-z
-y,x,-z
1/2+x,1/2+y,1/2+z
1/2-y,1/2+x,1/2+z
1/2-x,1/2-y,1/2+z
1/2+y,1/2-x,1/2+z
1/2-x,1/2-y,1/2-z
1/2+y,1/2-x,1/2-z
1/2+x,1/2+y,1/2-z
1/2-y,1/2+x,1/2-z
loop_
_atom_site_type_symbol
_atom_site_label
_atom_site_fract_x
_atom_site_fract_y
_atom_site_fract_z
Si Si1 0.793394 0.955637 0.814979
Si Si2 0.736895 0.665748 0.683339
Si Si3 0.484711 0.082292 0.683678
Si Si4 0.455804 0.205318 0.684113
Si Si5 0.230768 0.666208 0.316615
Si Si6 0.413936 0.484583 0.684284
O O1 0.779920 0.894350 0.752210
O O2 0.853025 0.973799 0.747056
O O3 0.747479 0.998128 0.750390
O O4 0.794247 0.956056 0.000000
O O5 0.741390 0.665251 0.500000
O O6 0.690723 0.710126 0.739044
O O7 0.796789 0.680949 0.750738
O O8 0.492388 0.079091 0.500000
O O9 0.541886 0.064825 0.765001
O O10 0.469962 0.143711 0.741968
O O11 0.455321 0.207156 0.500000
O O12 0.395903 0.223976 0.748930
O O13 0.226468 0.666695 0.500000
O O14 0.455712 0.436279 0.741815
O O15 0.411775 0.483892 0.500000
#
# Coordination Sequence:
#
# PCOD8303896 Si02
#       6
#    16  16  16  16  16  16
#     4   9  17  27  43  67  95 125 157 193 232 278
#     4   9  18  31  50  73  95 124 160 196 236 278
#     4  10  20  35  53  72  94 125 159 198 243 287
#     4   9  19  31  46  68  95 126 160 194 234 283
#     4   9  18  33  50  69  95 128 160 193 236 283
#     4   8  14  23  37  61  94 129 158 187 229 277
#
# _framework density 19.103047
#
# number of rings (size 3 to 8) (size 9 to 14) (size 15 to 20)
#    0.000    3.000    0.000    1.500    4.667    0.000 
#    0.000    0.833    0.000    1.000    0.000    0.000 
#    0.000    0.000    0.000    1.833    0.000    3.000 
#
# Total GULP energy -595100.381009 kJ/mol
# GULP energy per Si atom -12397.924604 kJ/mol
# Density = 1.905957 g / cm^3
# Si number density = 19.103047 Si / 1000 Ang^3
#
#
#
# Elastic Constant Matrix: (Units=GPa)
#
#
# Indices 1 2 3 4 5 6 
#
# 1 185.1720 103.3236 6.3723 0.0000 0.0000 1.2094
# 2 103.3236 185.1720 6.3723 0.0000 0.0000 -1.2094
# 3 6.3723 6.3723 6.9211 0.0000 0.0000 0.0000
# 4 0.0000 0.0000 0.0000 15.8110 0.0000 0.0000
# 5 0.0000 0.0000 0.0000 0.0000 15.8110 0.0000
# 6 1.2094 -1.2094 0.0000 0.0000 0.0000 27.7204
#
#
#
# Elastic Compliance Matrix: (Units=1/GPa)
#
#
# Indices 1 2 3 4 5 6 
#
# 1 0.007923 -0.004310 -0.003327 0.000000 0.000000 -0.000534
# 2 -0.004310 0.007923 -0.003327 0.000000 0.000000 0.000534
# 3 -0.003327 -0.003327 0.150612 0.000000 0.000000 0.000000
# 4 0.000000 0.000000 0.000000 0.063247 0.000000 0.000000
# 5 0.000000 0.000000 0.000000 0.000000 0.063247 0.000000
# 6 -0.000534 0.000534 0.000000 0.000000 0.000000 0.036121
#
#
# Mechanical properties :
#
#
# Convention : Reuss Voigt Hill
#
# Bulk Modulus (GPa) = 6.91890 67.71124 37.31507
# Shear Modulus (GPa) = 12.52573 29.28161 20.90367
#
# Velocity S-wave (km/s) = 2.56343 3.91938 3.31155
# Velocity P-wave (km/s) = 3.52013 7.48360 5.84789
#
# Compressibility (1/GPa) = 0.14453167
#
# Stress axis : x y z
#
# Youngs Moduli (GPa) = 126.20924 126.20924 6.63957
#
# Poissons Ratio (x) = 0.54398 0.02209
# Poissons Ratio (y) = 0.54398 0.02209
# Poissons Ratio (z) = 0.41986 0.41986
#
# Static dielectric constant tensor:
#      x y z
#    x 3.767540 0.000000 0.000000 
#    y 0.000000 3.767540 0.000000 
#    z 0.000000 0.000000 2.918090 
# 
# 
# High freq. dielectric constant tensor:
#      x y z
#    x 1.753230 0.000000 0.000000 
#    y 0.000000 1.753230 0.000000 
#    z 0.000000 0.000000 1.684410 
# 
# From -- ./inp_files/1428.got.cif
#   From: 2010.03.12/outbox.cif.g09.slc.cpg/sg87_1_cif.got.tgz:1428.got - 2010.04.08 20:16:13.
