data_PCOD8303676
_publ_section_title
;
Structure prediction by ZEFSAII (Michael W. Deem and Ramdas Pophale) SiO2 
 PCOD8303676
Probable space group: P 42/N
;
_chemical_formula_sum "Si O2"
_cell_formula_units_Z 60
_cell_length_a 11.470651
_cell_length_b 11.470651
_cell_length_c 20.803226
_cell_angle_alpha 90.000000
_cell_angle_beta 90.000000
_cell_angle_gamma 90.000000
_cell_volume 2737.201818
_symmetry_space_group_name_H-M "P 42/N"
_symmetry_group_IT_number 86
_space_group.IT_coordinate_system_code '2'
_symmetry_cell_setting 'tetragonal'
loop_
_space_group_symop_operation_xyz
x,y,z
-y,1/2+x,1/2+z
1/2-x,1/2-y,z
1/2+y,-x,1/2+z
-x,-y,-z
y,1/2-x,1/2-z
1/2+x,1/2+y,-z
1/2-y,x,1/2-z
loop_
_atom_site_type_symbol
_atom_site_label
_atom_site_fract_x
_atom_site_fract_y
_atom_site_fract_z
Si Si1 0.842193 0.839835 0.502370
Si Si2 0.428738 0.244931 0.771134
Si Si3 0.171409 0.414769 0.245027
Si Si4 0.016956 0.730600 0.096096
Si Si5 0.533091 0.962583 0.881617
Si Si6 0.938333 0.217025 0.572455
Si Si7 0.750000 0.250000 0.466210
Si Si8 0.857028 0.336920 0.691984
O O1 0.750000 0.750000 0.532074
O O2 0.918183 0.894208 0.558026
O O3 0.927371 0.778060 0.450238
O O4 0.764796 0.937233 0.466880
O O5 0.345447 0.130945 0.771735
O O6 0.452246 0.292956 0.843541
O O7 0.550564 0.210393 0.741994
O O8 0.301797 0.384514 0.219243
O O9 0.088636 0.423016 0.184027
O O10 0.171205 0.527733 0.291904
O O11 0.039274 0.600117 0.118704
O O12 0.141487 0.788119 0.078977
O O13 0.401370 0.914251 0.887185
O O14 0.859391 0.214977 0.509350
O O15 0.906532 0.326252 0.618737
O O16 0.750000 0.250000 0.700480
#
# Coordination Sequence:
#
# PCOD8303676 Si02
#       8
#     8   8   8   8   8   8   4   8
#     4  11  24  42  71 101 135 185 233 289 363 423
#     4  11  26  45  71 106 147 188 235 302 369 423
#     4  11  27  46  68 101 142 188 240 295 360 432
#     4  11  23  43  72 100 137 182 237 292 350 433
#     4  11  21  48  69  96 140 190 232 284 363 431
#     4  11  23  45  73  99 137 183 237 290 356 427
#     4  12  22  44  70 106 132 178 240 294 346 418
#     4  12  26  44  74 101 138 192 242 292 357 442
#
# _framework density 21.920195
#
# number of rings (size 3 to 8) (size 9 to 14) (size 15 to 20)
#    0.000    0.800    4.667    3.200    8.400    0.000 
#    0.000    0.667    0.000    0.000    0.000    0.000 
#    0.000    0.000    0.000    0.000    0.000    0.000 
#
# Total GULP energy -743977.589552 kJ/mol
# GULP energy per Si atom -12399.626493 kJ/mol
# Density = 2.187030 g / cm^3
# Si number density = 21.920195 Si / 1000 Ang^3
#
#
#
# Elastic Constant Matrix: (Units=GPa)
#
#
# Indices 1 2 3 4 5 6 
#
# 1 92.0605 40.1952 23.8073 0.0000 0.0000 3.3520
# 2 40.1952 92.0605 23.8073 0.0000 0.0000 -3.3520
# 3 23.8073 23.8073 89.8151 0.0000 0.0000 0.0000
# 4 0.0000 0.0000 0.0000 -25.4784 0.0000 0.0000
# 5 0.0000 0.0000 0.0000 0.0000 -25.4784 0.0000
# 6 3.3520 -3.3520 0.0000 0.0000 0.0000 30.4738
#
#
#
# Elastic Compliance Matrix: (Units=1/GPa)
#
#
# Indices 1 2 3 4 5 6 
#
# 1 0.013959 -0.005600 -0.002216 0.000000 0.000000 -0.002151
# 2 -0.005600 0.013959 -0.002216 0.000000 0.000000 0.002151
# 3 -0.002216 -0.002216 0.012309 0.000000 0.000000 0.000000
# 4 0.000000 0.000000 0.000000 -0.039249 0.000000 0.000000
# 5 0.000000 0.000000 0.000000 0.000000 -0.039249 0.000000
# 6 -0.002151 0.002151 0.000000 0.000000 0.000000 0.033288
#
#
# Mechanical properties :
#
#
# Convention : Reuss Voigt Hill
#
# Bulk Modulus (GPa) = 49.59454 49.95066 49.77260
# Shear Modulus (GPa) = 229.35124 8.31181 118.83152
#
# Velocity S-wave (km/s) = 10.23998 1.94938 7.37080
# Velocity P-wave (km/s) = 12.74691 5.28240 9.75673
#
# Compressibility (1/GPa) = 0.02016351
#
# Stress axis : x y z
#
# Youngs Moduli (GPa) = 71.63938 71.63938 81.24399
#
# Poissons Ratio (x) = 0.40118 0.18001
# Poissons Ratio (y) = 0.40118 0.18001
# Poissons Ratio (z) = 0.15873 0.15873
#
# Static dielectric constant tensor:
#      x y z
#    x 4.169680 0.000000 0.000000 
#    y 0.000000 4.169680 0.000000 
#    z 0.000000 0.000000 4.000620 
# 
# 
# High freq. dielectric constant tensor:
#      x y z
#    x 1.862760 0.000000 0.000000 
#    y 0.000000 1.862760 0.000000 
#    z 0.000000 0.000000 1.862840 
# 
# From -- ./inp_files/4268.got.cif
#   From: 2010.03.12/outbox.cif.g09.slc.cpg/sg86_3_cif.got.tgz:4268.got - 2010.04.08 20:12:58.
