data_PCOD8303096
_publ_section_title
;
Structure prediction by ZEFSAII (Michael W. Deem and Ramdas Pophale) SiO2 
 PCOD8303096
Probable space group: P 42/M
;
_chemical_formula_sum "Si O2"
_cell_formula_units_Z 48
_cell_length_a 20.375642
_cell_length_b 20.375642
_cell_length_c 9.398369
_cell_angle_alpha 90.000000
_cell_angle_beta 90.000000
_cell_angle_gamma 90.000000
_cell_volume 3901.890660
_symmetry_space_group_name_H-M "P 42/M"
_symmetry_group_IT_number 84
_symmetry_cell_setting 'tetragonal'
loop_
_space_group_symop_operation_xyz
x,y,z
-y,x,1/2+z
-x,-y,z
y,-x,1/2+z
-x,-y,-z
y,-x,1/2-z
x,y,-z
-y,x,1/2-z
loop_
_atom_site_type_symbol
_atom_site_label
_atom_site_fract_x
_atom_site_fract_y
_atom_site_fract_z
Si Si1 0.923139 0.425979 0.839382
Si Si2 0.938383 0.178756 0.166852
Si Si3 0.068874 0.169284 0.334393
Si Si4 0.926465 0.306060 0.340133
Si Si5 0.079140 0.429496 0.841605
Si Si6 0.082177 0.312318 0.344003
O O1 0.894346 0.370144 0.734917
O O2 0.901179 0.498166 0.782808
O O3 0.001323 0.422271 0.841360
O O4 0.897007 0.414430 0.000000
O O5 0.887365 0.120698 0.191392
O O6 0.909494 0.242655 0.245267
O O7 0.006245 0.154755 0.236217
O O8 0.948837 0.194248 0.000000
O O9 0.046361 0.173272 0.500000
O O10 0.101430 0.239314 0.289556
O O11 0.897653 0.298548 0.500000
O O12 0.003891 0.315448 0.347182
O O13 0.111799 0.370534 0.752065
O O14 0.106829 0.422072 0.000000
O O15 0.111609 0.324392 0.500000
#
# Coordination Sequence:
#
# PCOD8303096 Si02
#       6
#     8   8   8   8   8   8
#     4   8  13  21  32  47  67  87 104 121 144 177
#     4  10  19  30  43  53  63  82 105 133 172 212
#     4   9  19  32  41  52  67  81 103 135 171 211
#     4   9  16  25  36  50  67  83 102 128 155 189
#     4   8  13  20  31  48  67  84 103 124 143 174
#     4   8  14  24  35  46  63  83 100 123 155 191
#
# _framework density 12.301729
#
# number of rings (size 3 to 8) (size 9 to 14) (size 15 to 20)
#    0.000    3.333    0.000    3.000    0.000    6.333 
#    0.000    5.000    0.000    0.000    0.000    0.000 
#    0.000    0.000    0.000    0.000    0.000    0.000 
#
# Total GULP energy -594744.001692 kJ/mol
# GULP energy per Si atom -12390.500035 kJ/mol
# Density = 1.227373 g / cm^3
# Si number density = 12.301729 Si / 1000 Ang^3
#
#
#
# Elastic Constant Matrix: (Units=GPa)
#
#
# Indices 1 2 3 4 5 6 
#
# 1 58.2742 32.5068 43.4688 0.0000 0.0000 0.3512
# 2 32.5068 58.2742 43.4688 0.0000 0.0000 -0.3512
# 3 43.4688 43.4688 86.2572 0.0000 0.0000 0.0000
# 4 0.0000 0.0000 0.0000 15.5740 0.0000 0.0000
# 5 0.0000 0.0000 0.0000 0.0000 15.5740 0.0000
# 6 0.3512 -0.3512 0.0000 0.0000 0.0000 -0.2322
#
#
#
# Elastic Compliance Matrix: (Units=1/GPa)
#
#
# Indices 1 2 3 4 5 6 
#
# 1 0.029281 -0.007991 -0.010729 0.000000 0.000000 0.056376
# 2 -0.007991 0.029281 -0.010729 0.000000 0.000000 -0.056376
# 3 -0.010729 -0.010729 0.022407 0.000000 0.000000 0.000000
# 4 0.000000 0.000000 0.000000 0.064210 0.000000 0.000000
# 5 0.000000 0.000000 0.000000 0.000000 0.064210 0.000000
# 6 0.056376 -0.056376 0.000000 0.000000 0.000000 -4.136090
#
#
# Mechanical properties :
#
#
# Convention : Reuss Voigt Hill
#
# Bulk Modulus (GPa) = 45.30793 49.07719 47.19256
# Shear Modulus (GPa) = -1.29519 11.74055 5.22268
#
# Velocity S-wave (km/s) = -1.02720 3.09266 2.06269
# Velocity P-wave (km/s) = 5.95849 7.26181 6.64220
#
# Compressibility (1/GPa) = 0.02207119
#
# Stress axis : x y z
#
# Youngs Moduli (GPa) = 34.15162 34.15162 44.62869
#
# Poissons Ratio (x) = 0.27289 0.47883
# Poissons Ratio (y) = 0.27289 0.47883
# Poissons Ratio (z) = 0.36642 0.36642
#
# Static dielectric constant tensor:
#      x y z
#    x 2.397290 0.000000 0.000000 
#    y 0.000000 2.397290 0.000000 
#    z 0.000000 0.000000 2.788460 
# 
# 
# High freq. dielectric constant tensor:
#      x y z
#    x 1.429170 0.000000 0.000000 
#    y 0.000000 1.429170 0.000000 
#    z 0.000000 0.000000 1.479550 
# 
# From -- ./inp_files/1242.got.cif
#   From: 2010.03.12/outbox.cif.g09.slc.cpg/sg84_1_cif.got.tgz:1242.got - 2010.04.08 20:07:29.
