data_PCOD8303070
_publ_section_title
;
Structure prediction by ZEFSAII (Michael W. Deem and Ramdas Pophale) SiO2 
 PCOD8303070
Probable space group: P 42/M
;
_chemical_formula_sum "Si O2"
_cell_formula_units_Z 52
_cell_length_a 15.975432
_cell_length_b 15.975432
_cell_length_c 11.917925
_cell_angle_alpha 90.000000
_cell_angle_beta 90.000000
_cell_angle_gamma 90.000000
_cell_volume 3041.626407
_symmetry_space_group_name_H-M "P 42/M"
_symmetry_group_IT_number 84
_symmetry_cell_setting 'tetragonal'
loop_
_space_group_symop_operation_xyz
x,y,z
-y,x,1/2+z
-x,-y,z
y,-x,1/2+z
-x,-y,-z
y,-x,1/2-z
x,y,-z
-y,x,1/2-z
loop_
_atom_site_type_symbol
_atom_site_label
_atom_site_fract_x
_atom_site_fract_y
_atom_site_fract_z
Si Si1 0.500000 0.000000 0.714867
Si Si2 0.649122 0.026702 0.127725
Si Si3 0.819835 0.508425 0.127453
Si Si4 0.105544 0.184667 0.129609
Si Si5 0.211317 0.679204 0.867373
Si Si6 0.781112 0.936571 0.738314
Si Si7 0.670641 0.193571 0.755048
O O1 0.579476 0.985462 0.793853
O O2 0.512135 0.079658 0.635618
O O3 0.656835 0.126326 0.145932
O O4 0.735916 0.981501 0.157278
O O5 0.625570 0.008574 0.000000
O O6 0.786126 0.418244 0.167776
O O7 0.779456 0.581333 0.203227
O O8 0.793486 0.524768 0.000000
O O9 0.140319 0.112384 0.210663
O O10 0.151121 0.272242 0.158698
O O11 0.006143 0.188942 0.149605
O O12 0.122846 0.163746 0.000000
O O13 0.124578 0.719422 0.828182
O O14 0.288887 0.723208 0.805856
O O15 0.219365 0.690403 0.000000
#
# Coordination Sequence:
#
# PCOD8303070 Si02
#       7
#     4   8   8   8   8   8   8
#     4  10  18  30  46  78 106 132 168 210 246 308
#     4  10  18  30  47  69 103 140 169 205 253 297
#     4  10  19  32  54  79 104 133 166 212 258 298
#     4  10  20  35  52  70  99 134 170 217 261 299
#     4  10  19  34  55  76 103 134 167 207 254 304
#     4  10  20  34  49  74  99 132 176 215 250 303
#     4   9  20  33  51  76 104 131 172 206 253 308
#
# _framework density 17.096115999999999
#
# number of rings (size 3 to 8) (size 9 to 14) (size 15 to 20)
#    0.000    2.154    1.538    2.308    0.000    0.308 
#    0.000    3.077    0.000    0.462    0.000    2.154 
#    0.000    0.000    0.000    0.000    0.000    0.000 
#
# Total GULP energy -644898.829657 kJ/mol
# GULP energy per Si atom -12401.900570 kJ/mol
# Density = 1.705720 g / cm^3
# Si number density = 17.096116 Si / 1000 Ang^3
#
#
#
# Elastic Constant Matrix: (Units=GPa)
#
#
# Indices 1 2 3 4 5 6 
#
# 1 101.9601 46.1253 38.2900 0.0000 0.0000 -2.9662
# 2 46.1253 101.9601 38.2900 0.0000 0.0000 2.9662
# 3 38.2900 38.2900 82.4826 0.0000 0.0000 0.0000
# 4 0.0000 0.0000 0.0000 15.3180 0.0000 0.0000
# 5 0.0000 0.0000 0.0000 0.0000 15.3180 0.0000
# 6 -2.9662 2.9662 0.0000 0.0000 0.0000 23.4479
#
#
#
# Elastic Compliance Matrix: (Units=1/GPa)
#
#
# Indices 1 2 3 4 5 6 
#
# 1 0.013520 -0.004634 -0.004125 0.000000 0.000000 0.002296
# 2 -0.004634 0.013520 -0.004125 0.000000 0.000000 -0.002296
# 3 -0.004125 -0.004125 0.015954 0.000000 0.000000 0.000000
# 4 0.000000 0.000000 0.000000 0.065283 0.000000 0.000000
# 5 0.000000 0.000000 0.000000 0.000000 0.065283 0.000000
# 6 0.002296 -0.002296 0.000000 0.000000 0.000000 0.043229
#
#
# Mechanical properties :
#
#
# Convention : Reuss Voigt Hill
#
# Bulk Modulus (GPa) = 58.05356 59.09036 58.57196
# Shear Modulus (GPa) = 20.13711 21.72996 20.93353
#
# Velocity S-wave (km/s) = 3.43574 3.56904 3.50303
# Velocity P-wave (km/s) = 7.05479 7.18490 7.12014
#
# Compressibility (1/GPa) = 0.01722547
#
# Stress axis : x y z
#
# Youngs Moduli (GPa) = 73.96436 73.96436 62.68160
#
# Poissons Ratio (x) = 0.34275 0.25857
# Poissons Ratio (y) = 0.34275 0.25857
# Poissons Ratio (z) = 0.30511 0.30511
#
# Static dielectric constant tensor:
#      x y z
#    x 3.149950 0.000000 0.000000 
#    y 0.000000 3.149950 0.000000 
#    z 0.000000 0.000000 3.045370 
# 
# 
# High freq. dielectric constant tensor:
#      x y z
#    x 1.650350 0.000000 0.000000 
#    y 0.000000 1.650350 0.000000 
#    z 0.000000 0.000000 1.659560 
# 
# From -- ./inp_files/2236.got.cif
#   From: 2010.03.12/outbox.cif.g09.slc.cpg/sg84_2_cif.got.tgz:2236.got - 2010.04.08 20:07:29.
