data_PCOD8303586
_publ_section_title
;
Structure prediction by ZEFSAII (Michael W. Deem and Ramdas Pophale) SiO2 
 PCOD8303586
Probable space group: P 42/N
;
_chemical_formula_sum "Si O2"
_cell_formula_units_Z 48
_cell_length_a 12.008955
_cell_length_b 12.008955
_cell_length_c 17.341050
_cell_angle_alpha 90.000000
_cell_angle_beta 90.000000
_cell_angle_gamma 90.000000
_cell_volume 2500.839529
_symmetry_space_group_name_H-M "P 42/N"
_symmetry_group_IT_number 86
_space_group.IT_coordinate_system_code '2'
_symmetry_cell_setting 'tetragonal'
loop_
_space_group_symop_operation_xyz
x,y,z
-y,1/2+x,1/2+z
1/2-x,1/2-y,z
1/2+y,-x,1/2+z
-x,-y,-z
y,1/2-x,1/2-z
1/2+x,1/2+y,-z
1/2-y,x,1/2-z
loop_
_atom_site_type_symbol
_atom_site_label
_atom_site_fract_x
_atom_site_fract_y
_atom_site_fract_z
Si Si1 0.445317 0.538017 0.163200
Si Si2 0.044377 0.402282 0.047937
Si Si3 0.637215 0.384458 0.138616
Si Si4 0.635994 0.379454 0.679497
Si Si5 0.999442 0.834884 0.008779
Si Si6 0.874919 0.712442 0.584022
O O1 0.562428 0.477020 0.181466
O O2 0.413527 0.613952 0.235136
O O3 0.461638 0.621668 0.091397
O O4 0.347156 0.445590 0.151835
O O5 0.174389 0.430485 0.056373
O O6 0.988627 0.397883 0.131851
O O7 0.000000 0.500000 0.000000
O O8 0.012054 0.297046 0.995448
O O9 0.623649 0.269189 0.184444
O O10 0.768232 0.414849 0.139354
O O11 0.593011 0.376555 0.051116
O O12 0.876571 0.879397 0.986033
O O13 0.750000 0.750000 0.611245
#
# Coordination Sequence:
#
# PCOD8303586 Si02
#       6
#     8   8   8   8   8   8
#     4  11  22  37  66  86 117 161 205 242 313 362
#     4  10  22  37  60  89 121 154 197 248 301 351
#     4   9  20  42  58  78 124 153 198 241 296 357
#     4  10  23  38  56  90 122 156 191 256 297 353
#     4   9  20  40  63  85 110 163 202 242 293 370
#     4   9  19  38  59  88 113 147 203 252 291 353
#
# _framework density 19.193553999999999
#
# number of rings (size 3 to 8) (size 9 to 14) (size 15 to 20)
#    0.000    2.333    0.000    3.000    7.000    1.333 
#    3.000    0.000    0.000    0.000    0.000    0.000 
#    0.000    0.000    0.000    0.000    0.000    0.000 
#
# Total GULP energy -594906.601438 kJ/mol
# GULP energy per Si atom -12393.887530 kJ/mol
# Density = 1.914987 g / cm^3
# Si number density = 19.193554 Si / 1000 Ang^3
#
#
#
# Elastic Constant Matrix: (Units=GPa)
#
#
# Indices 1 2 3 4 5 6 
#
# 1 115.1959 48.6740 56.3865 0.0000 0.0000 0.6785
# 2 48.6740 115.1959 56.3865 0.0000 0.0000 -0.6785
# 3 56.3865 56.3865 108.4279 0.0000 0.0000 0.0000
# 4 0.0000 0.0000 0.0000 21.6835 0.0000 0.0000
# 5 0.0000 0.0000 0.0000 0.0000 21.6835 0.0000
# 6 0.6785 -0.6785 0.0000 0.0000 0.0000 29.9941
#
#
#
# Elastic Compliance Matrix: (Units=1/GPa)
#
#
# Indices 1 2 3 4 5 6 
#
# 1 0.012272 -0.002768 -0.004942 0.000000 0.000000 -0.000340
# 2 -0.002768 0.012272 -0.004942 0.000000 0.000000 0.000340
# 3 -0.004942 -0.004942 0.014363 0.000000 0.000000 0.000000
# 4 0.000000 0.000000 0.000000 0.046118 0.000000 0.000000
# 5 0.000000 0.000000 0.000000 0.000000 0.046118 0.000000
# 6 -0.000340 0.000340 0.000000 0.000000 0.000000 0.033355
#
#
# Mechanical properties :
#
#
# Convention : Reuss Voigt Hill
#
# Bulk Modulus (GPa) = 73.52249 73.52377 73.52313
# Shear Modulus (GPa) = 25.72861 26.49705 26.11283
#
# Velocity S-wave (km/s) = 3.66523 3.71956 3.69250
# Velocity P-wave (km/s) = 7.50339 7.53900 7.52122
#
# Compressibility (1/GPa) = 0.01360128
#
# Stress axis : x y z
#
# Youngs Moduli (GPa) = 81.48919 81.48919 69.62348
#
# Poissons Ratio (x) = 0.22556 0.34409
# Poissons Ratio (y) = 0.22556 0.34409
# Poissons Ratio (z) = 0.40274 0.40274
#
# Static dielectric constant tensor:
#      x y z
#    x -0.595350 0.000000 0.000000 
#    y 0.000000 -0.595350 0.000000 
#    z 0.000000 0.000000 3.063680 
# 
# 
# High freq. dielectric constant tensor:
#      x y z
#    x 1.755620 0.000000 0.000000 
#    y 0.000000 1.755620 0.000000 
#    z 0.000000 0.000000 1.717420 
# 
# From -- ./inp_files/3566.got.cif
#   From: 2010.03.12/outbox.cif.g09.slc.cpg/sg86_2_cif.got.tgz:3566.got - 2010.04.08 20:12:58.
