data_PCOD8303271
_publ_section_title
;
Structure prediction by ZEFSAII (Michael W. Deem and Ramdas Pophale) SiO2 
 PCOD8303271
Probable space group: P 42/M
;
_chemical_formula_sum "Si O2"
_cell_formula_units_Z 40
_cell_length_a 15.391057
_cell_length_b 15.391057
_cell_length_c 8.728011
_cell_angle_alpha 90.000000
_cell_angle_beta 90.000000
_cell_angle_gamma 90.000000
_cell_volume 2067.531705
_symmetry_space_group_name_H-M "P 42/M"
_symmetry_group_IT_number 84
_symmetry_cell_setting 'tetragonal'
loop_
_space_group_symop_operation_xyz
x,y,z
-y,x,1/2+z
-x,-y,z
y,-x,1/2+z
-x,-y,-z
y,-x,1/2-z
x,y,-z
-y,x,1/2-z
loop_
_atom_site_type_symbol
_atom_site_label
_atom_site_fract_x
_atom_site_fract_y
_atom_site_fract_z
Si Si1 0.758662 0.985854 0.179523
Si Si2 0.470997 0.257178 0.181735
Si Si3 0.665329 0.303767 0.181082
Si Si4 0.801585 0.167711 0.320638
Si Si5 0.066651 0.568447 0.318488
O O1 0.788761 0.068457 0.274707
O O2 0.813438 0.901104 0.225373
O O3 0.661538 0.966487 0.232170
O O4 0.765518 0.007466 0.000000
O O5 0.568378 0.279042 0.234937
O O6 0.400729 0.320943 0.256374
O O7 0.449356 0.161915 0.247130
O O8 0.460950 0.263088 0.000000
O O9 0.734656 0.233544 0.241176
O O10 0.672611 0.303392 0.000000
O O11 0.788108 0.181474 0.500000
O O12 0.070171 0.558959 0.500000
O O13 0.000000 0.500000 0.245823
#
# Coordination Sequence:
#
# PCOD8303271 Si02
#       5
#     8   8   8   8   8
#     4  10  21  38  60  86 118 160 204 247 301 364
#     4  10  21  39  61  86 121 163 203 249 305 362
#     4  11  23  39  63  91 122 162 205 253 304 365
#     4  11  23  40  62  88 124 163 199 254 310 360
#     4   9  16  32  59  85 111 149 199 248 296 352
#
# _framework density 19.34674
#
# number of rings (size 3 to 8) (size 9 to 14) (size 15 to 20)
#    0.000    1.800    2.000    2.400    0.000    7.200 
#    0.000    4.000    0.000    2.400    0.000    0.000 
#    0.000    0.000    0.000    0.000    0.000    0.000 
#
# Total GULP energy -496006.852426 kJ/mol
# GULP energy per Si atom -12400.171311 kJ/mol
# Density = 1.930271 g / cm^3
# Si number density = 19.346740 Si / 1000 Ang^3
#
#
#
# Elastic Constant Matrix: (Units=GPa)
#
#
# Indices 1 2 3 4 5 6 
#
# 1 156.0597 44.7169 27.5849 0.0000 0.0000 2.9955
# 2 44.7169 156.0597 27.5849 0.0000 0.0000 -2.9955
# 3 27.5849 27.5849 36.5997 0.0000 0.0000 0.0000
# 4 0.0000 0.0000 0.0000 31.2526 0.0000 0.0000
# 5 0.0000 0.0000 0.0000 0.0000 31.2526 0.0000
# 6 2.9955 -2.9955 0.0000 0.0000 0.0000 45.4071
#
#
#
# Elastic Compliance Matrix: (Units=1/GPa)
#
#
# Indices 1 2 3 4 5 6 
#
# 1 0.007647 -0.001366 -0.004734 0.000000 0.000000 -0.000595
# 2 -0.001366 0.007647 -0.004734 0.000000 0.000000 0.000595
# 3 -0.004734 -0.004734 0.034459 0.000000 0.000000 0.000000
# 4 0.000000 0.000000 0.000000 0.031997 0.000000 0.000000
# 5 0.000000 0.000000 0.000000 0.000000 0.031997 0.000000
# 6 -0.000595 0.000595 0.000000 0.000000 0.000000 0.022101
#
#
# Mechanical properties :
#
#
# Convention : Reuss Voigt Hill
#
# Bulk Modulus (GPa) = 35.60642 60.94363 48.27502
# Shear Modulus (GPa) = 29.96146 38.17127 34.06636
#
# Velocity S-wave (km/s) = 3.93957 4.44667 4.20078
# Velocity P-wave (km/s) = 6.25603 7.61137 6.96674
#
# Compressibility (1/GPa) = 0.02808482
#
# Stress axis : x y z
#
# Youngs Moduli (GPa) = 130.76292 130.76292 29.01982
#
# Poissons Ratio (x) = 0.17860 0.13739
# Poissons Ratio (y) = 0.17860 0.13739
# Poissons Ratio (z) = 0.61908 0.61908
#
# Static dielectric constant tensor:
#      x y z
#    x 3.754910 0.000000 0.000000 
#    y 0.000000 3.754910 0.000000 
#    z 0.000000 0.000000 3.289160 
# 
# 
# High freq. dielectric constant tensor:
#      x y z
#    x 1.768560 0.000000 0.000000 
#    y 0.000000 1.768560 0.000000 
#    z 0.000000 0.000000 1.730640 
# 
# From -- ./inp_files/748.got.cif
#   From: 2010.03.12/outbox.cif.g09.slc.cpg/sg84_1_cif.got.tgz:748.got - 2010.04.08 20:07:29.
