data_PCOD8303791
_publ_section_title
;
Structure prediction by ZEFSAII (Michael W. Deem and Ramdas Pophale) SiO2 
 PCOD8303791
Probable space group: I 4/M
;
_chemical_formula_sum "Si O2"
_cell_formula_units_Z 96
_cell_length_a 24.414039
_cell_length_b 24.414039
_cell_length_c 8.592262
_cell_angle_alpha 90.000000
_cell_angle_beta 90.000000
_cell_angle_gamma 90.000000
_cell_volume 5121.377384
_symmetry_space_group_name_H-M "I 4/M"
_symmetry_group_IT_number 87
_symmetry_cell_setting 'tetragonal'
loop_
_space_group_symop_operation_xyz
x,y,z
-y,x,z
-x,-y,z
y,-x,z
-x,-y,-z
y,-x,-z
x,y,-z
-y,x,-z
1/2+x,1/2+y,1/2+z
1/2-y,1/2+x,1/2+z
1/2-x,1/2-y,1/2+z
1/2+y,1/2-x,1/2+z
1/2-x,1/2-y,1/2-z
1/2+y,1/2-x,1/2-z
1/2+x,1/2+y,1/2-z
1/2-y,1/2+x,1/2-z
loop_
_atom_site_type_symbol
_atom_site_label
_atom_site_fract_x
_atom_site_fract_y
_atom_site_fract_z
Si Si1 0.439903 0.059098 0.185975
Si Si2 0.229685 0.852802 0.684991
Si Si3 0.852351 0.938714 0.683239
Si Si4 0.645342 0.440420 0.182016
Si Si5 0.648805 0.852552 0.815653
Si Si6 0.728268 0.647008 0.317475
O O1 0.499581 0.076813 0.248311
O O2 0.395307 0.103413 0.248803
O O3 0.441533 0.056401 0.000000
O O4 0.227678 0.850250 0.500000
O O5 0.194003 0.903276 0.751641
O O6 0.291098 0.863243 0.746095
O O7 0.202772 0.795988 0.743325
O O8 0.839271 0.936406 0.500000
O O9 0.911752 0.912602 0.717315
O O10 0.805790 0.906139 0.772600
O O11 0.853506 0.999381 0.756204
O O12 0.654500 0.447361 0.000000
O O13 0.710228 0.865729 0.758030
O O14 0.645004 0.853820 0.000000
O O15 0.728291 0.656673 0.500000
#
# Coordination Sequence:
#
# PCOD8303791 Si02
#       6
#    16  16  16  16  16  16
#     4  10  20  37  56  76 102 133 165 205 251 297
#     4   9  17  33  52  72  98 129 160 198 243 290
#     4   9  17  31  48  69  95 127 162 200 241 286
#     4   8  15  27  47  70  93 120 157 197 234 274
#     4   9  19  33  52  74  99 129 162 196 239 291
#     4  10  19  32  48  71 100 130 160 199 245 289
#
# _framework density 18.744958
#
# number of rings (size 3 to 8) (size 9 to 14) (size 15 to 20)
#    0.000    2.833    0.000    3.000    0.000    1.667 
#    0.000   12.500    0.000    0.000    0.000    4.667 
#    0.000    0.000    0.000    0.000    0.000    0.000 
#
# Total GULP energy -594915.315835 kJ/mol
# GULP energy per Si atom -12394.069080 kJ/mol
# Density = 1.870229 g / cm^3
# Si number density = 18.744958 Si / 1000 Ang^3
#
#
#
# Elastic Constant Matrix: (Units=GPa)
#
#
# Indices 1 2 3 4 5 6 
#
# 1 148.7247 95.1903 19.3988 0.0000 0.0000 -2.9320
# 2 95.1903 148.7247 19.3988 0.0000 0.0000 2.9320
# 3 19.3988 19.3988 32.5952 0.0000 0.0000 0.0000
# 4 0.0000 0.0000 0.0000 22.6839 0.0000 0.0000
# 5 0.0000 0.0000 0.0000 0.0000 22.6839 0.0000
# 6 -2.9320 2.9320 0.0000 0.0000 0.0000 28.2944
#
#
#
# Elastic Compliance Matrix: (Units=1/GPa)
#
#
# Indices 1 2 3 4 5 6 
#
# 1 0.011711 -0.007183 -0.002695 0.000000 0.000000 0.001958
# 2 -0.007183 0.011711 -0.002695 0.000000 0.000000 -0.001958
# 3 -0.002695 -0.002695 0.033887 0.000000 0.000000 0.000000
# 4 0.000000 0.000000 0.000000 0.044084 0.000000 0.000000
# 5 0.000000 0.000000 0.000000 0.000000 0.044084 0.000000
# 6 0.001958 -0.001958 0.000000 0.000000 0.000000 0.035748
#
#
# Mechanical properties :
#
#
# Convention : Reuss Voigt Hill
#
# Bulk Modulus (GPa) = 31.09079 66.44671 48.76875
# Shear Modulus (GPa) = 23.03151 27.80286 25.41719
#
# Velocity S-wave (km/s) = 3.50905 3.85544 3.68631
# Velocity P-wave (km/s) = 5.74806 7.43935 6.64771
#
# Compressibility (1/GPa) = 0.03216387
#
# Stress axis : x y z
#
# Youngs Moduli (GPa) = 85.38789 85.38789 29.50960
#
# Poissons Ratio (x) = 0.61332 0.07953
# Poissons Ratio (y) = 0.61332 0.07953
# Poissons Ratio (z) = 0.23013 0.23013
#
# Static dielectric constant tensor:
#      x y z
#    x 3.737250 0.000000 0.000000 
#    y 0.000000 3.737250 0.000000 
#    z 0.000000 0.000000 3.085290 
# 
# 
# High freq. dielectric constant tensor:
#      x y z
#    x 1.733770 0.000000 0.000000 
#    y 0.000000 1.733770 0.000000 
#    z 0.000000 0.000000 1.693870 
# 
# From -- ./inp_files/1368.got.cif
#   From: 2010.03.12/outbox.cif.g09.slc.cpg/sg87_1_cif.got.tgz:1368.got - 2010.04.08 20:16:13.
