data_PCOD8303735
_publ_section_title
;
Structure prediction by ZEFSAII (Michael W. Deem and Ramdas Pophale) SiO2 
 PCOD8303735
Probable space group: I 4/M
;
_chemical_formula_sum "Si O2"
_cell_formula_units_Z 96
_cell_length_a 24.013376
_cell_length_b 24.013376
_cell_length_c 9.621469
_cell_angle_alpha 90.000000
_cell_angle_beta 90.000000
_cell_angle_gamma 90.000000
_cell_volume 5548.145310
_symmetry_space_group_name_H-M "I 4/M"
_symmetry_group_IT_number 87
_symmetry_cell_setting 'tetragonal'
loop_
_space_group_symop_operation_xyz
x,y,z
-y,x,z
-x,-y,z
y,-x,z
-x,-y,-z
y,-x,-z
x,y,-z
-y,x,-z
1/2+x,1/2+y,1/2+z
1/2-y,1/2+x,1/2+z
1/2-x,1/2-y,1/2+z
1/2+y,1/2-x,1/2+z
1/2-x,1/2-y,1/2-z
1/2+y,1/2-x,1/2-z
1/2+x,1/2+y,1/2-z
1/2-y,1/2+x,1/2-z
loop_
_atom_site_type_symbol
_atom_site_label
_atom_site_fract_x
_atom_site_fract_y
_atom_site_fract_z
Si Si1 0.145153 0.443892 0.837956
Si Si2 0.146185 0.156960 0.665496
Si Si3 0.736908 0.140693 0.841670
Si Si4 0.141152 0.551219 0.344779
Si Si5 0.851375 0.272858 0.664618
Si Si6 0.061797 0.937246 0.335048
O O1 0.146537 0.502339 0.763516
O O2 0.086574 0.413821 0.809220
O O3 0.195112 0.405568 0.777207
O O4 0.154059 0.455070 0.000000
O O5 0.141805 0.164807 0.500000
O O6 0.125478 0.212526 0.740381
O O7 0.209348 0.145838 0.714724
O O8 0.108027 0.105992 0.720113
O O9 0.695076 0.089506 0.833778
O O10 0.705460 0.196508 0.785876
O O11 0.758234 0.149096 0.000000
O O12 0.136306 0.526548 0.500000
O O13 0.852637 0.278455 0.500000
O O14 0.062178 0.936587 0.500000
O O15 0.999442 0.921897 0.282250
#
# Coordination Sequence:
#
# PCOD8303735 Si02
#       6
#    16  16  16  16  16  16
#     4   9  18  33  51  69  94 129 162 195 239 284
#     4  10  18  28  49  76  92 113 158 201 225 265
#     4   9  18  33  48  64  96 132 151 179 236 290
#     4   9  19  34  49  68  96 128 160 196 239 283
#     4   8  16  31  48  68  96 125 152 189 237 279
#     4   8  15  28  44  65  95 123 145 181 234 276
#
# _framework density 17.303080000000001
#
# number of rings (size 3 to 8) (size 9 to 14) (size 15 to 20)
#    0.000    3.167    0.000    3.000    0.000    3.000 
#    0.000    8.333    0.000    1.000    0.000    1.167 
#    0.000    0.000    0.000    0.000    0.000    0.000 
#
# Total GULP energy -594986.318300 kJ/mol
# GULP energy per Si atom -12395.548298 kJ/mol
# Density = 1.726370 g / cm^3
# Si number density = 17.303080 Si / 1000 Ang^3
#
#
#
# Elastic Constant Matrix: (Units=GPa)
#
#
# Indices 1 2 3 4 5 6 
#
# 1 94.3430 69.9855 31.3581 0.0000 0.0000 -8.2453
# 2 69.9855 94.3430 31.3581 0.0000 0.0000 8.2453
# 3 31.3581 31.3581 35.1425 0.0000 0.0000 0.0000
# 4 0.0000 0.0000 0.0000 25.3661 0.0000 0.0000
# 5 0.0000 0.0000 0.0000 0.0000 25.3661 0.0000
# 6 -8.2453 8.2453 0.0000 0.0000 0.0000 19.1801
#
#
#
# Elastic Compliance Matrix: (Units=1/GPa)
#
#
# Indices 1 2 3 4 5 6 
#
# 1 0.033569 -0.024341 -0.008234 0.000000 0.000000 0.024895
# 2 -0.024341 0.033569 -0.008234 0.000000 0.000000 -0.024895
# 3 -0.008234 -0.008234 0.043151 0.000000 0.000000 0.000000
# 4 0.000000 0.000000 0.000000 0.039423 0.000000 0.000000
# 5 0.000000 0.000000 0.000000 0.000000 0.039423 0.000000
# 6 0.024895 -0.024895 0.000000 0.000000 0.000000 0.073541
#
#
# Mechanical properties :
#
#
# Convention : Reuss Voigt Hill
#
# Bulk Modulus (GPa) = 34.88015 54.35911 44.61963
# Shear Modulus (GPa) = 14.13029 20.05757 17.09393
#
# Velocity S-wave (km/s) = 2.86078 3.40838 3.14652
# Velocity P-wave (km/s) = 5.57801 6.85372 6.24851
#
# Compressibility (1/GPa) = 0.02866960
#
# Stress axis : x y z
#
# Youngs Moduli (GPa) = 29.78967 29.78967 23.17465
#
# Poissons Ratio (x) = 0.72510 0.19083
# Poissons Ratio (y) = 0.72510 0.19083
# Poissons Ratio (z) = 0.24530 0.24530
#
# Static dielectric constant tensor:
#      x y z
#    x 3.335080 0.000000 0.000000 
#    y 0.000000 3.335080 0.000000 
#    z 0.000000 0.000000 2.886220 
# 
# 
# High freq. dielectric constant tensor:
#      x y z
#    x 1.672020 0.000000 0.000000 
#    y 0.000000 1.672020 0.000000 
#    z 0.000000 0.000000 1.630650 
# 
# From -- ./inp_files/1390.got.cif
#   From: 2010.03.12/outbox.cif.g09.slc.cpg/sg87_1_cif.got.tgz:1390.got - 2010.04.08 20:16:13.
