data_PCOD8303265
_publ_section_title
;
Structure prediction by ZEFSAII (Michael W. Deem and Ramdas Pophale) SiO2 
 PCOD8303265
Probable space group: P 42/M
;
_chemical_formula_sum "Si O2"
_cell_formula_units_Z 48
_cell_length_a 8.518028
_cell_length_b 8.518028
_cell_length_c 27.357852
_cell_angle_alpha 90.000000
_cell_angle_beta 90.000000
_cell_angle_gamma 90.000000
_cell_volume 1984.998224
_symmetry_space_group_name_H-M "P 42/M"
_symmetry_group_IT_number 84
_symmetry_cell_setting 'tetragonal'
loop_
_space_group_symop_operation_xyz
x,y,z
-y,x,1/2+z
-x,-y,z
y,-x,1/2+z
-x,-y,-z
y,-x,1/2-z
x,y,-z
-y,x,1/2-z
loop_
_atom_site_type_symbol
_atom_site_label
_atom_site_fract_x
_atom_site_fract_y
_atom_site_fract_z
Si Si1 0.336505 0.695501 0.318233
Si Si2 0.078922 0.170383 0.114689
Si Si3 0.186838 0.835354 0.234276
Si Si4 0.196657 0.732158 0.945840
Si Si5 0.943028 0.339042 0.447023
Si Si6 0.351791 0.685821 0.849071
O O1 0.252285 0.858717 0.336234
O O2 0.307676 0.713666 0.260238
O O3 0.264969 0.531323 0.338252
O O4 0.519179 0.697269 0.328117
O O5 0.968664 0.285415 0.082647
O O6 0.244881 0.176475 0.085933
O O7 0.000000 0.000000 0.126242
O O8 0.228168 0.811128 0.175919
O O9 0.013817 0.782351 0.250235
O O10 0.218913 0.915247 0.955550
O O11 0.332094 0.675842 0.908220
O O12 0.198598 0.647781 0.000000
O O13 0.867656 0.383047 0.500000
O O14 0.000000 0.500000 0.420885
#
# Coordination Sequence:
#
# PCOD8303265 Si02
#       6
#     8   8   8   8   8   8
#     4  11  25  44  68  97 137 181 223 278 339 414
#     4  10  21  36  61  91 128 173 219 282 329 399
#     4  11  26  44  72 106 136 171 220 276 341 411
#     4  10  21  38  62  92 132 179 229 282 337 398
#     4   9  17  31  54  85 122 165 217 274 332 392
#     4  11  25  46  67  98 137 183 226 276 343 409
#
# _framework density 24.181379
#
# number of rings (size 3 to 8) (size 9 to 14) (size 15 to 20)
#    0.000    1.667    0.000    3.500    7.000    8.000 
#    0.000    5.000    0.000    0.000    0.000    0.000 
#    0.000    0.000    0.000    0.000    0.000    0.000 
#
# Total GULP energy -594680.498563 kJ/mol
# GULP energy per Si atom -12389.177053 kJ/mol
# Density = 2.412634 g / cm^3
# Si number density = 24.181379 Si / 1000 Ang^3
#
#
#
# Elastic Constant Matrix: (Units=GPa)
#
#
# Indices 1 2 3 4 5 6 
#
# 1 88.7361 9.4732 29.7677 0.0000 0.0000 -0.6321
# 2 9.4732 88.7361 29.7677 0.0000 0.0000 0.6321
# 3 29.7677 29.7677 135.2589 0.0000 0.0000 0.0000
# 4 0.0000 0.0000 0.0000 27.0483 0.0000 0.0000
# 5 0.0000 0.0000 0.0000 0.0000 27.0483 0.0000
# 6 -0.6321 0.6321 0.0000 0.0000 0.0000 33.0983
#
#
#
# Elastic Compliance Matrix: (Units=1/GPa)
#
#
# Indices 1 2 3 4 5 6 
#
# 1 0.012185 -0.000435 -0.002586 0.000000 0.000000 0.000241
# 2 -0.000435 0.012185 -0.002586 0.000000 0.000000 -0.000241
# 3 -0.002586 -0.002586 0.008531 0.000000 0.000000 0.000000
# 4 0.000000 0.000000 0.000000 0.036971 0.000000 0.000000
# 5 0.000000 0.000000 0.000000 0.000000 0.036971 0.000000
# 6 0.000241 -0.000241 0.000000 0.000000 0.000000 0.030222
#
#
# Mechanical properties :
#
#
# Convention : Reuss Voigt Hill
#
# Bulk Modulus (GPa) = 46.10922 50.08317 48.09620
# Shear Modulus (GPa) = 32.15259 33.68716 32.91988
#
# Velocity S-wave (km/s) = 3.65038 3.73648 3.69368
# Velocity P-wave (km/s) = 6.07260 6.27467 6.17446
#
# Compressibility (1/GPa) = 0.02168764
#
# Stress axis : x y z
#
# Youngs Moduli (GPa) = 82.06805 82.06805 117.21345
#
# Poissons Ratio (x) = 0.03571 0.30310
# Poissons Ratio (y) = 0.03571 0.30310
# Poissons Ratio (z) = 0.21222 0.21222
#
# Static dielectric constant tensor:
#      x y z
#    x 4.081640 0.000000 0.000000 
#    y 0.000000 4.081640 0.000000 
#    z 0.000000 0.000000 4.845530 
# 
# 
# High freq. dielectric constant tensor:
#      x y z
#    x 1.941280 0.000000 0.000000 
#    y 0.000000 1.941280 0.000000 
#    z 0.000000 0.000000 1.981200 
# 
# From -- ./inp_files/5751.got.cif
#   From: 2010.03.12/outbox.cif.g09.slc.cpg/sg84_3_cif.got.tgz:5751.got - 2010.04.08 20:07:29.
