data_PCOD8303744
_publ_section_title
;
Structure prediction by ZEFSAII (Michael W. Deem and Ramdas Pophale) SiO2 
 PCOD8303744
Probable space group: I 4/M
;
_chemical_formula_sum "Si O2"
_cell_formula_units_Z 96
_cell_length_a 16.677044
_cell_length_b 16.677044
_cell_length_c 19.074690
_cell_angle_alpha 90.000000
_cell_angle_beta 90.000000
_cell_angle_gamma 90.000000
_cell_volume 5305.125201
_symmetry_space_group_name_H-M "I 4/M"
_symmetry_group_IT_number 87
_symmetry_cell_setting 'tetragonal'
loop_
_space_group_symop_operation_xyz
x,y,z
-y,x,z
-x,-y,z
y,-x,z
-x,-y,-z
y,-x,-z
x,y,-z
-y,x,-z
1/2+x,1/2+y,1/2+z
1/2-y,1/2+x,1/2+z
1/2-x,1/2-y,1/2+z
1/2+y,1/2-x,1/2+z
1/2-x,1/2-y,1/2-z
1/2+y,1/2-x,1/2-z
1/2+x,1/2+y,1/2-z
1/2-y,1/2+x,1/2-z
loop_
_atom_site_type_symbol
_atom_site_label
_atom_site_fract_x
_atom_site_fract_y
_atom_site_fract_z
Si Si1 0.749458 0.337271 0.216953
Si Si2 0.048921 0.663049 0.079388
Si Si3 0.719934 0.230430 0.577147
Si Si4 0.564521 0.612821 0.709596
Si Si5 0.712909 0.412389 0.420334
Si Si6 0.087175 0.575868 0.783038
O O1 0.750000 0.250000 0.250000
O O2 0.738358 0.328114 0.133130
O O3 0.679141 0.394210 0.242451
O O4 0.833647 0.376403 0.237139
O O5 0.123633 0.724088 0.083782
O O6 0.059813 0.592104 0.136293
O O7 0.970327 0.713675 0.099845
O O8 0.041847 0.627355 0.000000
O O9 0.748796 0.203064 0.500000
O O10 0.744505 0.322167 0.591541
O O11 0.470509 0.608024 0.726679
O O12 0.572624 0.635859 0.628078
O O13 0.684641 0.426459 0.500000
O O14 0.102985 0.481183 0.772577
#
# Coordination Sequence:
#
# PCOD8303744 Si02
#       6
#    16  16  16  16  16  16
#     4  11  22  36  61  83 108 152 192 232 290 338
#     4   9  18  33  54  78 112 154 190 232 284 335
#     4   9  18  33  53  82 109 141 191 233 276 337
#     4  11  24  38  55  85 120 149 187 236 285 345
#     4  10  18  30  52  81 117 154 188 225 274 342
#     4  10  22  37  55  82 114 148 192 241 283 336
#
# _framework density 18.095708999999999
#
# number of rings (size 3 to 8) (size 9 to 14) (size 15 to 20)
#    0.000    2.000    1.667    2.000    4.667    2.000 
#    0.000    2.500    0.000    3.000    0.000    1.167 
#    0.000    0.000    0.000    0.000    0.000    0.000 
#
# Total GULP energy -595099.276897 kJ/mol
# GULP energy per Si atom -12397.901602 kJ/mol
# Density = 1.805452 g / cm^3
# Si number density = 18.095709 Si / 1000 Ang^3
#
#
#
# Elastic Constant Matrix: (Units=GPa)
#
#
# Indices 1 2 3 4 5 6 
#
# 1 110.5534 68.0956 71.6063 0.0000 0.0000 -3.2023
# 2 68.0956 110.5534 71.6063 0.0000 0.0000 3.2023
# 3 71.6063 71.6063 128.4910 0.0000 0.0000 0.0000
# 4 0.0000 0.0000 0.0000 29.3218 0.0000 0.0000
# 5 0.0000 0.0000 0.0000 0.0000 29.3218 0.0000
# 6 -3.2023 3.2023 0.0000 0.0000 0.0000 27.6085
#
#
#
# Elastic Compliance Matrix: (Units=1/GPa)
#
#
# Indices 1 2 3 4 5 6 
#
# 1 0.017045 -0.006927 -0.005638 0.000000 0.000000 0.002781
# 2 -0.006927 0.017045 -0.005638 0.000000 0.000000 -0.002781
# 3 -0.005638 -0.005638 0.014067 0.000000 0.000000 0.000000
# 4 0.000000 0.000000 0.000000 0.034104 0.000000 0.000000
# 5 0.000000 0.000000 0.000000 0.000000 0.034104 0.000000
# 6 0.002781 -0.002781 0.000000 0.000000 0.000000 0.036866
#
#
# Mechanical properties :
#
#
# Convention : Reuss Voigt Hill
#
# Bulk Modulus (GPa) = 85.11644 85.80159 85.45902
# Shear Modulus (GPa) = 25.83239 26.46974 26.15107
#
# Velocity S-wave (km/s) = 3.78238 3.82876 3.80564
# Velocity P-wave (km/s) = 8.13721 8.18927 8.16328
#
# Compressibility (1/GPa) = 0.01174861
#
# Stress axis : x y z
#
# Youngs Moduli (GPa) = 58.66871 58.66870 71.08830
#
# Poissons Ratio (x) = 0.40642 0.40082
# Poissons Ratio (y) = 0.40642 0.40082
# Poissons Ratio (z) = 0.33080 0.33080
#
# Static dielectric constant tensor:
#      x y z
#    x 3.286550 0.000000 0.000000 
#    y 0.000000 3.286550 0.000000 
#    z 0.000000 0.000000 3.670310 
# 
# 
# High freq. dielectric constant tensor:
#      x y z
#    x 1.691060 0.000000 0.000000 
#    y 0.000000 1.691060 0.000000 
#    z 0.000000 0.000000 1.708000 
# 
# From -- ./inp_files/5263.got.cif
#   From: 2010.03.12/outbox.cif.g09.slc.cpg/sg87_3_cif.got.tgz:5263.got - 2010.04.08 20:16:13.
