data_PCOD8303488
_publ_section_title
;
Structure prediction by ZEFSAII (Michael W. Deem and Ramdas Pophale) SiO2 
 PCOD8303488
Probable space group: P 42/N
;
_chemical_formula_sum "Si O2"
_cell_formula_units_Z 44
_cell_length_a 11.344971
_cell_length_b 11.344971
_cell_length_c 17.497931
_cell_angle_alpha 90.000000
_cell_angle_beta 90.000000
_cell_angle_gamma 90.000000
_cell_volume 2252.130125
_symmetry_space_group_name_H-M "P 42/N"
_symmetry_group_IT_number 86
_space_group.IT_coordinate_system_code '2'
_symmetry_cell_setting 'tetragonal'
loop_
_space_group_symop_operation_xyz
x,y,z
-y,1/2+x,1/2+z
1/2-x,1/2-y,z
1/2+y,-x,1/2+z
-x,-y,-z
y,1/2-x,1/2-z
1/2+x,1/2+y,-z
1/2-y,x,1/2-z
loop_
_atom_site_type_symbol
_atom_site_label
_atom_site_fract_x
_atom_site_fract_y
_atom_site_fract_z
Si Si1 0.498278 0.162801 0.403219
Si Si2 0.941643 0.408420 0.651229
Si Si3 0.423611 0.750082 0.047807
Si Si4 0.750000 0.250000 0.570913
Si Si5 0.334099 0.350520 0.952838
Si Si6 0.637845 0.332814 0.307916
O O1 0.624142 0.138210 0.440184
O O2 0.419207 0.215257 0.472528
O O3 0.523409 0.254639 0.333785
O O4 0.432865 0.045244 0.372734
O O5 0.840641 0.323440 0.620599
O O6 0.923940 0.400922 0.742151
O O7 0.066399 0.360775 0.620025
O O8 0.553175 0.723172 0.019052
O O9 0.420984 0.827094 0.124072
O O10 0.347672 0.816015 0.982283
O O11 0.250000 0.250000 0.921377
O O12 0.750000 0.250000 0.285389
#
# Coordination Sequence:
#
# PCOD8303488 Si02
#       6
#     8   8   8   4   8   8
#     4  10  19  39  62  81 116 160 206 253 296 357
#     4  11  21  37  62  91 118 162 206 245 313 368
#     4  10  18  37  63  86 111 160 204 250 296 360
#     4  12  16  34  72  86 108 154 220 244 278 370
#     4  11  22  40  60  90 128 160 199 258 310 364
#     4  10  20  37  61  87 119 155 207 256 306 364
#
# _framework density 19.53706
#
# number of rings (size 3 to 8) (size 9 to 14) (size 15 to 20)
#    0.000    1.455    7.273    1.091    0.000    0.000 
#   13.091    3.636    0.000    0.000    0.000    0.000 
#    0.000    0.000    0.000    0.000    0.000    0.000 
#
# Total GULP energy -545088.426523 kJ/mol
# GULP energy per Si atom -12388.373330 kJ/mol
# Density = 1.949259 g / cm^3
# Si number density = 19.537060 Si / 1000 Ang^3
#
#
#
# Elastic Constant Matrix: (Units=GPa)
#
#
# Indices 1 2 3 4 5 6 
#
# 1 75.5517 54.0123 45.4838 0.0000 0.0000 -5.3002
# 2 54.0123 75.5517 45.4838 0.0000 0.0000 5.3002
# 3 45.4838 45.4838 109.3329 0.0000 0.0000 0.0000
# 4 0.0000 0.0000 0.0000 45.4432 0.0000 0.0000
# 5 0.0000 0.0000 0.0000 0.0000 45.4432 0.0000
# 6 -5.3002 5.3002 0.0000 0.0000 0.0000 36.5154
#
#
#
# Elastic Compliance Matrix: (Units=1/GPa)
#
#
# Indices 1 2 3 4 5 6 
#
# 1 0.030450 -0.019548 -0.004536 0.000000 0.000000 0.007257
# 2 -0.019548 0.030450 -0.004536 0.000000 0.000000 -0.007257
# 3 -0.004536 -0.004536 0.012920 0.000000 0.000000 0.000000
# 4 0.000000 0.000000 0.000000 0.022006 0.000000 0.000000
# 5 0.000000 0.000000 0.000000 0.000000 0.022006 0.000000
# 6 0.007257 -0.007257 0.000000 0.000000 0.000000 0.029492
#
#
# Mechanical properties :
#
#
# Convention : Reuss Voigt Hill
#
# Bulk Modulus (GPa) = 60.30298 61.15514 60.72906
# Shear Modulus (GPa) = 23.79930 33.17744 28.48837
#
# Velocity S-wave (km/s) = 3.49400 4.12537 3.82274
# Velocity P-wave (km/s) = 6.87098 7.35266 7.11590
#
# Compressibility (1/GPa) = 0.01658293
#
# Stress axis : x y z
#
# Youngs Moduli (GPa) = 32.84025 32.84025 77.39842
#
# Poissons Ratio (x) = 0.64195 0.35105
# Poissons Ratio (y) = 0.64195 0.35105
# Poissons Ratio (z) = 0.14895 0.14895
#
# Static dielectric constant tensor:
#      x y z
#    x 4.469630 0.000000 0.000000 
#    y 0.000000 4.469630 0.000000 
#    z 0.000000 0.000000 3.670230 
# 
# 
# High freq. dielectric constant tensor:
#      x y z
#    x 1.746390 0.000000 0.000000 
#    y 0.000000 1.746390 0.000000 
#    z 0.000000 0.000000 1.759730 
# 
# From -- ./inp_files/3465.got.cif
#   From: 2010.03.12/outbox.cif.g09.slc.cpg/sg86_2_cif.got.tgz:3465.got - 2010.04.08 20:12:58.
