data_PCOD8303617
_publ_section_title
;
Structure prediction by ZEFSAII (Michael W. Deem and Ramdas Pophale) SiO2 
 PCOD8303617
Probable space group: P 42/N
;
_chemical_formula_sum "Si O2"
_cell_formula_units_Z 60
_cell_length_a 11.485401
_cell_length_b 11.485401
_cell_length_c 20.309729
_cell_angle_alpha 90.000000
_cell_angle_beta 90.000000
_cell_angle_gamma 90.000000
_cell_volume 2679.146449
_symmetry_space_group_name_H-M "P 42/N"
_symmetry_group_IT_number 86
_space_group.IT_coordinate_system_code '2'
_symmetry_cell_setting 'tetragonal'
loop_
_space_group_symop_operation_xyz
x,y,z
-y,1/2+x,1/2+z
1/2-x,1/2-y,z
1/2+y,-x,1/2+z
-x,-y,-z
y,1/2-x,1/2-z
1/2+x,1/2+y,-z
1/2-y,x,1/2-z
loop_
_atom_site_type_symbol
_atom_site_label
_atom_site_fract_x
_atom_site_fract_y
_atom_site_fract_z
Si Si1 0.029248 0.131228 0.522379
Si Si2 0.137556 0.407797 0.117836
Si Si3 0.531433 0.298657 0.109176
Si Si4 0.538782 0.306981 0.768431
Si Si5 0.250000 0.750000 0.310413
Si Si6 0.318711 0.641714 0.010624
Si Si7 0.405338 0.442100 0.657844
Si Si8 0.875464 0.999773 0.860920
O O1 0.091928 0.181008 0.458193
O O2 0.104125 0.130818 0.589570
O O3 0.921338 0.220018 0.535056
O O4 0.000000 0.000000 0.500000
O O5 0.258905 0.425319 0.156938
O O6 0.079372 0.282663 0.123085
O O7 0.050322 0.509017 0.142786
O O8 0.636263 0.235143 0.145679
O O9 0.492187 0.422281 0.138090
O O10 0.571244 0.316295 0.033335
O O11 0.634241 0.229254 0.731669
O O12 0.447490 0.359059 0.716629
O O13 0.479935 0.225051 0.823282
O O14 0.608419 0.410805 0.802260
O O15 0.250000 0.750000 0.043099
O O16 0.366797 0.563875 0.069235
#
# Coordination Sequence:
#
# PCOD8303617 Si02
#       8
#     8   8   8   8   4   8   8   8
#     4   9  20  37  67 102 132 177 232 286 347 409
#     4  10  22  44  72 103 138 177 232 303 362 413
#     4  12  23  45  71 100 137 179 232 290 361 421
#     4  12  26  43  68  97 142 188 236 288 341 428
#     4  12  24  44  70  94 132 186 236 276 344 428
#     4  11  22  39  68 103 139 177 230 287 361 427
#     4  11  23  44  67 102 138 188 243 277 351 427
#     4  11  27  41  67 107 141 175 231 300 350 425
#
# _framework density 22.395194
#
# number of rings (size 3 to 8) (size 9 to 14) (size 15 to 20)
#    0.000    1.067    2.000    4.800    8.400    0.267 
#    0.000    0.000    5.867    0.000    0.000    0.000 
#    0.000    0.000    0.000    0.000    0.000    0.000 
#
# Total GULP energy -743592.585101 kJ/mol
# GULP energy per Si atom -12393.209752 kJ/mol
# Density = 2.234422 g / cm^3
# Si number density = 22.395194 Si / 1000 Ang^3
#
#
#
# Elastic Constant Matrix: (Units=GPa)
#
#
# Indices 1 2 3 4 5 6 
#
# 1 89.6700 37.0520 33.1796 0.0000 0.0000 -4.1413
# 2 37.0520 89.6700 33.1796 0.0000 0.0000 4.1413
# 3 33.1796 33.1796 104.7046 0.0000 0.0000 0.0000
# 4 0.0000 0.0000 0.0000 24.4947 0.0000 0.0000
# 5 0.0000 0.0000 0.0000 0.0000 24.4947 0.0000
# 6 -4.1413 4.1413 0.0000 0.0000 0.0000 31.0067
#
#
#
# Elastic Compliance Matrix: (Units=1/GPa)
#
#
# Indices 1 2 3 4 5 6 
#
# 1 0.014437 -0.004976 -0.002998 0.000000 0.000000 0.002593
# 2 -0.004976 0.014437 -0.002998 0.000000 0.000000 -0.002593
# 3 -0.002998 -0.002998 0.011451 0.000000 0.000000 0.000000
# 4 0.000000 0.000000 0.000000 0.040825 0.000000 0.000000
# 5 0.000000 0.000000 0.000000 0.000000 0.040825 0.000000
# 6 0.002593 -0.002593 0.000000 0.000000 0.000000 0.032944
#
#
# Mechanical properties :
#
#
# Convention : Reuss Voigt Hill
#
# Bulk Modulus (GPa) = 54.40466 54.54078 54.47272
# Shear Modulus (GPa) = 27.32380 28.04144 27.68262
#
# Velocity S-wave (km/s) = 3.49675 3.54237 3.51963
# Velocity P-wave (km/s) = 6.37563 6.41388 6.39478
#
# Compressibility (1/GPa) = 0.01838078
#
# Stress axis : x y z
#
# Youngs Moduli (GPa) = 69.26559 69.26559 87.32976
#
# Poissons Ratio (x) = 0.34466 0.26183
# Poissons Ratio (y) = 0.34466 0.26183
# Poissons Ratio (z) = 0.20767 0.20767
#
# Static dielectric constant tensor:
#      x y z
#    x 4.146720 0.000000 0.000000 
#    y 0.000000 4.146720 0.000000 
#    z 0.000000 0.000000 4.605800 
# 
# 
# High freq. dielectric constant tensor:
#      x y z
#    x 1.880690 0.000000 0.000000 
#    y 0.000000 1.880690 0.000000 
#    z 0.000000 0.000000 1.882810 
# 
# From -- ./inp_files/4253.got.cif
#   From: 2010.03.12/outbox.cif.g09.slc.cpg/sg86_3_cif.got.tgz:4253.got - 2010.04.08 20:12:58.
