data_PCOD8303761
_publ_section_title
;
Structure prediction by ZEFSAII (Michael W. Deem and Ramdas Pophale) SiO2 
 PCOD8303761
Probable space group: I 4/M
;
_chemical_formula_sum "Si O2"
_cell_formula_units_Z 96
_cell_length_a 20.020481
_cell_length_b 20.020481
_cell_length_c 13.897074
_cell_angle_alpha 90.000000
_cell_angle_beta 90.000000
_cell_angle_gamma 90.000000
_cell_volume 5570.220468
_symmetry_space_group_name_H-M "I 4/M"
_symmetry_group_IT_number 87
_symmetry_cell_setting 'tetragonal'
loop_
_space_group_symop_operation_xyz
x,y,z
-y,x,z
-x,-y,z
y,-x,z
-x,-y,-z
y,-x,-z
x,y,-z
-y,x,-z
1/2+x,1/2+y,1/2+z
1/2-y,1/2+x,1/2+z
1/2-x,1/2-y,1/2+z
1/2+y,1/2-x,1/2+z
1/2-x,1/2-y,1/2-z
1/2+y,1/2-x,1/2-z
1/2+x,1/2+y,1/2-z
1/2-y,1/2+x,1/2-z
loop_
_atom_site_type_symbol
_atom_site_label
_atom_site_fract_x
_atom_site_fract_y
_atom_site_fract_z
Si Si1 0.955251 0.899208 0.391120
Si Si2 0.326416 0.565484 0.297985
Si Si3 0.922153 0.423742 0.743489
Si Si4 0.328931 0.422562 0.612904
Si Si5 0.430858 0.191012 0.606118
Si Si6 0.183865 0.411716 0.395314
O O1 0.943559 0.872746 0.500000
O O2 0.929305 0.843235 0.315901
O O3 0.033340 0.913485 0.374354
O O4 0.372558 0.612808 0.361119
O O5 0.341244 0.490575 0.330260
O O6 0.250366 0.588103 0.319830
O O7 0.910310 0.500024 0.777834
O O8 0.880360 0.406932 0.647662
O O9 0.891554 0.375594 0.824575
O O10 0.329285 0.439025 0.500000
O O11 0.257325 0.388819 0.641521
O O12 0.398265 0.201697 0.500000
O O13 0.509350 0.188672 0.594439
O O14 0.167679 0.380214 0.500000
#
# Coordination Sequence:
#
# PCOD8303761 Si02
#       6
#    16  16  16  16  16  16
#     4   9  17  30  46  66  92 128 175 218 247 269
#     4  11  18  30  47  69  98 135 169 203 238 282
#     4   9  17  31  53  75  92 118 162 205 245 305
#     4  10  19  29  45  70 101 133 167 202 242 282
#     4   9  18  31  47  71 104 130 152 193 260 307
#     4   8  16  31  48  69  97 127 155 195 247 296
#
# _framework density 17.234507000000001
#
# number of rings (size 3 to 8) (size 9 to 14) (size 15 to 20)
#    0.000    2.667    1.667    3.000    0.000    1.000 
#    0.000    5.833    0.000    7.000    0.000    0.000 
#    0.000    0.000    0.000    0.000    0.000    0.000 
#
# Total GULP energy -594871.548494 kJ/mol
# GULP energy per Si atom -12393.157260 kJ/mol
# Density = 1.719528 g / cm^3
# Si number density = 17.234507 Si / 1000 Ang^3
#
#
#
# Elastic Constant Matrix: (Units=GPa)
#
#
# Indices 1 2 3 4 5 6 
#
# 1 60.7189 22.2044 35.5525 0.0000 0.0000 0.8569
# 2 22.2044 60.7189 35.5525 0.0000 0.0000 -0.8569
# 3 35.5525 35.5525 116.5691 0.0000 0.0000 0.0000
# 4 0.0000 0.0000 0.0000 20.0689 0.0000 0.0000
# 5 0.0000 0.0000 0.0000 0.0000 20.0689 0.0000
# 6 0.8569 -0.8569 0.0000 0.0000 0.0000 9.2562
#
#
#
# Elastic Compliance Matrix: (Units=1/GPa)
#
#
# Indices 1 2 3 4 5 6 
#
# 1 0.021201 -0.004871 -0.004981 0.000000 0.000000 -0.002414
# 2 -0.004871 0.021201 -0.004981 0.000000 0.000000 0.002414
# 3 -0.004981 -0.004981 0.011617 0.000000 0.000000 0.000000
# 4 0.000000 0.000000 0.000000 0.049828 0.000000 0.000000
# 5 0.000000 0.000000 0.000000 0.000000 0.049828 0.000000
# 6 -0.002414 0.002414 0.000000 0.000000 0.000000 0.108483
#
#
# Mechanical properties :
#
#
# Convention : Reuss Voigt Hill
#
# Bulk Modulus (GPa) = 41.05993 47.18062 44.12027
# Shear Modulus (GPa) = 16.67004 19.52531 18.09767
#
# Velocity S-wave (km/s) = 3.11343 3.36954 3.24401
# Velocity P-wave (km/s) = 6.06635 6.52484 6.29977
#
# Compressibility (1/GPa) = 0.02435464
#
# Stress axis : x y z
#
# Youngs Moduli (GPa) = 47.16794 47.16794 86.08359
#
# Poissons Ratio (x) = 0.22975 0.42874
# Poissons Ratio (y) = 0.22975 0.42874
# Poissons Ratio (z) = 0.23492 0.23492
#
# Static dielectric constant tensor:
#      x y z
#    x 3.166450 0.000000 0.000000 
#    y 0.000000 3.166450 0.000000 
#    z 0.000000 0.000000 3.467880 
# 
# 
# High freq. dielectric constant tensor:
#      x y z
#    x 1.644030 0.000000 0.000000 
#    y 0.000000 1.644030 0.000000 
#    z 0.000000 0.000000 1.668390 
# 
# From -- ./inp_files/2735.got.cif
#   From: 2010.03.12/outbox.cif.g09.slc.cpg/sg87_2_cif.got.tgz:2735.got - 2010.04.08 20:16:13.
