data_PCOD8303430
_publ_section_title
;
Structure prediction by ZEFSAII (Michael W. Deem and Ramdas Pophale) SiO2 
 PCOD8303430
Probable space group: P 4/N
;
_chemical_formula_sum "Si O2"
_cell_formula_units_Z 48
_cell_length_a 13.526278
_cell_length_b 13.526278
_cell_length_c 12.161952
_cell_angle_alpha 90.000000
_cell_angle_beta 90.000000
_cell_angle_gamma 90.000000
_cell_volume 2225.153128
_symmetry_space_group_name_H-M "P 4/N"
_symmetry_group_IT_number 85
_symmetry_cell_setting 'tetragonal'
loop_
_space_group_symop_operation_xyz
x,y,z
1/2-y,x,z
1/2-x,1/2-y,z
y,1/2-x,z
-x,-y,-z
1/2+y,-x,-z
1/2+x,1/2+y,-z
-y,1/2+x,-z
loop_
_atom_site_type_symbol
_atom_site_label
_atom_site_fract_x
_atom_site_fract_y
_atom_site_fract_z
Si Si1 0.678688 0.391124 0.484100
Si Si2 0.382840 0.599438 0.742411
Si Si3 0.317983 0.103090 0.749856
Si Si4 0.803959 0.093683 0.851920
Si Si5 0.464733 0.744263 0.081134
Si Si6 0.534486 0.050423 0.326156
O O1 0.786950 0.378493 0.532903
O O2 0.691788 0.426701 0.358110
O O3 0.612464 0.464958 0.559591
O O4 0.377402 0.713877 0.773563
O O5 0.346594 0.536508 0.848026
O O6 0.489311 0.566011 0.694530
O O7 0.378707 0.202391 0.727356
O O8 0.321254 0.058160 0.875641
O O9 0.368564 0.020606 0.672370
O O10 0.859228 0.190379 0.899252
O O11 0.877532 0.031793 0.777493
O O12 0.767319 0.024348 0.952487
#
# Coordination Sequence:
#
# PCOD8303430 Si02
#       6
#     8   8   8   8   8   8
#     4  11  23  40  67  96 126 163 211 270 329 382
#     4  12  23  40  62  94 130 166 212 265 324 391
#     4  10  21  39  60  90 130 168 212 259 312 387
#     4  11  23  39  62  96 129 166 213 267 322 379
#     4  11  22  37  65  93 129 170 212 263 324 382
#     4  11  24  42  65  96 127 170 216 264 330 387
#
# _framework density 21.571546999999999
#
# number of rings (size 3 to 8) (size 9 to 14) (size 15 to 20)
#    0.000    1.000    5.000    3.000    2.333    2.000 
#    0.000    0.000    0.000    0.500    0.000    0.000 
#    0.000    0.000    0.000    0.000    0.000    0.000 
#
# Total GULP energy -594724.038144 kJ/mol
# GULP energy per Si atom -12390.084128 kJ/mol
# Density = 2.152245 g / cm^3
# Si number density = 21.571547 Si / 1000 Ang^3
#
#
#
# Elastic Constant Matrix: (Units=GPa)
#
#
# Indices 1 2 3 4 5 6 
#
# 1 63.5401 5.9404 3.5562 0.0000 0.0000 -4.2310
# 2 5.9404 63.5401 3.5562 0.0000 0.0000 4.2310
# 3 3.5562 3.5562 108.0163 0.0000 0.0000 0.0000
# 4 0.0000 0.0000 0.0000 26.2583 0.0000 0.0000
# 5 0.0000 0.0000 0.0000 0.0000 26.2583 0.0000
# 6 -4.2310 4.2310 0.0000 0.0000 0.0000 30.3459
#
#
#
# Elastic Compliance Matrix: (Units=1/GPa)
#
#
# Indices 1 2 3 4 5 6 
#
# 1 0.016083 -0.001642 -0.000475 0.000000 0.000000 0.002471
# 2 -0.001642 0.016083 -0.000475 0.000000 0.000000 -0.002471
# 3 -0.000475 -0.000475 0.009289 0.000000 0.000000 0.000000
# 4 0.000000 0.000000 0.000000 0.038083 0.000000 0.000000
# 5 0.000000 0.000000 0.000000 0.000000 0.038083 0.000000
# 6 0.002471 -0.002471 0.000000 0.000000 0.000000 0.033642
#
#
# Mechanical properties :
#
#
# Convention : Reuss Voigt Hill
#
# Bulk Modulus (GPa) = 27.57115 29.02244 28.29679
# Shear Modulus (GPa) = 29.66685 31.37541 30.52113
#
# Velocity S-wave (km/s) = 3.71250 3.81790 3.76557
# Velocity P-wave (km/s) = 5.58443 5.73746 5.66146
#
# Compressibility (1/GPa) = 0.03626980
#
# Stress axis : x y z
#
# Youngs Moduli (GPa) = 62.17853 62.17853 107.65222
#
# Poissons Ratio (x) = 0.10207 0.05118
# Poissons Ratio (y) = 0.10207 0.05118
# Poissons Ratio (z) = 0.02956 0.02956
#
# Static dielectric constant tensor:
#      x y z
#    x 3.900530 0.000000 0.000000 
#    y 0.000000 3.900530 0.000000 
#    z 0.000000 0.000000 3.916660 
# 
# 
# High freq. dielectric constant tensor:
#      x y z
#    x 1.836980 0.000000 0.000000 
#    y 0.000000 1.836980 0.000000 
#    z 0.000000 0.000000 1.846830 
# 
# From -- ./inp_files/1630.got.cif
#   From: 2010.03.12/outbox.cif.g09.slc.cpg/sg85_cif.got.tgz:1630.got - 2010.04.08 20:10:46.
