data_PCOD8303531
_publ_section_title
;
Structure prediction by ZEFSAII (Michael W. Deem and Ramdas Pophale) SiO2 
 PCOD8303531
Probable space group: P 42/N
;
_chemical_formula_sum "Si O2"
_cell_formula_units_Z 48
_cell_length_a 11.458361
_cell_length_b 11.458361
_cell_length_c 17.683271
_cell_angle_alpha 90.000000
_cell_angle_beta 90.000000
_cell_angle_gamma 90.000000
_cell_volume 2321.708034
_symmetry_space_group_name_H-M "P 42/N"
_symmetry_group_IT_number 86
_space_group.IT_coordinate_system_code '2'
_symmetry_cell_setting 'tetragonal'
loop_
_space_group_symop_operation_xyz
x,y,z
-y,1/2+x,1/2+z
1/2-x,1/2-y,z
1/2+y,-x,1/2+z
-x,-y,-z
y,1/2-x,1/2-z
1/2+x,1/2+y,-z
1/2-y,x,1/2-z
loop_
_atom_site_type_symbol
_atom_site_label
_atom_site_fract_x
_atom_site_fract_y
_atom_site_fract_z
Si Si1 0.120890 0.741846 0.813971
Si Si2 0.958121 0.105394 0.797423
Si Si3 0.129592 0.957960 0.713511
Si Si4 0.074256 0.584324 0.049337
Si Si5 0.315112 0.991844 0.462185
Si Si6 0.486758 0.844239 0.548062
O O1 0.250000 0.750000 0.851489
O O2 0.089334 0.617765 0.778426
O O3 0.119926 0.826323 0.741993
O O4 0.025153 0.768283 0.877326
O O5 0.992317 0.239122 0.807307
O O6 0.896374 0.054920 0.871681
O O7 0.078496 0.038890 0.779719
O O8 0.061203 0.965408 0.634802
O O9 0.208777 0.545734 0.041910
O O10 0.000000 0.500000 0.000000
O O11 0.040220 0.715445 0.023200
O O12 0.374411 0.122859 0.464399
O O13 0.420338 0.902908 0.477869
#
# Coordination Sequence:
#
# PCOD8303531 Si02
#       6
#     8   8   8   8   8   8
#     4  10  20  36  65  94 126 169 225 275 324 404
#     4  11  22  42  65  96 132 174 229 273 341 402
#     4  11  23  40  66  96 131 177 220 281 335 407
#     4  12  25  43  66 100 139 177 224 285 350 403
#     4  11  23  41  68 100 128 176 230 273 338 406
#     4  11  23  42  70  93 134 181 225 283 334 411
#
# _framework density 20.674431999999999
#
# number of rings (size 3 to 8) (size 9 to 14) (size 15 to 20)
#    0.000    1.000    5.000    2.500    0.000    2.333 
#    0.000    1.667    0.000    0.500    0.000    0.000 
#    0.000    0.000    0.000    0.000    0.000    0.000 
#
# Total GULP energy -594867.900712 kJ/mol
# GULP energy per Si atom -12393.081265 kJ/mol
# Density = 2.062738 g / cm^3
# Si number density = 20.674432 Si / 1000 Ang^3
#
#
#
# Elastic Constant Matrix: (Units=GPa)
#
#
# Indices 1 2 3 4 5 6 
#
# 1 83.9998 59.0846 30.0741 0.0000 0.0000 5.4655
# 2 59.0846 83.9998 30.0741 0.0000 0.0000 -5.4655
# 3 30.0741 30.0741 94.3749 0.0000 0.0000 0.0000
# 4 0.0000 0.0000 0.0000 24.9239 0.0000 0.0000
# 5 0.0000 0.0000 0.0000 0.0000 24.9239 0.0000
# 6 5.4655 -5.4655 0.0000 0.0000 0.0000 35.3232
#
#
#
# Elastic Compliance Matrix: (Units=1/GPa)
#
#
# Indices 1 2 3 4 5 6 
#
# 1 0.025565 -0.017495 -0.002572 0.000000 0.000000 -0.006663
# 2 -0.017495 0.025565 -0.002572 0.000000 0.000000 0.006663
# 3 -0.002572 -0.002572 0.012235 0.000000 0.000000 0.000000
# 4 0.000000 0.000000 0.000000 0.040122 0.000000 0.000000
# 5 0.000000 0.000000 0.000000 0.000000 0.040122 0.000000
# 6 -0.006663 0.006663 0.000000 0.000000 0.000000 0.030372
#
#
# Mechanical properties :
#
#
# Convention : Reuss Voigt Hill
#
# Bulk Modulus (GPa) = 55.28406 55.64888 55.46647
# Shear Modulus (GPa) = 22.19405 26.57697 24.38551
#
# Velocity S-wave (km/s) = 3.27999 3.58928 3.43811
# Velocity P-wave (km/s) = 6.41426 6.64473 6.53051
#
# Compressibility (1/GPa) = 0.01808840
#
# Stress axis : x y z
#
# Youngs Moduli (GPa) = 39.11659 39.11659 81.73270
#
# Poissons Ratio (x) = 0.68433 0.21018
# Poissons Ratio (y) = 0.68433 0.21018
# Poissons Ratio (z) = 0.10059 0.10059
#
# Static dielectric constant tensor:
#      x y z
#    x 4.505620 0.000000 0.000000 
#    y 0.000000 4.505620 0.000000 
#    z 0.000000 0.000000 3.734740 
# 
# 
# High freq. dielectric constant tensor:
#      x y z
#    x 1.801300 0.000000 0.000000 
#    y 0.000000 1.801300 0.000000 
#    z 0.000000 0.000000 1.826410 
# 
# From -- ./inp_files/3567.got.cif
#   From: 2010.03.12/outbox.cif.g09.slc.cpg/sg86_2_cif.got.tgz:3567.got - 2010.04.08 20:12:58.
