data_PCOD8303163
_publ_section_title
;
Structure prediction by ZEFSAII (Michael W. Deem and Ramdas Pophale) SiO2 
 PCOD8303163
Probable space group: P 42/M
;
_chemical_formula_sum "Si O2"
_cell_formula_units_Z 48
_cell_length_a 8.629528
_cell_length_b 8.629528
_cell_length_c 28.025892
_cell_angle_alpha 90.000000
_cell_angle_beta 90.000000
_cell_angle_gamma 90.000000
_cell_volume 2087.053243
_symmetry_space_group_name_H-M "P 42/M"
_symmetry_group_IT_number 84
_symmetry_cell_setting 'tetragonal'
loop_
_space_group_symop_operation_xyz
x,y,z
-y,x,1/2+z
-x,-y,z
y,-x,1/2+z
-x,-y,-z
y,-x,1/2-z
x,y,-z
-y,x,1/2-z
loop_
_atom_site_type_symbol
_atom_site_label
_atom_site_fract_x
_atom_site_fract_y
_atom_site_fract_z
Si Si1 0.098903 0.156673 0.552680
Si Si2 0.191470 0.207270 0.806051
Si Si3 0.320311 0.977591 0.390942
Si Si4 0.797904 0.318825 0.443929
Si Si5 0.098728 0.344674 0.708114
Si Si6 0.509141 0.683354 0.860017
O O1 0.165435 0.188260 0.500000
O O2 0.244882 0.135915 0.587925
O O3 0.981702 0.295253 0.567204
O O4 0.000000 0.000000 0.553466
O O5 0.187281 0.290587 0.755210
O O6 0.337239 0.278425 0.831962
O O7 0.042811 0.244440 0.838629
O O8 0.206673 0.021004 0.803986
O O9 0.500000 0.000000 0.383794
O O10 0.295183 0.833128 0.426633
O O11 0.767479 0.344614 0.500000
O O12 0.742997 0.471363 0.414790
O O13 0.226647 0.367421 0.666092
O O14 0.000000 0.500000 0.717772
O O15 0.500000 0.500000 0.859359
#
# Coordination Sequence:
#
# PCOD8303163 Si02
#       6
#     8   8   8   8   8   8
#     4   8  15  31  57  87 126 172 212 272 346 411
#     4  10  23  43  63  93 130 174 221 287 348 421
#     4  10  19  35  59  94 135 175 227 285 353 423
#     4   9  19  39  62  94 133 174 229 282 351 426
#     4  10  23  44  66  95 132 173 231 283 351 422
#     4  10  23  41  69  98 129 180 225 286 352 420
#
# _framework density 22.998933999999998
#
# number of rings (size 3 to 8) (size 9 to 14) (size 15 to 20)
#    0.000    2.500    0.000    2.000    4.667    2.000 
#   18.000    3.333    0.000   13.500    0.000    0.000 
#    0.000    0.000    0.000    0.000    0.000    0.000 
#
# Total GULP energy -595027.093580 kJ/mol
# GULP energy per Si atom -12396.397783 kJ/mol
# Density = 2.294659 g / cm^3
# Si number density = 22.998934 Si / 1000 Ang^3
#
#
#
# Elastic Constant Matrix: (Units=GPa)
#
#
# Indices 1 2 3 4 5 6 
#
# 1 50.5338 -3.1966 30.7431 0.0000 0.0000 0.2887
# 2 -3.1966 50.5338 30.7431 0.0000 0.0000 -0.2887
# 3 30.7431 30.7431 150.6931 0.0000 0.0000 0.0000
# 4 0.0000 0.0000 0.0000 16.1810 0.0000 0.0000
# 5 0.0000 0.0000 0.0000 0.0000 16.1810 0.0000
# 6 0.2887 -0.2887 0.0000 0.0000 0.0000 20.3862
#
#
#
# Elastic Compliance Matrix: (Units=1/GPa)
#
#
# Indices 1 2 3 4 5 6 
#
# 1 0.023678 0.005063 -0.005864 0.000000 0.000000 -0.000264
# 2 0.005063 0.023678 -0.005864 0.000000 0.000000 0.000264
# 3 -0.005864 -0.005864 0.009028 0.000000 0.000000 0.000000
# 4 0.000000 0.000000 0.000000 0.061801 0.000000 0.000000
# 5 0.000000 0.000000 0.000000 0.000000 0.061801 0.000000
# 6 -0.000264 0.000264 0.000000 0.000000 0.000000 0.049060
#
#
# Mechanical properties :
#
#
# Convention : Reuss Voigt Hill
#
# Bulk Modulus (GPa) = 23.22520 40.92664 32.07592
# Shear Modulus (GPa) = 19.47611 23.44775 21.46193
#
# Velocity S-wave (km/s) = 2.91319 3.19645 3.05810
# Velocity P-wave (km/s) = 4.62988 5.60863 5.14259
#
# Compressibility (1/GPa) = 0.04305669
#
# Stress axis : x y z
#
# Youngs Moduli (GPa) = 42.23382 42.23382 110.76106
#
# Poissons Ratio (x) = -0.21385 0.64945
# Poissons Ratio (y) = -0.21385 0.64945
# Poissons Ratio (z) = 0.24764 0.24764
#
# Static dielectric constant tensor:
#      x y z
#    x 4.311760 0.000000 0.000000 
#    y 0.000000 4.311760 0.000000 
#    z 0.000000 0.000000 4.515160 
# 
# 
# High freq. dielectric constant tensor:
#      x y z
#    x 1.896780 0.000000 0.000000 
#    y 0.000000 1.896780 0.000000 
#    z 0.000000 0.000000 1.918990 
# 
# From -- ./inp_files/5791.got.cif
#   From: 2010.03.12/outbox.cif.g09.slc.cpg/sg84_3_cif.got.tgz:5791.got - 2010.04.08 20:07:29.
