data_PCOD8303813
_publ_section_title
;
Structure prediction by ZEFSAII (Michael W. Deem and Ramdas Pophale) SiO2 
 PCOD8303813
Probable space group: I 4/M
;
_chemical_formula_sum "Si O2"
_cell_formula_units_Z 64
_cell_length_a 25.949227
_cell_length_b 25.949227
_cell_length_c 5.214457
_cell_angle_alpha 90.000000
_cell_angle_beta 90.000000
_cell_angle_gamma 90.000000
_cell_volume 3511.219186
_symmetry_space_group_name_H-M "I 4/M"
_symmetry_group_IT_number 87
_symmetry_cell_setting 'tetragonal'
loop_
_space_group_symop_operation_xyz
x,y,z
-y,x,z
-x,-y,z
y,-x,z
-x,-y,-z
y,-x,-z
x,y,-z
-y,x,-z
1/2+x,1/2+y,1/2+z
1/2-y,1/2+x,1/2+z
1/2-x,1/2-y,1/2+z
1/2+y,1/2-x,1/2+z
1/2-x,1/2-y,1/2-z
1/2+y,1/2-x,1/2-z
1/2+x,1/2+y,1/2-z
1/2-y,1/2+x,1/2-z
loop_
_atom_site_type_symbol
_atom_site_label
_atom_site_fract_x
_atom_site_fract_y
_atom_site_fract_z
Si Si1 0.080482 0.217598 0.000000
Si Si2 0.931551 0.605276 0.500000
Si Si3 0.946267 0.386552 0.500000
Si Si4 0.604696 0.605482 0.500000
Si Si5 0.278859 0.924066 0.500000
Si Si6 0.454484 0.770757 0.000000
Si Si7 0.448088 0.433161 0.000000
Si Si8 0.542237 0.290726 0.500000
O O1 0.096681 0.250575 0.247279
O O2 0.019655 0.202762 0.000000
O O3 0.115951 0.166530 0.000000
O O4 0.914113 0.575062 0.749966
O O5 0.905753 0.661931 0.500000
O O6 0.992686 0.608735 0.500000
O O7 0.928322 0.326918 0.500000
O O8 0.570968 0.595356 0.250634
O O9 0.654530 0.569919 0.500000
O O10 0.277938 0.985028 0.500000
O O11 0.437480 0.739682 0.748249
O O12 0.509049 0.428292 0.000000
#
# Coordination Sequence:
#
# PCOD8303813 Si02
#       8
#     8   8   8   8   8   8   8   8
#     4  10  19  33  52  74 102 134 175 227 272 313
#     4  11  22  36  56  84 116 147 176 204 244 305
#     4  11  22  36  56  84 116 147 176 204 244 305
#     4  12  22  33  52  78 100 133 180 231 280 317
#     4   9  19  35  53  74 102 138 178 217 255 301
#     4   9  19  35  53  74 102 138 178 217 255 301
#     4  11  22  34  46  66 104 145 174 205 260 345
#     4  10  19  33  52  74 102 134 175 227 272 313
#
# _framework density 18.227285999999999
#
# number of rings (size 3 to 8) (size 9 to 14) (size 15 to 20)
#    0.000    1.625    0.000    6.000    0.000    8.500 
#    0.000    0.000    0.000    0.000    0.000   17.500 
#    0.000    0.000    0.000    0.000    0.000    0.000 
#
# Total GULP energy -396866.107591 kJ/mol
# GULP energy per Si atom -12402.065862 kJ/mol
# Density = 1.818580 g / cm^3
# Si number density = 18.227286 Si / 1000 Ang^3
#
#
#
# Elastic Constant Matrix: (Units=GPa)
#
#
# Indices 1 2 3 4 5 6 
#
# 1 85.9063 -33.5685 22.2031 0.0000 0.0000 -3.4859
# 2 -33.5685 85.9063 22.2031 0.0000 0.0000 3.4859
# 3 22.2031 22.2031 166.8020 0.0000 0.0000 0.0000
# 4 0.0000 0.0000 0.0000 20.8545 0.0000 0.0000
# 5 0.0000 0.0000 0.0000 0.0000 20.8545 0.0000
# 6 -3.4859 3.4859 0.0000 0.0000 0.0000 15.7544
#
#
#
# Elastic Compliance Matrix: (Units=1/GPa)
#
#
# Indices 1 2 3 4 5 6 
#
# 1 0.015009 0.006530 -0.002867 0.000000 0.000000 0.001876
# 2 0.006530 0.015009 -0.002867 0.000000 0.000000 -0.001876
# 3 -0.002867 -0.002867 0.006758 0.000000 0.000000 0.000000
# 4 0.000000 0.000000 0.000000 0.047951 0.000000 0.000000
# 5 0.000000 0.000000 0.000000 0.000000 0.047951 0.000000
# 6 0.001876 -0.001876 0.000000 0.000000 0.000000 0.064305
#
#
# Mechanical properties :
#
#
# Convention : Reuss Voigt Hill
#
# Bulk Modulus (GPa) = 26.06304 40.03223 33.04764
# Shear Modulus (GPa) = 24.01739 33.34447 28.68093
#
# Velocity S-wave (km/s) = 3.63390 4.28175 3.97106
# Velocity P-wave (km/s) = 5.65128 6.81579 6.26067
#
# Compressibility (1/GPa) = 0.03836851
#
# Stress axis : x y z
#
# Youngs Moduli (GPa) = 66.62513 66.62513 147.96373
#
# Poissons Ratio (x) = -0.43506 0.42423
# Poissons Ratio (y) = -0.43506 0.42423
# Poissons Ratio (z) = 0.19102 0.19102
#
# Static dielectric constant tensor:
#      x y z
#    x 3.333150 0.000000 0.000000 
#    y 0.000000 3.333150 0.000000 
#    z 0.000000 0.000000 3.767640 
# 
# 
# High freq. dielectric constant tensor:
#      x y z
#    x 1.689580 0.000000 0.000000 
#    y 0.000000 1.689580 0.000000 
#    z 0.000000 0.000000 1.734260 
# 
# From -- ./inp_files/237.got.cif
#   From: 2010.03.12/outbox.cif.g09.slc.cpg/sg87_1_cif.got.tgz:237.got - 2010.04.08 20:16:13.
