data_PCOD8303199
_publ_section_title
;
Structure prediction by ZEFSAII (Michael W. Deem and Ramdas Pophale) SiO2 
 PCOD8303199
Probable space group: P 42/M
;
_chemical_formula_sum "Si O2"
_cell_formula_units_Z 40
_cell_length_a 15.757523
_cell_length_b 15.757523
_cell_length_c 8.841938
_cell_angle_alpha 90.000000
_cell_angle_beta 90.000000
_cell_angle_gamma 90.000000
_cell_volume 2195.449059
_symmetry_space_group_name_H-M "P 42/M"
_symmetry_group_IT_number 84
_symmetry_cell_setting 'tetragonal'
loop_
_space_group_symop_operation_xyz
x,y,z
-y,x,1/2+z
-x,-y,z
y,-x,1/2+z
-x,-y,-z
y,-x,1/2-z
x,y,-z
-y,x,1/2-z
loop_
_atom_site_type_symbol
_atom_site_label
_atom_site_fract_x
_atom_site_fract_y
_atom_site_fract_z
Si Si1 0.443655 0.386870 0.179073
Si Si2 0.772527 0.362223 0.826093
Si Si3 0.010137 0.242407 0.678215
Si Si4 0.040125 0.587427 0.175242
Si Si5 0.843847 0.182037 0.177352
O O1 0.387615 0.462707 0.248621
O O2 0.399189 0.298249 0.215848
O O3 0.450649 0.398789 0.000000
O O4 0.858948 0.414467 0.797388
O O5 0.787511 0.264191 0.781684
O O6 0.742953 0.370929 0.000000
O O7 0.004960 0.239988 0.500000
O O8 0.004905 0.338894 0.731677
O O9 0.934798 0.185131 0.742968
O O10 0.099266 0.204841 0.736107
O O11 0.000000 0.500000 0.233189
O O12 0.019992 0.603839 0.000000
O O13 0.861869 0.180193 0.000000
#
# Coordination Sequence:
#
# PCOD8303199 Si02
#       5
#     8   8   8   8   8
#     4  11  22  37  56  78 105 136 173 214 259 309
#     4   9  18  35  55  76 106 139 173 213 257 306
#     4  10  20  34  54  79 105 137 178 219 259 306
#     4   9  19  36  56  78 107 141 173 210 260 313
#     4   9  20  37  54  76 108 141 173 215 263 309
#
# _framework density 18.219505000000002
#
# number of rings (size 3 to 8) (size 9 to 14) (size 15 to 20)
#    0.000    2.400    0.000    4.200    0.000    7.200 
#    0.000    6.000    0.000    0.000    0.000    0.000 
#    0.000    0.000    0.000    0.000    0.000    0.000 
#
# Total GULP energy -496105.158465 kJ/mol
# GULP energy per Si atom -12402.628962 kJ/mol
# Density = 1.817804 g / cm^3
# Si number density = 18.219505 Si / 1000 Ang^3
#
#
#
# Elastic Constant Matrix: (Units=GPa)
#
#
# Indices 1 2 3 4 5 6 
#
# 1 125.3424 80.3034 45.9429 0.0000 0.0000 -15.0465
# 2 80.3034 125.3424 45.9429 0.0000 0.0000 15.0465
# 3 45.9429 45.9429 77.6862 0.0000 0.0000 0.0000
# 4 0.0000 0.0000 0.0000 28.0573 0.0000 0.0000
# 5 0.0000 0.0000 0.0000 0.0000 28.0573 0.0000
# 6 -15.0465 15.0465 0.0000 0.0000 0.0000 31.8058
#
#
#
# Elastic Compliance Matrix: (Units=1/GPa)
#
#
# Indices 1 2 3 4 5 6 
#
# 1 0.019537 -0.012928 -0.003909 0.000000 0.000000 0.015358
# 2 -0.012928 0.019537 -0.003909 0.000000 0.000000 -0.015358
# 3 -0.003909 -0.003909 0.017495 0.000000 0.000000 0.000000
# 4 0.000000 0.000000 0.000000 0.035641 0.000000 0.000000
# 5 0.000000 0.000000 0.000000 0.000000 0.035641 0.000000
# 6 0.015358 -0.015358 0.000000 0.000000 0.000000 0.045972
#
#
# Mechanical properties :
#
#
# Convention : Reuss Voigt Hill
#
# Bulk Modulus (GPa) = 66.31634 74.74994 70.53314
# Shear Modulus (GPa) = 22.69218 27.99621 25.34419
#
# Velocity S-wave (km/s) = 3.53298 3.92421 3.73372
# Velocity P-wave (km/s) = 7.28835 7.85169 7.57526
#
# Compressibility (1/GPa) = 0.01507924
#
# Stress axis : x y z
#
# Youngs Moduli (GPa) = 51.18506 51.18506 57.15821
#
# Poissons Ratio (x) = 0.66171 0.22341
# Poissons Ratio (y) = 0.66171 0.22341
# Poissons Ratio (z) = 0.20006 0.20006
#
# Static dielectric constant tensor:
#      x y z
#    x 3.442200 0.000000 0.000000 
#    y 0.000000 3.442200 0.000000 
#    z 0.000000 0.000000 3.288050 
# 
# 
# High freq. dielectric constant tensor:
#      x y z
#    x 1.708490 0.000000 0.000000 
#    y 0.000000 1.708490 0.000000 
#    z 0.000000 0.000000 1.706260 
# 
# From -- ./inp_files/733.got.cif
#   From: 2010.03.12/outbox.cif.g09.slc.cpg/sg84_1_cif.got.tgz:733.got - 2010.04.08 20:07:29.
