data_PCOD8303016
_publ_section_title
;
Structure prediction by ZEFSAII (Michael W. Deem and Ramdas Pophale) SiO2 
 PCOD8303016
Probable space group: P 4/M
;
_chemical_formula_sum "Si O2"
_cell_formula_units_Z 48
_cell_length_a 8.210007
_cell_length_b 8.210007
_cell_length_c 32.063174
_cell_angle_alpha 90.000000
_cell_angle_beta 90.000000
_cell_angle_gamma 90.000000
_cell_volume 2161.193072
_symmetry_space_group_name_H-M "P 4/M"
_symmetry_group_IT_number 83
_symmetry_cell_setting 'tetragonal'
loop_
_space_group_symop_operation_xyz
x,y,z
-y,x,z
-x,-y,z
y,-x,z
-x,-y,-z
y,-x,-z
x,y,-z
-y,x,-z
loop_
_atom_site_type_symbol
_atom_site_label
_atom_site_fract_x
_atom_site_fract_y
_atom_site_fract_z
Si Si1 0.000000 0.500000 0.772659
Si Si2 0.257170 0.071509 0.615034
Si Si3 0.758812 0.433414 0.453632
Si Si4 0.879252 0.757193 0.000000
Si Si5 0.745761 0.612023 0.916911
Si Si6 0.255667 0.079667 0.708389
Si Si7 0.911241 0.745344 0.162428
O O1 0.882046 0.393660 0.742567
O O2 0.882145 0.612774 0.801212
O O3 0.397275 0.105063 0.581122
O O4 0.327533 0.097550 0.661675
O O5 0.110287 0.196581 0.608299
O O6 0.694574 0.614046 0.447447
O O7 0.834333 0.411908 0.500000
O O8 0.830723 0.649426 0.039450
O O9 0.072156 0.784810 0.000000
O O10 0.579368 0.712899 0.912733
O O11 0.875212 0.662993 0.881824
O O12 0.106057 0.199669 0.715617
O O13 0.099782 0.795083 0.167003
#
# Coordination Sequence:
#
# PCOD8303016 Si02
#       7
#     4   8   8   4   8   8   8
#     4  12  22  36  64  91 113 150 198 248 298 354
#     4   9  19  35  55  81 113 147 188 239 290 346
#     4   9  19  35  53  76 110 151 192 235 287 349
#     4  11  24  41  64  96 132 173 220 262 306 368
#     4  11  24  42  65  96 132 169 213 266 317 363
#     4   9  20  39  60  85 117 152 191 238 297 362
#     4  11  24  42  64  91 125 166 210 252 304 370
#
# _framework density 22.209952999999999
#
# number of rings (size 3 to 8) (size 9 to 14) (size 15 to 20)
#    0.000    1.917    0.000    5.000    0.000   10.000 
#    0.000    2.500    0.000    4.500    0.000    0.000 
#    0.000    0.000    0.000    0.000    0.000    0.000 
#
# Total GULP energy -595205.091373 kJ/mol
# GULP energy per Si atom -12400.106070 kJ/mol
# Density = 2.215940 g / cm^3
# Si number density = 22.209953 Si / 1000 Ang^3
#
#
#
# Elastic Constant Matrix: (Units=GPa)
#
#
# Indices 1 2 3 4 5 6 
#
# 1 80.0105 29.5951 62.7432 0.0000 0.0000 1.9648
# 2 29.5951 80.0105 62.7432 0.0000 0.0000 -1.9648
# 3 62.7432 62.7432 196.0984 0.0000 0.0000 0.0000
# 4 0.0000 0.0000 0.0000 10.0700 0.0000 0.0000
# 5 0.0000 0.0000 0.0000 0.0000 10.0700 0.0000
# 6 1.9648 -1.9648 0.0000 0.0000 0.0000 34.4537
#
#
#
# Elastic Compliance Matrix: (Units=1/GPa)
#
#
# Indices 1 2 3 4 5 6 
#
# 1 0.017161 -0.002763 -0.004607 0.000000 0.000000 -0.001136
# 2 -0.002763 0.017161 -0.004607 0.000000 0.000000 0.001136
# 3 -0.004607 -0.004607 0.008047 0.000000 0.000000 0.000000
# 4 0.000000 0.000000 0.000000 0.099305 0.000000 0.000000
# 5 0.000000 0.000000 0.000000 0.000000 0.099305 0.000000
# 6 -0.001136 0.001136 0.000000 0.000000 0.000000 0.029154
#
#
# Mechanical properties :
#
#
# Convention : Reuss Voigt Hill
#
# Bulk Modulus (GPa) = 54.30008 74.03140 64.16574
# Shear Modulus (GPa) = 16.65424 24.32127 20.48775
#
# Velocity S-wave (km/s) = 2.74132 3.31276 3.04049
# Velocity P-wave (km/s) = 5.87549 6.93090 6.42490
#
# Compressibility (1/GPa) = 0.01841618
#
# Stress axis : x y z
#
# Youngs Moduli (GPa) = 58.27246 58.27246 124.26424
#
# Poissons Ratio (x) = 0.16101 0.57245
# Poissons Ratio (y) = 0.16101 0.57245
# Poissons Ratio (z) = 0.26844 0.26844
#
# Static dielectric constant tensor:
#      x y z
#    x 3.926430 0.000000 0.000000 
#    y 0.000000 3.926430 0.000000 
#    z 0.000000 0.000000 4.202850 
# 
# 
# High freq. dielectric constant tensor:
#      x y z
#    x 1.867710 0.000000 0.000000 
#    y 0.000000 1.867710 0.000000 
#    z 0.000000 0.000000 1.892110 
# 
# From -- ./inp_files/3496.got.cif
#   From: 2010.03.12/outbox.cif.g09.slc.cpg/sg83_2_cif.got.tgz:3496.got - 2010.04.08 20:05:18.
