data_PCOD8303326
_publ_section_title
;
Structure prediction by ZEFSAII (Michael W. Deem and Ramdas Pophale) SiO2 
 PCOD8303326
Probable space group: P 42/M
;
_chemical_formula_sum "Si O2"
_cell_formula_units_Z 48
_cell_length_a 9.123843
_cell_length_b 9.123843
_cell_length_c 28.095087
_cell_angle_alpha 90.000000
_cell_angle_beta 90.000000
_cell_angle_gamma 90.000000
_cell_volume 2338.761781
_symmetry_space_group_name_H-M "P 42/M"
_symmetry_group_IT_number 84
_symmetry_cell_setting 'tetragonal'
loop_
_space_group_symop_operation_xyz
x,y,z
-y,x,1/2+z
-x,-y,z
y,-x,1/2+z
-x,-y,-z
y,-x,1/2-z
x,y,-z
-y,x,1/2-z
loop_
_atom_site_type_symbol
_atom_site_label
_atom_site_fract_x
_atom_site_fract_y
_atom_site_fract_z
Si Si1 0.424217 0.346844 0.910625
Si Si2 0.656872 0.077904 0.408350
Si Si3 0.532421 0.326693 0.191124
Si Si4 0.299214 0.196000 0.252760
Si Si5 0.172079 0.955628 0.314006
Si Si6 0.151961 0.581312 0.500000
Si Si7 0.842549 0.075846 0.500000
O O1 0.500000 0.500000 0.922185
O O2 0.250910 0.371618 0.906520
O O3 0.487685 0.278050 0.861895
O O4 0.467074 0.238613 0.952996
O O5 0.744669 0.029019 0.455098
O O6 0.500000 0.000000 0.405995
O O7 0.761507 0.023900 0.366003
O O8 0.500000 0.500000 0.197964
O O9 0.458844 0.229801 0.232580
O O10 0.698807 0.279319 0.201172
O O11 0.268941 0.039487 0.274940
O O12 0.206792 0.204785 0.203991
O O13 0.000000 0.000000 0.312870
O O14 0.123595 0.753123 0.500000
O O15 0.000000 0.500000 0.500000
O O16 0.000000 0.000000 0.500000
#
# Coordination Sequence:
#
# PCOD8303326 Si02
#       7
#     8   8   8   8   8   4   4
#     4  10  23  43  66  97 130 162 209 275 320 380
#     4  11  25  42  72  99 128 172 226 266 330 395
#     4  11  23  41  64  95 130 161 220 268 318 379
#     4  12  22  43  63  88 132 175 212 272 317 384
#     4  12  26  45  59  93 135 173 217 268 327 386
#     4  10  23  46  68  96 132 168 211 258 332 392
#     4  10  23  48  70  98 138 172 213 282 322 390
#
# _framework density 20.523679999999999
#
# number of rings (size 3 to 8) (size 9 to 14) (size 15 to 20)
#    0.000    1.000    5.000    1.000    7.000    1.333 
#    9.000    0.000    0.000    0.000    0.000    0.000 
#    0.000    0.000    0.000    0.000    0.000    0.000 
#
# Total GULP energy -594911.415604 kJ/mol
# GULP energy per Si atom -12393.987825 kJ/mol
# Density = 2.047697 g / cm^3
# Si number density = 20.523680 Si / 1000 Ang^3
#
#
#
# Elastic Constant Matrix: (Units=GPa)
#
#
# Indices 1 2 3 4 5 6 
#
# 1 61.7421 35.7636 34.5984 0.0000 0.0000 -0.3423
# 2 35.7636 61.7421 34.5984 0.0000 0.0000 0.3423
# 3 34.5984 34.5984 157.1390 0.0000 0.0000 0.0000
# 4 0.0000 0.0000 0.0000 30.3806 0.0000 0.0000
# 5 0.0000 0.0000 0.0000 0.0000 30.3806 0.0000
# 6 -0.3423 0.3423 0.0000 0.0000 0.0000 37.6196
#
#
#
# Elastic Compliance Matrix: (Units=1/GPa)
#
#
# Indices 1 2 3 4 5 6 
#
# 1 0.025329 -0.013174 -0.002676 0.000000 0.000000 0.000350
# 2 -0.013174 0.025329 -0.002676 0.000000 0.000000 -0.000350
# 3 -0.002676 -0.002676 0.007542 0.000000 0.000000 0.000000
# 4 0.000000 0.000000 0.000000 0.032916 0.000000 0.000000
# 5 0.000000 0.000000 0.000000 0.000000 0.032916 0.000000
# 6 0.000350 -0.000350 0.000000 0.000000 0.000000 0.026588
#
#
# Mechanical properties :
#
#
# Convention : Reuss Voigt Hill
#
# Bulk Modulus (GPa) = 47.28717 54.50487 50.89602
# Shear Modulus (GPa) = 25.67771 31.38701 28.53236
#
# Velocity S-wave (km/s) = 3.54096 3.91488 3.73261
# Velocity P-wave (km/s) = 6.30938 6.85928 6.59007
#
# Compressibility (1/GPa) = 0.02114738
#
# Stress axis : x y z
#
# Youngs Moduli (GPa) = 39.48072 39.48072 132.58555
#
# Poissons Ratio (x) = 0.52011 0.35483
# Poissons Ratio (y) = 0.52011 0.35483
# Poissons Ratio (z) = 0.10566 0.10566
#
# Static dielectric constant tensor:
#      x y z
#    x 3.582730 0.000000 0.000000 
#    y 0.000000 3.582730 0.000000 
#    z 0.000000 0.000000 3.990530 
# 
# 
# High freq. dielectric constant tensor:
#      x y z
#    x 1.801940 0.000000 0.000000 
#    y 0.000000 1.801940 0.000000 
#    z 0.000000 0.000000 1.823380 
# 
# From -- ./inp_files/5853.got.cif
#   From: 2010.03.12/outbox.cif.g09.slc.cpg/sg84_3_cif.got.tgz:5853.got - 2010.04.08 20:07:29.
