data_PCOD8303724
_publ_section_title
;
Structure prediction by ZEFSAII (Michael W. Deem and Ramdas Pophale) SiO2 
 PCOD8303724
Probable space group: I 4/M
;
_chemical_formula_sum "Si O2"
_cell_formula_units_Z 64
_cell_length_a 25.958328
_cell_length_b 25.958328
_cell_length_c 5.324291
_cell_angle_alpha 90.000000
_cell_angle_beta 90.000000
_cell_angle_gamma 90.000000
_cell_volume 3587.692521
_symmetry_space_group_name_H-M "I 4/M"
_symmetry_group_IT_number 87
_symmetry_cell_setting 'tetragonal'
loop_
_space_group_symop_operation_xyz
x,y,z
-y,x,z
-x,-y,z
y,-x,z
-x,-y,-z
y,-x,-z
x,y,-z
-y,x,-z
1/2+x,1/2+y,1/2+z
1/2-y,1/2+x,1/2+z
1/2-x,1/2-y,1/2+z
1/2+y,1/2-x,1/2+z
1/2-x,1/2-y,1/2-z
1/2+y,1/2-x,1/2-z
1/2+x,1/2+y,1/2-z
1/2-y,1/2+x,1/2-z
loop_
_atom_site_type_symbol
_atom_site_label
_atom_site_fract_x
_atom_site_fract_y
_atom_site_fract_z
Si Si1 0.834566 0.485914 0.500000
Si Si2 0.293537 0.572056 0.000000
Si Si3 0.725204 0.453677 0.500000
Si Si4 0.243581 0.666167 0.500000
Si Si5 0.215423 0.363829 0.000000
Si Si6 0.828955 0.599518 0.500000
Si Si7 0.426832 0.168872 0.000000
Si Si8 0.685500 0.700597 0.000000
O O1 0.772369 0.492997 0.500000
O O2 0.857197 0.543740 0.500000
O O3 0.851761 0.456265 0.247856
O O4 0.309271 0.539744 0.248659
O O5 0.230869 0.579455 0.000000
O O6 0.321763 0.627170 0.000000
O O7 0.747206 0.394874 0.500000
O O8 0.182969 0.675099 0.500000
O O9 0.266310 0.693920 0.747236
O O10 0.206129 0.397334 0.250117
O O11 0.274761 0.346208 0.000000
O O12 0.870296 0.645110 0.500000
#
# Coordination Sequence:
#
# PCOD8303724 Si02
#       8
#     8   8   8   8   8   8   8   8
#     4  10  20  34  51  65  81 107 137 178 230 270
#     4   8  14  25  42  61  80 109 139 163 196 234
#     4   8  14  25  41  58  76  98 137 177 201 230
#     4  10  17  28  44  63  85 117 147 167 198 238
#     4  12  21  30  42  67  98 116 135 166 204 267
#     4  12  23  34  50  69  86 110 141 178 233 281
#     4  10  19  35  51  65  83 104 140 184 217 261
#     4  10  18  27  41  63  93 123 140 157 195 246
#
# _framework density 17.838763
#
# number of rings (size 3 to 8) (size 9 to 14) (size 15 to 20)
#    0.000    2.000    0.000    8.250    0.000    0.000 
#    0.000    0.000    0.000    2.250    0.000    0.000 
#    0.000    0.000    0.000    0.000    0.000    0.000 
#
# Total GULP energy -396561.810707 kJ/mol
# GULP energy per Si atom -12392.556585 kJ/mol
# Density = 1.779816 g / cm^3
# Si number density = 17.838763 Si / 1000 Ang^3
#
#
#
# Elastic Constant Matrix: (Units=GPa)
#
#
# Indices 1 2 3 4 5 6 
#
# 1 23.6809 16.6247 16.2307 0.0000 0.0000 -3.1597
# 2 16.6247 23.6809 16.2307 0.0000 0.0000 3.1597
# 3 16.2307 16.2307 193.4594 0.0000 0.0000 0.0000
# 4 0.0000 0.0000 0.0000 14.5378 0.0000 0.0000
# 5 0.0000 0.0000 0.0000 0.0000 14.5378 0.0000
# 6 -3.1597 3.1597 0.0000 0.0000 0.0000 7.4694
#
#
#
# Elastic Compliance Matrix: (Units=1/GPa)
#
#
# Indices 1 2 3 4 5 6 
#
# 1 0.127383 -0.100775 -0.002232 0.000000 0.000000 0.096516
# 2 -0.100775 0.127383 -0.002232 0.000000 0.000000 -0.096516
# 3 -0.002232 -0.002232 0.005544 0.000000 0.000000 0.000000
# 4 0.000000 0.000000 0.000000 0.068786 0.000000 0.000000
# 5 0.000000 0.000000 0.000000 0.000000 0.068786 0.000000
# 6 0.096516 -0.096516 0.000000 0.000000 0.000000 0.215538
#
#
# Mechanical properties :
#
#
# Convention : Reuss Voigt Hill
#
# Bulk Modulus (GPa) = 20.06788 37.66593 28.86690
# Shear Modulus (GPa) = 5.94877 20.09133 13.02005
#
# Velocity S-wave (km/s) = 1.82811 3.35964 2.70455
# Velocity P-wave (km/s) = 3.96610 6.01748 5.09608
#
# Compressibility (1/GPa) = 0.04983088
#
# Stress axis : x y z
#
# Youngs Moduli (GPa) = 7.85031 7.85031 180.38754
#
# Poissons Ratio (x) = 0.79112 0.40269
# Poissons Ratio (y) = 0.79112 0.40269
# Poissons Ratio (z) = 0.01752 0.01752
#
# Static dielectric constant tensor:
#      x y z
#    x 2.831140 0.000000 0.000000 
#    y 0.000000 2.831140 0.000000 
#    z 0.000000 0.000000 4.831620 
# 
# 
# High freq. dielectric constant tensor:
#      x y z
#    x 1.633790 0.000000 0.000000 
#    y 0.000000 1.633790 0.000000 
#    z 0.000000 0.000000 1.739910 
# 
# From -- ./inp_files/238.got.cif
#   From: 2010.03.12/outbox.cif.g09.slc.cpg/sg87_1_cif.got.tgz:238.got - 2010.04.08 20:16:13.
