data_PCOD8303454
_publ_section_title
;
Structure prediction by ZEFSAII (Michael W. Deem and Ramdas Pophale) SiO2 
 PCOD8303454
Probable space group: P 4/N
;
_chemical_formula_sum "Si O2"
_cell_formula_units_Z 58
_cell_length_a 17.213820
_cell_length_b 17.213820
_cell_length_c 8.715902
_cell_angle_alpha 90.000000
_cell_angle_beta 90.000000
_cell_angle_gamma 90.000000
_cell_volume 2582.657722
_symmetry_space_group_name_H-M "P 4/N"
_symmetry_group_IT_number 85
_symmetry_cell_setting 'tetragonal'
loop_
_space_group_symop_operation_xyz
x,y,z
1/2-y,x,z
1/2-x,1/2-y,z
y,1/2-x,z
-x,-y,-z
1/2+y,-x,-z
1/2+x,1/2+y,-z
-y,1/2+x,-z
loop_
_atom_site_type_symbol
_atom_site_label
_atom_site_fract_x
_atom_site_fract_y
_atom_site_fract_z
Si Si1 0.357681 0.189368 0.500178
Si Si2 0.885023 0.668298 0.151288
Si Si3 0.750000 0.750000 0.022351
Si Si4 0.976962 0.982603 0.172756
Si Si5 0.489971 0.865318 0.651363
Si Si6 0.370676 0.887137 0.141690
Si Si7 0.224116 0.972087 0.043407
Si Si8 0.652231 0.184674 0.547621
O O1 0.353226 0.278852 0.442179
O O2 0.368219 0.201922 0.680875
O O3 0.425829 0.138353 0.427461
O O4 0.804543 0.673437 0.054013
O O5 0.906503 0.577282 0.173060
O O6 0.956195 0.713993 0.071624
O O7 0.930886 0.058713 0.227157
O O8 0.049468 0.970404 0.284766
O O9 0.000000 0.000000 0.000000
O O10 0.494079 0.803170 0.786686
O O11 0.428313 0.844777 0.521269
O O12 0.313881 0.946966 0.054529
O O13 0.329100 0.842215 0.279647
O O14 0.399573 0.826867 0.013755
O O15 0.652203 0.278093 0.556873
#
# Coordination Sequence:
#
# PCOD8303454 Si02
#       8
#     8   8   2   8   8   8   8   8
#     4  11  25  48  71 107 148 192 248 306 366 443
#     4  11  23  47  73 105 142 188 247 303 369 441
#     4  12  24  44  80 110 136 196 252 290 388 436
#     4  11  25  45  68 102 146 185 240 296 358 439
#     4  12  25  46  72 105 143 200 236 299 371 434
#     4  11  25  45  69 104 142 184 242 295 363 429
#     4  11  26  43  71 106 141 189 235 302 361 436
#     4  11  26  46  70 103 142 184 244 299 358 443
#
# _framework density 22.457488000000001
#
# number of rings (size 3 to 8) (size 9 to 14) (size 15 to 20)
#    0.000    0.828    5.517    1.655    5.793    3.586 
#    2.483    0.000    0.000    0.000    0.000    0.000 
#    0.000    0.000    0.000    0.000    0.000    0.000 
#
# Total GULP energy -718520.794459 kJ/mol
# GULP energy per Si atom -12388.289560 kJ/mol
# Density = 2.240637 g / cm^3
# Si number density = 22.457488 Si / 1000 Ang^3
#
#
#
# Elastic Constant Matrix: (Units=GPa)
#
#
# Indices 1 2 3 4 5 6 
#
# 1 119.8569 43.3974 10.0570 0.0000 0.0000 -12.7595
# 2 43.3974 119.8569 10.0570 0.0000 0.0000 12.7595
# 3 10.0570 10.0570 57.8465 0.0000 0.0000 0.0000
# 4 0.0000 0.0000 0.0000 31.3178 0.0000 0.0000
# 5 0.0000 0.0000 0.0000 0.0000 31.3178 0.0000
# 6 -12.7595 12.7595 0.0000 0.0000 0.0000 37.8764
#
#
#
# Elastic Compliance Matrix: (Units=1/GPa)
#
#
# Indices 1 2 3 4 5 6 
#
# 1 0.010498 -0.004238 -0.001088 0.000000 0.000000 0.004964
# 2 -0.004238 0.010498 -0.001088 0.000000 0.000000 -0.004964
# 3 -0.001088 -0.001088 0.017666 0.000000 0.000000 0.000000
# 4 0.000000 0.000000 0.000000 0.031931 0.000000 0.000000
# 5 0.000000 0.000000 0.000000 0.000000 0.031931 0.000000
# 6 0.004964 -0.004964 0.000000 0.000000 0.000000 0.029746
#
#
# Mechanical properties :
#
#
# Convention : Reuss Voigt Hill
#
# Bulk Modulus (GPa) = 38.71243 47.17592 42.94418
# Shear Modulus (GPa) = 32.52924 35.70567 34.11746
#
# Velocity S-wave (km/s) = 3.81002 3.99171 3.90192
# Velocity P-wave (km/s) = 6.05232 6.50364 6.28203
#
# Compressibility (1/GPa) = 0.02583149
#
# Stress axis : x y z
#
# Youngs Moduli (GPa) = 95.26031 95.26031 56.60739
#
# Poissons Ratio (x) = 0.40372 0.06160
# Poissons Ratio (y) = 0.40372 0.06160
# Poissons Ratio (z) = 0.10367 0.10367
#
# Static dielectric constant tensor:
#      x y z
#    x 3.906570 0.000000 0.000000 
#    y 0.000000 3.906570 0.000000 
#    z 0.000000 0.000000 3.859080 
# 
# 
# High freq. dielectric constant tensor:
#      x y z
#    x 1.900570 0.000000 0.000000 
#    y 0.000000 1.900570 0.000000 
#    z 0.000000 0.000000 1.869820 
# 
# From -- ./inp_files/1199.got.cif
#   From: 2010.03.12/outbox.cif.g09.slc.cpg/sg85_cif.got.tgz:1199.got - 2010.04.08 20:10:46.
