data_PCOD8303009
_publ_section_title
;
Structure prediction by ZEFSAII (Michael W. Deem and Ramdas Pophale) SiO2 
 PCOD8303009
Probable space group: P 4/M
;
_chemical_formula_sum "Si O2"
_cell_formula_units_Z 40
_cell_length_a 14.055488
_cell_length_b 14.055488
_cell_length_c 9.060883
_cell_angle_alpha 90.000000
_cell_angle_beta 90.000000
_cell_angle_gamma 90.000000
_cell_volume 1790.038533
_symmetry_space_group_name_H-M "P 4/M"
_symmetry_group_IT_number 83
_symmetry_cell_setting 'tetragonal'
loop_
_space_group_symop_operation_xyz
x,y,z
-y,x,z
-x,-y,z
y,-x,z
-x,-y,-z
y,-x,-z
x,y,-z
-y,x,-z
loop_
_atom_site_type_symbol
_atom_site_label
_atom_site_fract_x
_atom_site_fract_y
_atom_site_fract_z
Si Si1 0.389453 0.995947 0.827048
Si Si2 0.358808 0.800433 0.672179
Si Si3 0.880624 0.900880 0.839884
Si Si4 0.468600 0.650626 0.171450
Si Si5 0.837269 0.282883 0.332402
O O1 0.342447 0.902653 0.751260
O O2 0.500000 0.000000 0.787586
O O3 0.347149 0.097005 0.772421
O O4 0.370000 0.987460 0.000000
O O5 0.372092 0.821733 0.500000
O O6 0.452492 0.747727 0.736196
O O7 0.275813 0.721255 0.701276
O O8 0.827214 0.860872 0.698233
O O9 0.987219 0.867664 0.829763
O O10 0.838701 0.867533 0.000000
O O11 0.389555 0.571857 0.211935
O O12 0.462191 0.677123 0.000000
O O13 0.859043 0.311638 0.500000
#
# Coordination Sequence:
#
# PCOD8303009 Si02
#       5
#     8   8   8   8   8
#     4  11  26  46  68  95 127 171 225 277 333 394
#     4  11  25  42  65  98 135 176 219 269 338 407
#     4   9  18  33  55  83 114 151 198 251 304 360
#     4   9  20  40  66  96 130 169 218 276 331 389
#     4  11  24  40  59  88 125 165 208 258 320 389
#
# _framework density 22.345889
#
# number of rings (size 3 to 8) (size 9 to 14) (size 15 to 20)
#    0.000    1.800    0.000    4.200    2.800    9.600 
#    0.000    2.000    0.000    0.000    0.000    0.000 
#    0.000    0.000    0.000    0.000    0.000    0.000 
#
# Total GULP energy -495697.862237 kJ/mol
# GULP energy per Si atom -12392.446556 kJ/mol
# Density = 2.229503 g / cm^3
# Si number density = 22.345889 Si / 1000 Ang^3
#
#
#
# Elastic Constant Matrix: (Units=GPa)
#
#
# Indices 1 2 3 4 5 6 
#
# 1 58.4679 6.1963 41.1646 0.0000 0.0000 11.0127
# 2 6.1963 58.4679 41.1646 0.0000 0.0000 -11.0127
# 3 41.1646 41.1646 100.8323 0.0000 0.0000 0.0000
# 4 0.0000 0.0000 0.0000 28.6396 0.0000 0.0000
# 5 0.0000 0.0000 0.0000 0.0000 28.6396 0.0000
# 6 11.0127 -11.0127 0.0000 0.0000 0.0000 45.1494
#
#
#
# Elastic Compliance Matrix: (Units=1/GPa)
#
#
# Indices 1 2 3 4 5 6 
#
# 1 0.026762 0.005440 -0.013147 0.000000 0.000000 -0.005201
# 2 0.005440 0.026762 -0.013147 0.000000 0.000000 0.005201
# 3 -0.013147 -0.013147 0.020652 0.000000 0.000000 0.000000
# 4 0.000000 0.000000 0.000000 0.034917 0.000000 0.000000
# 5 0.000000 0.000000 0.000000 0.000000 0.034917 0.000000
# 6 -0.005201 0.005201 0.000000 0.000000 0.000000 0.024686
#
#
# Mechanical properties :
#
#
# Convention : Reuss Voigt Hill
#
# Bulk Modulus (GPa) = 30.79745 43.86875 37.33310
# Shear Modulus (GPa) = 22.60139 29.10189 25.85164
#
# Velocity S-wave (km/s) = 3.18376 3.61271 3.40499
# Velocity P-wave (km/s) = 5.22754 6.08905 5.67466
#
# Compressibility (1/GPa) = 0.03247022
#
# Stress axis : x y z
#
# Youngs Moduli (GPa) = 37.36583 37.36583 48.42238
#
# Poissons Ratio (x) = -0.20327 0.63659
# Poissons Ratio (y) = -0.20327 0.63659
# Poissons Ratio (z) = 0.49123 0.49123
#
# Static dielectric constant tensor:
#      x y z
#    x 4.032010 0.000000 0.000000 
#    y 0.000000 4.032010 0.000000 
#    z 0.000000 0.000000 3.920650 
# 
# 
# High freq. dielectric constant tensor:
#      x y z
#    x 1.884790 0.000000 0.000000 
#    y 0.000000 1.884790 0.000000 
#    z 0.000000 0.000000 1.873500 
# 
# From -- ./inp_files/621.got.cif
#   From: 2010.03.12/outbox.cif.g09.slc.cpg/sg83_1_cif.got.tgz:621.got - 2010.04.08 20:05:18.
