data_PCOD8303067
_publ_section_title
;
Structure prediction by ZEFSAII (Michael W. Deem and Ramdas Pophale) SiO2 
 PCOD8303067
Probable space group: P 42/M
;
_chemical_formula_sum "Si O2"
_cell_formula_units_Z 40
_cell_length_a 19.457326
_cell_length_b 19.457326
_cell_length_c 7.911401
_cell_angle_alpha 90.000000
_cell_angle_beta 90.000000
_cell_angle_gamma 90.000000
_cell_volume 2995.157804
_symmetry_space_group_name_H-M "P 42/M"
_symmetry_group_IT_number 84
_symmetry_cell_setting 'tetragonal'
loop_
_space_group_symop_operation_xyz
x,y,z
-y,x,1/2+z
-x,-y,z
y,-x,1/2+z
-x,-y,-z
y,-x,1/2-z
x,y,-z
-y,x,1/2-z
loop_
_atom_site_type_symbol
_atom_site_label
_atom_site_fract_x
_atom_site_fract_y
_atom_site_fract_z
Si Si1 0.429613 0.318775 0.802646
Si Si2 0.582512 0.922470 0.500000
Si Si3 0.418243 0.921591 0.500000
Si Si4 0.580830 0.312365 0.693548
Si Si5 0.836103 0.581036 0.684236
Si Si6 0.164447 0.581794 0.687303
O O1 0.500706 0.331207 0.705702
O O2 0.374928 0.373909 0.733195
O O3 0.399174 0.242903 0.766900
O O4 0.445151 0.328445 0.000000
O O5 0.500384 0.918725 0.500000
O O6 0.612462 0.885495 0.331670
O O7 0.608816 0.000568 0.500000
O O8 0.388351 0.883836 0.332965
O O9 0.600309 0.299393 0.500000
O O10 0.600867 0.243489 0.793071
O O11 0.860244 0.609102 0.500000
O O12 0.842769 0.499618 0.686497
O O13 0.144553 0.610519 0.500000
#
# Coordination Sequence:
#
# PCOD8303067 Si02
#       6
#     8   4   4   8   8   8
#     4   9  19  30  39  54  72  94 126 162 200 236
#     4   9  16  24  40  58  71  91 117 137 177 230
#     4   9  16  26  38  58  75  89 115 141 175 230
#     4  10  18  29  42  53  71  96 125 163 199 234
#     4   9  16  27  40  53  73  95 114 144 185 224
#     4   8  15  27  38  51  73  93 113 145 183 224
#
# _framework density 13.354889999999999
#
# number of rings (size 3 to 8) (size 9 to 14) (size 15 to 20)
#    0.000    3.000    1.000    1.800    4.200    2.800 
#    0.000    6.000    0.000    0.000    0.000    0.000 
#    0.000    0.000    0.000    0.000    0.000    0.000 
#
# Total GULP energy -495772.472751 kJ/mol
# GULP energy per Si atom -12394.311819 kJ/mol
# Density = 1.332449 g / cm^3
# Si number density = 13.354890 Si / 1000 Ang^3
#
#
#
# Elastic Constant Matrix: (Units=GPa)
#
#
# Indices 1 2 3 4 5 6 
#
# 1 52.6437 30.7204 34.8031 0.0000 0.0000 0.2952
# 2 30.7204 52.6437 34.8031 0.0000 0.0000 -0.2952
# 3 34.8031 34.8031 97.7060 0.0000 0.0000 0.0000
# 4 0.0000 0.0000 0.0000 13.2164 0.0000 0.0000
# 5 0.0000 0.0000 0.0000 0.0000 13.2164 0.0000
# 6 0.2952 -0.2952 0.0000 0.0000 0.0000 0.6235
#
#
#
# Elastic Compliance Matrix: (Units=1/GPa)
#
#
# Indices 1 2 3 4 5 6 
#
# 1 0.031638 -0.014565 -0.006082 0.000000 0.000000 -0.021876
# 2 -0.014565 0.031638 -0.006082 0.000000 0.000000 0.021876
# 3 -0.006082 -0.006082 0.014567 0.000000 0.000000 0.000000
# 4 0.000000 0.000000 0.000000 0.075663 0.000000 0.000000
# 5 0.000000 0.000000 0.000000 0.000000 0.075663 0.000000
# 6 -0.021876 0.021876 0.000000 0.000000 0.000000 1.624473
#
#
# Mechanical properties :
#
#
# Convention : Reuss Voigt Hill
#
# Bulk Modulus (GPa) = 41.00393 44.84963 42.92678
# Shear Modulus (GPa) = 2.61066 12.25573 7.43319
#
# Velocity S-wave (km/s) = 1.39967 3.03264 2.36177
# Velocity P-wave (km/s) = 5.77772 6.77631 6.29684
#
# Compressibility (1/GPa) = 0.02438790
#
# Stress axis : x y z
#
# Youngs Moduli (GPa) = 31.60747 31.60747 68.64660
#
# Poissons Ratio (x) = 0.46035 0.41748
# Poissons Ratio (y) = 0.46035 0.41748
# Poissons Ratio (z) = 0.19222 0.19222
#
# Static dielectric constant tensor:
#      x y z
#    x 2.454140 0.000000 0.000000 
#    y 0.000000 2.454140 0.000000 
#    z 0.000000 0.000000 2.983430 
# 
# 
# High freq. dielectric constant tensor:
#      x y z
#    x 1.463150 0.000000 0.000000 
#    y 0.000000 1.463150 0.000000 
#    z 0.000000 0.000000 1.530260 
# 
# From -- ./inp_files/922.got.cif
#   From: 2010.03.12/outbox.cif.g09.slc.cpg/sg84_1_cif.got.tgz:922.got - 2010.04.08 20:07:29.
