data_PCOD8303409
_publ_section_title
;
Structure prediction by ZEFSAII (Michael W. Deem and Ramdas Pophale) SiO2 
 PCOD8303409
Probable space group: P 4/N
;
_chemical_formula_sum "Si O2"
_cell_formula_units_Z 34
_cell_length_a 14.115056
_cell_length_b 14.115056
_cell_length_c 9.046777
_cell_angle_alpha 90.000000
_cell_angle_beta 90.000000
_cell_angle_gamma 90.000000
_cell_volume 1802.432859
_symmetry_space_group_name_H-M "P 4/N"
_symmetry_group_IT_number 85
_symmetry_cell_setting 'tetragonal'
loop_
_space_group_symop_operation_xyz
x,y,z
1/2-y,x,z
1/2-x,1/2-y,z
y,1/2-x,z
-x,-y,-z
1/2+y,-x,-z
1/2+x,1/2+y,-z
-y,1/2+x,-z
loop_
_atom_site_type_symbol
_atom_site_label
_atom_site_fract_x
_atom_site_fract_y
_atom_site_fract_z
Si Si1 0.750000 0.250000 0.000000
Si Si2 0.870332 0.494789 0.911344
Si Si3 0.082678 0.661740 0.871362
Si Si4 0.866893 0.853300 0.160009
Si Si5 0.008756 0.981377 0.328586
O O1 0.805418 0.317972 0.113180
O O2 0.758879 0.473628 0.894599
O O3 0.916582 0.499938 0.750410
O O4 0.933800 0.417050 0.000243
O O5 0.879658 0.595487 0.995657
O O6 0.060577 0.612829 0.713812
O O7 0.758780 0.882575 0.181145
O O8 0.927890 0.906858 0.283847
O O9 0.000000 0.000000 0.500000
#
# Coordination Sequence:
#
# PCOD8303409 Si02
#       5
#     2   8   8   8   8
#     4   8  16  32  60  82 100 132 184 238 264 296
#     4  10  18  35  57  80 104 137 181 229 266 308
#     4   9  18  34  57  81 104 136 182 226 267 308
#     4  10  20  36  59  81 102 136 183 228 265 308
#     4  11  23  35  52  80 116 148 172 210 266 328
#
# _framework density 18.863392000000001
#
# number of rings (size 3 to 8) (size 9 to 14) (size 15 to 20)
#    0.000    2.118    0.000    5.647    0.000    3.765 
#    0.000    0.000    0.000    4.235    0.000    0.000 
#    0.000    0.000    0.000    0.000    0.000    0.000 
#
# Total GULP energy -421344.434093 kJ/mol
# GULP energy per Si atom -12392.483356 kJ/mol
# Density = 1.882046 g / cm^3
# Si number density = 18.863392 Si / 1000 Ang^3
#
#
#
# Elastic Constant Matrix: (Units=GPa)
#
#
# Indices 1 2 3 4 5 6 
#
# 1 112.4260 57.6024 59.7035 0.0000 0.0000 -8.9937
# 2 57.6024 112.4260 59.7035 0.0000 0.0000 8.9937
# 3 59.7035 59.7035 160.8259 0.0000 0.0000 0.0000
# 4 0.0000 0.0000 0.0000 17.8970 0.0000 0.0000
# 5 0.0000 0.0000 0.0000 0.0000 17.8970 0.0000
# 6 -8.9937 8.9937 0.0000 0.0000 0.0000 24.9076
#
#
#
# Elastic Compliance Matrix: (Units=1/GPa)
#
#
# Indices 1 2 3 4 5 6 
#
# 1 0.014324 -0.006368 -0.002953 0.000000 0.000000 0.007471
# 2 -0.006368 0.014324 -0.002953 0.000000 0.000000 -0.007471
# 3 -0.002953 -0.002953 0.008411 0.000000 0.000000 0.000000
# 4 0.000000 0.000000 0.000000 0.055875 0.000000 0.000000
# 5 0.000000 0.000000 0.000000 0.000000 0.055875 0.000000
# 6 0.007471 -0.007471 0.000000 0.000000 0.000000 0.045544
#
#
# Mechanical properties :
#
#
# Convention : Reuss Voigt Hill
#
# Bulk Modulus (GPa) = 79.94722 82.18851 81.06787
# Shear Modulus (GPa) = 22.41442 26.05157 24.23300
#
# Velocity S-wave (km/s) = 3.45084 3.72030 3.58810
# Velocity P-wave (km/s) = 7.63884 7.88157 7.76116
#
# Compressibility (1/GPa) = 0.01250825
#
# Stress axis : x y z
#
# Youngs Moduli (GPa) = 69.81524 69.81524 118.89755
#
# Poissons Ratio (x) = 0.44459 0.35114
# Poissons Ratio (y) = 0.44459 0.35114
# Poissons Ratio (z) = 0.20618 0.20618
#
# Static dielectric constant tensor:
#      x y z
#    x 3.689270 0.000000 0.000000 
#    y 0.000000 3.689270 0.000000 
#    z 0.000000 0.000000 3.032480 
# 
# 
# High freq. dielectric constant tensor:
#      x y z
#    x 1.752770 0.000000 0.000000 
#    y 0.000000 1.752770 0.000000 
#    z 0.000000 0.000000 1.685310 
# 
# From -- ./inp_files/817.got.cif
#   From: 2010.03.12/outbox.cif.g09.slc.cpg/sg85_cif.got.tgz:817.got - 2010.04.08 20:10:46.
