data_PCOD8303469
_publ_section_title
;
Structure prediction by ZEFSAII (Michael W. Deem and Ramdas Pophale) SiO2 
 PCOD8303469
Probable space group: P 4/N
;
_chemical_formula_sum "Si O2"
_cell_formula_units_Z 40
_cell_length_a 15.373158
_cell_length_b 15.373158
_cell_length_c 7.392703
_cell_angle_alpha 90.000000
_cell_angle_beta 90.000000
_cell_angle_gamma 90.000000
_cell_volume 1747.146974
_symmetry_space_group_name_H-M "P 4/N"
_symmetry_group_IT_number 85
_symmetry_cell_setting 'tetragonal'
loop_
_space_group_symop_operation_xyz
x,y,z
1/2-y,x,z
1/2-x,1/2-y,z
y,1/2-x,z
-x,-y,-z
1/2+y,-x,-z
1/2+x,1/2+y,-z
-y,1/2+x,-z
loop_
_atom_site_type_symbol
_atom_site_label
_atom_site_fract_x
_atom_site_fract_y
_atom_site_fract_z
Si Si1 0.114787 0.266404 0.312035
Si Si2 0.652733 0.339787 0.248392
Si Si3 0.672877 0.425467 0.605494
Si Si4 0.321997 0.923833 0.876244
Si Si5 0.614213 0.736059 0.113040
O O1 0.154442 0.175389 0.383532
O O2 0.019991 0.285244 0.386748
O O3 0.113468 0.253009 0.099146
O O4 0.636654 0.412609 0.402741
O O5 0.644673 0.247959 0.350314
O O6 0.747324 0.352035 0.158379
O O7 0.580559 0.348616 0.088188
O O8 0.596778 0.407017 0.752992
O O9 0.283071 0.017080 0.819435
O O10 0.673551 0.655749 0.185032
#
# Coordination Sequence:
#
# PCOD8303469 Si02
#       5
#     8   8   8   8   8
#     4   9  19  42  72  97 133 183 232 282 342 405
#     4  12  24  38  65  97 135 177 223 267 340 406
#     4  12  24  41  66 102 137 176 223 279 336 409
#     4  12  23  40  67 100 135 179 220 277 342 405
#     4   9  19  41  71  98 132 181 234 282 340 408
#
# _framework density 22.894469000000001
#
# number of rings (size 3 to 8) (size 9 to 14) (size 15 to 20)
#    0.000    1.200    6.000    1.800    0.000    0.000 
#    3.600    6.000    0.000    7.200    0.000    5.600 
#    0.000    0.000    0.000    0.000    0.000    0.000 
#
# Total GULP energy -495670.402526 kJ/mol
# GULP energy per Si atom -12391.760063 kJ/mol
# Density = 2.284236 g / cm^3
# Si number density = 22.894469 Si / 1000 Ang^3
#
#
#
# Elastic Constant Matrix: (Units=GPa)
#
#
# Indices 1 2 3 4 5 6 
#
# 1 135.5737 71.6506 33.4467 0.0000 0.0000 -1.4671
# 2 71.6506 135.5737 33.4467 0.0000 0.0000 1.4671
# 3 33.4467 33.4467 108.6250 0.0000 0.0000 0.0000
# 4 0.0000 0.0000 0.0000 9.3277 0.0000 0.0000
# 5 0.0000 0.0000 0.0000 0.0000 9.3277 0.0000
# 6 -1.4671 1.4671 0.0000 0.0000 0.0000 22.4123
#
#
#
# Elastic Compliance Matrix: (Units=1/GPa)
#
#
# Indices 1 2 3 4 5 6 
#
# 1 0.010525 -0.005166 -0.001650 0.000000 0.000000 0.001027
# 2 -0.005166 0.010525 -0.001650 0.000000 0.000000 -0.001027
# 3 -0.001650 -0.001650 0.010222 0.000000 0.000000 0.000000
# 4 0.000000 0.000000 0.000000 0.107207 0.000000 0.000000
# 5 0.000000 0.000000 0.000000 0.000000 0.107207 0.000000
# 6 0.001027 -0.001027 0.000000 0.000000 0.000000 0.044753
#
#
# Mechanical properties :
#
#
# Convention : Reuss Voigt Hill
#
# Bulk Modulus (GPa) = 69.73944 72.98451 71.36197
# Shear Modulus (GPa) = 16.01793 24.29546 20.15670
#
# Velocity S-wave (km/s) = 2.64794 3.26113 2.97040
# Velocity P-wave (km/s) = 6.31476 6.79175 6.55759
#
# Compressibility (1/GPa) = 0.01433909
#
# Stress axis : x y z
#
# Youngs Moduli (GPa) = 95.01543 95.01543 97.82823
#
# Poissons Ratio (x) = 0.49088 0.16140
# Poissons Ratio (y) = 0.49088 0.16140
# Poissons Ratio (z) = 0.15676 0.15676
#
# Static dielectric constant tensor:
#      x y z
#    x 4.132970 0.000000 0.000000 
#    y 0.000000 4.132970 0.000000 
#    z 0.000000 0.000000 4.213510 
# 
# 
# High freq. dielectric constant tensor:
#      x y z
#    x 1.889140 0.000000 0.000000 
#    y 0.000000 1.889140 0.000000 
#    z 0.000000 0.000000 1.907840 
# 
# From -- ./inp_files/935.got.cif
#   From: 2010.03.12/outbox.cif.g09.slc.cpg/sg85_cif.got.tgz:935.got - 2010.04.08 20:10:46.
