data_PCOD8303478
_publ_section_title
;
Structure prediction by ZEFSAII (Michael W. Deem and Ramdas Pophale) SiO2 
 PCOD8303478
Probable space group: P 42/N
;
_chemical_formula_sum "Si O2"
_cell_formula_units_Z 48
_cell_length_a 22.721302
_cell_length_b 22.721302
_cell_length_c 5.335579
_cell_angle_alpha 90.000000
_cell_angle_beta 90.000000
_cell_angle_gamma 90.000000
_cell_volume 2754.533020
_symmetry_space_group_name_H-M "P 42/N"
_symmetry_group_IT_number 86
_space_group.IT_coordinate_system_code '2'
_symmetry_cell_setting 'tetragonal'
loop_
_space_group_symop_operation_xyz
x,y,z
-y,1/2+x,1/2+z
1/2-x,1/2-y,z
1/2+y,-x,1/2+z
-x,-y,-z
y,1/2-x,1/2-z
1/2+x,1/2+y,-z
1/2-y,x,1/2-z
loop_
_atom_site_type_symbol
_atom_site_label
_atom_site_fract_x
_atom_site_fract_y
_atom_site_fract_z
Si Si1 0.579282 0.326649 0.749998
Si Si2 0.460657 0.403843 0.749999
Si Si3 0.452875 0.731517 0.750001
Si Si4 0.866576 0.056984 0.749997
Si Si5 0.063445 0.965844 0.750004
Si Si6 0.537758 0.632120 0.750001
O O1 0.522148 0.368909 0.749996
O O2 0.582454 0.286493 0.501637
O O3 0.634279 0.371489 0.749999
O O4 0.582453 0.286493 0.998360
O O5 0.474168 0.473356 0.750000
O O6 0.425033 0.383563 0.500192
O O7 0.425033 0.383562 0.999804
O O8 0.465978 0.800145 0.750001
O O9 0.516665 0.699481 0.750000
O O10 0.896718 0.033029 0.497789
O O11 0.896719 0.033028 0.002201
O O12 0.020697 0.909850 0.750004
#
# Coordination Sequence:
#
# PCOD8303478 Si02
#       6
#     8   8   8   8   8   8
#     4  10  19  35  47  67  86 123 158 181 234 274
#     4  10  18  28  49  68  98 110 141 193 220 280
#     4  10  20  33  47  62  90 121 156 191 227 279
#     4  12  21  31  49  68  90 118 157 199 229 267
#     4  12  19  30  47  76  90 112 148 197 228 267
#     4  10  17  31  45  66  90 123 147 172 229 284
#
# _framework density 17.425820999999999
#
# number of rings (size 3 to 8) (size 9 to 14) (size 15 to 20)
#    0.000    1.333    6.667    3.000    0.000    0.000 
#    0.000    0.000    0.000    3.000    0.000    0.000 
#    0.000    0.000    0.000    0.000    0.000  933.333 
#
# Total GULP energy -594714.619818 kJ/mol
# GULP energy per Si atom -12389.887913 kJ/mol
# Density = 1.738616 g / cm^3
# Si number density = 17.425821 Si / 1000 Ang^3
#
#
#
# Elastic Constant Matrix: (Units=GPa)
#
#
# Indices 1 2 3 4 5 6 
#
# 1 49.5737 13.3876 23.4615 0.0000 0.0000 10.5542
# 2 13.3876 49.5737 23.4615 0.0000 0.0000 -10.5542
# 3 23.4615 23.4615 197.7036 0.0000 0.0000 0.0000
# 4 0.0000 0.0000 0.0000 11.7651 0.0000 0.0000
# 5 0.0000 0.0000 0.0000 0.0000 11.7651 0.0000
# 6 10.5542 -10.5542 0.0000 0.0000 0.0000 9.6007
#
#
#
# Elastic Compliance Matrix: (Units=1/GPa)
#
#
# Indices 1 2 3 4 5 6 
#
# 1 0.047229 -0.029805 -0.002068 0.000000 0.000000 -0.084685
# 2 -0.029805 0.047229 -0.002068 0.000000 0.000000 0.084685
# 3 -0.002068 -0.002068 0.005549 0.000000 0.000000 0.000000
# 4 0.000000 0.000000 0.000000 0.084997 0.000000 0.000000
# 5 0.000000 0.000000 0.000000 0.000000 0.084997 0.000000
# 6 -0.084685 0.084685 0.000000 0.000000 0.000000 0.290352
#
#
# Mechanical properties :
#
#
# Convention : Reuss Voigt Hill
#
# Bulk Modulus (GPa) = 31.12780 46.38577 38.75679
# Shear Modulus (GPa) = 7.82542 22.39553 15.11047
#
# Velocity S-wave (km/s) = 2.12143 3.58885 2.94790
# Velocity P-wave (km/s) = 4.88901 6.62192 5.82032
#
# Compressibility (1/GPa) = 0.03212563
#
# Stress axis : x y z
#
# Youngs Moduli (GPa) = 21.17339 21.17339 180.21859
#
# Poissons Ratio (x) = 0.63108 0.37263
# Poissons Ratio (y) = 0.63108 0.37263
# Poissons Ratio (z) = 0.04378 0.04378
#
# Static dielectric constant tensor:
#      x y z
#    x 2.867390 0.000000 0.000000 
#    y 0.000000 2.867390 0.000000 
#    z 0.000000 0.000000 5.087000 
# 
# 
# High freq. dielectric constant tensor:
#      x y z
#    x 1.621050 0.000000 0.000000 
#    y 0.000000 1.621050 0.000000 
#    z 0.000000 0.000000 1.728740 
# 
# From -- ./inp_files/410.got.cif
#   From: 2010.03.12/outbox.cif.g09.slc.cpg/sg86_1_cif.got.tgz:410.got - 2010.04.08 20:12:58.
