data_PCOD8303200
_publ_section_title
;
Structure prediction by ZEFSAII (Michael W. Deem and Ramdas Pophale) SiO2 
 PCOD8303200
Probable space group: P 42/M
;
_chemical_formula_sum "Si O2"
_cell_formula_units_Z 40
_cell_length_a 15.633724
_cell_length_b 15.633724
_cell_length_c 8.681904
_cell_angle_alpha 90.000000
_cell_angle_beta 90.000000
_cell_angle_gamma 90.000000
_cell_volume 2121.973034
_symmetry_space_group_name_H-M "P 42/M"
_symmetry_group_IT_number 84
_symmetry_cell_setting 'tetragonal'
loop_
_space_group_symop_operation_xyz
x,y,z
-y,x,1/2+z
-x,-y,z
y,-x,1/2+z
-x,-y,-z
y,-x,1/2-z
x,y,-z
-y,x,1/2-z
loop_
_atom_site_type_symbol
_atom_site_label
_atom_site_fract_x
_atom_site_fract_y
_atom_site_fract_z
Si Si1 0.377407 0.531546 0.320337
Si Si2 0.432361 0.924627 0.669335
Si Si3 0.301867 0.060472 0.318816
Si Si4 0.877349 0.964162 0.819097
Si Si5 0.184175 0.563402 0.322037
O O1 0.444513 0.604594 0.272750
O O2 0.386409 0.510956 0.500000
O O3 0.283636 0.565433 0.279226
O O4 0.418419 0.883435 0.500000
O O5 0.468302 0.852569 0.784426
O O6 0.500000 0.000000 0.655168
O O7 0.344655 0.969018 0.728574
O O8 0.283114 0.062937 0.500000
O O9 0.215276 0.071804 0.223974
O O10 0.364030 0.139058 0.278813
O O11 0.947000 0.893856 0.769223
O O12 0.884419 0.980112 0.000000
O O13 0.167379 0.583082 0.500000
#
# Coordination Sequence:
#
# PCOD8303200 Si02
#       5
#     8   8   8   8   8
#     4  10  21  37  57  79 106 144 185 226 275 330
#     4   8  16  31  52  77 107 144 179 216 270 327
#     4  10  20  36  57  83 113 147 185 227 276 327
#     4  11  22  39  61  83 111 148 187 227 275 328
#     4  10  20  34  54  83 113 143 183 230 278 330
#
# _framework density 18.850379
#
# number of rings (size 3 to 8) (size 9 to 14) (size 15 to 20)
#    0.000    2.200    0.000    6.000    0.000    7.600 
#    3.600    0.000    0.000    0.000    0.000    0.000 
#    0.000    0.000    0.000    0.000    0.000    0.000 
#
# Total GULP energy -495963.922877 kJ/mol
# GULP energy per Si atom -12399.098072 kJ/mol
# Density = 1.880747 g / cm^3
# Si number density = 18.850379 Si / 1000 Ang^3
#
#
#
# Elastic Constant Matrix: (Units=GPa)
#
#
# Indices 1 2 3 4 5 6 
#
# 1 92.7008 31.2066 29.0187 0.0000 0.0000 -0.5177
# 2 31.2066 92.7008 29.0187 0.0000 0.0000 0.5177
# 3 29.0187 29.0187 74.4020 0.0000 0.0000 0.0000
# 4 0.0000 0.0000 0.0000 23.4519 0.0000 0.0000
# 5 0.0000 0.0000 0.0000 0.0000 23.4519 0.0000
# 6 -0.5177 0.5177 0.0000 0.0000 0.0000 13.8143
#
#
#
# Elastic Compliance Matrix: (Units=1/GPa)
#
#
# Indices 1 2 3 4 5 6 
#
# 1 0.013073 -0.003199 -0.003851 0.000000 0.000000 0.000610
# 2 -0.003199 0.013073 -0.003851 0.000000 0.000000 -0.000610
# 3 -0.003851 -0.003851 0.016445 0.000000 0.000000 0.000000
# 4 0.000000 0.000000 0.000000 0.042640 0.000000 0.000000
# 5 0.000000 0.000000 0.000000 0.000000 0.042640 0.000000
# 6 0.000610 -0.000610 0.000000 0.000000 0.000000 0.072435
#
#
# Mechanical properties :
#
#
# Convention : Reuss Voigt Hill
#
# Bulk Modulus (GPa) = 48.10364 48.69908 48.40136
# Shear Modulus (GPa) = 21.83038 23.51427 22.67233
#
# Velocity S-wave (km/s) = 3.40676 3.53571 3.47183
# Velocity P-wave (km/s) = 6.40693 6.52372 6.46559
#
# Compressibility (1/GPa) = 0.02078845
#
# Stress axis : x y z
#
# Youngs Moduli (GPa) = 76.49231 76.49231 60.80977
#
# Poissons Ratio (x) = 0.24468 0.23420
# Poissons Ratio (y) = 0.24468 0.23420
# Poissons Ratio (z) = 0.29460 0.29460
#
# Static dielectric constant tensor:
#      x y z
#    x 3.469810 0.000000 0.000000 
#    y 0.000000 3.469810 0.000000 
#    z 0.000000 0.000000 3.524970 
# 
# 
# High freq. dielectric constant tensor:
#      x y z
#    x 1.721890 0.000000 0.000000 
#    y 0.000000 1.721890 0.000000 
#    z 0.000000 0.000000 1.742530 
# 
# From -- ./inp_files/792.got.cif
#   From: 2010.03.12/outbox.cif.g09.slc.cpg/sg84_1_cif.got.tgz:792.got - 2010.04.08 20:07:29.
