data_PCOD8303767
_publ_section_title
;
Structure prediction by ZEFSAII (Michael W. Deem and Ramdas Pophale) SiO2 
 PCOD8303767
Probable space group: I 4/M
;
_chemical_formula_sum "Si O2"
_cell_formula_units_Z 96
_cell_length_a 23.721347
_cell_length_b 23.721347
_cell_length_c 9.108816
_cell_angle_alpha 90.000000
_cell_angle_beta 90.000000
_cell_angle_gamma 90.000000
_cell_volume 5125.551745
_symmetry_space_group_name_H-M "I 4/M"
_symmetry_group_IT_number 87
_symmetry_cell_setting 'tetragonal'
loop_
_space_group_symop_operation_xyz
x,y,z
-y,x,z
-x,-y,z
y,-x,z
-x,-y,-z
y,-x,-z
x,y,-z
-y,x,-z
1/2+x,1/2+y,1/2+z
1/2-y,1/2+x,1/2+z
1/2-x,1/2-y,1/2+z
1/2+y,1/2-x,1/2+z
1/2-x,1/2-y,1/2-z
1/2+y,1/2-x,1/2-z
1/2+x,1/2+y,1/2-z
1/2-y,1/2+x,1/2-z
loop_
_atom_site_type_symbol
_atom_site_label
_atom_site_fract_x
_atom_site_fract_y
_atom_site_fract_z
Si Si1 0.841547 0.945131 0.830479
Si Si2 0.651209 0.426936 0.330104
Si Si3 0.727081 0.952537 0.673956
Si Si4 0.358790 0.860113 0.835423
Si Si5 0.537480 0.934046 0.663792
Si Si6 0.919352 0.734114 0.326460
O O1 0.890774 0.902792 0.782229
O O2 0.786377 0.931461 0.736363
O O3 0.863939 0.008006 0.799318
O O4 0.825217 0.937259 0.000000
O O5 0.667010 0.417386 0.500000
O O6 0.703581 0.407271 0.232555
O O7 0.729025 0.950465 0.500000
O O8 0.680393 0.907487 0.731520
O O9 0.714641 0.017269 0.724790
O O10 0.379928 0.924021 0.840573
O O11 0.304010 0.867358 0.733525
O O12 0.342021 0.840085 0.000000
O O13 0.514841 0.947353 0.500000
O O14 0.486648 0.925007 0.777733
O O15 0.915174 0.733985 0.500000
#
# Coordination Sequence:
#
# PCOD8303767 Si02
#       6
#    16  16  16  16  16  16
#     4   9  18  33  55  81 107 135 165 200 245 299
#     4   9  18  34  55  80 109 136 164 200 245 299
#     4   9  19  35  52  72 102 136 170 212 258 300
#     4  10  20  33  49  69  95 131 172 213 256 300
#     4  10  19  30  44  64  92 124 161 208 262 311
#     4  10  20  34  53  76 102 134 172 213 256 302
#
# _framework density 18.729690999999999
#
# number of rings (size 3 to 8) (size 9 to 14) (size 15 to 20)
#    0.000    2.500    0.000    2.500    0.000    5.000 
#    0.000    2.500    0.000    0.000    0.000    4.667 
#    0.000    0.000    0.000    0.000    0.000    0.000 
#
# Total GULP energy -594905.428090 kJ/mol
# GULP energy per Si atom -12393.863085 kJ/mol
# Density = 1.868706 g / cm^3
# Si number density = 18.729691 Si / 1000 Ang^3
#
#
#
# Elastic Constant Matrix: (Units=GPa)
#
#
# Indices 1 2 3 4 5 6 
#
# 1 81.3681 56.2457 27.1483 0.0000 0.0000 -0.5645
# 2 56.2457 81.3681 27.1483 0.0000 0.0000 0.5645
# 3 27.1483 27.1483 50.0510 0.0000 0.0000 0.0000
# 4 0.0000 0.0000 0.0000 23.9420 0.0000 0.0000
# 5 0.0000 0.0000 0.0000 0.0000 23.9420 0.0000
# 6 -0.5645 0.5645 0.0000 0.0000 0.0000 36.8947
#
#
#
# Elastic Compliance Matrix: (Units=1/GPa)
#
#
# Indices 1 2 3 4 5 6 
#
# 1 0.024539 -0.015294 -0.005015 0.000000 0.000000 0.000609
# 2 -0.015294 0.024539 -0.005015 0.000000 0.000000 -0.000609
# 3 -0.005015 -0.005015 0.025420 0.000000 0.000000 0.000000
# 4 0.000000 0.000000 0.000000 0.041768 0.000000 0.000000
# 5 0.000000 0.000000 0.000000 0.000000 0.041768 0.000000
# 6 0.000609 -0.000609 0.000000 0.000000 0.000000 0.027123
#
#
# Mechanical properties :
#
#
# Convention : Reuss Voigt Hill
#
# Bulk Modulus (GPa) = 41.92642 48.20798 45.06720
# Shear Modulus (GPa) = 20.51261 23.77206 22.14234
#
# Velocity S-wave (km/s) = 3.31296 3.56647 3.44205
# Velocity P-wave (km/s) = 6.08834 6.53868 6.31752
#
# Compressibility (1/GPa) = 0.02385131
#
# Stress axis : x y z
#
# Youngs Moduli (GPa) = 40.75160 40.75160 39.33945
#
# Poissons Ratio (x) = 0.62324 0.19728
# Poissons Ratio (y) = 0.62324 0.19728
# Poissons Ratio (z) = 0.20436 0.20436
#
# Static dielectric constant tensor:
#      x y z
#    x 3.378540 0.000000 0.000000 
#    y 0.000000 3.378540 0.000000 
#    z 0.000000 0.000000 3.428650 
# 
# 
# High freq. dielectric constant tensor:
#      x y z
#    x 1.715960 0.000000 0.000000 
#    y 0.000000 1.715960 0.000000 
#    z 0.000000 0.000000 1.723400 
# 
# From -- ./inp_files/1357.got.cif
#   From: 2010.03.12/outbox.cif.g09.slc.cpg/sg87_1_cif.got.tgz:1357.got - 2010.04.08 20:16:13.
