data_PCOD8303812
_publ_section_title
;
Structure prediction by ZEFSAII (Michael W. Deem and Ramdas Pophale) SiO2 
 PCOD8303812
Probable space group: I 4/M
;
_chemical_formula_sum "Si O2"
_cell_formula_units_Z 96
_cell_length_a 24.003691
_cell_length_b 24.003691
_cell_length_c 8.883393
_cell_angle_alpha 90.000000
_cell_angle_beta 90.000000
_cell_angle_gamma 90.000000
_cell_volume 5118.408342
_symmetry_space_group_name_H-M "I 4/M"
_symmetry_group_IT_number 87
_symmetry_cell_setting 'tetragonal'
loop_
_space_group_symop_operation_xyz
x,y,z
-y,x,z
-x,-y,z
y,-x,z
-x,-y,-z
y,-x,-z
x,y,-z
-y,x,-z
1/2+x,1/2+y,1/2+z
1/2-y,1/2+x,1/2+z
1/2-x,1/2-y,1/2+z
1/2+y,1/2-x,1/2+z
1/2-x,1/2-y,1/2-z
1/2+y,1/2-x,1/2-z
1/2+x,1/2+y,1/2-z
1/2-y,1/2+x,1/2-z
loop_
_atom_site_type_symbol
_atom_site_label
_atom_site_fract_x
_atom_site_fract_y
_atom_site_fract_z
Si Si1 0.143215 0.053009 0.821817
Si Si2 0.437576 0.359675 0.178787
Si Si3 0.946933 0.557519 0.827630
Si Si4 0.770443 0.550805 0.674450
Si Si5 0.937586 0.733703 0.327191
Si Si6 0.366729 0.132505 0.827267
O O1 0.109761 0.105004 0.758904
O O2 0.207394 0.063671 0.776478
O O3 0.120781 0.997469 0.740596
O O4 0.134850 0.047205 0.000000
O O5 0.426128 0.296101 0.230950
O O6 0.435036 0.367919 0.000000
O O7 0.925811 0.509436 0.715644
O O8 0.908508 0.609396 0.796680
O O9 0.943806 0.538247 0.000000
O O10 0.774458 0.538073 0.500000
O O11 0.792297 0.493425 0.750605
O O12 0.806100 0.607031 0.714600
O O13 0.954381 0.735802 0.500000
O O14 0.879596 0.698577 0.304434
O O15 0.381318 0.116312 0.000000
#
# Coordination Sequence:
#
# PCOD8303812 Si02
#       6
#    16  16  16  16  16  16
#     4  10  20  36  57  82 109 139 171 209 255 309
#     4  10  20  36  57  82 109 139 171 209 255 309
#     4  11  21  32  45  65  93 127 167 217 271 319
#     4   9  19  34  53  75 104 139 176 216 262 309
#     4   9  19  34  53  75 104 139 176 216 262 309
#     4  10  19  33  51  73 100 135 176 217 258 306
#
# _framework density 18.755832000000002
#
# number of rings (size 3 to 8) (size 9 to 14) (size 15 to 20)
#    0.000    2.167    0.000    4.000    0.000    5.667 
#    0.000    2.500    0.000    0.000    0.000    0.000 
#    0.000    0.000    0.000    0.000    0.000    0.000 
#
# Total GULP energy -594793.377999 kJ/mol
# GULP energy per Si atom -12391.528708 kJ/mol
# Density = 1.871314 g / cm^3
# Si number density = 18.755832 Si / 1000 Ang^3
#
#
#
# Elastic Constant Matrix: (Units=GPa)
#
#
# Indices 1 2 3 4 5 6 
#
# 1 97.5461 44.4613 20.3036 0.0000 0.0000 -2.2625
# 2 44.4613 97.5461 20.3036 0.0000 0.0000 2.2625
# 3 20.3036 20.3036 55.6447 0.0000 0.0000 0.0000
# 4 0.0000 0.0000 0.0000 26.3378 0.0000 0.0000
# 5 0.0000 0.0000 0.0000 0.0000 26.3378 0.0000
# 6 -2.2625 2.2625 0.0000 0.0000 0.0000 38.2463
#
#
#
# Elastic Compliance Matrix: (Units=1/GPa)
#
#
# Indices 1 2 3 4 5 6 
#
# 1 0.013398 -0.005536 -0.002869 0.000000 0.000000 0.001120
# 2 -0.005536 0.013398 -0.002869 0.000000 0.000000 -0.001120
# 3 -0.002869 -0.002869 0.020065 0.000000 0.000000 0.000000
# 4 0.000000 0.000000 0.000000 0.037968 0.000000 0.000000
# 5 0.000000 0.000000 0.000000 0.000000 0.037968 0.000000
# 6 0.001120 -0.001120 0.000000 0.000000 0.000000 0.026279
#
#
# Mechanical properties :
#
#
# Convention : Reuss Voigt Hill
#
# Bulk Modulus (GPa) = 41.12845 46.76375 43.94610
# Shear Modulus (GPa) = 27.82008 29.22893 28.52450
#
# Velocity S-wave (km/s) = 3.85551 3.95193 3.90402
# Velocity P-wave (km/s) = 6.46498 6.76836 6.61841
#
# Compressibility (1/GPa) = 0.02431407
#
# Stress axis : x y z
#
# Youngs Moduli (GPa) = 74.63944 74.63944 49.83885
#
# Poissons Ratio (x) = 0.41317 0.14298
# Poissons Ratio (y) = 0.41317 0.14298
# Poissons Ratio (z) = 0.21412 0.21412
#
# Static dielectric constant tensor:
#      x y z
#    x 3.506550 0.000000 0.000000 
#    y 0.000000 3.506550 0.000000 
#    z 0.000000 0.000000 3.500530 
# 
# 
# High freq. dielectric constant tensor:
#      x y z
#    x 1.718310 0.000000 0.000000 
#    y 0.000000 1.718310 0.000000 
#    z 0.000000 0.000000 1.733170 
# 
# From -- ./inp_files/1391.got.cif
#   From: 2010.03.12/outbox.cif.g09.slc.cpg/sg87_1_cif.got.tgz:1391.got - 2010.04.08 20:16:13.
