data_PCOD8303697
_publ_section_title
;
Structure prediction by ZEFSAII (Michael W. Deem and Ramdas Pophale) SiO2 
 PCOD8303697
Probable space group: P 42/N
;
_chemical_formula_sum "Si O2"
_cell_formula_units_Z 38
_cell_length_a 9.020999
_cell_length_b 9.020999
_cell_length_c 21.396064
_cell_angle_alpha 90.000000
_cell_angle_beta 90.000000
_cell_angle_gamma 90.000000
_cell_volume 1741.177946
_symmetry_space_group_name_H-M "P 42/N"
_symmetry_group_IT_number 86
_space_group.IT_coordinate_system_code '2'
_symmetry_cell_setting 'tetragonal'
loop_
_space_group_symop_operation_xyz
x,y,z
-y,1/2+x,1/2+z
1/2-x,1/2-y,z
1/2+y,-x,1/2+z
-x,-y,-z
y,1/2-x,1/2-z
1/2+x,1/2+y,-z
1/2-y,x,1/2-z
loop_
_atom_site_type_symbol
_atom_site_label
_atom_site_fract_x
_atom_site_fract_y
_atom_site_fract_z
Si Si1 0.413175 0.206036 0.042407
Si Si2 0.077415 0.607929 0.383286
Si Si3 0.750000 0.250000 0.723990
Si Si4 0.819972 0.490625 0.321976
Si Si5 0.750000 0.750000 0.250000
Si Si6 0.424215 0.071488 0.912424
O O1 0.250000 0.250000 0.066899
O O2 0.540910 0.323447 0.061018
O O3 0.450511 0.047860 0.072340
O O4 0.411159 0.192594 0.967409
O O5 0.176572 0.626306 0.320666
O O6 0.952368 0.480509 0.372226
O O7 0.007348 0.765660 0.402820
O O8 0.636170 0.330609 0.770506
O O9 0.860394 0.648638 0.290176
O O10 0.656910 0.511479 0.351950
#
# Coordination Sequence:
#
# PCOD8303697 Si02
#       6
#     8   8   4   8   2   8
#     4  11  26  44  69 104 140 172 223 292 349 401
#     4  12  24  47  69  97 141 185 223 292 348 408
#     4  12  26  42  68 102 136 178 232 286 348 400
#     4  12  24  42  71  98 131 181 236 279 336 420
#     4  12  20  40  72  92 124 176 236 272 314 424
#     4  11  24  47  72 100 135 184 235 272 345 426
#
# _framework density 21.824306
#
# number of rings (size 3 to 8) (size 9 to 14) (size 15 to 20)
#    0.000    0.421    6.316    1.263    2.947    3.368 
#    3.789    0.000    0.000    0.000    0.000    0.000 
#    0.000    0.000    0.000    0.000    0.000    0.000 
#
# Total GULP energy -471059.709452 kJ/mol
# GULP energy per Si atom -12396.308143 kJ/mol
# Density = 2.177463 g / cm^3
# Si number density = 21.824306 Si / 1000 Ang^3
#
#
#
# Elastic Constant Matrix: (Units=GPa)
#
#
# Indices 1 2 3 4 5 6 
#
# 1 108.6604 50.3380 54.5460 0.0000 0.0000 -5.6323
# 2 50.3380 108.6604 54.5460 0.0000 0.0000 5.6323
# 3 54.5460 54.5460 113.1148 0.0000 0.0000 0.0000
# 4 0.0000 0.0000 0.0000 39.0711 0.0000 0.0000
# 5 0.0000 0.0000 0.0000 0.0000 39.0711 0.0000
# 6 -5.6323 5.6323 0.0000 0.0000 0.0000 33.6878
#
#
#
# Elastic Compliance Matrix: (Units=1/GPa)
#
#
# Indices 1 2 3 4 5 6 
#
# 1 0.013559 -0.004160 -0.004532 0.000000 0.000000 0.002962
# 2 -0.004160 0.013559 -0.004532 0.000000 0.000000 -0.002962
# 3 -0.004532 -0.004532 0.013212 0.000000 0.000000 0.000000
# 4 0.000000 0.000000 0.000000 0.025594 0.000000 0.000000
# 5 0.000000 0.000000 0.000000 0.000000 0.025594 0.000000
# 6 0.002962 -0.002962 0.000000 0.000000 0.000000 0.030675
#
#
# Mechanical properties :
#
#
# Convention : Reuss Voigt Hill
#
# Bulk Modulus (GPa) = 72.04412 72.14394 72.09403
# Shear Modulus (GPa) = 32.62248 33.76636 33.19442
#
# Velocity S-wave (km/s) = 3.87043 3.93770 3.90421
# Velocity P-wave (km/s) = 7.28397 7.33502 7.30954
#
# Compressibility (1/GPa) = 0.01388038
#
# Stress axis : x y z
#
# Youngs Moduli (GPa) = 73.75339 73.75339 75.68975
#
# Poissons Ratio (x) = 0.30678 0.34306
# Poissons Ratio (y) = 0.30678 0.34306
# Poissons Ratio (z) = 0.33428 0.33428
#
# Static dielectric constant tensor:
#      x y z
#    x 4.014370 0.000000 0.000000 
#    y 0.000000 4.014370 0.000000 
#    z 0.000000 0.000000 4.088260 
# 
# 
# High freq. dielectric constant tensor:
#      x y z
#    x 1.857520 0.000000 0.000000 
#    y 0.000000 1.857520 0.000000 
#    z 0.000000 0.000000 1.865320 
# 
# From -- ./inp_files/4536.got.cif
#   From: 2010.03.12/outbox.cif.g09.slc.cpg/sg86_3_cif.got.tgz:4536.got - 2010.04.08 20:12:58.
