data_PCOD8303834
_publ_section_title
;
Structure prediction by ZEFSAII (Michael W. Deem and Ramdas Pophale) SiO2 
 PCOD8303834
Probable space group: I 4/M
;
_chemical_formula_sum "Si O2"
_cell_formula_units_Z 112
_cell_length_a 14.509399
_cell_length_b 14.509399
_cell_length_c 28.491632
_cell_angle_alpha 90.000000
_cell_angle_beta 90.000000
_cell_angle_gamma 90.000000
_cell_volume 5998.134138
_symmetry_space_group_name_H-M "I 4/M"
_symmetry_group_IT_number 87
_symmetry_cell_setting 'tetragonal'
loop_
_space_group_symop_operation_xyz
x,y,z
-y,x,z
-x,-y,z
y,-x,z
-x,-y,-z
y,-x,-z
x,y,-z
-y,x,-z
1/2+x,1/2+y,1/2+z
1/2-y,1/2+x,1/2+z
1/2-x,1/2-y,1/2+z
1/2+y,1/2-x,1/2+z
1/2-x,1/2-y,1/2-z
1/2+y,1/2-x,1/2-z
1/2+x,1/2+y,1/2-z
1/2-y,1/2+x,1/2-z
loop_
_atom_site_type_symbol
_atom_site_label
_atom_site_fract_x
_atom_site_fract_y
_atom_site_fract_z
Si Si1 0.000000 0.154640 0.500000
Si Si2 0.602130 0.897870 0.750000
Si Si3 0.687999 0.160139 0.658830
Si Si4 0.696568 1.000000 0.125309
Si Si5 0.647104 0.500000 0.554948
Si Si6 0.500000 0.000000 0.415672
Si Si7 0.312001 0.160139 0.658830
Si Si8 0.699465 0.000000 0.416322
O O1 0.000000 0.218684 0.453956
O O2 0.908649 0.091351 0.500000
O O3 0.500000 0.886668 0.727597
O O4 0.611017 0.821788 0.790817
O O5 0.678212 0.888983 0.709183
O O6 0.594761 0.220937 0.652038
O O7 0.775051 0.224949 0.660918
O O8 0.706186 0.089678 0.616350
O O9 0.751942 1.000000 0.076683
O O10 0.720937 0.094761 0.152038
O O11 0.587126 0.000000 0.118425
O O12 0.590547 0.590547 0.570639
O O13 0.662096 0.500000 0.500000
O O14 0.401482 1.000000 0.443367
O O15 0.293814 0.089678 0.616350
#
# Coordination Sequence:
#
# PCOD8303834 Si02
#       8
#     8  16  16  16  16   8  16  16
#     4  11  24  43  64  84 116 163 210 251 292 350
#     4  11  21  36  62  84 115 153 186 238 298 361
#     4  11  21  36  59  86 116 149 189 240 292 347
#     4  10  19  35  53  82 109 141 180 227 278 330
#     4   9  18  34  54  75 105 145 182 213 253 320
#     4   8  20  35  56  77 112 142 176 233 294 339
#     4  11  21  36  59  86 116 149 189 240 292 347
#     4  10  21  40  60  89 117 153 198 245 300 351
#
# _framework density 18.672473
#
# number of rings (size 3 to 8) (size 9 to 14) (size 15 to 20)
#    0.000    1.786    2.857    2.571    0.000    0.286 
#   10.286    0.000    0.000    0.000    0.000    2.000 
#    0.000    0.000    0.000    0.000    0.000    0.000 
#
# Total GULP energy -693952.915348 kJ/mol
# GULP energy per Si atom -12392.016346 kJ/mol
# Density = 1.862997 g / cm^3
# Si number density = 18.672473 Si / 1000 Ang^3
#
#
#
# Elastic Constant Matrix: (Units=GPa)
#
#
# Indices 1 2 3 4 5 6 
#
# 1 117.8094 56.1843 47.9738 0.0000 0.0000 0.0000
# 2 56.1843 117.8094 47.9738 0.0000 0.0000 0.0000
# 3 47.9738 47.9738 98.4740 0.0000 0.0000 0.0000
# 4 0.0000 0.0000 0.0000 28.5826 0.0000 0.0000
# 5 0.0000 0.0000 0.0000 0.0000 28.5826 0.0000
# 6 0.0000 0.0000 0.0000 0.0000 0.0000 24.0536
#
#
#
# Elastic Compliance Matrix: (Units=1/GPa)
#
#
# Indices 1 2 3 4 5 6 
#
# 1 0.012043 -0.004184 -0.003828 0.000000 0.000000 0.000000
# 2 -0.004184 0.012043 -0.003828 0.000000 0.000000 0.000000
# 3 -0.003828 -0.003828 0.013885 0.000000 0.000000 0.000000
# 4 0.000000 0.000000 0.000000 0.034986 0.000000 0.000000
# 5 0.000000 0.000000 0.000000 0.000000 0.034986 0.000000
# 6 0.000000 0.000000 0.000000 0.000000 0.000000 0.041574
#
#
# Mechanical properties :
#
#
# Convention : Reuss Voigt Hill
#
# Bulk Modulus (GPa) = 69.98678 70.92852 70.45765
# Shear Modulus (GPa) = 28.09579 28.37448 28.23513
#
# Velocity S-wave (km/s) = 3.88321 3.90242 3.89283
# Velocity P-wave (km/s) = 7.59397 7.64024 7.61714
#
# Compressibility (1/GPa) = 0.01428841
#
# Stress axis : x y z
#
# Youngs Moduli (GPa) = 83.03700 83.03700 72.01921
#
# Poissons Ratio (x) = 0.34745 0.27572
# Poissons Ratio (y) = 0.34745 0.27572
# Poissons Ratio (z) = 0.31790 0.31790
#
# Static dielectric constant tensor:
#      x y z
#    x 3.561730 0.000000 0.000000 
#    y 0.000000 3.561730 0.000000 
#    z 0.000000 0.000000 3.178860 
# 
# 
# High freq. dielectric constant tensor:
#      x y z
#    x 1.726120 0.000000 0.000000 
#    y 0.000000 1.726120 0.000000 
#    z 0.000000 0.000000 1.713670 
# 
# From -- ./inp_files/6316.got.cif
#   From: 2010.03.12/outbox.cif.g09.slc.cpg/sg87_4_cif.got.tgz:6316.got - 2010.04.08 20:16:13.
