data_PCOD8303158
_publ_section_title
;
Structure prediction by ZEFSAII (Michael W. Deem and Ramdas Pophale) SiO2 
 PCOD8303158
Probable space group: P 42/M
;
_chemical_formula_sum "Si O2"
_cell_formula_units_Z 40
_cell_length_a 9.771728
_cell_length_b 9.771728
_cell_length_c 23.035110
_cell_angle_alpha 90.000000
_cell_angle_beta 90.000000
_cell_angle_gamma 90.000000
_cell_volume 2199.545903
_symmetry_space_group_name_H-M "P 42/M"
_symmetry_group_IT_number 84
_symmetry_cell_setting 'tetragonal'
loop_
_space_group_symop_operation_xyz
x,y,z
-y,x,1/2+z
-x,-y,z
y,-x,1/2+z
-x,-y,-z
y,-x,1/2-z
x,y,-z
-y,x,1/2-z
loop_
_atom_site_type_symbol
_atom_site_label
_atom_site_fract_x
_atom_site_fract_y
_atom_site_fract_z
Si Si1 0.001665 0.339242 0.067840
Si Si2 0.160865 0.502536 0.436382
Si Si3 0.170656 0.228929 0.376732
Si Si4 0.170554 0.140057 0.748210
Si Si5 0.846935 0.226402 0.373699
O O1 0.857564 0.267259 0.080782
O O2 0.000000 0.500000 0.085952
O O3 0.106027 0.251876 0.106254
O O4 0.037436 0.324900 0.000000
O O5 0.229389 0.486822 0.500000
O O6 0.205945 0.383031 0.393650
O O7 0.207151 0.644423 0.408847
O O8 0.000000 0.500000 0.443662
O O9 0.217684 0.218282 0.309613
O O10 0.008672 0.190880 0.384513
O O11 0.260328 0.174273 0.805182
O O12 0.018659 0.181078 0.767545
#
# Coordination Sequence:
#
# PCOD8303158 Si02
#       5
#     8   8   8   8   8
#     4  11  23  37  53  81 113 143 186 231 278 331
#     4   9  18  32  53  83 111 137 182 229 269 325
#     4  10  19  35  56  82 110 145 182 227 275 328
#     4   9  16  30  52  80 113 136 178 227 268 324
#     4  10  19  35  56  82 110 145 182 227 275 328
#
# _framework density 18.185573999999999
#
# number of rings (size 3 to 8) (size 9 to 14) (size 15 to 20)
#    0.000    2.200    2.000    1.800    0.000    3.200 
#    3.600    1.000    0.000    3.600    0.000    0.000 
#    0.000    0.000    0.000    0.000    0.000    0.000 
#
# Total GULP energy -495750.010460 kJ/mol
# GULP energy per Si atom -12393.750261 kJ/mol
# Density = 1.814418 g / cm^3
# Si number density = 18.185574 Si / 1000 Ang^3
#
#
#
# Elastic Constant Matrix: (Units=GPa)
#
#
# Indices 1 2 3 4 5 6 
#
# 1 65.0487 16.3533 21.7232 0.0000 0.0000 0.6614
# 2 16.3533 65.0487 21.7232 0.0000 0.0000 -0.6614
# 3 21.7232 21.7232 117.7428 0.0000 0.0000 0.0000
# 4 0.0000 0.0000 0.0000 15.8027 0.0000 0.0000
# 5 0.0000 0.0000 0.0000 0.0000 15.8027 0.0000
# 6 0.6614 -0.6614 0.0000 0.0000 0.0000 8.0327
#
#
#
# Elastic Compliance Matrix: (Units=1/GPa)
#
#
# Indices 1 2 3 4 5 6 
#
# 1 0.017104 -0.003478 -0.002514 0.000000 0.000000 -0.001695
# 2 -0.003478 0.017104 -0.002514 0.000000 0.000000 0.001695
# 3 -0.002514 -0.002514 0.009421 0.000000 0.000000 0.000000
# 4 0.000000 0.000000 0.000000 0.063280 0.000000 0.000000
# 5 0.000000 0.000000 0.000000 0.000000 0.063280 0.000000
# 6 -0.001695 0.001695 0.000000 0.000000 0.000000 0.124770
#
#
# Mechanical properties :
#
#
# Convention : Reuss Voigt Hill
#
# Bulk Modulus (GPa) = 37.56914 40.82663 39.19788
# Shear Modulus (GPa) = 15.58388 20.46365 18.02377
#
# Velocity S-wave (km/s) = 2.93052 3.35814 3.15159
# Velocity P-wave (km/s) = 5.67047 6.12657 5.90293
#
# Compressibility (1/GPa) = 0.02661759
#
# Stress axis : x y z
#
# Youngs Moduli (GPa) = 58.46527 58.46527 106.14859
#
# Poissons Ratio (x) = 0.20332 0.26686
# Poissons Ratio (y) = 0.20332 0.26686
# Poissons Ratio (z) = 0.14698 0.14698
#
# Static dielectric constant tensor:
#      x y z
#    x 3.271090 0.000000 0.000000 
#    y 0.000000 3.271090 0.000000 
#    z 0.000000 0.000000 3.606890 
# 
# 
# High freq. dielectric constant tensor:
#      x y z
#    x 1.678950 0.000000 0.000000 
#    y 0.000000 1.678950 0.000000 
#    z 0.000000 0.000000 1.725450 
# 
# From -- ./inp_files/4867.got.cif
#   From: 2010.03.12/outbox.cif.g09.slc.cpg/sg84_3_cif.got.tgz:4867.got - 2010.04.08 20:07:29.
