data_PCOD8303377
_publ_section_title
;
Structure prediction by ZEFSAII (Michael W. Deem and Ramdas Pophale) SiO2 
 PCOD8303377
Probable space group: P 42/M
;
_chemical_formula_sum "Si O2"
_cell_formula_units_Z 40
_cell_length_a 14.512548
_cell_length_b 14.512548
_cell_length_c 9.235346
_cell_angle_alpha 90.000000
_cell_angle_beta 90.000000
_cell_angle_gamma 90.000000
_cell_volume 1945.093619
_symmetry_space_group_name_H-M "P 42/M"
_symmetry_group_IT_number 84
_symmetry_cell_setting 'tetragonal'
loop_
_space_group_symop_operation_xyz
x,y,z
-y,x,1/2+z
-x,-y,z
y,-x,1/2+z
-x,-y,-z
y,-x,1/2-z
x,y,-z
-y,x,1/2-z
loop_
_atom_site_type_symbol
_atom_site_label
_atom_site_fract_x
_atom_site_fract_y
_atom_site_fract_z
Si Si1 0.779696 0.537224 0.740537
Si Si2 0.121867 0.939271 0.323098
Si Si3 0.064709 0.587553 0.838265
Si Si4 0.473790 0.655360 0.500000
Si Si5 0.529045 0.364582 0.000000
Si Si6 0.921379 0.696819 0.330833
O O1 0.838521 0.444995 0.772031
O O2 0.700964 0.512346 0.632110
O O3 0.842978 0.620450 0.686085
O O4 0.719704 0.565224 0.875899
O O5 0.115144 0.943451 0.500000
O O6 0.216245 0.892177 0.268445
O O7 0.039742 0.880186 0.252484
O O8 0.000000 0.500000 0.853561
O O9 0.019460 0.660914 0.729630
O O10 0.078387 0.630440 0.000000
O O11 0.584055 0.629855 0.500000
O O12 0.434897 0.553950 0.500000
O O13 0.932384 0.723025 0.500000
#
# Coordination Sequence:
#
# PCOD8303377 Si02
#       6
#     8   8   8   4   4   8
#     4  11  22  41  65  93 129 164 222 275 326 392
#     4  11  23  44  70  95 133 174 211 253 317 388
#     4   9  19  36  61  88 125 168 204 259 333 385
#     4  11  24  44  67  88 130 175 222 271 341 399
#     4  11  24  44  65  94 124 177 220 275 337 399
#     4  11  23  40  64  97 134 170 217 272 325 384
#
# _framework density 20.564561000000001
#
# number of rings (size 3 to 8) (size 9 to 14) (size 15 to 20)
#    0.000    1.400    2.000    4.200    4.200    2.800 
#    7.200    0.000    0.000    0.000    0.000    0.000 
#    0.000    0.000    0.000    0.000    0.000    0.000 
#
# Total GULP energy -495594.152147 kJ/mol
# GULP energy per Si atom -12389.853804 kJ/mol
# Density = 2.051776 g / cm^3
# Si number density = 20.564561 Si / 1000 Ang^3
#
#
#
# Elastic Constant Matrix: (Units=GPa)
#
#
# Indices 1 2 3 4 5 6 
#
# 1 73.8622 6.4036 27.4850 0.0000 0.0000 -6.5897
# 2 6.4036 73.8622 27.4850 0.0000 0.0000 6.5897
# 3 27.4850 27.4850 177.2822 0.0000 0.0000 0.0000
# 4 0.0000 0.0000 0.0000 67.6098 0.0000 0.0000
# 5 0.0000 0.0000 0.0000 0.0000 67.6098 0.0000
# 6 -6.5897 6.5897 0.0000 0.0000 0.0000 16.0835
#
#
#
# Elastic Compliance Matrix: (Units=1/GPa)
#
#
# Indices 1 2 3 4 5 6 
#
# 1 0.015026 -0.001088 -0.002161 0.000000 0.000000 0.006602
# 2 -0.001088 0.015026 -0.002161 0.000000 0.000000 -0.006602
# 3 -0.002161 -0.002161 0.006311 0.000000 0.000000 0.000000
# 4 0.000000 0.000000 0.000000 0.014791 0.000000 0.000000
# 5 0.000000 0.000000 0.000000 0.000000 0.014791 0.000000
# 6 0.006602 -0.006602 0.000000 0.000000 0.000000 0.067585
#
#
# Mechanical properties :
#
#
# Convention : Reuss Voigt Hill
#
# Bulk Modulus (GPa) = 39.14812 49.75039 44.44926
# Shear Modulus (GPa) = 32.70888 47.83615 40.27252
#
# Velocity S-wave (km/s) = 3.99249 4.82824 4.43012
# Velocity P-wave (km/s) = 6.35070 7.43824 6.91588
#
# Compressibility (1/GPa) = 0.02554401
#
# Stress axis : x y z
#
# Youngs Moduli (GPa) = 66.55066 66.55066 158.45914
#
# Poissons Ratio (x) = 0.07238 0.34242
# Poissons Ratio (y) = 0.07238 0.34242
# Poissons Ratio (z) = 0.14381 0.14381
#
# Static dielectric constant tensor:
#      x y z
#    x 3.778630 0.000000 0.000000 
#    y 0.000000 3.778630 0.000000 
#    z 0.000000 0.000000 3.937640 
# 
# 
# High freq. dielectric constant tensor:
#      x y z
#    x 1.798510 0.000000 0.000000 
#    y 0.000000 1.798510 0.000000 
#    z 0.000000 0.000000 1.825330 
# 
# From -- ./inp_files/821.got.cif
#   From: 2010.03.12/outbox.cif.g09.slc.cpg/sg84_1_cif.got.tgz:821.got - 2010.04.08 20:07:29.
