data_PCOD8303907
_publ_section_title
;
Structure prediction by ZEFSAII (Michael W. Deem and Ramdas Pophale) SiO2 
 PCOD8303907
Probable space group: I 4/M
;
_chemical_formula_sum "Si O2"
_cell_formula_units_Z 96
_cell_length_a 19.932717
_cell_length_b 19.932717
_cell_length_c 13.391959
_cell_angle_alpha 90.000000
_cell_angle_beta 90.000000
_cell_angle_gamma 90.000000
_cell_volume 5320.802178
_symmetry_space_group_name_H-M "I 4/M"
_symmetry_group_IT_number 87
_symmetry_cell_setting 'tetragonal'
loop_
_space_group_symop_operation_xyz
x,y,z
-y,x,z
-x,-y,z
y,-x,z
-x,-y,-z
y,-x,-z
x,y,-z
-y,x,-z
1/2+x,1/2+y,1/2+z
1/2-y,1/2+x,1/2+z
1/2-x,1/2-y,1/2+z
1/2+y,1/2-x,1/2+z
1/2-x,1/2-y,1/2-z
1/2+y,1/2-x,1/2-z
1/2+x,1/2+y,1/2-z
1/2-y,1/2+x,1/2-z
loop_
_atom_site_type_symbol
_atom_site_label
_atom_site_fract_x
_atom_site_fract_y
_atom_site_fract_z
Si Si1 0.630226 0.693354 0.745643
Si Si2 0.267344 0.976546 0.116309
Si Si3 0.105957 0.528362 0.750269
Si Si4 0.623866 0.264086 0.388032
Si Si5 0.566925 0.587452 0.111502
Si Si6 0.877443 0.684670 0.612461
O O1 0.580186 0.720586 0.662477
O O2 0.698238 0.670647 0.691096
O O3 0.600879 0.630009 0.802637
O O4 0.645188 0.750372 0.826064
O O5 0.227900 0.045631 0.138752
O O6 0.343079 0.976047 0.158076
O O7 0.274619 0.962672 0.000000
O O8 0.077757 0.455174 0.779614
O O9 0.147126 0.557269 0.844431
O O10 0.639058 0.291118 0.500000
O O11 0.634677 0.184665 0.383586
O O12 0.487660 0.592616 0.125457
O O13 0.586308 0.612886 0.000000
O O14 0.895227 0.706708 0.500000
#
# Coordination Sequence:
#
# PCOD8303907 Si02
#       6
#    16  16  16  16  16  16
#     4  11  20  33  55  80 105 140 183 221 260 316
#     4  10  21  36  54  79 111 144 180 223 270 317
#     4  10  20  35  58  83 105 137 182 224 266 322
#     4  10  20  36  54  74 105 142 178 218 268 320
#     4   9  18  33  53  78 107 139 175 217 267 316
#     4  10  21  36  54  78 108 141 175 217 272 324
#
# _framework density 18.042392
#
# number of rings (size 3 to 8) (size 9 to 14) (size 15 to 20)
#    0.000    2.000    1.667    3.000    0.000    0.667 
#    0.000    1.667    0.000    2.000    0.000    7.000 
#    0.000    0.000    0.000    0.000    0.000    0.000 
#
# Total GULP energy -595176.484215 kJ/mol
# GULP energy per Si atom -12399.510088 kJ/mol
# Density = 1.800133 g / cm^3
# Si number density = 18.042392 Si / 1000 Ang^3
#
#
#
# Elastic Constant Matrix: (Units=GPa)
#
#
# Indices 1 2 3 4 5 6 
#
# 1 65.8887 12.3930 46.9175 0.0000 0.0000 -3.7965
# 2 12.3930 65.8887 46.9175 0.0000 0.0000 3.7965
# 3 46.9175 46.9175 129.8331 0.0000 0.0000 0.0000
# 4 0.0000 0.0000 0.0000 27.0103 0.0000 0.0000
# 5 0.0000 0.0000 0.0000 0.0000 27.0103 0.0000
# 6 -3.7965 3.7965 0.0000 0.0000 0.0000 28.0094
#
#
#
# Elastic Compliance Matrix: (Units=1/GPa)
#
#
# Indices 1 2 3 4 5 6 
#
# 1 0.020798 0.001738 -0.008144 0.000000 0.000000 0.002583
# 2 0.001738 0.020798 -0.008144 0.000000 0.000000 -0.002583
# 3 -0.008144 -0.008144 0.013588 0.000000 0.000000 0.000000
# 4 0.000000 0.000000 0.000000 0.037023 0.000000 0.000000
# 5 0.000000 0.000000 0.000000 0.000000 0.037023 0.000000
# 6 0.002583 -0.002583 0.000000 0.000000 0.000000 0.036403
#
#
# Mechanical properties :
#
#
# Convention : Reuss Voigt Hill
#
# Bulk Modulus (GPa) = 38.33603 52.67406 45.50505
# Shear Modulus (GPa) = 24.57887 26.76482 25.67185
#
# Velocity S-wave (km/s) = 3.69492 3.85572 3.77618
# Velocity P-wave (km/s) = 6.28467 7.00572 6.65497
#
# Compressibility (1/GPa) = 0.02608512
#
# Stress axis : x y z
#
# Youngs Moduli (GPa) = 48.08146 48.08146 73.59391
#
# Poissons Ratio (x) = -0.08358 0.59934
# Poissons Ratio (y) = -0.08358 0.59934
# Poissons Ratio (z) = 0.39157 0.39157
#
# Static dielectric constant tensor:
#      x y z
#    x 3.301860 0.000000 0.000000 
#    y 0.000000 3.301860 0.000000 
#    z 0.000000 0.000000 3.367590 
# 
# 
# High freq. dielectric constant tensor:
#      x y z
#    x 1.700660 0.000000 0.000000 
#    y 0.000000 1.700660 0.000000 
#    z 0.000000 0.000000 1.703330 
# 
# From -- ./inp_files/2739.got.cif
#   From: 2010.03.12/outbox.cif.g09.slc.cpg/sg87_2_cif.got.tgz:2739.got - 2010.04.08 20:16:13.
