data_PCOD8303543
_publ_section_title
;
Structure prediction by ZEFSAII (Michael W. Deem and Ramdas Pophale) SiO2 
 PCOD8303543
Probable space group: P 42/N
;
_chemical_formula_sum "Si O2"
_cell_formula_units_Z 34
_cell_length_a 9.293543
_cell_length_b 9.293543
_cell_length_c 17.160691
_cell_angle_alpha 90.000000
_cell_angle_beta 90.000000
_cell_angle_gamma 90.000000
_cell_volume 1482.167878
_symmetry_space_group_name_H-M "P 42/N"
_symmetry_group_IT_number 86
_space_group.IT_coordinate_system_code '2'
_symmetry_cell_setting 'tetragonal'
loop_
_space_group_symop_operation_xyz
x,y,z
-y,1/2+x,1/2+z
1/2-x,1/2-y,z
1/2+y,-x,1/2+z
-x,-y,-z
y,1/2-x,1/2-z
1/2+x,1/2+y,-z
1/2-y,x,1/2-z
loop_
_atom_site_type_symbol
_atom_site_label
_atom_site_fract_x
_atom_site_fract_y
_atom_site_fract_z
Si Si1 0.777325 0.912964 0.487298
Si Si2 0.250000 0.250000 0.750000
Si Si3 0.896791 0.963740 0.128994
Si Si4 0.394932 0.930919 0.895167
Si Si5 0.433694 0.114812 0.255764
O O1 0.750000 0.750000 0.517717
O O2 0.632953 0.957697 0.441670
O O3 0.911173 0.929138 0.428857
O O4 0.804075 0.021823 0.558790
O O5 0.131449 0.320154 0.694706
O O6 0.779198 0.084205 0.101421
O O7 0.034328 0.044064 0.162707
O O8 0.443617 0.925439 0.805650
O O9 0.281490 0.065427 0.220458
#
# Coordination Sequence:
#
# PCOD8303543 Si02
#       5
#     8   2   8   8   8
#     4   9  19  36  69  98 132 175 217 276 343 403
#     4  12  16  36  64 104 128 168 230 276 336 384
#     4  11  19  40  69  98 130 177 230 276 331 414
#     4  10  20  38  67  97 130 174 221 273 336 405
#     4  11  26  43  65  95 136 177 222 288 347 391
#
# _framework density 22.939373
#
# number of rings (size 3 to 8) (size 9 to 14) (size 15 to 20)
#    0.000    1.647    5.882    0.000    3.294    0.941 
#    0.000    1.176   10.353    0.000    0.000    0.000 
#    0.000    0.000    0.000    0.000    0.000    0.000 
#
# Total GULP energy -421576.864709 kJ/mol
# GULP energy per Si atom -12399.319550 kJ/mol
# Density = 2.288716 g / cm^3
# Si number density = 22.939373 Si / 1000 Ang^3
#
#
#
# Elastic Constant Matrix: (Units=GPa)
#
#
# Indices 1 2 3 4 5 6 
#
# 1 96.9261 71.3945 44.2936 0.0000 0.0000 2.7574
# 2 71.3945 96.9261 44.2936 0.0000 0.0000 -2.7574
# 3 44.2936 44.2936 78.6081 0.0000 0.0000 0.0000
# 4 0.0000 0.0000 0.0000 39.5364 0.0000 0.0000
# 5 0.0000 0.0000 0.0000 0.0000 39.5364 0.0000
# 6 2.7574 -2.7574 0.0000 0.0000 0.0000 39.4668
#
#
#
# Elastic Compliance Matrix: (Units=1/GPa)
#
#
# Indices 1 2 3 4 5 6 
#
# 1 0.024106 -0.015661 -0.004759 0.000000 0.000000 -0.002778
# 2 -0.015661 0.024106 -0.004759 0.000000 0.000000 0.002778
# 3 -0.004759 -0.004759 0.018084 0.000000 0.000000 0.000000
# 4 0.000000 0.000000 0.000000 0.025293 0.000000 0.000000
# 5 0.000000 0.000000 0.000000 0.000000 0.025293 0.000000
# 6 -0.002778 0.002778 0.000000 0.000000 0.000000 0.025726
#
#
# Mechanical properties :
#
#
# Convention : Reuss Voigt Hill
#
# Bulk Modulus (GPa) = 62.73502 65.82486 64.27994
# Shear Modulus (GPa) = 25.21688 31.20651 28.21170
#
# Velocity S-wave (km/s) = 3.31914 3.69235 3.51071
# Velocity P-wave (km/s) = 6.48818 6.85094 6.67203
#
# Compressibility (1/GPa) = 0.01594006
#
# Stress axis : x y z
#
# Youngs Moduli (GPa) = 41.48275 41.48275 55.29641
#
# Poissons Ratio (x) = 0.64965 0.26315
# Poissons Ratio (y) = 0.64965 0.26315
# Poissons Ratio (z) = 0.19741 0.19741
#
# Static dielectric constant tensor:
#      x y z
#    x 4.220460 0.000000 0.000000 
#    y 0.000000 4.220460 0.000000 
#    z 0.000000 0.000000 4.125970 
# 
# 
# High freq. dielectric constant tensor:
#      x y z
#    x 1.907390 0.000000 0.000000 
#    y 0.000000 1.907390 0.000000 
#    z 0.000000 0.000000 1.901940 
# 
# From -- ./inp_files/3972.got.cif
#   From: 2010.03.12/outbox.cif.g09.slc.cpg/sg86_2_cif.got.tgz:3972.got - 2010.04.08 20:12:58.
