data_PCOD8303546
_publ_section_title
;
Structure prediction by ZEFSAII (Michael W. Deem and Ramdas Pophale) SiO2 
 PCOD8303546
Probable space group: P 42/N
;
_chemical_formula_sum "Si O2"
_cell_formula_units_Z 40
_cell_length_a 10.492126
_cell_length_b 10.492126
_cell_length_c 16.417887
_cell_angle_alpha 90.000000
_cell_angle_beta 90.000000
_cell_angle_gamma 90.000000
_cell_volume 1807.358296
_symmetry_space_group_name_H-M "P 42/N"
_symmetry_group_IT_number 86
_space_group.IT_coordinate_system_code '2'
_symmetry_cell_setting 'tetragonal'
loop_
_space_group_symop_operation_xyz
x,y,z
-y,1/2+x,1/2+z
1/2-x,1/2-y,z
1/2+y,-x,1/2+z
-x,-y,-z
y,1/2-x,1/2-z
1/2+x,1/2+y,-z
1/2-y,x,1/2-z
loop_
_atom_site_type_symbol
_atom_site_label
_atom_site_fract_x
_atom_site_fract_y
_atom_site_fract_z
Si Si1 0.609826 0.567972 0.552282
Si Si2 0.501313 0.313064 0.846276
Si Si3 0.177017 0.622084 0.490043
Si Si4 0.543654 0.968099 0.187447
Si Si5 0.274282 0.424810 0.930462
O O1 0.500000 0.500000 0.500000
O O2 0.745691 0.498892 0.544048
O O3 0.563001 0.561352 0.646619
O O4 0.621088 0.710808 0.516043
O O5 0.514393 0.422137 0.778062
O O6 0.514388 0.173523 0.806970
O O7 0.361759 0.314021 0.890844
O O8 0.611931 0.335348 0.912082
O O9 0.250000 0.750000 0.466785
O O10 0.038577 0.625794 0.449132
O O11 0.670888 0.973301 0.133605
#
# Coordination Sequence:
#
# PCOD8303546 Si02
#       5
#     8   8   8   8   8
#     4  10  20  39  62  83 122 172 198 252 318 378
#     4  12  23  37  63  96 120 158 209 270 310 372
#     4  12  22  40  60  88 125 165 215 248 313 391
#     4  11  21  37  61  91 127 155 199 263 328 351
#     4  11  22  39  63  91 123 157 209 260 310 378
#
# _framework density 22.131751000000001
#
# number of rings (size 3 to 8) (size 9 to 14) (size 15 to 20)
#    0.000    0.800   10.000    1.200    0.000    0.000 
#    3.600    0.000    0.000    0.000    0.000    0.000 
#    0.000    0.000    0.000    0.000    0.000    0.000 
#
# Total GULP energy -495972.397938 kJ/mol
# GULP energy per Si atom -12399.309948 kJ/mol
# Density = 2.208138 g / cm^3
# Si number density = 22.131751 Si / 1000 Ang^3
#
#
#
# Elastic Constant Matrix: (Units=GPa)
#
#
# Indices 1 2 3 4 5 6 
#
# 1 54.1312 22.9423 14.6913 0.0000 0.0000 -7.8539
# 2 22.9423 54.1312 14.6913 0.0000 0.0000 7.8539
# 3 14.6913 14.6913 96.7497 0.0000 0.0000 0.0000
# 4 0.0000 0.0000 0.0000 41.0908 0.0000 0.0000
# 5 0.0000 0.0000 0.0000 0.0000 41.0908 0.0000
# 6 -7.8539 7.8539 0.0000 0.0000 0.0000 32.2509
#
#
#
# Elastic Compliance Matrix: (Units=1/GPa)
#
#
# Indices 1 2 3 4 5 6 
#
# 1 0.025158 -0.011386 -0.002091 0.000000 0.000000 0.008900
# 2 -0.011386 0.025158 -0.002091 0.000000 0.000000 -0.008900
# 3 -0.002091 -0.002091 0.010971 0.000000 0.000000 0.000000
# 4 0.000000 0.000000 0.000000 0.024336 0.000000 0.000000
# 5 0.000000 0.000000 0.000000 0.000000 0.024336 0.000000
# 6 0.008900 -0.008900 0.000000 0.000000 0.000000 0.035341
#
#
# Mechanical properties :
#
#
# Convention : Reuss Voigt Hill
#
# Bulk Modulus (GPa) = 33.16767 34.40687 33.78727
# Shear Modulus (GPa) = 26.81117 33.06566 29.93842
#
# Velocity S-wave (km/s) = 3.48434 3.86947 3.68195
# Velocity P-wave (km/s) = 5.58628 5.96187 5.77713
#
# Compressibility (1/GPa) = 0.03014985
#
# Stress axis : x y z
#
# Youngs Moduli (GPa) = 39.74833 39.74833 91.14894
#
# Poissons Ratio (x) = 0.45259 0.19061
# Poissons Ratio (y) = 0.45259 0.19061
# Poissons Ratio (z) = 0.08312 0.08312
#
# Static dielectric constant tensor:
#      x y z
#    x 4.054480 0.000000 0.000000 
#    y 0.000000 4.054480 0.000000 
#    z 0.000000 0.000000 4.202460 
# 
# 
# High freq. dielectric constant tensor:
#      x y z
#    x 1.859710 0.000000 0.000000 
#    y 0.000000 1.859710 0.000000 
#    z 0.000000 0.000000 1.854310 
# 
# From -- ./inp_files/2925.got.cif
#   From: 2010.03.12/outbox.cif.g09.slc.cpg/sg86_2_cif.got.tgz:2925.got - 2010.04.08 20:12:58.
