data_PCOD8303320
_publ_section_title
;
Structure prediction by ZEFSAII (Michael W. Deem and Ramdas Pophale) SiO2 
 PCOD8303320
Probable space group: P 42/M
;
_chemical_formula_sum "Si O2"
_cell_formula_units_Z 56
_cell_length_a 11.374741
_cell_length_b 11.374741
_cell_length_c 21.467400
_cell_angle_alpha 90.000000
_cell_angle_beta 90.000000
_cell_angle_gamma 90.000000
_cell_volume 2777.553813
_symmetry_space_group_name_H-M "P 42/M"
_symmetry_group_IT_number 84
_symmetry_cell_setting 'tetragonal'
loop_
_space_group_symop_operation_xyz
x,y,z
-y,x,1/2+z
-x,-y,z
y,-x,1/2+z
-x,-y,-z
y,-x,1/2-z
x,y,-z
-y,x,1/2-z
loop_
_atom_site_type_symbol
_atom_site_label
_atom_site_fract_x
_atom_site_fract_y
_atom_site_fract_z
Si Si1 0.592525 0.606408 0.334503
Si Si2 0.339286 0.161388 0.849029
Si Si3 0.026837 0.227854 0.570409
Si Si4 0.432853 0.786015 0.928387
Si Si5 0.698273 0.016940 0.252612
Si Si6 0.398355 0.749585 0.712308
Si Si7 0.087598 0.896592 0.174083
O O1 0.500000 0.500000 0.336717
O O2 0.666719 0.618453 0.398135
O O3 0.681652 0.587877 0.277501
O O4 0.516733 0.725202 0.326984
O O5 0.454518 0.175001 0.889831
O O6 0.290351 0.286492 0.827910
O O7 0.243015 0.094746 0.891421
O O8 0.365750 0.084469 0.787195
O O9 0.995703 0.196287 0.500000
O O10 0.106277 0.343502 0.575393
O O11 0.095778 0.117181 0.600516
O O12 0.466444 0.759618 0.000000
O O13 0.603233 0.110659 0.276553
O O14 0.790293 0.089345 0.210691
O O15 0.768147 0.963148 0.311380
O O16 0.000000 0.000000 0.195118
#
# Coordination Sequence:
#
# PCOD8303320 Si02
#       7
#     8   8   8   8   8   8   8
#     4  12  22  41  61  85 123 160 203 259 315 382
#     4  11  21  35  63  94 125 160 205 260 315 378
#     4  10  23  40  61  89 127 167 210 261 314 376
#     4  11  24  42  63  87 121 167 214 266 320 375
#     4  11  20  35  60  92 128 161 200 251 323 384
#     4  12  22  38  61  93 128 164 201 255 327 382
#     4  11  18  35  60  85 123 163 202 246 311 377
#
# _framework density 20.161625000000001
#
# number of rings (size 3 to 8) (size 9 to 14) (size 15 to 20)
#    0.000    0.857    5.714    3.429    0.000    2.857 
#    0.000    0.000    0.000    0.857    0.000    2.000 
#    0.000    0.000    0.000    0.000    0.000    0.000 
#
# Total GULP energy -694449.107326 kJ/mol
# GULP energy per Si atom -12400.876917 kJ/mol
# Density = 2.011574 g / cm^3
# Si number density = 20.161625 Si / 1000 Ang^3
#
#
#
# Elastic Constant Matrix: (Units=GPa)
#
#
# Indices 1 2 3 4 5 6 
#
# 1 69.5677 14.2457 40.6116 0.0000 0.0000 4.5470
# 2 14.2457 69.5677 40.6116 0.0000 0.0000 -4.5470
# 3 40.6116 40.6116 123.3743 0.0000 0.0000 0.0000
# 4 0.0000 0.0000 0.0000 29.2923 0.0000 0.0000
# 5 0.0000 0.0000 0.0000 0.0000 29.2923 0.0000
# 6 4.5470 -4.5470 0.0000 0.0000 0.0000 33.7449
#
#
#
# Elastic Compliance Matrix: (Units=1/GPa)
#
#
# Indices 1 2 3 4 5 6 
#
# 1 0.018003 -0.000483 -0.005767 0.000000 0.000000 -0.002491
# 2 -0.000483 0.018003 -0.005767 0.000000 0.000000 0.002491
# 3 -0.005767 -0.005767 0.011902 0.000000 0.000000 0.000000
# 4 0.000000 0.000000 0.000000 0.034139 0.000000 0.000000
# 5 0.000000 0.000000 0.000000 0.000000 0.034139 0.000000
# 6 -0.002491 0.002491 0.000000 0.000000 0.000000 0.030305
#
#
# Mechanical properties :
#
#
# Convention : Reuss Voigt Hill
#
# Bulk Modulus (GPa) = 41.88673 50.38305 46.13489
# Shear Modulus (GPa) = 28.01392 29.60195 28.80794
#
# Velocity S-wave (km/s) = 3.73160 3.83591 3.78411
# Velocity P-wave (km/s) = 6.27591 6.68302 6.48266
#
# Compressibility (1/GPa) = 0.02387391
#
# Stress axis : x y z
#
# Youngs Moduli (GPa) = 55.54673 55.54673 84.01769
#
# Poissons Ratio (x) = 0.02681 0.48455
# Poissons Ratio (y) = 0.02681 0.48455
# Poissons Ratio (z) = 0.32035 0.32035
#
# Static dielectric constant tensor:
#      x y z
#    x 3.818030 0.000000 0.000000 
#    y 0.000000 3.818030 0.000000 
#    z 0.000000 0.000000 3.861450 
# 
# 
# High freq. dielectric constant tensor:
#      x y z
#    x 1.785960 0.000000 0.000000 
#    y 0.000000 1.785960 0.000000 
#    z 0.000000 0.000000 1.773840 
# 
# From -- ./inp_files/4469.got.cif
#   From: 2010.03.12/outbox.cif.g09.slc.cpg/sg84_3_cif.got.tgz:4469.got - 2010.04.08 20:07:29.
