data_PCOD8303917
_publ_section_title
;
Structure prediction by ZEFSAII (Michael W. Deem and Ramdas Pophale) SiO2 
 PCOD8303917
Probable space group: I 4/M
;
_chemical_formula_sum "Si O2"
_cell_formula_units_Z 120
_cell_length_a 26.559615
_cell_length_b 26.559615
_cell_length_c 8.297966
_cell_angle_alpha 90.000000
_cell_angle_beta 90.000000
_cell_angle_gamma 90.000000
_cell_volume 5853.494326
_symmetry_space_group_name_H-M "I 4/M"
_symmetry_group_IT_number 87
_symmetry_cell_setting 'tetragonal'
loop_
_space_group_symop_operation_xyz
x,y,z
-y,x,z
-x,-y,z
y,-x,z
-x,-y,-z
y,-x,-z
x,y,-z
-y,x,-z
1/2+x,1/2+y,1/2+z
1/2-y,1/2+x,1/2+z
1/2-x,1/2-y,1/2+z
1/2+y,1/2-x,1/2+z
1/2-x,1/2-y,1/2-z
1/2+y,1/2-x,1/2-z
1/2+x,1/2+y,1/2-z
1/2-y,1/2+x,1/2-z
loop_
_atom_site_type_symbol
_atom_site_label
_atom_site_fract_x
_atom_site_fract_y
_atom_site_fract_z
Si Si1 0.251421 0.403592 0.814330
Si Si2 0.217062 0.988735 0.814797
Si Si3 0.766406 0.387315 0.693028
Si Si4 0.438365 0.553696 0.000000
Si Si5 0.881834 0.067905 0.823264
Si Si6 0.438012 0.044355 0.687308
Si Si7 0.375715 0.856924 0.192204
Si Si8 0.827763 0.826142 0.177138
O O1 0.272271 0.457401 0.761857
O O2 0.197524 0.390337 0.733978
O O3 0.290017 0.357941 0.786479
O O4 0.240821 0.407772 0.000000
O O5 0.250182 0.942702 0.739690
O O6 0.158077 0.976709 0.789349
O O7 0.231102 0.994067 0.000000
O O8 0.763204 0.388717 0.500000
O O9 0.821426 0.373977 0.760265
O O10 0.728466 0.342519 0.752639
O O11 0.429329 0.495061 0.000000
O O12 0.417453 0.574618 0.831122
O O13 0.853920 0.119863 0.842513
O O14 0.908652 0.057369 0.000000
O O15 0.430246 0.032452 0.500000
O O16 0.493017 0.068330 0.713148
O O17 0.396519 0.082934 0.753519
O O18 0.372886 0.856760 0.000000
O O19 0.802810 0.820551 0.000000
#
# Coordination Sequence:
#
# PCOD8303917 Si02
#       8
#    16  16  16   8  16  16  16  16
#     4  11  23  34  53  87 120 146 182 237 293 342
#     4   9  19  36  59  85 107 144 198 242 285 342
#     4   8  16  36  60  77 106 151 191 228 281 343
#     4  11  26  40  56  86 120 158 202 244 299 373
#     4   9  21  39  61  86 115 153 199 251 305 353
#     4  10  20  36  58  82 112 150 193 234 282 340
#     4   9  20  36  54  83 119 152 183 230 291 342
#     4   9  19  37  59  83 108 145 196 239 280 345
#
# _framework density 20.500575999999999
#
# number of rings (size 3 to 8) (size 9 to 14) (size 15 to 20)
#    0.000    2.600    0.000    2.800    5.600    1.067 
#    0.000    2.667    0.000    4.000    0.000    0.000 
#    0.000    0.000    0.000    0.000    0.000    0.000 
#
# Total GULP energy -743519.002912 kJ/mol
# GULP energy per Si atom -12391.983382 kJ/mol
# Density = 2.045392 g / cm^3
# Si number density = 20.500576 Si / 1000 Ang^3
#
#
#
# Elastic Constant Matrix: (Units=GPa)
#
#
# Indices 1 2 3 4 5 6 
#
# 1 95.2667 40.7335 3.4672 0.0000 0.0000 -3.6316
# 2 40.7335 95.2667 3.4672 0.0000 0.0000 3.6316
# 3 3.4672 3.4672 52.0665 0.0000 0.0000 0.0000
# 4 0.0000 0.0000 0.0000 39.9538 0.0000 0.0000
# 5 0.0000 0.0000 0.0000 0.0000 39.9538 0.0000
# 6 -3.6316 3.6316 0.0000 0.0000 0.0000 33.7602
#
#
#
# Elastic Compliance Matrix: (Units=1/GPa)
#
#
# Indices 1 2 3 4 5 6 
#
# 1 0.012991 -0.005613 -0.000491 0.000000 0.000000 0.002001
# 2 -0.005613 0.012991 -0.000491 0.000000 0.000000 -0.002001
# 3 -0.000491 -0.000491 0.019272 0.000000 0.000000 0.000000
# 4 0.000000 0.000000 0.000000 0.025029 0.000000 0.000000
# 5 0.000000 0.000000 0.000000 0.000000 0.025029 0.000000
# 6 0.002001 -0.002001 0.000000 0.000000 0.000000 0.030051
#
#
# Mechanical properties :
#
#
# Convention : Reuss Voigt Hill
#
# Bulk Modulus (GPa) = 31.18922 37.54842 34.36882
# Shear Modulus (GPa) = 33.50277 35.72903 34.61590
#
# Velocity S-wave (km/s) = 4.04695 4.17925 4.11363
# Velocity P-wave (km/s) = 6.08966 6.45320 6.27406
#
# Compressibility (1/GPa) = 0.03206235
#
# Stress axis : x y z
#
# Youngs Moduli (GPa) = 76.97647 76.97647 51.88969
#
# Poissons Ratio (x) = 0.43207 0.02549
# Poissons Ratio (y) = 0.43207 0.02549
# Poissons Ratio (z) = 0.03782 0.03782
#
# Static dielectric constant tensor:
#      x y z
#    x 3.897160 0.000000 0.000000 
#    y 0.000000 3.897160 0.000000 
#    z 0.000000 0.000000 2.639160 
# 
# 
# High freq. dielectric constant tensor:
#      x y z
#    x 1.802180 0.000000 0.000000 
#    y 0.000000 1.802180 0.000000 
#    z 0.000000 0.000000 1.776810 
# 
# From -- ./inp_files/1701.got.cif
#   From: 2010.03.12/outbox.cif.g09.slc.cpg/sg87_1_cif.got.tgz:1701.got - 2010.04.08 20:16:13.
