data_PCOD8303101
_publ_section_title
;
Structure prediction by ZEFSAII (Michael W. Deem and Ramdas Pophale) SiO2 
 PCOD8303101
Probable space group: P 42/M
;
_chemical_formula_sum "Si O2"
_cell_formula_units_Z 56
_cell_length_a 20.450018
_cell_length_b 20.450018
_cell_length_c 8.826631
_cell_angle_alpha 90.000000
_cell_angle_beta 90.000000
_cell_angle_gamma 90.000000
_cell_volume 3691.325649
_symmetry_space_group_name_H-M "P 42/M"
_symmetry_group_IT_number 84
_symmetry_cell_setting 'tetragonal'
loop_
_space_group_symop_operation_xyz
x,y,z
-y,x,1/2+z
-x,-y,z
y,-x,1/2+z
-x,-y,-z
y,-x,1/2-z
x,y,-z
-y,x,1/2-z
loop_
_atom_site_type_symbol
_atom_site_label
_atom_site_fract_x
_atom_site_fract_y
_atom_site_fract_z
Si Si1 0.348016 0.444218 0.662236
Si Si2 0.002738 0.423147 0.668420
Si Si3 0.335588 0.243242 0.822805
Si Si4 0.567106 0.665813 0.329902
Si Si5 0.430049 0.863242 0.679302
Si Si6 0.664217 0.241484 0.831124
Si Si7 0.868713 0.419056 0.820653
O O1 0.344865 0.481639 0.500000
O O2 0.324906 0.490417 0.796934
O O3 0.419773 0.412237 0.686175
O O4 0.305160 0.379443 0.653770
O O5 0.002110 0.391439 0.500000
O O6 0.940684 0.399389 0.764349
O O7 0.000000 0.500000 0.652489
O O8 0.068447 0.403474 0.755742
O O9 0.392475 0.295601 0.795568
O O10 0.266234 0.268843 0.751546
O O11 0.362718 0.177083 0.747841
O O12 0.324394 0.232016 0.000000
O O13 0.580481 0.692910 0.500000
O O14 0.426874 0.866049 0.500000
O O15 0.378327 0.810276 0.737691
O O16 0.505995 0.849244 0.730494
O O17 0.680968 0.214383 0.000000
O O18 0.866334 0.414698 0.000000
#
# Coordination Sequence:
#
# PCOD8303101 Si02
#       7
#     8   8   8   8   8   8   8
#     4   9  19  32  43  56  73  94 123 161 205 251
#     4   9  17  29  45  66  90 114 141 173 210 253
#     4  11  21  32  46  62  81 106 137 171 208 252
#     4  10  20  32  44  57  73  94 123 161 205 251
#     4  10  19  30  46  67  89 114 143 176 216 258
#     4  10  20  33  46  61  82 107 137 172 209 250
#     4  10  19  31  47  66  89 114 141 176 216 257
#
# _framework density 15.170700999999999
#
# number of rings (size 3 to 8) (size 9 to 14) (size 15 to 20)
#    0.000    2.143    0.000    5.143    0.000    9.429 
#    0.000    1.429    0.000    0.000    0.000    0.000 
#    0.000    0.000    0.000    0.000    0.000    0.714 
#
# Total GULP energy -693835.688839 kJ/mol
# GULP energy per Si atom -12389.923015 kJ/mol
# Density = 1.513617 g / cm^3
# Si number density = 15.170701 Si / 1000 Ang^3
#
#
#
# Elastic Constant Matrix: (Units=GPa)
#
#
# Indices 1 2 3 4 5 6 
#
# 1 63.9673 24.0927 29.3980 0.0000 0.0000 2.2772
# 2 24.0927 63.9673 29.3980 0.0000 0.0000 -2.2772
# 3 29.3980 29.3980 91.9847 0.0000 0.0000 0.0000
# 4 0.0000 0.0000 0.0000 23.5477 0.0000 0.0000
# 5 0.0000 0.0000 0.0000 0.0000 23.5477 0.0000
# 6 2.2772 -2.2772 0.0000 0.0000 0.0000 13.6264
#
#
#
# Elastic Compliance Matrix: (Units=1/GPa)
#
#
# Indices 1 2 3 4 5 6 
#
# 1 0.020002 -0.005565 -0.004614 0.000000 0.000000 -0.004273
# 2 -0.005565 0.020002 -0.004614 0.000000 0.000000 0.004273
# 3 -0.004614 -0.004614 0.013821 0.000000 0.000000 0.000000
# 4 0.000000 0.000000 0.000000 0.042467 0.000000 0.000000
# 5 0.000000 0.000000 0.000000 0.000000 0.042467 0.000000
# 6 -0.004273 0.004273 0.000000 0.000000 0.000000 0.074815
#
#
# Mechanical properties :
#
#
# Convention : Reuss Voigt Hill
#
# Bulk Modulus (GPa) = 41.25742 42.85519 42.05631
# Shear Modulus (GPa) = 19.90146 21.27972 20.59059
#
# Velocity S-wave (km/s) = 3.62586 3.74931 3.68810
# Velocity P-wave (km/s) = 6.69206 6.85952 6.77631
#
# Compressibility (1/GPa) = 0.02423806
#
# Stress axis : x y z
#
# Youngs Moduli (GPa) = 49.99606 49.99606 72.35619
#
# Poissons Ratio (x) = 0.27823 0.33384
# Poissons Ratio (y) = 0.27823 0.33384
# Poissons Ratio (z) = 0.23067 0.23067
#
# Static dielectric constant tensor:
#      x y z
#    x 2.825470 0.000000 0.000000 
#    y 0.000000 2.825470 0.000000 
#    z 0.000000 0.000000 3.153830 
# 
# 
# High freq. dielectric constant tensor:
#      x y z
#    x 1.548280 0.000000 0.000000 
#    y 0.000000 1.548280 0.000000 
#    z 0.000000 0.000000 1.601630 
# 
# From -- ./inp_files/1299.got.cif
#   From: 2010.03.12/outbox.cif.g09.slc.cpg/sg84_1_cif.got.tgz:1299.got - 2010.04.08 20:07:29.
