data_PCOD8303023
_publ_section_title
;
Structure prediction by ZEFSAII (Michael W. Deem and Ramdas Pophale) SiO2 
 PCOD8303023
Probable space group: P 4/M
;
_chemical_formula_sum "Si O2"
_cell_formula_units_Z 37
_cell_length_a 8.711395
_cell_length_b 8.711395
_cell_length_c 23.050518
_cell_angle_alpha 90.000000
_cell_angle_beta 90.000000
_cell_angle_gamma 90.000000
_cell_volume 1749.266996
_symmetry_space_group_name_H-M "P 4/M"
_symmetry_group_IT_number 83
_symmetry_cell_setting 'tetragonal'
loop_
_space_group_symop_operation_xyz
x,y,z
-y,x,z
-x,-y,z
y,-x,z
-x,-y,-z
y,-x,-z
x,y,-z
-y,x,-z
loop_
_atom_site_type_symbol
_atom_site_label
_atom_site_fract_x
_atom_site_fract_y
_atom_site_fract_z
Si Si1 0.608960 0.728624 0.885457
Si Si2 0.908841 0.233776 0.655642
Si Si3 0.736337 0.414310 0.434735
Si Si4 0.229779 0.102223 0.212960
Si Si5 0.662235 0.912941 0.000000
Si Si6 0.000000 0.000000 0.000000
O O1 0.428562 0.702438 0.883278
O O2 0.641598 0.835816 0.830079
O O3 0.667109 0.809636 0.942936
O O4 0.866099 0.368528 0.611232
O O5 0.878768 0.289931 0.721289
O O6 0.085113 0.194928 0.644337
O O7 0.692962 0.589670 0.424382
O O8 0.799516 0.390462 0.500000
O O9 0.075731 0.198023 0.200909
O O10 0.500000 0.000000 0.000000
O O11 0.812826 0.024789 0.000000
#
# Coordination Sequence:
#
# PCOD8303023 Si02
#       6
#     8   8   8   8   4   1
#     4  11  25  43  63  92 130 165 201 259 324 374
#     4   9  19  37  56  82 117 153 194 249 307 359
#     4   9  19  35  54  78 111 152 198 248 301 363
#     4   9  21  39  62  87 118 158 207 255 300 377
#     4  12  28  47  70 103 132 167 219 268 316 388
#     4  12  28  44  76 104 124 180 228 252 326 408
#
# _framework density 21.151716
#
# number of rings (size 3 to 8) (size 9 to 14) (size 15 to 20)
#    0.000    2.162    0.000    3.892    6.054    4.324 
#    0.000    9.730    0.000    0.000    0.000    0.000 
#    0.000    0.000    0.000    0.000    0.000    0.000 
#
# Total GULP energy -458369.022332 kJ/mol
# GULP energy per Si atom -12388.351955 kJ/mol
# Density = 2.110357 g / cm^3
# Si number density = 21.151716 Si / 1000 Ang^3
#
#
#
# Elastic Constant Matrix: (Units=GPa)
#
#
# Indices 1 2 3 4 5 6 
#
# 1 50.8483 28.9596 29.3994 0.0000 0.0000 5.8866
# 2 28.9596 50.8483 29.3994 0.0000 0.0000 -5.8866
# 3 29.3994 29.3994 117.3444 0.0000 0.0000 0.0000
# 4 0.0000 0.0000 0.0000 5440.3021 0.0000 0.0000
# 5 0.0000 0.0000 0.0000 0.0000 5440.3021 0.0000
# 6 5.8866 -5.8866 0.0000 0.0000 0.0000 29.7546
#
#
#
# Elastic Compliance Matrix: (Units=1/GPa)
#
#
# Indices 1 2 3 4 5 6 
#
# 1 0.033246 -0.017880 -0.003850 0.000000 0.000000 -0.010115
# 2 -0.017880 0.033246 -0.003850 0.000000 0.000000 0.010115
# 3 -0.003850 -0.003850 0.010451 0.000000 0.000000 0.000000
# 4 0.000000 0.000000 0.000000 0.000184 0.000000 0.000000
# 5 0.000000 0.000000 0.000000 0.000000 0.000184 0.000000
# 6 -0.010115 0.010115 0.000000 0.000000 0.000000 0.037610
#
#
# Mechanical properties :
#
#
# Convention : Reuss Voigt Hill
#
# Bulk Modulus (GPa) = 38.78313 43.83977 41.31145
# Shear Modulus (GPa) = 28.62445 2190.82394 1109.72419
#
# Velocity S-wave (km/s) = 3.68270 32.21824 22.93008
# Velocity P-wave (km/s) = 6.03809 37.48055 26.84446
#
# Compressibility (1/GPa) = 0.02578441
#
# Stress axis : x y z
#
# Youngs Moduli (GPa) = 30.07849 30.07849 95.68429
#
# Poissons Ratio (x) = 0.53780 0.36838
# Poissons Ratio (y) = 0.53780 0.36838
# Poissons Ratio (z) = 0.11580 0.11580
#
# Static dielectric constant tensor:
#      x y z
#    x 3.751750 0.000000 0.000000 
#    y 0.000000 3.751750 0.000000 
#    z 0.000000 0.000000 4.454040 
# 
# 
# High freq. dielectric constant tensor:
#      x y z
#    x 1.831970 0.000000 0.000000 
#    y 0.000000 1.831970 0.000000 
#    z 0.000000 0.000000 1.829400 
# 
# From -- ./inp_files/3125.got.cif
#   From: 2010.03.12/outbox.cif.g09.slc.cpg/sg83_2_cif.got.tgz:3125.got - 2010.04.08 20:05:18.
