data_PCOD8303861
_publ_section_title
;
Structure prediction by ZEFSAII (Michael W. Deem and Ramdas Pophale) SiO2 
 PCOD8303861
Probable space group: I 4/M
;
_chemical_formula_sum "Si O2"
_cell_formula_units_Z 96
_cell_length_a 25.242759
_cell_length_b 25.242759
_cell_length_c 9.076295
_cell_angle_alpha 90.000000
_cell_angle_beta 90.000000
_cell_angle_gamma 90.000000
_cell_volume 5783.386873
_symmetry_space_group_name_H-M "I 4/M"
_symmetry_group_IT_number 87
_symmetry_cell_setting 'tetragonal'
loop_
_space_group_symop_operation_xyz
x,y,z
-y,x,z
-x,-y,z
y,-x,z
-x,-y,-z
y,-x,-z
x,y,-z
-y,x,-z
1/2+x,1/2+y,1/2+z
1/2-y,1/2+x,1/2+z
1/2-x,1/2-y,1/2+z
1/2+y,1/2-x,1/2+z
1/2-x,1/2-y,1/2-z
1/2+y,1/2-x,1/2-z
1/2+x,1/2+y,1/2-z
1/2-y,1/2+x,1/2-z
loop_
_atom_site_type_symbol
_atom_site_label
_atom_site_fract_x
_atom_site_fract_y
_atom_site_fract_z
Si Si1 0.559259 0.641457 0.327996
Si Si2 0.364807 0.058148 0.332980
Si Si3 0.646204 0.560823 0.676242
Si Si4 0.448777 0.747996 0.170441
Si Si5 0.757617 0.440713 0.327925
Si Si6 0.140240 0.565157 0.171640
O O1 0.554662 0.631913 0.500000
O O2 0.597771 0.596472 0.263077
O O3 0.499281 0.635923 0.266583
O O4 0.584799 0.699649 0.295430
O O5 0.385029 0.065473 0.500000
O O6 0.304695 0.080984 0.318290
O O7 0.403194 0.089130 0.224485
O O8 0.367182 0.996433 0.288221
O O9 0.653330 0.564498 0.500000
O O10 0.699403 0.583569 0.755978
O O11 0.500523 0.753916 0.267941
O O12 0.462674 0.735858 0.000000
O O13 0.770054 0.441744 0.500000
O O14 0.806474 0.411198 0.248048
O O15 0.147722 0.573549 0.000000
#
# Coordination Sequence:
#
# PCOD8303861 Si02
#       6
#    16  16  16  16  16  16
#     4   8  15  26  44  69  93 120 154 189 226 272
#     4   9  19  33  47  66  93 121 148 183 226 270
#     4   9  16  28  45  67  94 123 155 189 229 274
#     4   9  17  30  46  66  90 118 156 194 226 265
#     4   9  16  29  48  67  89 120 155 190 228 268
#     4  10  20  32  48  71  95 120 152 187 224 269
#
# _framework density 16.599270000000001
#
# number of rings (size 3 to 8) (size 9 to 14) (size 15 to 20)
#    0.000    3.000    0.000    3.500    0.000    4.667 
#    0.000    7.500    0.000    1.000    0.000    4.667 
#    0.000    0.000    0.000    0.000    0.000    0.000 
#
# Total GULP energy -594706.912765 kJ/mol
# GULP energy per Si atom -12389.727349 kJ/mol
# Density = 1.656149 g / cm^3
# Si number density = 16.599270 Si / 1000 Ang^3
#
#
#
# Elastic Constant Matrix: (Units=GPa)
#
#
# Indices 1 2 3 4 5 6 
#
# 1 89.7037 55.8102 47.4628 0.0000 0.0000 -1.3685
# 2 55.8102 89.7037 47.4628 0.0000 0.0000 1.3685
# 3 47.4628 47.4628 66.5616 0.0000 0.0000 0.0000
# 4 0.0000 0.0000 0.0000 21.3806 0.0000 0.0000
# 5 0.0000 0.0000 0.0000 0.0000 21.3806 0.0000
# 6 -1.3685 1.3685 0.0000 0.0000 0.0000 4.4267
#
#
#
# Elastic Compliance Matrix: (Units=1/GPa)
#
#
# Indices 1 2 3 4 5 6 
#
# 1 0.021554 -0.008705 -0.009162 0.000000 0.000000 0.009354
# 2 -0.008705 0.021554 -0.009162 0.000000 0.000000 -0.009354
# 3 -0.009162 -0.009162 0.028090 0.000000 0.000000 0.000000
# 4 0.000000 0.000000 0.000000 0.046771 0.000000 0.000000
# 5 0.000000 0.000000 0.000000 0.000000 0.046771 0.000000
# 6 0.009354 -0.009354 0.000000 0.000000 0.000000 0.231685
#
#
# Mechanical properties :
#
#
# Convention : Reuss Voigt Hill
#
# Bulk Modulus (GPa) = 58.34488 60.82673 59.58580
# Shear Modulus (GPa) = 10.96011 15.78648 13.37329
#
# Velocity S-wave (km/s) = 2.57237 3.08723 2.84149
# Velocity P-wave (km/s) = 6.63688 7.03077 6.83666
#
# Compressibility (1/GPa) = 0.01713947
#
# Stress axis : x y z
#
# Youngs Moduli (GPa) = 46.39430 46.39430 35.59940
#
# Poissons Ratio (x) = 0.40387 0.32617
# Poissons Ratio (y) = 0.40387 0.32617
# Poissons Ratio (z) = 0.42508 0.42508
#
# Static dielectric constant tensor:
#      x y z
#    x 3.348180 0.000000 0.000000 
#    y 0.000000 3.348180 0.000000 
#    z 0.000000 0.000000 3.116100 
# 
# 
# High freq. dielectric constant tensor:
#      x y z
#    x 1.622710 0.000000 0.000000 
#    y 0.000000 1.622710 0.000000 
#    z 0.000000 0.000000 1.635490 
# 
# From -- ./inp_files/1317.got.cif
#   From: 2010.03.12/outbox.cif.g09.slc.cpg/sg87_1_cif.got.tgz:1317.got - 2010.04.08 20:16:13.
