data_PCOD8303420
_publ_section_title
;
Structure prediction by ZEFSAII (Michael W. Deem and Ramdas Pophale) SiO2 
 PCOD8303420
Probable space group: P 4/N
;
_chemical_formula_sum "Si O2"
_cell_formula_units_Z 42
_cell_length_a 14.920252
_cell_length_b 14.920252
_cell_length_c 8.952112
_cell_angle_alpha 90.000000
_cell_angle_beta 90.000000
_cell_angle_gamma 90.000000
_cell_volume 1992.864742
_symmetry_space_group_name_H-M "P 4/N"
_symmetry_group_IT_number 85
_symmetry_cell_setting 'tetragonal'
loop_
_space_group_symop_operation_xyz
x,y,z
1/2-y,x,z
1/2-x,1/2-y,z
y,1/2-x,z
-x,-y,-z
1/2+y,-x,-z
1/2+x,1/2+y,-z
-y,1/2+x,-z
loop_
_atom_site_type_symbol
_atom_site_label
_atom_site_fract_x
_atom_site_fract_y
_atom_site_fract_z
Si Si1 0.542189 0.615253 0.578044
Si Si2 0.886588 0.993829 0.329282
Si Si3 0.750000 0.250000 0.500000
Si Si4 0.485873 0.407479 0.912358
Si Si5 0.580065 0.301423 0.671143
Si Si6 0.198083 0.385100 0.141111
O O1 0.616791 0.553921 0.492510
O O2 0.476753 0.553821 0.677418
O O3 0.485801 0.668406 0.457683
O O4 0.589703 0.686071 0.685511
O O5 0.800417 0.053019 0.289796
O O6 0.901154 0.920112 0.199319
O O7 0.681375 0.303676 0.607759
O O8 0.570322 0.368461 0.814271
O O9 0.500000 0.500000 0.000000
O O10 0.464503 0.330307 0.031119
O O11 0.134866 0.300653 0.108189
#
# Coordination Sequence:
#
# PCOD8303420 Si02
#       6
#     8   8   2   8   8   8
#     4  10  20  36  65  89 122 166 212 264 319 383
#     4  10  20  38  60  92 119 168 217 255 320 382
#     4  12  24  40  64 102 132 164 208 282 344 368
#     4  11  23  41  63  88 126 174 215 255 319 397
#     4  11  23  40  64  93 130 162 213 272 321 388
#     4  11  23  39  62  94 127 164 215 274 321 373
#
# _framework density 21.075187
#
# number of rings (size 3 to 8) (size 9 to 14) (size 15 to 20)
#    0.000    1.333    3.810    2.286    0.000    1.524 
#    0.000    0.000    0.000   10.286    0.000    0.000 
#    0.000    0.000    0.000    0.000    0.000    0.000 
#
# Total GULP energy -520661.753410 kJ/mol
# GULP energy per Si atom -12396.708415 kJ/mol
# Density = 2.102722 g / cm^3
# Si number density = 21.075187 Si / 1000 Ang^3
#
#
#
# Elastic Constant Matrix: (Units=GPa)
#
#
# Indices 1 2 3 4 5 6 
#
# 1 63.5497 34.5017 41.4085 0.0000 0.0000 2.0034
# 2 34.5017 63.5497 41.4085 0.0000 0.0000 -2.0034
# 3 41.4085 41.4085 116.0018 0.0000 0.0000 0.0000
# 4 0.0000 0.0000 0.0000 33.6622 0.0000 0.0000
# 5 0.0000 0.0000 0.0000 0.0000 33.6622 0.0000
# 6 2.0034 -2.0034 0.0000 0.0000 0.0000 25.1925
#
#
#
# Elastic Compliance Matrix: (Units=1/GPa)
#
#
# Indices 1 2 3 4 5 6 
#
# 1 0.024704 -0.010103 -0.005212 0.000000 0.000000 -0.002768
# 2 -0.010103 0.024704 -0.005212 0.000000 0.000000 0.002768
# 3 -0.005212 -0.005212 0.012342 0.000000 0.000000 0.000000
# 4 0.000000 0.000000 0.000000 0.029707 0.000000 0.000000
# 5 0.000000 0.000000 0.000000 0.000000 0.029707 0.000000
# 6 -0.002768 0.002768 0.000000 0.000000 0.000000 0.040135
#
#
# Mechanical properties :
#
#
# Convention : Reuss Voigt Hill
#
# Bulk Modulus (GPa) = 48.31993 53.08206 50.70099
# Shear Modulus (GPa) = 23.89466 26.88888 25.39177
#
# Velocity S-wave (km/s) = 3.37082 3.57579 3.47481
# Velocity P-wave (km/s) = 6.17471 6.50308 6.34102
#
# Compressibility (1/GPa) = 0.02069539
#
# Stress axis : x y z
#
# Youngs Moduli (GPa) = 40.47878 40.47878 81.02699
#
# Poissons Ratio (x) = 0.40897 0.42231
# Poissons Ratio (y) = 0.40897 0.42231
# Poissons Ratio (z) = 0.21098 0.21098
#
# Static dielectric constant tensor:
#      x y z
#    x 3.758580 0.000000 0.000000 
#    y 0.000000 3.758580 0.000000 
#    z 0.000000 0.000000 4.128180 
# 
# 
# High freq. dielectric constant tensor:
#      x y z
#    x 1.813890 0.000000 0.000000 
#    y 0.000000 1.813890 0.000000 
#    z 0.000000 0.000000 1.836950 
# 
# From -- ./inp_files/965.got.cif
#   From: 2010.03.12/outbox.cif.g09.slc.cpg/sg85_cif.got.tgz:965.got - 2010.04.08 20:10:46.
