data_PCOD8303581
_publ_section_title
;
Structure prediction by ZEFSAII (Michael W. Deem and Ramdas Pophale) SiO2 
 PCOD8303581
Probable space group: P 42/N
;
_chemical_formula_sum "Si O2"
_cell_formula_units_Z 40
_cell_length_a 8.615122
_cell_length_b 8.615122
_cell_length_c 26.483926
_cell_angle_alpha 90.000000
_cell_angle_beta 90.000000
_cell_angle_gamma 90.000000
_cell_volume 1965.645650
_symmetry_space_group_name_H-M "P 42/N"
_symmetry_group_IT_number 86
_space_group.IT_coordinate_system_code '2'
_symmetry_cell_setting 'tetragonal'
loop_
_space_group_symop_operation_xyz
x,y,z
-y,1/2+x,1/2+z
1/2-x,1/2-y,z
1/2+y,-x,1/2+z
-x,-y,-z
y,1/2-x,1/2-z
1/2+x,1/2+y,-z
1/2-y,x,1/2-z
loop_
_atom_site_type_symbol
_atom_site_label
_atom_site_fract_x
_atom_site_fract_y
_atom_site_fract_z
Si Si1 0.783792 0.070493 0.863868
Si Si2 0.003596 0.055267 0.659701
Si Si3 0.250000 0.750000 0.396404
Si Si4 0.615694 0.542290 0.759151
Si Si5 0.459634 0.505088 0.941906
Si Si6 0.250000 0.250000 0.607177
O O1 0.750000 0.250000 0.871418
O O2 0.881133 0.005534 0.910573
O O3 0.620187 0.979516 0.861090
O O4 0.882722 0.043973 0.812772
O O5 0.871653 0.166528 0.639324
O O6 0.169315 0.122748 0.643030
O O7 0.994457 0.052603 0.720709
O O8 0.331009 0.877458 0.431652
O O9 0.548734 0.714811 0.766872
O O10 0.340628 0.367814 0.928839
O O11 0.500000 0.500000 0.000000
#
# Coordination Sequence:
#
# PCOD8303581 Si02
#       6
#     8   8   4   8   8   4
#     4  11  22  40  64  94 128 171 217 267 323 393
#     4  10  21  41  66  91 134 164 212 266 325 398
#     4  10  24  40  64  94 124 168 214 270 330 384
#     4   9  19  36  62  93 124 164 210 257 316 393
#     4  11  25  43  66  91 130 169 224 276 336 388
#     4  10  22  44  61 100 130 168 217 278 326 400
#
# _framework density 20.349547999999999
#
# number of rings (size 3 to 8) (size 9 to 14) (size 15 to 20)
#    0.000    1.800    2.000    1.200    2.800    4.000 
#    3.600    5.000    0.000    0.000    0.000    0.000 
#    0.000    0.000    0.000    0.000    0.000    0.000 
#
# Total GULP energy -496147.745424 kJ/mol
# GULP energy per Si atom -12403.693636 kJ/mol
# Density = 2.030323 g / cm^3
# Si number density = 20.349548 Si / 1000 Ang^3
#
#
#
# Elastic Constant Matrix: (Units=GPa)
#
#
# Indices 1 2 3 4 5 6 
#
# 1 77.1540 18.6144 50.7924 0.0000 0.0000 4.8739
# 2 18.6144 77.1540 50.7924 0.0000 0.0000 -4.8739
# 3 50.7924 50.7924 155.3475 0.0000 0.0000 0.0000
# 4 0.0000 0.0000 0.0000 25.6207 0.0000 0.0000
# 5 0.0000 0.0000 0.0000 0.0000 25.6207 0.0000
# 6 4.8739 -4.8739 0.0000 0.0000 0.0000 33.5452
#
#
#
# Elastic Compliance Matrix: (Units=1/GPa)
#
#
# Indices 1 2 3 4 5 6 
#
# 1 0.016746 -0.000760 -0.005227 0.000000 0.000000 -0.002544
# 2 -0.000760 0.016746 -0.005227 0.000000 0.000000 0.002544
# 3 -0.005227 -0.005227 0.009855 0.000000 0.000000 0.000000
# 4 0.000000 0.000000 0.000000 0.039031 0.000000 0.000000
# 5 0.000000 0.000000 0.000000 0.000000 0.039031 0.000000
# 6 -0.002544 0.002544 0.000000 0.000000 0.000000 0.030550
#
#
# Mechanical properties :
#
#
# Convention : Reuss Voigt Hill
#
# Bulk Modulus (GPa) = 47.80098 61.11708 54.45903
# Shear Modulus (GPa) = 27.56958 29.58773 28.57865
#
# Velocity S-wave (km/s) = 3.68475 3.81724 3.75158
# Velocity P-wave (km/s) = 6.45323 7.03756 6.75172
#
# Compressibility (1/GPa) = 0.02092007
#
# Stress axis : x y z
#
# Youngs Moduli (GPa) = 59.71555 59.71555 101.47037
#
# Poissons Ratio (x) = 0.04538 0.53037
# Poissons Ratio (y) = 0.04538 0.53037
# Poissons Ratio (z) = 0.31212 0.31212
#
# Static dielectric constant tensor:
#      x y z
#    x 3.925310 0.000000 0.000000 
#    y 0.000000 3.925310 0.000000 
#    z 0.000000 0.000000 3.466810 
# 
# 
# High freq. dielectric constant tensor:
#      x y z
#    x 1.803740 0.000000 0.000000 
#    y 0.000000 1.803740 0.000000 
#    z 0.000000 0.000000 1.783220 
# 
# From -- ./inp_files/4512.got.cif
#   From: 2010.03.12/outbox.cif.g09.slc.cpg/sg86_3_cif.got.tgz:4512.got - 2010.04.08 20:12:58.
