data_PCOD8303847
_publ_section_title
;
Structure prediction by ZEFSAII (Michael W. Deem and Ramdas Pophale) SiO2 
 PCOD8303847
Probable space group: I 4/M
;
_chemical_formula_sum "Si O2"
_cell_formula_units_Z 96
_cell_length_a 14.950400
_cell_length_b 14.950400
_cell_length_c 19.458656
_cell_angle_alpha 90.000000
_cell_angle_beta 90.000000
_cell_angle_gamma 90.000000
_cell_volume 4349.290991
_symmetry_space_group_name_H-M "I 4/M"
_symmetry_group_IT_number 87
_symmetry_cell_setting 'tetragonal'
loop_
_space_group_symop_operation_xyz
x,y,z
-y,x,z
-x,-y,z
y,-x,z
-x,-y,-z
y,-x,-z
x,y,-z
-y,x,-z
1/2+x,1/2+y,1/2+z
1/2-y,1/2+x,1/2+z
1/2-x,1/2-y,1/2+z
1/2+y,1/2-x,1/2+z
1/2-x,1/2-y,1/2-z
1/2+y,1/2-x,1/2-z
1/2+x,1/2+y,1/2-z
1/2-y,1/2+x,1/2-z
loop_
_atom_site_type_symbol
_atom_site_label
_atom_site_fract_x
_atom_site_fract_y
_atom_site_fract_z
Si Si1 0.328832 0.192749 0.716778
Si Si2 0.914076 0.303688 0.921805
Si Si3 0.260221 0.488500 0.781833
Si Si4 0.132260 0.053575 0.161517
Si Si5 0.114337 0.349968 0.075437
Si Si6 0.467777 0.209949 0.923763
O O1 0.250000 0.250000 0.750000
O O2 0.422946 0.224238 0.745859
O O3 0.330498 0.205042 0.633373
O O4 0.315667 0.087129 0.729659
O O5 0.902613 0.217147 0.874489
O O6 0.837774 0.375165 0.902888
O O7 0.009740 0.347361 0.907878
O O8 0.904362 0.272251 0.000000
O O9 0.349842 0.451088 0.744188
O O10 0.280520 0.508349 0.862771
O O11 0.048983 0.114596 0.139750
O O12 0.136391 0.454899 0.074679
O O13 0.136466 0.308110 0.000000
O O14 0.460168 0.255655 0.000000
#
# Coordination Sequence:
#
# PCOD8303847 Si02
#       6
#    16  16  16  16  16  16
#     4  11  23  39  61  89 124 159 207 260 313 383
#     4  10  19  36  60  87 119 158 200 248 303 372
#     4  11  22  37  61  87 120 160 199 256 319 374
#     4  11  24  41  60  84 117 163 217 264 310 367
#     4   9  18  35  59  88 124 163 195 242 306 374
#     4   9  19  35  58  90 122 153 194 244 309 380
#
# _framework density 22.072564
#
# number of rings (size 3 to 8) (size 9 to 14) (size 15 to 20)
#    0.000    1.833    1.667    2.500    0.000    3.000 
#    0.000    1.667    0.000    4.000    0.000    1.167 
#    0.000    0.000    0.000    0.000    0.000    0.000 
#
# Total GULP energy -594774.866340 kJ/mol
# GULP energy per Si atom -12391.143049 kJ/mol
# Density = 2.202233 g / cm^3
# Si number density = 22.072564 Si / 1000 Ang^3
#
#
#
# Elastic Constant Matrix: (Units=GPa)
#
#
# Indices 1 2 3 4 5 6 
#
# 1 65.5168 4.4340 29.8111 0.0000 0.0000 -3.1984
# 2 4.4340 65.5168 29.8111 0.0000 0.0000 3.1984
# 3 29.8111 29.8111 132.6633 0.0000 0.0000 0.0000
# 4 0.0000 0.0000 0.0000 26.4985 0.0000 0.0000
# 5 0.0000 0.0000 0.0000 0.0000 26.4985 0.0000
# 6 -3.1984 3.1984 0.0000 0.0000 0.0000 20.3398
#
#
#
# Elastic Compliance Matrix: (Units=1/GPa)
#
#
# Indices 1 2 3 4 5 6 
#
# 1 0.017164 0.000519 -0.003973 0.000000 0.000000 0.002617
# 2 0.000519 0.017164 -0.003973 0.000000 0.000000 -0.002617
# 3 -0.003973 -0.003973 0.009324 0.000000 0.000000 0.000000
# 4 0.000000 0.000000 0.000000 0.037738 0.000000 0.000000
# 5 0.000000 0.000000 0.000000 0.000000 0.037738 0.000000
# 6 0.002617 -0.002617 0.000000 0.000000 0.000000 0.049988
#
#
# Mechanical properties :
#
#
# Convention : Reuss Voigt Hill
#
# Bulk Modulus (GPa) = 34.72849 43.53438 39.13144
# Shear Modulus (GPa) = 25.83040 27.97673 26.90357
#
# Velocity S-wave (km/s) = 3.42460 3.56404 3.49502
# Velocity P-wave (km/s) = 5.60403 6.05827 5.83557
#
# Compressibility (1/GPa) = 0.02879480
#
# Stress axis : x y z
#
# Youngs Moduli (GPa) = 58.26163 58.26163 107.25393
#
# Poissons Ratio (x) = -0.03021 0.42617
# Poissons Ratio (y) = -0.03021 0.42617
# Poissons Ratio (z) = 0.23150 0.23150
#
# Static dielectric constant tensor:
#      x y z
#    x 3.897300 0.000000 0.000000 
#    y 0.000000 3.897300 0.000000 
#    z 0.000000 0.000000 4.665330 
# 
# 
# High freq. dielectric constant tensor:
#      x y z
#    x 1.851830 0.000000 0.000000 
#    y 0.000000 1.851830 0.000000 
#    z 0.000000 0.000000 1.886240 
# 
# From -- ./inp_files/5280.got.cif
#   From: 2010.03.12/outbox.cif.g09.slc.cpg/sg87_3_cif.got.tgz:5280.got - 2010.04.08 20:16:13.
