data_PCOD8303565
_publ_section_title
;
Structure prediction by ZEFSAII (Michael W. Deem and Ramdas Pophale) SiO2 
 PCOD8303565
Probable space group: P 42/N
;
_chemical_formula_sum "Si O2"
_cell_formula_units_Z 32
_cell_length_a 15.046595
_cell_length_b 15.046595
_cell_length_c 6.492112
_cell_angle_alpha 90.000000
_cell_angle_beta 90.000000
_cell_angle_gamma 90.000000
_cell_volume 1469.814294
_symmetry_space_group_name_H-M "P 42/N"
_symmetry_group_IT_number 86
_space_group.IT_coordinate_system_code '2'
_symmetry_cell_setting 'tetragonal'
loop_
_space_group_symop_operation_xyz
x,y,z
-y,1/2+x,1/2+z
1/2-x,1/2-y,z
1/2+y,-x,1/2+z
-x,-y,-z
y,1/2-x,1/2-z
1/2+x,1/2+y,-z
1/2-y,x,1/2-z
loop_
_atom_site_type_symbol
_atom_site_label
_atom_site_fract_x
_atom_site_fract_y
_atom_site_fract_z
Si Si1 0.117096 0.453833 0.839839
Si Si2 0.204978 0.541140 0.456681
Si Si3 0.732338 0.882699 0.817575
Si Si4 0.075646 0.614679 0.141411
O O1 0.153638 0.481475 0.620403
O O2 0.028023 0.396795 0.802069
O O3 0.188718 0.391713 0.956588
O O4 0.100586 0.542093 0.972307
O O5 0.247698 0.478358 0.282785
O O6 0.134426 0.606688 0.348376
O O7 0.286370 0.595231 0.556925
O O8 0.826622 0.833368 0.833141
#
# Coordination Sequence:
#
# PCOD8303565 Si02
#       4
#     8   8   8   8
#     4  10  22  41  65  90 132 172 215 267 332 394
#     4  11  23  40  68  93 128 177 220 272 326 403
#     4  10  21  36  59  98 138 169 214 273 327 398
#     4  10  23  43  61  96 127 171 220 270 330 387
#
# _framework density 21.771459
#
# number of rings (size 3 to 8) (size 9 to 14) (size 15 to 20)
#    0.000    1.750    2.500    0.750    3.500    4.000 
#    0.000    6.250    0.000    0.000    0.000    0.000 
#    0.000    0.000    0.000    0.000    0.000    0.000 
#
# Total GULP energy -396874.673026 kJ/mol
# GULP energy per Si atom -12402.333532 kJ/mol
# Density = 2.172191 g / cm^3
# Si number density = 21.771459 Si / 1000 Ang^3
#
#
#
# Elastic Constant Matrix: (Units=GPa)
#
#
# Indices 1 2 3 4 5 6 
#
# 1 89.4274 30.2374 45.8731 0.0000 0.0000 -7.6078
# 2 30.2374 89.4274 45.8731 0.0000 0.0000 7.6078
# 3 45.8731 45.8731 98.6026 0.0000 0.0000 0.0000
# 4 0.0000 0.0000 0.0000 37.9576 0.0000 0.0000
# 5 0.0000 0.0000 0.0000 0.0000 37.9576 0.0000
# 6 -7.6078 7.6078 0.0000 0.0000 0.0000 19.7897
#
#
#
# Elastic Compliance Matrix: (Units=1/GPa)
#
#
# Indices 1 2 3 4 5 6 
#
# 1 0.015869 -0.002879 -0.006043 0.000000 0.000000 0.007207
# 2 -0.002879 0.015869 -0.006043 0.000000 0.000000 -0.007207
# 3 -0.006043 -0.006043 0.015765 0.000000 0.000000 0.000000
# 4 0.000000 0.000000 0.000000 0.026345 0.000000 0.000000
# 5 0.000000 0.000000 0.000000 0.000000 0.026345 0.000000
# 6 0.007207 -0.007207 0.000000 0.000000 0.000000 0.056073
#
#
# Mechanical properties :
#
#
# Convention : Reuss Voigt Hill
#
# Bulk Modulus (GPa) = 56.91042 57.93604 57.42323
# Shear Modulus (GPa) = 26.03438 29.50591 27.77014
#
# Velocity S-wave (km/s) = 3.46179 3.68537 3.57533
# Velocity P-wave (km/s) = 6.49425 6.69164 6.59369
#
# Compressibility (1/GPa) = 0.01757148
#
# Stress axis : x y z
#
# Youngs Moduli (GPa) = 63.01681 63.01681 63.43209
#
# Poissons Ratio (x) = 0.18140 0.38335
# Poissons Ratio (y) = 0.18140 0.38335
# Poissons Ratio (z) = 0.38084 0.38084
#
# Static dielectric constant tensor:
#      x y z
#    x 3.896250 0.000000 0.000000 
#    y 0.000000 3.896250 0.000000 
#    z 0.000000 0.000000 3.792120 
# 
# 
# High freq. dielectric constant tensor:
#      x y z
#    x 1.851890 0.000000 0.000000 
#    y 0.000000 1.851890 0.000000 
#    z 0.000000 0.000000 1.851860 
# 
# From -- ./inp_files/251.got.cif
#   From: 2010.03.12/outbox.cif.g09.slc.cpg/sg86_1_cif.got.tgz:251.got - 2010.04.08 20:12:58.
