data_PCOD8303808
_publ_section_title
;
Structure prediction by ZEFSAII (Michael W. Deem and Ramdas Pophale) SiO2 
 PCOD8303808
Probable space group: I 4/M
;
_chemical_formula_sum "Si O2"
_cell_formula_units_Z 96
_cell_length_a 21.077140
_cell_length_b 21.077140
_cell_length_c 11.764403
_cell_angle_alpha 90.000000
_cell_angle_beta 90.000000
_cell_angle_gamma 90.000000
_cell_volume 5226.286982
_symmetry_space_group_name_H-M "I 4/M"
_symmetry_group_IT_number 87
_symmetry_cell_setting 'tetragonal'
loop_
_space_group_symop_operation_xyz
x,y,z
-y,x,z
-x,-y,z
y,-x,z
-x,-y,-z
y,-x,-z
x,y,-z
-y,x,-z
1/2+x,1/2+y,1/2+z
1/2-y,1/2+x,1/2+z
1/2-x,1/2-y,1/2+z
1/2+y,1/2-x,1/2+z
1/2-x,1/2-y,1/2-z
1/2+y,1/2-x,1/2-z
1/2+x,1/2+y,1/2-z
1/2-y,1/2+x,1/2-z
loop_
_atom_site_type_symbol
_atom_site_label
_atom_site_fract_x
_atom_site_fract_y
_atom_site_fract_z
Si Si1 0.005024 0.598113 0.764520
Si Si2 0.792578 0.423021 0.815726
Si Si3 0.327123 0.105454 0.122047
Si Si4 0.153122 0.765596 0.292246
Si Si5 0.810813 0.046687 0.500000
Si Si6 0.338606 0.403643 0.000000
Si Si7 0.253684 0.665038 0.632713
O O1 0.054470 0.553830 0.691813
O O2 0.046177 0.624453 0.869440
O O3 0.980895 0.657401 0.690103
O O4 0.826921 0.363218 0.874645
O O5 0.771842 0.400521 0.688886
O O6 0.732195 0.443855 0.888383
O O7 0.276191 0.102174 0.222656
O O8 0.292944 0.101247 0.000000
O O9 0.114767 0.802357 0.386380
O O10 0.203570 0.721887 0.357155
O O11 0.184239 0.814201 0.202756
O O12 0.869724 0.093965 0.500000
O O13 0.844915 0.979070 0.500000
O O14 0.269193 0.652735 0.500000
#
# Coordination Sequence:
#
# PCOD8303808 Si02
#       7
#    16  16  16  16   8   8  16
#     4   9  19  36  51  75 118 166 212 244 272 333
#     4  10  20  36  55  82 118 154 194 245 298 346
#     4  10  19  33  56  83 116 158 200 241 290 346
#     4  10  20  34  56  88 122 148 190 236 303 359
#     4  12  24  41  62  85 116 146 194 244 303 362
#     4  12  24  41  62  88 116 156 192 240 304 349
#     4  10  19  32  58  89 122 151 189 241 297 359
#
# _framework density 18.368682
#
# number of rings (size 3 to 8) (size 9 to 14) (size 15 to 20)
#    0.000    1.833    3.333    1.500    0.000    0.833 
#    1.500    1.667    0.000    0.000    0.000    0.000 
#    0.000    1.333    0.000    0.000    0.000    0.000 
#
# Total GULP energy -594918.726411 kJ/mol
# GULP energy per Si atom -12394.140134 kJ/mol
# Density = 1.832687 g / cm^3
# Si number density = 18.368682 Si / 1000 Ang^3
#
#
#
# Elastic Constant Matrix: (Units=GPa)
#
#
# Indices 1 2 3 4 5 6 
#
# 1 107.9639 59.2152 51.8797 0.0000 0.0000 2.4519
# 2 59.2152 107.9639 51.8797 0.0000 0.0000 -2.4519
# 3 51.8797 51.8797 138.8214 0.0000 0.0000 0.0000
# 4 0.0000 0.0000 0.0000 17.7831 0.0000 0.0000
# 5 0.0000 0.0000 0.0000 0.0000 17.7831 0.0000
# 6 2.4519 -2.4519 0.0000 0.0000 0.0000 34.9514
#
#
#
# Elastic Compliance Matrix: (Units=1/GPa)
#
#
# Indices 1 2 3 4 5 6 
#
# 1 0.014224 -0.006436 -0.002910 0.000000 0.000000 -0.001449
# 2 -0.006436 0.014224 -0.002910 0.000000 0.000000 0.001449
# 3 -0.002910 -0.002910 0.009379 0.000000 0.000000 0.000000
# 4 0.000000 0.000000 0.000000 0.056233 0.000000 0.000000
# 5 0.000000 0.000000 0.000000 0.000000 0.056233 0.000000
# 6 -0.001449 0.001449 0.000000 0.000000 0.000000 0.028814
#
#
# Mechanical properties :
#
#
# Convention : Reuss Voigt Hill
#
# Bulk Modulus (GPa) = 75.11502 75.63314 75.37408
# Shear Modulus (GPa) = 24.03180 26.88851 25.46016
#
# Velocity S-wave (km/s) = 3.62097 3.83015 3.72703
# Velocity P-wave (km/s) = 7.64615 7.79900 7.72296
#
# Compressibility (1/GPa) = 0.01331292
#
# Stress axis : x y z
#
# Youngs Moduli (GPa) = 70.30587 70.30587 106.62242
#
# Poissons Ratio (x) = 0.45246 0.31032
# Poissons Ratio (y) = 0.45246 0.31032
# Poissons Ratio (z) = 0.20462 0.20462
#
# Static dielectric constant tensor:
#      x y z
#    x 3.386580 0.000000 0.000000 
#    y 0.000000 3.386580 0.000000 
#    z 0.000000 0.000000 3.245810 
# 
# 
# High freq. dielectric constant tensor:
#      x y z
#    x 1.700880 0.000000 0.000000 
#    y 0.000000 1.700880 0.000000 
#    z 0.000000 0.000000 1.702110 
# 
# From -- ./inp_files/2797.got.cif
#   From: 2010.03.12/outbox.cif.g09.slc.cpg/sg87_2_cif.got.tgz:2797.got - 2010.04.08 20:16:13.
