data_PCOD8303824
_publ_section_title
;
Structure prediction by ZEFSAII (Michael W. Deem and Ramdas Pophale) SiO2 
 PCOD8303824
Probable space group: I 4/M
;
_chemical_formula_sum "Si O2"
_cell_formula_units_Z 84
_cell_length_a 19.267153
_cell_length_b 19.267153
_cell_length_c 12.726385
_cell_angle_alpha 90.000000
_cell_angle_beta 90.000000
_cell_angle_gamma 90.000000
_cell_volume 4724.329170
_symmetry_space_group_name_H-M "I 4/M"
_symmetry_group_IT_number 87
_symmetry_cell_setting 'tetragonal'
loop_
_space_group_symop_operation_xyz
x,y,z
-y,x,z
-x,-y,z
y,-x,z
-x,-y,-z
y,-x,-z
x,y,-z
-y,x,-z
1/2+x,1/2+y,1/2+z
1/2-y,1/2+x,1/2+z
1/2-x,1/2-y,1/2+z
1/2+y,1/2-x,1/2+z
1/2-x,1/2-y,1/2-z
1/2+y,1/2-x,1/2-z
1/2+x,1/2+y,1/2-z
1/2-y,1/2+x,1/2-z
loop_
_atom_site_type_symbol
_atom_site_label
_atom_site_fract_x
_atom_site_fract_y
_atom_site_fract_z
Si Si1 0.000000 0.500000 0.250000
Si Si2 0.801186 0.304140 0.882144
Si Si3 0.581632 0.846104 0.619988
Si Si4 0.714228 0.348275 0.694807
Si Si5 0.593600 0.436988 0.621382
Si Si6 0.128801 0.434685 0.302218
O O1 0.047774 0.452613 0.326523
O O2 0.743944 0.343580 0.812792
O O3 0.812568 0.225898 0.844032
O O4 0.875850 0.341794 0.878413
O O5 0.773061 0.306063 0.000000
O O6 0.570011 0.870430 0.500000
O O7 0.623839 0.774372 0.618505
O O8 0.507504 0.830773 0.678692
O O9 0.627329 0.904662 0.681750
O O10 0.649227 0.400063 0.695949
O O11 0.594752 0.518462 0.646317
O O12 0.612851 0.423428 0.500000
#
# Coordination Sequence:
#
# PCOD8303824 Si02
#       6
#     4  16  16  16  16  16
#     4   8  16  36  50  72 112 134 164 216 250 292
#     4  10  20  35  53  77 107 138 172 214 256 304
#     4  10  19  34  52  74 107 139 171 216 262 306
#     4  10  21  34  53  79 105 136 175 213 257 315
#     4   9  18  32  52  81 109 131 164 214 269 313
#     4   9  19  33  51  78 102 135 177 208 251 314
#
# _framework density 17.780301999999999
#
# number of rings (size 3 to 8) (size 9 to 14) (size 15 to 20)
#    0.000    2.476    0.000    2.857    2.667    0.000 
#    0.000   32.857    0.000    1.143    0.000    1.333 
#    0.000    0.000    0.000    0.000    0.000    0.000 
#
# Total GULP energy -520463.980513 kJ/mol
# GULP energy per Si atom -12391.999536 kJ/mol
# Density = 1.773983 g / cm^3
# Si number density = 17.780302 Si / 1000 Ang^3
#
#
#
# Elastic Constant Matrix: (Units=GPa)
#
#
# Indices 1 2 3 4 5 6 
#
# 1 78.7469 46.2947 27.1717 0.0000 0.0000 -2.5010
# 2 46.2947 78.7469 27.1717 0.0000 0.0000 2.5010
# 3 27.1717 27.1717 89.6791 0.0000 0.0000 0.0000
# 4 0.0000 0.0000 0.0000 19.1902 0.0000 0.0000
# 5 0.0000 0.0000 0.0000 0.0000 19.1902 0.0000
# 6 -2.5010 2.5010 0.0000 0.0000 0.0000 39.4215
#
#
#
# Elastic Compliance Matrix: (Units=1/GPa)
#
#
# Indices 1 2 3 4 5 6 
#
# 1 0.020164 -0.010954 -0.002791 0.000000 0.000000 0.001974
# 2 -0.010954 0.020164 -0.002791 0.000000 0.000000 -0.001974
# 3 -0.002791 -0.002791 0.012842 0.000000 0.000000 0.000000
# 4 0.000000 0.000000 0.000000 0.052110 0.000000 0.000000
# 5 0.000000 0.000000 0.000000 0.000000 0.052110 0.000000
# 6 0.001974 -0.001974 0.000000 0.000000 0.000000 0.025617
#
#
# Mechanical properties :
#
#
# Convention : Reuss Voigt Hill
#
# Bulk Modulus (GPa) = 49.75151 49.82768 49.78959
# Shear Modulus (GPa) = 22.44374 25.32935 23.88655
#
# Velocity S-wave (km/s) = 3.55671 3.77845 3.66926
# Velocity P-wave (km/s) = 6.70141 6.86444 6.78341
#
# Compressibility (1/GPa) = 0.02009989
#
# Stress axis : x y z
#
# Youngs Moduli (GPa) = 49.59214 49.59214 77.87019
#
# Poissons Ratio (x) = 0.54325 0.21730
# Poissons Ratio (y) = 0.54325 0.21730
# Poissons Ratio (z) = 0.13839 0.13839
#
# Static dielectric constant tensor:
#      x y z
#    x 3.403700 0.000000 0.000000 
#    y 0.000000 3.403700 0.000000 
#    z 0.000000 0.000000 3.097570 
# 
# 
# High freq. dielectric constant tensor:
#      x y z
#    x 1.691530 0.000000 0.000000 
#    y 0.000000 1.691530 0.000000 
#    z 0.000000 0.000000 1.661000 
# 
# From -- ./inp_files/2639.got.cif
#   From: 2010.03.12/outbox.cif.g09.slc.cpg/sg87_2_cif.got.tgz:2639.got - 2010.04.08 20:16:13.
