data_PCOD8303532
_publ_section_title
;
Structure prediction by ZEFSAII (Michael W. Deem and Ramdas Pophale) SiO2 
 PCOD8303532
Probable space group: P 42/N
;
_chemical_formula_sum "Si O2"
_cell_formula_units_Z 64
_cell_length_a 11.961602
_cell_length_b 11.961602
_cell_length_c 22.240664
_cell_angle_alpha 90.000000
_cell_angle_beta 90.000000
_cell_angle_gamma 90.000000
_cell_volume 3182.192479
_symmetry_space_group_name_H-M "P 42/N"
_symmetry_group_IT_number 86
_space_group.IT_coordinate_system_code '2'
_symmetry_cell_setting 'tetragonal'
loop_
_space_group_symop_operation_xyz
x,y,z
-y,1/2+x,1/2+z
1/2-x,1/2-y,z
1/2+y,-x,1/2+z
-x,-y,-z
y,1/2-x,1/2-z
1/2+x,1/2+y,-z
1/2-y,x,1/2-z
loop_
_atom_site_type_symbol
_atom_site_label
_atom_site_fract_x
_atom_site_fract_y
_atom_site_fract_z
Si Si1 0.346099 0.841146 0.158596
Si Si2 0.886280 0.986771 0.236019
Si Si3 0.542259 0.675402 0.329535
Si Si4 0.143002 0.437518 0.288975
Si Si5 0.883441 0.968251 0.430058
Si Si6 0.793168 0.122206 0.653377
Si Si7 0.637647 0.539544 0.562318
Si Si8 0.408288 0.285094 0.341852
O O1 0.250000 0.750000 0.160519
O O2 0.412978 0.840599 0.221428
O O3 0.434473 0.815601 0.105019
O O4 0.285216 0.959272 0.147234
O O5 0.891293 0.871563 0.272172
O O6 0.807860 0.969382 0.177842
O O7 0.007528 0.019543 0.210315
O O8 0.609589 0.645193 0.390230
O O9 0.421958 0.615978 0.327678
O O10 0.227269 0.541258 0.301008
O O11 0.143259 0.340459 0.339578
O O12 0.159225 0.382178 0.223054
O O13 0.823762 0.938532 0.493399
O O14 0.007589 0.012437 0.439561
O O15 0.750000 0.250000 0.651721
O O16 0.788618 0.065055 0.587070
O O17 0.655569 0.646987 0.605684
#
# Coordination Sequence:
#
# PCOD8303532 Si02
#       8
#     8   8   8   8   8   8   8   8
#     4   9  19  32  54  87 111 144 189 239 293 334
#     4  10  21  32  56  80 115 152 181 239 294 361
#     4  10  20  37  55  84 112 145 196 232 289 343
#     4  11  21  34  53  85 122 153 182 232 305 355
#     4   8  17  36  57  80 108 147 194 240 276 336
#     4  11  21  34  55  86 116 151 190 237 289 348
#     4   9  18  35  57  80 111 150 194 234 283 338
#     4  10  21  34  52  84 117 154 185 228 294 362
#
# _framework density 20.111920999999999
#
# number of rings (size 3 to 8) (size 9 to 14) (size 15 to 20)
#    0.000    2.250    1.250    3.750    5.250    2.500 
#    0.000    0.000    0.000    6.750    0.000    0.000 
#    0.000    0.000    0.000    0.000    0.000    0.000 
#
# Total GULP energy -793070.318254 kJ/mol
# GULP energy per Si atom -12391.723723 kJ/mol
# Density = 2.006615 g / cm^3
# Si number density = 20.111921 Si / 1000 Ang^3
#
#
#
# Elastic Constant Matrix: (Units=GPa)
#
#
# Indices 1 2 3 4 5 6 
#
# 1 79.4325 22.3178 36.1219 0.0000 0.0000 -0.7986
# 2 22.3178 79.4325 36.1219 0.0000 0.0000 0.7986
# 3 36.1219 36.1219 119.4905 0.0000 0.0000 0.0000
# 4 0.0000 0.0000 0.0000 20.2538 0.0000 0.0000
# 5 0.0000 0.0000 0.0000 0.0000 20.2538 0.0000
# 6 -0.7986 0.7986 0.0000 0.0000 0.0000 30.0195
#
#
#
# Elastic Compliance Matrix: (Units=1/GPa)
#
#
# Indices 1 2 3 4 5 6 
#
# 1 0.015018 -0.002504 -0.003783 0.000000 0.000000 0.000466
# 2 -0.002504 0.015018 -0.003783 0.000000 0.000000 -0.000466
# 3 -0.003783 -0.003783 0.010656 0.000000 0.000000 0.000000
# 4 0.000000 0.000000 0.000000 0.049373 0.000000 0.000000
# 5 0.000000 0.000000 0.000000 0.000000 0.049373 0.000000
# 6 0.000466 -0.000466 0.000000 0.000000 0.000000 0.033336
#
#
# Mechanical properties :
#
#
# Convention : Reuss Voigt Hill
#
# Bulk Modulus (GPa) = 48.65692 51.94209 50.29950
# Shear Modulus (GPa) = 25.02939 26.35835 25.69387
#
# Velocity S-wave (km/s) = 3.53158 3.62413 3.57815
# Velocity P-wave (km/s) = 6.39336 6.58749 6.49115
#
# Compressibility (1/GPa) = 0.02055206
#
# Stress axis : x y z
#
# Youngs Moduli (GPa) = 66.58767 66.58767 93.84360
#
# Poissons Ratio (x) = 0.16673 0.35501
# Poissons Ratio (y) = 0.16673 0.35501
# Poissons Ratio (z) = 0.25190 0.25190
#
# Static dielectric constant tensor:
#      x y z
#    x 3.572930 0.000000 0.000000 
#    y 0.000000 3.572930 0.000000 
#    z 0.000000 0.000000 3.876350 
# 
# 
# High freq. dielectric constant tensor:
#      x y z
#    x 1.776040 0.000000 0.000000 
#    y 0.000000 1.776040 0.000000 
#    z 0.000000 0.000000 1.762360 
# 
# From -- ./inp_files/4698.got.cif
#   From: 2010.03.12/outbox.cif.g09.slc.cpg/sg86_3_cif.got.tgz:4698.got - 2010.04.08 20:12:58.
