data_PCOD8303763
_publ_section_title
;
Structure prediction by ZEFSAII (Michael W. Deem and Ramdas Pophale) SiO2 
 PCOD8303763
Probable space group: I 4/M
;
_chemical_formula_sum "Si O2"
_cell_formula_units_Z 88
_cell_length_a 15.545426
_cell_length_b 15.545426
_cell_length_c 22.979883
_cell_angle_alpha 90.000000
_cell_angle_beta 90.000000
_cell_angle_gamma 90.000000
_cell_volume 5553.324719
_symmetry_space_group_name_H-M "I 4/M"
_symmetry_group_IT_number 87
_symmetry_cell_setting 'tetragonal'
loop_
_space_group_symop_operation_xyz
x,y,z
-y,x,z
-x,-y,z
y,-x,z
-x,-y,-z
y,-x,-z
x,y,-z
-y,x,-z
1/2+x,1/2+y,1/2+z
1/2-y,1/2+x,1/2+z
1/2-x,1/2-y,1/2+z
1/2+y,1/2-x,1/2+z
1/2-x,1/2-y,1/2-z
1/2+y,1/2-x,1/2-z
1/2+x,1/2+y,1/2-z
1/2-y,1/2+x,1/2-z
loop_
_atom_site_type_symbol
_atom_site_label
_atom_site_fract_x
_atom_site_fract_y
_atom_site_fract_z
Si Si1 0.636744 0.318135 0.381464
Si Si2 0.872476 0.932528 0.000000
Si Si3 0.120728 0.561435 0.252955
Si Si4 0.267128 0.808264 0.692200
Si Si5 0.424179 0.383245 0.793917
Si Si6 0.210788 0.963986 0.821163
O O1 0.596715 0.313497 0.445591
O O2 0.707623 0.246299 0.364946
O O3 0.684724 0.410056 0.378139
O O4 0.563196 0.307058 0.332541
O O5 0.965054 0.885934 0.000000
O O6 0.102104 0.468446 0.223320
O O7 0.156427 0.624524 0.203735
O O8 0.189564 0.551920 0.304940
O O9 0.250000 0.750000 0.750000
O O10 0.184296 0.863976 0.672277
O O11 0.525062 0.382612 0.809750
O O12 0.424155 0.353835 0.726796
#
# Coordination Sequence:
#
# PCOD8303763 Si02
#       6
#    16   8  16  16  16  16
#     4  12  21  34  49  73 104 143 176 213 247 299
#     4  11  24  36  52  76 103 140 185 215 246 301
#     4  10  20  31  45  71 105 137 171 204 256 318
#     4  11  20  30  49  73 103 136 176 208 256 314
#     4  10  19  29  46  75 107 137 161 200 263 320
#     4  11  19  29  49  70 103 137 173 206 256 295
#
# _framework density 15.846363
#
# number of rings (size 3 to 8) (size 9 to 14) (size 15 to 20)
#    0.000    1.182    9.091    0.000    2.545    0.364 
#    0.000    0.000    0.000    0.000    0.000    7.636 
#    0.000    1.455    0.000    0.000    0.000    0.000 
#
# Total GULP energy -545091.050615 kJ/mol
# GULP energy per Si atom -12388.432969 kJ/mol
# Density = 1.581030 g / cm^3
# Si number density = 15.846363 Si / 1000 Ang^3
#
#
#
# Elastic Constant Matrix: (Units=GPa)
#
#
# Indices 1 2 3 4 5 6 
#
# 1 97.4544 56.6976 24.5814 0.0000 0.0000 -2.0974
# 2 56.6976 97.4544 24.5814 0.0000 0.0000 2.0974
# 3 24.5814 24.5814 51.9890 0.0000 0.0000 0.0000
# 4 0.0000 0.0000 0.0000 17.7675 0.0000 0.0000
# 5 0.0000 0.0000 0.0000 0.0000 17.7675 0.0000
# 6 -2.0974 2.0974 0.0000 0.0000 0.0000 36.9350
#
#
#
# Elastic Compliance Matrix: (Units=1/GPa)
#
#
# Indices 1 2 3 4 5 6 
#
# 1 0.016160 -0.008521 -0.003612 0.000000 0.000000 0.001401
# 2 -0.008521 0.016160 -0.003612 0.000000 0.000000 -0.001401
# 3 -0.003612 -0.003612 0.022650 0.000000 0.000000 0.000000
# 4 0.000000 0.000000 0.000000 0.056283 0.000000 0.000000
# 5 0.000000 0.000000 0.000000 0.000000 0.056283 0.000000
# 6 0.001401 -0.001401 0.000000 0.000000 0.000000 0.027234
#
#
# Mechanical properties :
#
#
# Convention : Reuss Voigt Hill
#
# Bulk Modulus (GPa) = 42.58781 50.95763 46.77272
# Shear Modulus (GPa) = 21.35987 23.89649 22.62818
#
# Velocity S-wave (km/s) = 3.67541 3.88752 3.78295
# Velocity P-wave (km/s) = 6.70412 7.23724 6.97577
#
# Compressibility (1/GPa) = 0.02348090
#
# Stress axis : x y z
#
# Youngs Moduli (GPa) = 61.88302 61.88302 44.14939
#
# Poissons Ratio (x) = 0.52727 0.15946
# Poissons Ratio (y) = 0.52727 0.15946
# Poissons Ratio (z) = 0.22351 0.22351
#
# Static dielectric constant tensor:
#      x y z
#    x 3.245510 0.000000 0.000000 
#    y 0.000000 3.245510 0.000000 
#    z 0.000000 0.000000 2.481970 
# 
# 
# High freq. dielectric constant tensor:
#      x y z
#    x 1.625610 0.000000 0.000000 
#    y 0.000000 1.625610 0.000000 
#    z 0.000000 0.000000 1.534570 
# 
# From -- ./inp_files/5170.got.cif
#   From: 2010.03.12/outbox.cif.g09.slc.cpg/sg87_3_cif.got.tgz:5170.got - 2010.04.08 20:16:13.
