data_PCOD8303602
_publ_section_title
;
Structure prediction by ZEFSAII (Michael W. Deem and Ramdas Pophale) SiO2 
 PCOD8303602
Probable space group: P 42/N
;
_chemical_formula_sum "Si O2"
_cell_formula_units_Z 40
_cell_length_a 14.354178
_cell_length_b 14.354178
_cell_length_c 8.875842
_cell_angle_alpha 90.000000
_cell_angle_beta 90.000000
_cell_angle_gamma 90.000000
_cell_volume 1828.800019
_symmetry_space_group_name_H-M "P 42/N"
_symmetry_group_IT_number 86
_space_group.IT_coordinate_system_code '2'
_symmetry_cell_setting 'tetragonal'
loop_
_space_group_symop_operation_xyz
x,y,z
-y,1/2+x,1/2+z
1/2-x,1/2-y,z
1/2+y,-x,1/2+z
-x,-y,-z
y,1/2-x,1/2-z
1/2+x,1/2+y,-z
1/2-y,x,1/2-z
loop_
_atom_site_type_symbol
_atom_site_label
_atom_site_fract_x
_atom_site_fract_y
_atom_site_fract_z
Si Si1 0.464165 0.502928 0.333869
Si Si2 0.659958 0.867514 0.698550
Si Si3 0.126370 0.705178 0.786525
Si Si4 0.374897 0.802302 0.437297
Si Si5 0.415966 0.448190 0.920019
O O1 0.500000 0.500000 0.500000
O O2 0.453546 0.396340 0.274804
O O3 0.358544 0.537875 0.319061
O O4 0.538423 0.569963 0.244493
O O5 0.768137 0.877761 0.738961
O O6 0.640907 0.878419 0.516219
O O7 0.118186 0.800006 0.885699
O O8 0.136959 0.727049 0.610268
O O9 0.215190 0.645115 0.832757
O O10 0.480120 0.831238 0.403709
O O11 0.500000 0.500000 0.000000
#
# Coordination Sequence:
#
# PCOD8303602 Si02
#       5
#     8   8   8   8   8
#     4  11  26  39  64  99 127 167 219 272 331 392
#     4  10  23  45  69  90 125 179 224 267 333 401
#     4  11  24  39  62  94 127 172 206 270 326 388
#     4  11  23  40  63  93 129 169 212 266 331 392
#     4  10  22  42  63  89 126 165 215 269 324 385
#
# _framework density 21.872267000000001
#
# number of rings (size 3 to 8) (size 9 to 14) (size 15 to 20)
#    0.000    1.400    4.000    2.400   14.000    0.000 
#    0.000    0.000    0.000    2.400    0.000    0.000 
#    0.000    0.000    0.000    0.000    0.000    0.000 
#
# Total GULP energy -495566.236599 kJ/mol
# GULP energy per Si atom -12389.155915 kJ/mol
# Density = 2.182248 g / cm^3
# Si number density = 21.872267 Si / 1000 Ang^3
#
#
#
# Elastic Constant Matrix: (Units=GPa)
#
#
# Indices 1 2 3 4 5 6 
#
# 1 64.9111 17.1181 30.0817 0.0000 0.0000 3.2657
# 2 17.1181 64.9111 30.0817 0.0000 0.0000 -3.2657
# 3 30.0817 30.0817 144.5911 0.0000 0.0000 0.0000
# 4 0.0000 0.0000 0.0000 28.1133 0.0000 0.0000
# 5 0.0000 0.0000 0.0000 0.0000 28.1133 0.0000
# 6 3.2657 -3.2657 0.0000 0.0000 0.0000 32.8673
#
#
#
# Elastic Compliance Matrix: (Units=1/GPa)
#
#
# Indices 1 2 3 4 5 6 
#
# 1 0.017799 -0.003413 -0.002993 0.000000 0.000000 -0.002108
# 2 -0.003413 0.017799 -0.002993 0.000000 0.000000 0.002108
# 3 -0.002993 -0.002993 0.008161 0.000000 0.000000 0.000000
# 4 0.000000 0.000000 0.000000 0.035570 0.000000 0.000000
# 5 0.000000 0.000000 0.000000 0.000000 0.035570 0.000000
# 6 -0.002108 0.002108 0.000000 0.000000 0.000000 0.030844
#
#
# Mechanical properties :
#
#
# Convention : Reuss Voigt Hill
#
# Bulk Modulus (GPa) = 40.06176 47.66405 43.86291
# Shear Modulus (GPa) = 28.92484 30.96089 29.94286
#
# Velocity S-wave (km/s) = 3.64049 3.76644 3.70400
# Velocity P-wave (km/s) = 6.00224 6.38389 6.19600
#
# Compressibility (1/GPa) = 0.02496146
#
# Stress axis : x y z
#
# Youngs Moduli (GPa) = 56.18368 56.18368 122.52801
#
# Poissons Ratio (x) = 0.19175 0.36672
# Poissons Ratio (y) = 0.19175 0.36672
# Poissons Ratio (z) = 0.16815 0.16815
#
# Static dielectric constant tensor:
#      x y z
#    x 3.905700 0.000000 0.000000 
#    y 0.000000 3.905700 0.000000 
#    z 0.000000 0.000000 3.615920 
# 
# 
# High freq. dielectric constant tensor:
#      x y z
#    x 1.853440 0.000000 0.000000 
#    y 0.000000 1.853440 0.000000 
#    z 0.000000 0.000000 1.861900 
# 
# From -- ./inp_files/1108.got.cif
#   From: 2010.03.12/outbox.cif.g09.slc.cpg/sg86_1_cif.got.tgz:1108.got - 2010.04.08 20:12:58.
