data_PCOD8303108
_publ_section_title
;
Structure prediction by ZEFSAII (Michael W. Deem and Ramdas Pophale) SiO2 
 PCOD8303108
Probable space group: P 42/M
;
_chemical_formula_sum "Si O2"
_cell_formula_units_Z 56
_cell_length_a 14.771478
_cell_length_b 14.771478
_cell_length_c 14.202007
_cell_angle_alpha 90.000000
_cell_angle_beta 90.000000
_cell_angle_gamma 90.000000
_cell_volume 3098.829105
_symmetry_space_group_name_H-M "P 42/M"
_symmetry_group_IT_number 84
_symmetry_cell_setting 'tetragonal'
loop_
_space_group_symop_operation_xyz
x,y,z
-y,x,1/2+z
-x,-y,z
y,-x,1/2+z
-x,-y,-z
y,-x,1/2-z
x,y,-z
-y,x,1/2-z
loop_
_atom_site_type_symbol
_atom_site_label
_atom_site_fract_x
_atom_site_fract_y
_atom_site_fract_z
Si Si1 0.558656 0.416456 0.893143
Si Si2 0.388599 0.299398 0.896639
Si Si3 0.396499 0.248524 0.696133
Si Si4 0.890177 0.094566 0.250492
Si Si5 0.249236 0.123028 0.608192
Si Si6 0.782846 0.580506 0.106991
Si Si7 0.734687 0.082378 0.391150
O O1 0.500000 0.500000 0.853256
O O2 0.492617 0.330498 0.892029
O O3 0.644466 0.395901 0.827405
O O4 0.592520 0.437353 0.000000
O O5 0.374292 0.233155 0.807355
O O6 0.319930 0.383739 0.886996
O O7 0.371296 0.252808 0.000000
O O8 0.321697 0.197883 0.635896
O O9 0.493445 0.205976 0.672560
O O10 0.860414 0.156742 0.163903
O O11 0.825479 0.112561 0.338615
O O12 0.991361 0.117367 0.285068
O O13 0.223920 0.135509 0.500000
O O14 0.289351 0.022704 0.627609
O O15 0.854932 0.653241 0.145829
O O16 0.807087 0.553446 0.000000
O O17 0.753119 0.102480 0.500000
#
# Coordination Sequence:
#
# PCOD8303108 Si02
#       7
#     8   8   8   8   8   8   8
#     4  10  19  31  47  71 102 134 172 216 258 301
#     4  10  21  33  47  71 100 132 175 220 257 299
#     4  12  21  32  52  74 103 145 176 208 262 313
#     4   9  18  34  56  79 104 136 170 207 260 318
#     4  10  21  35  52  80 110 133 166 214 260 309
#     4  10  19  33  52  74  99 133 173 211 254 310
#     4   9  19  35  55  79 106 132 168 216 258 304
#
# _framework density 18.071342000000001
#
# number of rings (size 3 to 8) (size 9 to 14) (size 15 to 20)
#    0.000    2.000    1.429    3.000    0.000    1.143 
#    0.000    5.000    0.000    0.857    0.000    1.000 
#    0.000    0.000    0.000    1.429    0.000    0.286 
#
# Total GULP energy -694354.377774 kJ/mol
# GULP energy per Si atom -12399.185317 kJ/mol
# Density = 1.803021 g / cm^3
# Si number density = 18.071342 Si / 1000 Ang^3
#
#
#
# Elastic Constant Matrix: (Units=GPa)
#
#
# Indices 1 2 3 4 5 6 
#
# 1 81.1941 54.6814 41.4788 0.0000 0.0000 -1.6149
# 2 54.6814 81.1941 41.4788 0.0000 0.0000 1.6149
# 3 41.4788 41.4788 98.0194 0.0000 0.0000 0.0000
# 4 0.0000 0.0000 0.0000 25.8598 0.0000 0.0000
# 5 0.0000 0.0000 0.0000 0.0000 25.8598 0.0000
# 6 -1.6149 1.6149 0.0000 0.0000 0.0000 29.3623
#
#
#
# Elastic Compliance Matrix: (Units=1/GPa)
#
#
# Indices 1 2 3 4 5 6 
#
# 1 0.023948 -0.014024 -0.004199 0.000000 0.000000 0.002088
# 2 -0.014024 0.023948 -0.004199 0.000000 0.000000 -0.002088
# 3 -0.004199 -0.004199 0.013756 0.000000 0.000000 0.000000
# 4 0.000000 0.000000 0.000000 0.038670 0.000000 0.000000
# 5 0.000000 0.000000 0.000000 0.000000 0.038670 0.000000
# 6 0.002088 -0.002088 0.000000 0.000000 0.000000 0.034287
#
#
# Mechanical properties :
#
#
# Convention : Reuss Voigt Hill
#
# Bulk Modulus (GPa) = 59.50304 59.52061 59.51182
# Shear Modulus (GPa) = 22.34868 24.40095 23.37481
#
# Velocity S-wave (km/s) = 3.52048 3.67857 3.60039
# Velocity P-wave (km/s) = 7.03728 7.14496 7.09132
#
# Compressibility (1/GPa) = 0.01680586
#
# Stress axis : x y z
#
# Youngs Moduli (GPa) = 41.75743 41.75743 72.69490
#
# Poissons Ratio (x) = 0.58562 0.30527
# Poissons Ratio (y) = 0.58562 0.30527
# Poissons Ratio (z) = 0.17535 0.17535
#
# Static dielectric constant tensor:
#      x y z
#    x 3.276160 0.000000 0.000000 
#    y 0.000000 3.276160 0.000000 
#    z 0.000000 0.000000 3.487350 
# 
# 
# High freq. dielectric constant tensor:
#      x y z
#    x 1.687130 0.000000 0.000000 
#    y 0.000000 1.687130 0.000000 
#    z 0.000000 0.000000 1.704010 
# 
# From -- ./inp_files/3127.got.cif
#   From: 2010.03.12/outbox.cif.g09.slc.cpg/sg84_2_cif.got.tgz:3127.got - 2010.04.08 20:07:29.
