data_PCOD8303587
_publ_section_title
;
Structure prediction by ZEFSAII (Michael W. Deem and Ramdas Pophale) SiO2 
 PCOD8303587
Probable space group: P 42/N
;
_chemical_formula_sum "Si O2"
_cell_formula_units_Z 48
_cell_length_a 20.865987
_cell_length_b 20.865987
_cell_length_c 5.433396
_cell_angle_alpha 90.000000
_cell_angle_beta 90.000000
_cell_angle_gamma 90.000000
_cell_volume 2365.643098
_symmetry_space_group_name_H-M "P 42/N"
_symmetry_group_IT_number 86
_space_group.IT_coordinate_system_code '2'
_symmetry_cell_setting 'tetragonal'
loop_
_space_group_symop_operation_xyz
x,y,z
-y,1/2+x,1/2+z
1/2-x,1/2-y,z
1/2+y,-x,1/2+z
-x,-y,-z
y,1/2-x,1/2-z
1/2+x,1/2+y,-z
1/2-y,x,1/2-z
loop_
_atom_site_type_symbol
_atom_site_label
_atom_site_fract_x
_atom_site_fract_y
_atom_site_fract_z
Si Si1 0.537566 0.427025 0.403307
Si Si2 0.683028 0.111343 0.071110
Si Si3 0.299683 0.586470 0.202396
Si Si4 0.488815 0.725888 0.072546
Si Si5 0.465129 0.412037 0.909607
Si Si6 0.355697 0.499935 0.820506
O O1 0.557729 0.352404 0.402521
O O2 0.497071 0.439812 0.654636
O O3 0.602417 0.470572 0.405841
O O4 0.500329 0.441739 0.148801
O O5 0.749778 0.131132 0.948135
O O6 0.635075 0.170752 0.100280
O O7 0.698184 0.079235 0.333791
O O8 0.260370 0.526546 0.315571
O O9 0.354222 0.555608 0.029513
O O10 0.537575 0.665651 0.067232
O O11 0.517001 0.782425 0.247794
O O12 0.391433 0.435888 0.916143
#
# Coordination Sequence:
#
# PCOD8303587 Si02
#       6
#     8   8   8   8   8   8
#     4  11  21  38  62  94 125 158 199 264 319 372
#     4  10  22  38  61  82 124 163 216 253 307 366
#     4  11  22  40  62  84 122 176 211 263 309 366
#     4  10  22  40  60  88 123 164 202 262 314 373
#     4  11  24  39  62  97 127 157 207 262 313 384
#     4  11  23  37  64  91 121 162 206 259 328 374
#
# _framework density 20.290468000000001
#
# number of rings (size 3 to 8) (size 9 to 14) (size 15 to 20)
#    0.000    1.333    3.333    3.000    2.333    0.000 
#    0.000    2.500    0.000    0.500    0.000    0.000 
#    0.000    0.000    0.000    0.000    0.000    0.000 
#
# Total GULP energy -594823.377009 kJ/mol
# GULP energy per Si atom -12392.153688 kJ/mol
# Density = 2.024429 g / cm^3
# Si number density = 20.290468 Si / 1000 Ang^3
#
#
#
# Elastic Constant Matrix: (Units=GPa)
#
#
# Indices 1 2 3 4 5 6 
#
# 1 96.6512 65.3689 36.0591 0.0000 0.0000 -1.6992
# 2 65.3689 96.6512 36.0591 0.0000 0.0000 1.6992
# 3 36.0591 36.0591 99.3254 0.0000 0.0000 0.0000
# 4 0.0000 0.0000 0.0000 22.1363 0.0000 0.0000
# 5 0.0000 0.0000 0.0000 0.0000 22.1363 0.0000
# 6 -1.6992 1.6992 0.0000 0.0000 0.0000 19.8878
#
#
#
# Elastic Compliance Matrix: (Units=1/GPa)
#
#
# Indices 1 2 3 4 5 6 
#
# 1 0.019814 -0.012452 -0.002673 0.000000 0.000000 0.002757
# 2 -0.012452 0.019814 -0.002673 0.000000 0.000000 -0.002757
# 3 -0.002673 -0.002673 0.012008 0.000000 0.000000 0.000000
# 4 0.000000 0.000000 0.000000 0.045175 0.000000 0.000000
# 5 0.000000 0.000000 0.000000 0.000000 0.045175 0.000000
# 6 0.002757 -0.002757 0.000000 0.000000 0.000000 0.050753
#
#
# Mechanical properties :
#
#
# Convention : Reuss Voigt Hill
#
# Bulk Modulus (GPa) = 62.33845 63.06688 62.70267
# Shear Modulus (GPa) = 21.39665 23.17478 22.28571
#
# Velocity S-wave (km/s) = 3.25086 3.38324 3.31771
# Velocity P-wave (km/s) = 6.69929 6.81258 6.75617
#
# Compressibility (1/GPa) = 0.01604146
#
# Stress axis : x y z
#
# Youngs Moduli (GPa) = 50.46921 50.46921 83.27481
#
# Poissons Ratio (x) = 0.62846 0.22256
# Poissons Ratio (y) = 0.62846 0.22256
# Poissons Ratio (z) = 0.13488 0.13488
#
# Static dielectric constant tensor:
#      x y z
#    x 3.633980 0.000000 0.000000 
#    y 0.000000 3.633980 0.000000 
#    z 0.000000 0.000000 3.746670 
# 
# 
# High freq. dielectric constant tensor:
#      x y z
#    x 1.773220 0.000000 0.000000 
#    y 0.000000 1.773220 0.000000 
#    z 0.000000 0.000000 1.806330 
# 
# From -- ./inp_files/415.got.cif
#   From: 2010.03.12/outbox.cif.g09.slc.cpg/sg86_1_cif.got.tgz:415.got - 2010.04.08 20:12:58.
