data_PCOD8303389
_publ_section_title
;
Structure prediction by ZEFSAII (Michael W. Deem and Ramdas Pophale) SiO2 
 PCOD8303389
Probable space group: P 42/M
;
_chemical_formula_sum "Si O2"
_cell_formula_units_Z 32
_cell_length_a 7.668434
_cell_length_b 7.668434
_cell_length_c 22.872350
_cell_angle_alpha 90.000000
_cell_angle_beta 90.000000
_cell_angle_gamma 90.000000
_cell_volume 1345.005797
_symmetry_space_group_name_H-M "P 42/M"
_symmetry_group_IT_number 84
_symmetry_cell_setting 'tetragonal'
loop_
_space_group_symop_operation_xyz
x,y,z
-y,x,1/2+z
-x,-y,z
y,-x,1/2+z
-x,-y,-z
y,-x,1/2-z
x,y,-z
-y,x,1/2-z
loop_
_atom_site_type_symbol
_atom_site_label
_atom_site_fract_x
_atom_site_fract_y
_atom_site_fract_z
Si Si1 0.655572 0.741971 0.250290
Si Si2 0.279219 0.145891 0.875206
Si Si3 0.218945 0.383694 0.568639
Si Si4 0.922708 0.317851 0.865277
O O1 0.733972 0.551303 0.238483
O O2 0.696112 0.860885 0.194318
O O3 0.752540 0.830283 0.305916
O O4 0.429605 0.273429 0.902880
O O5 0.079796 0.197734 0.889585
O O6 0.312365 0.960608 0.904350
O O7 0.205570 0.409965 0.500000
O O8 0.350421 0.227341 0.585468
O O9 0.000000 0.500000 0.847248
#
# Coordination Sequence:
#
# PCOD8303389 Si02
#       4
#     8   8   8   8
#     4  11  23  43  70 103 153 185 231 298 383 456
#     4  11  24  44  73 105 141 191 246 299 366 437
#     4  11  27  50  71  99 144 202 253 303 370 439
#     4  12  26  43  70 111 141 187 240 307 372 444
#
# _framework density 23.791717999999999
#
# number of rings (size 3 to 8) (size 9 to 14) (size 15 to 20)
#    0.000    0.750    5.000    2.250    7.000    4.500 
#    0.000    1.250    0.000    0.000    0.000    0.000 
#    0.000    0.000    0.000    0.000    0.000    0.000 
#
# Total GULP energy -396665.943708 kJ/mol
# GULP energy per Si atom -12395.810741 kJ/mol
# Density = 2.373757 g / cm^3
# Si number density = 23.791718 Si / 1000 Ang^3
#
#
#
# Elastic Constant Matrix: (Units=GPa)
#
#
# Indices 1 2 3 4 5 6 
#
# 1 95.6962 30.9374 30.7207 0.0000 0.0000 -6.7645
# 2 30.9374 95.6962 30.7207 0.0000 0.0000 6.7645
# 3 30.7207 30.7207 137.6667 0.0000 0.0000 0.0000
# 4 0.0000 0.0000 0.0000 31.6381 0.0000 0.0000
# 5 0.0000 0.0000 0.0000 0.0000 31.6381 0.0000
# 6 -6.7645 6.7645 0.0000 0.0000 0.0000 37.5140
#
#
#
# Elastic Compliance Matrix: (Units=1/GPa)
#
#
# Indices 1 2 3 4 5 6 
#
# 1 0.012451 -0.003595 -0.001976 0.000000 0.000000 0.002893
# 2 -0.003595 0.012451 -0.001976 0.000000 0.000000 -0.002893
# 3 -0.001976 -0.001976 0.008146 0.000000 0.000000 0.000000
# 4 0.000000 0.000000 0.000000 0.031607 0.000000 0.000000
# 5 0.000000 0.000000 0.000000 0.000000 0.031607 0.000000
# 6 0.002893 -0.002893 0.000000 0.000000 0.000000 0.027700
#
#
# Mechanical properties :
#
#
# Convention : Reuss Voigt Hill
#
# Bulk Modulus (GPa) = 55.70257 57.09074 56.39666
# Shear Modulus (GPa) = 34.47264 35.93674 35.20469
#
# Velocity S-wave (km/s) = 3.81062 3.89070 3.85086
# Velocity P-wave (km/s) = 6.54404 6.65068 6.59757
#
# Compressibility (1/GPa) = 0.01795249
#
# Stress axis : x y z
#
# Youngs Moduli (GPa) = 80.31481 80.31481 122.76133
#
# Poissons Ratio (x) = 0.28876 0.24260
# Poissons Ratio (y) = 0.28876 0.24260
# Poissons Ratio (z) = 0.15871 0.15871
#
# Static dielectric constant tensor:
#      x y z
#    x 5.042490 0.000000 0.000000 
#    y 0.000000 5.042490 0.000000 
#    z 0.000000 0.000000 4.113430 
# 
# 
# High freq. dielectric constant tensor:
#      x y z
#    x 1.946930 0.000000 0.000000 
#    y 0.000000 1.946930 0.000000 
#    z 0.000000 0.000000 1.933080 
# 
# From -- ./inp_files/4131.got.cif
#   From: 2010.03.12/outbox.cif.g09.slc.cpg/sg84_3_cif.got.tgz:4131.got - 2010.04.08 20:07:29.
