data_PCOD8303370
_publ_section_title
;
Structure prediction by ZEFSAII (Michael W. Deem and Ramdas Pophale) SiO2 
 PCOD8303370
Probable space group: P 42/M
;
_chemical_formula_sum "Si O2"
_cell_formula_units_Z 48
_cell_length_a 8.699992
_cell_length_b 8.699992
_cell_length_c 28.977371
_cell_angle_alpha 90.000000
_cell_angle_beta 90.000000
_cell_angle_gamma 90.000000
_cell_volume 2193.293177
_symmetry_space_group_name_H-M "P 42/M"
_symmetry_group_IT_number 84
_symmetry_cell_setting 'tetragonal'
loop_
_space_group_symop_operation_xyz
x,y,z
-y,x,1/2+z
-x,-y,z
y,-x,1/2+z
-x,-y,-z
y,-x,1/2-z
x,y,-z
-y,x,1/2-z
loop_
_atom_site_type_symbol
_atom_site_label
_atom_site_fract_x
_atom_site_fract_y
_atom_site_fract_z
Si Si1 0.753401 0.587723 0.000000
Si Si2 0.851532 0.249014 0.899382
Si Si3 0.728451 0.934593 0.500000
Si Si4 0.615584 0.272326 0.250447
Si Si5 0.446849 0.663814 0.597435
Si Si6 0.938646 0.670542 0.666507
Si Si7 0.759265 0.157330 0.338872
O O1 0.848951 0.432211 0.000000
O O2 0.643283 0.602230 0.044178
O O3 0.880861 0.721056 0.000000
O O4 0.796542 0.425346 0.898564
O O5 0.715014 0.140228 0.881919
O O6 0.993556 0.237138 0.864009
O O7 0.889705 0.189663 0.951466
O O8 0.433746 0.296320 0.244182
O O9 0.684480 0.188219 0.206210
O O10 0.646229 0.162680 0.294605
O O11 0.500000 0.500000 0.617601
O O12 0.297900 0.713721 0.625424
O O13 0.000000 0.500000 0.662116
O O14 0.071688 0.793428 0.677711
#
# Coordination Sequence:
#
# PCOD8303370 Si02
#       7
#     4   8   4   8   8   8   8
#     4   9  17  36  63 102 137 173 234 286 346 409
#     4  11  24  44  71  99 143 186 238 282 352 416
#     4   9  18  40  67 101 136 186 230 290 335 428
#     4  11  26  47  73 101 133 176 227 285 352 417
#     4  11  22  38  69 104 138 179 229 295 349 409
#     4  12  26  47  65 101 139 180 230 295 343 424
#     4  12  25  42  69 100 136 184 230 279 355 422
#
# _framework density 21.884898
#
# number of rings (size 3 to 8) (size 9 to 14) (size 15 to 20)
#    0.000    1.000    3.333    3.250    4.667    1.333 
#    0.000    2.917    0.000    0.000    0.000    0.000 
#    0.000    0.000    0.000    0.000    0.000    0.000 
#
# Total GULP energy -595248.262317 kJ/mol
# GULP energy per Si atom -12401.005465 kJ/mol
# Density = 2.183509 g / cm^3
# Si number density = 21.884898 Si / 1000 Ang^3
#
#
#
# Elastic Constant Matrix: (Units=GPa)
#
#
# Indices 1 2 3 4 5 6 
#
# 1 80.4874 18.8583 44.3366 0.0000 0.0000 0.9390
# 2 18.8583 80.4874 44.3366 0.0000 0.0000 -0.9390
# 3 44.3366 44.3366 140.1600 0.0000 0.0000 0.0000
# 4 0.0000 0.0000 0.0000 29.2045 0.0000 0.0000
# 5 0.0000 0.0000 0.0000 0.0000 29.2045 0.0000
# 6 0.9390 -0.9390 0.0000 0.0000 0.0000 34.0806
#
#
#
# Elastic Compliance Matrix: (Units=1/GPa)
#
#
# Indices 1 2 3 4 5 6 
#
# 1 0.015133 -0.001107 -0.004437 0.000000 0.000000 -0.000447
# 2 -0.001107 0.015133 -0.004437 0.000000 0.000000 0.000447
# 3 -0.004437 -0.004437 0.009942 0.000000 0.000000 0.000000
# 4 0.000000 0.000000 0.000000 0.034241 0.000000 0.000000
# 5 0.000000 0.000000 0.000000 0.000000 0.034241 0.000000
# 6 -0.000447 0.000447 0.000000 0.000000 0.000000 0.029367
#
#
# Mechanical properties :
#
#
# Convention : Reuss Voigt Hill
#
# Bulk Modulus (GPa) = 49.39137 57.35531 53.37334
# Shear Modulus (GPa) = 30.34592 31.40482 30.87537
#
# Velocity S-wave (km/s) = 3.72777 3.79225 3.76015
# Velocity P-wave (km/s) = 6.41452 6.74088 6.57972
#
# Compressibility (1/GPa) = 0.02024645
#
# Stress axis : x y z
#
# Youngs Moduli (GPa) = 66.08119 66.08119 100.58648
#
# Poissons Ratio (x) = 0.07314 0.44629
# Poissons Ratio (y) = 0.07314 0.44629
# Poissons Ratio (z) = 0.29319 0.29319
#
# Static dielectric constant tensor:
#      x y z
#    x 3.857170 0.000000 0.000000 
#    y 0.000000 3.857170 0.000000 
#    z 0.000000 0.000000 4.268480 
# 
# 
# High freq. dielectric constant tensor:
#      x y z
#    x 1.853100 0.000000 0.000000 
#    y 0.000000 1.853100 0.000000 
#    z 0.000000 0.000000 1.874530 
# 
# From -- ./inp_files/5875.got.cif
#   From: 2010.03.12/outbox.cif.g09.slc.cpg/sg84_3_cif.got.tgz:5875.got - 2010.04.08 20:07:29.
