data_PCOD8303235
_publ_section_title
;
Structure prediction by ZEFSAII (Michael W. Deem and Ramdas Pophale) SiO2 
 PCOD8303235
Probable space group: P 42/M
;
_chemical_formula_sum "Si O2"
_cell_formula_units_Z 40
_cell_length_a 15.062822
_cell_length_b 15.062822
_cell_length_c 9.328639
_cell_angle_alpha 90.000000
_cell_angle_beta 90.000000
_cell_angle_gamma 90.000000
_cell_volume 2116.561904
_symmetry_space_group_name_H-M "P 42/M"
_symmetry_group_IT_number 84
_symmetry_cell_setting 'tetragonal'
loop_
_space_group_symop_operation_xyz
x,y,z
-y,x,1/2+z
-x,-y,z
y,-x,1/2+z
-x,-y,-z
y,-x,1/2-z
x,y,-z
-y,x,1/2-z
loop_
_atom_site_type_symbol
_atom_site_label
_atom_site_fract_x
_atom_site_fract_y
_atom_site_fract_z
Si Si1 0.994632 0.749810 0.166112
Si Si2 0.805876 0.838130 0.834135
Si Si3 0.305552 0.660792 0.331595
Si Si4 0.586428 0.058757 0.160096
Si Si5 0.461539 0.744196 0.168083
O O1 0.902499 0.798938 0.193055
O O2 0.988898 0.652236 0.231508
O O3 0.072572 0.803377 0.242714
O O4 0.017771 0.741438 0.000000
O O5 0.731824 0.768204 0.780080
O O6 0.789130 0.861353 0.000000
O O7 0.322379 0.670889 0.500000
O O8 0.398422 0.676547 0.251971
O O9 0.272684 0.563217 0.288835
O O10 0.562912 0.156528 0.216196
O O11 0.500000 0.000000 0.155939
O O12 0.628073 0.063368 0.000000
O O13 0.447420 0.729673 0.000000
#
# Coordination Sequence:
#
# PCOD8303235 Si02
#       5
#     8   8   8   8   8
#     4  11  23  38  61  90 118 155 201 249 297 348
#     4  10  22  41  61  84 121 161 196 242 303 360
#     4  10  21  40  61  83 120 160 196 244 299 353
#     4  10  20  37  61  87 118 156 199 246 301 360
#     4  10  21  36  59  87 114 155 202 242 294 354
#
# _framework density 18.898575000000001
#
# number of rings (size 3 to 8) (size 9 to 14) (size 15 to 20)
#    0.000    1.800    2.000    1.800    0.000    7.600 
#    0.000    6.000    0.000    0.000    0.000    0.000 
#    0.000    0.000    0.000    0.000    0.000    0.000 
#
# Total GULP energy -496188.592067 kJ/mol
# GULP energy per Si atom -12404.714802 kJ/mol
# Density = 1.885556 g / cm^3
# Si number density = 18.898575 Si / 1000 Ang^3
#
#
#
# Elastic Constant Matrix: (Units=GPa)
#
#
# Indices 1 2 3 4 5 6 
#
# 1 100.4362 25.6606 45.4699 0.0000 0.0000 2.7862
# 2 25.6606 100.4362 45.4699 0.0000 0.0000 -2.7862
# 3 45.4699 45.4699 68.7153 0.0000 0.0000 0.0000
# 4 0.0000 0.0000 0.0000 34.1473 0.0000 0.0000
# 5 0.0000 0.0000 0.0000 0.0000 34.1473 0.0000
# 6 2.7862 -2.7862 0.0000 0.0000 0.0000 26.7743
#
#
#
# Elastic Compliance Matrix: (Units=1/GPa)
#
#
# Indices 1 2 3 4 5 6 
#
# 1 0.014324 0.000846 -0.010038 0.000000 0.000000 -0.001403
# 2 0.000846 0.014324 -0.010038 0.000000 0.000000 0.001403
# 3 -0.010038 -0.010038 0.027837 0.000000 0.000000 0.000000
# 4 0.000000 0.000000 0.000000 0.029285 0.000000 0.000000
# 5 0.000000 0.000000 0.000000 0.000000 0.029285 0.000000
# 6 -0.001403 0.001403 0.000000 0.000000 0.000000 0.037641
#
#
# Mechanical properties :
#
#
# Convention : Reuss Voigt Hill
#
# Bulk Modulus (GPa) = 55.47919 55.86536 55.67228
# Shear Modulus (GPa) = 25.35953 29.21291 27.28622
#
# Velocity S-wave (km/s) = 3.66714 3.93590 3.80389
# Velocity P-wave (km/s) = 6.88117 7.09083 6.98679
#
# Compressibility (1/GPa) = 0.01802478
#
# Stress axis : x y z
#
# Youngs Moduli (GPa) = 69.81387 69.81387 35.92290
#
# Poissons Ratio (x) = -0.05906 0.36060
# Poissons Ratio (y) = -0.05906 0.36060
# Poissons Ratio (z) = 0.70079 0.70079
#
# Static dielectric constant tensor:
#      x y z
#    x 3.509830 0.000000 0.000000 
#    y 0.000000 3.509830 0.000000 
#    z 0.000000 0.000000 3.545090 
# 
# 
# High freq. dielectric constant tensor:
#      x y z
#    x 1.742040 0.000000 0.000000 
#    y 0.000000 1.742040 0.000000 
#    z 0.000000 0.000000 1.730140 
# 
# From -- ./inp_files/737.got.cif
#   From: 2010.03.12/outbox.cif.g09.slc.cpg/sg84_1_cif.got.tgz:737.got - 2010.04.08 20:07:29.
