data_PCOD8303132
_publ_section_title
;
Structure prediction by ZEFSAII (Michael W. Deem and Ramdas Pophale) SiO2 
 PCOD8303132
Probable space group: P 42/M
;
_chemical_formula_sum "Si O2"
_cell_formula_units_Z 56
_cell_length_a 11.559887
_cell_length_b 11.559887
_cell_length_c 21.961828
_cell_angle_alpha 90.000000
_cell_angle_beta 90.000000
_cell_angle_gamma 90.000000
_cell_volume 2934.780762
_symmetry_space_group_name_H-M "P 42/M"
_symmetry_group_IT_number 84
_symmetry_cell_setting 'tetragonal'
loop_
_space_group_symop_operation_xyz
x,y,z
-y,x,1/2+z
-x,-y,z
y,-x,1/2+z
-x,-y,-z
y,-x,1/2-z
x,y,-z
-y,x,1/2-z
loop_
_atom_site_type_symbol
_atom_site_label
_atom_site_fract_x
_atom_site_fract_y
_atom_site_fract_z
Si Si1 0.021780 0.865487 0.567218
Si Si2 0.772213 0.763679 0.429142
Si Si3 0.244308 0.644618 0.715699
Si Si4 0.011731 0.367510 0.755879
Si Si5 0.241344 0.384658 0.683058
Si Si6 0.242405 0.857656 0.640759
Si Si7 0.624298 0.979886 0.429887
O O1 0.067508 0.825070 0.500000
O O2 0.108080 0.841751 0.623461
O O3 0.903902 0.799819 0.582066
O O4 0.000000 0.000000 0.563915
O O5 0.749249 0.733179 0.500000
O O6 0.746508 0.651658 0.387605
O O7 0.690690 0.867323 0.404271
O O8 0.270356 0.519400 0.688830
O O9 0.314302 0.664218 0.777900
O O10 0.289955 0.735762 0.665226
O O11 0.109345 0.671164 0.726937
O O12 0.111080 0.359233 0.705000
O O13 0.042374 0.277493 0.810117
O O14 0.000000 0.500000 0.779960
O O15 0.303807 0.901380 0.579140
O O16 0.606918 0.956446 0.500000
O O17 0.500000 0.000000 0.397819
#
# Coordination Sequence:
#
# PCOD8303132 Si02
#       7
#     8   8   8   8   8   8   8
#     4  10  19  32  52  83 119 151 178 219 278 336
#     4  10  20  36  59  83 112 150 186 225 277 337
#     4  10  22  36  55  81 107 148 187 230 283 330
#     4   9  19  36  55  77 106 141 183 234 281 327
#     4  10  21  39  58  79 113 146 190 232 276 342
#     4  11  19  32  54  79 109 141 181 222 274 331
#     4  10  20  34  54  79 105 136 176 225 275 322
#
# _framework density 19.081491
#
# number of rings (size 3 to 8) (size 9 to 14) (size 15 to 20)
#    0.000    2.000    1.429    2.571    0.000    2.571 
#    0.000    1.429    0.000    5.571    0.000    5.000 
#    0.000    0.000    0.000    0.000    0.000    0.000 
#
# Total GULP energy -694031.008029 kJ/mol
# GULP energy per Si atom -12393.410858 kJ/mol
# Density = 1.903806 g / cm^3
# Si number density = 19.081491 Si / 1000 Ang^3
#
#
#
# Elastic Constant Matrix: (Units=GPa)
#
#
# Indices 1 2 3 4 5 6 
#
# 1 108.2181 39.1629 51.0680 0.0000 0.0000 -5.2844
# 2 39.1629 108.2181 51.0680 0.0000 0.0000 5.2844
# 3 51.0680 51.0680 95.9608 0.0000 0.0000 0.0000
# 4 0.0000 0.0000 0.0000 27.0878 0.0000 0.0000
# 5 0.0000 0.0000 0.0000 0.0000 27.0878 0.0000
# 6 -5.2844 5.2844 0.0000 0.0000 0.0000 19.2715
#
#
#
# Elastic Compliance Matrix: (Units=1/GPa)
#
#
# Indices 1 2 3 4 5 6 
#
# 1 0.012933 -0.002183 -0.005721 0.000000 0.000000 0.004145
# 2 -0.002183 0.012933 -0.005721 0.000000 0.000000 -0.004145
# 3 -0.005721 -0.005721 0.016510 0.000000 0.000000 0.000000
# 4 0.000000 0.000000 0.000000 0.036917 0.000000 0.000000
# 5 0.000000 0.000000 0.000000 0.000000 0.036917 0.000000
# 6 0.004145 -0.004145 0.000000 0.000000 0.000000 0.054163
#
#
# Mechanical properties :
#
#
# Convention : Reuss Voigt Hill
#
# Bulk Modulus (GPa) = 66.11031 66.11052 66.11042
# Shear Modulus (GPa) = 24.67151 26.09595 25.38373
#
# Velocity S-wave (km/s) = 3.59967 3.70213 3.65126
# Velocity P-wave (km/s) = 7.21099 7.27983 7.24549
#
# Compressibility (1/GPa) = 0.01512623
#
# Stress axis : x y z
#
# Youngs Moduli (GPa) = 77.32418 77.32418 60.57034
#
# Poissons Ratio (x) = 0.16880 0.34650
# Poissons Ratio (y) = 0.16880 0.34650
# Poissons Ratio (z) = 0.44235 0.44235
#
# Static dielectric constant tensor:
#      x y z
#    x 3.492870 0.000000 0.000000 
#    y 0.000000 3.492870 0.000000 
#    z 0.000000 0.000000 3.497510 
# 
# 
# High freq. dielectric constant tensor:
#      x y z
#    x 1.732800 0.000000 0.000000 
#    y 0.000000 1.732800 0.000000 
#    z 0.000000 0.000000 1.741410 
# 
# From -- ./inp_files/4500.got.cif
#   From: 2010.03.12/outbox.cif.g09.slc.cpg/sg84_3_cif.got.tgz:4500.got - 2010.04.08 20:07:29.
