data_PCOD8303374
_publ_section_title
;
Structure prediction by ZEFSAII (Michael W. Deem and Ramdas Pophale) SiO2 
 PCOD8303374
Probable space group: P 42/M
;
_chemical_formula_sum "Si O2"
_cell_formula_units_Z 40
_cell_length_a 9.183012
_cell_length_b 9.183012
_cell_length_c 22.499441
_cell_angle_alpha 90.000000
_cell_angle_beta 90.000000
_cell_angle_gamma 90.000000
_cell_volume 1897.326322
_symmetry_space_group_name_H-M "P 42/M"
_symmetry_group_IT_number 84
_symmetry_cell_setting 'tetragonal'
loop_
_space_group_symop_operation_xyz
x,y,z
-y,x,1/2+z
-x,-y,z
y,-x,1/2+z
-x,-y,-z
y,-x,1/2-z
x,y,-z
-y,x,1/2-z
loop_
_atom_site_type_symbol
_atom_site_label
_atom_site_fract_x
_atom_site_fract_y
_atom_site_fract_z
Si Si1 0.664980 0.524905 0.068728
Si Si2 0.334500 0.972228 0.069365
Si Si3 0.829815 0.774765 0.121119
Si Si4 0.833775 0.834509 0.249898
Si Si5 0.279724 0.170402 0.623581
O O1 0.500000 0.500000 0.091950
O O2 0.717008 0.689677 0.078713
O O3 0.788413 0.443770 0.107301
O O4 0.674354 0.481266 0.000000
O O5 0.212315 0.060263 0.105984
O O6 0.500000 0.000000 0.091961
O O7 0.285370 0.807855 0.082708
O O8 0.324117 0.007431 0.000000
O O9 0.797046 0.740750 0.190885
O O10 0.001536 0.751806 0.107879
O O11 0.737018 0.793059 0.306562
O O12 0.999268 0.808004 0.269038
#
# Coordination Sequence:
#
# PCOD8303374 Si02
#       5
#     8   8   8   8   8
#     4  11  25  45  63  87 131 173 208 263 332 387
#     4  11  23  39  61  93 129 165 208 259 320 383
#     4  11  22  40  64  94 123 166 218 267 315 379
#     4   9  18  38  63  90 128 160 201 262 317 364
#     4  11  22  40  64  94 123 166 218 267 315 379
#
# _framework density 21.082301000000001
#
# number of rings (size 3 to 8) (size 9 to 14) (size 15 to 20)
#    0.000    1.400    2.000    3.600    0.000    8.000 
#    7.200    0.000    0.000    0.000    0.000    0.000 
#    0.000    0.000    0.000    0.000    0.000    0.000 
#
# Total GULP energy -495892.461359 kJ/mol
# GULP energy per Si atom -12397.311534 kJ/mol
# Density = 2.103432 g / cm^3
# Si number density = 21.082301 Si / 1000 Ang^3
#
#
#
# Elastic Constant Matrix: (Units=GPa)
#
#
# Indices 1 2 3 4 5 6 
#
# 1 73.2438 13.7776 30.2522 0.0000 0.0000 3.6245
# 2 13.7776 73.2438 30.2522 0.0000 0.0000 -3.6245
# 3 30.2522 30.2522 101.5240 0.0000 0.0000 0.0000
# 4 0.0000 0.0000 0.0000 32.3551 0.0000 0.0000
# 5 0.0000 0.0000 0.0000 0.0000 32.3551 0.0000
# 6 3.6245 -3.6245 0.0000 0.0000 0.0000 39.6708
#
#
#
# Elastic Compliance Matrix: (Units=1/GPa)
#
#
# Indices 1 2 3 4 5 6 
#
# 1 0.015750 -0.001256 -0.004319 0.000000 0.000000 -0.001554
# 2 -0.001256 0.015750 -0.004319 0.000000 0.000000 0.001554
# 3 -0.004319 -0.004319 0.012424 0.000000 0.000000 0.000000
# 4 0.000000 0.000000 0.000000 0.030907 0.000000 0.000000
# 5 0.000000 0.000000 0.000000 0.000000 0.030907 0.000000
# 6 -0.001554 0.001554 0.000000 0.000000 0.000000 0.025491
#
#
# Mechanical properties :
#
#
# Convention : Reuss Voigt Hill
#
# Bulk Modulus (GPa) = 41.43112 44.06396 42.74754
# Shear Modulus (GPa) = 31.43423 32.45819 31.94621
#
# Velocity S-wave (km/s) = 3.86557 3.92802 3.89692
# Velocity P-wave (km/s) = 6.29430 6.44351 6.36934
#
# Compressibility (1/GPa) = 0.02413644
#
# Stress axis : x y z
#
# Youngs Moduli (GPa) = 63.49196 63.49196 80.49021
#
# Poissons Ratio (x) = 0.07972 0.34764
# Poissons Ratio (y) = 0.07972 0.34764
# Poissons Ratio (z) = 0.27422 0.27422
#
# Static dielectric constant tensor:
#      x y z
#    x 3.631780 0.000000 0.000000 
#    y 0.000000 3.631780 0.000000 
#    z 0.000000 0.000000 3.870310 
# 
# 
# High freq. dielectric constant tensor:
#      x y z
#    x 1.822280 0.000000 0.000000 
#    y 0.000000 1.822280 0.000000 
#    z 0.000000 0.000000 1.830900 
# 
# From -- ./inp_files/4801.got.cif
#   From: 2010.03.12/outbox.cif.g09.slc.cpg/sg84_3_cif.got.tgz:4801.got - 2010.04.08 20:07:29.
