data_PCOD8303786
_publ_section_title
;
Structure prediction by ZEFSAII (Michael W. Deem and Ramdas Pophale) SiO2 
 PCOD8303786
Probable space group: I 4/M
;
_chemical_formula_sum "Si O2"
_cell_formula_units_Z 96
_cell_length_a 23.403448
_cell_length_b 23.403448
_cell_length_c 8.694436
_cell_angle_alpha 90.000000
_cell_angle_beta 90.000000
_cell_angle_gamma 90.000000
_cell_volume 4762.128469
_symmetry_space_group_name_H-M "I 4/M"
_symmetry_group_IT_number 87
_symmetry_cell_setting 'tetragonal'
loop_
_space_group_symop_operation_xyz
x,y,z
-y,x,z
-x,-y,z
y,-x,z
-x,-y,-z
y,-x,-z
x,y,-z
-y,x,-z
1/2+x,1/2+y,1/2+z
1/2-y,1/2+x,1/2+z
1/2-x,1/2-y,1/2+z
1/2+y,1/2-x,1/2+z
1/2-x,1/2-y,1/2-z
1/2+y,1/2-x,1/2-z
1/2+x,1/2+y,1/2-z
1/2-y,1/2+x,1/2-z
loop_
_atom_site_type_symbol
_atom_site_label
_atom_site_fract_x
_atom_site_fract_y
_atom_site_fract_z
Si Si1 0.972505 0.831904 0.183868
Si Si2 0.669223 0.286525 0.826864
Si Si3 0.720397 0.169876 0.174325
Si Si4 0.505861 0.913279 0.182620
Si Si5 0.702275 0.042133 0.820970
Si Si6 0.130334 0.092678 0.821358
O O1 0.972520 0.766098 0.241965
O O2 0.919483 0.868264 0.253815
O O3 0.028370 0.865780 0.244096
O O4 0.968850 0.830033 0.000000
O O5 0.672397 0.218360 0.804938
O O6 0.728924 0.317486 0.791703
O O7 0.621012 0.308491 0.711423
O O8 0.651988 0.302531 0.000000
O O9 0.691502 0.109372 0.208745
O O10 0.745552 0.170778 0.000000
O O11 0.446862 0.940328 0.244624
O O12 0.507992 0.846321 0.228185
O O13 0.507430 0.919618 0.000000
O O14 0.696503 0.026360 0.000000
O O15 0.118607 0.088684 0.000000
#
# Coordination Sequence:
#
# PCOD8303786 Si02
#       6
#    16  16  16  16  16  16
#     4   9  19  34  58  83 110 146 190 238 289 339
#     4  10  19  31  51  80 108 143 184 226 277 338
#     4   9  18  33  54  78 112 148 180 223 280 336
#     4  11  23  41  63  88 117 155 193 235 278 332
#     4  10  19  36  58  85 117 152 189 237 289 339
#     4  10  19  36  56  79 109 148 189 236 288 340
#
# _framework density 20.159053
#
# number of rings (size 3 to 8) (size 9 to 14) (size 15 to 20)
#    0.000    2.167    1.667    2.500    0.000    3.000 
#    0.000    6.667    0.000    0.000    0.000    1.167 
#    0.000    0.000    0.000    0.000    0.000    0.000 
#
# Total GULP energy -595030.763458 kJ/mol
# GULP energy per Si atom -12396.474239 kJ/mol
# Density = 2.011317 g / cm^3
# Si number density = 20.159053 Si / 1000 Ang^3
#
#
#
# Elastic Constant Matrix: (Units=GPa)
#
#
# Indices 1 2 3 4 5 6 
#
# 1 120.9372 58.6781 25.8516 0.0000 0.0000 8.4795
# 2 58.6781 120.9372 25.8516 0.0000 0.0000 -8.4795
# 3 25.8516 25.8516 47.8723 0.0000 0.0000 0.0000
# 4 0.0000 0.0000 0.0000 21.1835 0.0000 0.0000
# 5 0.0000 0.0000 0.0000 0.0000 21.1835 0.0000
# 6 8.4795 -8.4795 0.0000 0.0000 0.0000 24.0463
#
#
#
# Elastic Compliance Matrix: (Units=1/GPa)
#
#
# Indices 1 2 3 4 5 6 
#
# 1 0.012180 -0.005588 -0.003560 0.000000 0.000000 -0.006266
# 2 -0.005588 0.012180 -0.003560 0.000000 0.000000 0.006266
# 3 -0.003560 -0.003560 0.024734 0.000000 0.000000 0.000000
# 4 0.000000 0.000000 0.000000 0.047206 0.000000 0.000000
# 5 0.000000 0.000000 0.000000 0.000000 0.047206 0.000000
# 6 -0.006266 0.006266 0.000000 0.000000 0.000000 0.046005
#
#
# Mechanical properties :
#
#
# Convention : Reuss Voigt Hill
#
# Bulk Modulus (GPa) = 42.23228 56.72324 49.47776
# Shear Modulus (GPa) = 22.43947 25.24038 23.83993
#
# Velocity S-wave (km/s) = 3.33997 3.54229 3.44261
# Velocity P-wave (km/s) = 5.98906 6.70293 6.35603
#
# Compressibility (1/GPa) = 0.02367857
#
# Stress axis : x y z
#
# Youngs Moduli (GPa) = 82.09883 82.09883 40.43083
#
# Poissons Ratio (x) = 0.45879 0.14393
# Poissons Ratio (y) = 0.45879 0.14393
# Poissons Ratio (z) = 0.29226 0.29226
#
# Static dielectric constant tensor:
#      x y z
#    x 3.773190 0.000000 0.000000 
#    y 0.000000 3.773190 0.000000 
#    z 0.000000 0.000000 3.373750 
# 
# 
# High freq. dielectric constant tensor:
#      x y z
#    x 1.785180 0.000000 0.000000 
#    y 0.000000 1.785180 0.000000 
#    z 0.000000 0.000000 1.757880 
# 
# From -- ./inp_files/1361.got.cif
#   From: 2010.03.12/outbox.cif.g09.slc.cpg/sg87_1_cif.got.tgz:1361.got - 2010.04.08 20:16:13.
