data_PCOD8303432
_publ_section_title
;
Structure prediction by ZEFSAII (Michael W. Deem and Ramdas Pophale) SiO2 
 PCOD8303432
Probable space group: P 4/N
;
_chemical_formula_sum "Si O2"
_cell_formula_units_Z 40
_cell_length_a 18.992752
_cell_length_b 18.992752
_cell_length_c 5.096055
_cell_angle_alpha 90.000000
_cell_angle_beta 90.000000
_cell_angle_gamma 90.000000
_cell_volume 1838.272547
_symmetry_space_group_name_H-M "P 4/N"
_symmetry_group_IT_number 85
_symmetry_cell_setting 'tetragonal'
loop_
_space_group_symop_operation_xyz
x,y,z
1/2-y,x,z
1/2-x,1/2-y,z
y,1/2-x,z
-x,-y,-z
1/2+y,-x,-z
1/2+x,1/2+y,-z
-y,1/2+x,-z
loop_
_atom_site_type_symbol
_atom_site_label
_atom_site_fract_x
_atom_site_fract_y
_atom_site_fract_z
Si Si1 0.304709 0.352658 0.402524
Si Si2 0.494084 0.815304 0.773427
Si Si3 0.461505 0.896157 0.264528
Si Si4 0.912620 0.883667 0.209015
Si Si5 0.841305 0.508578 0.715529
O O1 0.221724 0.344132 0.354824
O O2 0.328272 0.419994 0.221365
O O3 0.329610 0.374022 0.701344
O O4 0.457849 0.862687 0.551722
O O5 0.473435 0.734816 0.729858
O O6 0.458328 0.835297 0.046903
O O7 0.534996 0.936769 0.216071
O O8 0.398471 0.949762 0.223498
O O9 0.959586 0.845426 0.427331
O O10 0.928232 0.848798 0.928243
#
# Coordination Sequence:
#
# PCOD8303432 Si02
#       5
#     8   8   8   8   8
#     4  10  21  40  60  90 134 177 208 249 305 382
#     4  11  24  42  63  96 126 170 216 256 320 388
#     4  11  24  41  65  94 127 163 216 270 320 369
#     4  11  22  39  63  95 123 168 218 255 315 371
#     4  12  23  42  67  91 127 167 212 275 317 369
#
# _framework density 21.759557000000001
#
# number of rings (size 3 to 8) (size 9 to 14) (size 15 to 20)
#    0.000    1.000    2.000    6.000    2.800    0.000 
#    0.000    0.000    0.000    3.600    0.000    0.000 
#    0.000    0.000    0.000    0.000    0.000    0.000 
#
# Total GULP energy -495788.337880 kJ/mol
# GULP energy per Si atom -12394.708447 kJ/mol
# Density = 2.171003 g / cm^3
# Si number density = 21.759557 Si / 1000 Ang^3
#
#
#
# Elastic Constant Matrix: (Units=GPa)
#
#
# Indices 1 2 3 4 5 6 
#
# 1 86.6009 43.1653 18.6771 0.0000 0.0000 -5.8163
# 2 43.1653 86.6009 18.6771 0.0000 0.0000 5.8163
# 3 18.6771 18.6771 60.2578 0.0000 0.0000 0.0000
# 4 0.0000 0.0000 0.0000 18.3295 0.0000 0.0000
# 5 0.0000 0.0000 0.0000 0.0000 18.3295 0.0000
# 6 -5.8163 5.8163 0.0000 0.0000 0.0000 40.9167
#
#
#
# Elastic Compliance Matrix: (Units=1/GPa)
#
#
# Indices 1 2 3 4 5 6 
#
# 1 0.016197 -0.007736 -0.002623 0.000000 0.000000 0.003402
# 2 -0.007736 0.016197 -0.002623 0.000000 0.000000 -0.003402
# 3 -0.002623 -0.002623 0.018221 0.000000 0.000000 0.000000
# 4 0.000000 0.000000 0.000000 0.054557 0.000000 0.000000
# 5 0.000000 0.000000 0.000000 0.000000 0.054557 0.000000
# 6 0.003402 -0.003402 0.000000 0.000000 0.000000 0.025407
#
#
# Mechanical properties :
#
#
# Convention : Reuss Voigt Hill
#
# Bulk Modulus (GPa) = 40.56287 43.83320 42.19804
# Shear Modulus (GPa) = 22.79805 25.71117 24.25461
#
# Velocity S-wave (km/s) = 3.24037 3.44118 3.34228
# Velocity P-wave (km/s) = 5.71681 5.99808 5.85913
#
# Compressibility (1/GPa) = 0.02465309
#
# Stress axis : x y z
#
# Youngs Moduli (GPa) = 61.73825 61.73825 54.88148
#
# Poissons Ratio (x) = 0.47763 0.14393
# Poissons Ratio (y) = 0.47763 0.14393
# Poissons Ratio (z) = 0.16191 0.16191
#
# Static dielectric constant tensor:
#      x y z
#    x 3.879950 0.000000 0.000000 
#    y 0.000000 3.879950 0.000000 
#    z 0.000000 0.000000 4.051400 
# 
# 
# High freq. dielectric constant tensor:
#      x y z
#    x 1.842610 0.000000 0.000000 
#    y 0.000000 1.842610 0.000000 
#    z 0.000000 0.000000 1.870190 
# 
# From -- ./inp_files/330.got.cif
#   From: 2010.03.12/outbox.cif.g09.slc.cpg/sg85_cif.got.tgz:330.got - 2010.04.08 20:10:46.
