data_PCOD8303353
_publ_section_title
;
Structure prediction by ZEFSAII (Michael W. Deem and Ramdas Pophale) SiO2 
 PCOD8303353
Probable space group: P 42/M
;
_chemical_formula_sum "Si O2"
_cell_formula_units_Z 40
_cell_length_a 14.241897
_cell_length_b 14.241897
_cell_length_c 8.529204
_cell_angle_alpha 90.000000
_cell_angle_beta 90.000000
_cell_angle_gamma 90.000000
_cell_volume 1729.992351
_symmetry_space_group_name_H-M "P 42/M"
_symmetry_group_IT_number 84
_symmetry_cell_setting 'tetragonal'
loop_
_space_group_symop_operation_xyz
x,y,z
-y,x,1/2+z
-x,-y,z
y,-x,1/2+z
-x,-y,-z
y,-x,1/2-z
x,y,-z
-y,x,1/2-z
loop_
_atom_site_type_symbol
_atom_site_label
_atom_site_fract_x
_atom_site_fract_y
_atom_site_fract_z
Si Si1 0.003259 0.610281 0.824072
Si Si2 0.643219 0.201590 0.813942
Si Si3 0.069309 0.881456 0.182503
Si Si4 0.358780 0.471924 0.186201
Si Si5 0.290756 0.173970 0.815199
O O1 0.906158 0.651713 0.748221
O O2 0.000000 0.500000 0.830298
O O3 0.102502 0.625748 0.732416
O O4 0.009227 0.653168 0.000000
O O5 0.549337 0.253234 0.749074
O O6 0.723225 0.276721 0.759614
O O7 0.642065 0.195663 0.000000
O O8 0.120158 0.792868 0.239764
O O9 0.967605 0.872283 0.254510
O O10 0.060910 0.890506 0.000000
O O11 0.389582 0.568968 0.266716
O O12 0.357583 0.484323 0.000000
O O13 0.288464 0.186434 0.000000
#
# Coordination Sequence:
#
# PCOD8303353 Si02
#       5
#     8   8   8   8   8
#     4  11  26  48  72 101 141 184 233 293 361 428
#     4  12  26  45  71 103 141 187 240 292 354 426
#     4  11  21  36  58  87 122 161 209 264 328 390
#     4  11  23  43  70 103 140 181 231 292 357 423
#     4  12  25  43  66  94 131 175 227 280 340 411
#
# _framework density 23.121489
#
# number of rings (size 3 to 8) (size 9 to 14) (size 15 to 20)
#    0.000    0.600    0.000   10.200    2.800    1.600 
#    0.000    0.000    0.000    0.000    0.000    0.000 
#    0.000    0.000    0.000    0.000    0.000    0.000 
#
# Total GULP energy -495531.087850 kJ/mol
# GULP energy per Si atom -12388.277196 kJ/mol
# Density = 2.306886 g / cm^3
# Si number density = 23.121489 Si / 1000 Ang^3
#
#
#
# Elastic Constant Matrix: (Units=GPa)
#
#
# Indices 1 2 3 4 5 6 
#
# 1 67.3826 12.5687 13.8091 0.0000 0.0000 5.7508
# 2 12.5687 67.3826 13.8091 0.0000 0.0000 -5.7508
# 3 13.8091 13.8091 190.3074 0.0000 0.0000 0.0000
# 4 0.0000 0.0000 0.0000 37.8381 0.0000 0.0000
# 5 0.0000 0.0000 0.0000 0.0000 37.8381 0.0000
# 6 5.7508 -5.7508 0.0000 0.0000 0.0000 47.1751
#
#
#
# Elastic Compliance Matrix: (Units=1/GPa)
#
#
# Indices 1 2 3 4 5 6 
#
# 1 0.015776 -0.002947 -0.000931 0.000000 0.000000 -0.002282
# 2 -0.002947 0.015776 -0.000931 0.000000 0.000000 0.002282
# 3 -0.000931 -0.000931 0.005390 0.000000 0.000000 0.000000
# 4 0.000000 0.000000 0.000000 0.026428 0.000000 0.000000
# 5 0.000000 0.000000 0.000000 0.000000 0.026428 0.000000
# 6 -0.002282 0.002282 0.000000 0.000000 0.000000 0.021754
#
#
# Mechanical properties :
#
#
# Convention : Reuss Voigt Hill
#
# Bulk Modulus (GPa) = 36.59724 45.04960 40.82342
# Shear Modulus (GPa) = 38.37969 43.56266 40.97117
#
# Velocity S-wave (km/s) = 4.07862 4.34530 4.21407
# Velocity P-wave (km/s) = 6.16789 6.68593 6.43213
#
# Compressibility (1/GPa) = 0.02732447
#
# Stress axis : x y z
#
# Youngs Moduli (GPa) = 63.38818 63.38818 185.53721
#
# Poissons Ratio (x) = 0.18678 0.17272
# Poissons Ratio (y) = 0.18678 0.17272
# Poissons Ratio (z) = 0.05901 0.05901
#
# Static dielectric constant tensor:
#      x y z
#    x 9.069420 0.000000 0.000000 
#    y 0.000000 9.069420 0.000000 
#    z 0.000000 0.000000 4.525580 
# 
# 
# High freq. dielectric constant tensor:
#      x y z
#    x 1.928270 0.000000 0.000000 
#    y 0.000000 1.928270 0.000000 
#    z 0.000000 0.000000 1.928110 
# 
# From -- ./inp_files/767.got.cif
#   From: 2010.03.12/outbox.cif.g09.slc.cpg/sg84_1_cif.got.tgz:767.got - 2010.04.08 20:07:29.
