data_PCOD8303650
_publ_section_title
;
Structure prediction by ZEFSAII (Michael W. Deem and Ramdas Pophale) SiO2 
 PCOD8303650
Probable space group: P 42/N
;
_chemical_formula_sum "Si O2"
_cell_formula_units_Z 32
_cell_length_a 8.803245
_cell_length_b 8.803245
_cell_length_c 17.437457
_cell_angle_alpha 90.000000
_cell_angle_beta 90.000000
_cell_angle_gamma 90.000000
_cell_volume 1351.352742
_symmetry_space_group_name_H-M "P 42/N"
_symmetry_group_IT_number 86
_space_group.IT_coordinate_system_code '2'
_symmetry_cell_setting 'tetragonal'
loop_
_space_group_symop_operation_xyz
x,y,z
-y,1/2+x,1/2+z
1/2-x,1/2-y,z
1/2+y,-x,1/2+z
-x,-y,-z
y,1/2-x,1/2-z
1/2+x,1/2+y,-z
1/2-y,x,1/2-z
loop_
_atom_site_type_symbol
_atom_site_label
_atom_site_fract_x
_atom_site_fract_y
_atom_site_fract_z
Si Si1 0.008142 0.494176 0.392739
Si Si2 0.960535 0.616605 0.761823
Si Si3 0.153129 0.512216 0.907752
Si Si4 0.483727 0.243410 0.999960
O O1 0.944127 0.431040 0.312815
O O2 0.168629 0.418211 0.423433
O O3 0.032864 0.674972 0.382102
O O4 0.879878 0.442688 0.452175
O O5 0.797792 0.543668 0.739527
O O6 0.036432 0.543151 0.837239
O O7 0.116637 0.629573 0.975547
O O8 0.137235 0.344872 0.946251
#
# Coordination Sequence:
#
# PCOD8303650 Si02
#       4
#     8   8   8   8
#     4  11  24  45  72 104 137 186 232 286 342 416
#     4  11  26  44  63  98 146 186 227 288 349 404
#     4  11  24  45  72 104 137 186 232 286 342 416
#     4  10  24  44  70 104 136 174 232 294 338 402
#
# _framework density 23.679973
#
# number of rings (size 3 to 8) (size 9 to 14) (size 15 to 20)
#    0.000    1.250    2.500    1.500    3.500   12.000 
#    0.000    0.000    0.000    0.000    0.000    0.000 
#    0.000    0.000    0.000    0.000    0.000    0.000 
#
# Total GULP energy -396456.926778 kJ/mol
# GULP energy per Si atom -12389.278962 kJ/mol
# Density = 2.362608 g / cm^3
# Si number density = 23.679973 Si / 1000 Ang^3
#
#
#
# Elastic Constant Matrix: (Units=GPa)
#
#
# Indices 1 2 3 4 5 6 
#
# 1 81.7396 12.7683 46.0140 0.0000 0.0000 -0.0463
# 2 12.7683 81.7396 46.0140 0.0000 0.0000 0.0463
# 3 46.0140 46.0140 139.7610 0.0000 0.0000 0.0000
# 4 0.0000 0.0000 0.0000 26.3499 0.0000 0.0000
# 5 0.0000 0.0000 0.0000 0.0000 26.3499 0.0000
# 6 -0.0463 0.0463 0.0000 0.0000 0.0000 24.7414
#
#
#
# Elastic Compliance Matrix: (Units=1/GPa)
#
#
# Indices 1 2 3 4 5 6 
#
# 1 0.015036 0.000538 -0.005128 0.000000 0.000000 0.000027
# 2 0.000538 0.015036 -0.005128 0.000000 0.000000 -0.000027
# 3 -0.005128 -0.005128 0.010531 0.000000 0.000000 0.000000
# 4 0.000000 0.000000 0.000000 0.037951 0.000000 0.000000
# 5 0.000000 0.000000 0.000000 0.000000 0.037951 0.000000
# 6 0.000027 -0.000027 0.000000 0.000000 0.000000 0.040418
#
#
# Mechanical properties :
#
#
# Convention : Reuss Voigt Hill
#
# Bulk Modulus (GPa) = 47.23776 56.98143 52.10960
# Shear Modulus (GPa) = 27.26051 28.71781 27.98916
#
# Velocity S-wave (km/s) = 3.39662 3.48623 3.44172
# Velocity P-wave (km/s) = 5.94764 6.34984 6.15203
#
# Compressibility (1/GPa) = 0.02116951
#
# Stress axis : x y z
#
# Youngs Moduli (GPa) = 66.50501 66.50501 94.95438
#
# Poissons Ratio (x) = -0.03576 0.48688
# Poissons Ratio (y) = -0.03576 0.48688
# Poissons Ratio (z) = 0.34101 0.34101
#
# Static dielectric constant tensor:
#      x y z
#    x 4.189230 0.000000 0.000000 
#    y 0.000000 4.189230 0.000000 
#    z 0.000000 0.000000 4.537840 
# 
# 
# High freq. dielectric constant tensor:
#      x y z
#    x 1.931740 0.000000 0.000000 
#    y 0.000000 1.931740 0.000000 
#    z 0.000000 0.000000 1.954450 
# 
# From -- ./inp_files/3826.got.cif
#   From: 2010.03.12/outbox.cif.g09.slc.cpg/sg86_2_cif.got.tgz:3826.got - 2010.04.08 20:12:58.
