data_PCOD8303103
_publ_section_title
;
Structure prediction by ZEFSAII (Michael W. Deem and Ramdas Pophale) SiO2 
 PCOD8303103
Probable space group: P 42/M
;
_chemical_formula_sum "Si O2"
_cell_formula_units_Z 48
_cell_length_a 17.789087
_cell_length_b 17.789087
_cell_length_c 9.343166
_cell_angle_alpha 90.000000
_cell_angle_beta 90.000000
_cell_angle_gamma 90.000000
_cell_volume 2956.659982
_symmetry_space_group_name_H-M "P 42/M"
_symmetry_group_IT_number 84
_symmetry_cell_setting 'tetragonal'
loop_
_space_group_symop_operation_xyz
x,y,z
-y,x,1/2+z
-x,-y,z
y,-x,1/2+z
-x,-y,-z
y,-x,1/2-z
x,y,-z
-y,x,1/2-z
loop_
_atom_site_type_symbol
_atom_site_label
_atom_site_fract_x
_atom_site_fract_y
_atom_site_fract_z
Si Si1 0.688436 0.084389 0.666565
Si Si2 0.574228 0.799846 0.339297
Si Si3 0.799541 0.808314 0.164552
Si Si4 0.189109 0.425036 0.335919
Si Si5 0.297795 0.300786 0.339375
Si Si6 0.708181 0.915605 0.334576
O O1 0.665290 0.090569 0.500000
O O2 0.772885 0.117607 0.689848
O O3 0.625957 0.127556 0.757787
O O4 0.689428 0.998838 0.721304
O O5 0.542897 0.810728 0.500000
O O6 0.507294 0.807482 0.229182
O O7 0.613110 0.716861 0.323153
O O8 0.636359 0.863142 0.304355
O O9 0.742985 0.743788 0.214433
O O10 0.782336 0.884030 0.253508
O O11 0.784822 0.827086 0.000000
O O12 0.164285 0.432697 0.500000
O O13 0.272857 0.387773 0.323123
O O14 0.273431 0.272185 0.500000
O O15 0.729657 0.918415 0.500000
#
# Coordination Sequence:
#
# PCOD8303103 Si02
#       6
#     8   8   8   8   8   8
#     4   9  18  32  48  66  90 122 154 181 217 269
#     4   9  17  30  47  65  87 118 152 181 215 266
#     4   9  16  27  46  69  88 109 148 195 225 251
#     4  10  19  30  46  69  94 117 146 187 228 262
#     4   8  16  31  47  62  85 120 154 179 214 268
#     4   9  18  32  48  65  90 124 154 179 217 272
#
# _framework density 16.234534
#
# number of rings (size 3 to 8) (size 9 to 14) (size 15 to 20)
#    0.000    3.000    0.000    2.000    0.000    5.333 
#    0.000    3.333    0.000    1.000    0.000    7.000 
#    0.000    0.000    0.000    0.000    0.000    0.000 
#
# Total GULP energy -594701.838462 kJ/mol
# GULP energy per Si atom -12389.621635 kJ/mol
# Density = 1.619758 g / cm^3
# Si number density = 16.234534 Si / 1000 Ang^3
#
#
#
# Elastic Constant Matrix: (Units=GPa)
#
#
# Indices 1 2 3 4 5 6 
#
# 1 68.3051 66.7603 47.0829 0.0000 0.0000 0.0377
# 2 66.7603 68.3051 47.0829 0.0000 0.0000 -0.0377
# 3 47.0829 47.0829 80.2684 0.0000 0.0000 0.0000
# 4 0.0000 0.0000 0.0000 25.2098 0.0000 0.0000
# 5 0.0000 0.0000 0.0000 0.0000 25.2098 0.0000
# 6 0.0377 -0.0377 0.0000 0.0000 0.0000 16.3054
#
#
#
# Elastic Compliance Matrix: (Units=1/GPa)
#
#
# Indices 1 2 3 4 5 6 
#
# 1 0.329970 -0.317443 -0.007348 0.000000 0.000000 -0.001497
# 2 -0.317443 0.329970 -0.007348 0.000000 0.000000 0.001497
# 3 -0.007348 -0.007348 0.021078 0.000000 0.000000 0.000000
# 4 0.000000 0.000000 0.000000 0.039667 0.000000 0.000000
# 5 0.000000 0.000000 0.000000 0.000000 0.039667 0.000000
# 6 -0.001497 0.001497 0.000000 0.000000 0.000000 0.061336
#
#
# Mechanical properties :
#
#
# Convention : Reuss Voigt Hill
#
# Bulk Modulus (GPa) = 59.73572 59.85900 59.79736
# Shear Modulus (GPa) = 3.35223 17.07518 10.21371
#
# Velocity S-wave (km/s) = 1.43853 3.24664 2.51098
# Velocity P-wave (km/s) = 6.29559 7.14182 6.73202
#
# Compressibility (1/GPa) = 0.01674040
#
# Stress axis : x y z
#
# Youngs Moduli (GPa) = 3.03058 3.03058 47.44281
#
# Poissons Ratio (x) = 0.96204 0.34859
# Poissons Ratio (y) = 0.96204 0.34859
# Poissons Ratio (z) = 0.02227 0.02227
#
# Static dielectric constant tensor:
#      x y z
#    x 3.088030 0.000000 0.000000 
#    y 0.000000 3.088030 0.000000 
#    z 0.000000 0.000000 3.142510 
# 
# 
# High freq. dielectric constant tensor:
#      x y z
#    x 1.605690 0.000000 0.000000 
#    y 0.000000 1.605690 0.000000 
#    z 0.000000 0.000000 1.633820 
# 
# From -- ./inp_files/962.got.cif
#   From: 2010.03.12/outbox.cif.g09.slc.cpg/sg84_1_cif.got.tgz:962.got - 2010.04.08 20:07:29.
