data_PCOD8303053
_publ_section_title
;
Structure prediction by ZEFSAII (Michael W. Deem and Ramdas Pophale) SiO2 
 PCOD8303053
Probable space group: P 42/M
;
_chemical_formula_sum "Si O2"
_cell_formula_units_Z 48
_cell_length_a 16.981843
_cell_length_b 16.981843
_cell_length_c 8.468651
_cell_angle_alpha 90.000000
_cell_angle_beta 90.000000
_cell_angle_gamma 90.000000
_cell_volume 2442.214911
_symmetry_space_group_name_H-M "P 42/M"
_symmetry_group_IT_number 84
_symmetry_cell_setting 'tetragonal'
loop_
_space_group_symop_operation_xyz
x,y,z
-y,x,1/2+z
-x,-y,z
y,-x,1/2+z
-x,-y,-z
y,-x,1/2-z
x,y,-z
-y,x,1/2-z
loop_
_atom_site_type_symbol
_atom_site_label
_atom_site_fract_x
_atom_site_fract_y
_atom_site_fract_z
Si Si1 0.389093 0.765140 0.312610
Si Si2 0.892923 0.733684 0.813863
Si Si3 0.094164 0.930022 0.317239
Si Si4 0.116146 0.512623 0.181812
Si Si5 0.387081 0.998019 0.817777
Si Si6 0.595386 0.570201 0.184935
O O1 0.388588 0.768340 0.500000
O O2 0.313816 0.815608 0.250759
O O3 0.472907 0.802620 0.255319
O O4 0.385499 0.674672 0.255488
O O5 0.884811 0.825531 0.769622
O O6 0.972344 0.701349 0.727929
O O7 0.904189 0.723238 0.000000
O O8 0.074019 0.916964 0.500000
O O9 0.023496 0.895263 0.213085
O O10 0.052203 0.443665 0.204770
O O11 0.089904 0.591164 0.279629
O O12 0.122618 0.536636 0.000000
O O13 0.404043 0.980450 0.000000
O O14 0.604933 0.476800 0.215706
O O15 0.580419 0.583558 0.000000
#
# Coordination Sequence:
#
# PCOD8303053 Si02
#       6
#     8   8   8   8   8   8
#     4   8  16  31  52  73  96 128 168 206 245 294
#     4   9  18  34  53  73  98 135 171 203 249 306
#     4  10  20  35  57  78 101 131 169 208 248 297
#     4   9  15  27  45  64  92 133 171 200 239 302
#     4  10  17  25  41  69 100 129 163 206 247 289
#     4  10  19  34  54  75  98 128 166 207 246 294
#
# _framework density 19.65429
#
# number of rings (size 3 to 8) (size 9 to 14) (size 15 to 20)
#    0.000    2.667    0.000    6.000    0.000    1.333 
#    0.000   10.000    0.000    4.000    0.000    0.000 
#    0.000    0.000    0.000    0.000    0.000    0.000 
#
# Total GULP energy -594708.157940 kJ/mol
# GULP energy per Si atom -12389.753290 kJ/mol
# Density = 1.960956 g / cm^3
# Si number density = 19.654290 Si / 1000 Ang^3
#
#
#
# Elastic Constant Matrix: (Units=GPa)
#
#
# Indices 1 2 3 4 5 6 
#
# 1 77.2156 33.0920 5.6621 0.0000 0.0000 -0.1100
# 2 33.0920 77.2156 5.6621 0.0000 0.0000 0.1100
# 3 5.6621 5.6621 37.2182 0.0000 0.0000 0.0000
# 4 0.0000 0.0000 0.0000 17.7286 0.0000 0.0000
# 5 0.0000 0.0000 0.0000 0.0000 17.7286 0.0000
# 6 -0.1100 0.1100 0.0000 0.0000 0.0000 18.6651
#
#
#
# Elastic Compliance Matrix: (Units=1/GPa)
#
#
# Indices 1 2 3 4 5 6 
#
# 1 0.015937 -0.006727 -0.001401 0.000000 0.000000 0.000134
# 2 -0.006727 0.015937 -0.001401 0.000000 0.000000 -0.000134
# 3 -0.001401 -0.001401 0.027295 0.000000 0.000000 0.000000
# 4 0.000000 0.000000 0.000000 0.056406 0.000000 0.000000
# 5 0.000000 0.000000 0.000000 0.000000 0.056406 0.000000
# 6 0.000134 -0.000134 0.000000 0.000000 0.000000 0.053577
#
#
# Mechanical properties :
#
#
# Convention : Reuss Voigt Hill
#
# Bulk Modulus (GPa) = 24.93175 31.16462 28.04819
# Shear Modulus (GPa) = 19.38084 20.64003 20.01044
#
# Velocity S-wave (km/s) = 3.14361 3.24412 3.19426
# Velocity P-wave (km/s) = 5.08813 5.47022 5.28263
#
# Compressibility (1/GPa) = 0.04010949
#
# Stress axis : x y z
#
# Youngs Moduli (GPa) = 62.74770 62.74770 36.63692
#
# Poissons Ratio (x) = 0.42213 0.05133
# Poissons Ratio (y) = 0.42213 0.05133
# Poissons Ratio (z) = 0.08791 0.08791
#
# Static dielectric constant tensor:
#      x y z
#    x 3.778680 0.000000 0.000000 
#    y 0.000000 3.778680 0.000000 
#    z 0.000000 0.000000 3.310330 
# 
# 
# High freq. dielectric constant tensor:
#      x y z
#    x 1.746690 0.000000 0.000000 
#    y 0.000000 1.746690 0.000000 
#    z 0.000000 0.000000 1.752350 
# 
# From -- ./inp_files/976.got.cif
#   From: 2010.03.12/outbox.cif.g09.slc.cpg/sg84_1_cif.got.tgz:976.got - 2010.04.08 20:07:29.
