data_PCOD8303079
_publ_section_title
;
Structure prediction by ZEFSAII (Michael W. Deem and Ramdas Pophale) SiO2 
 PCOD8303079
Probable space group: P 42/M
;
_chemical_formula_sum "Si O2"
_cell_formula_units_Z 34
_cell_length_a 9.715724
_cell_length_b 9.715724
_cell_length_c 19.786542
_cell_angle_alpha 90.000000
_cell_angle_beta 90.000000
_cell_angle_gamma 90.000000
_cell_volume 1867.756426
_symmetry_space_group_name_H-M "P 42/M"
_symmetry_group_IT_number 84
_symmetry_cell_setting 'tetragonal'
loop_
_space_group_symop_operation_xyz
x,y,z
-y,x,1/2+z
-x,-y,z
y,-x,1/2+z
-x,-y,-z
y,-x,1/2-z
x,y,-z
-y,x,1/2-z
loop_
_atom_site_type_symbol
_atom_site_label
_atom_site_fract_x
_atom_site_fract_y
_atom_site_fract_z
Si Si1 0.150230 0.883321 0.372637
Si Si2 0.178912 0.859654 0.923415
Si Si3 0.365451 0.677274 0.672276
Si Si4 0.000000 0.000000 0.750000
Si Si5 0.362287 0.676555 0.171024
O O1 0.279482 0.781656 0.374015
O O2 0.024021 0.814607 0.413046
O O3 0.103853 0.911986 0.295763
O O4 0.195316 0.025583 0.407809
O O5 0.287508 0.789348 0.873964
O O6 0.218725 0.823253 0.000000
O O7 0.317635 0.523688 0.654582
O O8 0.525541 0.697217 0.654397
O O9 0.338111 0.710314 0.750610
#
# Coordination Sequence:
#
# PCOD8303079 Si02
#       5
#     8   8   8   2   8
#     4  10  18  32  53  75 101 134 174 214 252 299
#     4  10  21  37  51  72 105 141 171 207 252 304
#     4   9  18  35  56  80 101 131 169 214 261 299
#     4   8  16  28  50  80 100 124 168 222 260 288
#     4   9  19  35  55  77 108 133 164 211 260 307
#
# _framework density 18.203657
#
# number of rings (size 3 to 8) (size 9 to 14) (size 15 to 20)
#    0.000    2.824    0.000    5.647    0.000    1.882 
#    0.000   14.118    0.000    0.000    0.000    0.000 
#    0.000    0.000    0.000    0.000    0.000    0.000 
#
# Total GULP energy -421570.764257 kJ/mol
# GULP energy per Si atom -12399.140125 kJ/mol
# Density = 1.816222 g / cm^3
# Si number density = 18.203657 Si / 1000 Ang^3
#
#
#
# Elastic Constant Matrix: (Units=GPa)
#
#
# Indices 1 2 3 4 5 6 
#
# 1 24.7009 7.5012 5.7426 0.0000 0.0000 -2.2659
# 2 7.5012 24.7009 5.7426 0.0000 0.0000 2.2659
# 3 5.7426 5.7426 70.8554 0.0000 0.0000 0.0000
# 4 0.0000 0.0000 0.0000 6.0447 0.0000 0.0000
# 5 0.0000 0.0000 0.0000 0.0000 6.0447 0.0000
# 6 -2.2659 2.2659 0.0000 0.0000 0.0000 44.4719
#
#
#
# Elastic Compliance Matrix: (Units=1/GPa)
#
#
# Indices 1 2 3 4 5 6 
#
# 1 0.045455 -0.013477 -0.002592 0.000000 0.000000 0.003003
# 2 -0.013477 0.045455 -0.002592 0.000000 0.000000 -0.003003
# 3 -0.002592 -0.002592 0.014533 0.000000 0.000000 0.000000
# 4 0.000000 0.000000 0.000000 0.165434 0.000000 0.000000
# 5 0.000000 0.000000 0.000000 0.000000 0.165434 0.000000
# 6 0.003003 -0.003003 0.000000 0.000000 0.000000 0.022792
#
#
# Mechanical properties :
#
#
# Convention : Reuss Voigt Hill
#
# Bulk Modulus (GPa) = 14.67937 17.58112 16.13024
# Shear Modulus (GPa) = 9.63148 18.06366 13.84757
#
# Velocity S-wave (km/s) = 2.30270 3.15351 2.76108
# Velocity P-wave (km/s) = 3.89248 4.78941 4.36405
#
# Compressibility (1/GPa) = 0.06812282
#
# Stress axis : x y z
#
# Youngs Moduli (GPa) = 21.99984 21.99984 68.80726
#
# Poissons Ratio (x) = 0.29649 0.17833
# Poissons Ratio (y) = 0.29649 0.17833
# Poissons Ratio (z) = 0.05702 0.05702
#
# Static dielectric constant tensor:
#      x y z
#    x 3.243920 0.000000 0.000000 
#    y 0.000000 3.243920 0.000000 
#    z 0.000000 0.000000 3.176960 
# 
# 
# High freq. dielectric constant tensor:
#      x y z
#    x 1.700380 0.000000 0.000000 
#    y 0.000000 1.700380 0.000000 
#    z 0.000000 0.000000 1.692640 
# 
# From -- ./inp_files/4257.got.cif
#   From: 2010.03.12/outbox.cif.g09.slc.cpg/sg84_3_cif.got.tgz:4257.got - 2010.04.08 20:07:29.
