data_PCOD8303746
_publ_section_title
;
Structure prediction by ZEFSAII (Michael W. Deem and Ramdas Pophale) SiO2 
 PCOD8303746
Probable space group: I 4/M
;
_chemical_formula_sum "Si O2"
_cell_formula_units_Z 96
_cell_length_a 16.634472
_cell_length_b 16.634472
_cell_length_c 18.521061
_cell_angle_alpha 90.000000
_cell_angle_beta 90.000000
_cell_angle_gamma 90.000000
_cell_volume 5124.882384
_symmetry_space_group_name_H-M "I 4/M"
_symmetry_group_IT_number 87
_symmetry_cell_setting 'tetragonal'
loop_
_space_group_symop_operation_xyz
x,y,z
-y,x,z
-x,-y,z
y,-x,z
-x,-y,-z
y,-x,-z
x,y,-z
-y,x,-z
1/2+x,1/2+y,1/2+z
1/2-y,1/2+x,1/2+z
1/2-x,1/2-y,1/2+z
1/2+y,1/2-x,1/2+z
1/2-x,1/2-y,1/2-z
1/2+y,1/2-x,1/2-z
1/2+x,1/2+y,1/2-z
1/2-y,1/2+x,1/2-z
loop_
_atom_site_type_symbol
_atom_site_label
_atom_site_fract_x
_atom_site_fract_y
_atom_site_fract_z
Si Si1 0.674708 0.435652 0.080342
Si Si2 0.556947 0.113810 0.774514
Si Si3 0.702176 0.926159 0.584417
Si Si4 0.248529 0.769264 0.579745
Si Si5 0.087345 0.908658 0.720080
Si Si6 0.242283 0.163945 0.215498
O O1 0.721843 0.516744 0.102678
O O2 0.741138 0.365408 0.082845
O O3 0.601587 0.411508 0.133227
O O4 0.637513 0.442128 0.000000
O O5 0.467274 0.106699 0.741734
O O6 0.552154 0.128542 0.861457
O O7 0.600058 0.190518 0.738778
O O8 0.676396 0.935813 0.500000
O O9 0.729430 0.836000 0.603694
O O10 0.270860 0.739349 0.500000
O O11 0.323300 0.743927 0.629452
O O12 0.141079 0.846714 0.762063
O O13 0.997604 0.887923 0.744254
O O14 0.250000 0.250000 0.250000
#
# Coordination Sequence:
#
# PCOD8303746 Si02
#       6
#    16  16  16  16  16  16
#     4  10  18  31  53  82 120 157 187 226 281 353
#     4  11  24  40  60  89 119 152 200 249 293 350
#     4  10  20  35  57  82 117 158 194 238 293 351
#     4  10  20  34  53  84 112 144 194 238 284 347
#     4  11  24  37  54  86 121 153 194 240 289 350
#     4  12  22  37  64  84 112 156 197 240 293 349
#
# _framework density 18.732137000000002
#
# number of rings (size 3 to 8) (size 9 to 14) (size 15 to 20)
#    0.000    1.333    3.333    3.000    2.333    2.000 
#    0.000    3.333    0.000    1.000    0.000    1.167 
#    0.000    0.000    0.000    0.000    0.000    0.000 
#
# Total GULP energy -594960.053713 kJ/mol
# GULP energy per Si atom -12395.001119 kJ/mol
# Density = 1.868950 g / cm^3
# Si number density = 18.732137 Si / 1000 Ang^3
#
#
#
# Elastic Constant Matrix: (Units=GPa)
#
#
# Indices 1 2 3 4 5 6 
#
# 1 81.1118 66.2966 58.2534 0.0000 0.0000 4.3529
# 2 66.2966 81.1118 58.2534 0.0000 0.0000 -4.3529
# 3 58.2534 58.2534 105.0291 0.0000 0.0000 0.0000
# 4 0.0000 0.0000 0.0000 29.1492 0.0000 0.0000
# 5 0.0000 0.0000 0.0000 0.0000 29.1492 0.0000
# 6 4.3529 -4.3529 0.0000 0.0000 0.0000 29.5744
#
#
#
# Elastic Compliance Matrix: (Units=1/GPa)
#
#
# Indices 1 2 3 4 5 6 
#
# 1 0.042984 -0.030905 -0.006699 0.000000 0.000000 -0.010875
# 2 -0.030905 0.042984 -0.006699 0.000000 0.000000 0.010875
# 3 -0.006699 -0.006699 0.016953 0.000000 0.000000 0.000000
# 4 0.000000 0.000000 0.000000 0.034306 0.000000 0.000000
# 5 0.000000 0.000000 0.000000 0.000000 0.034306 0.000000
# 6 -0.010875 0.010875 0.000000 0.000000 0.000000 0.037014
#
#
# Mechanical properties :
#
#
# Convention : Reuss Voigt Hill
#
# Bulk Modulus (GPa) = 69.86778 70.31773 70.09276
# Shear Modulus (GPa) = 16.56037 23.20451 19.88244
#
# Velocity S-wave (km/s) = 2.97654 3.52341 3.26146
# Velocity P-wave (km/s) = 7.01373 7.36021 7.18906
#
# Compressibility (1/GPa) = 0.01431275
#
# Stress axis : x y z
#
# Youngs Moduli (GPa) = 23.26461 23.26461 58.98744
#
# Poissons Ratio (x) = 0.71899 0.39518
# Poissons Ratio (y) = 0.71899 0.39518
# Poissons Ratio (z) = 0.15586 0.15586
#
# Static dielectric constant tensor:
#      x y z
#    x 3.182780 0.000000 0.000000 
#    y 0.000000 3.182780 0.000000 
#    z 0.000000 0.000000 4.397250 
# 
# 
# High freq. dielectric constant tensor:
#      x y z
#    x 1.721080 0.000000 0.000000 
#    y 0.000000 1.721080 0.000000 
#    z 0.000000 0.000000 1.723440 
# 
# From -- ./inp_files/5258.got.cif
#   From: 2010.03.12/outbox.cif.g09.slc.cpg/sg87_3_cif.got.tgz:5258.got - 2010.04.08 20:16:13.
