data_PCOD8303028
_publ_section_title
;
Structure prediction by ZEFSAII (Michael W. Deem and Ramdas Pophale) SiO2 
 PCOD8303028
Probable space group: P 4/M
;
_chemical_formula_sum "Si O2"
_cell_formula_units_Z 32
_cell_length_a 10.873341
_cell_length_b 10.873341
_cell_length_c 12.906879
_cell_angle_alpha 90.000000
_cell_angle_beta 90.000000
_cell_angle_gamma 90.000000
_cell_volume 1525.974425
_symmetry_space_group_name_H-M "P 4/M"
_symmetry_group_IT_number 83
_symmetry_cell_setting 'tetragonal'
loop_
_space_group_symop_operation_xyz
x,y,z
-y,x,z
-x,-y,z
y,-x,z
-x,-y,-z
y,-x,-z
x,y,-z
-y,x,-z
loop_
_atom_site_type_symbol
_atom_site_label
_atom_site_fract_x
_atom_site_fract_y
_atom_site_fract_z
Si Si1 0.008179 0.797737 0.117537
Si Si2 0.798107 0.982471 0.500000
Si Si3 0.940664 0.368796 0.304650
Si Si4 0.687432 0.425088 0.000000
Si Si5 0.577009 0.689269 0.224392
O O1 0.007889 0.685705 0.197392
O O2 0.884111 0.874455 0.136742
O O3 0.010123 0.746011 0.000000
O O4 0.717118 0.979386 0.397904
O O5 0.889429 0.868479 0.500000
O O6 0.792078 0.382378 0.305985
O O7 0.000000 0.500000 0.322410
O O8 0.655916 0.566744 0.000000
O O9 0.753007 0.397753 0.110108
O O10 0.433225 0.657359 0.239144
#
# Coordination Sequence:
#
# PCOD8303028 Si02
#       5
#     8   4   8   4   8
#     4   9  20  41  66  94 134 181 223 267 322 376
#     4  11  27  52  78  91 114 166 220 269 331 388
#     4  12  26  40  66 102 131 159 211 279 322 379
#     4   7  12  30  55  80 120 175 224 238 266 359
#     4   9  20  38  60  90 133 183 215 247 312 385
#
# _framework density 20.970208
#
# number of rings (size 3 to 8) (size 9 to 14) (size 15 to 20)
#    0.000    2.250    0.000    4.125    8.750    2.500 
#    0.000    0.000    0.000    1.500    0.000    0.000 
#    0.000    0.000    0.000    0.000    0.000    0.000 
#
# Total GULP energy -396660.821426 kJ/mol
# GULP energy per Si atom -12395.650670 kJ/mol
# Density = 2.092248 g / cm^3
# Si number density = 20.970208 Si / 1000 Ang^3
#
#
#
# Elastic Constant Matrix: (Units=GPa)
#
#
# Indices 1 2 3 4 5 6 
#
# 1 91.3644 42.4434 61.7436 0.0000 0.0000 6.7366
# 2 42.4434 91.3644 61.7436 0.0000 0.0000 -6.7366
# 3 61.7436 61.7436 123.0897 0.0000 0.0000 0.0000
# 4 0.0000 0.0000 0.0000 46.1388 0.0000 0.0000
# 5 0.0000 0.0000 0.0000 0.0000 46.1388 0.0000
# 6 6.7366 -6.7366 0.0000 0.0000 0.0000 2.7052
#
#
#
# Elastic Compliance Matrix: (Units=1/GPa)
#
#
# Indices 1 2 3 4 5 6 
#
# 1 0.039488 -0.025573 -0.006980 0.000000 0.000000 -0.162017
# 2 -0.025573 0.039488 -0.006980 0.000000 0.000000 0.162017
# 3 -0.006980 -0.006980 0.015127 0.000000 0.000000 0.000000
# 4 0.000000 0.000000 0.000000 0.021674 0.000000 0.000000
# 5 0.000000 0.000000 0.000000 0.000000 0.021674 0.000000
# 6 -0.162017 0.162017 0.000000 0.000000 0.000000 1.176570
#
#
# Mechanical properties :
#
#
# Convention : Reuss Voigt Hill
#
# Bulk Modulus (GPa) = 66.50352 70.85330 68.67841
# Shear Modulus (GPa) = 3.57628 28.32242 15.94935
#
# Velocity S-wave (km/s) = 1.30733 3.67904 2.76084
# Velocity P-wave (km/s) = 5.83618 7.20473 6.55626
#
# Compressibility (1/GPa) = 0.01503680
#
# Stress axis : x y z
#
# Youngs Moduli (GPa) = 25.32393 25.32393 66.10848
#
# Poissons Ratio (x) = 0.64762 0.46143
# Poissons Ratio (y) = 0.64762 0.46143
# Poissons Ratio (z) = 0.17676 0.17676
#
# Static dielectric constant tensor:
#      x y z
#    x 3.696760 0.000000 0.000000 
#    y 0.000000 3.696760 0.000000 
#    z 0.000000 0.000000 3.852520 
# 
# 
# High freq. dielectric constant tensor:
#      x y z
#    x 1.820110 0.000000 0.000000 
#    y 0.000000 1.820110 0.000000 
#    z 0.000000 0.000000 1.812690 
# 
# From -- ./inp_files/1547.got.cif
#   From: 2010.03.12/outbox.cif.g09.slc.cpg/sg83_1_cif.got.tgz:1547.got - 2010.04.08 20:05:18.
