data_PCOD8303803
_publ_section_title
;
Structure prediction by ZEFSAII (Michael W. Deem and Ramdas Pophale) SiO2 
 PCOD8303803
Probable space group: I 4/M
;
_chemical_formula_sum "Si O2"
_cell_formula_units_Z 112
_cell_length_a 17.553649
_cell_length_b 17.553649
_cell_length_c 18.617419
_cell_angle_alpha 90.000000
_cell_angle_beta 90.000000
_cell_angle_gamma 90.000000
_cell_volume 5736.596361
_symmetry_space_group_name_H-M "I 4/M"
_symmetry_group_IT_number 87
_symmetry_cell_setting 'tetragonal'
loop_
_space_group_symop_operation_xyz
x,y,z
-y,x,z
-x,-y,z
y,-x,z
-x,-y,-z
y,-x,-z
x,y,-z
-y,x,-z
1/2+x,1/2+y,1/2+z
1/2-y,1/2+x,1/2+z
1/2-x,1/2-y,1/2+z
1/2+y,1/2-x,1/2+z
1/2-x,1/2-y,1/2-z
1/2+y,1/2-x,1/2-z
1/2+x,1/2+y,1/2-z
1/2-y,1/2+x,1/2-z
loop_
_atom_site_type_symbol
_atom_site_label
_atom_site_fract_x
_atom_site_fract_y
_atom_site_fract_z
Si Si1 0.551867 0.610835 0.322119
Si Si2 0.747724 0.465175 0.583850
Si Si3 0.606355 0.435524 0.844760
Si Si4 0.583353 0.017691 0.414105
Si Si5 0.129704 0.660556 0.583978
Si Si6 0.689362 0.707381 0.914527
Si Si7 0.817891 0.621271 0.414896
O O1 0.463569 0.599091 0.342155
O O2 0.576418 0.681134 0.371577
O O3 0.567438 0.626798 0.238924
O O4 0.725812 0.463091 0.500000
O O5 0.821499 0.414680 0.600292
O O6 0.762877 0.552309 0.611095
O O7 0.603055 0.525130 0.865429
O O8 0.673282 0.390346 0.885586
O O9 0.581550 0.016528 0.500000
O O10 0.609112 0.098157 0.382565
O O11 0.500000 0.000000 0.383439
O O12 0.643653 0.954654 0.386063
O O13 0.128617 0.675860 0.500000
O O14 0.161037 0.738945 0.618515
O O15 0.706340 0.794464 0.889480
O O16 0.683687 0.704583 0.000000
O O17 0.822021 0.615436 0.500000
#
# Coordination Sequence:
#
# PCOD8303803 Si02
#       7
#    16  16  16  16  16  16  16
#     4   9  20  38  58  75 100 143 186 225 271 329
#     4  10  19  32  54  82 113 143 173 224 282 328
#     4   9  20  40  59  74 103 145 185 228 279 332
#     4   9  14  26  46  68 100 145 184 207 251 328
#     4   9  18  30  46  75 113 144 173 217 269 322
#     4  10  21  33  52  83 115 142 178 230 280 325
#     4   9  18  30  47  76 112 145 175 218 275 326
#
# _framework density 19.523772000000001
#
# number of rings (size 3 to 8) (size 9 to 14) (size 15 to 20)
#    0.000    2.714    1.429    0.857    4.000    1.143 
#    0.000    2.143    0.000    0.000    0.000    0.000 
#    0.000    0.000    0.000    0.000    0.000    0.000 
#
# Total GULP energy -693946.050087 kJ/mol
# GULP energy per Si atom -12391.893752 kJ/mol
# Density = 1.947933 g / cm^3
# Si number density = 19.523772 Si / 1000 Ang^3
#
#
#
# Elastic Constant Matrix: (Units=GPa)
#
#
# Indices 1 2 3 4 5 6 
#
# 1 90.4862 28.1795 20.6341 0.0000 0.0000 8.7910
# 2 28.1795 90.4862 20.6341 0.0000 0.0000 -8.7910
# 3 20.6341 20.6341 24.9696 0.0000 0.0000 0.0000
# 4 0.0000 0.0000 0.0000 16.7640 0.0000 0.0000
# 5 0.0000 0.0000 0.0000 0.0000 16.7640 0.0000
# 6 8.7910 -8.7910 0.0000 0.0000 0.0000 15.2790
#
#
#
# Elastic Compliance Matrix: (Units=1/GPa)
#
#
# Indices 1 2 3 4 5 6 
#
# 1 0.015493 -0.003668 -0.009772 0.000000 0.000000 -0.011024
# 2 -0.003668 0.015493 -0.009772 0.000000 0.000000 0.011024
# 3 -0.009772 -0.009772 0.056200 0.000000 0.000000 0.000000
# 4 0.000000 0.000000 0.000000 0.059652 0.000000 0.000000
# 5 0.000000 0.000000 0.000000 0.000000 0.059652 0.000000
# 6 -0.011024 0.011024 0.000000 0.000000 0.000000 0.078135
#
#
# Mechanical properties :
#
#
# Convention : Reuss Voigt Hill
#
# Bulk Modulus (GPa) = 24.53283 38.31527 31.42405
# Shear Modulus (GPa) = 14.50808 18.86101 16.68454
#
# Velocity S-wave (km/s) = 2.72894 3.11151 2.92648
# Velocity P-wave (km/s) = 4.74578 5.70756 5.24874
#
# Compressibility (1/GPa) = 0.04076170
#
# Stress axis : x y z
#
# Youngs Moduli (GPa) = 64.54510 64.54510 17.79372
#
# Poissons Ratio (x) = 0.23672 0.17388
# Poissons Ratio (y) = 0.23672 0.17388
# Poissons Ratio (z) = 0.63075 0.63075
#
# Static dielectric constant tensor:
#      x y z
#    x 3.695610 0.000000 0.000000 
#    y 0.000000 3.695610 0.000000 
#    z 0.000000 0.000000 2.921970 
# 
# 
# High freq. dielectric constant tensor:
#      x y z
#    x 1.770420 0.000000 0.000000 
#    y 0.000000 1.770420 0.000000 
#    z 0.000000 0.000000 1.693630 
# 
# From -- ./inp_files/5480.got.cif
#   From: 2010.03.12/outbox.cif.g09.slc.cpg/sg87_3_cif.got.tgz:5480.got - 2010.04.08 20:16:13.
