data_PCOD8303781
_publ_section_title
;
Structure prediction by ZEFSAII (Michael W. Deem and Ramdas Pophale) SiO2 
 PCOD8303781
Probable space group: I 4/M
;
_chemical_formula_sum "Si O2"
_cell_formula_units_Z 72
_cell_length_a 20.741209
_cell_length_b 20.741209
_cell_length_c 9.909804
_cell_angle_alpha 90.000000
_cell_angle_beta 90.000000
_cell_angle_gamma 90.000000
_cell_volume 4263.175391
_symmetry_space_group_name_H-M "I 4/M"
_symmetry_group_IT_number 87
_symmetry_cell_setting 'tetragonal'
loop_
_space_group_symop_operation_xyz
x,y,z
-y,x,z
-x,-y,z
y,-x,z
-x,-y,-z
y,-x,-z
x,y,-z
-y,x,-z
1/2+x,1/2+y,1/2+z
1/2-y,1/2+x,1/2+z
1/2-x,1/2-y,1/2+z
1/2+y,1/2-x,1/2+z
1/2-x,1/2-y,1/2-z
1/2+y,1/2-x,1/2-z
1/2+x,1/2+y,1/2-z
1/2-y,1/2+x,1/2-z
loop_
_atom_site_type_symbol
_atom_site_label
_atom_site_fract_x
_atom_site_fract_y
_atom_site_fract_z
Si Si1 0.132371 0.379967 0.500000
Si Si2 0.310611 0.703548 0.246725
Si Si3 0.263526 0.631982 0.000000
Si Si4 0.990778 0.691302 0.500000
Si Si5 0.936217 0.284357 0.226631
Si Si6 0.304320 0.485768 0.500000
Si Si7 0.648746 0.371827 0.500000
O O1 0.165045 0.308168 0.500000
O O2 0.154469 0.416390 0.635288
O O3 0.054737 0.372673 0.500000
O O4 0.250000 0.750000 0.250000
O O5 0.304959 0.652856 0.126965
O O6 0.374282 0.745162 0.225892
O O7 0.313542 0.659300 0.376872
O O8 0.554219 0.744683 0.000000
O O9 0.031517 0.689751 0.362908
O O10 0.982627 0.239515 0.135118
O O11 0.344714 0.551235 0.500000
O O12 0.354715 0.426793 0.500000
#
# Coordination Sequence:
#
# PCOD8303781 Si02
#       7
#     8  16   8   8  16   8   8
#     4   9  20  36  50  76 104 138 166 223 255 316
#     4  11  18  31  52  80 108 130 167 215 274 316
#     4  10  19  31  49  76 108 130 161 210 261 315
#     4  10  20  34  53  76 102 139 173 204 264 325
#     4  10  19  35  54  77 109 137 173 218 268 317
#     4   9  20  34  51  75 106 145 179 220 256 308
#     4  10  21  33  51  75 107 145 181 214 259 313
#
# _framework density 16.888821
#
# number of rings (size 3 to 8) (size 9 to 14) (size 15 to 20)
#    0.667    1.333    2.222    3.333    0.000    0.222 
#    0.000    2.222    0.000    2.000    0.000    0.000 
#    0.000   16.000    0.000    0.000    0.000    0.000 
#
# Total GULP energy -446223.646344 kJ/mol
# GULP energy per Si atom -12395.101287 kJ/mol
# Density = 1.685038 g / cm^3
# Si number density = 16.888821 Si / 1000 Ang^3
#
#
#
# Elastic Constant Matrix: (Units=GPa)
#
#
# Indices 1 2 3 4 5 6 
#
# 1 95.7650 43.9139 64.5369 0.0000 0.0000 -3.2819
# 2 43.9139 95.7650 64.5369 0.0000 0.0000 3.2819
# 3 64.5369 64.5369 170.4998 0.0000 0.0000 0.0000
# 4 0.0000 0.0000 0.0000 26.7267 0.0000 0.0000
# 5 0.0000 0.0000 0.0000 0.0000 26.7267 0.0000
# 6 -3.2819 3.2819 0.0000 0.0000 0.0000 19.3015
#
#
#
# Elastic Compliance Matrix: (Units=1/GPa)
#
#
# Indices 1 2 3 4 5 6 
#
# 1 0.015360 -0.004350 -0.004168 0.000000 0.000000 0.003351
# 2 -0.004350 0.015360 -0.004168 0.000000 0.000000 -0.003351
# 3 -0.004168 -0.004168 0.009020 0.000000 0.000000 0.000000
# 4 0.000000 0.000000 0.000000 0.037416 0.000000 0.000000
# 5 0.000000 0.000000 0.000000 0.000000 0.037416 0.000000
# 6 0.003351 -0.003351 0.000000 0.000000 0.000000 0.052949
#
#
# Mechanical properties :
#
#
# Convention : Reuss Voigt Hill
#
# Bulk Modulus (GPa) = 69.58676 78.66727 74.12702
# Shear Modulus (GPa) = 25.29315 27.15380 26.22348
#
# Velocity S-wave (km/s) = 3.87412 4.01408 3.94472
# Velocity P-wave (km/s) = 7.82969 8.25618 8.04576
#
# Compressibility (1/GPa) = 0.01437055
#
# Stress axis : x y z
#
# Youngs Moduli (GPa) = 65.10262 65.10262 110.86279
#
# Poissons Ratio (x) = 0.28319 0.46204
# Poissons Ratio (y) = 0.28319 0.46204
# Poissons Ratio (z) = 0.27133 0.27133
#
# Static dielectric constant tensor:
#      x y z
#    x 3.045560 0.000000 0.000000 
#    y 0.000000 3.045560 0.000000 
#    z 0.000000 0.000000 3.288070 
# 
# 
# High freq. dielectric constant tensor:
#      x y z
#    x 1.638720 0.000000 0.000000 
#    y 0.000000 1.638720 0.000000 
#    z 0.000000 0.000000 1.667790 
# 
# From -- ./inp_files/2528.got.cif
#   From: 2010.03.12/outbox.cif.g09.slc.cpg/sg87_2_cif.got.tgz:2528.got - 2010.04.08 20:16:13.
