data_PCOD8303490
_publ_section_title
;
Structure prediction by ZEFSAII (Michael W. Deem and Ramdas Pophale) SiO2 
 PCOD8303490
Probable space group: P 42/N
;
_chemical_formula_sum "Si O2"
_cell_formula_units_Z 64
_cell_length_a 24.171240
_cell_length_b 24.171240
_cell_length_c 5.284241
_cell_angle_alpha 90.000000
_cell_angle_beta 90.000000
_cell_angle_gamma 90.000000
_cell_volume 3087.311691
_symmetry_space_group_name_H-M "P 42/N"
_symmetry_group_IT_number 86
_space_group.IT_coordinate_system_code '2'
_symmetry_cell_setting 'tetragonal'
loop_
_space_group_symop_operation_xyz
x,y,z
-y,1/2+x,1/2+z
1/2-x,1/2-y,z
1/2+y,-x,1/2+z
-x,-y,-z
y,1/2-x,1/2-z
1/2+x,1/2+y,-z
1/2-y,x,1/2-z
loop_
_atom_site_type_symbol
_atom_site_label
_atom_site_fract_x
_atom_site_fract_y
_atom_site_fract_z
Si Si1 0.500998 0.850036 0.214810
Si Si2 0.360198 0.909060 0.719447
Si Si3 0.884423 0.379717 0.780691
Si Si4 0.414772 0.008721 0.208402
Si Si5 0.234468 0.159916 0.257974
Si Si6 0.970813 0.852682 0.213485
Si Si7 0.507465 0.085102 0.290434
Si Si8 0.590065 0.758862 0.253819
O O1 0.434841 0.836588 0.234997
O O2 0.516692 0.889499 0.449695
O O3 0.533626 0.793256 0.240284
O O4 0.512128 0.876169 0.940609
O O5 0.344654 0.875270 0.464518
O O6 0.426461 0.922865 0.696338
O O7 0.327342 0.966631 0.734426
O O8 0.348307 0.870747 0.964481
O O9 0.910047 0.442356 0.804887
O O10 0.380473 0.035299 0.439682
O O11 0.479127 0.025037 0.248797
O O12 0.393683 0.037642 0.950263
O O13 0.187012 0.205385 0.233823
O O14 0.223782 0.128711 0.521147
O O15 0.229082 0.119594 0.018986
O O16 0.925270 0.805316 0.233342
#
# Coordination Sequence:
#
# PCOD8303490 Si02
#       8
#     8   8   8   8   8   8   8   8
#     4  10  21  32  46  70  97 121 149 187 233 279
#     4   8  16  29  44  65  95 126 149 171 215 275
#     4   8  16  29  44  65  95 126 149 171 215 275
#     4  10  19  31  48  71  98 125 152 183 228 291
#     4  11  26  46  60  68  84 116 162 220 280 321
#     4  10  21  32  46  70  97 121 149 187 233 279
#     4  10  19  31  48  71  98 125 152 183 228 291
#     4  12  24  39  58  78  96 120 162 213 262 306
#
# _framework density 20.730011000000001
#
# number of rings (size 3 to 8) (size 9 to 14) (size 15 to 20)
#    0.000    2.125    0.000    3.000    0.000   16.000 
#    0.000    0.000    0.000    0.000    0.000    0.000 
#    0.000    0.000    0.000    0.000    0.000  303.750 
#
# Total GULP energy -793074.498613 kJ/mol
# GULP energy per Si atom -12391.789041 kJ/mol
# Density = 2.068283 g / cm^3
# Si number density = 20.730011 Si / 1000 Ang^3
#
#
#
# Elastic Constant Matrix: (Units=GPa)
#
#
# Indices 1 2 3 4 5 6 
#
# 1 20.6751 11.0427 3.5083 0.0000 0.0000 2.6707
# 2 11.0427 20.6751 3.5083 0.0000 0.0000 -2.6707
# 3 3.5083 3.5083 151.0615 0.0000 0.0000 0.0000
# 4 0.0000 0.0000 0.0000 18.6656 0.0000 0.0000
# 5 0.0000 0.0000 0.0000 0.0000 18.6656 0.0000
# 6 2.6707 -2.6707 0.0000 0.0000 0.0000 29.4217
#
#
#
# Elastic Compliance Matrix: (Units=1/GPa)
#
#
# Indices 1 2 3 4 5 6 
#
# 1 0.070505 -0.038814 -0.000736 0.000000 0.000000 -0.009923
# 2 -0.038814 0.070505 -0.000736 0.000000 0.000000 0.009923
# 3 -0.000736 -0.000736 0.006654 0.000000 0.000000 0.000000
# 4 0.000000 0.000000 0.000000 0.053575 0.000000 0.000000
# 5 0.000000 0.000000 0.000000 0.000000 0.053575 0.000000
# 6 -0.009923 0.009923 0.000000 0.000000 0.000000 0.035790
#
#
# Mechanical properties :
#
#
# Convention : Reuss Voigt Hill
#
# Bulk Modulus (GPa) = 14.90497 25.39227 20.14862
# Shear Modulus (GPa) = 12.70526 24.97406 18.83966
#
# Velocity S-wave (km/s) = 2.47835 3.47469 3.01792
# Velocity P-wave (km/s) = 3.92368 5.32668 4.67808
#
# Compressibility (1/GPa) = 0.06709172
#
# Stress axis : x y z
#
# Youngs Moduli (GPa) = 14.18348 14.18348 150.28542
#
# Poissons Ratio (x) = 0.55051 0.11061
# Poissons Ratio (y) = 0.55051 0.11061
# Poissons Ratio (z) = 0.01044 0.01044
#
# Static dielectric constant tensor:
#      x y z
#    x 3.338790 0.000000 0.000000 
#    y 0.000000 3.338790 0.000000 
#    z 0.000000 0.000000 5.256110 
# 
# 
# High freq. dielectric constant tensor:
#      x y z
#    x 1.764090 0.000000 0.000000 
#    y 0.000000 1.764090 0.000000 
#    z 0.000000 0.000000 1.859310 
# 
# From -- ./inp_files/554.got.cif
#   From: 2010.03.12/outbox.cif.g09.slc.cpg/sg86_1_cif.got.tgz:554.got - 2010.04.08 20:12:58.
