data_PCOD8303859
_publ_section_title
;
Structure prediction by ZEFSAII (Michael W. Deem and Ramdas Pophale) SiO2 
 PCOD8303859
Probable space group: I 4/M
;
_chemical_formula_sum "Si O2"
_cell_formula_units_Z 96
_cell_length_a 27.010504
_cell_length_b 27.010504
_cell_length_c 8.899056
_cell_angle_alpha 90.000000
_cell_angle_beta 90.000000
_cell_angle_gamma 90.000000
_cell_volume 6492.460493
_symmetry_space_group_name_H-M "I 4/M"
_symmetry_group_IT_number 87
_symmetry_cell_setting 'tetragonal'
loop_
_space_group_symop_operation_xyz
x,y,z
-y,x,z
-x,-y,z
y,-x,z
-x,-y,-z
y,-x,-z
x,y,-z
-y,x,-z
1/2+x,1/2+y,1/2+z
1/2-y,1/2+x,1/2+z
1/2-x,1/2-y,1/2+z
1/2+y,1/2-x,1/2+z
1/2-x,1/2-y,1/2-z
1/2+y,1/2-x,1/2-z
1/2+x,1/2+y,1/2-z
1/2-y,1/2+x,1/2-z
loop_
_atom_site_type_symbol
_atom_site_label
_atom_site_fract_x
_atom_site_fract_y
_atom_site_fract_z
Si Si1 0.000221 0.827436 0.827321
Si Si2 0.677026 0.767416 0.834865
Si Si3 0.324306 0.748507 0.165498
Si Si4 0.693227 0.403446 0.178829
Si Si5 0.986159 0.920715 0.666125
Si Si6 0.832195 0.885833 0.821650
O O1 0.979325 0.882525 0.800700
O O2 0.056777 0.826582 0.767549
O O3 0.959706 0.795400 0.734327
O O4 0.997331 0.811855 0.000000
O O5 0.719345 0.726541 0.849986
O O6 0.696674 0.812216 0.730687
O O7 0.628227 0.740899 0.766512
O O8 0.665387 0.789326 0.000000
O O9 0.361246 0.719808 0.276198
O O10 0.348553 0.754325 0.000000
O O11 0.642471 0.378632 0.244314
O O12 0.688286 0.401036 0.000000
O O13 0.981830 0.895584 0.500000
O O14 0.943870 0.960342 0.684514
O O15 0.839701 0.883091 0.000000
#
# Coordination Sequence:
#
# PCOD8303859 Si02
#       6
#    16  16  16  16  16  16
#     4  11  22  31  40  56  77 102 130 162 202 240
#     4   8  15  27  42  61  81  99 122 155 197 239
#     4   9  16  26  43  64  81 100 126 156 193 235
#     4  10  20  32  46  61  77 102 134 167 203 242
#     4   9  18  31  44  55  67  89 124 165 206 243
#     4  10  20  32  44  59  81 106 132 165 203 242
#
# _framework density 14.786382
#
# number of rings (size 3 to 8) (size 9 to 14) (size 15 to 20)
#    0.000    2.500    0.000    4.500    0.000   10.667 
#    0.000    0.833    0.000    0.000    0.000    0.000 
#    0.000    0.000    0.000    0.000    0.000    0.833 
#
# Total GULP energy -594635.864366 kJ/mol
# GULP energy per Si atom -12388.247174 kJ/mol
# Density = 1.475273 g / cm^3
# Si number density = 14.786382 Si / 1000 Ang^3
#
#
#
# Elastic Constant Matrix: (Units=GPa)
#
#
# Indices 1 2 3 4 5 6 
#
# 1 42.6650 23.8690 17.3652 0.0000 0.0000 4.3484
# 2 23.8690 42.6650 17.3652 0.0000 0.0000 -4.3484
# 3 17.3652 17.3652 56.5850 0.0000 0.0000 0.0000
# 4 0.0000 0.0000 0.0000 19.6453 0.0000 0.0000
# 5 0.0000 0.0000 0.0000 0.0000 19.6453 0.0000
# 6 4.3484 -4.3484 0.0000 0.0000 0.0000 7.3834
#
#
#
# Elastic Compliance Matrix: (Units=1/GPa)
#
#
# Indices 1 2 3 4 5 6 
#
# 1 0.045514 -0.027617 -0.005492 0.000000 0.000000 -0.043071
# 2 -0.027617 0.045514 -0.005492 0.000000 0.000000 0.043071
# 3 -0.005492 -0.005492 0.021044 0.000000 0.000000 0.000000
# 4 0.000000 0.000000 0.000000 0.050903 0.000000 0.000000
# 5 0.000000 0.000000 0.000000 0.000000 0.050903 0.000000
# 6 -0.043071 0.043071 0.000000 0.000000 0.000000 0.186172
#
#
# Mechanical properties :
#
#
# Convention : Reuss Voigt Hill
#
# Bulk Modulus (GPa) = 28.67955 28.79042 28.73499
# Shear Modulus (GPa) = 10.22755 14.88917 12.55836
#
# Velocity S-wave (km/s) = 2.63285 3.17669 2.91747
# Velocity P-wave (km/s) = 5.35542 5.74181 5.55198
#
# Compressibility (1/GPa) = 0.03486805
#
# Stress axis : x y z
#
# Youngs Moduli (GPa) = 21.97122 21.97122 47.52040
#
# Poissons Ratio (x) = 0.60678 0.26100
# Poissons Ratio (y) = 0.60678 0.26100
# Poissons Ratio (z) = 0.12067 0.12067
#
# Static dielectric constant tensor:
#      x y z
#    x 2.808430 0.000000 0.000000 
#    y 0.000000 2.808430 0.000000 
#    z 0.000000 0.000000 3.059280 
# 
# 
# High freq. dielectric constant tensor:
#      x y z
#    x 1.532720 0.000000 0.000000 
#    y 0.000000 1.532720 0.000000 
#    z 0.000000 0.000000 1.577440 
# 
# From -- ./inp_files/1535.got.cif
#   From: 2010.03.12/outbox.cif.g09.slc.cpg/sg87_1_cif.got.tgz:1535.got - 2010.04.08 20:16:13.
