data_PCOD8303951
_publ_section_title
;
Structure prediction by ZEFSAII (Michael W. Deem and Ramdas Pophale) SiO2 
 PCOD8303951
Probable space group: I 4/M
;
_chemical_formula_sum "Si O2"
_cell_formula_units_Z 72
_cell_length_a 15.142357
_cell_length_b 15.142357
_cell_length_c 17.885494
_cell_angle_alpha 90.000000
_cell_angle_beta 90.000000
_cell_angle_gamma 90.000000
_cell_volume 4100.982367
_symmetry_space_group_name_H-M "I 4/M"
_symmetry_group_IT_number 87
_symmetry_cell_setting 'tetragonal'
loop_
_space_group_symop_operation_xyz
x,y,z
-y,x,z
-x,-y,z
y,-x,z
-x,-y,-z
y,-x,-z
x,y,-z
-y,x,-z
1/2+x,1/2+y,1/2+z
1/2-y,1/2+x,1/2+z
1/2-x,1/2-y,1/2+z
1/2+y,1/2-x,1/2+z
1/2-x,1/2-y,1/2-z
1/2+y,1/2-x,1/2-z
1/2+x,1/2+y,1/2-z
1/2-y,1/2+x,1/2-z
loop_
_atom_site_type_symbol
_atom_site_label
_atom_site_fract_x
_atom_site_fract_y
_atom_site_fract_z
Si Si1 0.220180 0.114077 0.143007
Si Si2 0.577216 0.119269 0.251201
Si Si3 0.588147 0.386844 0.788264
Si Si4 0.461550 0.641181 0.500000
Si Si5 0.736305 0.799212 0.671584
O O1 0.313252 0.084971 0.179447
O O2 0.140297 0.104349 0.202208
O O3 0.201678 0.052095 0.072682
O O4 0.223121 0.217570 0.114286
O O5 0.476085 0.113254 0.223679
O O6 0.635041 0.152736 0.180095
O O7 0.622592 0.484531 0.804085
O O8 0.641395 0.322919 0.845164
O O9 0.392520 0.561207 0.500000
O O10 0.750000 0.750000 0.750000
#
# Coordination Sequence:
#
# PCOD8303951 Si02
#       5
#    16  16  16   8  16
#     4  10  21  31  50  71 104 135 174 207 253 309
#     4   9  18  30  51  77 100 131 162 213 270 307
#     4   9  16  26  46  74 101 124 155 209 261 310
#     4  11  24  38  54  73 101 148 177 206 244 299
#     4   8  18  26  45  69  99 128 158 208 260 298
#
# _framework density 17.556768999999999
#
# number of rings (size 3 to 8) (size 9 to 14) (size 15 to 20)
#    0.000    3.222    0.000    1.333   21.778    1.778 
#    0.000    0.000    0.000    4.000    0.000    0.000 
#    0.000    1.778    0.000    0.000    0.000    0.000 
#
# Total GULP energy -446033.405833 kJ/mol
# GULP energy per Si atom -12389.816829 kJ/mol
# Density = 1.751681 g / cm^3
# Si number density = 17.556769 Si / 1000 Ang^3
#
#
#
# Elastic Constant Matrix: (Units=GPa)
#
#
# Indices 1 2 3 4 5 6 
#
# 1 110.3619 53.4810 7.6908 0.0000 0.0000 1.0502
# 2 53.4810 110.3619 7.6908 0.0000 0.0000 -1.0502
# 3 7.6908 7.6908 31.5856 0.0000 0.0000 0.0000
# 4 0.0000 0.0000 0.0000 15.0304 0.0000 0.0000
# 5 0.0000 0.0000 0.0000 0.0000 15.0304 0.0000
# 6 1.0502 -1.0502 0.0000 0.0000 0.0000 35.0445
#
#
#
# Elastic Compliance Matrix: (Units=1/GPa)
#
#
# Indices 1 2 3 4 5 6 
#
# 1 0.011923 -0.005677 -0.001521 0.000000 0.000000 -0.000527
# 2 -0.005677 0.011923 -0.001521 0.000000 0.000000 0.000527
# 3 -0.001521 -0.001521 0.032401 0.000000 0.000000 0.000000
# 4 0.000000 0.000000 0.000000 0.066532 0.000000 0.000000
# 5 0.000000 0.000000 0.000000 0.000000 0.066532 0.000000
# 6 -0.000527 0.000527 0.000000 0.000000 0.000000 0.028567
#
#
# Mechanical properties :
#
#
# Convention : Reuss Voigt Hill
#
# Bulk Modulus (GPa) = 25.76692 43.33718 34.55205
# Shear Modulus (GPa) = 20.14088 25.25084 22.69586
#
# Velocity S-wave (km/s) = 3.39069 3.79653 3.59933
# Velocity P-wave (km/s) = 5.48062 6.62992 6.08247
#
# Compressibility (1/GPa) = 0.03880945
#
# Stress axis : x y z
#
# Youngs Moduli (GPa) = 83.87066 83.87066 30.86358
#
# Poissons Ratio (x) = 0.47613 0.04694
# Poissons Ratio (y) = 0.47613 0.04694
# Poissons Ratio (z) = 0.12756 0.12756
#
# Static dielectric constant tensor:
#      x y z
#    x 3.753730 0.000000 0.000000 
#    y 0.000000 3.753730 0.000000 
#    z 0.000000 0.000000 2.701340 
# 
# 
# High freq. dielectric constant tensor:
#      x y z
#    x 1.699830 0.000000 0.000000 
#    y 0.000000 1.699830 0.000000 
#    z 0.000000 0.000000 1.591870 
# 
# From -- ./inp_files/4245.got.cif
#   From: 2010.03.12/outbox.cif.g09.slc.cpg/sg87_3_cif.got.tgz:4245.got - 2010.04.08 20:16:13.
