data_PCOD8303254
_publ_section_title
;
Structure prediction by ZEFSAII (Michael W. Deem and Ramdas Pophale) SiO2 
 PCOD8303254
Probable space group: P 42/M
;
_chemical_formula_sum "Si O2"
_cell_formula_units_Z 40
_cell_length_a 14.886887
_cell_length_b 14.886887
_cell_length_c 8.894304
_cell_angle_alpha 90.000000
_cell_angle_beta 90.000000
_cell_angle_gamma 90.000000
_cell_volume 1971.150356
_symmetry_space_group_name_H-M "P 42/M"
_symmetry_group_IT_number 84
_symmetry_cell_setting 'tetragonal'
loop_
_space_group_symop_operation_xyz
x,y,z
-y,x,1/2+z
-x,-y,z
y,-x,1/2+z
-x,-y,-z
y,-x,1/2-z
x,y,-z
-y,x,1/2-z
loop_
_atom_site_type_symbol
_atom_site_label
_atom_site_fract_x
_atom_site_fract_y
_atom_site_fract_z
Si Si1 0.788527 0.400489 0.170265
Si Si2 0.386537 0.566602 0.323239
Si Si3 0.076332 0.249900 0.322675
Si Si4 0.107224 0.776210 0.174378
Si Si5 0.441180 0.918149 0.326753
O O1 0.706974 0.385201 0.285308
O O2 0.863667 0.326291 0.205706
O O3 0.828431 0.499960 0.191388
O O4 0.753042 0.387891 0.000000
O O5 0.465111 0.619174 0.237516
O O6 0.405548 0.568407 0.500000
O O7 0.073596 0.257476 0.500000
O O8 0.156270 0.184414 0.268618
O O9 0.095275 0.348782 0.259969
O O10 0.983659 0.206835 0.265621
O O11 0.086507 0.792534 0.000000
O O12 0.417606 0.938997 0.500000
O O13 0.500000 0.000000 0.259695
#
# Coordination Sequence:
#
# PCOD8303254 Si02
#       5
#     8   8   8   8   8
#     4  10  21  39  62  88 120 161 205 248 305 370
#     4  11  23  40  60  85 120 161 206 251 302 363
#     4  11  24  40  64  96 124 160 207 259 310 361
#     4  10  23  44  64  87 125 165 205 254 313 373
#     4  10  20  39  65  89 119 162 198 239 304 366
#
# _framework density 20.292719000000002
#
# number of rings (size 3 to 8) (size 9 to 14) (size 15 to 20)
#    0.000    1.600    2.000    3.000    2.800    4.000 
#    0.000    2.000    0.000    0.000    0.000    0.000 
#    0.000    0.000    0.000    0.000    0.000    0.000 
#
# Total GULP energy -496157.261061 kJ/mol
# GULP energy per Si atom -12403.931527 kJ/mol
# Density = 2.024653 g / cm^3
# Si number density = 20.292719 Si / 1000 Ang^3
#
#
#
# Elastic Constant Matrix: (Units=GPa)
#
#
# Indices 1 2 3 4 5 6 
#
# 1 105.6933 39.2154 34.3205 0.0000 0.0000 -8.9303
# 2 39.2154 105.6933 34.3205 0.0000 0.0000 8.9303
# 3 34.3205 34.3205 69.2955 0.0000 0.0000 0.0000
# 4 0.0000 0.0000 0.0000 31.1510 0.0000 0.0000
# 5 0.0000 0.0000 0.0000 0.0000 31.1510 0.0000
# 6 -8.9303 8.9303 0.0000 0.0000 0.0000 29.1887
#
#
#
# Elastic Compliance Matrix: (Units=1/GPa)
#
#
# Indices 1 2 3 4 5 6 
#
# 1 0.012703 -0.003687 -0.004465 0.000000 0.000000 0.005015
# 2 -0.003687 0.012703 -0.004465 0.000000 0.000000 -0.005015
# 3 -0.004465 -0.004465 0.018854 0.000000 0.000000 0.000000
# 4 0.000000 0.000000 0.000000 0.032102 0.000000 0.000000
# 5 0.000000 0.000000 0.000000 0.000000 0.032102 0.000000
# 6 0.005015 -0.005015 0.000000 0.000000 0.000000 0.037328
#
#
# Mechanical properties :
#
#
# Convention : Reuss Voigt Hill
#
# Bulk Modulus (GPa) = 52.56357 55.15496 53.85927
# Shear Modulus (GPa) = 28.18980 29.81984 29.00482
#
# Velocity S-wave (km/s) = 3.73119 3.83754 3.78474
# Velocity P-wave (km/s) = 6.67242 6.84648 6.76001
#
# Compressibility (1/GPa) = 0.01902458
#
# Stress axis : x y z
#
# Youngs Moduli (GPa) = 78.72165 78.72165 53.03846
#
# Poissons Ratio (x) = 0.29024 0.23684
# Poissons Ratio (y) = 0.29024 0.23684
# Poissons Ratio (z) = 0.35153 0.35153
#
# Static dielectric constant tensor:
#      x y z
#    x 3.700690 0.000000 0.000000 
#    y 0.000000 3.700690 0.000000 
#    z 0.000000 0.000000 3.573280 
# 
# 
# High freq. dielectric constant tensor:
#      x y z
#    x 1.797460 0.000000 0.000000 
#    y 0.000000 1.797460 0.000000 
#    z 0.000000 0.000000 1.782710 
# 
# From -- ./inp_files/760.got.cif
#   From: 2010.03.12/outbox.cif.g09.slc.cpg/sg84_1_cif.got.tgz:760.got - 2010.04.08 20:07:29.
