data_PCOD8303001
_publ_section_title
;
Structure prediction by ZEFSAII (Michael W. Deem and Ramdas Pophale) SiO2 
 PCOD8303001
Probable space group: P 4/M
;
_chemical_formula_sum "Si O2"
_cell_formula_units_Z 48
_cell_length_a 8.167238
_cell_length_b 8.167238
_cell_length_c 32.765124
_cell_angle_alpha 90.000000
_cell_angle_beta 90.000000
_cell_angle_gamma 90.000000
_cell_volume 2185.557510
_symmetry_space_group_name_H-M "P 4/M"
_symmetry_group_IT_number 83
_symmetry_cell_setting 'tetragonal'
loop_
_space_group_symop_operation_xyz
x,y,z
-y,x,z
-x,-y,z
y,-x,z
-x,-y,-z
y,-x,-z
x,y,-z
-y,x,-z
loop_
_atom_site_type_symbol
_atom_site_label
_atom_site_fract_x
_atom_site_fract_y
_atom_site_fract_z
Si Si1 0.500000 0.000000 0.318943
Si Si2 0.500000 0.000000 0.889886
Si Si3 0.048397 0.735759 0.753161
Si Si4 0.922904 0.742656 0.045103
Si Si5 0.529781 0.765291 0.391679
Si Si6 0.931547 0.259750 0.546594
Si Si7 0.763885 0.429968 0.178725
O O1 0.338220 0.028687 0.291951
O O2 0.494541 0.161151 0.346693
O O3 0.385369 0.889286 0.918973
O O4 0.599234 0.870037 0.862200
O O5 0.108667 0.593211 0.783852
O O6 0.871825 0.813072 0.760699
O O7 0.109006 0.799623 0.050244
O O8 0.899188 0.663672 0.000000
O O9 0.359658 0.677689 0.398624
O O10 0.581840 0.903475 0.424572
O O11 0.912542 0.318218 0.500000
O O12 0.113812 0.196252 0.555665
O O13 0.698524 0.615575 0.180308
#
# Coordination Sequence:
#
# PCOD8303001 Si02
#       7
#     4   4   8   8   8   8   8
#     4  12  23  42  63  87 122 159 197 250 311 366
#     4  12  20  34  58  87 118 159 210 254 302 374
#     4  11  24  43  68  94 120 158 209 257 303 368
#     4   9  19  35  54  79 113 155 205 261 316 364
#     4  11  24  39  58  88 124 161 202 248 302 365
#     4   9  19  38  64  92 123 162 207 254 305 360
#     4  11  24  41  62  92 131 167 200 250 317 381
#
# _framework density 21.96236
#
# number of rings (size 3 to 8) (size 9 to 14) (size 15 to 20)
#    0.000    1.500    0.000    6.750    0.000    0.667 
#    0.000    7.917    0.000    0.000    0.000    7.000 
#    0.000    0.000    0.000    0.000    0.000    0.000 
#
# Total GULP energy -594788.314440 kJ/mol
# GULP energy per Si atom -12391.423218 kJ/mol
# Density = 2.191237 g / cm^3
# Si number density = 21.962360 Si / 1000 Ang^3
#
#
#
# Elastic Constant Matrix: (Units=GPa)
#
#
# Indices 1 2 3 4 5 6 
#
# 1 91.7009 42.7137 52.7355 0.0000 0.0000 9.8040
# 2 42.7137 91.7009 52.7355 0.0000 0.0000 -9.8040
# 3 52.7355 52.7355 156.1962 0.0000 0.0000 0.0000
# 4 0.0000 0.0000 0.0000 15.2942 0.0000 0.0000
# 5 0.0000 0.0000 0.0000 0.0000 15.2942 0.0000
# 6 9.8040 -9.8040 0.0000 0.0000 0.0000 40.1684
#
#
#
# Elastic Compliance Matrix: (Units=1/GPa)
#
#
# Indices 1 2 3 4 5 6 
#
# 1 0.016372 -0.006251 -0.003417 0.000000 0.000000 -0.005522
# 2 -0.006251 0.016372 -0.003417 0.000000 0.000000 0.005522
# 3 -0.003417 -0.003417 0.008710 0.000000 0.000000 0.000000
# 4 0.000000 0.000000 0.000000 0.065384 0.000000 0.000000
# 5 0.000000 0.000000 0.000000 0.000000 0.065384 0.000000
# 6 -0.005522 0.005522 0.000000 0.000000 0.000000 0.027591
#
#
# Mechanical properties :
#
#
# Convention : Reuss Voigt Hill
#
# Bulk Modulus (GPa) = 65.43143 70.66305 68.04724
# Shear Modulus (GPa) = 21.63768 26.91226 24.27497
#
# Velocity S-wave (km/s) = 3.14222 3.50434 3.32821
# Velocity P-wave (km/s) = 6.55911 6.97269 6.76906
#
# Compressibility (1/GPa) = 0.01528318
#
# Stress axis : x y z
#
# Youngs Moduli (GPa) = 61.07874 61.07874 114.81621
#
# Poissons Ratio (x) = 0.38183 0.39233
# Poissons Ratio (y) = 0.38183 0.39233
# Poissons Ratio (z) = 0.20871 0.20871
#
# Static dielectric constant tensor:
#      x y z
#    x 3.939470 0.000000 0.000000 
#    y 0.000000 3.939470 0.000000 
#    z 0.000000 0.000000 3.934130 
# 
# 
# High freq. dielectric constant tensor:
#      x y z
#    x 1.871850 0.000000 0.000000 
#    y 0.000000 1.871850 0.000000 
#    z 0.000000 0.000000 1.865980 
# 
# From -- ./inp_files/3459.got.cif
#   From: 2010.03.12/outbox.cif.g09.slc.cpg/sg83_2_cif.got.tgz:3459.got - 2010.04.08 20:05:18.
