data_PCOD8303252
_publ_section_title
;
Structure prediction by ZEFSAII (Michael W. Deem and Ramdas Pophale) SiO2 
 PCOD8303252
Probable space group: P 42/M
;
_chemical_formula_sum "Si O2"
_cell_formula_units_Z 40
_cell_length_a 14.504239
_cell_length_b 14.504239
_cell_length_c 9.809672
_cell_angle_alpha 90.000000
_cell_angle_beta 90.000000
_cell_angle_gamma 90.000000
_cell_volume 2063.689627
_symmetry_space_group_name_H-M "P 42/M"
_symmetry_group_IT_number 84
_symmetry_cell_setting 'tetragonal'
loop_
_space_group_symop_operation_xyz
x,y,z
-y,x,1/2+z
-x,-y,z
y,-x,1/2+z
-x,-y,-z
y,-x,1/2-z
x,y,-z
-y,x,1/2-z
loop_
_atom_site_type_symbol
_atom_site_label
_atom_site_fract_x
_atom_site_fract_y
_atom_site_fract_z
Si Si1 0.023276 0.395014 0.265625
Si Si2 0.165936 0.180186 0.500000
Si Si3 0.259505 0.026302 0.000000
Si Si4 0.318937 0.779043 0.225861
Si Si5 0.009317 0.704928 0.000000
Si Si6 0.394999 0.434160 0.338357
Si Si7 0.198670 0.231420 0.000000
O O1 0.133706 0.386689 0.263727
O O2 0.000000 0.500000 0.301091
O O3 0.979215 0.326017 0.372184
O O4 0.976352 0.363951 0.125420
O O5 0.200322 0.231189 0.633988
O O6 0.208166 0.078302 0.500000
O O7 0.054081 0.181370 0.500000
O O8 0.206730 0.122028 0.000000
O O9 0.375811 0.697177 0.159861
O O10 0.278645 0.751353 0.372222
O O11 0.909666 0.750570 0.000000
O O12 0.379333 0.526573 0.247698
O O13 0.421269 0.451988 0.500000
#
# Coordination Sequence:
#
# PCOD8303252 Si02
#       7
#     8   4   4   8   4   8   4
#     4  10  21  39  58  86 118 155 193 245 297 353
#     4  10  20  39  60  85 118 158 194 244 303 353
#     4  10  21  37  60  84 120 154 196 243 295 355
#     4  10  22  39  59  86 123 153 197 247 297 350
#     4  10  21  37  60  84 120 152 196 247 293 355
#     4  11  24  42  63  89 120 157 200 247 297 355
#     4  10  22  37  58  91 118 158 198 244 293 353
#
# _framework density 19.382759
#
# number of rings (size 3 to 8) (size 9 to 14) (size 15 to 20)
#    0.000    1.800    1.000    3.000    2.800    3.600 
#    0.000    0.000    0.000    7.200    0.000    0.000 
#    0.000    0.000    0.000    0.000    0.000    0.000 
#
# Total GULP energy -495822.331039 kJ/mol
# GULP energy per Si atom -12395.558276 kJ/mol
# Density = 1.933864 g / cm^3
# Si number density = 19.382759 Si / 1000 Ang^3
#
#
#
# Elastic Constant Matrix: (Units=GPa)
#
#
# Indices 1 2 3 4 5 6 
#
# 1 87.8470 19.3367 11.5633 0.0000 0.0000 19.2256
# 2 19.3367 87.8470 11.5633 0.0000 0.0000 -19.2256
# 3 11.5633 11.5633 135.3569 0.0000 0.0000 0.0000
# 4 0.0000 0.0000 0.0000 5.6906 0.0000 0.0000
# 5 0.0000 0.0000 0.0000 0.0000 5.6906 0.0000
# 6 19.2256 -19.2256 0.0000 0.0000 0.0000 35.7768
#
#
#
# Elastic Compliance Matrix: (Units=1/GPa)
#
#
# Indices 1 2 3 4 5 6 
#
# 1 0.015202 -0.005697 -0.000812 0.000000 0.000000 -0.011231
# 2 -0.005697 0.015202 -0.000812 0.000000 0.000000 0.011231
# 3 -0.000812 -0.000812 0.007527 0.000000 0.000000 0.000000
# 4 0.000000 0.000000 0.000000 0.175728 0.000000 0.000000
# 5 0.000000 0.000000 0.000000 0.000000 0.175728 0.000000
# 6 -0.011231 0.011231 0.000000 0.000000 0.000000 0.040022
#
#
# Mechanical properties :
#
#
# Convention : Reuss Voigt Hill
#
# Bulk Modulus (GPa) = 42.93948 43.99750 43.46849
# Shear Modulus (GPa) = 11.06649 27.33745 19.20197
#
# Velocity S-wave (km/s) = 2.39204 3.75960 3.15091
# Velocity P-wave (km/s) = 5.46174 6.44940 5.97601
#
# Compressibility (1/GPa) = 0.02328859
#
# Stress axis : x y z
#
# Youngs Moduli (GPa) = 65.77927 65.77927 132.86189
#
# Poissons Ratio (x) = 0.37477 0.10788
# Poissons Ratio (y) = 0.37477 0.10788
# Poissons Ratio (z) = 0.05341 0.05341
#
# Static dielectric constant tensor:
#      x y z
#    x 3.399780 0.000000 0.000000 
#    y 0.000000 3.399780 0.000000 
#    z 0.000000 0.000000 4.044880 
# 
# 
# High freq. dielectric constant tensor:
#      x y z
#    x 1.748040 0.000000 0.000000 
#    y 0.000000 1.748040 0.000000 
#    z 0.000000 0.000000 1.781900 
# 
# From -- ./inp_files/861.got.cif
#   From: 2010.03.12/outbox.cif.g09.slc.cpg/sg84_1_cif.got.tgz:861.got - 2010.04.08 20:07:29.
