data_PCOD8303629
_publ_section_title
;
Structure prediction by ZEFSAII (Michael W. Deem and Ramdas Pophale) SiO2 
 PCOD8303629
Probable space group: P 42/N
;
_chemical_formula_sum "Si O2"
_cell_formula_units_Z 40
_cell_length_a 9.785006
_cell_length_b 9.785006
_cell_length_c 22.568331
_cell_angle_alpha 90.000000
_cell_angle_beta 90.000000
_cell_angle_gamma 90.000000
_cell_volume 2160.835148
_symmetry_space_group_name_H-M "P 42/N"
_symmetry_group_IT_number 86
_space_group.IT_coordinate_system_code '2'
_symmetry_cell_setting 'tetragonal'
loop_
_space_group_symop_operation_xyz
x,y,z
-y,1/2+x,1/2+z
1/2-x,1/2-y,z
1/2+y,-x,1/2+z
-x,-y,-z
y,1/2-x,1/2-z
1/2+x,1/2+y,-z
1/2-y,x,1/2-z
loop_
_atom_site_type_symbol
_atom_site_label
_atom_site_fract_x
_atom_site_fract_y
_atom_site_fract_z
Si Si1 0.883608 0.337811 0.551966
Si Si2 0.250000 0.250000 0.250000
Si Si3 0.750000 0.750000 0.250000
Si Si4 0.486737 0.832205 0.318091
Si Si5 0.250000 0.750000 0.230765
Si Si6 0.009513 0.348176 0.330307
Si Si7 0.882457 0.656177 0.542705
O O1 0.750000 0.250000 0.534591
O O2 0.937687 0.289176 0.616310
O O3 0.839474 0.496716 0.546795
O O4 0.010557 0.310317 0.508847
O O5 0.125188 0.288351 0.289937
O O6 0.624461 0.759426 0.295967
O O7 0.375755 0.784075 0.271904
O O8 0.507989 0.992885 0.318496
O O9 0.274886 0.628772 0.185842
O O10 0.042212 0.305548 0.396926
O O11 0.750000 0.750000 0.532407
#
# Coordination Sequence:
#
# PCOD8303629 Si02
#       7
#     8   2   2   8   4   8   8
#     4  10  23  43  65  88 126 163 205 258 310 364
#     4  12  20  36  62  88 116 160 188 258 308 356
#     4  12  24  40  58  92 124 164 204 254 300 380
#     4  11  23  40  61  90 125 160 205 250 311 368
#     4  12  22  38  60  90 120 162 196 254 310 366
#     4  11  23  38  61  92 123 156 205 253 306 368
#     4  10  23  43  63  92 122 161 210 257 304 366
#
# _framework density 18.511361999999998
#
# number of rings (size 3 to 8) (size 9 to 14) (size 15 to 20)
#    0.000    1.200    6.000    0.000    2.800    0.800 
#    3.600    0.000    0.000    0.000    0.000    0.000 
#    0.000    0.000    0.000    0.000    0.000    0.000 
#
# Total GULP energy -495970.453195 kJ/mol
# GULP energy per Si atom -12399.261330 kJ/mol
# Density = 1.846923 g / cm^3
# Si number density = 18.511362 Si / 1000 Ang^3
#
#
#
# Elastic Constant Matrix: (Units=GPa)
#
#
# Indices 1 2 3 4 5 6 
#
# 1 119.4961 75.2526 56.8313 0.0000 0.0000 -10.9349
# 2 75.2526 119.4961 56.8313 0.0000 0.0000 10.9349
# 3 56.8313 56.8313 118.9990 0.0000 0.0000 0.0000
# 4 0.0000 0.0000 0.0000 -11.7987 0.0000 0.0000
# 5 0.0000 0.0000 0.0000 0.0000 -11.7987 0.0000
# 6 -10.9349 10.9349 0.0000 0.0000 0.0000 26.2494
#
#
#
# Elastic Compliance Matrix: (Units=1/GPa)
#
#
# Indices 1 2 3 4 5 6 
#
# 1 0.017791 -0.010672 -0.003400 0.000000 0.000000 0.011857
# 2 -0.010672 0.017791 -0.003400 0.000000 0.000000 -0.011857
# 3 -0.003400 -0.003400 0.011651 0.000000 0.000000 0.000000
# 4 0.000000 0.000000 0.000000 -0.084755 0.000000 0.000000
# 5 0.000000 0.000000 0.000000 0.000000 -0.084755 0.000000
# 6 0.011857 -0.011857 0.000000 0.000000 0.000000 0.047975
#
#
# Mechanical properties :
#
#
# Convention : Reuss Voigt Hill
#
# Bulk Modulus (GPa) = 81.37075 81.75794 81.56435
# Shear Modulus (GPa) = -141.79903 11.80213 -64.99845
#
# Velocity S-wave (km/s) = -8.76170 2.52774 -5.93203
# Velocity P-wave (km/s) = 7.63570 7.26509 1.66168
#
# Compressibility (1/GPa) = 0.01228943
#
# Stress axis : x y z
#
# Youngs Moduli (GPa) = 56.20747 56.20747 85.83014
#
# Poissons Ratio (x) = 0.59985 0.29182
# Poissons Ratio (y) = 0.59985 0.29182
# Poissons Ratio (z) = 0.19110 0.19110
#
# Static dielectric constant tensor:
#      x y z
#    x 3.672630 0.000000 0.000000 
#    y 0.000000 3.672630 0.000000 
#    z 0.000000 0.000000 3.626280 
# 
# 
# High freq. dielectric constant tensor:
#      x y z
#    x 1.726010 0.000000 0.000000 
#    y 0.000000 1.726010 0.000000 
#    z 0.000000 0.000000 1.733100 
# 
# From -- ./inp_files/4576.got.cif
#   From: 2010.03.12/outbox.cif.g09.slc.cpg/sg86_3_cif.got.tgz:4576.got - 2010.04.08 20:12:58.
