data_PCOD8303870
_publ_section_title
;
Structure prediction by ZEFSAII (Michael W. Deem and Ramdas Pophale) SiO2 
 PCOD8303870
Probable space group: I 4/M
;
_chemical_formula_sum "Si O2"
_cell_formula_units_Z 96
_cell_length_a 14.054275
_cell_length_b 14.054275
_cell_length_c 22.749544
_cell_angle_alpha 90.000000
_cell_angle_beta 90.000000
_cell_angle_gamma 90.000000
_cell_volume 4493.550121
_symmetry_space_group_name_H-M "I 4/M"
_symmetry_group_IT_number 87
_symmetry_cell_setting 'tetragonal'
loop_
_space_group_symop_operation_xyz
x,y,z
-y,x,z
-x,-y,z
y,-x,z
-x,-y,-z
y,-x,-z
x,y,-z
-y,x,-z
1/2+x,1/2+y,1/2+z
1/2-y,1/2+x,1/2+z
1/2-x,1/2-y,1/2+z
1/2+y,1/2-x,1/2+z
1/2-x,1/2-y,1/2-z
1/2+y,1/2-x,1/2-z
1/2+x,1/2+y,1/2-z
1/2-y,1/2+x,1/2-z
loop_
_atom_site_type_symbol
_atom_site_label
_atom_site_fract_x
_atom_site_fract_y
_atom_site_fract_z
Si Si1 0.849243 0.031387 0.685160
Si Si2 0.061575 0.266715 0.069810
Si Si3 0.475879 0.137223 0.779330
Si Si4 0.900245 0.527728 0.091298
Si Si5 0.648236 0.264571 0.430551
Si Si6 0.586636 0.731293 0.064541
O O1 0.836025 0.041502 0.614321
O O2 0.926699 0.111342 0.701797
O O3 0.751188 0.044033 0.722087
O O4 0.109170 0.359460 0.098034
O O5 0.129938 0.180184 0.088874
O O6 0.956473 0.251668 0.096852
O O7 0.058793 0.278226 0.000000
O O8 0.389934 0.078324 0.749189
O O9 0.476356 0.104475 0.846208
O O10 0.816092 0.487597 0.051409
O O11 0.000000 0.500000 0.060697
O O12 0.639581 0.257105 0.500000
O O13 0.724625 0.185503 0.410095
O O14 0.600926 0.680712 0.000000
#
# Coordination Sequence:
#
# PCOD8303870 Si02
#       6
#    16  16  16  16  16  16
#     4  10  24  43  63  92 127 161 198 240 297 364
#     4  10  20  33  52  80 117 161 201 248 299 354
#     4  10  21  40  66  93 115 145 198 255 311 366
#     4  11  19  33  58  84 115 149 192 255 298 347
#     4   9  19  32  48  76 114 158 208 245 287 345
#     4  10  21  34  54  87 125 165 206 240 280 345
#
# _framework density 21.363954
#
# number of rings (size 3 to 8) (size 9 to 14) (size 15 to 20)
#    0.000    2.000    3.333    0.500    4.667    2.333 
#    0.000    2.500    3.667    0.000    0.000    0.000 
#    0.000    0.000    0.000    0.000    0.000    0.000 
#
# Total GULP energy -594857.807296 kJ/mol
# GULP energy per Si atom -12392.870985 kJ/mol
# Density = 2.131533 g / cm^3
# Si number density = 21.363954 Si / 1000 Ang^3
#
#
#
# Elastic Constant Matrix: (Units=GPa)
#
#
# Indices 1 2 3 4 5 6 
#
# 1 106.6205 43.9151 10.4475 0.0000 0.0000 -2.6230
# 2 43.9151 106.6205 10.4475 0.0000 0.0000 2.6230
# 3 10.4475 10.4475 50.0645 0.0000 0.0000 0.0000
# 4 0.0000 0.0000 0.0000 12.1296 0.0000 0.0000
# 5 0.0000 0.0000 0.0000 0.0000 12.1296 0.0000
# 6 -2.6230 2.6230 0.0000 0.0000 0.0000 31.5830
#
#
#
# Elastic Compliance Matrix: (Units=1/GPa)
#
#
# Indices 1 2 3 4 5 6 
#
# 1 0.011450 -0.004609 -0.001428 0.000000 0.000000 0.001334
# 2 -0.004609 0.011450 -0.001428 0.000000 0.000000 -0.001334
# 3 -0.001428 -0.001428 0.020570 0.000000 0.000000 0.000000
# 4 0.000000 0.000000 0.000000 0.082443 0.000000 0.000000
# 5 0.000000 0.000000 0.000000 0.000000 0.082443 0.000000
# 6 0.001334 -0.001334 0.000000 0.000000 0.000000 0.031884
#
#
# Mechanical properties :
#
#
# Convention : Reuss Voigt Hill
#
# Bulk Modulus (GPa) = 35.03629 43.65842 39.34735
# Shear Modulus (GPa) = 18.89050 24.40145 21.64597
#
# Velocity S-wave (km/s) = 2.97681 3.38328 3.18653
# Velocity P-wave (km/s) = 5.31513 5.97846 5.65653
#
# Compressibility (1/GPa) = 0.02854184
#
# Stress axis : x y z
#
# Youngs Moduli (GPa) = 87.33514 87.33514 48.61434
#
# Poissons Ratio (x) = 0.40253 0.06940
# Poissons Ratio (y) = 0.40253 0.06940
# Poissons Ratio (z) = 0.12468 0.12468
#
# Static dielectric constant tensor:
#      x y z
#    x 3.996640 0.000000 0.000000 
#    y 0.000000 3.996640 0.000000 
#    z 0.000000 0.000000 3.527810 
# 
# 
# High freq. dielectric constant tensor:
#      x y z
#    x 1.836400 0.000000 0.000000 
#    y 0.000000 1.836400 0.000000 
#    z 0.000000 0.000000 1.802090 
# 
# From -- ./inp_files/5272.got.cif
#   From: 2010.03.12/outbox.cif.g09.slc.cpg/sg87_3_cif.got.tgz:5272.got - 2010.04.08 20:16:13.
