data_PCOD8303852
_publ_section_title
;
Structure prediction by ZEFSAII (Michael W. Deem and Ramdas Pophale) SiO2 
 PCOD8303852
Probable space group: I 4/M
;
_chemical_formula_sum "Si O2"
_cell_formula_units_Z 112
_cell_length_a 14.455523
_cell_length_b 14.455523
_cell_length_c 23.658296
_cell_angle_alpha 90.000000
_cell_angle_beta 90.000000
_cell_angle_gamma 90.000000
_cell_volume 4943.688284
_symmetry_space_group_name_H-M "I 4/M"
_symmetry_group_IT_number 87
_symmetry_cell_setting 'tetragonal'
loop_
_space_group_symop_operation_xyz
x,y,z
-y,x,z
-x,-y,z
y,-x,z
-x,-y,-z
y,-x,-z
x,y,-z
-y,x,-z
1/2+x,1/2+y,1/2+z
1/2-y,1/2+x,1/2+z
1/2-x,1/2-y,1/2+z
1/2+y,1/2-x,1/2+z
1/2-x,1/2-y,1/2-z
1/2+y,1/2-x,1/2-z
1/2+x,1/2+y,1/2-z
1/2-y,1/2+x,1/2-z
loop_
_atom_site_type_symbol
_atom_site_label
_atom_site_fract_x
_atom_site_fract_y
_atom_site_fract_z
Si Si1 0.535099 0.266453 0.562154
Si Si2 0.110735 0.599130 0.562628
Si Si3 0.751959 0.264601 0.062272
Si Si4 0.892483 0.516548 0.176914
Si Si5 0.151970 0.254463 0.677366
Si Si6 0.148337 0.998827 0.822469
Si Si7 0.749858 0.885670 0.746357
O O1 0.502502 0.303526 0.500000
O O2 0.500358 0.160647 0.569155
O O3 0.644305 0.271553 0.567049
O O4 0.489989 0.325608 0.611885
O O5 0.065581 0.608203 0.500000
O O6 0.187117 0.677263 0.572784
O O7 0.031835 0.606174 0.609541
O O8 0.734508 0.340919 0.110329
O O9 0.733559 0.308278 0.000000
O O10 0.817406 0.437088 0.189342
O O11 0.846332 0.603407 0.210302
O O12 0.000000 0.500000 0.197295
O O13 0.164433 0.153862 0.707936
O O14 0.237484 0.314295 0.701502
O O15 0.229957 0.014153 0.776484
O O16 0.091431 0.091758 0.809039
#
# Coordination Sequence:
#
# PCOD8303852 Si02
#       7
#    16  16  16  16  16  16  16
#     4  10  20  35  60  90 125 171 216 263 327 394
#     4  10  22  41  66  96 136 169 208 279 333 389
#     4  10  19  38  63  90 124 170 217 260 331 402
#     4  12  27  42  68 102 134 167 221 279 328 389
#     4  11  24  42  66  92 123 181 209 270 330 395
#     4  11  23  38  61  90 123 170 226 277 321 383
#     4  11  25  44  62  89 135 172 223 261 334 396
#
# _framework density 22.655149000000002
#
# number of rings (size 3 to 8) (size 9 to 14) (size 15 to 20)
#    0.000    1.286    2.857    2.571    2.000    2.571 
#    0.000    0.714    0.000    0.000    0.000    0.000 
#    0.000    2.286    0.000    0.000    0.000    0.000 
#
# Total GULP energy -693810.188229 kJ/mol
# GULP energy per Si atom -12389.467647 kJ/mol
# Density = 2.260358 g / cm^3
# Si number density = 22.655149 Si / 1000 Ang^3
#
#
#
# Elastic Constant Matrix: (Units=GPa)
#
#
# Indices 1 2 3 4 5 6 
#
# 1 109.3833 -20.5923 34.8524 0.0000 0.0000 -24.8998
# 2 -20.5923 109.3833 34.8524 0.0000 0.0000 24.8998
# 3 34.8524 34.8524 151.1094 0.0000 0.0000 0.0000
# 4 0.0000 0.0000 0.0000 25.9209 0.0000 0.0000
# 5 0.0000 0.0000 0.0000 0.0000 25.9209 0.0000
# 6 -24.8998 24.8998 0.0000 0.0000 0.0000 49.9906
#
#
#
# Elastic Compliance Matrix: (Units=1/GPa)
#
#
# Indices 1 2 3 4 5 6 
#
# 1 0.011630 0.002122 -0.003172 0.000000 0.000000 0.004736
# 2 0.002122 0.011630 -0.003172 0.000000 0.000000 -0.004736
# 3 -0.003172 -0.003172 0.008081 0.000000 0.000000 0.000000
# 4 0.000000 0.000000 0.000000 0.038579 0.000000 0.000000
# 5 0.000000 0.000000 0.000000 0.000000 0.038579 0.000000
# 6 0.004736 -0.004736 0.000000 0.000000 0.000000 0.024722
#
#
# Mechanical properties :
#
#
# Convention : Reuss Voigt Hill
#
# Bulk Modulus (GPa) = 43.67156 52.01123 47.84139
# Shear Modulus (GPa) = 33.49020 41.75071 37.62046
#
# Velocity S-wave (km/s) = 3.84899 4.29753 4.07943
# Velocity P-wave (km/s) = 6.25071 6.90165 6.58423
#
# Compressibility (1/GPa) = 0.02289820
#
# Stress axis : x y z
#
# Youngs Moduli (GPa) = 85.98142 85.98142 123.74869
#
# Poissons Ratio (x) = -0.18246 0.39252
# Poissons Ratio (y) = -0.18246 0.39252
# Poissons Ratio (z) = 0.27273 0.27273
#
# Static dielectric constant tensor:
#      x y z
#    x 3.845540 0.000000 0.000000 
#    y 0.000000 3.845540 0.000000 
#    z 0.000000 0.000000 4.483890 
# 
# 
# High freq. dielectric constant tensor:
#      x y z
#    x 1.872580 0.000000 0.000000 
#    y 0.000000 1.872580 0.000000 
#    z 0.000000 0.000000 1.920160 
# 
# From -- ./inp_files/5884.got.cif
#   From: 2010.03.12/outbox.cif.g09.slc.cpg/sg87_3_cif.got.tgz:5884.got - 2010.04.08 20:16:13.
