data_PCOD8303906
_publ_section_title
;
Structure prediction by ZEFSAII (Michael W. Deem and Ramdas Pophale) SiO2 
 PCOD8303906
Probable space group: I 4/M
;
_chemical_formula_sum "Si O2"
_cell_formula_units_Z 112
_cell_length_a 15.604513
_cell_length_b 15.604513
_cell_length_c 25.892014
_cell_angle_alpha 90.000000
_cell_angle_beta 90.000000
_cell_angle_gamma 90.000000
_cell_volume 6304.726795
_symmetry_space_group_name_H-M "I 4/M"
_symmetry_group_IT_number 87
_symmetry_cell_setting 'tetragonal'
loop_
_space_group_symop_operation_xyz
x,y,z
-y,x,z
-x,-y,z
y,-x,z
-x,-y,-z
y,-x,-z
x,y,-z
-y,x,-z
1/2+x,1/2+y,1/2+z
1/2-y,1/2+x,1/2+z
1/2-x,1/2-y,1/2+z
1/2+y,1/2-x,1/2+z
1/2-x,1/2-y,1/2-z
1/2+y,1/2-x,1/2-z
1/2+x,1/2+y,1/2-z
1/2-y,1/2+x,1/2-z
loop_
_atom_site_type_symbol
_atom_site_label
_atom_site_fract_x
_atom_site_fract_y
_atom_site_fract_z
Si Si1 0.199621 0.215079 0.865962
Si Si2 0.887344 0.083832 0.941738
Si Si3 0.093175 0.504830 0.868522
Si Si4 0.347019 0.903993 0.797683
Si Si5 0.190671 0.828717 0.559630
Si Si6 0.752919 0.513487 0.941070
Si Si7 0.172468 0.399689 0.307976
O O1 0.125796 0.174685 0.900592
O O2 0.156583 0.290251 0.833513
O O3 0.271643 0.251230 0.903734
O O4 0.240140 0.144335 0.827668
O O5 0.982686 0.118100 0.932809
O O6 0.857486 0.106137 0.000000
O O7 0.092097 0.444396 0.818063
O O8 0.161703 0.470666 0.908794
O O9 0.111755 0.602126 0.852683
O O10 0.000000 0.500000 0.895582
O O11 0.348493 0.861613 0.741581
O O12 0.308877 0.000419 0.795487
O O13 0.215829 0.810673 0.500000
O O14 0.090743 0.811965 0.569560
O O15 0.204786 0.927129 0.575164
O O16 0.782815 0.510228 0.000000
#
# Coordination Sequence:
#
# PCOD8303906 Si02
#       7
#    16  16  16  16  16  16  16
#     4  12  21  34  57  86 110 136 187 231 276 316
#     4   9  19  37  58  80 113 153 185 221 272 329
#     4  10  20  35  57  81 110 150 183 220 277 333
#     4  11  22  37  57  80 110 146 184 225 273 329
#     4  10  21  35  55  78 109 142 178 228 277 326
#     4  10  20  38  56  80 111 145 182 228 279 334
#     4  11  22  37  57  80 110 146 184 225 273 329
#
# _framework density 17.764448999999999
#
# number of rings (size 3 to 8) (size 9 to 14) (size 15 to 20)
#    0.000    1.571    4.286    2.143    0.000    0.571 
#    0.000    1.429    0.000    0.000    0.000    0.000 
#    0.000    0.000    0.000    0.000    0.000    0.000 
#
# Total GULP energy -694536.333887 kJ/mol
# GULP energy per Si atom -12402.434534 kJ/mol
# Density = 1.772402 g / cm^3
# Si number density = 17.764449 Si / 1000 Ang^3
#
#
#
# Elastic Constant Matrix: (Units=GPa)
#
#
# Indices 1 2 3 4 5 6 
#
# 1 34.3125 54.6350 27.8321 0.0000 0.0000 -8.5642
# 2 54.6350 34.3125 27.8321 0.0000 0.0000 8.5642
# 3 27.8321 27.8321 65.0417 0.0000 0.0000 0.0000
# 4 0.0000 0.0000 0.0000 25.9681 0.0000 0.0000
# 5 0.0000 0.0000 0.0000 0.0000 25.9681 0.0000
# 6 -8.5642 8.5642 0.0000 0.0000 0.0000 26.5920
#
#
#
# Elastic Compliance Matrix: (Units=1/GPa)
#
#
# Indices 1 2 3 4 5 6 
#
# 1 -0.011674 0.027028 -0.006570 0.000000 0.000000 -0.012464
# 2 0.027028 -0.011674 -0.006570 0.000000 0.000000 0.012464
# 3 -0.006570 -0.006570 0.020998 0.000000 0.000000 0.000000
# 4 0.000000 0.000000 0.000000 0.038509 0.000000 0.000000
# 5 0.000000 0.000000 0.000000 0.000000 0.038509 0.000000
# 6 -0.012464 0.012464 0.000000 0.000000 0.000000 0.029577
#
#
# Mechanical properties :
#
#
# Convention : Reuss Voigt Hill
#
# Bulk Modulus (GPa) = 39.33097 39.36278 39.34688
# Shear Modulus (GPa) = 58.86127 17.26347 38.06237
#
# Velocity S-wave (km/s) = 5.76249 3.12075 4.63386
# Velocity P-wave (km/s) = 8.15250 5.93226 7.12934
#
# Compressibility (1/GPa) = 0.02542526
#
# Stress axis : x y z
#
# Youngs Moduli (GPa) = -85.66335 -85.66335 47.62416
#
# Poissons Ratio (x) = 2.31530 0.31290
# Poissons Ratio (y) = 2.31530 0.31290
# Poissons Ratio (z) = -0.56283 -0.56283
#
# Static dielectric constant tensor:
#      x y z
#    x 3.305280 0.000000 0.000000 
#    y 0.000000 3.305280 0.000000 
#    z 0.000000 0.000000 3.223450 
# 
# 
# High freq. dielectric constant tensor:
#      x y z
#    x 1.690130 0.000000 0.000000 
#    y 0.000000 1.690130 0.000000 
#    z 0.000000 0.000000 1.685400 
# 
# From -- ./inp_files/5907.got.cif
#   From: 2010.03.12/outbox.cif.g09.slc.cpg/sg87_3_cif.got.tgz:5907.got - 2010.04.08 20:16:13.
