data_PCOD8303027
_publ_section_title
;
Structure prediction by ZEFSAII (Michael W. Deem and Ramdas Pophale) SiO2 
 PCOD8303027
Probable space group: P 4/M
;
_chemical_formula_sum "Si O2"
_cell_formula_units_Z 36
_cell_length_a 15.588063
_cell_length_b 15.588063
_cell_length_c 7.340583
_cell_angle_alpha 90.000000
_cell_angle_beta 90.000000
_cell_angle_gamma 90.000000
_cell_volume 1783.671439
_symmetry_space_group_name_H-M "P 4/M"
_symmetry_group_IT_number 83
_symmetry_cell_setting 'tetragonal'
loop_
_space_group_symop_operation_xyz
x,y,z
-y,x,z
-x,-y,z
y,-x,z
-x,-y,-z
y,-x,-z
x,y,-z
-y,x,-z
loop_
_atom_site_type_symbol
_atom_site_label
_atom_site_fract_x
_atom_site_fract_y
_atom_site_fract_z
Si Si1 0.627147 0.433798 0.500000
Si Si2 0.422170 0.053685 0.784116
Si Si3 0.010742 0.243408 0.216626
Si Si4 0.830453 0.185499 0.783970
Si Si5 0.239174 0.631774 0.784728
O O1 0.614508 0.536105 0.500000
O O2 0.679262 0.406257 0.680080
O O3 0.423187 0.154299 0.730074
O O4 0.500000 0.000000 0.697079
O O5 0.338337 0.006303 0.708495
O O6 0.423175 0.047943 0.000000
O O7 0.099731 0.210148 0.302794
O O8 0.929482 0.186895 0.281234
O O9 0.017354 0.242481 0.000000
O O10 0.777826 0.269867 0.721801
O O11 0.827902 0.183552 0.000000
O O12 0.258003 0.625823 0.000000
#
# Coordination Sequence:
#
# PCOD8303027 Si02
#       5
#     4   8   8   8   8
#     4  11  26  44  59  80 108 135 173 226 274 322
#     4   8  14  26  47  76 107 137 173 221 270 312
#     4   8  13  21  36  65 104 140 176 217 258 306
#     4   8  14  25  44  72 105 142 180 215 257 310
#     4   9  19  37  59  81 108 143 179 217 266 321
#
# _framework density 20.183088999999999
#
# number of rings (size 3 to 8) (size 9 to 14) (size 15 to 20)
#    0.000    3.444    0.000    2.667    0.000    3.111 
#    0.000    8.333    0.000    5.333    0.000    0.000 
#    0.000    7.111    0.000    0.889    0.000    0.000 
#
# Total GULP energy -446040.357747 kJ/mol
# GULP energy per Si atom -12390.009937 kJ/mol
# Density = 2.013715 g / cm^3
# Si number density = 20.183089 Si / 1000 Ang^3
#
#
#
# Elastic Constant Matrix: (Units=GPa)
#
#
# Indices 1 2 3 4 5 6 
#
# 1 165.3758 107.2814 30.6168 0.0000 0.0000 -13.8001
# 2 107.2814 165.3758 30.6168 0.0000 0.0000 13.8001
# 3 30.6168 30.6168 60.3735 0.0000 0.0000 0.0000
# 4 0.0000 0.0000 0.0000 -0.8263 0.0000 0.0000
# 5 0.0000 0.0000 0.0000 0.0000 -0.8263 0.0000
# 6 -13.8001 13.8001 0.0000 0.0000 0.0000 39.6320
#
#
#
# Elastic Compliance Matrix: (Units=1/GPa)
#
#
# Indices 1 2 3 4 5 6 
#
# 1 0.012382 -0.008243 -0.002099 0.000000 0.000000 0.007182
# 2 -0.008243 0.012382 -0.002099 0.000000 0.000000 -0.007182
# 3 -0.002099 -0.002099 0.018692 0.000000 0.000000 0.000000
# 4 0.000000 0.000000 0.000000 -1.210193 0.000000 0.000000
# 5 0.000000 0.000000 0.000000 0.000000 -1.210193 0.000000
# 6 0.007182 -0.007182 0.000000 0.000000 0.000000 0.030234
#
#
# Mechanical properties :
#
#
# Convention : Reuss Voigt Hill
#
# Bulk Modulus (GPa) = 53.83718 80.90610 67.37164
# Shear Modulus (GPa) = -2.15925 22.43656 10.13866
#
# Velocity S-wave (km/s) = -1.03545 3.33776 2.24371
# Velocity P-wave (km/s) = 5.03019 7.41804 6.33759
#
# Compressibility (1/GPa) = 0.01857452
#
# Stress axis : x y z
#
# Youngs Moduli (GPa) = 80.76115 80.76115 53.49755
#
# Poissons Ratio (x) = 0.66573 0.11229
# Poissons Ratio (y) = 0.66573 0.11229
# Poissons Ratio (z) = 0.16952 0.16952
#
# Static dielectric constant tensor:
#      x y z
#    x 4.016710 0.000000 0.000000 
#    y 0.000000 4.016710 0.000000 
#    z 0.000000 0.000000 3.211180 
# 
# 
# High freq. dielectric constant tensor:
#      x y z
#    x 1.784450 0.000000 0.000000 
#    y 0.000000 1.784450 0.000000 
#    z 0.000000 0.000000 1.767680 
# 
# From -- ./inp_files/501.got.cif
#   From: 2010.03.12/outbox.cif.g09.slc.cpg/sg83_1_cif.got.tgz:501.got - 2010.04.08 20:05:18.
