data_PCOD8303427
_publ_section_title
;
Structure prediction by ZEFSAII (Michael W. Deem and Ramdas Pophale) SiO2 
 PCOD8303427
Probable space group: P 4/N
;
_chemical_formula_sum "Si O2"
_cell_formula_units_Z 48
_cell_length_a 15.636023
_cell_length_b 15.636023
_cell_length_c 11.297869
_cell_angle_alpha 90.000000
_cell_angle_beta 90.000000
_cell_angle_gamma 90.000000
_cell_volume 2762.161934
_symmetry_space_group_name_H-M "P 4/N"
_symmetry_group_IT_number 85
_symmetry_cell_setting 'tetragonal'
loop_
_space_group_symop_operation_xyz
x,y,z
1/2-y,x,z
1/2-x,1/2-y,z
y,1/2-x,z
-x,-y,-z
1/2+y,-x,-z
1/2+x,1/2+y,-z
-y,1/2+x,-z
loop_
_atom_site_type_symbol
_atom_site_label
_atom_site_fract_x
_atom_site_fract_y
_atom_site_fract_z
Si Si1 0.622534 0.203197 0.968091
Si Si2 0.200015 0.119606 0.301931
Si Si3 0.601040 0.944986 0.108056
Si Si4 0.276765 0.387358 0.571331
Si Si5 0.488186 0.217950 0.793801
Si Si6 0.011137 0.397924 0.116973
O O1 0.588722 0.206771 0.830885
O O2 0.642407 0.296014 0.022151
O O3 0.543835 0.167170 0.040229
O O4 0.298003 0.141841 0.273588
O O5 0.203499 0.086494 0.436754
O O6 0.158602 0.044783 0.225270
O O7 0.571160 0.859431 0.169063
O O8 0.700361 0.955373 0.133666
O O9 0.548016 0.024688 0.163629
O O10 0.585796 0.938500 0.965763
O O11 0.183870 0.348008 0.598980
O O12 0.278651 0.473327 0.652072
#
# Coordination Sequence:
#
# PCOD8303427 Si02
#       6
#     8   8   8   8   8   8
#     4  10  21  36  56  76 105 150 185 217 269 332
#     4   9  20  35  56  80 108 147 180 221 280 338
#     4  10  22  32  53  85 111 142 174 230 277 329
#     4   9  17  33  54  78 108 142 180 219 273 334
#     4  11  19  34  55  81 113 140 181 226 280 323
#     4  10  21  37  53  78 116 139 183 226 270 331
#
# _framework density 17.377693000000001
#
# number of rings (size 3 to 8) (size 9 to 14) (size 15 to 20)
#    0.000    2.167    3.333    1.000    4.667    0.333 
#    0.000    0.833    3.667    0.000    0.000    2.333 
#    0.000    0.000    0.000    0.000    0.000    0.000 
#
# Total GULP energy -594706.100522 kJ/mol
# GULP energy per Si atom -12389.710428 kJ/mol
# Density = 1.733814 g / cm^3
# Si number density = 17.377693 Si / 1000 Ang^3
#
#
#
# Elastic Constant Matrix: (Units=GPa)
#
#
# Indices 1 2 3 4 5 6 
#
# 1 79.1336 38.8921 47.2281 0.0000 0.0000 0.3000
# 2 38.8921 79.1336 47.2281 0.0000 0.0000 -0.3000
# 3 47.2281 47.2281 87.5972 0.0000 0.0000 0.0000
# 4 0.0000 0.0000 0.0000 26.6052 0.0000 0.0000
# 5 0.0000 0.0000 0.0000 0.0000 26.6052 0.0000
# 6 0.3000 -0.3000 0.0000 0.0000 0.0000 27.9101
#
#
#
# Elastic Compliance Matrix: (Units=1/GPa)
#
#
# Indices 1 2 3 4 5 6 
#
# 1 0.019879 -0.004975 -0.008035 0.000000 0.000000 -0.000267
# 2 -0.004975 0.019879 -0.008035 0.000000 0.000000 0.000267
# 3 -0.008035 -0.008035 0.020080 0.000000 0.000000 0.000000
# 4 0.000000 0.000000 0.000000 0.037587 0.000000 0.000000
# 5 0.000000 0.000000 0.000000 0.000000 0.037587 0.000000
# 6 -0.000267 0.000267 0.000000 0.000000 0.000000 0.035835
#
#
# Mechanical properties :
#
#
# Convention : Reuss Voigt Hill
#
# Bulk Modulus (GPa) = 56.34995 56.95122 56.65058
# Shear Modulus (GPa) = 22.84650 23.72520 23.28585
#
# Velocity S-wave (km/s) = 3.62982 3.69896 3.66455
# Velocity P-wave (km/s) = 7.07562 7.14751 7.11165
#
# Compressibility (1/GPa) = 0.01774624
#
# Stress axis : x y z
#
# Youngs Moduli (GPa) = 50.30546 50.30546 49.80058
#
# Poissons Ratio (x) = 0.25029 0.40015
# Poissons Ratio (y) = 0.25029 0.40015
# Poissons Ratio (z) = 0.40421 0.40421
#
# Static dielectric constant tensor:
#      x y z
#    x 3.291770 0.000000 0.000000 
#    y 0.000000 3.291770 0.000000 
#    z 0.000000 0.000000 3.249930 
# 
# 
# High freq. dielectric constant tensor:
#      x y z
#    x 1.670200 0.000000 0.000000 
#    y 0.000000 1.670200 0.000000 
#    z 0.000000 0.000000 1.652500 
# 
# From -- ./inp_files/1622.got.cif
#   From: 2010.03.12/outbox.cif.g09.slc.cpg/sg85_cif.got.tgz:1622.got - 2010.04.08 20:10:46.
