data_PCOD8303734
_publ_section_title
;
Structure prediction by ZEFSAII (Michael W. Deem and Ramdas Pophale) SiO2 
 PCOD8303734
Probable space group: I 4/M
;
_chemical_formula_sum "Si O2"
_cell_formula_units_Z 112
_cell_length_a 25.663664
_cell_length_b 25.663664
_cell_length_c 9.648964
_cell_angle_alpha 90.000000
_cell_angle_beta 90.000000
_cell_angle_gamma 90.000000
_cell_volume 6355.035887
_symmetry_space_group_name_H-M "I 4/M"
_symmetry_group_IT_number 87
_symmetry_cell_setting 'tetragonal'
loop_
_space_group_symop_operation_xyz
x,y,z
-y,x,z
-x,-y,z
y,-x,z
-x,-y,-z
y,-x,-z
x,y,-z
-y,x,-z
1/2+x,1/2+y,1/2+z
1/2-y,1/2+x,1/2+z
1/2-x,1/2-y,1/2+z
1/2+y,1/2-x,1/2+z
1/2-x,1/2-y,1/2-z
1/2+y,1/2-x,1/2-z
1/2+x,1/2+y,1/2-z
1/2-y,1/2+x,1/2-z
loop_
_atom_site_type_symbol
_atom_site_label
_atom_site_fract_x
_atom_site_fract_y
_atom_site_fract_z
Si Si1 0.322784 0.385791 0.336624
Si Si2 0.014080 0.766529 0.835129
Si Si3 0.304314 0.597372 0.663440
Si Si4 0.632768 0.783815 0.153070
Si Si5 0.616090 0.071072 0.660116
Si Si6 0.021801 0.645939 0.162759
Si Si7 0.753476 0.700836 0.654909
O O1 0.317685 0.390955 0.500000
O O2 0.306197 0.441803 0.273848
O O3 0.380605 0.362697 0.298624
O O4 0.279936 0.345580 0.279684
O O5 0.022387 0.706598 0.784790
O O6 0.960615 0.792944 0.780088
O O7 0.014611 0.766715 0.000000
O O8 0.295257 0.600833 0.500000
O O9 0.262491 0.635336 0.735245
O O10 0.588761 0.825092 0.191486
O O11 0.686380 0.816376 0.151382
O O12 0.622594 0.759727 0.000000
O O13 0.608625 0.054711 0.500000
O O14 0.576388 0.117741 0.697453
O O15 0.610363 0.020823 0.758040
O O16 0.009016 0.644398 0.000000
O O17 0.733085 0.714089 0.500000
O O18 0.750000 0.750000 0.750000
#
# Coordination Sequence:
#
# PCOD8303734 Si02
#       7
#    16  16  16  16  16  16  16
#     4   9  17  29  47  73 102 128 162 204 243 293
#     4   9  17  31  51  74 100 131 168 204 246 300
#     4  10  18  30  52  76  95 127 170 205 240 291
#     4  10  19  31  48  70 100 132 160 198 253 306
#     4  10  21  35  51  72  98 131 171 214 260 299
#     4  10  20  35  54  72  95 132 174 211 251 301
#     4  10  18  28  45  69  99 130 157 194 246 299
#
# _framework density 17.623819999999998
#
# number of rings (size 3 to 8) (size 9 to 14) (size 15 to 20)
#    0.000    2.286    2.857    0.857    0.000    4.286 
#    0.000    1.429    0.000    5.571    0.000    3.000 
#    0.000    0.000    0.000    1.286    0.000    1.429 
#
# Total GULP energy -693794.826878 kJ/mol
# GULP energy per Si atom -12389.193337 kJ/mol
# Density = 1.758371 g / cm^3
# Si number density = 17.623820 Si / 1000 Ang^3
#
#
#
# Elastic Constant Matrix: (Units=GPa)
#
#
# Indices 1 2 3 4 5 6 
#
# 1 104.5351 54.8110 21.9906 0.0000 0.0000 -0.9348
# 2 54.8110 104.5351 21.9906 0.0000 0.0000 0.9348
# 3 21.9906 21.9906 32.9126 0.0000 0.0000 0.0000
# 4 0.0000 0.0000 0.0000 18.2005 0.0000 0.0000
# 5 0.0000 0.0000 0.0000 0.0000 18.2005 0.0000
# 6 -0.9348 0.9348 0.0000 0.0000 0.0000 31.0138
#
#
#
# Elastic Compliance Matrix: (Units=1/GPa)
#
#
# Indices 1 2 3 4 5 6 
#
# 1 0.013914 -0.006220 -0.005141 0.000000 0.000000 0.000607
# 2 -0.006220 0.013914 -0.005141 0.000000 0.000000 -0.000607
# 3 -0.005141 -0.005141 0.037254 0.000000 0.000000 0.000000
# 4 0.000000 0.000000 0.000000 0.054944 0.000000 0.000000
# 5 0.000000 0.000000 0.000000 0.000000 0.054944 0.000000
# 6 0.000607 -0.000607 0.000000 0.000000 0.000000 0.032280
#
#
# Mechanical properties :
#
#
# Convention : Reuss Voigt Hill
#
# Bulk Modulus (GPa) = 31.17377 48.84081 40.00729
# Shear Modulus (GPa) = 19.92457 23.02898 21.47677
#
# Velocity S-wave (km/s) = 3.36601 3.61875 3.49466
# Velocity P-wave (km/s) = 5.73005 6.72559 6.24768
#
# Compressibility (1/GPa) = 0.03207825
#
# Stress axis : x y z
#
# Youngs Moduli (GPa) = 71.86880 71.86880 26.84289
#
# Poissons Ratio (x) = 0.44699 0.13801
# Poissons Ratio (y) = 0.44699 0.13801
# Poissons Ratio (z) = 0.36949 0.36949
#
# Static dielectric constant tensor:
#      x y z
#    x 3.496660 0.000000 0.000000 
#    y 0.000000 3.496660 0.000000 
#    z 0.000000 0.000000 3.009130 
# 
# 
# High freq. dielectric constant tensor:
#      x y z
#    x 1.676850 0.000000 0.000000 
#    y 0.000000 1.676850 0.000000 
#    z 0.000000 0.000000 1.647070 
# 
# From -- ./inp_files/2893.got.cif
#   From: 2010.03.12/outbox.cif.g09.slc.cpg/sg87_2_cif.got.tgz:2893.got - 2010.04.08 20:16:13.
