data_PCOD8303823
_publ_section_title
;
Structure prediction by ZEFSAII (Michael W. Deem and Ramdas Pophale) SiO2 
 PCOD8303823
Probable space group: I 4/M
;
_chemical_formula_sum "Si O2"
_cell_formula_units_Z 112
_cell_length_a 15.118088
_cell_length_b 15.118088
_cell_length_c 24.912903
_cell_angle_alpha 90.000000
_cell_angle_beta 90.000000
_cell_angle_gamma 90.000000
_cell_volume 5694.008027
_symmetry_space_group_name_H-M "I 4/M"
_symmetry_group_IT_number 87
_symmetry_cell_setting 'tetragonal'
loop_
_space_group_symop_operation_xyz
x,y,z
-y,x,z
-x,-y,z
y,-x,z
-x,-y,-z
y,-x,-z
x,y,-z
-y,x,-z
1/2+x,1/2+y,1/2+z
1/2-y,1/2+x,1/2+z
1/2-x,1/2-y,1/2+z
1/2+y,1/2-x,1/2+z
1/2-x,1/2-y,1/2-z
1/2+y,1/2-x,1/2-z
1/2+x,1/2+y,1/2-z
1/2-y,1/2+x,1/2-z
loop_
_atom_site_type_symbol
_atom_site_label
_atom_site_fract_x
_atom_site_fract_y
_atom_site_fract_z
Si Si1 0.286054 0.155816 0.266806
Si Si2 0.098614 0.751200 0.157873
Si Si3 0.743807 0.401510 0.341804
Si Si4 0.055155 0.866768 0.332685
Si Si5 0.307072 0.829812 0.561309
Si Si6 0.667004 0.819253 0.557914
Si Si7 0.725338 0.516537 0.939172
O O1 0.250000 0.250000 0.250000
O O2 0.311557 0.110342 0.210296
O O3 0.372994 0.175831 0.302185
O O4 0.215840 0.095623 0.299964
O O5 0.160948 0.836519 0.161953
O O6 0.115133 0.694895 0.103560
O O7 0.000595 0.790018 0.164888
O O8 0.787336 0.404790 0.400361
O O9 0.952365 0.885606 0.317858
O O10 0.053895 0.846664 0.396825
O O11 0.344449 0.832647 0.500000
O O12 0.229743 0.759554 0.568032
O O13 0.261052 0.920981 0.578072
O O14 0.627448 0.794969 0.500000
O O15 0.687147 0.922920 0.562387
O O16 0.684736 0.516712 0.000000
#
# Coordination Sequence:
#
# PCOD8303823 Si02
#       7
#    16  16  16  16  16  16  16
#     4  10  23  40  60  82 118 163 201 243 302 369
#     4  10  23  38  65  86 118 148 202 248 304 366
#     4  10  21  41  59  91 109 155 191 247 305 356
#     4  11  24  37  59  94 129 162 202 256 305 358
#     4   9  19  36  59  88 122 163 202 242 301 368
#     4   9  17  33  56  82 115 156 196 234 288 353
#     4  10  19  33  60  90 124 166 205 244 293 365
#
# _framework density 19.669801
#
# number of rings (size 3 to 8) (size 9 to 14) (size 15 to 20)
#    0.000    2.143    1.429    0.857    8.000    2.571 
#    0.000    1.429    0.000    2.571    0.000    4.000 
#    0.000    0.000    0.000    0.000    0.000    0.000 
#
# Total GULP energy -693835.036604 kJ/mol
# GULP energy per Si atom -12389.911368 kJ/mol
# Density = 1.962503 g / cm^3
# Si number density = 19.669801 Si / 1000 Ang^3
#
#
#
# Elastic Constant Matrix: (Units=GPa)
#
#
# Indices 1 2 3 4 5 6 
#
# 1 72.8418 22.2616 42.3771 0.0000 0.0000 -1.8232
# 2 22.2616 72.8418 42.3771 0.0000 0.0000 1.8232
# 3 42.3771 42.3771 137.0547 0.0000 0.0000 0.0000
# 4 0.0000 0.0000 0.0000 21.2673 0.0000 0.0000
# 5 0.0000 0.0000 0.0000 0.0000 21.2673 0.0000
# 6 -1.8232 1.8232 0.0000 0.0000 0.0000 16.7702
#
#
#
# Elastic Compliance Matrix: (Units=1/GPa)
#
#
# Indices 1 2 3 4 5 6 
#
# 1 0.017221 -0.002706 -0.004488 0.000000 0.000000 0.002166
# 2 -0.002706 0.017221 -0.004488 0.000000 0.000000 -0.002166
# 3 -0.004488 -0.004488 0.010072 0.000000 0.000000 0.000000
# 4 0.000000 0.000000 0.000000 0.047021 0.000000 0.000000
# 5 0.000000 0.000000 0.000000 0.000000 0.047021 0.000000
# 6 0.002166 -0.002166 0.000000 0.000000 0.000000 0.060101
#
#
# Mechanical properties :
#
#
# Convention : Reuss Voigt Hill
#
# Bulk Modulus (GPa) = 47.28350 55.19665 51.24008
# Shear Modulus (GPa) = 21.82759 23.57578 22.70169
#
# Velocity S-wave (km/s) = 3.33483 3.46580 3.40095
# Velocity P-wave (km/s) = 6.23851 6.64366 6.44427
#
# Compressibility (1/GPa) = 0.02114903
#
# Stress axis : x y z
#
# Youngs Moduli (GPa) = 58.07016 58.07016 99.28897
#
# Poissons Ratio (x) = 0.15715 0.44559
# Poissons Ratio (y) = 0.15715 0.44559
# Poissons Ratio (z) = 0.26061 0.26061
#
# Static dielectric constant tensor:
#      x y z
#    x 3.400230 0.000000 0.000000 
#    y 0.000000 3.400230 0.000000 
#    z 0.000000 0.000000 4.222160 
# 
# 
# High freq. dielectric constant tensor:
#      x y z
#    x 1.744000 0.000000 0.000000 
#    y 0.000000 1.744000 0.000000 
#    z 0.000000 0.000000 1.788710 
# 
# From -- ./inp_files/6271.got.cif
#   From: 2010.03.12/outbox.cif.g09.slc.cpg/sg87_4_cif.got.tgz:6271.got - 2010.04.08 20:16:13.
