data_PCOD8303314
_publ_section_title
;
Structure prediction by ZEFSAII (Michael W. Deem and Ramdas Pophale) SiO2 
 PCOD8303314
Probable space group: P 42/M
;
_chemical_formula_sum "Si O2"
_cell_formula_units_Z 48
_cell_length_a 8.486594
_cell_length_b 8.486594
_cell_length_c 28.554956
_cell_angle_alpha 90.000000
_cell_angle_beta 90.000000
_cell_angle_gamma 90.000000
_cell_volume 2056.592971
_symmetry_space_group_name_H-M "P 42/M"
_symmetry_group_IT_number 84
_symmetry_cell_setting 'tetragonal'
loop_
_space_group_symop_operation_xyz
x,y,z
-y,x,1/2+z
-x,-y,z
y,-x,1/2+z
-x,-y,-z
y,-x,1/2-z
x,y,-z
-y,x,1/2-z
loop_
_atom_site_type_symbol
_atom_site_label
_atom_site_fract_x
_atom_site_fract_y
_atom_site_fract_z
Si Si1 0.280160 0.648028 0.447220
Si Si2 0.420344 0.156276 0.447346
Si Si3 0.837785 0.692555 0.202686
Si Si4 0.345926 0.788776 0.884840
Si Si5 0.204386 0.666076 0.793823
Si Si6 0.831979 0.909698 0.883170
O O1 0.229873 0.597704 0.500000
O O2 0.463591 0.693354 0.446580
O O3 0.251019 0.508670 0.410389
O O4 0.183068 0.806841 0.432310
O O5 0.362096 0.121024 0.500000
O O6 0.273731 0.197247 0.415016
O O7 0.500000 0.000000 0.425798
O O8 0.772054 0.781597 0.247709
O O9 0.764405 0.519631 0.209940
O O10 0.782707 0.785581 0.156914
O O11 0.023619 0.693092 0.193835
O O12 0.331385 0.720026 0.832566
O O13 0.316723 0.973336 0.880936
O O14 0.000000 0.000000 0.878097
#
# Coordination Sequence:
#
# PCOD8303314 Si02
#       6
#     8   8   8   8   8   8
#     4  11  26  46  70 105 149 195 249 314 380 452
#     4  10  22  42  70 102 140 186 242 302 367 442
#     4  11  26  48  71 105 141 188 243 301 369 449
#     4  12  24  41  71 102 141 190 238 299 371 445
#     4  11  26  46  75 103 144 186 241 301 369 446
#     4  12  25  45  73 102 144 190 249 309 375 448
#
# _framework density 23.339572
#
# number of rings (size 3 to 8) (size 9 to 14) (size 15 to 20)
#    0.000    0.833    1.667    4.500    4.667    4.000 
#    0.000    0.000    0.000    0.000    0.000    0.000 
#    0.000    0.000    0.000    0.000    0.000    0.000 
#
# Total GULP energy -594928.006102 kJ/mol
# GULP energy per Si atom -12394.333460 kJ/mol
# Density = 2.328645 g / cm^3
# Si number density = 23.339572 Si / 1000 Ang^3
#
#
#
# Elastic Constant Matrix: (Units=GPa)
#
#
# Indices 1 2 3 4 5 6 
#
# 1 66.4733 21.0215 44.5054 0.0000 0.0000 -5.1177
# 2 21.0215 66.4733 44.5054 0.0000 0.0000 5.1177
# 3 44.5054 44.5054 128.9153 0.0000 0.0000 0.0000
# 4 0.0000 0.0000 0.0000 30.4788 0.0000 0.0000
# 5 0.0000 0.0000 0.0000 0.0000 30.4788 0.0000
# 6 -5.1177 5.1177 0.0000 0.0000 0.0000 35.5717
#
#
#
# Elastic Compliance Matrix: (Units=1/GPa)
#
#
# Indices 1 2 3 4 5 6 
#
# 1 0.020177 -0.002561 -0.006082 0.000000 0.000000 0.003271
# 2 -0.002561 0.020177 -0.006082 0.000000 0.000000 -0.003271
# 3 -0.006082 -0.006082 0.011956 0.000000 0.000000 0.000000
# 4 0.000000 0.000000 0.000000 0.032810 0.000000 0.000000
# 5 0.000000 0.000000 0.000000 0.000000 0.032810 0.000000
# 6 0.003271 -0.003271 0.000000 0.000000 0.000000 0.029054
#
#
# Mechanical properties :
#
#
# Convention : Reuss Voigt Hill
#
# Bulk Modulus (GPa) = 43.74058 53.54739 48.64399
# Shear Modulus (GPa) = 27.16617 29.42783 28.29700
#
# Velocity S-wave (km/s) = 3.41538 3.55470 3.48574
# Velocity P-wave (km/s) = 5.85958 6.31193 6.08996
#
# Compressibility (1/GPa) = 0.02286206
#
# Stress axis : x y z
#
# Youngs Moduli (GPa) = 49.56108 49.56108 83.63890
#
# Poissons Ratio (x) = 0.12692 0.50866
# Poissons Ratio (y) = 0.12692 0.50866
# Poissons Ratio (z) = 0.30141 0.30141
#
# Static dielectric constant tensor:
#      x y z
#    x 4.271940 0.000000 0.000000 
#    y 0.000000 4.271940 0.000000 
#    z 0.000000 0.000000 4.210140 
# 
# 
# High freq. dielectric constant tensor:
#      x y z
#    x 1.930690 0.000000 0.000000 
#    y 0.000000 1.930690 0.000000 
#    z 0.000000 0.000000 1.927150 
# 
# From -- ./inp_files/5815.got.cif
#   From: 2010.03.12/outbox.cif.g09.slc.cpg/sg84_3_cif.got.tgz:5815.got - 2010.04.08 20:07:29.
