data_PCOD8303657
_publ_section_title
;
Structure prediction by ZEFSAII (Michael W. Deem and Ramdas Pophale) SiO2 
 PCOD8303657
Probable space group: P 42/N
;
_chemical_formula_sum "Si O2"
_cell_formula_units_Z 48
_cell_length_a 16.359378
_cell_length_b 16.359378
_cell_length_c 8.695456
_cell_angle_alpha 90.000000
_cell_angle_beta 90.000000
_cell_angle_gamma 90.000000
_cell_volume 2327.158355
_symmetry_space_group_name_H-M "P 42/N"
_symmetry_group_IT_number 86
_space_group.IT_coordinate_system_code '2'
_symmetry_cell_setting 'tetragonal'
loop_
_space_group_symop_operation_xyz
x,y,z
-y,1/2+x,1/2+z
1/2-x,1/2-y,z
1/2+y,-x,1/2+z
-x,-y,-z
y,1/2-x,1/2-z
1/2+x,1/2+y,-z
1/2-y,x,1/2-z
loop_
_atom_site_type_symbol
_atom_site_label
_atom_site_fract_x
_atom_site_fract_y
_atom_site_fract_z
Si Si1 0.250000 0.250000 0.750000
Si Si2 0.250000 0.750000 0.722888
Si Si3 0.250000 0.250000 0.250000
Si Si4 0.962541 0.828299 0.446040
Si Si5 0.701751 0.913907 0.390922
Si Si6 0.353100 0.471233 0.428423
Si Si7 0.159761 0.645487 0.973643
Si Si8 0.106431 0.326432 0.391523
O O1 0.170366 0.248960 0.855943
O O2 0.191125 0.693123 0.823737
O O3 0.303437 0.686966 0.622628
O O4 0.201471 0.320889 0.338889
O O5 0.961540 0.823061 0.262009
O O6 0.924817 0.914954 0.499990
O O7 0.909498 0.758296 0.523737
O O8 0.054540 0.805582 0.494989
O O9 0.764877 0.964775 0.492558
O O10 0.615420 0.899074 0.482436
O O11 0.375004 0.564558 0.456626
O O12 0.348026 0.455241 0.244907
#
# Coordination Sequence:
#
# PCOD8303657 Si02
#       8
#     2   4   2   8   8   8   8   8
#     4  12  18  32  54  84 130 164 198 212 274 344
#     4  10  24  50  68  84 102 150 226 256 304 370
#     4  12  18  32  54  84 130 164 198 212 274 344
#     4  12  22  38  58  93 128 158 198 245 305 360
#     4  12  21  34  59  91 128 170 200 233 283 361
#     4  12  22  38  58  93 128 158 198 245 305 360
#     4  11  25  44  69  85 112 155 201 269 311 353
#     4  12  21  34  59  91 128 170 200 233 283 361
#
# _framework density 20.626014999999999
#
# number of rings (size 3 to 8) (size 9 to 14) (size 15 to 20)
#    0.000    0.333    6.667    3.000    0.000    0.000 
#    0.000    0.833    0.000    0.000    0.000    0.000 
#    0.000    0.000    0.000    0.000    0.000    0.000 
#
# Total GULP energy -595028.262311 kJ/mol
# GULP energy per Si atom -12396.422131 kJ/mol
# Density = 2.057907 g / cm^3
# Si number density = 20.626015 Si / 1000 Ang^3
#
#
#
# Elastic Constant Matrix: (Units=GPa)
#
#
# Indices 1 2 3 4 5 6 
#
# 1 72.8122 15.9244 28.6155 0.0000 0.0000 -2.8184
# 2 15.9244 72.8122 28.6155 0.0000 0.0000 2.8184
# 3 28.6155 28.6155 121.3321 0.0000 0.0000 0.0000
# 4 0.0000 0.0000 0.0000 21.7501 0.0000 0.0000
# 5 0.0000 0.0000 0.0000 0.0000 21.7501 0.0000
# 6 -2.8184 2.8184 0.0000 0.0000 0.0000 18.1599
#
#
#
# Elastic Compliance Matrix: (Units=1/GPa)
#
#
# Indices 1 2 3 4 5 6 
#
# 1 0.015572 -0.002281 -0.003135 0.000000 0.000000 0.002771
# 2 -0.002281 0.015572 -0.003135 0.000000 0.000000 -0.002771
# 3 -0.003135 -0.003135 0.009720 0.000000 0.000000 0.000000
# 4 0.000000 0.000000 0.000000 0.045977 0.000000 0.000000
# 5 0.000000 0.000000 0.000000 0.000000 0.045977 0.000000
# 6 0.002771 -0.002771 0.000000 0.000000 0.000000 0.055926
#
#
# Mechanical properties :
#
#
# Convention : Reuss Voigt Hill
#
# Bulk Modulus (GPa) = 42.08056 45.91860 43.99958
# Shear Modulus (GPa) = 23.39002 25.25208 24.32105
#
# Velocity S-wave (km/s) = 3.37115 3.50277 3.43759
# Velocity P-wave (km/s) = 5.96648 6.21852 6.09380
#
# Compressibility (1/GPa) = 0.02376394
#
# Stress axis : x y z
#
# Youngs Moduli (GPa) = 64.21782 64.21782 102.87640
#
# Poissons Ratio (x) = 0.14648 0.32248
# Poissons Ratio (y) = 0.14648 0.32248
# Poissons Ratio (z) = 0.20130 0.20130
#
# Static dielectric constant tensor:
#      x y z
#    x 3.555070 0.000000 0.000000 
#    y 0.000000 3.555070 0.000000 
#    z 0.000000 0.000000 4.022960 
# 
# 
# High freq. dielectric constant tensor:
#      x y z
#    x 1.796700 0.000000 0.000000 
#    y 0.000000 1.796700 0.000000 
#    z 0.000000 0.000000 1.826190 
# 
# From -- ./inp_files/1377.got.cif
#   From: 2010.03.12/outbox.cif.g09.slc.cpg/sg86_1_cif.got.tgz:1377.got - 2010.04.08 20:12:58.
