data_PCOD8303172
_publ_section_title
;
Structure prediction by ZEFSAII (Michael W. Deem and Ramdas Pophale) SiO2 
 PCOD8303172
Probable space group: P 42/M
;
_chemical_formula_sum "Si O2"
_cell_formula_units_Z 40
_cell_length_a 14.290872
_cell_length_b 14.290872
_cell_length_c 10.021288
_cell_angle_alpha 90.000000
_cell_angle_beta 90.000000
_cell_angle_gamma 90.000000
_cell_volume 2046.637853
_symmetry_space_group_name_H-M "P 42/M"
_symmetry_group_IT_number 84
_symmetry_cell_setting 'tetragonal'
loop_
_space_group_symop_operation_xyz
x,y,z
-y,x,1/2+z
-x,-y,z
y,-x,1/2+z
-x,-y,-z
y,-x,1/2-z
x,y,-z
-y,x,1/2-z
loop_
_atom_site_type_symbol
_atom_site_label
_atom_site_fract_x
_atom_site_fract_y
_atom_site_fract_z
Si Si1 0.281132 0.637691 0.154180
Si Si2 0.402620 0.956843 0.344448
Si Si3 0.099715 0.741515 0.239821
Si Si4 0.066983 0.870029 0.000000
Si Si5 0.260702 0.418584 0.848925
Si Si6 0.858905 0.920867 0.000000
O O1 0.184651 0.670407 0.219663
O O2 0.366348 0.677528 0.239885
O O3 0.284801 0.526778 0.163347
O O4 0.289045 0.670623 0.000000
O O5 0.389724 0.981601 0.500000
O O6 0.399764 0.847321 0.315545
O O7 0.500000 0.000000 0.292774
O O8 0.317202 0.003638 0.264691
O O9 0.108212 0.795397 0.377185
O O10 0.106235 0.821077 0.129789
O O11 0.954466 0.862091 0.000000
O O12 0.109928 0.972463 0.000000
O O13 0.282750 0.383928 0.000000
#
# Coordination Sequence:
#
# PCOD8303172 Si02
#       6
#     8   8   8   4   8   4
#     4  11  24  44  65  98 127 167 214 265 328 382
#     4  10  19  38  65  94 123 164 210 258 316 376
#     4  12  23  40  68  94 127 171 219 264 315 381
#     4  11  24  46  61  86 134 181 216 257 309 384
#     4  10  24  42  69  94 128 167 214 267 319 389
#     4  11  28  40  59  96 136 171 216 259 319 376
#
# _framework density 19.544249000000001
#
# number of rings (size 3 to 8) (size 9 to 14) (size 15 to 20)
#    0.000    1.200    4.000    1.200    7.000    2.800 
#    0.000    2.500    0.000    0.000    0.000    0.000 
#    0.000    0.000    0.000    0.000    0.000    0.000 
#
# Total GULP energy -496152.840200 kJ/mol
# GULP energy per Si atom -12403.821005 kJ/mol
# Density = 1.949977 g / cm^3
# Si number density = 19.544249 Si / 1000 Ang^3
#
#
#
# Elastic Constant Matrix: (Units=GPa)
#
#
# Indices 1 2 3 4 5 6 
#
# 1 87.5312 36.0153 51.5559 0.0000 0.0000 4.2473
# 2 36.0153 87.5312 51.5559 0.0000 0.0000 -4.2473
# 3 51.5559 51.5559 136.6088 0.0000 0.0000 0.0000
# 4 0.0000 0.0000 0.0000 -13.3177 0.0000 0.0000
# 5 0.0000 0.0000 0.0000 0.0000 -13.3177 0.0000
# 6 4.2473 -4.2473 0.0000 0.0000 0.0000 39.6418
#
#
#
# Elastic Compliance Matrix: (Units=1/GPa)
#
#
# Indices 1 2 3 4 5 6 
#
# 1 0.015788 -0.003972 -0.004459 0.000000 0.000000 -0.002117
# 2 -0.003972 0.015788 -0.004459 0.000000 0.000000 0.002117
# 3 -0.004459 -0.004459 0.010686 0.000000 0.000000 0.000000
# 4 0.000000 0.000000 0.000000 -0.075088 0.000000 0.000000
# 5 0.000000 0.000000 0.000000 0.000000 -0.075088 0.000000
# 6 -0.002117 0.002117 0.000000 0.000000 0.000000 0.025680
#
#
# Mechanical properties :
#
#
# Convention : Reuss Voigt Hill
#
# Bulk Modulus (GPa) = 60.67749 65.54727 63.11238
# Shear Modulus (GPa) = -98.11973 14.10420 -42.00776
#
# Velocity S-wave (km/s) = -7.09316 2.68928 -4.64116
# Velocity P-wave (km/s) = 5.99752 6.57675 1.90833
#
# Compressibility (1/GPa) = 0.01648058
#
# Stress axis : x y z
#
# Youngs Moduli (GPa) = 63.33838 63.33838 93.58023
#
# Poissons Ratio (x) = 0.25161 0.41730
# Poissons Ratio (y) = 0.25161 0.41730
# Poissons Ratio (z) = 0.28244 0.28244
#
# Static dielectric constant tensor:
#      x y z
#    x 3.635690 0.000000 0.000000 
#    y 0.000000 3.635690 0.000000 
#    z 0.000000 0.000000 3.549660 
# 
# 
# High freq. dielectric constant tensor:
#      x y z
#    x 1.771710 0.000000 0.000000 
#    y 0.000000 1.771710 0.000000 
#    z 0.000000 0.000000 1.754580 
# 
# From -- ./inp_files/838.got.cif
#   From: 2010.03.12/outbox.cif.g09.slc.cpg/sg84_1_cif.got.tgz:838.got - 2010.04.08 20:07:29.
