data_PCOD8303691
_publ_section_title
;
Structure prediction by ZEFSAII (Michael W. Deem and Ramdas Pophale) SiO2 
 PCOD8303691
Probable space group: P 42/N
;
_chemical_formula_sum "Si O2"
_cell_formula_units_Z 38
_cell_length_a 8.172720
_cell_length_b 8.172720
_cell_length_c 23.970753
_cell_angle_alpha 90.000000
_cell_angle_beta 90.000000
_cell_angle_gamma 90.000000
_cell_volume 1601.086948
_symmetry_space_group_name_H-M "P 42/N"
_symmetry_group_IT_number 86
_space_group.IT_coordinate_system_code '2'
_symmetry_cell_setting 'tetragonal'
loop_
_space_group_symop_operation_xyz
x,y,z
-y,1/2+x,1/2+z
1/2-x,1/2-y,z
1/2+y,-x,1/2+z
-x,-y,-z
y,1/2-x,1/2-z
1/2+x,1/2+y,-z
1/2-y,x,1/2-z
loop_
_atom_site_type_symbol
_atom_site_label
_atom_site_fract_x
_atom_site_fract_y
_atom_site_fract_z
Si Si1 0.924630 0.194318 0.185783
Si Si2 0.750000 0.250000 0.499330
Si Si3 0.479261 0.952953 0.198719
Si Si4 0.498123 0.846652 0.415185
Si Si5 0.750000 0.750000 0.250000
Si Si6 0.157560 0.003440 0.584525
O O1 0.750000 0.250000 0.164361
O O2 0.917356 0.132827 0.248719
O O3 0.039590 0.354100 0.184887
O O4 0.956427 0.054740 0.139368
O O5 0.637423 0.130930 0.536874
O O6 0.627114 0.362831 0.461710
O O7 0.666356 0.891820 0.212107
O O8 0.417228 0.848572 0.145636
O O9 0.667957 0.924964 0.432673
O O10 0.522124 0.648405 0.409734
#
# Coordination Sequence:
#
# PCOD8303691 Si02
#       6
#     8   4   8   8   2   8
#     4  12  24  41  67  93 132 167 210 268 319 391
#     4  12  24  42  64  96 128 166 210 284 328 364
#     4  12  24  40  64  99 127 169 211 263 326 382
#     4  11  23  44  66  93 127 173 217 263 323 381
#     4  12  20  36  68  92 120 164 228 252 300 406
#     4  11  24  40  68  96 125 169 223 263 312 396
#
# _framework density 23.733874
#
# number of rings (size 3 to 8) (size 9 to 14) (size 15 to 20)
#    0.000    0.421    5.263    3.789    1.474    0.421 
#    0.000    0.000    0.000    0.000    0.000    0.000 
#    0.000    0.000    0.000    0.000    0.000    0.000 
#
# Total GULP energy -470892.322554 kJ/mol
# GULP energy per Si atom -12391.903225 kJ/mol
# Density = 2.367985 g / cm^3
# Si number density = 23.733874 Si / 1000 Ang^3
#
#
#
# Elastic Constant Matrix: (Units=GPa)
#
#
# Indices 1 2 3 4 5 6 
#
# 1 69.4464 15.7234 34.0054 0.0000 0.0000 0.2459
# 2 15.7234 69.4464 34.0054 0.0000 0.0000 -0.2459
# 3 34.0054 34.0054 169.9354 0.0000 0.0000 0.0000
# 4 0.0000 0.0000 0.0000 27.7930 0.0000 0.0000
# 5 0.0000 0.0000 0.0000 0.0000 27.7930 0.0000
# 6 0.2459 -0.2459 0.0000 0.0000 0.0000 18.8480
#
#
#
# Elastic Compliance Matrix: (Units=1/GPa)
#
#
# Indices 1 2 3 4 5 6 
#
# 1 0.016295 -0.002321 -0.002796 0.000000 0.000000 -0.000243
# 2 -0.002321 0.016295 -0.002796 0.000000 0.000000 0.000243
# 3 -0.002796 -0.002796 0.007004 0.000000 0.000000 0.000000
# 4 0.000000 0.000000 0.000000 0.035980 0.000000 0.000000
# 5 0.000000 0.000000 0.000000 0.000000 0.035980 0.000000
# 6 -0.000243 0.000243 0.000000 0.000000 0.000000 0.053062
#
#
# Mechanical properties :
#
#
# Convention : Reuss Voigt Hill
#
# Bulk Modulus (GPa) = 42.07553 52.92184 47.49869
# Shear Modulus (GPa) = 26.54397 29.89308 28.21853
#
# Velocity S-wave (km/s) = 3.34788 3.55281 3.45186
# Velocity P-wave (km/s) = 5.71935 6.25910 5.99530
#
# Compressibility (1/GPa) = 0.02376678
#
# Stress axis : x y z
#
# Youngs Moduli (GPa) = 61.36773 61.36773 142.78107
#
# Poissons Ratio (x) = 0.14243 0.39927
# Poissons Ratio (y) = 0.14243 0.39927
# Poissons Ratio (z) = 0.17161 0.17161
#
# Static dielectric constant tensor:
#      x y z
#    x 4.182750 0.000000 0.000000 
#    y 0.000000 4.182750 0.000000 
#    z 0.000000 0.000000 4.315400 
# 
# 
# High freq. dielectric constant tensor:
#      x y z
#    x 1.921980 0.000000 0.000000 
#    y 0.000000 1.921980 0.000000 
#    z 0.000000 0.000000 1.955700 
# 
# From -- ./inp_files/4509.got.cif
#   From: 2010.03.12/outbox.cif.g09.slc.cpg/sg86_3_cif.got.tgz:4509.got - 2010.04.08 20:12:58.
