data_PCOD8303495
_publ_section_title
;
Structure prediction by ZEFSAII (Michael W. Deem and Ramdas Pophale) SiO2 
 PCOD8303495
Probable space group: P 42/N
;
_chemical_formula_sum "Si O2"
_cell_formula_units_Z 64
_cell_length_a 12.231796
_cell_length_b 12.231796
_cell_length_c 22.884620
_cell_angle_alpha 90.000000
_cell_angle_beta 90.000000
_cell_angle_gamma 90.000000
_cell_volume 3423.924378
_symmetry_space_group_name_H-M "P 42/N"
_symmetry_group_IT_number 86
_space_group.IT_coordinate_system_code '2'
_symmetry_cell_setting 'tetragonal'
loop_
_space_group_symop_operation_xyz
x,y,z
-y,1/2+x,1/2+z
1/2-x,1/2-y,z
1/2+y,-x,1/2+z
-x,-y,-z
y,1/2-x,1/2-z
1/2+x,1/2+y,-z
1/2-y,x,1/2-z
loop_
_atom_site_type_symbol
_atom_site_label
_atom_site_fract_x
_atom_site_fract_y
_atom_site_fract_z
Si Si1 0.736714 0.123712 0.538319
Si Si2 0.922642 0.474646 0.730169
Si Si3 0.482338 0.875350 0.390889
Si Si4 0.389758 0.540714 0.647241
Si Si5 0.672407 0.021370 0.421871
Si Si6 0.629251 0.223682 0.363558
Si Si7 0.629979 0.067886 0.124277
Si Si8 0.174811 0.939506 0.260855
O O1 0.750000 0.250000 0.518916
O O2 0.626931 0.097121 0.573772
O O3 0.733486 0.042971 0.482965
O O4 0.841501 0.095318 0.577277
O O5 0.981842 0.432654 0.672117
O O6 0.960488 0.392988 0.782114
O O7 0.793308 0.481283 0.719507
O O8 0.957550 0.597738 0.746622
O O9 0.489730 0.745344 0.386045
O O10 0.592605 0.916274 0.424090
O O11 0.266489 0.510833 0.627675
O O12 0.434685 0.661902 0.627786
O O13 0.472718 0.457587 0.618079
O O14 0.591265 0.124213 0.405518
O O15 0.750000 0.250000 0.384610
O O16 0.633977 0.184514 0.296612
O O17 0.634597 0.123996 0.187960
#
# Coordination Sequence:
#
# PCOD8303495 Si02
#       8
#     8   8   8   8   8   8   8   8
#     4  10  21  38  60  85 112 151 196 245 278 336
#     4  10  20  34  57  86 116 149 187 235 290 335
#     4  11  22  35  58  87 114 155 187 241 287 342
#     4   9  21  35  55  86 113 152 190 238 285 344
#     4  11  21  38  58  84 116 149 195 235 289 336
#     4   9  18  31  56  81 107 145 189 238 271 332
#     4  10  22  36  56  84 117 149 194 232 289 345
#     4  10  19  34  55  83 115 145 187 232 286 340
#
# _framework density 18.692001000000001
#
# number of rings (size 3 to 8) (size 9 to 14) (size 15 to 20)
#    0.000    2.000    2.500    1.500    5.250    1.250 
#    0.000    0.000    0.000    3.750    0.000    0.000 
#    0.000    0.000    0.000    0.000    0.000    0.000 
#
# Total GULP energy -793261.924875 kJ/mol
# GULP energy per Si atom -12394.717576 kJ/mol
# Density = 1.864946 g / cm^3
# Si number density = 18.692001 Si / 1000 Ang^3
#
#
#
# Elastic Constant Matrix: (Units=GPa)
#
#
# Indices 1 2 3 4 5 6 
#
# 1 96.5991 59.1667 40.9452 0.0000 0.0000 3.8604
# 2 59.1667 96.5991 40.9452 0.0000 0.0000 -3.8604
# 3 40.9452 40.9452 87.3364 0.0000 0.0000 0.0000
# 4 0.0000 0.0000 0.0000 24.0672 0.0000 0.0000
# 5 0.0000 0.0000 0.0000 0.0000 24.0672 0.0000
# 6 3.8604 -3.8604 0.0000 0.0000 0.0000 30.6310
#
#
#
# Elastic Compliance Matrix: (Units=1/GPa)
#
#
# Indices 1 2 3 4 5 6 
#
# 1 0.017974 -0.009454 -0.003994 0.000000 0.000000 -0.003457
# 2 -0.009454 0.017974 -0.003994 0.000000 0.000000 0.003457
# 3 -0.003994 -0.003994 0.015195 0.000000 0.000000 0.000000
# 4 0.000000 0.000000 0.000000 0.041550 0.000000 0.000000
# 5 0.000000 0.000000 0.000000 0.000000 0.041550 0.000000
# 6 -0.003457 0.003457 0.000000 0.000000 0.000000 0.033518
#
#
# Mechanical properties :
#
#
# Convention : Reuss Voigt Hill
#
# Bulk Modulus (GPa) = 61.50932 62.51654 62.01293
# Shear Modulus (GPa) = 24.03088 25.05158 24.54123
#
# Velocity S-wave (km/s) = 3.58945 3.66489 3.62736
# Velocity P-wave (km/s) = 7.08216 7.17124 7.12684
#
# Compressibility (1/GPa) = 0.01625770
#
# Stress axis : x y z
#
# Youngs Moduli (GPa) = 55.63660 55.63660 65.81038
#
# Poissons Ratio (x) = 0.52599 0.26286
# Poissons Ratio (y) = 0.52599 0.26286
# Poissons Ratio (z) = 0.22223 0.22223
#
# Static dielectric constant tensor:
#      x y z
#    x 3.459590 0.000000 0.000000 
#    y 0.000000 3.459590 0.000000 
#    z 0.000000 0.000000 3.460640 
# 
# 
# High freq. dielectric constant tensor:
#      x y z
#    x 1.716260 0.000000 0.000000 
#    y 0.000000 1.716260 0.000000 
#    z 0.000000 0.000000 1.729410 
# 
# From -- ./inp_files/4705.got.cif
#   From: 2010.03.12/outbox.cif.g09.slc.cpg/sg86_3_cif.got.tgz:4705.got - 2010.04.08 20:12:58.
