data_PCOD8303814
_publ_section_title
;
Structure prediction by ZEFSAII (Michael W. Deem and Ramdas Pophale) SiO2 
 PCOD8303814
Probable space group: I 4/M
;
_chemical_formula_sum "Si O2"
_cell_formula_units_Z 52
_cell_length_a 16.061998
_cell_length_b 16.061998
_cell_length_c 9.587886
_cell_angle_alpha 90.000000
_cell_angle_beta 90.000000
_cell_angle_gamma 90.000000
_cell_volume 2473.557422
_symmetry_space_group_name_H-M "I 4/M"
_symmetry_group_IT_number 87
_symmetry_cell_setting 'tetragonal'
loop_
_space_group_symop_operation_xyz
x,y,z
-y,x,z
-x,-y,z
y,-x,z
-x,-y,-z
y,-x,-z
x,y,-z
-y,x,-z
1/2+x,1/2+y,1/2+z
1/2-y,1/2+x,1/2+z
1/2-x,1/2-y,1/2+z
1/2+y,1/2-x,1/2+z
1/2-x,1/2-y,1/2-z
1/2+y,1/2-x,1/2-z
1/2+x,1/2+y,1/2-z
1/2-y,1/2+x,1/2-z
loop_
_atom_site_type_symbol
_atom_site_label
_atom_site_fract_x
_atom_site_fract_y
_atom_site_fract_z
Si Si1 0.511776 0.879691 0.000000
Si Si2 0.391774 0.240863 0.500000
Si Si3 0.200175 0.422961 0.500000
Si Si4 0.330611 0.696824 0.278507
Si Si5 0.000000 0.500000 0.250000
Si Si6 0.760174 0.889533 0.500000
O O1 0.611115 0.879022 0.000000
O O2 0.480614 0.923158 0.144799
O O3 0.479849 0.784414 0.000000
O O4 0.477174 0.189794 0.500000
O O5 0.385250 0.301596 0.363824
O O6 0.315888 0.176341 0.500000
O O7 0.249285 0.396526 0.363916
O O8 0.250000 0.750000 0.250000
O O9 0.376340 0.678494 0.131903
#
# Coordination Sequence:
#
# PCOD8303814 Si02
#       6
#     8   8   8  16   4   8
#     4  11  21  32  49  81 118 154 191 227 295 364
#     4   9  19  37  56  76 108 155 209 240 277 352
#     4  11  21  35  58  83 113 156 196 247 300 356
#     4   9  20  37  55  78 113 157 203 244 288 350
#     4  10  20  30  40  70 124 158 176 222 280 358
#     4  10  19  33  53  80 117 155 196 246 292 347
#
# _framework density 21.022355000000001
#
# number of rings (size 3 to 8) (size 9 to 14) (size 15 to 20)
#    0.000    2.154    0.000    4.615    0.000    7.385 
#    0.000    1.538    0.000    7.385    0.000    0.000 
#    0.000   12.308    0.000    0.000    0.000    0.000 
#
# Total GULP energy -322155.986759 kJ/mol
# GULP energy per Si atom -12390.614875 kJ/mol
# Density = 2.097451 g / cm^3
# Si number density = 21.022355 Si / 1000 Ang^3
#
#
#
# Elastic Constant Matrix: (Units=GPa)
#
#
# Indices 1 2 3 4 5 6 
#
# 1 48.1447 21.5773 21.1245 0.0000 0.0000 7.5684
# 2 21.5773 48.1447 21.1245 0.0000 0.0000 -7.5684
# 3 21.1245 21.1245 161.4844 0.0000 0.0000 0.0000
# 4 0.0000 0.0000 0.0000 9.8437 0.0000 0.0000
# 5 0.0000 0.0000 0.0000 0.0000 9.8437 0.0000
# 6 7.5684 -7.5684 0.0000 0.0000 0.0000 30.2500
#
#
#
# Elastic Compliance Matrix: (Units=1/GPa)
#
#
# Indices 1 2 3 4 5 6 
#
# 1 0.029738 -0.014160 -0.002038 0.000000 0.000000 -0.010983
# 2 -0.014160 0.029738 -0.002038 0.000000 0.000000 0.010983
# 3 -0.002038 -0.002038 0.006726 0.000000 0.000000 0.000000
# 4 0.000000 0.000000 0.000000 0.101588 0.000000 0.000000
# 5 0.000000 0.000000 0.000000 0.000000 0.101588 0.000000
# 6 -0.010983 0.010983 0.000000 0.000000 0.000000 0.038554
#
#
# Mechanical properties :
#
#
# Convention : Reuss Voigt Hill
#
# Bulk Modulus (GPa) = 33.63648 42.82515 38.23082
# Shear Modulus (GPa) = 14.11184 22.91729 18.51456
#
# Velocity S-wave (km/s) = 2.59371 3.30531 2.97089
# Velocity P-wave (km/s) = 5.00049 5.91458 5.47664
#
# Compressibility (1/GPa) = 0.02972962
#
# Stress axis : x y z
#
# Youngs Moduli (GPa) = 33.62743 33.62743 148.68375
#
# Poissons Ratio (x) = 0.47617 0.30298
# Poissons Ratio (y) = 0.47617 0.30298
# Poissons Ratio (z) = 0.06852 0.06852
#
# Static dielectric constant tensor:
#      x y z
#    x 3.515800 0.000000 0.000000 
#    y 0.000000 3.515800 0.000000 
#    z 0.000000 0.000000 4.770370 
# 
# 
# High freq. dielectric constant tensor:
#      x y z
#    x 1.783820 0.000000 0.000000 
#    y 0.000000 1.783820 0.000000 
#    z 0.000000 0.000000 1.856450 
# 
# From -- ./inp_files/683.got.cif
#   From: 2010.03.12/outbox.cif.g09.slc.cpg/sg87_1_cif.got.tgz:683.got - 2010.04.08 20:16:13.
