data_PCOD8303643
_publ_section_title
;
Structure prediction by ZEFSAII (Michael W. Deem and Ramdas Pophale) SiO2 
 PCOD8303643
Probable space group: P 42/N
;
_chemical_formula_sum "Si O2"
_cell_formula_units_Z 48
_cell_length_a 8.752199
_cell_length_b 8.752199
_cell_length_c 30.732532
_cell_angle_alpha 90.000000
_cell_angle_beta 90.000000
_cell_angle_gamma 90.000000
_cell_volume 2354.142295
_symmetry_space_group_name_H-M "P 42/N"
_symmetry_group_IT_number 86
_space_group.IT_coordinate_system_code '2'
_symmetry_cell_setting 'tetragonal'
loop_
_space_group_symop_operation_xyz
x,y,z
-y,1/2+x,1/2+z
1/2-x,1/2-y,z
1/2+y,-x,1/2+z
-x,-y,-z
y,1/2-x,1/2-z
1/2+x,1/2+y,-z
1/2-y,x,1/2-z
loop_
_atom_site_type_symbol
_atom_site_label
_atom_site_fract_x
_atom_site_fract_y
_atom_site_fract_z
Si Si1 0.750000 0.250000 0.084454
Si Si2 0.750000 0.750000 0.593737
Si Si3 0.693436 0.085691 0.217091
Si Si4 0.232164 0.570725 0.613168
Si Si5 0.935877 0.005104 0.635691
Si Si6 0.999466 0.038707 0.050116
Si Si7 0.148573 0.401625 0.695358
O O1 0.863582 0.336917 0.115345
O O2 0.659441 0.371886 0.055547
O O3 0.638470 0.658692 0.626009
O O4 0.852681 0.641387 0.563152
O O5 0.750000 0.250000 0.232745
O O6 0.539003 0.068490 0.187790
O O7 0.839333 0.023678 0.189950
O O8 0.673301 0.974517 0.257711
O O9 0.250000 0.750000 0.605852
O O10 0.397766 0.490273 0.613078
O O11 0.163925 0.536203 0.660522
O O12 0.120580 0.500648 0.576728
O O13 0.000000 0.000000 0.000000
O O14 0.250000 0.250000 0.687204
#
# Coordination Sequence:
#
# PCOD8303643 Si02
#       7
#     4   4   8   8   8   8   8
#     4  10  24  42  66 100 132 180 224 272 348 404
#     4  10  24  46  64 101 144 174 216 287 354 406
#     4  12  23  39  66  97 137 177 226 278 329 390
#     4  12  25  42  70 101 135 179 228 280 347 407
#     4  11  22  42  70  98 139 182 221 277 336 410
#     4  11  26  45  71  99 135 176 227 286 348 418
#     4  12  23  43  64  97 132 177 234 284 321 395
#
# _framework density 20.389589999999998
#
# number of rings (size 3 to 8) (size 9 to 14) (size 15 to 20)
#    0.000    0.667    5.833    1.500    3.500    1.333 
#    0.000    3.333    0.000    1.000    0.000    0.000 
#    0.000    0.000    0.000    0.000    0.000    0.000 
#
# Total GULP energy -594971.677002 kJ/mol
# GULP energy per Si atom -12395.243271 kJ/mol
# Density = 2.034318 g / cm^3
# Si number density = 20.389590 Si / 1000 Ang^3
#
#
#
# Elastic Constant Matrix: (Units=GPa)
#
#
# Indices 1 2 3 4 5 6 
#
# 1 102.8425 21.3790 34.4457 0.0000 0.0000 -8.3960
# 2 21.3790 102.8425 34.4457 0.0000 0.0000 8.3960
# 3 34.4457 34.4457 122.0035 0.0000 0.0000 0.0000
# 4 0.0000 0.0000 0.0000 12.6832 0.0000 0.0000
# 5 0.0000 0.0000 0.0000 0.0000 12.6832 0.0000
# 6 -8.3960 8.3960 0.0000 0.0000 0.0000 31.9077
#
#
#
# Elastic Compliance Matrix: (Units=1/GPa)
#
#
# Indices 1 2 3 4 5 6 
#
# 1 0.011262 -0.001717 -0.002695 0.000000 0.000000 0.003415
# 2 -0.001717 0.011262 -0.002695 0.000000 0.000000 -0.003415
# 3 -0.002695 -0.002695 0.009718 0.000000 0.000000 0.000000
# 4 0.000000 0.000000 0.000000 0.078844 0.000000 0.000000
# 5 0.000000 0.000000 0.000000 0.000000 0.078844 0.000000
# 6 0.003415 -0.003415 0.000000 0.000000 0.000000 0.033138
#
#
# Mechanical properties :
#
#
# Convention : Reuss Voigt Hill
#
# Bulk Modulus (GPa) = 55.46837 56.46993 55.96915
# Shear Modulus (GPa) = 20.55146 27.28270 23.91708
#
# Velocity S-wave (km/s) = 3.17825 3.66193 3.42863
# Velocity P-wave (km/s) = 6.38214 6.75539 6.57141
#
# Compressibility (1/GPa) = 0.01802829
#
# Stress axis : x y z
#
# Youngs Moduli (GPa) = 88.79401 88.79401 102.90041
#
# Poissons Ratio (x) = 0.15250 0.27729
# Poissons Ratio (y) = 0.15250 0.27729
# Poissons Ratio (z) = 0.23928 0.23928
#
# Static dielectric constant tensor:
#      x y z
#    x 1.495210 0.000000 0.000000 
#    y 0.000000 1.495210 0.000000 
#    z 0.000000 0.000000 3.594320 
# 
# 
# High freq. dielectric constant tensor:
#      x y z
#    x 1.811060 0.000000 0.000000 
#    y 0.000000 1.811060 0.000000 
#    z 0.000000 0.000000 1.786180 
# 
# From -- ./inp_files/5218.got.cif
#   From: 2010.03.12/outbox.cif.g09.slc.cpg/sg86_3_cif.got.tgz:5218.got - 2010.04.08 20:12:58.
