data_PCOD8303630
_publ_section_title
;
Structure prediction by ZEFSAII (Michael W. Deem and Ramdas Pophale) SiO2 
 PCOD8303630
Probable space group: P 42/N
;
_chemical_formula_sum "Si O2"
_cell_formula_units_Z 32
_cell_length_a 10.669572
_cell_length_b 10.669572
_cell_length_c 12.897924
_cell_angle_alpha 90.000000
_cell_angle_beta 90.000000
_cell_angle_gamma 90.000000
_cell_volume 1468.296659
_symmetry_space_group_name_H-M "P 42/N"
_symmetry_group_IT_number 86
_space_group.IT_coordinate_system_code '2'
_symmetry_cell_setting 'tetragonal'
loop_
_space_group_symop_operation_xyz
x,y,z
-y,1/2+x,1/2+z
1/2-x,1/2-y,z
1/2+y,-x,1/2+z
-x,-y,-z
y,1/2-x,1/2-z
1/2+x,1/2+y,-z
1/2-y,x,1/2-z
loop_
_atom_site_type_symbol
_atom_site_label
_atom_site_fract_x
_atom_site_fract_y
_atom_site_fract_z
Si Si1 0.987464 0.142242 0.110808
Si Si2 0.136695 0.836935 0.680815
Si Si3 0.866848 0.955215 0.462572
Si Si4 0.789897 0.986998 0.991648
O O1 0.971738 0.168813 0.232824
O O2 0.993748 0.269137 0.046395
O O3 0.117816 0.072858 0.092915
O O4 0.869195 0.054375 0.081464
O O5 0.250000 0.750000 0.721581
O O6 0.091543 0.784871 0.570768
O O7 0.170480 0.982535 0.649757
O O8 0.880692 0.802607 0.458205
O O9 0.000000 0.000000 0.500000
#
# Coordination Sequence:
#
# PCOD8303630 Si02
#       4
#     8   8   8   8
#     4  11  24  43  67  96 134 176 226 282 337 411
#     4  11  24  39  69  97 133 179 227 274 345 413
#     4  10  23  43  64  93 131 172 222 281 337 396
#     4  10  24  44  66  95 133 173 227 284 337 408
#
# _framework density 21.793963000000002
#
# number of rings (size 3 to 8) (size 9 to 14) (size 15 to 20)
#    0.000    1.500    2.500    0.750   14.000    0.000 
#    0.000    0.000    0.000    0.000    0.000    0.000 
#    0.000    0.000    0.000    0.000    0.000    0.000 
#
# Total GULP energy -396530.503451 kJ/mol
# GULP energy per Si atom -12391.578233 kJ/mol
# Density = 2.174436 g / cm^3
# Si number density = 21.793963 Si / 1000 Ang^3
#
#
#
# Elastic Constant Matrix: (Units=GPa)
#
#
# Indices 1 2 3 4 5 6 
#
# 1 117.4936 34.4223 30.6438 0.0000 0.0000 11.4396
# 2 34.4223 117.4936 30.6438 0.0000 0.0000 -11.4396
# 3 30.6438 30.6438 60.2376 0.0000 0.0000 0.0000
# 4 0.0000 0.0000 0.0000 29.7576 0.0000 0.0000
# 5 0.0000 0.0000 0.0000 0.0000 29.7576 0.0000
# 6 11.4396 -11.4396 0.0000 0.0000 0.0000 29.1144
#
#
#
# Elastic Compliance Matrix: (Units=1/GPa)
#
#
# Indices 1 2 3 4 5 6 
#
# 1 0.010891 -0.002608 -0.004213 0.000000 0.000000 -0.005304
# 2 -0.002608 0.010891 -0.004213 0.000000 0.000000 0.005304
# 3 -0.004213 -0.004213 0.020888 0.000000 0.000000 0.000000
# 4 0.000000 0.000000 0.000000 0.033605 0.000000 0.000000
# 5 0.000000 0.000000 0.000000 0.000000 0.033605 0.000000
# 6 -0.005304 0.005304 0.000000 0.000000 0.000000 0.038515
#
#
# Mechanical properties :
#
#
# Convention : Reuss Voigt Hill
#
# Bulk Modulus (GPa) = 48.54598 54.07161 51.30879
# Shear Modulus (GPa) = 28.19604 31.02692 29.61148
#
# Velocity S-wave (km/s) = 3.60078 3.77722 3.69005
# Velocity P-wave (km/s) = 6.29371 6.62476 6.46136
#
# Compressibility (1/GPa) = 0.02059903
#
# Stress axis : x y z
#
# Youngs Moduli (GPa) = 91.82305 91.82305 47.87494
#
# Poissons Ratio (x) = 0.23949 0.20172
# Poissons Ratio (y) = 0.23949 0.20172
# Poissons Ratio (z) = 0.38689 0.38689
#
# Static dielectric constant tensor:
#      x y z
#    x 4.948670 0.000000 0.000000 
#    y 0.000000 4.948670 0.000000 
#    z 0.000000 0.000000 3.634310 
# 
# 
# High freq. dielectric constant tensor:
#      x y z
#    x 1.866880 0.000000 0.000000 
#    y 0.000000 1.866880 0.000000 
#    z 0.000000 0.000000 1.832040 
# 
# From -- ./inp_files/1908.got.cif
#   From: 2010.03.12/outbox.cif.g09.slc.cpg/sg86_1_cif.got.tgz:1908.got - 2010.04.08 20:12:58.
