data_PCOD8303378
_publ_section_title
;
Structure prediction by ZEFSAII (Michael W. Deem and Ramdas Pophale) SiO2 
 PCOD8303378
Probable space group: P 42/M
;
_chemical_formula_sum "Si O2"
_cell_formula_units_Z 48
_cell_length_a 11.053090
_cell_length_b 11.053090
_cell_length_c 17.510456
_cell_angle_alpha 90.000000
_cell_angle_beta 90.000000
_cell_angle_gamma 90.000000
_cell_volume 2139.266392
_symmetry_space_group_name_H-M "P 42/M"
_symmetry_group_IT_number 84
_symmetry_cell_setting 'tetragonal'
loop_
_space_group_symop_operation_xyz
x,y,z
-y,x,1/2+z
-x,-y,z
y,-x,1/2+z
-x,-y,-z
y,-x,1/2-z
x,y,-z
-y,x,1/2-z
loop_
_atom_site_type_symbol
_atom_site_label
_atom_site_fract_x
_atom_site_fract_y
_atom_site_fract_z
Si Si1 0.260682 0.588839 0.665031
Si Si2 0.226991 0.094447 0.913405
Si Si3 0.736533 0.061660 0.337686
Si Si4 0.531307 0.222204 0.678552
Si Si5 0.191505 0.853738 0.826808
Si Si6 0.648805 0.326222 0.089845
O O1 0.148391 0.647397 0.619373
O O2 0.358746 0.685613 0.691812
O O3 0.203187 0.536768 0.742096
O O4 0.333530 0.492029 0.613191
O O5 0.122961 0.196489 0.909630
O O6 0.172945 0.982110 0.866703
O O7 0.249887 0.054990 0.000000
O O8 0.592966 0.092974 0.344374
O O9 0.791760 0.125625 0.262551
O O10 0.759940 0.919116 0.338657
O O11 0.444047 0.274184 0.613189
O O12 0.306639 0.793000 0.866172
O O13 0.662446 0.309321 0.000000
#
# Coordination Sequence:
#
# PCOD8303378 Si02
#       6
#     8   8   8   8   8   8
#     4  11  22  43  72 100 138 179 237 286 346 416
#     4  11  25  43  68 103 140 177 227 292 356 415
#     4  11  24  43  73  96 134 180 234 290 345 420
#     4  11  23  43  69 102 132 182 234 289 342 414
#     4  12  24  45  67 102 133 179 236 287 348 421
#     4  12  26  43  67 101 144 184 227 291 354 416
#
# _framework density 22.437597
#
# number of rings (size 3 to 8) (size 9 to 14) (size 15 to 20)
#    0.000    0.667    5.000    3.000    0.000    7.333 
#    0.000    2.500    0.000    0.000    0.000    0.000 
#    0.000    0.000    0.000    0.000    0.000    0.000 
#
# Total GULP energy -595294.941487 kJ/mol
# GULP energy per Si atom -12401.977948 kJ/mol
# Density = 2.238653 g / cm^3
# Si number density = 22.437597 Si / 1000 Ang^3
#
#
#
# Elastic Constant Matrix: (Units=GPa)
#
#
# Indices 1 2 3 4 5 6 
#
# 1 54.0900 36.3198 25.5479 0.0000 0.0000 -1.5200
# 2 36.3198 54.0900 25.5479 0.0000 0.0000 1.5200
# 3 25.5479 25.5479 100.0975 0.0000 0.0000 0.0000
# 4 0.0000 0.0000 0.0000 24.1832 0.0000 0.0000
# 5 0.0000 0.0000 0.0000 0.0000 24.1832 0.0000
# 6 -1.5200 1.5200 0.0000 0.0000 0.0000 46.8529
#
#
#
# Elastic Compliance Matrix: (Units=1/GPa)
#
#
# Indices 1 2 3 4 5 6 
#
# 1 0.034757 -0.021831 -0.003299 0.000000 0.000000 0.001836
# 2 -0.021831 0.034757 -0.003299 0.000000 0.000000 -0.001836
# 3 -0.003299 -0.003299 0.011674 0.000000 0.000000 0.000000
# 4 0.000000 0.000000 0.000000 0.041351 0.000000 0.000000
# 5 0.000000 0.000000 0.000000 0.000000 0.041351 0.000000
# 6 0.001836 -0.001836 0.000000 0.000000 0.000000 0.021463
#
#
# Mechanical properties :
#
#
# Convention : Reuss Voigt Hill
#
# Bulk Modulus (GPa) = 41.10330 42.56763 41.83547
# Shear Modulus (GPa) = 19.97445 27.10134 23.53790
#
# Velocity S-wave (km/s) = 2.98690 3.47919 3.24240
# Velocity P-wave (km/s) = 5.50037 5.92895 5.71868
#
# Compressibility (1/GPa) = 0.02432894
#
# Stress axis : x y z
#
# Youngs Moduli (GPa) = 28.77153 28.77153 85.65893
#
# Poissons Ratio (x) = 0.62812 0.28258
# Poissons Ratio (y) = 0.62812 0.28258
# Poissons Ratio (z) = 0.09491 0.09491
#
# Static dielectric constant tensor:
#      x y z
#    x 4.182200 0.000000 0.000000 
#    y 0.000000 4.182200 0.000000 
#    z 0.000000 0.000000 3.845650 
# 
# 
# High freq. dielectric constant tensor:
#      x y z
#    x 1.890070 0.000000 0.000000 
#    y 0.000000 1.890070 0.000000 
#    z 0.000000 0.000000 1.875250 
# 
# From -- ./inp_files/3757.got.cif
#   From: 2010.03.12/outbox.cif.g09.slc.cpg/sg84_2_cif.got.tgz:3757.got - 2010.04.08 20:07:29.
