data_PCOD8303659
_publ_section_title
;
Structure prediction by ZEFSAII (Michael W. Deem and Ramdas Pophale) SiO2 
 PCOD8303659
Probable space group: P 42/N
;
_chemical_formula_sum "Si O2"
_cell_formula_units_Z 40
_cell_length_a 9.530375
_cell_length_b 9.530375
_cell_length_c 21.239813
_cell_angle_alpha 90.000000
_cell_angle_beta 90.000000
_cell_angle_gamma 90.000000
_cell_volume 1929.170747
_symmetry_space_group_name_H-M "P 42/N"
_symmetry_group_IT_number 86
_space_group.IT_coordinate_system_code '2'
_symmetry_cell_setting 'tetragonal'
loop_
_space_group_symop_operation_xyz
x,y,z
-y,1/2+x,1/2+z
1/2-x,1/2-y,z
1/2+y,-x,1/2+z
-x,-y,-z
y,1/2-x,1/2-z
1/2+x,1/2+y,-z
1/2-y,x,1/2-z
loop_
_atom_site_type_symbol
_atom_site_label
_atom_site_fract_x
_atom_site_fract_y
_atom_site_fract_z
Si Si1 0.403673 0.115574 0.027640
Si Si2 0.488756 0.087115 0.664484
Si Si3 0.901504 0.613557 0.473124
Si Si4 0.234883 0.085478 0.335620
Si Si5 0.164864 0.614219 0.754317
O O1 0.426447 0.143590 0.101272
O O2 0.439738 0.245071 0.982849
O O3 0.245032 0.068410 0.017836
O O4 0.500000 0.000000 0.000000
O O5 0.424386 0.144093 0.600016
O O6 0.542656 0.229121 0.696801
O O7 0.612820 0.977611 0.650804
O O8 0.367530 0.002560 0.701730
O O9 0.000000 0.500000 0.500000
O O10 0.250000 0.250000 0.314083
O O11 0.157427 0.987244 0.283758
O O12 0.250000 0.750000 0.726802
#
# Coordination Sequence:
#
# PCOD8303659 Si02
#       5
#     8   8   8   8   8
#     4  11  23  40  66 100 130 175 228 272 345 408
#     4  11  24  45  68  95 147 176 232 288 346 421
#     4  11  22  44  64  96 134 178 219 279 347 404
#     4  11  22  43  69  99 135 179 236 287 333 417
#     4  10  26  43  69 105 135 186 231 285 358 403
#
# _framework density 20.734297999999999
#
# number of rings (size 3 to 8) (size 9 to 14) (size 15 to 20)
#    0.000    1.200    4.000    1.200    5.600    6.000 
#    3.600    0.000    0.000    0.000    0.000    0.000 
#    0.000    0.000    0.000    0.000    0.000    0.000 
#
# Total GULP energy -495815.657512 kJ/mol
# GULP energy per Si atom -12395.391438 kJ/mol
# Density = 2.068711 g / cm^3
# Si number density = 20.734298 Si / 1000 Ang^3
#
#
#
# Elastic Constant Matrix: (Units=GPa)
#
#
# Indices 1 2 3 4 5 6 
#
# 1 100.9624 70.7894 20.4934 0.0000 0.0000 2.4491
# 2 70.7894 100.9624 20.4934 0.0000 0.0000 -2.4491
# 3 20.4934 20.4934 74.1801 0.0000 0.0000 0.0000
# 4 0.0000 0.0000 0.0000 34.6884 0.0000 0.0000
# 5 0.0000 0.0000 0.0000 0.0000 34.6884 0.0000
# 6 2.4491 -2.4491 0.0000 0.0000 0.0000 43.1762
#
#
#
# Elastic Compliance Matrix: (Units=1/GPa)
#
#
# Indices 1 2 3 4 5 6 
#
# 1 0.019842 -0.013608 -0.001722 0.000000 0.000000 -0.001897
# 2 -0.013608 0.019842 -0.001722 0.000000 0.000000 0.001897
# 3 -0.001722 -0.001722 0.014432 0.000000 0.000000 0.000000
# 4 0.000000 0.000000 0.000000 0.028828 0.000000 0.000000
# 5 0.000000 0.000000 0.000000 0.000000 0.028828 0.000000
# 6 -0.001897 0.001897 0.000000 0.000000 0.000000 0.023376
#
#
# Mechanical properties :
#
#
# Convention : Reuss Voigt Hill
#
# Bulk Modulus (GPa) = 49.97351 55.51748 52.74549
# Shear Modulus (GPa) = 28.42146 33.46583 30.94365
#
# Velocity S-wave (km/s) = 3.70638 4.02186 3.86734
# Velocity P-wave (km/s) = 6.51694 6.95708 6.74060
#
# Compressibility (1/GPa) = 0.02001060
#
# Stress axis : x y z
#
# Youngs Moduli (GPa) = 50.39873 50.39873 69.28953
#
# Poissons Ratio (x) = 0.68585 0.11932
# Poissons Ratio (y) = 0.68585 0.11932
# Poissons Ratio (z) = 0.08679 0.08679
#
# Static dielectric constant tensor:
#      x y z
#    x 3.845920 0.000000 0.000000 
#    y 0.000000 3.845920 0.000000 
#    z 0.000000 0.000000 5.596880 
# 
# 
# High freq. dielectric constant tensor:
#      x y z
#    x 1.822910 0.000000 0.000000 
#    y 0.000000 1.822910 0.000000 
#    z 0.000000 0.000000 1.813800 
# 
# From -- ./inp_files/4492.got.cif
#   From: 2010.03.12/outbox.cif.g09.slc.cpg/sg86_3_cif.got.tgz:4492.got - 2010.04.08 20:12:58.
