data_PCOD8303043
_publ_section_title
;
Structure prediction by ZEFSAII (Michael W. Deem and Ramdas Pophale) SiO2 
 PCOD8303043
Probable space group: P 4/M
;
_chemical_formula_sum "Si O2"
_cell_formula_units_Z 56
_cell_length_a 17.940020
_cell_length_b 17.940020
_cell_length_c 10.046708
_cell_angle_alpha 90.000000
_cell_angle_beta 90.000000
_cell_angle_gamma 90.000000
_cell_volume 3233.475880
_symmetry_space_group_name_H-M "P 4/M"
_symmetry_group_IT_number 83
_symmetry_cell_setting 'tetragonal'
loop_
_space_group_symop_operation_xyz
x,y,z
-y,x,z
-x,-y,z
y,-x,z
-x,-y,-z
y,-x,-z
x,y,-z
-y,x,-z
loop_
_atom_site_type_symbol
_atom_site_label
_atom_site_fract_x
_atom_site_fract_y
_atom_site_fract_z
Si Si1 0.224509 0.261031 0.848014
Si Si2 0.322593 0.121850 0.151600
Si Si3 0.916738 0.490963 0.845554
Si Si4 0.569022 0.228144 0.844610
Si Si5 0.880841 0.813083 0.650728
Si Si6 0.486735 0.617290 0.841388
Si Si7 0.951972 0.217003 0.650729
O O1 0.293978 0.205872 0.818186
O O2 0.248651 0.345137 0.818534
O O3 0.155639 0.244797 0.751837
O O4 0.197227 0.251756 0.000000
O O5 0.409742 0.117214 0.179019
O O6 0.284413 0.062669 0.248818
O O7 0.303791 0.099151 0.000000
O O8 0.852873 0.545749 0.782498
O O9 0.000000 0.500000 0.779742
O O10 0.926404 0.510252 0.000000
O O11 0.522895 0.298508 0.784055
O O12 0.550678 0.222442 0.000000
O O13 0.863737 0.786768 0.500000
O O14 0.849939 0.895233 0.677845
O O15 0.967872 0.817113 0.679739
O O16 0.418096 0.564739 0.792062
O O17 0.483853 0.619742 0.000000
O O18 0.944967 0.247589 0.500000
#
# Coordination Sequence:
#
# PCOD8303043 Si02
#       7
#     8   8   8   8   8   8   8
#     4   9  18  30  46  70  93 120 156 193 232 273
#     4   9  18  31  48  68  93 123 156 192 229 272
#     4   9  18  29  41  62  89 122 158 189 227 273
#     4   9  17  26  41  62  89 121 154 193 231 275
#     4   9  18  32  49  69  92 119 152 189 231 278
#     4   8  14  23  36  57  87 121 150 182 233 286
#     4   9  18  32  50  70  92 120 151 187 232 277
#
# _framework density 17.318822999999998
#
# number of rings (size 3 to 8) (size 9 to 14) (size 15 to 20)
#    0.000    3.143    0.000    0.429    4.000    0.857 
#    0.000    1.429    0.000    1.286    0.000    4.000 
#    0.000    0.000    0.000    1.571    0.000    1.429 
#
# Total GULP energy -693990.945454 kJ/mol
# GULP energy per Si atom -12392.695455 kJ/mol
# Density = 1.727940 g / cm^3
# Si number density = 17.318823 Si / 1000 Ang^3
#
#
#
# Elastic Constant Matrix: (Units=GPa)
#
#
# Indices 1 2 3 4 5 6 
#
# 1 102.7677 50.6513 23.1910 0.0000 0.0000 -0.9557
# 2 50.6513 102.7677 23.1910 0.0000 0.0000 0.9557
# 3 23.1910 23.1910 36.4612 0.0000 0.0000 0.0000
# 4 0.0000 0.0000 0.0000 14.0972 0.0000 0.0000
# 5 0.0000 0.0000 0.0000 0.0000 14.0972 0.0000
# 6 -0.9557 0.9557 0.0000 0.0000 0.0000 17.3258
#
#
#
# Elastic Compliance Matrix: (Units=1/GPa)
#
#
# Indices 1 2 3 4 5 6 
#
# 1 0.013648 -0.005578 -0.005133 0.000000 0.000000 0.001061
# 2 -0.005578 0.013648 -0.005133 0.000000 0.000000 -0.001061
# 3 -0.005133 -0.005133 0.033956 0.000000 0.000000 0.000000
# 4 0.000000 0.000000 0.000000 0.070936 0.000000 0.000000
# 5 0.000000 0.000000 0.000000 0.000000 0.070936 0.000000
# 6 0.001061 -0.001061 0.000000 0.000000 0.000000 0.057834
#
#
# Mechanical properties :
#
#
# Convention : Reuss Voigt Hill
#
# Bulk Modulus (GPa) = 33.82458 48.45147 41.13802
# Shear Modulus (GPa) = 16.52880 18.76824 17.64852
#
# Velocity S-wave (km/s) = 3.09266 3.29552 3.19570
# Velocity P-wave (km/s) = 5.68557 6.52054 6.11732
#
# Compressibility (1/GPa) = 0.02956430
#
# Stress axis : x y z
#
# Youngs Moduli (GPa) = 73.26923 73.26923 29.45010
#
# Poissons Ratio (x) = 0.40873 0.15116
# Poissons Ratio (y) = 0.40873 0.15116
# Poissons Ratio (z) = 0.37608 0.37608
#
# Static dielectric constant tensor:
#      x y z
#    x 3.356420 0.000000 0.000000 
#    y 0.000000 3.356420 0.000000 
#    z 0.000000 0.000000 2.887160 
# 
# 
# High freq. dielectric constant tensor:
#      x y z
#    x 1.673970 0.000000 0.000000 
#    y 0.000000 1.673970 0.000000 
#    z 0.000000 0.000000 1.612930 
# 
# From -- ./inp_files/2007.got.cif
#   From: 2010.03.12/outbox.cif.g09.slc.cpg/sg83_2_cif.got.tgz:2007.got - 2010.04.08 20:05:18.
