data_PCOD8303741
_publ_section_title
;
Structure prediction by ZEFSAII (Michael W. Deem and Ramdas Pophale) SiO2 
 PCOD8303741
Probable space group: I 4/M
;
_chemical_formula_sum "Si O2"
_cell_formula_units_Z 80
_cell_length_a 16.862831
_cell_length_b 16.862831
_cell_length_c 15.578184
_cell_angle_alpha 90.000000
_cell_angle_beta 90.000000
_cell_angle_gamma 90.000000
_cell_volume 4429.735591
_symmetry_space_group_name_H-M "I 4/M"
_symmetry_group_IT_number 87
_symmetry_cell_setting 'tetragonal'
loop_
_space_group_symop_operation_xyz
x,y,z
-y,x,z
-x,-y,z
y,-x,z
-x,-y,-z
y,-x,-z
x,y,-z
-y,x,-z
1/2+x,1/2+y,1/2+z
1/2-y,1/2+x,1/2+z
1/2-x,1/2-y,1/2+z
1/2+y,1/2-x,1/2+z
1/2-x,1/2-y,1/2-z
1/2+y,1/2-x,1/2-z
1/2+x,1/2+y,1/2-z
1/2-y,1/2+x,1/2-z
loop_
_atom_site_type_symbol
_atom_site_label
_atom_site_fract_x
_atom_site_fract_y
_atom_site_fract_z
Si Si1 0.407387 0.407388 0.000000
Si Si2 0.907733 0.332941 0.671171
Si Si3 0.092267 0.332941 0.328828
Si Si4 0.718715 0.718715 0.500000
Si Si5 0.312808 0.687192 0.861847
Si Si6 0.834519 0.593918 0.500000
Si Si7 0.834519 0.406082 0.500000
O O1 0.500000 0.388670 0.000000
O O2 0.369802 0.369802 0.084463
O O3 0.891725 0.391725 0.750000
O O4 0.866659 0.247858 0.693039
O O5 0.879244 0.372738 0.582987
O O6 0.000000 0.316588 0.662585
O O7 0.133341 0.247858 0.306961
O O8 0.120757 0.372738 0.417013
O O9 0.757478 0.757478 0.417787
O O10 0.742343 0.625333 0.500000
O O11 0.625333 0.742343 0.500000
O O12 0.166267 0.500000 0.500000
#
# Coordination Sequence:
#
# PCOD8303741 Si02
#       7
#     8  16  16   8  16   8   8
#     4  10  18  29  52  84 110 135 174 222 266 310
#     4  11  22  35  53  77 105 138 177 219 264 321
#     4  11  22  35  53  77 105 138 177 219 264 321
#     4   7  16  31  50  72  92 127 172 201 240 310
#     4   9  18  34  51  70 102 140 173 206 255 312
#     4  10  20  35  54  75 104 138 170 216 272 320
#     4  10  20  35  54  75 104 138 170 216 272 320
#
# _framework density 18.059768999999999
#
# number of rings (size 3 to 8) (size 9 to 14) (size 15 to 20)
#    0.000    2.100    0.000    4.800    0.000    3.600 
#    0.000    0.000    0.000    0.300    0.000    0.000 
#    0.000    9.600    0.000    0.000    0.000    1.200 
#
# Total GULP energy -495702.378823 kJ/mol
# GULP energy per Si atom -12392.559471 kJ/mol
# Density = 1.801866 g / cm^3
# Si number density = 18.059769 Si / 1000 Ang^3
#
#
#
# Elastic Constant Matrix: (Units=GPa)
#
#
# Indices 1 2 3 4 5 6 
#
# 1 102.0627 96.3140 29.6142 0.0000 0.0000 0.0002
# 2 96.3140 102.0627 29.6142 0.0000 0.0000 -0.0002
# 3 29.6142 29.6142 94.7054 0.0000 0.0000 0.0000
# 4 0.0000 0.0000 0.0000 29.5338 0.0000 0.0000
# 5 0.0000 0.0000 0.0000 0.0000 29.5338 0.0000
# 6 0.0002 -0.0002 0.0000 0.0000 0.0000 26.9724
#
#
#
# Elastic Compliance Matrix: (Units=1/GPa)
#
#
# Indices 1 2 3 4 5 6 
#
# 1 0.089756 -0.084196 -0.001739 0.000000 0.000000 -0.000001
# 2 -0.084196 0.089756 -0.001739 0.000000 0.000000 0.000001
# 3 -0.001739 -0.001739 0.011646 0.000000 0.000000 0.000000
# 4 0.000000 0.000000 0.000000 0.033859 0.000000 0.000000
# 5 0.000000 0.000000 0.000000 0.000000 0.033859 0.000000
# 6 -0.000001 0.000001 0.000000 0.000000 0.000000 0.037075
#
#
# Mechanical properties :
#
#
# Convention : Reuss Voigt Hill
#
# Bulk Modulus (GPa) = 63.24322 67.76839 65.50581
# Shear Modulus (GPa) = 10.49164 26.76056 18.62610
#
# Velocity S-wave (km/s) = 2.41288 3.85356 3.21496
# Velocity P-wave (km/s) = 6.54657 7.57667 7.08038
#
# Compressibility (1/GPa) = 0.01581197
#
# Stress axis : x y z
#
# Youngs Moduli (GPa) = 11.14130 11.14130 85.86363
#
# Poissons Ratio (x) = 0.93805 0.14928
# Poissons Ratio (y) = 0.93805 0.14928
# Poissons Ratio (z) = 0.01937 0.01937
#
# Static dielectric constant tensor:
#      x y z
#    x 3.549800 0.000000 0.000000 
#    y 0.000000 3.549800 0.000000 
#    z 0.000000 0.000000 3.247660 
# 
# 
# High freq. dielectric constant tensor:
#      x y z
#    x 1.700280 0.000000 0.000000 
#    y 0.000000 1.700280 0.000000 
#    z 0.000000 0.000000 1.690030 
# 
# From -- ./inp_files/3602.got.cif
#   From: 2010.03.12/outbox.cif.g09.slc.cpg/sg87_2_cif.got.tgz:3602.got - 2010.04.08 20:16:13.
