data_PCOD8303300
_publ_section_title
;
Structure prediction by ZEFSAII (Michael W. Deem and Ramdas Pophale) SiO2 
 PCOD8303300
Probable space group: P 42/M
;
_chemical_formula_sum "Si O2"
_cell_formula_units_Z 40
_cell_length_a 11.465379
_cell_length_b 11.465379
_cell_length_c 15.243033
_cell_angle_alpha 90.000000
_cell_angle_beta 90.000000
_cell_angle_gamma 90.000000
_cell_volume 2003.771617
_symmetry_space_group_name_H-M "P 42/M"
_symmetry_group_IT_number 84
_symmetry_cell_setting 'tetragonal'
loop_
_space_group_symop_operation_xyz
x,y,z
-y,x,1/2+z
-x,-y,z
y,-x,1/2+z
-x,-y,-z
y,-x,1/2-z
x,y,-z
-y,x,1/2-z
loop_
_atom_site_type_symbol
_atom_site_label
_atom_site_fract_x
_atom_site_fract_y
_atom_site_fract_z
Si Si1 0.870198 0.057482 0.159694
Si Si2 0.136375 0.281354 0.818401
Si Si3 0.896766 0.310069 0.901749
Si Si4 0.131237 0.520949 0.242900
Si Si5 0.869875 0.314348 0.400642
O O1 0.829425 0.091195 0.259358
O O2 0.865320 0.174058 0.102771
O O3 0.769789 0.978027 0.118968
O O4 0.000000 0.000000 0.157839
O O5 0.187805 0.391439 0.762046
O O6 0.241504 0.245962 0.881304
O O7 0.033535 0.322725 0.881672
O O8 0.821797 0.385280 0.829906
O O9 0.870281 0.355711 0.000000
O O10 0.135807 0.570605 0.340974
O O11 0.000000 0.500000 0.215558
O O12 0.873204 0.358524 0.500000
#
# Coordination Sequence:
#
# PCOD8303300 Si02
#       5
#     8   8   8   8   8
#     4  12  22  36  57  88 131 162 190 238 300 368
#     4  11  22  37  59  83 117 161 199 246 293 350
#     4  11  22  34  55  85 118 159 199 240 294 356
#     4  10  22  40  57  82 122 162 200 246 299 353
#     4  12  24  38  62  92 123 162 204 247 302 370
#
# _framework density 19.962354999999999
#
# number of rings (size 3 to 8) (size 9 to 14) (size 15 to 20)
#    0.000    0.800    8.000    1.200    2.800    5.600 
#    0.000    0.000    0.000    0.600    0.000    1.400 
#    0.000    0.000    0.000    0.000    0.000    0.000 
#
# Total GULP energy -495597.877387 kJ/mol
# GULP energy per Si atom -12389.946935 kJ/mol
# Density = 1.991692 g / cm^3
# Si number density = 19.962355 Si / 1000 Ang^3
#
#
#
# Elastic Constant Matrix: (Units=GPa)
#
#
# Indices 1 2 3 4 5 6 
#
# 1 70.6375 0.7083 26.2256 0.0000 0.0000 -0.3464
# 2 0.7083 70.6375 26.2256 0.0000 0.0000 0.3464
# 3 26.2256 26.2256 161.9806 0.0000 0.0000 0.0000
# 4 0.0000 0.0000 0.0000 22.5842 0.0000 0.0000
# 5 0.0000 0.0000 0.0000 0.0000 22.5842 0.0000
# 6 -0.3464 0.3464 0.0000 0.0000 0.0000 5.0736
#
#
#
# Elastic Compliance Matrix: (Units=1/GPa)
#
#
# Indices 1 2 3 4 5 6 
#
# 1 0.015110 0.000800 -0.002576 0.000000 0.000000 0.000977
# 2 0.000800 0.015110 -0.002576 0.000000 0.000000 -0.000977
# 3 -0.002576 -0.002576 0.007008 0.000000 0.000000 0.000000
# 4 0.000000 0.000000 0.000000 0.044279 0.000000 0.000000
# 5 0.000000 0.000000 0.000000 0.000000 0.044279 0.000000
# 6 0.000977 -0.000977 0.000000 0.000000 0.000000 0.197232
#
#
# Mechanical properties :
#
#
# Convention : Reuss Voigt Hill
#
# Bulk Modulus (GPa) = 35.05821 45.50827 40.28324
# Shear Modulus (GPa) = 14.65293 26.72145 20.68719
#
# Velocity S-wave (km/s) = 2.71223 3.66265 3.22267
# Velocity P-wave (km/s) = 5.23532 6.38225 5.83703
#
# Compressibility (1/GPa) = 0.02852399
#
# Stress axis : x y z
#
# Youngs Moduli (GPa) = 66.18165 66.18165 142.70035
#
# Poissons Ratio (x) = -0.05295 0.36758
# Poissons Ratio (y) = -0.05295 0.36758
# Poissons Ratio (z) = 0.17048 0.17048
#
# Static dielectric constant tensor:
#      x y z
#    x 4.076850 0.000000 0.000000 
#    y 0.000000 4.076850 0.000000 
#    z 0.000000 0.000000 3.569000 
# 
# 
# High freq. dielectric constant tensor:
#      x y z
#    x 1.757290 0.000000 0.000000 
#    y 0.000000 1.757290 0.000000 
#    z 0.000000 0.000000 1.777830 
# 
# From -- ./inp_files/2899.got.cif
#   From: 2010.03.12/outbox.cif.g09.slc.cpg/sg84_2_cif.got.tgz:2899.got - 2010.04.08 20:07:29.
