data_PCOD8303325
_publ_section_title
;
Structure prediction by ZEFSAII (Michael W. Deem and Ramdas Pophale) SiO2 
 PCOD8303325
Probable space group: P 42/M
;
_chemical_formula_sum "Si O2"
_cell_formula_units_Z 40
_cell_length_a 9.402020
_cell_length_b 9.402020
_cell_length_c 22.394805
_cell_angle_alpha 90.000000
_cell_angle_beta 90.000000
_cell_angle_gamma 90.000000
_cell_volume 1979.655526
_symmetry_space_group_name_H-M "P 42/M"
_symmetry_group_IT_number 84
_symmetry_cell_setting 'tetragonal'
loop_
_space_group_symop_operation_xyz
x,y,z
-y,x,1/2+z
-x,-y,z
y,-x,1/2+z
-x,-y,-z
y,-x,1/2-z
x,y,-z
-y,x,1/2-z
loop_
_atom_site_type_symbol
_atom_site_label
_atom_site_fract_x
_atom_site_fract_y
_atom_site_fract_z
Si Si1 0.355530 0.582891 0.000000
Si Si2 0.915966 0.644432 0.500000
Si Si3 0.234839 0.166476 0.693689
Si Si4 0.724357 0.154560 0.679070
Si Si5 0.011942 0.844666 0.395872
Si Si6 0.668804 0.469232 0.869568
O O1 0.500000 0.500000 0.000000
O O2 0.275799 0.538493 0.938678
O O3 0.387644 0.749831 0.000000
O O4 0.000000 0.500000 0.500000
O O5 0.958496 0.727669 0.441075
O O6 0.218488 0.201994 0.762660
O O7 0.319855 0.293720 0.661328
O O8 0.079600 0.156392 0.664658
O O9 0.311357 0.012872 0.686508
O O10 0.825757 0.184427 0.622448
O O11 0.582632 0.241363 0.666912
O O12 0.000000 0.000000 0.426501
O O13 0.500000 0.500000 0.865319
#
# Coordination Sequence:
#
# PCOD8303325 Si02
#       6
#     4   4   8   8   8   8
#     4  10  24  47  64  89 137 171 212 273 329 380
#     4  12  25  43  71 100 126 170 230 278 327 385
#     4  11  22  44  65  99 133 172 217 267 332 386
#     4  11  24  41  68  99 134 172 216 268 331 390
#     4  10  23  42  70  97 133 171 217 273 327 387
#     4  11  26  44  67  94 135 176 217 269 327 390
#
# _framework density 20.205538000000001
#
# number of rings (size 3 to 8) (size 9 to 14) (size 15 to 20)
#    0.000    1.200    4.000    0.900    8.400    0.000 
#    0.000    3.000    0.000    0.000    0.000    0.000 
#    0.000    0.000    0.000    0.000    0.000    0.000 
#
# Total GULP energy -496009.004827 kJ/mol
# GULP energy per Si atom -12400.225121 kJ/mol
# Density = 2.015955 g / cm^3
# Si number density = 20.205538 Si / 1000 Ang^3
#
#
#
# Elastic Constant Matrix: (Units=GPa)
#
#
# Indices 1 2 3 4 5 6 
#
# 1 95.9630 36.5197 36.3389 0.0000 0.0000 2.6767
# 2 36.5197 95.9630 36.3389 0.0000 0.0000 -2.6767
# 3 36.3389 36.3389 108.0326 0.0000 0.0000 0.0000
# 4 0.0000 0.0000 0.0000 14.4654 0.0000 0.0000
# 5 0.0000 0.0000 0.0000 0.0000 14.4654 0.0000
# 6 2.6767 -2.6767 0.0000 0.0000 0.0000 32.9166
#
#
#
# Elastic Compliance Matrix: (Units=1/GPa)
#
#
# Indices 1 2 3 4 5 6 
#
# 1 0.013102 -0.003845 -0.003113 0.000000 0.000000 -0.001378
# 2 -0.003845 0.013102 -0.003113 0.000000 0.000000 0.001378
# 3 -0.003113 -0.003113 0.011351 0.000000 0.000000 0.000000
# 4 0.000000 0.000000 0.000000 0.069130 0.000000 0.000000
# 5 0.000000 0.000000 0.000000 0.000000 0.069130 0.000000
# 6 -0.001378 0.001378 0.000000 0.000000 0.000000 0.030604
#
#
# Mechanical properties :
#
#
# Convention : Reuss Voigt Hill
#
# Bulk Modulus (GPa) = 57.44025 57.59483 57.51754
# Shear Modulus (GPa) = 21.51772 25.08689 23.30230
#
# Velocity S-wave (km/s) = 3.26688 3.52744 3.39966
# Velocity P-wave (km/s) = 6.53603 6.71988 6.62859
#
# Compressibility (1/GPa) = 0.01740940
#
# Stress axis : x y z
#
# Youngs Moduli (GPa) = 76.32703 76.32703 88.09770
#
# Poissons Ratio (x) = 0.29350 0.27429
# Poissons Ratio (y) = 0.29350 0.27429
# Poissons Ratio (z) = 0.23764 0.23764
#
# Static dielectric constant tensor:
#      x y z
#    x 3.620500 0.000000 0.000000 
#    y 0.000000 3.620500 0.000000 
#    z 0.000000 0.000000 4.001570 
# 
# 
# High freq. dielectric constant tensor:
#      x y z
#    x 1.790860 0.000000 0.000000 
#    y 0.000000 1.790860 0.000000 
#    z 0.000000 0.000000 1.799820 
# 
# From -- ./inp_files/4891.got.cif
#   From: 2010.03.12/outbox.cif.g09.slc.cpg/sg84_3_cif.got.tgz:4891.got - 2010.04.08 20:07:29.
