data_PCOD8303886
_publ_section_title
;
Structure prediction by ZEFSAII (Michael W. Deem and Ramdas Pophale) SiO2 
 PCOD8303886
Probable space group: I 4/M
;
_chemical_formula_sum "Si O2"
_cell_formula_units_Z 96
_cell_length_a 18.358354
_cell_length_b 18.358354
_cell_length_c 15.874985
_cell_angle_alpha 90.000000
_cell_angle_beta 90.000000
_cell_angle_gamma 90.000000
_cell_volume 5350.332885
_symmetry_space_group_name_H-M "I 4/M"
_symmetry_group_IT_number 87
_symmetry_cell_setting 'tetragonal'
loop_
_space_group_symop_operation_xyz
x,y,z
-y,x,z
-x,-y,z
y,-x,z
-x,-y,-z
y,-x,-z
x,y,-z
-y,x,-z
1/2+x,1/2+y,1/2+z
1/2-y,1/2+x,1/2+z
1/2-x,1/2-y,1/2+z
1/2+y,1/2-x,1/2+z
1/2-x,1/2-y,1/2-z
1/2+y,1/2-x,1/2-z
1/2+x,1/2+y,1/2-z
1/2-y,1/2+x,1/2-z
loop_
_atom_site_type_symbol
_atom_site_label
_atom_site_fract_x
_atom_site_fract_y
_atom_site_fract_z
Si Si1 0.126054 0.832818 0.096409
Si Si2 0.972190 0.789536 0.903940
Si Si3 0.997991 0.369953 0.851282
Si Si4 0.157144 0.587238 0.094213
Si Si5 0.289178 0.178395 0.217783
Si Si6 0.859020 0.558744 0.173570
O O1 0.169700 0.901611 0.134053
O O2 0.140130 0.761580 0.150231
O O3 0.039266 0.846509 0.101703
O O4 0.149474 0.817558 0.000000
O O5 0.990127 0.716724 0.853667
O O6 0.957192 0.766935 0.000000
O O7 0.072772 0.408762 0.878952
O O8 0.930129 0.397709 0.906583
O O9 0.982802 0.389832 0.754729
O O10 0.196059 0.636605 0.166135
O O11 0.177360 0.502676 0.114109
O O12 0.186314 0.604778 0.000000
O O13 0.250000 0.250000 0.250000
O O14 0.304707 0.124175 0.296896
#
# Coordination Sequence:
#
# PCOD8303886 Si02
#       6
#    16  16  16  16  16  16
#     4  10  20  34  54  79 110 148 191 235 289 346
#     4  10  20  34  53  77 110 148 188 235 284 342
#     4  11  19  33  53  79 112 147 183 228 279 335
#     4  11  23  37  57  81 114 150 186 233 289 339
#     4  11  22  36  58  81 111 154 193 234 285 341
#     4  11  21  33  54  81 110 142 189 230 274 335
#
# _framework density 17.942809
#
# number of rings (size 3 to 8) (size 9 to 14) (size 15 to 20)
#    0.000    1.333    6.667    2.500    0.000    2.333 
#    0.000    3.333    0.000    0.000    0.000    0.000 
#    0.000    0.000    0.000    3.000    0.000    0.000 
#
# Total GULP energy -594882.643637 kJ/mol
# GULP energy per Si atom -12393.388409 kJ/mol
# Density = 1.790197 g / cm^3
# Si number density = 17.942809 Si / 1000 Ang^3
#
#
#
# Elastic Constant Matrix: (Units=GPa)
#
#
# Indices 1 2 3 4 5 6 
#
# 1 97.0793 48.6810 23.9628 0.0000 0.0000 2.6463
# 2 48.6810 97.0793 23.9628 0.0000 0.0000 -2.6463
# 3 23.9628 23.9628 55.8600 0.0000 0.0000 0.0000
# 4 0.0000 0.0000 0.0000 22.7453 0.0000 0.0000
# 5 0.0000 0.0000 0.0000 0.0000 22.7453 0.0000
# 6 2.6463 -2.6463 0.0000 0.0000 0.0000 38.9914
#
#
#
# Elastic Compliance Matrix: (Units=1/GPa)
#
#
# Indices 1 2 3 4 5 6 
#
# 1 0.014402 -0.006415 -0.003426 0.000000 0.000000 -0.001413
# 2 -0.006415 0.014402 -0.003426 0.000000 0.000000 0.001413
# 3 -0.003426 -0.003426 0.020842 0.000000 0.000000 0.000000
# 4 0.000000 0.000000 0.000000 0.043965 0.000000 0.000000
# 5 0.000000 0.000000 0.000000 0.000000 0.043965 0.000000
# 6 -0.001413 0.001413 0.000000 0.000000 0.000000 0.025838
#
#
# Mechanical properties :
#
#
# Convention : Reuss Voigt Hill
#
# Bulk Modulus (GPa) = 43.27031 49.24799 46.25915
# Shear Modulus (GPa) = 25.29701 27.12387 26.21044
#
# Velocity S-wave (km/s) = 3.75890 3.89226 3.82616
# Velocity P-wave (km/s) = 6.55798 6.90698 6.73474
#
# Compressibility (1/GPa) = 0.02311053
#
# Stress axis : x y z
#
# Youngs Moduli (GPa) = 69.43588 69.43588 47.98109
#
# Poissons Ratio (x) = 0.44541 0.16440
# Poissons Ratio (y) = 0.44541 0.16440
# Poissons Ratio (z) = 0.23791 0.23791
#
# Static dielectric constant tensor:
#      x y z
#    x 3.361140 0.000000 0.000000 
#    y 0.000000 3.361140 0.000000 
#    z 0.000000 0.000000 3.196640 
# 
# 
# High freq. dielectric constant tensor:
#      x y z
#    x 1.685570 0.000000 0.000000 
#    y 0.000000 1.685570 0.000000 
#    z 0.000000 0.000000 1.676920 
# 
# From -- ./inp_files/4442.got.cif
#   From: 2010.03.12/outbox.cif.g09.slc.cpg/sg87_3_cif.got.tgz:4442.got - 2010.04.08 20:16:13.
