data_PCOD8303190
_publ_section_title
;
Structure prediction by ZEFSAII (Michael W. Deem and Ramdas Pophale) SiO2 
 PCOD8303190
Probable space group: P 42/M
;
_chemical_formula_sum "Si O2"
_cell_formula_units_Z 48
_cell_length_a 8.362430
_cell_length_b 8.362430
_cell_length_c 32.976709
_cell_angle_alpha 90.000000
_cell_angle_beta 90.000000
_cell_angle_gamma 90.000000
_cell_volume 2306.069027
_symmetry_space_group_name_H-M "P 42/M"
_symmetry_group_IT_number 84
_symmetry_cell_setting 'tetragonal'
loop_
_space_group_symop_operation_xyz
x,y,z
-y,x,1/2+z
-x,-y,z
y,-x,1/2+z
-x,-y,-z
y,-x,1/2-z
x,y,-z
-y,x,1/2-z
loop_
_atom_site_type_symbol
_atom_site_label
_atom_site_fract_x
_atom_site_fract_y
_atom_site_fract_z
Si Si1 0.398188 0.234764 0.576146
Si Si2 0.737508 0.584035 0.260634
Si Si3 0.000000 0.000000 0.864099
Si Si4 0.000000 0.500000 0.795574
Si Si5 0.738265 0.106636 0.425658
Si Si6 0.255385 0.226437 0.338572
Si Si7 0.612841 0.249245 0.000000
Si Si8 0.733436 0.898141 0.000000
O O1 0.590356 0.227776 0.583517
O O2 0.306747 0.291576 0.617103
O O3 0.356495 0.356596 0.539959
O O4 0.334727 0.063113 0.561850
O O5 0.693284 0.398042 0.259451
O O6 0.762610 0.626591 0.307711
O O7 0.894707 0.613830 0.233697
O O8 0.138167 0.916057 0.837807
O O9 0.912600 0.856683 0.887922
O O10 0.894538 0.393147 0.825003
O O11 0.850567 0.167782 0.460948
O O12 0.430570 0.197552 0.000000
O O13 0.719024 0.089249 0.000000
#
# Coordination Sequence:
#
# PCOD8303190 Si02
#       8
#     8   8   4   4   8   8   4   4
#     4  10  21  39  60  86 116 155 197 238 283 351
#     4   9  20  39  61  85 116 154 193 236 292 351
#     4  10  20  33  57  90 114 144 192 244 286 339
#     4  10  20  38  60  85 116 151 194 240 290 354
#     4  10  20  36  59  82 111 152 197 237 287 340
#     4  10  20  37  60  86 118 153 193 239 293 350
#     4  11  24  39  56  83 120 152 196 245 292 341
#     4  11  22  37  56  80 112 153 192 247 298 336
#
# _framework density 20.814641000000002
#
# number of rings (size 3 to 8) (size 9 to 14) (size 15 to 20)
#    0.000    2.000    0.000    5.000    0.000    6.333 
#    0.000   15.000    0.000    0.000    0.000    0.000 
#    0.000    0.000    0.000    0.000    0.000    0.000 
#
# Total GULP energy -595193.433273 kJ/mol
# GULP energy per Si atom -12399.863193 kJ/mol
# Density = 2.076727 g / cm^3
# Si number density = 20.814641 Si / 1000 Ang^3
#
#
#
# Elastic Constant Matrix: (Units=GPa)
#
#
# Indices 1 2 3 4 5 6 
#
# 1 79.5046 16.7481 40.5362 0.0000 0.0000 -0.6733
# 2 16.7481 79.5046 40.5362 0.0000 0.0000 0.6733
# 3 40.5362 40.5362 133.6497 0.0000 0.0000 0.0000
# 4 0.0000 0.0000 0.0000 48.6046 0.0000 0.0000
# 5 0.0000 0.0000 0.0000 0.0000 48.6046 0.0000
# 6 -0.6733 0.6733 0.0000 0.0000 0.0000 23.0795
#
#
#
# Elastic Compliance Matrix: (Units=1/GPa)
#
#
# Indices 1 2 3 4 5 6 
#
# 1 0.014949 -0.000995 -0.004232 0.000000 0.000000 0.000465
# 2 -0.000995 0.014949 -0.004232 0.000000 0.000000 -0.000465
# 3 -0.004232 -0.004232 0.010050 0.000000 0.000000 0.000000
# 4 0.000000 0.000000 0.000000 0.020574 0.000000 0.000000
# 5 0.000000 0.000000 0.000000 0.000000 0.020574 0.000000
# 6 0.000465 -0.000465 0.000000 0.000000 0.000000 0.043356
#
#
# Mechanical properties :
#
#
# Convention : Reuss Voigt Hill
#
# Bulk Modulus (GPa) = 47.55425 54.25553 50.90489
# Shear Modulus (GPa) = 33.24874 37.04696 35.14785
#
# Velocity S-wave (km/s) = 4.00105 4.22340 4.11373
# Velocity P-wave (km/s) = 6.65137 7.06438 6.86098
#
# Compressibility (1/GPa) = 0.02102862
#
# Stress axis : x y z
#
# Youngs Moduli (GPa) = 66.89245 66.89245 99.50659
#
# Poissons Ratio (x) = 0.06657 0.42114
# Poissons Ratio (y) = 0.06657 0.42114
# Poissons Ratio (z) = 0.28311 0.28311
#
# Static dielectric constant tensor:
#      x y z
#    x 3.898200 0.000000 0.000000 
#    y 0.000000 3.898200 0.000000 
#    z 0.000000 0.000000 4.239120 
# 
# 
# High freq. dielectric constant tensor:
#      x y z
#    x 1.813180 0.000000 0.000000 
#    y 0.000000 1.813180 0.000000 
#    z 0.000000 0.000000 1.814820 
# 
# From -- ./inp_files/5902.got.cif
#   From: 2010.03.12/outbox.cif.g09.slc.cpg/sg84_3_cif.got.tgz:5902.got - 2010.04.08 20:07:29.
