data_PCOD8303874
_publ_section_title
;
Structure prediction by ZEFSAII (Michael W. Deem and Ramdas Pophale) SiO2 
 PCOD8303874
Probable space group: I 4/M
;
_chemical_formula_sum "Si O2"
_cell_formula_units_Z 96
_cell_length_a 22.625400
_cell_length_b 22.625400
_cell_length_c 9.986409
_cell_angle_alpha 90.000000
_cell_angle_beta 90.000000
_cell_angle_gamma 90.000000
_cell_volume 5112.129900
_symmetry_space_group_name_H-M "I 4/M"
_symmetry_group_IT_number 87
_symmetry_cell_setting 'tetragonal'
loop_
_space_group_symop_operation_xyz
x,y,z
-y,x,z
-x,-y,z
y,-x,z
-x,-y,-z
y,-x,-z
x,y,-z
-y,x,-z
1/2+x,1/2+y,1/2+z
1/2-y,1/2+x,1/2+z
1/2-x,1/2-y,1/2+z
1/2+y,1/2-x,1/2+z
1/2-x,1/2-y,1/2-z
1/2+y,1/2-x,1/2-z
1/2+x,1/2+y,1/2-z
1/2-y,1/2+x,1/2-z
loop_
_atom_site_type_symbol
_atom_site_label
_atom_site_fract_x
_atom_site_fract_y
_atom_site_fract_z
Si Si1 0.525771 0.900454 0.500000
Si Si2 0.533461 0.279724 0.154396
Si Si3 0.832036 0.239904 0.349321
Si Si4 0.410812 0.974620 0.500000
Si Si5 0.958326 0.676358 0.259329
Si Si6 0.781778 0.333470 0.844458
Si Si7 0.592939 0.503295 0.159367
O O1 0.458043 0.921397 0.500000
O O2 0.542243 0.859208 0.622981
O O3 0.563698 0.959746 0.500000
O O4 0.603463 0.287171 0.168519
O O5 0.511008 0.224245 0.240558
O O6 0.505196 0.340041 0.213337
O O7 0.514673 0.269144 0.000000
O O8 0.823810 0.265986 0.500000
O O9 0.824366 0.290973 0.240120
O O10 0.785914 0.186740 0.325705
O O11 0.372508 0.967905 0.369744
O O12 0.898499 0.712602 0.284260
O O13 0.801226 0.331883 0.000000
O O14 0.556096 0.560613 0.210412
O O15 0.594411 0.505923 0.000000
#
# Coordination Sequence:
#
# PCOD8303874 Si02
#       7
#     8  16  16   8  16  16  16
#     4  11  28  42  64  85 117 156 193 250 300 357
#     4  10  20  33  54  85 115 151 190 237 286 345
#     4   9  21  37  58  81 115 155 192 233 290 344
#     4  11  24  48  62  85 113 154 201 244 304 349
#     4  12  24  38  64  89 118 150 198 245 293 353
#     4  10  21  38  57  85 115 154 190 236 289 344
#     4   8  15  28  49  79 115 152 187 235 289 337
#
# _framework density 18.778865
#
# number of rings (size 3 to 8) (size 9 to 14) (size 15 to 20)
#    0.000    2.000    1.667    1.500    8.167    1.333 
#    0.000    0.000    0.000    0.000    0.000    0.000 
#    0.000    1.333    0.000    0.000    0.000    0.000 
#
# Total GULP energy -595157.626994 kJ/mol
# GULP energy per Si atom -12399.117229 kJ/mol
# Density = 1.873612 g / cm^3
# Si number density = 18.778865 Si / 1000 Ang^3
#
#
#
# Elastic Constant Matrix: (Units=GPa)
#
#
# Indices 1 2 3 4 5 6 
#
# 1 111.1532 41.2333 41.9615 0.0000 0.0000 -1.3059
# 2 41.2333 111.1532 41.9615 0.0000 0.0000 1.3059
# 3 41.9615 41.9615 97.3013 0.0000 0.0000 0.0000
# 4 0.0000 0.0000 0.0000 -8.9231 0.0000 0.0000
# 5 0.0000 0.0000 0.0000 0.0000 -8.9231 0.0000
# 6 -1.3059 1.3059 0.0000 0.0000 0.0000 21.8441
#
#
#
# Elastic Compliance Matrix: (Units=1/GPa)
#
#
# Indices 1 2 3 4 5 6 
#
# 1 0.011470 -0.002864 -0.003711 0.000000 0.000000 0.000857
# 2 -0.002864 0.011470 -0.003711 0.000000 0.000000 -0.000857
# 3 -0.003711 -0.003711 0.013479 0.000000 0.000000 0.000000
# 4 0.000000 0.000000 0.000000 -0.112068 0.000000 0.000000
# 5 0.000000 0.000000 0.000000 0.000000 -0.112068 0.000000
# 6 0.000857 -0.000857 0.000000 0.000000 0.000000 0.045881
#
#
# Mechanical properties :
#
#
# Convention : Reuss Voigt Hill
#
# Bulk Modulus (GPa) = 63.11085 63.32449 63.21767
# Shear Modulus (GPa) = -43.11044 13.76300 -14.67372
#
# Velocity S-wave (km/s) = -4.79653 2.71015 -2.79838
# Velocity P-wave (km/s) = 1.73341 6.60209 4.82661
#
# Compressibility (1/GPa) = 0.01584514
#
# Stress axis : x y z
#
# Youngs Moduli (GPa) = 87.18263 87.18263 74.19204
#
# Poissons Ratio (x) = 0.24968 0.27536
# Poissons Ratio (y) = 0.24968 0.27536
# Poissons Ratio (z) = 0.32358 0.32358
#
# Static dielectric constant tensor:
#      x y z
#    x 3.596820 0.000000 0.000000 
#    y 0.000000 3.596820 0.000000 
#    z 0.000000 0.000000 3.316100 
# 
# 
# High freq. dielectric constant tensor:
#      x y z
#    x 1.739520 0.000000 0.000000 
#    y 0.000000 1.739520 0.000000 
#    z 0.000000 0.000000 1.699190 
# 
# From -- ./inp_files/2801.got.cif
#   From: 2010.03.12/outbox.cif.g09.slc.cpg/sg87_2_cif.got.tgz:2801.got - 2010.04.08 20:16:13.
