data_PCOD8303739
_publ_section_title
;
Structure prediction by ZEFSAII (Michael W. Deem and Ramdas Pophale) SiO2 
 PCOD8303739
Probable space group: I 4/M
;
_chemical_formula_sum "Si O2"
_cell_formula_units_Z 96
_cell_length_a 24.157832
_cell_length_b 24.157832
_cell_length_c 9.036948
_cell_angle_alpha 90.000000
_cell_angle_beta 90.000000
_cell_angle_gamma 90.000000
_cell_volume 5273.970507
_symmetry_space_group_name_H-M "I 4/M"
_symmetry_group_IT_number 87
_symmetry_cell_setting 'tetragonal'
loop_
_space_group_symop_operation_xyz
x,y,z
-y,x,z
-x,-y,z
y,-x,z
-x,-y,-z
y,-x,-z
x,y,-z
-y,x,-z
1/2+x,1/2+y,1/2+z
1/2-y,1/2+x,1/2+z
1/2-x,1/2-y,1/2+z
1/2+y,1/2-x,1/2+z
1/2-x,1/2-y,1/2-z
1/2+y,1/2-x,1/2-z
1/2+x,1/2+y,1/2-z
1/2-y,1/2+x,1/2-z
loop_
_atom_site_type_symbol
_atom_site_label
_atom_site_fract_x
_atom_site_fract_y
_atom_site_fract_z
Si Si1 0.072576 0.761949 0.823222
Si Si2 0.443513 0.570369 0.837502
Si Si3 0.647494 0.936834 0.325756
Si Si4 0.949978 0.645767 0.172122
Si Si5 0.771431 0.052045 0.173005
Si Si6 0.864265 0.861087 0.171222
O O1 0.085164 0.702947 0.751423
O O2 0.122966 0.802481 0.769708
O O3 0.011044 0.782942 0.769566
O O4 0.071511 0.755524 0.000000
O O5 0.423531 0.508188 0.821053
O O6 0.417190 0.602729 0.701591
O O7 0.424874 0.592779 0.000000
O O8 0.657309 0.939758 0.500000
O O9 0.599671 0.894041 0.282382
O O10 0.628951 0.996642 0.266922
O O11 0.931639 0.708418 0.209520
O O12 0.965774 0.640374 0.000000
O O13 0.810549 0.100475 0.246758
O O14 0.783897 0.053096 0.000000
O O15 0.858716 0.848905 0.000000
#
# Coordination Sequence:
#
# PCOD8303739 Si02
#       6
#    16  16  16  16  16  16
#     4   9  18  32  49  71 102 135 165 208 258 292
#     4   9  18  30  41  58  90 127 158 200 262 312
#     4  10  20  34  55  79 101 131 166 197 240 302
#     4   9  19  36  55  76 105 134 159 199 250 293
#     4   8  15  30  49  68  95 130 164 200 246 293
#     4  10  18  29  49  72  91 123 173 214 244 287
#
# _framework density 18.202605999999999
#
# number of rings (size 3 to 8) (size 9 to 14) (size 15 to 20)
#    0.000    2.833    0.000    3.000    0.000    4.333 
#    0.000    8.333    0.000    0.000    0.000    0.000 
#    0.000    0.000    0.000    0.000    0.000    0.000 
#
# Total GULP energy -594628.964668 kJ/mol
# GULP energy per Si atom -12388.103431 kJ/mol
# Density = 1.816118 g / cm^3
# Si number density = 18.202606 Si / 1000 Ang^3
#
#
#
# Elastic Constant Matrix: (Units=GPa)
#
#
# Indices 1 2 3 4 5 6 
#
# 1 78.7052 63.2161 24.1977 0.0000 0.0000 -1.7618
# 2 63.2161 78.7052 24.1977 0.0000 0.0000 1.7618
# 3 24.1977 24.1977 18.1217 0.0000 0.0000 0.0000
# 4 0.0000 0.0000 0.0000 21.9920 0.0000 0.0000
# 5 0.0000 0.0000 0.0000 0.0000 21.9920 0.0000
# 6 -1.7618 1.7618 0.0000 0.0000 0.0000 39.5654
#
#
#
# Elastic Compliance Matrix: (Units=1/GPa)
#
#
# Indices 1 2 3 4 5 6 
#
# 1 0.039079 -0.026143 -0.017274 0.000000 0.000000 0.002904
# 2 -0.026143 0.039079 -0.017274 0.000000 0.000000 -0.002904
# 3 -0.017274 -0.017274 0.101315 0.000000 0.000000 0.000000
# 4 0.000000 0.000000 0.000000 0.045471 0.000000 0.000000
# 5 0.000000 0.000000 0.000000 0.000000 0.045471 0.000000
# 6 0.002904 -0.002904 0.000000 0.000000 0.000000 0.025533
#
#
# Mechanical properties :
#
#
# Convention : Reuss Voigt Hill
#
# Bulk Modulus (GPa) = 17.21428 44.30614 30.76021
# Shear Modulus (GPa) = 11.44962 20.97126 16.21044
#
# Velocity S-wave (km/s) = 2.51073 3.39795 2.98746
# Velocity P-wave (km/s) = 4.22878 6.30778 5.36985
#
# Compressibility (1/GPa) = 0.05809131
#
# Stress axis : x y z
#
# Youngs Moduli (GPa) = 25.58894 25.58894 9.87018
#
# Poissons Ratio (x) = 0.66896 0.17050
# Poissons Ratio (y) = 0.66896 0.17050
# Poissons Ratio (z) = 0.44203 0.44203
#
# Static dielectric constant tensor:
#      x y z
#    x 3.463700 0.000000 0.000000 
#    y 0.000000 3.463700 0.000000 
#    z 0.000000 0.000000 3.171520 
# 
# 
# High freq. dielectric constant tensor:
#      x y z
#    x 1.700830 0.000000 0.000000 
#    y 0.000000 1.700830 0.000000 
#    z 0.000000 0.000000 1.681820 
# 
# From -- ./inp_files/1319.got.cif
#   From: 2010.03.12/outbox.cif.g09.slc.cpg/sg87_1_cif.got.tgz:1319.got - 2010.04.08 20:16:13.
