data_PCOD8303097
_publ_section_title
;
Structure prediction by ZEFSAII (Michael W. Deem and Ramdas Pophale) SiO2 
 PCOD8303097
Probable space group: P 42/M
;
_chemical_formula_sum "Si O2"
_cell_formula_units_Z 56
_cell_length_a 23.006744
_cell_length_b 23.006744
_cell_length_c 9.136510
_cell_angle_alpha 90.000000
_cell_angle_beta 90.000000
_cell_angle_gamma 90.000000
_cell_volume 4836.048570
_symmetry_space_group_name_H-M "P 42/M"
_symmetry_group_IT_number 84
_symmetry_cell_setting 'tetragonal'
loop_
_space_group_symop_operation_xyz
x,y,z
-y,x,1/2+z
-x,-y,z
y,-x,1/2+z
-x,-y,-z
y,-x,1/2-z
x,y,-z
-y,x,1/2-z
loop_
_atom_site_type_symbol
_atom_site_label
_atom_site_fract_x
_atom_site_fract_y
_atom_site_fract_z
Si Si1 0.938926 0.848454 0.670792
Si Si2 0.274528 0.066634 0.835538
Si Si3 0.386397 0.068536 0.665556
Si Si4 0.611737 0.070176 0.335965
Si Si5 0.499390 0.069263 0.165158
Si Si6 0.721109 0.071351 0.161678
Si Si7 0.058066 0.841235 0.171812
O O1 0.957023 0.847305 0.500000
O O2 0.910541 0.785922 0.713494
O O3 0.893093 0.898025 0.706661
O O4 0.995973 0.860743 0.765876
O O5 0.329931 0.092919 0.750142
O O6 0.216083 0.083364 0.749356
O O7 0.280905 0.997896 0.842058
O O8 0.272371 0.092454 0.000000
O O9 0.385772 0.092344 0.500000
O O10 0.443639 0.092608 0.746580
O O11 0.386842 0.999128 0.665515
O O12 0.605048 0.094022 0.500000
O O13 0.557625 0.093423 0.241411
O O14 0.671916 0.095622 0.270570
O O15 0.500000 0.000000 0.165180
O O16 0.496732 0.093254 0.000000
O O17 0.707740 0.096148 0.000000
O O18 0.052306 0.828653 0.000000
#
# Coordination Sequence:
#
# PCOD8303097 Si02
#       7
#     8   8   8   8   8   8   8
#     4   9  19  32  42  53  67  80  95 119 153 192
#     4   9  16  26  38  50  64  80  97 117 143 176
#     4   9  15  22  32  46  63  81 101 122 140 160
#     4   9  15  21  30  45  62  78  98 121 140 160
#     4   9  15  21  29  42  61  84 104 119 138 161
#     4   8  14  25  37  46  59  78  96 114 140 175
#     4  10  19  30  43  55  65  78  97 121 151 189
#
# _framework density 11.579701999999999
#
# number of rings (size 3 to 8) (size 9 to 14) (size 15 to 20)
#    0.000    3.000    0.000    3.000    0.000   10.000 
#    0.000    1.429    0.000    0.000    0.000    0.000 
#    0.000    0.000    0.000    0.000    0.000    0.000 
#
# Total GULP energy -694176.916093 kJ/mol
# GULP energy per Si atom -12396.016359 kJ/mol
# Density = 1.155335 g / cm^3
# Si number density = 11.579702 Si / 1000 Ang^3
#
#
#
# Elastic Constant Matrix: (Units=GPa)
#
#
# Indices 1 2 3 4 5 6 
#
# 1 54.3286 28.8231 41.0018 0.0000 0.0000 0.2562
# 2 28.8231 54.3286 41.0018 0.0000 0.0000 -0.2562
# 3 41.0018 41.0018 106.1886 0.0000 0.0000 0.0000
# 4 0.0000 0.0000 0.0000 14.4458 0.0000 0.0000
# 5 0.0000 0.0000 0.0000 0.0000 14.4458 0.0000
# 6 0.2562 -0.2562 0.0000 0.0000 0.0000 -0.0549
#
#
#
# Elastic Compliance Matrix: (Units=1/GPa)
#
#
# Indices 1 2 3 4 5 6 
#
# 1 0.027633 -0.008212 -0.007499 0.000000 0.000000 0.167385
# 2 -0.008212 0.027633 -0.007499 0.000000 0.000000 -0.167385
# 3 -0.007499 -0.007499 0.015208 0.000000 0.000000 0.000000
# 4 0.000000 0.000000 0.000000 0.069224 0.000000 0.000000
# 5 0.000000 0.000000 0.000000 0.000000 0.069224 0.000000
# 6 0.167385 -0.167385 0.000000 0.000000 0.000000-16.666513
#
#
# Mechanical properties :
#
#
# Convention : Reuss Voigt Hill
#
# Bulk Modulus (GPa) = 41.57082 48.49992 45.03537
# Shear Modulus (GPa) = -0.30482 12.70196 6.19857
#
# Velocity S-wave (km/s) = -0.51362 3.31557 2.31616
# Velocity P-wave (km/s) = 5.96875 7.52541 6.79182
#
# Compressibility (1/GPa) = 0.02405533
#
# Stress axis : x y z
#
# Youngs Moduli (GPa) = 36.18799 36.18799 65.75284
#
# Poissons Ratio (x) = 0.29716 0.49310
# Poissons Ratio (y) = 0.29716 0.49310
# Poissons Ratio (z) = 0.27138 0.27138
#
# Static dielectric constant tensor:
#      x y z
#    x 2.253540 0.000000 0.000000 
#    y 0.000000 2.253540 0.000000 
#    z 0.000000 0.000000 2.652800 
# 
# 
# High freq. dielectric constant tensor:
#      x y z
#    x 1.397670 0.000000 0.000000 
#    y 0.000000 1.397670 0.000000 
#    z 0.000000 0.000000 1.458710 
# 
# From -- ./inp_files/1295.got.cif
#   From: 2010.03.12/outbox.cif.g09.slc.cpg/sg84_1_cif.got.tgz:1295.got - 2010.04.08 20:07:29.
