data_PCOD8303801
_publ_section_title
;
Structure prediction by ZEFSAII (Michael W. Deem and Ramdas Pophale) SiO2 
 PCOD8303801
Probable space group: I 4/M
;
_chemical_formula_sum "Si O2"
_cell_formula_units_Z 80
_cell_length_a 17.551200
_cell_length_b 17.551200
_cell_length_c 13.573112
_cell_angle_alpha 90.000000
_cell_angle_beta 90.000000
_cell_angle_gamma 90.000000
_cell_volume 4181.124148
_symmetry_space_group_name_H-M "I 4/M"
_symmetry_group_IT_number 87
_symmetry_cell_setting 'tetragonal'
loop_
_space_group_symop_operation_xyz
x,y,z
-y,x,z
-x,-y,z
y,-x,z
-x,-y,-z
y,-x,-z
x,y,-z
-y,x,-z
1/2+x,1/2+y,1/2+z
1/2-y,1/2+x,1/2+z
1/2-x,1/2-y,1/2+z
1/2+y,1/2-x,1/2+z
1/2-x,1/2-y,1/2-z
1/2+y,1/2-x,1/2-z
1/2+x,1/2+y,1/2-z
1/2-y,1/2+x,1/2-z
loop_
_atom_site_type_symbol
_atom_site_label
_atom_site_fract_x
_atom_site_fract_y
_atom_site_fract_z
Si Si1 0.289396 0.671955 0.275665
Si Si2 0.397727 0.203350 0.889731
Si Si3 0.433020 0.187579 0.386280
Si Si4 0.254190 0.092980 0.111751
Si Si5 0.583990 0.979137 0.382817
O O1 0.250000 0.750000 0.250000
O O2 0.277360 0.615589 0.181150
O O3 0.247722 0.633536 0.368653
O O4 0.375542 0.688212 0.313321
O O5 0.322750 0.152366 0.891937
O O6 0.465732 0.151504 0.843133
O O7 0.416955 0.232928 0.000000
O O8 0.448620 0.173974 0.500000
O O9 0.513414 0.216764 0.342311
O O10 0.403401 0.106745 0.343188
O O11 0.221634 0.082722 0.000000
O O12 0.586626 0.987918 0.500000
O O13 0.500000 0.000000 0.343434
#
# Coordination Sequence:
#
# PCOD8303801 Si02
#       5
#    16  16  16  16  16
#     4  10  21  33  48  73 106 139 180 225 271 325
#     4   9  17  30  47  70 105 147 180 214 262 317
#     4  10  19  32  54  79 104 139 178 219 273 330
#     4   9  17  32  52  72 100 135 175 224 272 319
#     4   9  15  28  49  75 108 140 172 211 260 324
#
# _framework density 19.133611999999999
#
# number of rings (size 3 to 8) (size 9 to 14) (size 15 to 20)
#    0.000    2.600    2.000    0.600    0.000    4.000 
#    0.000    0.000    0.000    1.800    0.000    2.800 
#    0.000    0.000    0.000    9.200    0.000    0.200 
#
# Total GULP energy -495529.799901 kJ/mol
# GULP energy per Si atom -12388.244998 kJ/mol
# Density = 1.909006 g / cm^3
# Si number density = 19.133612 Si / 1000 Ang^3
#
#
#
# Elastic Constant Matrix: (Units=GPa)
#
#
# Indices 1 2 3 4 5 6 
#
# 1 74.1023 49.7253 33.4895 0.0000 0.0000 1.0481
# 2 49.7253 74.1023 33.4895 0.0000 0.0000 -1.0481
# 3 33.4895 33.4895 71.5105 0.0000 0.0000 0.0000
# 4 0.0000 0.0000 0.0000 22.1087 0.0000 0.0000
# 5 0.0000 0.0000 0.0000 0.0000 22.1087 0.0000
# 6 1.0481 -1.0481 0.0000 0.0000 0.0000 45.1483
#
#
#
# Elastic Compliance Matrix: (Units=1/GPa)
#
#
# Indices 1 2 3 4 5 6 
#
# 1 0.025960 -0.015144 -0.005065 0.000000 0.000000 -0.000954
# 2 -0.015144 0.025960 -0.005065 0.000000 0.000000 0.000954
# 3 -0.005065 -0.005065 0.018728 0.000000 0.000000 0.000000
# 4 0.000000 0.000000 0.000000 0.045231 0.000000 0.000000
# 5 0.000000 0.000000 0.000000 0.000000 0.045231 0.000000
# 6 -0.000954 0.000954 0.000000 0.000000 0.000000 0.022194
#
#
# Mechanical properties :
#
#
# Convention : Reuss Voigt Hill
#
# Bulk Modulus (GPa) = 49.75429 50.34706 50.05068
# Shear Modulus (GPa) = 20.78555 24.74055 22.76305
#
# Velocity S-wave (km/s) = 3.29954 3.59979 3.45293
# Velocity P-wave (km/s) = 6.36993 6.60670 6.48940
#
# Compressibility (1/GPa) = 0.02009877
#
# Stress axis : x y z
#
# Youngs Moduli (GPa) = 38.52107 38.52107 53.39587
#
# Poissons Ratio (x) = 0.58338 0.27045
# Poissons Ratio (y) = 0.58338 0.27045
# Poissons Ratio (z) = 0.19511 0.19511
#
# Static dielectric constant tensor:
#      x y z
#    x 3.469080 0.000000 0.000000 
#    y 0.000000 3.469080 0.000000 
#    z 0.000000 0.000000 3.830470 
# 
# 
# High freq. dielectric constant tensor:
#      x y z
#    x 1.711850 0.000000 0.000000 
#    y 0.000000 1.711850 0.000000 
#    z 0.000000 0.000000 1.757630 
# 
# From -- ./inp_files/3514.got.cif
#   From: 2010.03.12/outbox.cif.g09.slc.cpg/sg87_2_cif.got.tgz:3514.got - 2010.04.08 20:16:13.
