data_PCOD8303584
_publ_section_title
;
Structure prediction by ZEFSAII (Michael W. Deem and Ramdas Pophale) SiO2 
 PCOD8303584
Probable space group: P 42/N
;
_chemical_formula_sum "Si O2"
_cell_formula_units_Z 64
_cell_length_a 17.631429
_cell_length_b 17.631429
_cell_length_c 10.942192
_cell_angle_alpha 90.000000
_cell_angle_beta 90.000000
_cell_angle_gamma 90.000000
_cell_volume 3401.569558
_symmetry_space_group_name_H-M "P 42/N"
_symmetry_group_IT_number 86
_space_group.IT_coordinate_system_code '2'
_symmetry_cell_setting 'tetragonal'
loop_
_space_group_symop_operation_xyz
x,y,z
-y,1/2+x,1/2+z
1/2-x,1/2-y,z
1/2+y,-x,1/2+z
-x,-y,-z
y,1/2-x,1/2-z
1/2+x,1/2+y,-z
1/2-y,x,1/2-z
loop_
_atom_site_type_symbol
_atom_site_label
_atom_site_fract_x
_atom_site_fract_y
_atom_site_fract_z
Si Si1 0.057227 0.438410 0.558322
Si Si2 0.547349 0.425839 0.473069
Si Si3 0.049558 0.173605 0.314569
Si Si4 0.067725 0.347979 0.321092
Si Si5 0.308945 0.913210 0.357732
Si Si6 0.594904 0.142660 0.212083
Si Si7 0.042375 0.808001 0.131787
Si Si8 0.848911 0.046130 0.242889
O O1 0.087024 0.385068 0.450633
O O2 0.129680 0.475470 0.625795
O O3 0.000000 0.500000 0.500000
O O4 0.017750 0.385715 0.658466
O O5 0.500000 0.500000 0.500000
O O6 0.489538 0.358231 0.437647
O O7 0.597299 0.398547 0.586105
O O8 0.602084 0.443687 0.362549
O O9 0.074754 0.258727 0.338256
O O10 0.125023 0.126952 0.281656
O O11 0.992309 0.163647 0.200793
O O12 0.985817 0.373227 0.273618
O O13 0.231199 0.886162 0.297578
O O14 0.288042 0.929165 0.497261
O O15 0.374423 0.849942 0.334688
O O16 0.658762 0.115374 0.302925
O O17 0.019005 0.734076 0.211246
#
# Coordination Sequence:
#
# PCOD8303584 Si02
#       8
#     8   8   8   8   8   8   8   8
#     4  12  21  42  69  92 122 169 223 259 311 388
#     4  11  20  37  61  92 124 156 207 265 307 370
#     4  10  22  36  62  89 122 161 208 263 310 372
#     4  11  21  39  62  89 121 164 211 263 306 377
#     4  10  21  43  59  89 129 163 210 258 315 381
#     4  11  22  36  62  93 124 164 208 255 323 377
#     4  12  23  40  67  92 128 173 207 265 321 376
#     4  11  24  40  65  96 125 167 213 259 321 384
#
# _framework density 18.814844000000001
#
# number of rings (size 3 to 8) (size 9 to 14) (size 15 to 20)
#    0.000    1.000    6.250    1.500    1.750    0.750 
#    2.250    1.250    0.000    0.375    0.000    0.000 
#    0.000    0.000    0.000    0.000    0.000    0.000 
#
# Total GULP energy -793597.318289 kJ/mol
# GULP energy per Si atom -12399.958098 kJ/mol
# Density = 1.877202 g / cm^3
# Si number density = 18.814844 Si / 1000 Ang^3
#
#
#
# Elastic Constant Matrix: (Units=GPa)
#
#
# Indices 1 2 3 4 5 6 
#
# 1 95.6545 69.8348 34.8482 0.0000 0.0000 26.3482
# 2 69.8348 95.6545 34.8482 0.0000 0.0000 -26.3482
# 3 34.8482 34.8482 71.0678 0.0000 0.0000 0.0000
# 4 0.0000 0.0000 0.0000 34.4097 0.0000 0.0000
# 5 0.0000 0.0000 0.0000 0.0000 34.4097 0.0000
# 6 26.3482 -26.3482 0.0000 0.0000 0.0000 -50.6170
#
#
#
# Elastic Compliance Matrix: (Units=1/GPa)
#
#
# Indices 1 2 3 4 5 6 
#
# 1 0.013197 -0.005582 -0.003734 0.000000 0.000000 0.009775
# 2 -0.005582 0.013197 -0.003734 0.000000 0.000000 -0.009775
# 3 -0.003734 -0.003734 0.017733 0.000000 0.000000 0.000000
# 4 0.000000 0.000000 0.000000 0.029062 0.000000 0.000000
# 5 0.000000 0.000000 0.000000 0.000000 0.029062 0.000000
# 6 0.009775 -0.009775 0.000000 0.000000 0.000000 -0.009579
#
#
# Mechanical properties :
#
#
# Convention : Reuss Voigt Hill
#
# Bulk Modulus (GPa) = 55.47197 60.15991 57.81594
# Shear Modulus (GPa) = 40.07011 11.83021 25.95016
#
# Velocity S-wave (km/s) = 4.61988 2.51025 3.71784
# Velocity P-wave (km/s) = 7.61609 6.35971 7.01608
#
# Compressibility (1/GPa) = 0.01802712
#
# Stress axis : x y z
#
# Youngs Moduli (GPa) = 75.77316 75.77316 56.39141
#
# Poissons Ratio (x) = 0.42296 0.21058
# Poissons Ratio (y) = 0.42296 0.21058
# Poissons Ratio (z) = 0.28295 0.28295
#
# Static dielectric constant tensor:
#      x y z
#    x 3.469930 0.000000 0.000000 
#    y 0.000000 3.469930 0.000000 
#    z 0.000000 0.000000 3.653190 
# 
# 
# High freq. dielectric constant tensor:
#      x y z
#    x 1.725110 0.000000 0.000000 
#    y 0.000000 1.725110 0.000000 
#    z 0.000000 0.000000 1.743870 
# 
# From -- ./inp_files/2488.got.cif
#   From: 2010.03.12/outbox.cif.g09.slc.cpg/sg86_2_cif.got.tgz:2488.got - 2010.04.08 20:12:58.
