data_PCOD8303978
_publ_section_title
;
Structure prediction by ZEFSAII (Michael W. Deem and Ramdas Pophale) SiO2 
 PCOD8303978
Probable space group: I 4/M
;
_chemical_formula_sum "Si O2"
_cell_formula_units_Z 60
_cell_length_a 15.487892
_cell_length_b 15.487892
_cell_length_c 12.867150
_cell_angle_alpha 90.000000
_cell_angle_beta 90.000000
_cell_angle_gamma 90.000000
_cell_volume 3086.505015
_symmetry_space_group_name_H-M "I 4/M"
_symmetry_group_IT_number 87
_symmetry_cell_setting 'tetragonal'
loop_
_space_group_symop_operation_xyz
x,y,z
-y,x,z
-x,-y,z
y,-x,z
-x,-y,-z
y,-x,-z
x,y,-z
-y,x,-z
1/2+x,1/2+y,1/2+z
1/2-y,1/2+x,1/2+z
1/2-x,1/2-y,1/2+z
1/2+y,1/2-x,1/2+z
1/2-x,1/2-y,1/2-z
1/2+y,1/2-x,1/2-z
1/2+x,1/2+y,1/2-z
1/2-y,1/2+x,1/2-z
loop_
_atom_site_type_symbol
_atom_site_label
_atom_site_fract_x
_atom_site_fract_y
_atom_site_fract_z
Si Si1 0.000000 0.500000 0.250000
Si Si2 0.199219 0.745092 0.617250
Si Si3 0.886943 0.917355 0.000000
Si Si4 0.262887 0.383022 0.320671
Si Si5 0.655297 0.049232 0.119285
O O1 0.055436 0.435222 0.179126
O O2 0.171569 0.769864 0.500000
O O3 0.293869 0.785298 0.643726
O O4 0.129062 0.785249 0.697838
O O5 0.203307 0.640745 0.631614
O O6 0.846372 0.884084 0.893544
O O7 0.980961 0.879063 0.000000
O O8 0.208903 0.469554 0.334343
O O9 0.636839 0.027751 0.000000
#
# Coordination Sequence:
#
# PCOD8303978 Si02
#       5
#     4  16   8  16  16
#     4  12  22  36  48  82 108 168 186 224 296 350
#     4  10  21  36  57  84 115 157 192 237 290 344
#     4  11  22  38  64  91 112 146 196 248 303 341
#     4  11  20  35  59  83 115 149 193 239 292 339
#     4  11  21  36  55  78 117 149 193 239 284 353
#
# _framework density 19.439464000000001
#
# number of rings (size 3 to 8) (size 9 to 14) (size 15 to 20)
#    0.000    1.200    5.333    2.000    0.000    0.000 
#    0.000    0.000    2.933    4.800    0.000    1.867 
#    0.000    0.000    0.000    0.000    0.000    0.000 
#
# Total GULP energy -371788.667397 kJ/mol
# GULP energy per Si atom -12392.955580 kJ/mol
# Density = 1.939522 g / cm^3
# Si number density = 19.439464 Si / 1000 Ang^3
#
#
#
# Elastic Constant Matrix: (Units=GPa)
#
#
# Indices 1 2 3 4 5 6 
#
# 1 65.5816 -13.4622 30.2803 0.0000 0.0000 5.6554
# 2 -13.4622 65.5816 30.2803 0.0000 0.0000 -5.6554
# 3 30.2803 30.2803 183.9793 0.0000 0.0000 0.0000
# 4 0.0000 0.0000 0.0000 18.7083 0.0000 0.0000
# 5 0.0000 0.0000 0.0000 0.0000 18.7083 0.0000
# 6 5.6554 -5.6554 0.0000 0.0000 0.0000 27.7184
#
#
#
# Elastic Compliance Matrix: (Units=1/GPa)
#
#
# Indices 1 2 3 4 5 6 
#
# 1 0.018378 0.005346 -0.003905 0.000000 0.000000 -0.002659
# 2 0.005346 0.018378 -0.003905 0.000000 0.000000 0.002659
# 3 -0.003905 -0.003905 0.006721 0.000000 0.000000 0.000000
# 4 0.000000 0.000000 0.000000 0.053452 0.000000 0.000000
# 5 0.000000 0.000000 0.000000 0.000000 0.053452 0.000000
# 6 -0.002659 0.002659 0.000000 0.000000 0.000000 0.037162
#
#
# Mechanical properties :
#
#
# Convention : Reuss Voigt Hill
#
# Bulk Modulus (GPa) = 25.94055 45.48217 35.71136
# Shear Modulus (GPa) = 24.35240 30.89662 27.62451
#
# Velocity S-wave (km/s) = 3.54323 3.99102 3.77378
# Velocity P-wave (km/s) = 5.48749 6.68471 6.11547
#
# Compressibility (1/GPa) = 0.03854968
#
# Stress axis : x y z
#
# Youngs Moduli (GPa) = 54.41388 54.41388 148.79483
#
# Poissons Ratio (x) = -0.29090 0.58098
# Poissons Ratio (y) = -0.29090 0.58098
# Poissons Ratio (z) = 0.21246 0.21246
#
# Static dielectric constant tensor:
#      x y z
#    x 3.506120 0.000000 0.000000 
#    y 0.000000 3.506120 0.000000 
#    z 0.000000 0.000000 4.087470 
# 
# 
# High freq. dielectric constant tensor:
#      x y z
#    x 1.740960 0.000000 0.000000 
#    y 0.000000 1.740960 0.000000 
#    z 0.000000 0.000000 1.776560 
# 
# From -- ./inp_files/2359.got.cif
#   From: 2010.03.12/outbox.cif.g09.slc.cpg/sg87_2_cif.got.tgz:2359.got - 2010.04.08 20:16:13.
