data_PCOD8303337
_publ_section_title
;
Structure prediction by ZEFSAII (Michael W. Deem and Ramdas Pophale) SiO2 
 PCOD8303337
Probable space group: P 42/M
;
_chemical_formula_sum "Si O2"
_cell_formula_units_Z 40
_cell_length_a 9.706712
_cell_length_b 9.706712
_cell_length_c 21.506357
_cell_angle_alpha 90.000000
_cell_angle_beta 90.000000
_cell_angle_gamma 90.000000
_cell_volume 2026.334502
_symmetry_space_group_name_H-M "P 42/M"
_symmetry_group_IT_number 84
_symmetry_cell_setting 'tetragonal'
loop_
_space_group_symop_operation_xyz
x,y,z
-y,x,1/2+z
-x,-y,z
y,-x,1/2+z
-x,-y,-z
y,-x,1/2-z
x,y,-z
-y,x,1/2-z
loop_
_atom_site_type_symbol
_atom_site_label
_atom_site_fract_x
_atom_site_fract_y
_atom_site_fract_z
Si Si1 0.865608 0.086569 0.427822
Si Si2 0.718327 0.739803 0.739713
Si Si3 0.020485 0.337493 0.820394
Si Si4 0.121066 0.596803 0.572253
Si Si5 0.497629 0.660474 0.838028
O O1 0.823353 0.069402 0.500000
O O2 0.737770 0.032610 0.386998
O O3 0.907085 0.243862 0.412399
O O4 0.000000 0.000000 0.410724
O O5 0.843734 0.693464 0.782003
O O6 0.579510 0.703452 0.776354
O O7 0.712010 0.657749 0.674558
O O8 0.725441 0.899491 0.721893
O O9 0.000000 0.500000 0.832458
O O10 0.135074 0.567743 0.500000
O O11 0.266451 0.556421 0.601365
O O12 0.000000 0.500000 0.600457
O O13 0.500000 0.500000 0.852180
#
# Coordination Sequence:
#
# PCOD8303337 Si02
#       5
#     8   8   8   8   8
#     4  10  24  46  67  92 127 166 213 268 317 370
#     4  12  25  41  62  97 132 166 207 262 320 380
#     4  12  26  42  65  96 127 169 214 257 318 380
#     4  10  24  44  68  95 125 168 217 265 317 377
#     4  12  22  42  65  91 132 170 206 262 321 371
#
# _framework density 19.740079000000001
#
# number of rings (size 3 to 8) (size 9 to 14) (size 15 to 20)
#    0.000    0.800    6.000    0.000    8.400    0.800 
#    0.000    0.000    0.000    0.000    0.000    0.000 
#    0.000    0.000    0.000    0.000    0.000    0.000 
#
# Total GULP energy -496117.189683 kJ/mol
# GULP energy per Si atom -12402.929742 kJ/mol
# Density = 1.969515 g / cm^3
# Si number density = 19.740079 Si / 1000 Ang^3
#
#
#
# Elastic Constant Matrix: (Units=GPa)
#
#
# Indices 1 2 3 4 5 6 
#
# 1 108.9621 58.0086 55.7659 0.0000 0.0000 -0.5201
# 2 58.0086 108.9621 55.7659 0.0000 0.0000 0.5201
# 3 55.7659 55.7659 69.5917 0.0000 0.0000 0.0000
# 4 0.0000 0.0000 0.0000 30.4089 0.0000 0.0000
# 5 0.0000 0.0000 0.0000 0.0000 30.4089 0.0000
# 6 -0.5201 0.5201 0.0000 0.0000 0.0000 32.6242
#
#
#
# Elastic Compliance Matrix: (Units=1/GPa)
#
#
# Indices 1 2 3 4 5 6 
#
# 1 0.016260 -0.003373 -0.010327 0.000000 0.000000 0.000313
# 2 -0.003373 0.016260 -0.010327 0.000000 0.000000 -0.000313
# 3 -0.010327 -0.010327 0.030920 0.000000 0.000000 0.000000
# 4 0.000000 0.000000 0.000000 0.032885 0.000000 0.000000
# 5 0.000000 0.000000 0.000000 0.000000 0.032885 0.000000
# 6 0.000313 -0.000313 0.000000 0.000000 0.000000 0.030662
#
#
# Mechanical properties :
#
#
# Convention : Reuss Voigt Hill
#
# Bulk Modulus (GPa) = 64.99064 69.62186 67.30625
# Shear Modulus (GPa) = 23.46836 26.55342 25.01089
#
# Velocity S-wave (km/s) = 3.45174 3.67161 3.56337
# Velocity P-wave (km/s) = 6.99147 7.30207 7.14845
#
# Compressibility (1/GPa) = 0.01538683
#
# Stress axis : x y z
#
# Youngs Moduli (GPa) = 61.50200 61.50200 32.34159
#
# Poissons Ratio (x) = 0.20742 0.33399
# Poissons Ratio (y) = 0.20742 0.33399
# Poissons Ratio (z) = 0.63512 0.63512
#
# Static dielectric constant tensor:
#      x y z
#    x 3.941780 0.000000 0.000000 
#    y 0.000000 3.941780 0.000000 
#    z 0.000000 0.000000 3.512250 
# 
# 
# High freq. dielectric constant tensor:
#      x y z
#    x 1.782050 0.000000 0.000000 
#    y 0.000000 1.782050 0.000000 
#    z 0.000000 0.000000 1.763560 
# 
# From -- ./inp_files/4784.got.cif
#   From: 2010.03.12/outbox.cif.g09.slc.cpg/sg84_3_cif.got.tgz:4784.got - 2010.04.08 20:07:29.
