data_PCOD8303576
_publ_section_title
;
Structure prediction by ZEFSAII (Michael W. Deem and Ramdas Pophale) SiO2 
 PCOD8303576
Probable space group: P 42/N
;
_chemical_formula_sum "Si O2"
_cell_formula_units_Z 40
_cell_length_a 8.986908
_cell_length_b 8.986908
_cell_length_c 24.184541
_cell_angle_alpha 90.000000
_cell_angle_beta 90.000000
_cell_angle_gamma 90.000000
_cell_volume 1953.252734
_symmetry_space_group_name_H-M "P 42/N"
_symmetry_group_IT_number 86
_space_group.IT_coordinate_system_code '2'
_symmetry_cell_setting 'tetragonal'
loop_
_space_group_symop_operation_xyz
x,y,z
-y,1/2+x,1/2+z
1/2-x,1/2-y,z
1/2+y,-x,1/2+z
-x,-y,-z
y,1/2-x,1/2-z
1/2+x,1/2+y,-z
1/2-y,x,1/2-z
loop_
_atom_site_type_symbol
_atom_site_label
_atom_site_fract_x
_atom_site_fract_y
_atom_site_fract_z
Si Si1 0.436457 0.441766 0.177042
Si Si2 0.333966 0.597898 0.284740
Si Si3 0.318419 0.591753 0.960885
Si Si4 0.663286 0.598230 0.939040
Si Si5 0.762488 0.925157 0.148090
O O1 0.351760 0.493916 0.231413
O O2 0.497388 0.271913 0.176515
O O3 0.325289 0.455561 0.124669
O O4 0.575921 0.549523 0.172938
O O5 0.250000 0.750000 0.268065
O O6 0.488497 0.635355 0.316217
O O7 0.250000 0.750000 0.949366
O O8 0.493251 0.618093 0.956411
O O9 0.255011 0.478653 0.915086
O O10 0.269179 0.528615 0.020742
O O11 0.750000 0.750000 0.949087
O O12 0.750000 0.750000 0.151955
#
# Coordination Sequence:
#
# PCOD8303576 Si02
#       5
#     8   8   8   8   8
#     4  10  23  39  59  89 126 164 209 266 315 380
#     4  10  23  39  59  90 127 166 213 262 322 380
#     4  10  21  42  63  92 129 162 210 267 318 377
#     4  10  22  39  62  90 123 164 213 254 316 386
#     4  10  21  38  66  91 122 166 212 263 317 386
#
# _framework density 20.478660000000001
#
# number of rings (size 3 to 8) (size 9 to 14) (size 15 to 20)
#    0.000    2.000    0.000    3.600    8.400    1.600 
#    0.000    6.000    0.000    0.000    0.000    0.000 
#    0.000    0.000    0.000    0.000    0.000    0.000 
#
# Total GULP energy -495908.431804 kJ/mol
# GULP energy per Si atom -12397.710795 kJ/mol
# Density = 2.043205 g / cm^3
# Si number density = 20.478660 Si / 1000 Ang^3
#
#
#
# Elastic Constant Matrix: (Units=GPa)
#
#
# Indices 1 2 3 4 5 6 
#
# 1 101.2221 34.8428 48.7792 0.0000 0.0000 0.6476
# 2 34.8428 101.2221 48.7792 0.0000 0.0000 -0.6476
# 3 48.7792 48.7792 126.8423 0.0000 0.0000 0.0000
# 4 0.0000 0.0000 0.0000 21.6520 0.0000 0.0000
# 5 0.0000 0.0000 0.0000 0.0000 21.6520 0.0000
# 6 0.6476 -0.6476 0.0000 0.0000 0.0000 25.0398
#
#
#
# Elastic Compliance Matrix: (Units=1/GPa)
#
#
# Indices 1 2 3 4 5 6 
#
# 1 0.012610 -0.002463 -0.003902 0.000000 0.000000 -0.000390
# 2 -0.002463 0.012610 -0.003902 0.000000 0.000000 0.000390
# 3 -0.003902 -0.003902 0.010885 0.000000 0.000000 0.000000
# 4 0.000000 0.000000 0.000000 0.046185 0.000000 0.000000
# 5 0.000000 0.000000 0.000000 0.000000 0.046185 0.000000
# 6 -0.000390 0.000390 0.000000 0.000000 0.000000 0.039957
#
#
# Mechanical properties :
#
#
# Convention : Reuss Voigt Hill
#
# Bulk Modulus (GPa) = 64.22335 66.00987 65.11661
# Shear Modulus (GPa) = 25.75239 26.79445 26.27342
#
# Velocity S-wave (km/s) = 3.55000 3.62112 3.58574
# Velocity P-wave (km/s) = 6.94497 7.05598 7.00069
#
# Compressibility (1/GPa) = 0.01557066
#
# Stress axis : x y z
#
# Youngs Moduli (GPa) = 79.30231 79.30231 91.86769
#
# Poissons Ratio (x) = 0.19529 0.35850
# Poissons Ratio (y) = 0.19529 0.35850
# Poissons Ratio (z) = 0.30946 0.30946
#
# Static dielectric constant tensor:
#      x y z
#    x 3.675310 0.000000 0.000000 
#    y 0.000000 3.675310 0.000000 
#    z 0.000000 0.000000 3.973290 
# 
# 
# High freq. dielectric constant tensor:
#      x y z
#    x 1.796190 0.000000 0.000000 
#    y 0.000000 1.796190 0.000000 
#    z 0.000000 0.000000 1.813030 
# 
# From -- ./inp_files/4463.got.cif
#   From: 2010.03.12/outbox.cif.g09.slc.cpg/sg86_3_cif.got.tgz:4463.got - 2010.04.08 20:12:58.
