data_PCOD8303969
_publ_section_title
;
Structure prediction by ZEFSAII (Michael W. Deem and Ramdas Pophale) SiO2 
 PCOD8303969
Probable space group: I 4/M
;
_chemical_formula_sum "Si O2"
_cell_formula_units_Z 88
_cell_length_a 14.452478
_cell_length_b 14.452478
_cell_length_c 21.728903
_cell_angle_alpha 90.000000
_cell_angle_beta 90.000000
_cell_angle_gamma 90.000000
_cell_volume 4538.605500
_symmetry_space_group_name_H-M "I 4/M"
_symmetry_group_IT_number 87
_symmetry_cell_setting 'tetragonal'
loop_
_space_group_symop_operation_xyz
x,y,z
-y,x,z
-x,-y,z
y,-x,z
-x,-y,-z
y,-x,-z
x,y,-z
-y,x,-z
1/2+x,1/2+y,1/2+z
1/2-y,1/2+x,1/2+z
1/2-x,1/2-y,1/2+z
1/2+y,1/2-x,1/2+z
1/2-x,1/2-y,1/2-z
1/2+y,1/2-x,1/2-z
1/2+x,1/2+y,1/2-z
1/2-y,1/2+x,1/2-z
loop_
_atom_site_type_symbol
_atom_site_label
_atom_site_fract_x
_atom_site_fract_y
_atom_site_fract_z
Si Si1 0.761920 0.866398 0.881018
Si Si2 0.876460 0.908260 0.000000
Si Si3 0.490959 0.270541 0.068442
Si Si4 0.129360 0.080908 0.760269
Si Si5 0.334767 0.679101 0.863664
Si Si6 0.935625 0.419538 0.930696
O O1 0.825998 0.866740 0.940805
O O2 0.822109 0.898481 0.824209
O O3 0.728350 0.763073 0.868470
O O4 0.674467 0.936177 0.890223
O O5 0.981076 0.872116 0.000000
O O6 0.596284 0.268527 0.090557
O O7 0.428160 0.330472 0.115072
O O8 0.456087 0.167084 0.066769
O O9 0.484409 0.313587 0.000000
O O10 0.188469 0.125450 0.705184
O O11 0.028968 0.126116 0.755897
O O12 0.000000 0.500000 0.900961
O O13 0.970846 0.396404 0.000000
#
# Coordination Sequence:
#
# PCOD8303969 Si02
#       6
#    16   8  16  16  16  16
#     4  11  23  39  63  91 124 161 209 257 310 370
#     4  11  24  42  63  96 128 159 207 264 312 366
#     4  10  21  35  61  91 123 154 195 251 304 367
#     4  11  23  42  63  86 118 163 207 254 312 369
#     4  11  22  40  60  89 123 158 203 250 307 371
#     4   9  19  38  60  89 126 161 199 246 304 368
#
# _framework density 19.389216000000001
#
# number of rings (size 3 to 8) (size 9 to 14) (size 15 to 20)
#    0.000    1.545    2.727    2.182    2.545    4.727 
#    0.000    0.909    0.000    0.000    0.000    0.000 
#    0.000    0.000    0.000    0.000    0.000    0.000 
#
# Total GULP energy -545638.505164 kJ/mol
# GULP energy per Si atom -12400.875117 kJ/mol
# Density = 1.934509 g / cm^3
# Si number density = 19.389216 Si / 1000 Ang^3
#
#
#
# Elastic Constant Matrix: (Units=GPa)
#
#
# Indices 1 2 3 4 5 6 
#
# 1 -173.5577 282.1481 47.1016 0.0000 0.0000 92.5328
# 2 282.1481 -173.5576 47.1016 0.0000 0.0000 -92.5328
# 3 47.1016 47.1016 140.7011 0.0000 0.0000 0.0000
# 4 0.0000 0.0000 0.0000 33.7368 0.0000 0.0000
# 5 0.0000 0.0000 0.0000 0.0000 33.7368 0.0000
# 6 92.5328 -92.5328 0.0000 0.0000 0.0000 -0.1382
#
#
#
# Elastic Compliance Matrix: (Units=1/GPa)
#
#
# Indices 1 2 3 4 5 6 
#
# 1 0.006493 0.006485 -0.004344 0.000000 0.000000 0.005423
# 2 0.006485 0.006493 -0.004344 0.000000 0.000000 -0.005423
# 3 -0.004344 -0.004344 0.010016 0.000000 0.000000 0.000000
# 4 0.000000 0.000000 0.000000 0.029641 0.000000 0.000000
# 5 0.000000 0.000000 0.000000 0.000000 0.029641 0.000000
# 6 0.005423 -0.005423 0.000000 0.000000 0.000000 0.026709
#
#
# Mechanical properties :
#
#
# Convention : Reuss Voigt Hill
#
# Bulk Modulus (GPa) = 53.78181 60.69871 57.24026
# Shear Modulus (GPa) = 41.80608 -25.38394 8.21107
#
# Velocity S-wave (km/s) = 4.64848 -3.62218 2.06011
# Velocity P-wave (km/s) = 7.52392 3.72555 5.93671
#
# Compressibility (1/GPa) = 0.01859365
#
# Stress axis : x y z
#
# Youngs Moduli (GPa) = 154.01315 154.01314 99.84003
#
# Poissons Ratio (x) = -0.99875 0.43375
# Poissons Ratio (y) = -0.99875 0.43375
# Poissons Ratio (z) = 0.66911 0.66911
#
# Static dielectric constant tensor:
#      x y z
#    x 3.865420 0.000000 0.000000 
#    y 0.000000 3.865420 0.000000 
#    z 0.000000 0.000000 3.681480 
# 
# 
# High freq. dielectric constant tensor:
#      x y z
#    x 1.757560 0.000000 0.000000 
#    y 0.000000 1.757560 0.000000 
#    z 0.000000 0.000000 1.757550 
# 
# From -- ./inp_files/5205.got.cif
#   From: 2010.03.12/outbox.cif.g09.slc.cpg/sg87_3_cif.got.tgz:5205.got - 2010.04.08 20:16:13.
