data_PCOD8303182
_publ_section_title
;
Structure prediction by ZEFSAII (Michael W. Deem and Ramdas Pophale) SiO2 
 PCOD8303182
Probable space group: P 42/M
;
_chemical_formula_sum "Si O2"
_cell_formula_units_Z 64
_cell_length_a 20.135828
_cell_length_b 20.135828
_cell_length_c 8.983436
_cell_angle_alpha 90.000000
_cell_angle_beta 90.000000
_cell_angle_gamma 90.000000
_cell_volume 3642.348223
_symmetry_space_group_name_H-M "P 42/M"
_symmetry_group_IT_number 84
_symmetry_cell_setting 'tetragonal'
loop_
_space_group_symop_operation_xyz
x,y,z
-y,x,1/2+z
-x,-y,z
y,-x,1/2+z
-x,-y,-z
y,-x,1/2-z
x,y,-z
-y,x,1/2-z
loop_
_atom_site_type_symbol
_atom_site_label
_atom_site_fract_x
_atom_site_fract_y
_atom_site_fract_z
Si Si1 0.720042 0.787245 0.672814
Si Si2 0.945860 0.631308 0.824443
Si Si3 0.902507 0.376440 0.826858
Si Si4 0.528819 0.588259 0.171493
Si Si5 0.868232 0.513498 0.324316
Si Si6 0.415902 0.757619 0.335776
Si Si7 0.326852 0.645287 0.671651
Si Si8 0.277911 0.834154 0.336051
O O1 0.730244 0.777362 0.500000
O O2 0.688826 0.858946 0.712125
O O3 0.665848 0.734153 0.726733
O O4 0.793600 0.777271 0.742524
O O5 0.921652 0.563856 0.745742
O O6 0.905680 0.697706 0.769627
O O7 0.022410 0.643011 0.786004
O O8 0.933016 0.621291 0.000000
O O9 0.880379 0.439057 0.730236
O O10 0.895168 0.395651 0.000000
O O11 0.582451 0.530931 0.212768
O O12 0.566835 0.658587 0.193105
O O13 0.506309 0.579261 0.000000
O O14 0.875575 0.515726 0.500000
O O15 0.793426 0.534917 0.279506
O O16 0.449067 0.758998 0.500000
O O17 0.395795 0.683519 0.283774
O O18 0.344909 0.792784 0.341764
O O19 0.309157 0.661908 0.500000
O O20 0.247040 0.843903 0.500000
#
# Coordination Sequence:
#
# PCOD8303182 Si02
#       8
#     8   8   8   8   8   8   8   8
#     4  10  20  32  49  72  95 119 148 186 227 265
#     4   9  18  34  53  68  89 128 168 192 219 273
#     4  10  21  35  48  66  96 131 161 186 223 279
#     4  10  20  34  49  64  81 103 136 182 233 280
#     4  11  21  30  44  70  99 125 159 202 239 266
#     4   8  15  30  48  64  86 121 159 187 221 276
#     4   9  19  34  50  66  87 116 149 186 230 281
#     4   8  15  30  51  69  87 117 154 189 224 263
#
# _framework density 17.571083000000002
#
# number of rings (size 3 to 8) (size 9 to 14) (size 15 to 20)
#    0.000    2.625    0.000    4.125    0.000    9.500 
#    0.000    3.750    0.000    0.000    0.000    0.000 
#    0.000    0.500    0.000    6.250    0.000    0.000 
#
# Total GULP energy -793021.754196 kJ/mol
# GULP energy per Si atom -12390.964909 kJ/mol
# Density = 1.753109 g / cm^3
# Si number density = 17.571083 Si / 1000 Ang^3
#
#
#
# Elastic Constant Matrix: (Units=GPa)
#
#
# Indices 1 2 3 4 5 6 
#
# 1 57.5864 36.1033 27.1633 0.0000 0.0000 3.7304
# 2 36.1033 57.5864 27.1633 0.0000 0.0000 -3.7304
# 3 27.1633 27.1633 67.4108 0.0000 0.0000 0.0000
# 4 0.0000 0.0000 0.0000 16.0975 0.0000 0.0000
# 5 0.0000 0.0000 0.0000 0.0000 16.0975 0.0000
# 6 3.7304 -3.7304 0.0000 0.0000 0.0000 21.5175
#
#
#
# Elastic Compliance Matrix: (Units=1/GPa)
#
#
# Indices 1 2 3 4 5 6 
#
# 1 0.031729 -0.017801 -0.005612 0.000000 0.000000 -0.008587
# 2 -0.017801 0.031729 -0.005612 0.000000 0.000000 0.008587
# 3 -0.005612 -0.005612 0.019357 0.000000 0.000000 0.000000
# 4 0.000000 0.000000 0.000000 0.062122 0.000000 0.000000
# 5 0.000000 0.000000 0.000000 0.000000 0.062122 0.000000
# 6 -0.008587 0.008587 0.000000 0.000000 0.000000 0.049451
#
#
# Mechanical properties :
#
#
# Convention : Reuss Voigt Hill
#
# Bulk Modulus (GPa) = 40.38117 40.38262 40.38190
# Shear Modulus (GPa) = 15.48871 16.88607 16.18739
#
# Velocity S-wave (km/s) = 2.97221 3.10339 3.03851
# Velocity P-wave (km/s) = 5.90002 5.98946 5.94491
#
# Compressibility (1/GPa) = 0.02476402
#
# Stress axis : x y z
#
# Youngs Moduli (GPa) = 31.51688 31.51688 51.65999
#
# Poissons Ratio (x) = 0.56104 0.28993
# Poissons Ratio (y) = 0.56104 0.28993
# Poissons Ratio (z) = 0.17688 0.17688
#
# Static dielectric constant tensor:
#      x y z
#    x 3.427180 0.000000 0.000000 
#    y 0.000000 3.427180 0.000000 
#    z 0.000000 0.000000 3.198940 
# 
# 
# High freq. dielectric constant tensor:
#      x y z
#    x 1.658320 0.000000 0.000000 
#    y 0.000000 1.658320 0.000000 
#    z 0.000000 0.000000 1.675960 
# 
# From -- ./inp_files/1372.got.cif
#   From: 2010.03.12/outbox.cif.g09.slc.cpg/sg84_1_cif.got.tgz:1372.got - 2010.04.08 20:07:29.
