data_PCOD8303244
_publ_section_title
;
Structure prediction by ZEFSAII (Michael W. Deem and Ramdas Pophale) SiO2 
 PCOD8303244
Probable space group: P 42/M
;
_chemical_formula_sum "Si O2"
_cell_formula_units_Z 38
_cell_length_a 12.332210
_cell_length_b 12.332210
_cell_length_c 13.550122
_cell_angle_alpha 90.000000
_cell_angle_beta 90.000000
_cell_angle_gamma 90.000000
_cell_volume 2060.748671
_symmetry_space_group_name_H-M "P 42/M"
_symmetry_group_IT_number 84
_symmetry_cell_setting 'tetragonal'
loop_
_space_group_symop_operation_xyz
x,y,z
-y,x,1/2+z
-x,-y,z
y,-x,1/2+z
-x,-y,-z
y,-x,1/2-z
x,y,-z
-y,x,1/2-z
loop_
_atom_site_type_symbol
_atom_site_label
_atom_site_fract_x
_atom_site_fract_y
_atom_site_fract_z
Si Si1 0.625095 0.488211 0.500000
Si Si2 0.000000 0.000000 0.750000
Si Si3 0.750603 0.204281 0.789517
Si Si4 0.376281 0.046082 0.500000
Si Si5 0.271898 0.715392 0.000000
Si Si6 0.390991 0.611807 0.705857
Si Si7 0.234643 0.013467 0.309605
O O1 0.500000 0.500000 0.500000
O O2 0.672163 0.607415 0.500000
O O3 0.656717 0.423305 0.599499
O O4 0.895859 0.001145 0.676059
O O5 0.663183 0.276848 0.734987
O O6 0.869245 0.249210 0.757735
O O7 0.724586 0.080587 0.762699
O O8 0.743746 0.207370 0.906985
O O9 0.379015 0.178549 0.500000
O O10 0.306973 0.002884 0.407555
O O11 0.500000 0.000000 0.500000
O O12 0.521428 0.632160 0.708427
#
# Coordination Sequence:
#
# PCOD8303244 Si02
#       7
#     4   2   8   4   4   8   8
#     4  12  20  34  55  84 105 144 196 234 278 332
#     4   8  16  38  60  84 108 146 204 246 276 336
#     4  10  20  38  59  84 113 149 189 238 286 345
#     4  10  22  37  53  89 118 153 186 231 303 353
#     4  10  20  38  60  75 115 154 194 228 283 354
#     4  11  21  35  55  81 112 145 190 236 281 331
#     4   9  20  36  59  84 114 148 190 236 292 340
#
# _framework density 18.439900000000002
#
# number of rings (size 3 to 8) (size 9 to 14) (size 15 to 20)
#    0.000    1.895    4.211    0.000    0.000    6.316 
#    0.000    7.368    0.000    1.263    0.000    0.000 
#    0.000    0.000    0.000    0.000    0.000    0.000 
#
# Total GULP energy -470834.922775 kJ/mol
# GULP energy per Si atom -12390.392705 kJ/mol
# Density = 1.839793 g / cm^3
# Si number density = 18.439900 Si / 1000 Ang^3
#
#
#
# Elastic Constant Matrix: (Units=GPa)
#
#
# Indices 1 2 3 4 5 6 
#
# 1 60.5147 8.2046 21.2957 0.0000 0.0000 -1.8491
# 2 8.2046 60.5147 21.2957 0.0000 0.0000 1.8491
# 3 21.2957 21.2957 94.4962 0.0000 0.0000 0.0000
# 4 0.0000 0.0000 0.0000 10.3085 0.0000 0.0000
# 5 0.0000 0.0000 0.0000 0.0000 10.3085 0.0000
# 6 -1.8491 1.8491 0.0000 0.0000 0.0000 26.0573
#
#
#
# Elastic Compliance Matrix: (Units=1/GPa)
#
#
# Indices 1 2 3 4 5 6 
#
# 1 0.018064 -0.001149 -0.003812 0.000000 0.000000 0.001363
# 2 -0.001149 0.018064 -0.003812 0.000000 0.000000 -0.001363
# 3 -0.003812 -0.003812 0.012301 0.000000 0.000000 0.000000
# 4 0.000000 0.000000 0.000000 0.097007 0.000000 0.000000
# 5 0.000000 0.000000 0.000000 0.000000 0.097007 0.000000
# 6 0.001363 -0.001363 0.000000 0.000000 0.000000 0.038571
#
#
# Mechanical properties :
#
#
# Convention : Reuss Voigt Hill
#
# Bulk Modulus (GPa) = 32.38125 35.23531 33.80828
# Shear Modulus (GPa) = 16.18895 20.31685 18.25290
#
# Velocity S-wave (km/s) = 2.96620 3.32292 3.14962
# Velocity P-wave (km/s) = 5.41569 5.81997 5.62147
#
# Compressibility (1/GPa) = 0.03088207
#
# Stress axis : x y z
#
# Youngs Moduli (GPa) = 55.35930 55.35930 81.29738
#
# Poissons Ratio (x) = 0.06363 0.30989
# Poissons Ratio (y) = 0.06363 0.30989
# Poissons Ratio (z) = 0.21102 0.21102
#
# Static dielectric constant tensor:
#      x y z
#    x 3.444310 0.000000 0.000000 
#    y 0.000000 3.444310 0.000000 
#    z 0.000000 0.000000 0.105920 
# 
# 
# High freq. dielectric constant tensor:
#      x y z
#    x 1.714660 0.000000 0.000000 
#    y 0.000000 1.714660 0.000000 
#    z 0.000000 0.000000 1.706550 
# 
# From -- ./inp_files/2981.got.cif
#   From: 2010.03.12/outbox.cif.g09.slc.cpg/sg84_2_cif.got.tgz:2981.got - 2010.04.08 20:07:29.
