data_PCOD8303544
_publ_section_title
;
Structure prediction by ZEFSAII (Michael W. Deem and Ramdas Pophale) SiO2 
 PCOD8303544
Probable space group: P 42/N
;
_chemical_formula_sum "Si O2"
_cell_formula_units_Z 40
_cell_length_a 13.593649
_cell_length_b 13.593649
_cell_length_c 11.663374
_cell_angle_alpha 90.000000
_cell_angle_beta 90.000000
_cell_angle_gamma 90.000000
_cell_volume 2155.243310
_symmetry_space_group_name_H-M "P 42/N"
_symmetry_group_IT_number 86
_space_group.IT_coordinate_system_code '2'
_symmetry_cell_setting 'tetragonal'
loop_
_space_group_symop_operation_xyz
x,y,z
-y,1/2+x,1/2+z
1/2-x,1/2-y,z
1/2+y,-x,1/2+z
-x,-y,-z
y,1/2-x,1/2-z
1/2+x,1/2+y,-z
1/2-y,x,1/2-z
loop_
_atom_site_type_symbol
_atom_site_label
_atom_site_fract_x
_atom_site_fract_y
_atom_site_fract_z
Si Si1 0.899208 0.762787 0.293805
Si Si2 0.093056 0.740805 0.696651
Si Si3 0.965898 0.841147 0.519377
Si Si4 0.356885 0.535069 0.432127
Si Si5 0.407667 0.756435 0.158616
O O1 0.848483 0.657908 0.274032
O O2 0.896472 0.784553 0.429523
O O3 0.010903 0.762876 0.253562
O O4 0.056642 0.707117 0.820457
O O5 0.156534 0.840066 0.708946
O O6 0.158194 0.655795 0.637685
O O7 0.999973 0.763500 0.615671
O O8 0.058355 0.884103 0.448623
O O9 0.904717 0.927649 0.580296
O O10 0.284421 0.539468 0.540425
#
# Coordination Sequence:
#
# PCOD8303544 Si02
#       5
#     8   8   8   8   8
#     4  11  22  40  62  84 118 163 210 246 294 362
#     4  10  22  35  62  91 119 157 198 254 304 359
#     4  10  21  39  60  84 121 161 201 246 307 358
#     4  10  20  39  59  84 124 160 195 250 311 354
#     4  10  21  36  59  89 117 155 202 251 296 361
#
# _framework density 18.559391000000002
#
# number of rings (size 3 to 8) (size 9 to 14) (size 15 to 20)
#    0.000    1.800    4.000    0.000    2.800    1.600 
#    3.600    1.000    0.000    0.000    0.000    0.000 
#    0.000    0.000    0.000    0.000    0.000    0.000 
#
# Total GULP energy -496125.094879 kJ/mol
# GULP energy per Si atom -12403.127372 kJ/mol
# Density = 1.851715 g / cm^3
# Si number density = 18.559391 Si / 1000 Ang^3
#
#
#
# Elastic Constant Matrix: (Units=GPa)
#
#
# Indices 1 2 3 4 5 6 
#
# 1 80.2543 41.7504 43.3891 0.0000 0.0000 -2.4050
# 2 41.7504 80.2543 43.3891 0.0000 0.0000 2.4050
# 3 43.3891 43.3891 114.1018 0.0000 0.0000 0.0000
# 4 0.0000 0.0000 0.0000 30.5658 0.0000 0.0000
# 5 0.0000 0.0000 0.0000 0.0000 30.5658 0.0000
# 6 -2.4050 2.4050 0.0000 0.0000 0.0000 28.2790
#
#
#
# Elastic Compliance Matrix: (Units=1/GPa)
#
#
# Indices 1 2 3 4 5 6 
#
# 1 0.018743 -0.007508 -0.004272 0.000000 0.000000 0.002232
# 2 -0.007508 0.018743 -0.004272 0.000000 0.000000 -0.002232
# 3 -0.004272 -0.004272 0.012013 0.000000 0.000000 0.000000
# 4 0.000000 0.000000 0.000000 0.032716 0.000000 0.000000
# 5 0.000000 0.000000 0.000000 0.000000 0.032716 0.000000
# 6 0.002232 -0.002232 0.000000 0.000000 0.000000 0.035742
#
#
# Mechanical properties :
#
#
# Convention : Reuss Voigt Hill
#
# Bulk Modulus (GPa) = 57.49005 59.07418 58.28211
# Shear Modulus (GPa) = 26.51455 27.62092 27.06773
#
# Velocity S-wave (km/s) = 3.78383 3.86196 3.82309
# Velocity P-wave (km/s) = 7.08049 7.19620 7.13858
#
# Compressibility (1/GPa) = 0.01739432
#
# Stress axis : x y z
#
# Youngs Moduli (GPa) = 53.35396 53.35396 83.24040
#
# Poissons Ratio (x) = 0.40056 0.35564
# Poissons Ratio (y) = 0.40056 0.35564
# Poissons Ratio (z) = 0.22795 0.22795
#
# Static dielectric constant tensor:
#      x y z
#    x 3.419490 0.000000 0.000000 
#    y 0.000000 3.419490 0.000000 
#    z 0.000000 0.000000 3.321210 
# 
# 
# High freq. dielectric constant tensor:
#      x y z
#    x 1.718820 0.000000 0.000000 
#    y 0.000000 1.718820 0.000000 
#    z 0.000000 0.000000 1.715510 
# 
# From -- ./inp_files/1119.got.cif
#   From: 2010.03.12/outbox.cif.g09.slc.cpg/sg86_1_cif.got.tgz:1119.got - 2010.04.08 20:12:58.
