data_PCOD8303909
_publ_section_title
;
Structure prediction by ZEFSAII (Michael W. Deem and Ramdas Pophale) SiO2 
 PCOD8303909
Probable space group: I 4/M
;
_chemical_formula_sum "Si O2"
_cell_formula_units_Z 96
_cell_length_a 15.161981
_cell_length_b 15.161981
_cell_length_c 19.089540
_cell_angle_alpha 90.000000
_cell_angle_beta 90.000000
_cell_angle_gamma 90.000000
_cell_volume 4388.411652
_symmetry_space_group_name_H-M "I 4/M"
_symmetry_group_IT_number 87
_symmetry_cell_setting 'tetragonal'
loop_
_space_group_symop_operation_xyz
x,y,z
-y,x,z
-x,-y,z
y,-x,z
-x,-y,-z
y,-x,-z
x,y,-z
-y,x,-z
1/2+x,1/2+y,1/2+z
1/2-y,1/2+x,1/2+z
1/2-x,1/2-y,1/2+z
1/2+y,1/2-x,1/2+z
1/2-x,1/2-y,1/2-z
1/2+y,1/2-x,1/2-z
1/2+x,1/2+y,1/2-z
1/2-y,1/2+x,1/2-z
loop_
_atom_site_type_symbol
_atom_site_label
_atom_site_fract_x
_atom_site_fract_y
_atom_site_fract_z
Si Si1 0.562836 0.630773 0.579295
Si Si2 0.294975 0.306602 0.831669
Si Si3 0.902813 0.480327 0.343940
Si Si4 0.866848 0.658754 0.420660
Si Si5 0.700633 0.935122 0.420503
Si Si6 0.888538 0.749230 0.791137
O O1 0.459335 0.615791 0.590849
O O2 0.579734 0.665840 0.500000
O O3 0.595902 0.699541 0.636806
O O4 0.298233 0.218605 0.878928
O O5 0.285098 0.393894 0.879521
O O6 0.204037 0.302087 0.788942
O O7 0.380197 0.311725 0.778318
O O8 0.869954 0.560892 0.390453
O O9 0.902368 0.393971 0.392556
O O10 0.828811 0.462828 0.282969
O O11 0.000000 0.500000 0.312124
O O12 0.834111 0.650401 0.500000
O O13 0.960186 0.708093 0.415030
O O14 0.707410 0.902814 0.500000
#
# Coordination Sequence:
#
# PCOD8303909 Si02
#       6
#    16  16  16  16  16  16
#     4   9  20  38  59  86 117 151 193 241 296 356
#     4  10  22  38  54  84 118 157 198 243 304 364
#     4   9  19  37  55  84 116 156 196 248 302 358
#     4  10  20  35  59  89 114 150 205 253 300 362
#     4   9  18  36  59  82 118 157 194 250 305 354
#     4  10  22  38  56  82 119 157 200 242 293 368
#
# _framework density 21.875796999999999
#
# number of rings (size 3 to 8) (size 9 to 14) (size 15 to 20)
#    0.000    2.500    0.000    1.500    2.333    7.333 
#    9.000    0.000    0.000    0.500    0.000    2.333 
#    0.000    0.000    0.000    0.000    0.000    0.000 
#
# Total GULP energy -594812.826605 kJ/mol
# GULP energy per Si atom -12391.933888 kJ/mol
# Density = 2.182601 g / cm^3
# Si number density = 21.875797 Si / 1000 Ang^3
#
#
#
# Elastic Constant Matrix: (Units=GPa)
#
#
# Indices 1 2 3 4 5 6 
#
# 1 70.1977 43.0838 52.5894 0.0000 0.0000 1.8497
# 2 43.0838 70.1977 52.5894 0.0000 0.0000 -1.8497
# 3 52.5894 52.5894 115.1914 0.0000 0.0000 0.0000
# 4 0.0000 0.0000 0.0000 28.9187 0.0000 0.0000
# 5 0.0000 0.0000 0.0000 0.0000 28.9187 0.0000
# 6 1.8497 -1.8497 0.0000 0.0000 0.0000 37.7288
#
#
#
# Elastic Compliance Matrix: (Units=1/GPa)
#
#
# Indices 1 2 3 4 5 6 
#
# 1 0.026226 -0.010904 -0.006995 0.000000 0.000000 -0.001820
# 2 -0.010904 0.026226 -0.006995 0.000000 0.000000 0.001820
# 3 -0.006995 -0.006995 0.015069 0.000000 0.000000 0.000000
# 4 0.000000 0.000000 0.000000 0.034580 0.000000 0.000000
# 5 0.000000 0.000000 0.000000 0.000000 0.034580 0.000000
# 6 -0.001820 0.001820 0.000000 0.000000 0.000000 0.026683
#
#
# Mechanical properties :
#
#
# Convention : Reuss Voigt Hill
#
# Bulk Modulus (GPa) = 56.39448 61.34575 58.87012
# Shear Modulus (GPa) = 22.82449 26.26820 24.54634
#
# Velocity S-wave (km/s) = 3.23362 3.46900 3.35338
# Velocity P-wave (km/s) = 6.30691 6.64446 6.47789
#
# Compressibility (1/GPa) = 0.01773223
#
# Stress axis : x y z
#
# Youngs Moduli (GPa) = 38.12987 38.12987 66.36361
#
# Poissons Ratio (x) = 0.41575 0.46424
# Poissons Ratio (y) = 0.41575 0.46424
# Poissons Ratio (z) = 0.26673 0.26673
#
# Static dielectric constant tensor:
#      x y z
#    x 3.965550 0.000000 0.000000 
#    y 0.000000 3.965550 0.000000 
#    z 0.000000 0.000000 4.144740 
# 
# 
# High freq. dielectric constant tensor:
#      x y z
#    x 1.847420 0.000000 0.000000 
#    y 0.000000 1.847420 0.000000 
#    z 0.000000 0.000000 1.866570 
# 
# From -- ./inp_files/5308.got.cif
#   From: 2010.03.12/outbox.cif.g09.slc.cpg/sg87_3_cif.got.tgz:5308.got - 2010.04.08 20:16:13.
