data_PCOD8303890
_publ_section_title
;
Structure prediction by ZEFSAII (Michael W. Deem and Ramdas Pophale) SiO2 
 PCOD8303890
Probable space group: I 4/M
;
_chemical_formula_sum "Si O2"
_cell_formula_units_Z 96
_cell_length_a 23.619646
_cell_length_b 23.619646
_cell_length_c 8.754592
_cell_angle_alpha 90.000000
_cell_angle_beta 90.000000
_cell_angle_gamma 90.000000
_cell_volume 4884.078995
_symmetry_space_group_name_H-M "I 4/M"
_symmetry_group_IT_number 87
_symmetry_cell_setting 'tetragonal'
loop_
_space_group_symop_operation_xyz
x,y,z
-y,x,z
-x,-y,z
y,-x,z
-x,-y,-z
y,-x,-z
x,y,-z
-y,x,-z
1/2+x,1/2+y,1/2+z
1/2-y,1/2+x,1/2+z
1/2-x,1/2-y,1/2+z
1/2+y,1/2-x,1/2+z
1/2-x,1/2-y,1/2-z
1/2+y,1/2-x,1/2-z
1/2+x,1/2+y,1/2-z
1/2-y,1/2+x,1/2-z
loop_
_atom_site_type_symbol
_atom_site_label
_atom_site_fract_x
_atom_site_fract_y
_atom_site_fract_z
Si Si1 0.520766 0.917510 0.318448
Si Si2 0.681592 0.302209 0.331997
Si Si3 0.312827 0.923332 0.679603
Si Si4 0.589856 0.482396 0.177537
Si Si5 0.684529 0.193088 0.831832
Si Si6 0.926048 0.808059 0.819838
O O1 0.522671 0.923994 0.500000
O O2 0.458521 0.932947 0.258207
O O3 0.533793 0.853698 0.268334
O O4 0.655019 0.294453 0.500000
O O5 0.656561 0.251759 0.227909
O O6 0.748916 0.297749 0.342195
O O7 0.667024 0.364691 0.267012
O O8 0.319012 0.932014 0.500000
O O9 0.329746 0.858817 0.720509
O O10 0.249631 0.938988 0.731284
O O11 0.565294 0.543707 0.219208
O O12 0.645937 0.473330 0.277779
O O13 0.605578 0.478614 0.000000
O O14 0.659593 0.180013 0.000000
O O15 0.925396 0.795054 0.000000
#
# Coordination Sequence:
#
# PCOD8303890 Si02
#       6
#    16  16  16  16  16  16
#     4  11  22  40  63  87 113 144 185 227 270 322
#     4   8  15  27  43  67 101 139 177 216 263 322
#     4  11  21  35  56  82 113 149 185 226 278 328
#     4   9  19  37  59  81 107 142 184 227 273 330
#     4   9  16  27  45  71 102 138 180 222 264 318
#     4  10  20  34  54  82 113 144 182 230 280 330
#
# _framework density 19.655702999999999
#
# number of rings (size 3 to 8) (size 9 to 14) (size 15 to 20)
#    0.000    2.333    0.000    6.000    0.000    5.333 
#    0.000    2.500    0.000    4.000    0.000    0.000 
#    0.000    0.000    0.000    0.000    0.000    0.000 
#
# Total GULP energy -595117.090393 kJ/mol
# GULP energy per Si atom -12398.272717 kJ/mol
# Density = 1.961097 g / cm^3
# Si number density = 19.655703 Si / 1000 Ang^3
#
#
#
# Elastic Constant Matrix: (Units=GPa)
#
#
# Indices 1 2 3 4 5 6 
#
# 1 66.1598 37.1307 33.3757 0.0000 0.0000 1.4272
# 2 37.1307 66.1598 33.3757 0.0000 0.0000 -1.4272
# 3 33.3757 33.3757 118.6472 0.0000 0.0000 0.0000
# 4 0.0000 0.0000 0.0000 29.2104 0.0000 0.0000
# 5 0.0000 0.0000 0.0000 0.0000 29.2104 0.0000
# 6 1.4272 -1.4272 0.0000 0.0000 0.0000 22.2559
#
#
#
# Elastic Compliance Matrix: (Units=1/GPa)
#
#
# Indices 1 2 3 4 5 6 
#
# 1 0.023250 -0.011417 -0.003329 0.000000 0.000000 -0.002223
# 2 -0.011417 0.023250 -0.003329 0.000000 0.000000 0.002223
# 3 -0.003329 -0.003329 0.010301 0.000000 0.000000 0.000000
# 4 0.000000 0.000000 0.000000 0.034234 0.000000 0.000000
# 5 0.000000 0.000000 0.000000 0.000000 0.034234 0.000000
# 6 -0.002223 0.002223 0.000000 0.000000 0.000000 0.045217
#
#
# Mechanical properties :
#
#
# Convention : Reuss Voigt Hill
#
# Bulk Modulus (GPa) = 48.42163 50.97011 49.69587
# Shear Modulus (GPa) = 23.41723 25.94102 24.67912
#
# Velocity S-wave (km/s) = 3.45537 3.63681 3.54725
# Velocity P-wave (km/s) = 6.37243 6.60476 6.48963
#
# Compressibility (1/GPa) = 0.02065193
#
# Stress axis : x y z
#
# Youngs Moduli (GPa) = 43.01148 43.01148 97.07821
#
# Poissons Ratio (x) = 0.49107 0.32312
# Poissons Ratio (y) = 0.49107 0.32312
# Poissons Ratio (z) = 0.14316 0.14316
#
# Static dielectric constant tensor:
#      x y z
#    x 3.448340 0.000000 0.000000 
#    y 0.000000 3.448340 0.000000 
#    z 0.000000 0.000000 3.660230 
# 
# 
# High freq. dielectric constant tensor:
#      x y z
#    x 1.747320 0.000000 0.000000 
#    y 0.000000 1.747320 0.000000 
#    z 0.000000 0.000000 1.773350 
# 
# From -- ./inp_files/1445.got.cif
#   From: 2010.03.12/outbox.cif.g09.slc.cpg/sg87_1_cif.got.tgz:1445.got - 2010.04.08 20:16:13.
