data_PCOD8303026
_publ_section_title
;
Structure prediction by ZEFSAII (Michael W. Deem and Ramdas Pophale) SiO2 
 PCOD8303026
Probable space group: P 4/M
;
_chemical_formula_sum "Si O2"
_cell_formula_units_Z 56
_cell_length_a 11.079155
_cell_length_b 11.079155
_cell_length_c 23.409412
_cell_angle_alpha 90.000000
_cell_angle_beta 90.000000
_cell_angle_gamma 90.000000
_cell_volume 2873.450908
_symmetry_space_group_name_H-M "P 4/M"
_symmetry_group_IT_number 83
_symmetry_cell_setting 'tetragonal'
loop_
_space_group_symop_operation_xyz
x,y,z
-y,x,z
-x,-y,z
y,-x,z
-x,-y,-z
y,-x,-z
x,y,-z
-y,x,-z
loop_
_atom_site_type_symbol
_atom_site_label
_atom_site_fract_x
_atom_site_fract_y
_atom_site_fract_z
Si Si1 0.194709 0.963023 0.776628
Si Si2 0.115535 0.428869 0.156680
Si Si3 0.618949 0.928147 0.562333
Si Si4 0.436166 0.685875 0.065938
Si Si5 0.804414 0.017852 0.646791
Si Si6 0.519933 0.695614 0.239640
Si Si7 0.690962 0.454154 0.628605
O O1 0.305457 0.931833 0.816560
O O2 0.241931 0.965857 0.711391
O O3 0.094302 0.861227 0.788532
O O4 0.200896 0.396413 0.103635
O O5 0.182998 0.516645 0.202312
O O6 0.000000 0.500000 0.133148
O O7 0.681102 0.905411 0.500000
O O8 0.588033 0.801771 0.591196
O O9 0.500000 0.000000 0.550421
O O10 0.695576 0.017542 0.602514
O O11 0.349510 0.573718 0.080443
O O12 0.423160 0.722112 0.000000
O O13 0.891923 0.128984 0.634993
O O14 0.393498 0.629776 0.224420
O O15 0.540164 0.730573 0.305310
O O16 0.643012 0.587384 0.614483
#
# Coordination Sequence:
#
# PCOD8303026 Si02
#       7
#     8   8   8   8   8   8   8
#     4   9  22  41  58  82 122 163 196 233 291 362
#     4  12  25  31  58  97 124 156 201 249 294 344
#     4  11  26  39  56  85 114 145 192 247 293 348
#     4   9  20  42  68  90 122 167 206 250 304 344
#     4   9  21  42  65  83 106 150 197 245 297 346
#     4   9  20  37  57  85 120 152 190 246 304 355
#     4   9  21  40  61  83 113 155 190 231 301 374
#
# _framework density 19.488762999999999
#
# number of rings (size 3 to 8) (size 9 to 14) (size 15 to 20)
#    0.000    2.286    0.000    3.000   10.000    4.857 
#    0.000    1.429    0.000    0.000    0.000    1.000 
#    0.000    0.000    0.000    0.000    0.000    0.000 
#
# Total GULP energy -694225.662778 kJ/mol
# GULP energy per Si atom -12396.886835 kJ/mol
# Density = 1.944441 g / cm^3
# Si number density = 19.488763 Si / 1000 Ang^3
#
#
#
# Elastic Constant Matrix: (Units=GPa)
#
#
# Indices 1 2 3 4 5 6 
#
# 1 80.1023 19.9405 50.0782 0.0000 0.0000 -4.0463
# 2 19.9405 80.1023 50.0782 0.0000 0.0000 4.0463
# 3 50.0782 50.0782 103.2725 0.0000 0.0000 0.0000
# 4 0.0000 0.0000 0.0000 -103.9713 0.0000 0.0000
# 5 0.0000 0.0000 0.0000 0.0000 -103.9713 0.0000
# 6 -4.0463 4.0463 0.0000 0.0000 0.0000 19.7740
#
#
#
# Elastic Compliance Matrix: (Units=1/GPa)
#
#
# Indices 1 2 3 4 5 6 
#
# 1 0.018259 0.001167 -0.009420 0.000000 0.000000 0.003498
# 2 0.001167 0.018259 -0.009420 0.000000 0.000000 -0.003498
# 3 -0.009420 -0.009420 0.018819 0.000000 0.000000 0.000000
# 4 0.000000 0.000000 0.000000 -0.009618 0.000000 0.000000
# 5 0.000000 0.000000 0.000000 0.000000 -0.009618 0.000000
# 6 0.003498 -0.003498 0.000000 0.000000 0.000000 0.052003
#
#
# Mechanical properties :
#
#
# Convention : Reuss Voigt Hill
#
# Bulk Modulus (GPa) = 50.02138 55.96346 52.99242
# Shear Modulus (GPa) = 38.42749 -28.07502 5.17623
#
# Velocity S-wave (km/s) = 4.44529 -3.79961 1.63149
# Velocity P-wave (km/s) = 7.21595 3.08686 5.54971
#
# Compressibility (1/GPa) = 0.01999145
#
# Stress axis : x y z
#
# Youngs Moduli (GPa) = 54.76611 54.76611 53.13751
#
# Poissons Ratio (x) = -0.06392 0.50057
# Poissons Ratio (y) = -0.06392 0.50057
# Poissons Ratio (z) = 0.51591 0.51591
#
# Static dielectric constant tensor:
#      x y z
#    x 3.528320 0.000000 0.000000 
#    y 0.000000 3.528320 0.000000 
#    z 0.000000 0.000000 3.523850 
# 
# 
# High freq. dielectric constant tensor:
#      x y z
#    x 1.757610 0.000000 0.000000 
#    y 0.000000 1.757610 0.000000 
#    z 0.000000 0.000000 1.751090 
# 
# From -- ./inp_files/2981.got.cif
#   From: 2010.03.12/outbox.cif.g09.slc.cpg/sg83_2_cif.got.tgz:2981.got - 2010.04.08 20:05:18.
