data_PCOD8303536
_publ_section_title
;
Structure prediction by ZEFSAII (Michael W. Deem and Ramdas Pophale) SiO2 
 PCOD8303536
Probable space group: P 42/N
;
_chemical_formula_sum "Si O2"
_cell_formula_units_Z 40
_cell_length_a 10.640098
_cell_length_b 10.640098
_cell_length_c 14.444899
_cell_angle_alpha 90.000000
_cell_angle_beta 90.000000
_cell_angle_gamma 90.000000
_cell_volume 1635.331362
_symmetry_space_group_name_H-M "P 42/N"
_symmetry_group_IT_number 86
_space_group.IT_coordinate_system_code '2'
_symmetry_cell_setting 'tetragonal'
loop_
_space_group_symop_operation_xyz
x,y,z
-y,1/2+x,1/2+z
1/2-x,1/2-y,z
1/2+y,-x,1/2+z
-x,-y,-z
y,1/2-x,1/2-z
1/2+x,1/2+y,-z
1/2-y,x,1/2-z
loop_
_atom_site_type_symbol
_atom_site_label
_atom_site_fract_x
_atom_site_fract_y
_atom_site_fract_z
Si Si1 0.875643 0.597713 0.721787
Si Si2 0.627794 0.077540 0.002737
Si Si3 0.243697 0.020428 0.623640
Si Si4 0.613914 0.004644 0.192129
Si Si5 0.168679 0.127062 0.026776
O O1 0.739784 0.575461 0.764287
O O2 0.881703 0.570067 0.611869
O O3 0.968740 0.506605 0.776594
O O4 0.646848 0.108568 0.112841
O O5 0.748256 0.998770 0.970313
O O6 0.601140 0.198649 0.937509
O O7 0.500000 0.000000 0.000000
O O8 0.133688 0.124146 0.643532
O O9 0.294917 0.972431 0.721772
O O10 0.355278 0.091136 0.568290
O O11 0.250000 0.250000 0.048722
#
# Coordination Sequence:
#
# PCOD8303536 Si02
#       5
#     8   8   8   8   8
#     4  11  22  38  65  94 126 176 233 286 334 426
#     4  10  20  37  63  97 134 172 228 295 349 414
#     4  11  24  39  68 100 140 182 231 298 355 427
#     4  11  23  40  64 100 134 177 231 284 360 426
#     4  12  20  38  66  95 128 174 229 286 353 417
#
# _framework density 24.459873000000002
#
# number of rings (size 3 to 8) (size 9 to 14) (size 15 to 20)
#    0.000    1.000    6.000    4.800    0.000    0.800 
#    0.000    4.000    0.000    4.800    0.000    0.000 
#    0.000    0.000    0.000    0.000    0.000    0.000 
#
# Total GULP energy -495832.522047 kJ/mol
# GULP energy per Si atom -12395.813051 kJ/mol
# Density = 2.440420 g / cm^3
# Si number density = 24.459873 Si / 1000 Ang^3
#
#
#
# Elastic Constant Matrix: (Units=GPa)
#
#
# Indices 1 2 3 4 5 6 
#
# 1 57.1640 30.5157 32.7493 0.0000 0.0000 -4.2175
# 2 30.5157 57.1640 32.7493 0.0000 0.0000 4.2175
# 3 32.7493 32.7493 209.8472 0.0000 0.0000 0.0000
# 4 0.0000 0.0000 0.0000 40.5703 0.0000 0.0000
# 5 0.0000 0.0000 0.0000 0.0000 40.5703 0.0000
# 6 -4.2175 4.2175 0.0000 0.0000 0.0000 37.3353
#
#
#
# Elastic Compliance Matrix: (Units=1/GPa)
#
#
# Indices 1 2 3 4 5 6 
#
# 1 0.025914 -0.013004 -0.002015 0.000000 0.000000 0.004396
# 2 -0.013004 0.025914 -0.002015 0.000000 0.000000 -0.004396
# 3 -0.002015 -0.002015 0.005394 0.000000 0.000000 0.000000
# 4 0.000000 0.000000 0.000000 0.024649 0.000000 0.000000
# 5 0.000000 0.000000 0.000000 0.000000 0.024649 0.000000
# 6 0.004396 -0.004396 0.000000 0.000000 0.000000 0.027778
#
#
# Mechanical properties :
#
#
# Convention : Reuss Voigt Hill
#
# Bulk Modulus (GPa) = 43.18623 57.35597 50.27110
# Shear Modulus (GPa) = 28.39593 38.90589 33.65091
#
# Velocity S-wave (km/s) = 3.41092 3.99256 3.71315
# Velocity P-wave (km/s) = 5.76253 6.68984 6.24343
#
# Compressibility (1/GPa) = 0.02315553
#
# Stress axis : x y z
#
# Youngs Moduli (GPa) = 38.58941 38.58941 185.38280
#
# Poissons Ratio (x) = 0.50180 0.37351
# Poissons Ratio (y) = 0.50180 0.37351
# Poissons Ratio (z) = 0.07775 0.07775
#
# Static dielectric constant tensor:
#      x y z
#    x 4.150890 0.000000 0.000000 
#    y 0.000000 4.150890 0.000000 
#    z 0.000000 0.000000 5.154470 
# 
# 
# High freq. dielectric constant tensor:
#      x y z
#    x 1.937380 0.000000 0.000000 
#    y 0.000000 1.937380 0.000000 
#    z 0.000000 0.000000 2.009890 
# 
# From -- ./inp_files/2856.got.cif
#   From: 2010.03.12/outbox.cif.g09.slc.cpg/sg86_2_cif.got.tgz:2856.got - 2010.04.08 20:12:58.
