data_PCOD8303593
_publ_section_title
;
Structure prediction by ZEFSAII (Michael W. Deem and Ramdas Pophale) SiO2 
 PCOD8303593
Probable space group: P 42/N
;
_chemical_formula_sum "Si O2"
_cell_formula_units_Z 32
_cell_length_a 7.576661
_cell_length_b 7.576661
_cell_length_c 23.635733
_cell_angle_alpha 90.000000
_cell_angle_beta 90.000000
_cell_angle_gamma 90.000000
_cell_volume 1356.827970
_symmetry_space_group_name_H-M "P 42/N"
_symmetry_group_IT_number 86
_space_group.IT_coordinate_system_code '2'
_symmetry_cell_setting 'tetragonal'
loop_
_space_group_symop_operation_xyz
x,y,z
-y,1/2+x,1/2+z
1/2-x,1/2-y,z
1/2+y,-x,1/2+z
-x,-y,-z
y,1/2-x,1/2-z
1/2+x,1/2+y,-z
1/2-y,x,1/2-z
loop_
_atom_site_type_symbol
_atom_site_label
_atom_site_fract_x
_atom_site_fract_y
_atom_site_fract_z
Si Si1 0.250000 0.250000 0.444947
Si Si2 0.010703 0.870124 0.252867
Si Si3 0.250000 0.750000 0.661011
Si Si4 0.803464 0.450273 0.020376
Si Si5 0.509206 0.038599 0.125256
O O1 0.412818 0.181704 0.484860
O O2 0.203480 0.087075 0.404308
O O3 0.973715 0.664468 0.263515
O O4 0.147470 0.890154 0.201350
O O5 0.091946 0.945159 0.310826
O O6 0.363027 0.615074 0.622697
O O7 0.750000 0.250000 0.006367
O O8 0.810714 0.490788 0.088346
O O9 0.000000 0.500000 0.000000
#
# Coordination Sequence:
#
# PCOD8303593 Si02
#       5
#     4   8   4   8   8
#     4  10  24  42  69 100 133 184 230 294 350 414
#     4   9  20  40  65  97 135 177 224 283 349 421
#     4  10  22  40  66  98 142 172 234 288 336 432
#     4  10  24  44  66  99 140 173 236 290 351 427
#     4  10  23  42  65  98 133 181 229 285 357 416
#
# _framework density 23.584420000000001
#
# number of rings (size 3 to 8) (size 9 to 14) (size 15 to 20)
#    0.000    2.250    0.000    0.000    8.750   12.000 
#    4.500    0.000    0.000    0.000    0.000    0.000 
#    0.000    0.000    0.000    0.000    0.000    0.000 
#
# Total GULP energy -396546.101928 kJ/mol
# GULP energy per Si atom -12392.065685 kJ/mol
# Density = 2.353074 g / cm^3
# Si number density = 23.584420 Si / 1000 Ang^3
#
#
#
# Elastic Constant Matrix: (Units=GPa)
#
#
# Indices 1 2 3 4 5 6 
#
# 1 100.5524 44.8832 59.2822 0.0000 0.0000 -4.8639
# 2 44.8832 100.5524 59.2822 0.0000 0.0000 4.8639
# 3 59.2822 59.2822 124.3677 0.0000 0.0000 0.0000
# 4 0.0000 0.0000 0.0000 38.7978 0.0000 0.0000
# 5 0.0000 0.0000 0.0000 0.0000 38.7978 0.0000
# 6 -4.8639 4.8639 0.0000 0.0000 0.0000 37.4676
#
#
#
# Elastic Compliance Matrix: (Units=1/GPa)
#
#
# Indices 1 2 3 4 5 6 
#
# 1 0.014813 -0.003567 -0.005361 0.000000 0.000000 0.002386
# 2 -0.003567 0.014813 -0.005361 0.000000 0.000000 -0.002386
# 3 -0.005361 -0.005361 0.013151 0.000000 0.000000 0.000000
# 4 0.000000 0.000000 0.000000 0.025775 0.000000 0.000000
# 5 0.000000 0.000000 0.000000 0.000000 0.025775 0.000000
# 6 0.002386 -0.002386 0.000000 0.000000 0.000000 0.027309
#
#
# Mechanical properties :
#
#
# Convention : Reuss Voigt Hill
#
# Bulk Modulus (GPa) = 70.41886 72.48530 71.45208
# Shear Modulus (GPa) = 32.26921 33.81427 33.04174
#
# Velocity S-wave (km/s) = 3.70299 3.79060 3.74705
# Velocity P-wave (km/s) = 6.94304 7.06819 7.00590
#
# Compressibility (1/GPa) = 0.01420074
#
# Stress axis : x y z
#
# Youngs Moduli (GPa) = 67.50758 67.50758 76.03864
#
# Poissons Ratio (x) = 0.24080 0.40762
# Poissons Ratio (y) = 0.24080 0.40762
# Poissons Ratio (z) = 0.36189 0.36189
#
# Static dielectric constant tensor:
#      x y z
#    x 4.388060 0.000000 0.000000 
#    y 0.000000 4.388060 0.000000 
#    z 0.000000 0.000000 5.002670 
# 
# 
# High freq. dielectric constant tensor:
#      x y z
#    x 1.918860 0.000000 0.000000 
#    y 0.000000 1.918860 0.000000 
#    z 0.000000 0.000000 1.951100 
# 
# From -- ./inp_files/4385.got.cif
#   From: 2010.03.12/outbox.cif.g09.slc.cpg/sg86_3_cif.got.tgz:4385.got - 2010.04.08 20:12:58.
