data_PCOD8303638
_publ_section_title
;
Structure prediction by ZEFSAII (Michael W. Deem and Ramdas Pophale) SiO2 
 PCOD8303638
Probable space group: P 42/N
;
_chemical_formula_sum "Si O2"
_cell_formula_units_Z 40
_cell_length_a 9.286488
_cell_length_b 9.286488
_cell_length_c 20.588490
_cell_angle_alpha 90.000000
_cell_angle_beta 90.000000
_cell_angle_gamma 90.000000
_cell_volume 1775.527894
_symmetry_space_group_name_H-M "P 42/N"
_symmetry_group_IT_number 86
_space_group.IT_coordinate_system_code '2'
_symmetry_cell_setting 'tetragonal'
loop_
_space_group_symop_operation_xyz
x,y,z
-y,1/2+x,1/2+z
1/2-x,1/2-y,z
1/2+y,-x,1/2+z
-x,-y,-z
y,1/2-x,1/2-z
1/2+x,1/2+y,-z
1/2-y,x,1/2-z
loop_
_atom_site_type_symbol
_atom_site_label
_atom_site_fract_x
_atom_site_fract_y
_atom_site_fract_z
Si Si1 0.750000 0.250000 0.883270
Si Si2 0.078835 0.724433 0.893157
Si Si3 0.430603 0.488010 0.671071
Si Si4 0.424740 0.371029 0.223197
Si Si5 0.153138 0.513835 0.528013
Si Si6 0.750000 0.750000 0.385567
O O1 0.631762 0.161891 0.842584
O O2 0.655743 0.354944 0.927899
O O3 0.250000 0.750000 0.881792
O O4 0.023061 0.566660 0.876442
O O5 0.987154 0.834933 0.847695
O O6 0.035923 0.737089 0.968420
O O7 0.478667 0.501134 0.746209
O O8 0.354745 0.334634 0.662844
O O9 0.428501 0.239613 0.276569
O O10 0.181089 0.369567 0.568154
O O11 0.000000 0.500000 0.500000
#
# Coordination Sequence:
#
# PCOD8303638 Si02
#       6
#     4   8   8   8   8   4
#     4  10  24  40  64  94 130 176 214 278 334 394
#     4  11  23  41  67  98 136 180 227 281 341 415
#     4  10  23  45  67  97 137 173 233 278 345 406
#     4   9  21  41  69  97 125 173 230 282 334 406
#     4  11  24  39  63  98 133 171 224 272 343 408
#     4  10  24  40  66  99 133 184 220 286 348 402
#
# _framework density 22.528511999999999
#
# number of rings (size 3 to 8) (size 9 to 14) (size 15 to 20)
#    0.000    1.800    1.000    1.200    7.000    3.200 
#    0.000    0.000    0.000    1.200    0.000    0.000 
#    0.000    0.000    0.000    0.000    0.000    0.000 
#
# Total GULP energy -495581.708411 kJ/mol
# GULP energy per Si atom -12389.542710 kJ/mol
# Density = 2.247724 g / cm^3
# Si number density = 22.528512 Si / 1000 Ang^3
#
#
#
# Elastic Constant Matrix: (Units=GPa)
#
#
# Indices 1 2 3 4 5 6 
#
# 1 103.7729 28.2307 14.6222 0.0000 0.0000 4.0528
# 2 28.2307 103.7729 14.6222 0.0000 0.0000 -4.0528
# 3 14.6222 14.6222 48.5562 0.0000 0.0000 0.0000
# 4 0.0000 0.0000 0.0000 17.8658 0.0000 0.0000
# 5 0.0000 0.0000 0.0000 0.0000 17.8658 0.0000
# 6 4.0528 -4.0528 0.0000 0.0000 0.0000 34.3992
#
#
#
# Elastic Compliance Matrix: (Units=1/GPa)
#
#
# Indices 1 2 3 4 5 6 
#
# 1 0.010762 -0.002645 -0.002444 0.000000 0.000000 -0.001580
# 2 -0.002645 0.010762 -0.002444 0.000000 0.000000 0.001580
# 3 -0.002444 -0.002444 0.022067 0.000000 0.000000 0.000000
# 4 0.000000 0.000000 0.000000 0.055973 0.000000 0.000000
# 5 0.000000 0.000000 0.000000 0.000000 0.055973 0.000000
# 6 -0.001580 0.001580 0.000000 0.000000 0.000000 0.029443
#
#
# Mechanical properties :
#
#
# Convention : Reuss Voigt Hill
#
# Bulk Modulus (GPa) = 35.05874 41.22802 38.14338
# Shear Modulus (GPa) = 23.86011 27.26796 25.56404
#
# Velocity S-wave (km/s) = 3.25792 3.48282 3.37225
# Velocity P-wave (km/s) = 5.45416 5.87482 5.66839
#
# Compressibility (1/GPa) = 0.02852356
#
# Stress axis : x y z
#
# Youngs Moduli (GPa) = 92.91865 92.91865 45.31680
#
# Poissons Ratio (x) = 0.24577 0.11077
# Poissons Ratio (y) = 0.24577 0.11077
# Poissons Ratio (z) = 0.22713 0.22713
#
# Static dielectric constant tensor:
#      x y z
#    x 4.119490 0.000000 0.000000 
#    y 0.000000 4.119490 0.000000 
#    z 0.000000 0.000000 4.292290 
# 
# 
# High freq. dielectric constant tensor:
#      x y z
#    x 1.898630 0.000000 0.000000 
#    y 0.000000 1.898630 0.000000 
#    z 0.000000 0.000000 1.884880 
# 
# From -- ./inp_files/4533.got.cif
#   From: 2010.03.12/outbox.cif.g09.slc.cpg/sg86_3_cif.got.tgz:4533.got - 2010.04.08 20:12:58.
