data_PCOD8303728
_publ_section_title
;
Structure prediction by ZEFSAII (Michael W. Deem and Ramdas Pophale) SiO2 
 PCOD8303728
Probable space group: I 4/M
;
_chemical_formula_sum "Si O2"
_cell_formula_units_Z 96
_cell_length_a 15.282479
_cell_length_b 15.282479
_cell_length_c 22.034400
_cell_angle_alpha 90.000000
_cell_angle_beta 90.000000
_cell_angle_gamma 90.000000
_cell_volume 5146.225880
_symmetry_space_group_name_H-M "I 4/M"
_symmetry_group_IT_number 87
_symmetry_cell_setting 'tetragonal'
loop_
_space_group_symop_operation_xyz
x,y,z
-y,x,z
-x,-y,z
y,-x,z
-x,-y,-z
y,-x,-z
x,y,-z
-y,x,-z
1/2+x,1/2+y,1/2+z
1/2-y,1/2+x,1/2+z
1/2-x,1/2-y,1/2+z
1/2+y,1/2-x,1/2+z
1/2-x,1/2-y,1/2-z
1/2+y,1/2-x,1/2-z
1/2+x,1/2+y,1/2-z
1/2-y,1/2+x,1/2-z
loop_
_atom_site_type_symbol
_atom_site_label
_atom_site_fract_x
_atom_site_fract_y
_atom_site_fract_z
Si Si1 0.869127 0.386293 0.809454
Si Si2 0.371879 0.557856 0.273450
Si Si3 0.684246 0.385158 0.141313
Si Si4 0.690741 0.048894 0.182721
Si Si5 0.278799 0.449408 0.067659
Si Si6 0.912615 0.538004 0.897528
O O1 0.782765 0.351794 0.845018
O O2 0.854049 0.404500 0.739416
O O3 0.901901 0.476971 0.838486
O O4 0.943153 0.311677 0.812490
O O5 0.386072 0.456123 0.288734
O O6 0.352120 0.572159 0.202652
O O7 0.290991 0.583026 0.317361
O O8 0.627542 0.304312 0.115185
O O9 0.679326 0.460354 0.090508
O O10 0.639224 0.076003 0.122239
O O11 0.174064 0.462692 0.062026
O O12 0.313738 0.428619 0.000000
O O13 0.000000 0.500000 0.932008
#
# Coordination Sequence:
#
# PCOD8303728 Si02
#       6
#    16  16  16  16  16  16
#     4   9  17  28  48  74 104 128 161 198 242 299
#     4  10  20  33  47  68 104 136 163 200 244 291
#     4  10  20  34  48  71  98 132 174 212 243 283
#     4  10  17  29  50  74  99 133 160 195 247 305
#     4  11  22  36  52  70  96 135 178 214 248 285
#     4   9  19  33  51  76 101 125 161 211 251 298
#
# _framework density 18.654447000000001
#
# number of rings (size 3 to 8) (size 9 to 14) (size 15 to 20)
#    0.000    2.167    3.333    0.500    0.000    2.000 
#    0.000    4.167    0.000    0.000    0.000    0.000 
#    0.000    0.000    0.000    3.500    0.000    0.000 
#
# Total GULP energy -594825.209913 kJ/mol
# GULP energy per Si atom -12392.191873 kJ/mol
# Density = 1.861199 g / cm^3
# Si number density = 18.654447 Si / 1000 Ang^3
#
#
#
# Elastic Constant Matrix: (Units=GPa)
#
#
# Indices 1 2 3 4 5 6 
#
# 1 65.9501 18.7934 10.4098 0.0000 0.0000 -1.8296
# 2 18.7934 65.9501 10.4098 0.0000 0.0000 1.8296
# 3 10.4098 10.4098 42.2649 0.0000 0.0000 0.0000
# 4 0.0000 0.0000 0.0000 11.5785 0.0000 0.0000
# 5 0.0000 0.0000 0.0000 0.0000 11.5785 0.0000
# 6 -1.8296 1.8296 0.0000 0.0000 0.0000 19.4211
#
#
#
# Elastic Compliance Matrix: (Units=1/GPa)
#
#
# Indices 1 2 3 4 5 6 
#
# 1 0.016961 -0.004401 -0.003094 0.000000 0.000000 0.002012
# 2 -0.004401 0.016961 -0.003094 0.000000 0.000000 -0.002012
# 3 -0.003094 -0.003094 0.025184 0.000000 0.000000 0.000000
# 4 0.000000 0.000000 0.000000 0.086367 0.000000 0.000000
# 5 0.000000 0.000000 0.000000 0.000000 0.086367 0.000000
# 6 0.002012 -0.002012 0.000000 0.000000 0.000000 0.051869
#
#
# Mechanical properties :
#
#
# Convention : Reuss Voigt Hill
#
# Bulk Modulus (GPa) = 26.36402 28.15456 27.25929
# Shear Modulus (GPa) = 15.74659 17.48579 16.61619
#
# Velocity S-wave (km/s) = 2.90853 3.06494 2.98776
# Velocity P-wave (km/s) = 5.04409 5.25838 5.15235
#
# Compressibility (1/GPa) = 0.03793049
#
# Stress axis : x y z
#
# Youngs Moduli (GPa) = 58.95811 58.95811 39.70747
#
# Poissons Ratio (x) = 0.25947 0.12284
# Poissons Ratio (y) = 0.25947 0.12284
# Poissons Ratio (z) = 0.18239 0.18239
#
# Static dielectric constant tensor:
#      x y z
#    x 3.500020 0.000000 0.000000 
#    y 0.000000 3.500020 0.000000 
#    z 0.000000 0.000000 2.931790 
# 
# 
# High freq. dielectric constant tensor:
#      x y z
#    x 1.724660 0.000000 0.000000 
#    y 0.000000 1.724660 0.000000 
#    z 0.000000 0.000000 1.679810 
# 
# From -- ./inp_files/5319.got.cif
#   From: 2010.03.12/outbox.cif.g09.slc.cpg/sg87_3_cif.got.tgz:5319.got - 2010.04.08 20:16:13.
