data_PCOD8303607
_publ_section_title
;
Structure prediction by ZEFSAII (Michael W. Deem and Ramdas Pophale) SiO2 
 PCOD8303607
Probable space group: P 42/N
;
_chemical_formula_sum "Si O2"
_cell_formula_units_Z 60
_cell_length_a 16.810782
_cell_length_b 16.810782
_cell_length_c 9.845424
_cell_angle_alpha 90.000000
_cell_angle_beta 90.000000
_cell_angle_gamma 90.000000
_cell_volume 2782.340367
_symmetry_space_group_name_H-M "P 42/N"
_symmetry_group_IT_number 86
_space_group.IT_coordinate_system_code '2'
_symmetry_cell_setting 'tetragonal'
loop_
_space_group_symop_operation_xyz
x,y,z
-y,1/2+x,1/2+z
1/2-x,1/2-y,z
1/2+y,-x,1/2+z
-x,-y,-z
y,1/2-x,1/2-z
1/2+x,1/2+y,-z
1/2-y,x,1/2-z
loop_
_atom_site_type_symbol
_atom_site_label
_atom_site_fract_x
_atom_site_fract_y
_atom_site_fract_z
Si Si1 0.589610 0.206101 0.379416
Si Si2 0.234846 0.508543 0.377721
Si Si3 0.948777 0.987476 0.280948
Si Si4 0.038764 0.857787 0.141282
Si Si5 0.250000 0.750000 0.716967
Si Si6 0.806565 0.641600 0.759327
Si Si7 0.446172 0.096947 0.074320
Si Si8 0.209251 0.922253 0.815845
O O1 0.550937 0.265679 0.269448
O O2 0.584975 0.114314 0.331429
O O3 0.682562 0.224768 0.387365
O O4 0.551795 0.218858 0.527247
O O5 0.176745 0.548797 0.487985
O O6 0.195098 0.423062 0.359119
O O7 0.327179 0.505874 0.423243
O O8 0.933219 0.943157 0.422059
O O9 0.964126 0.917331 0.168846
O O10 0.877078 0.046378 0.236870
O O11 0.030039 0.035255 0.311584
O O12 0.033507 0.780790 0.238186
O O13 0.219494 0.826146 0.804987
O O14 0.718216 0.656793 0.816321
O O15 0.856965 0.622865 0.892585
#
# Coordination Sequence:
#
# PCOD8303607 Si02
#       8
#     8   8   8   8   4   8   8   8
#     4  11  24  40  67 100 137 189 231 285 356 415
#     4  11  22  43  67  98 139 179 227 303 346 412
#     4  11  24  42  67 101 141 184 238 288 354 436
#     4  11  25  44  64 100 142 177 237 285 349 424
#     4  10  24  44  66 104 142 186 230 294 350 428
#     4   9  21  40  66  98 128 172 232 283 345 422
#     4  10  22  42  68  96 135 188 223 289 367 416
#     4  11  25  44  70 101 141 184 236 290 351 428
#
# _framework density 21.564578999999998
#
# number of rings (size 3 to 8) (size 9 to 14) (size 15 to 20)
#    0.000    1.467    2.667    1.200    5.600    6.933 
#    0.000    0.000    0.000    0.400    0.000    0.000 
#    0.000    0.000    0.000    0.000    0.000    0.000 
#
# Total GULP energy -743399.102985 kJ/mol
# GULP energy per Si atom -12389.985050 kJ/mol
# Density = 2.151550 g / cm^3
# Si number density = 21.564579 Si / 1000 Ang^3
#
#
#
# Elastic Constant Matrix: (Units=GPa)
#
#
# Indices 1 2 3 4 5 6 
#
# 1 100.1477 51.5630 44.5941 0.0000 0.0000 1.2040
# 2 51.5630 100.1477 44.5941 0.0000 0.0000 -1.2040
# 3 44.5941 44.5941 125.8841 0.0000 0.0000 0.0000
# 4 0.0000 0.0000 0.0000 27.4309 0.0000 0.0000
# 5 0.0000 0.0000 0.0000 0.0000 27.4309 0.0000
# 6 1.2040 -1.2040 0.0000 0.0000 0.0000 35.6148
#
#
#
# Elastic Compliance Matrix: (Units=1/GPa)
#
#
# Indices 1 2 3 4 5 6 
#
# 1 0.014471 -0.006146 -0.002949 0.000000 0.000000 -0.000697
# 2 -0.006146 0.014471 -0.002949 0.000000 0.000000 0.000697
# 3 -0.002949 -0.002949 0.010033 0.000000 0.000000 0.000000
# 4 0.000000 0.000000 0.000000 0.036455 0.000000 0.000000
# 5 0.000000 0.000000 0.000000 0.000000 0.036455 0.000000
# 6 -0.000697 0.000697 0.000000 0.000000 0.000000 0.028125
#
#
# Mechanical properties :
#
#
# Convention : Reuss Voigt Hill
#
# Bulk Modulus (GPa) = 67.17248 67.52019 67.34633
# Shear Modulus (GPa) = 29.57486 30.45723 30.01604
#
# Velocity S-wave (km/s) = 3.70733 3.76223 3.73488
# Velocity P-wave (km/s) = 7.03867 7.08881 7.06378
#
# Compressibility (1/GPa) = 0.01488705
#
# Stress axis : x y z
#
# Youngs Moduli (GPa) = 69.10273 69.10273 99.66807
#
# Poissons Ratio (x) = 0.42470 0.29394
# Poissons Ratio (y) = 0.42470 0.29394
# Poissons Ratio (z) = 0.20380 0.20380
#
# Static dielectric constant tensor:
#      x y z
#    x 4.026140 0.000000 0.000000 
#    y 0.000000 4.026140 0.000000 
#    z 0.000000 0.000000 3.624240 
# 
# 
# High freq. dielectric constant tensor:
#      x y z
#    x 1.851210 0.000000 0.000000 
#    y 0.000000 1.851210 0.000000 
#    z 0.000000 0.000000 1.832670 
# 
# From -- ./inp_files/1469.got.cif
#   From: 2010.03.12/outbox.cif.g09.slc.cpg/sg86_1_cif.got.tgz:1469.got - 2010.04.08 20:12:58.
