data_PCOD8303959
_publ_section_title
;
Structure prediction by ZEFSAII (Michael W. Deem and Ramdas Pophale) SiO2 
 PCOD8303959
Probable space group: I 4/M
;
_chemical_formula_sum "Si O2"
_cell_formula_units_Z 88
_cell_length_a 15.118577
_cell_length_b 15.118577
_cell_length_c 21.300385
_cell_angle_alpha 90.000000
_cell_angle_beta 90.000000
_cell_angle_gamma 90.000000
_cell_volume 4868.658192
_symmetry_space_group_name_H-M "I 4/M"
_symmetry_group_IT_number 87
_symmetry_cell_setting 'tetragonal'
loop_
_space_group_symop_operation_xyz
x,y,z
-y,x,z
-x,-y,z
y,-x,z
-x,-y,-z
y,-x,-z
x,y,-z
-y,x,-z
1/2+x,1/2+y,1/2+z
1/2-y,1/2+x,1/2+z
1/2-x,1/2-y,1/2+z
1/2+y,1/2-x,1/2+z
1/2-x,1/2-y,1/2-z
1/2+y,1/2-x,1/2-z
1/2+x,1/2+y,1/2-z
1/2-y,1/2+x,1/2-z
loop_
_atom_site_type_symbol
_atom_site_label
_atom_site_fract_x
_atom_site_fract_y
_atom_site_fract_z
Si Si1 0.766533 0.485331 0.500000
Si Si2 0.700033 0.682688 0.500000
Si Si3 0.176605 0.605689 0.817194
Si Si4 0.344148 0.094727 0.691109
Si Si5 0.386543 0.407988 0.000000
Si Si6 0.595988 0.994113 0.106778
Si Si7 0.714192 0.697078 0.103357
O O1 0.715051 0.577758 0.500000
O O2 0.696614 0.405580 0.500000
O O3 0.827720 0.474160 0.560711
O O4 0.743927 0.724834 0.561751
O O5 0.146567 0.661387 0.756527
O O6 0.194502 0.503719 0.799457
O O7 0.105590 0.614716 0.872671
O O8 0.265839 0.648609 0.843537
O O9 0.446077 0.090827 0.669379
O O10 0.291725 0.144373 0.636919
O O11 0.487151 0.376371 0.000000
O O12 0.339682 0.371934 0.938186
O O13 0.500000 0.000000 0.072597
#
# Coordination Sequence:
#
# PCOD8303959 Si02
#       7
#     8   8  16  16   8  16  16
#     4  12  21  43  54  84 114 150 192 247 287 342
#     4  11  24  36  60  76 112 143 198 240 284 339
#     4  11  21  36  58  86 118 150 186 228 285 346
#     4  11  21  36  58  86 118 150 186 228 285 346
#     4  10  22  41  60  81 118 156 194 238 280 340
#     4  10  21  34  59  87 118 151 182 231 297 345
#     4  11  22  38  56  89 109 152 189 239 280 335
#
# _framework density 18.074795999999999
#
# number of rings (size 3 to 8) (size 9 to 14) (size 15 to 20)
#    0.000    1.182    5.455    1.909    0.000    0.182 
#    0.000    0.000    0.000    0.000    0.000    0.000 
#    0.000    0.000    0.000    0.000    0.000    0.000 
#
# Total GULP energy -545768.967471 kJ/mol
# GULP energy per Si atom -12403.840170 kJ/mol
# Density = 1.803366 g / cm^3
# Si number density = 18.074796 Si / 1000 Ang^3
#
#
#
# Elastic Constant Matrix: (Units=GPa)
#
#
# Indices 1 2 3 4 5 6 
#
# 1 78.3622 33.9498 31.7956 0.0000 0.0000 0.1515
# 2 33.9498 78.3622 31.7956 0.0000 0.0000 -0.1515
# 3 31.7956 31.7956 88.6711 0.0000 0.0000 0.0000
# 4 0.0000 0.0000 0.0000 21.0883 0.0000 0.0000
# 5 0.0000 0.0000 0.0000 0.0000 21.0883 0.0000
# 6 0.1515 -0.1515 0.0000 0.0000 0.0000 28.9696
#
#
#
# Elastic Compliance Matrix: (Units=1/GPa)
#
#
# Indices 1 2 3 4 5 6 
#
# 1 0.016845 -0.005673 -0.004006 0.000000 0.000000 -0.000118
# 2 -0.005673 0.016845 -0.004006 0.000000 0.000000 0.000118
# 3 -0.004006 -0.004006 0.014151 0.000000 0.000000 0.000000
# 4 0.000000 0.000000 0.000000 0.047420 0.000000 0.000000
# 5 0.000000 0.000000 0.000000 0.000000 0.047420 0.000000
# 6 -0.000118 0.000118 0.000000 0.000000 0.000000 0.034520
#
#
# Mechanical properties :
#
#
# Convention : Reuss Voigt Hill
#
# Bulk Modulus (GPa) = 48.85101 48.94197 48.89649
# Shear Modulus (GPa) = 23.65276 24.08621 23.86949
#
# Velocity S-wave (km/s) = 3.62139 3.65442 3.63794
# Velocity P-wave (km/s) = 6.67621 6.70393 6.69008
#
# Compressibility (1/GPa) = 0.02047040
#
# Stress axis : x y z
#
# Youngs Moduli (GPa) = 59.36652 59.36652 70.66835
#
# Poissons Ratio (x) = 0.33676 0.28310
# Poissons Ratio (y) = 0.33676 0.28310
# Poissons Ratio (z) = 0.23783 0.23783
#
# Static dielectric constant tensor:
#      x y z
#    x 3.256110 0.000000 0.000000 
#    y 0.000000 3.256110 0.000000 
#    z 0.000000 0.000000 3.241950 
# 
# 
# High freq. dielectric constant tensor:
#      x y z
#    x 1.698580 0.000000 0.000000 
#    y 0.000000 1.698580 0.000000 
#    z 0.000000 0.000000 1.705060 
# 
# From -- ./inp_files/5222.got.cif
#   From: 2010.03.12/outbox.cif.g09.slc.cpg/sg87_3_cif.got.tgz:5222.got - 2010.04.08 20:16:13.
