data_PCOD8303270
_publ_section_title
;
Structure prediction by ZEFSAII (Michael W. Deem and Ramdas Pophale) SiO2 
 PCOD8303270
Probable space group: P 42/M
;
_chemical_formula_sum "Si O2"
_cell_formula_units_Z 48
_cell_length_a 9.281639
_cell_length_b 9.281639
_cell_length_c 27.395590
_cell_angle_alpha 90.000000
_cell_angle_beta 90.000000
_cell_angle_gamma 90.000000
_cell_volume 2360.097821
_symmetry_space_group_name_H-M "P 42/M"
_symmetry_group_IT_number 84
_symmetry_cell_setting 'tetragonal'
loop_
_space_group_symop_operation_xyz
x,y,z
-y,x,1/2+z
-x,-y,z
y,-x,1/2+z
-x,-y,-z
y,-x,1/2-z
x,y,-z
-y,x,1/2-z
loop_
_atom_site_type_symbol
_atom_site_label
_atom_site_fract_x
_atom_site_fract_y
_atom_site_fract_z
Si Si1 0.649686 0.420376 0.391301
Si Si2 0.519949 0.161955 0.555349
Si Si3 0.058971 0.154079 0.634231
Si Si4 0.778475 0.673691 0.445580
Si Si5 0.196129 0.100079 0.268673
Si Si6 0.877272 0.381490 0.685981
O O1 0.500000 0.500000 0.383491
O O2 0.628972 0.257512 0.411728
O O3 0.748570 0.509734 0.429116
O O4 0.727920 0.426047 0.338954
O O5 0.581347 0.154339 0.500000
O O6 0.366683 0.236480 0.555642
O O7 0.500000 0.000000 0.576664
O O8 0.106306 0.247185 0.588200
O O9 0.190029 0.136806 0.673645
O O10 0.928306 0.234337 0.660522
O O11 0.000000 0.000000 0.616292
O O12 0.842880 0.668103 0.500000
O O13 0.346751 0.150857 0.243598
O O14 0.070246 0.181746 0.239252
O O15 0.000000 0.500000 0.679271
#
# Coordination Sequence:
#
# PCOD8303270 Si02
#       6
#     8   8   8   8   8   8
#     4  10  21  39  60  84 123 167 204 251 314 371
#     4   9  19  35  58  84 116 159 214 261 299 360
#     4  11  21  38  64  88 124 161 205 254 310 376
#     4  10  21  38  59  87 127 170 208 253 312 371
#     4   9  17  36  61  85 111 154 198 239 309 371
#     4  11  21  38  64  93 121 156 206 254 306 370
#
# _framework density 20.338142000000001
#
# number of rings (size 3 to 8) (size 9 to 14) (size 15 to 20)
#    0.000    2.000    5.000    0.500    2.333    2.333 
#    0.000   10.000    0.000    0.000    0.000    0.000 
#    0.000    0.000    0.000    0.000    0.000    0.000 
#
# Total GULP energy -594979.566575 kJ/mol
# GULP energy per Si atom -12395.407637 kJ/mol
# Density = 2.029185 g / cm^3
# Si number density = 20.338142 Si / 1000 Ang^3
#
#
#
# Elastic Constant Matrix: (Units=GPa)
#
#
# Indices 1 2 3 4 5 6 
#
# 1 92.7920 29.0979 46.1011 0.0000 0.0000 -3.1385
# 2 29.0979 92.7920 46.1011 0.0000 0.0000 3.1385
# 3 46.1011 46.1011 118.3852 0.0000 0.0000 0.0000
# 4 0.0000 0.0000 0.0000 20.9344 0.0000 0.0000
# 5 0.0000 0.0000 0.0000 0.0000 20.9344 0.0000
# 6 -3.1385 3.1385 0.0000 0.0000 0.0000 19.3519
#
#
#
# Elastic Compliance Matrix: (Units=1/GPa)
#
#
# Indices 1 2 3 4 5 6 
#
# 1 0.013792 -0.002163 -0.004529 0.000000 0.000000 0.002588
# 2 -0.002163 0.013792 -0.004529 0.000000 0.000000 -0.002588
# 3 -0.004529 -0.004529 0.011974 0.000000 0.000000 0.000000
# 4 0.000000 0.000000 0.000000 0.047768 0.000000 0.000000
# 5 0.000000 0.000000 0.000000 0.000000 0.047768 0.000000
# 6 0.002588 -0.002588 0.000000 0.000000 0.000000 0.052514
#
#
# Mechanical properties :
#
#
# Convention : Reuss Voigt Hill
#
# Bulk Modulus (GPa) = 58.41603 60.72993 59.57298
# Shear Modulus (GPa) = 23.17430 24.42211 23.79820
#
# Velocity S-wave (km/s) = 3.37924 3.46902 3.42442
# Velocity P-wave (km/s) = 6.63403 6.78015 6.70749
#
# Compressibility (1/GPa) = 0.01711859
#
# Stress axis : x y z
#
# Youngs Moduli (GPa) = 72.50323 72.50323 83.51265
#
# Poissons Ratio (x) = 0.15679 0.37822
# Poissons Ratio (y) = 0.15679 0.37822
# Poissons Ratio (z) = 0.32836 0.32836
#
# Static dielectric constant tensor:
#      x y z
#    x 3.689910 0.000000 0.000000 
#    y 0.000000 3.689910 0.000000 
#    z 0.000000 0.000000 4.072320 
# 
# 
# High freq. dielectric constant tensor:
#      x y z
#    x 1.783710 0.000000 0.000000 
#    y 0.000000 1.783710 0.000000 
#    z 0.000000 0.000000 1.788040 
# 
# From -- ./inp_files/5776.got.cif
#   From: 2010.03.12/outbox.cif.g09.slc.cpg/sg84_3_cif.got.tgz:5776.got - 2010.04.08 20:07:29.
