data_PCOD8303700
_publ_section_title
;
Structure prediction by ZEFSAII (Michael W. Deem and Ramdas Pophale) SiO2 
 PCOD8303700
Probable space group: P 42/N
;
_chemical_formula_sum "Si O2"
_cell_formula_units_Z 38
_cell_length_a 9.008418
_cell_length_b 9.008418
_cell_length_c 21.650986
_cell_angle_alpha 90.000000
_cell_angle_beta 90.000000
_cell_angle_gamma 90.000000
_cell_volume 1757.012044
_symmetry_space_group_name_H-M "P 42/N"
_symmetry_group_IT_number 86
_space_group.IT_coordinate_system_code '2'
_symmetry_cell_setting 'tetragonal'
loop_
_space_group_symop_operation_xyz
x,y,z
-y,1/2+x,1/2+z
1/2-x,1/2-y,z
1/2+y,-x,1/2+z
-x,-y,-z
y,1/2-x,1/2-z
1/2+x,1/2+y,-z
1/2-y,x,1/2-z
loop_
_atom_site_type_symbol
_atom_site_label
_atom_site_fract_x
_atom_site_fract_y
_atom_site_fract_z
Si Si1 0.527891 0.262380 0.323985
Si Si2 0.250000 0.750000 0.069293
Si Si3 0.750000 0.250000 0.625560
Si Si4 0.250000 0.250000 0.401529
Si Si5 0.250000 0.250000 0.750000
Si Si6 0.087369 0.538375 0.782439
Si Si7 0.532050 0.340441 0.028292
O O1 0.610869 0.275725 0.388086
O O2 0.371013 0.217283 0.349730
O O3 0.521154 0.419414 0.288467
O O4 0.598634 0.132633 0.281386
O O5 0.397143 0.751889 0.027501
O O6 0.649796 0.364194 0.664010
O O7 0.640718 0.150370 0.583747
O O8 0.252809 0.390633 0.447420
O O9 0.198165 0.397057 0.786999
O O10 0.500000 0.500000 0.000000
#
# Coordination Sequence:
#
# PCOD8303700 Si02
#       7
#     8   4   4   4   2   8   8
#     4  12  25  45  73 103 142 183 242 289 356 430
#     4  11  25  44  70  98 141 183 230 308 346 419
#     4  11  25  46  72 102 149 189 238 304 356 431
#     4  12  24  45  75 102 132 196 234 290 366 422
#     4  12  28  40  70 104 148 190 224 284 376 430
#     4  12  26  46  70 108 146 189 236 298 366 437
#     4  11  25  45  70 102 141 183 245 295 351 422
#
# _framework density 21.627627
#
# number of rings (size 3 to 8) (size 9 to 14) (size 15 to 20)
#    0.000    0.421    4.211    4.421    2.947    4.211 
#    0.000    1.053    0.000    0.000    0.000    0.000 
#    0.000    0.000    0.000    0.000    0.000    0.000 
#
# Total GULP energy -470862.098083 kJ/mol
# GULP energy per Si atom -12391.107844 kJ/mol
# Density = 2.157840 g / cm^3
# Si number density = 21.627627 Si / 1000 Ang^3
#
#
#
# Elastic Constant Matrix: (Units=GPa)
#
#
# Indices 1 2 3 4 5 6 
#
# 1 106.5496 47.3301 55.7337 0.0000 0.0000 9.0440
# 2 47.3301 106.5496 55.7337 0.0000 0.0000 -9.0440
# 3 55.7337 55.7337 138.0399 0.0000 0.0000 0.0000
# 4 0.0000 0.0000 0.0000 41.6665 0.0000 0.0000
# 5 0.0000 0.0000 0.0000 0.0000 41.6665 0.0000
# 6 9.0440 -9.0440 0.0000 0.0000 0.0000 41.1837
#
#
#
# Elastic Compliance Matrix: (Units=1/GPa)
#
#
# Indices 1 2 3 4 5 6 
#
# 1 0.013643 -0.004458 -0.003708 0.000000 0.000000 -0.003975
# 2 -0.004458 0.013643 -0.003708 0.000000 0.000000 0.003975
# 3 -0.003708 -0.003708 0.010239 0.000000 0.000000 0.000000
# 4 0.000000 0.000000 0.000000 0.024000 0.000000 0.000000
# 5 0.000000 0.000000 0.000000 0.000000 0.024000 0.000000
# 6 -0.003975 0.003975 0.000000 0.000000 0.000000 0.026027
#
#
# Mechanical properties :
#
#
# Convention : Reuss Voigt Hill
#
# Bulk Modulus (GPa) = 72.59542 74.30379 73.44961
# Shear Modulus (GPa) = 35.74178 37.72612 36.73395
#
# Velocity S-wave (km/s) = 4.06963 4.18107 4.12573
# Velocity P-wave (km/s) = 7.46468 7.59862 7.53195
#
# Compressibility (1/GPa) = 0.01377497
#
# Stress axis : x y z
#
# Youngs Moduli (GPa) = 73.29956 73.29956 97.66750
#
# Poissons Ratio (x) = 0.32675 0.36219
# Poissons Ratio (y) = 0.32675 0.36219
# Poissons Ratio (z) = 0.27182 0.27182
#
# Static dielectric constant tensor:
#      x y z
#    x 4.246350 0.000000 0.000000 
#    y 0.000000 4.246350 0.000000 
#    z 0.000000 0.000000 4.112610 
# 
# 
# High freq. dielectric constant tensor:
#      x y z
#    x 1.859020 0.000000 0.000000 
#    y 0.000000 1.859020 0.000000 
#    z 0.000000 0.000000 1.860400 
# 
# From -- ./inp_files/4564.got.cif
#   From: 2010.03.12/outbox.cif.g09.slc.cpg/sg86_3_cif.got.tgz:4564.got - 2010.04.08 20:12:58.
