data_PCOD8303937
_publ_section_title
;
Structure prediction by ZEFSAII (Michael W. Deem and Ramdas Pophale) SiO2 
 PCOD8303937
Probable space group: I 4/M
;
_chemical_formula_sum "Si O2"
_cell_formula_units_Z 88
_cell_length_a 14.934447
_cell_length_b 14.934447
_cell_length_c 19.596224
_cell_angle_alpha 90.000000
_cell_angle_beta 90.000000
_cell_angle_gamma 90.000000
_cell_volume 4370.696871
_symmetry_space_group_name_H-M "I 4/M"
_symmetry_group_IT_number 87
_symmetry_cell_setting 'tetragonal'
loop_
_space_group_symop_operation_xyz
x,y,z
-y,x,z
-x,-y,z
y,-x,z
-x,-y,-z
y,-x,-z
x,y,-z
-y,x,-z
1/2+x,1/2+y,1/2+z
1/2-y,1/2+x,1/2+z
1/2-x,1/2-y,1/2+z
1/2+y,1/2-x,1/2+z
1/2-x,1/2-y,1/2-z
1/2+y,1/2-x,1/2-z
1/2+x,1/2+y,1/2-z
1/2-y,1/2+x,1/2-z
loop_
_atom_site_type_symbol
_atom_site_label
_atom_site_fract_x
_atom_site_fract_y
_atom_site_fract_z
Si Si1 0.129889 0.214178 0.421614
Si Si2 0.955520 0.361335 0.757784
Si Si3 0.957915 0.144206 0.000000
Si Si4 0.294005 0.440959 0.153182
Si Si5 0.257776 0.115087 0.122315
Si Si6 0.410497 0.610100 0.284166
O O1 0.100482 0.212356 0.500000
O O2 0.196995 0.130972 0.407634
O O3 0.184695 0.304201 0.407367
O O4 0.040592 0.206489 0.376534
O O5 0.887756 0.442989 0.754089
O O6 0.925778 0.293885 0.698481
O O7 0.950025 0.321883 0.834103
O O8 0.941378 0.207636 0.935437
O O9 0.060228 0.110174 0.000000
O O10 0.377896 0.414594 0.202364
O O11 0.182485 0.150589 0.176154
O O12 0.375212 0.513859 0.307203
#
# Coordination Sequence:
#
# PCOD8303937 Si02
#       6
#    16  16   8  16  16  16
#     4  12  25  44  63  93 131 175 217 269 321 398
#     4  10  22  42  69  97 132 169 219 274 325 382
#     4  11  24  44  68 101 143 174 215 264 328 397
#     4  11  23  40  66  93 129 168 217 268 329 378
#     4  11  23  40  67  96 129 177 214 268 321 390
#     4  10  20  37  63  98 130 157 208 266 327 385
#
# _framework density 20.134088999999999
#
# number of rings (size 3 to 8) (size 9 to 14) (size 15 to 20)
#    0.000    1.182    4.545    1.636    0.000    9.091 
#    0.000    0.909    2.000    2.182    0.000    0.000 
#    0.000    0.000    0.000    0.000    0.000    0.000 
#
# Total GULP energy -545298.310140 kJ/mol
# GULP energy per Si atom -12393.143412 kJ/mol
# Density = 2.008826 g / cm^3
# Si number density = 20.134089 Si / 1000 Ang^3
#
#
#
# Elastic Constant Matrix: (Units=GPa)
#
#
# Indices 1 2 3 4 5 6 
#
# 1 70.5982 40.9227 43.5335 0.0000 0.0000 3.1765
# 2 40.9227 70.5982 43.5335 0.0000 0.0000 -3.1764
# 3 43.5335 43.5335 122.0315 0.0000 0.0000 0.0000
# 4 0.0000 0.0000 0.0000 29.9260 0.0000 0.0000
# 5 0.0000 0.0000 0.0000 0.0000 29.9260 0.0000
# 6 3.1765 -3.1764 0.0000 0.0000 0.0000 7.9030
#
#
#
# Elastic Compliance Matrix: (Units=1/GPa)
#
#
# Indices 1 2 3 4 5 6 
#
# 1 0.024649 -0.012221 -0.004434 0.000000 0.000000 -0.014819
# 2 -0.012221 0.024649 -0.004434 0.000000 0.000000 0.014819
# 3 -0.004434 -0.004434 0.011358 0.000000 0.000000 0.000000
# 4 0.000000 0.000000 0.000000 0.033416 0.000000 0.000000
# 5 0.000000 0.000000 0.000000 0.000000 0.033416 0.000000
# 6 -0.014819 0.014819 0.000000 0.000000 0.000000 0.138447
#
#
# Mechanical properties :
#
#
# Convention : Reuss Voigt Hill
#
# Bulk Modulus (GPa) = 54.11266 57.68973 55.90119
# Shear Modulus (GPa) = 15.90977 22.56686 19.23831
#
# Velocity S-wave (km/s) = 2.81408 3.35151 3.09449
# Velocity P-wave (km/s) = 6.12317 6.60998 6.37123
#
# Compressibility (1/GPa) = 0.01847996
#
# Stress axis : x y z
#
# Youngs Moduli (GPa) = 40.56900 40.56900 88.04379
#
# Poissons Ratio (x) = 0.49579 0.39036
# Poissons Ratio (y) = 0.49579 0.39036
# Poissons Ratio (z) = 0.17987 0.17987
#
# Static dielectric constant tensor:
#      x y z
#    x 3.656450 0.000000 0.000000 
#    y 0.000000 3.656450 0.000000 
#    z 0.000000 0.000000 3.789440 
# 
# 
# High freq. dielectric constant tensor:
#      x y z
#    x 1.786490 0.000000 0.000000 
#    y 0.000000 1.786490 0.000000 
#    z 0.000000 0.000000 1.794710 
# 
# From -- ./inp_files/5155.got.cif
#   From: 2010.03.12/outbox.cif.g09.slc.cpg/sg87_3_cif.got.tgz:5155.got - 2010.04.08 20:16:13.
