data_PCOD8303249
_publ_section_title
;
Structure prediction by ZEFSAII (Michael W. Deem and Ramdas Pophale) SiO2 
 PCOD8303249
Probable space group: P 42/M
;
_chemical_formula_sum "Si O2"
_cell_formula_units_Z 48
_cell_length_a 9.257096
_cell_length_b 9.257096
_cell_length_c 27.921052
_cell_angle_alpha 90.000000
_cell_angle_beta 90.000000
_cell_angle_gamma 90.000000
_cell_volume 2392.661782
_symmetry_space_group_name_H-M "P 42/M"
_symmetry_group_IT_number 84
_symmetry_cell_setting 'tetragonal'
loop_
_space_group_symop_operation_xyz
x,y,z
-y,x,1/2+z
-x,-y,z
y,-x,1/2+z
-x,-y,-z
y,-x,1/2-z
x,y,-z
-y,x,1/2-z
loop_
_atom_site_type_symbol
_atom_site_label
_atom_site_fract_x
_atom_site_fract_y
_atom_site_fract_z
Si Si1 0.606679 0.882584 0.054292
Si Si2 0.793221 0.197054 0.362930
Si Si3 0.383507 0.397228 0.446391
Si Si4 0.529053 0.841406 0.620420
Si Si5 0.326775 0.013877 0.211590
Si Si6 0.899941 0.223522 0.186153
O O1 0.750534 0.862972 0.086539
O O2 0.494088 0.754992 0.053138
O O3 0.500000 0.000000 0.077260
O O4 0.658991 0.920044 0.000000
O O5 0.623435 0.228911 0.366570
O O6 0.845645 0.302091 0.320736
O O7 0.831474 0.029088 0.349853
O O8 0.500000 0.500000 0.421346
O O9 0.430842 0.352525 0.500000
O O10 0.374700 0.248907 0.416969
O O11 0.619576 0.848084 0.669260
O O12 0.500000 0.000000 0.598136
O O13 0.239433 0.881918 0.186040
O O14 0.500000 0.000000 0.216797
O O15 0.246619 0.031277 0.261984
#
# Coordination Sequence:
#
# PCOD8303249 Si02
#       6
#     8   8   8   8   8   8
#     4  10  22  40  64  99 137 171 216 266 316 389
#     4  11  22  40  67  95 124 170 210 260 326 374
#     4  10  20  38  65  91 125 173 213 256 321 383
#     4  10  23  40  60  92 131 161 208 272 316 375
#     4  12  25  43  67  92 124 171 217 260 326 391
#     4  11  25  44  65  91 128 164 214 272 316 390
#
# _framework density 20.061337999999999
#
# number of rings (size 3 to 8) (size 9 to 14) (size 15 to 20)
#    0.000    1.333    3.333    2.500    4.667    0.333 
#    0.000    2.500    0.000    2.000    0.000    0.000 
#    0.000    0.000    0.000    0.000    0.000    0.000 
#
# Total GULP energy -594743.432845 kJ/mol
# GULP energy per Si atom -12390.488184 kJ/mol
# Density = 2.001568 g / cm^3
# Si number density = 20.061338 Si / 1000 Ang^3
#
#
#
# Elastic Constant Matrix: (Units=GPa)
#
#
# Indices 1 2 3 4 5 6 
#
# 1 93.1424 41.3629 39.0271 0.0000 0.0000 12.9660
# 2 41.3629 93.1424 39.0271 0.0000 0.0000 -12.9660
# 3 39.0271 39.0271 102.5291 0.0000 0.0000 0.0000
# 4 0.0000 0.0000 0.0000 34.4498 0.0000 0.0000
# 5 0.0000 0.0000 0.0000 0.0000 34.4498 0.0000
# 6 12.9660 -12.9660 0.0000 0.0000 0.0000 33.6524
#
#
#
# Elastic Compliance Matrix: (Units=1/GPa)
#
#
# Indices 1 2 3 4 5 6 
#
# 1 0.016736 -0.007194 -0.003632 0.000000 0.000000 -0.009220
# 2 -0.007194 0.016736 -0.003632 0.000000 0.000000 0.009220
# 3 -0.003632 -0.003632 0.012519 0.000000 0.000000 0.000000
# 4 0.000000 0.000000 0.000000 0.029028 0.000000 0.000000
# 5 0.000000 0.000000 0.000000 0.000000 0.029028 0.000000
# 6 -0.009220 0.009220 0.000000 0.000000 0.000000 0.036821
#
#
# Mechanical properties :
#
#
# Convention : Reuss Voigt Hill
#
# Bulk Modulus (GPa) = 58.56734 58.62756 58.59745
# Shear Modulus (GPa) = 28.49396 31.80351 30.14874
#
# Velocity S-wave (km/s) = 3.77283 3.98592 3.88084
# Velocity P-wave (km/s) = 6.94525 7.10429 7.02522
#
# Compressibility (1/GPa) = 0.01707436
#
# Stress axis : x y z
#
# Youngs Moduli (GPa) = 59.75006 59.75006 79.88155
#
# Poissons Ratio (x) = 0.42984 0.29015
# Poissons Ratio (y) = 0.42984 0.29015
# Poissons Ratio (z) = 0.21703 0.21703
#
# Static dielectric constant tensor:
#      x y z
#    x 3.684620 0.000000 0.000000 
#    y 0.000000 3.684620 0.000000 
#    z 0.000000 0.000000 3.801090 
# 
# 
# High freq. dielectric constant tensor:
#      x y z
#    x 1.786050 0.000000 0.000000 
#    y 0.000000 1.786050 0.000000 
#    z 0.000000 0.000000 1.778990 
# 
# From -- ./inp_files/5794.got.cif
#   From: 2010.03.12/outbox.cif.g09.slc.cpg/sg84_3_cif.got.tgz:5794.got - 2010.04.08 20:07:29.
