data_PCOD8303266
_publ_section_title
;
Structure prediction by ZEFSAII (Michael W. Deem and Ramdas Pophale) SiO2 
 PCOD8303266
Probable space group: P 42/M
;
_chemical_formula_sum "Si O2"
_cell_formula_units_Z 40
_cell_length_a 15.666185
_cell_length_b 15.666185
_cell_length_c 8.594053
_cell_angle_alpha 90.000000
_cell_angle_beta 90.000000
_cell_angle_gamma 90.000000
_cell_volume 2109.232863
_symmetry_space_group_name_H-M "P 42/M"
_symmetry_group_IT_number 84
_symmetry_cell_setting 'tetragonal'
loop_
_space_group_symop_operation_xyz
x,y,z
-y,x,1/2+z
-x,-y,z
y,-x,1/2+z
-x,-y,-z
y,-x,1/2-z
x,y,-z
-y,x,1/2-z
loop_
_atom_site_type_symbol
_atom_site_label
_atom_site_fract_x
_atom_site_fract_y
_atom_site_fract_z
Si Si1 0.082312 0.550898 0.179866
Si Si2 0.858082 0.277361 0.680140
Si Si3 0.477843 0.735935 0.322714
Si Si4 0.312071 0.664826 0.179717
Si Si5 0.054296 0.884602 0.818737
O O1 0.091717 0.635961 0.280794
O O2 0.163220 0.489370 0.202615
O O3 0.000000 0.500000 0.240245
O O4 0.072737 0.577955 0.000000
O O5 0.869140 0.255518 0.500000
O O6 0.757946 0.285737 0.718772
O O7 0.896467 0.201633 0.781168
O O8 0.451719 0.715545 0.500000
O O9 0.404745 0.703418 0.208600
O O10 0.564792 0.687216 0.276553
O O11 0.285898 0.675120 0.000000
O O12 0.964910 0.886869 0.727024
O O13 0.033511 0.888615 0.000000
#
# Coordination Sequence:
#
# PCOD8303266 Si02
#       5
#     8   8   8   8   8
#     4   9  19  37  58  80 110 146 183 227 277 327
#     4  11  22  37  57  82 113 148 186 227 272 323
#     4   9  19  35  54  78 107 141 182 226 276 330
#     4  10  21  37  56  79 109 144 182 227 277 328
#     4  11  22  39  60  84 114 146 184 227 274 325
#
# _framework density 18.964238999999999
#
# number of rings (size 3 to 8) (size 9 to 14) (size 15 to 20)
#    0.000    2.000    0.000    6.000    0.000    6.400 
#    0.000    8.000    0.000    0.000    0.000    0.000 
#    0.000    0.000    0.000    0.000    0.000    0.000 
#
# Total GULP energy -496187.285415 kJ/mol
# GULP energy per Si atom -12404.682135 kJ/mol
# Density = 1.892108 g / cm^3
# Si number density = 18.964239 Si / 1000 Ang^3
#
#
#
# Elastic Constant Matrix: (Units=GPa)
#
#
# Indices 1 2 3 4 5 6 
#
# 1 100.4642 55.8351 19.7563 0.0000 0.0000 14.2843
# 2 55.8351 100.4642 19.7563 0.0000 0.0000 -14.2843
# 3 19.7563 19.7563 69.9476 0.0000 0.0000 0.0000
# 4 0.0000 0.0000 0.0000 31.4927 0.0000 0.0000
# 5 0.0000 0.0000 0.0000 0.0000 31.4927 0.0000
# 6 14.2843 -14.2843 0.0000 0.0000 0.0000 29.4785
#
#
#
# Elastic Compliance Matrix: (Units=1/GPa)
#
#
# Indices 1 2 3 4 5 6 
#
# 1 0.019686 -0.012796 -0.001946 0.000000 0.000000 -0.015740
# 2 -0.012796 0.019686 -0.001946 0.000000 0.000000 0.015740
# 3 -0.001946 -0.001946 0.015396 0.000000 0.000000 0.000000
# 4 0.000000 0.000000 0.000000 0.031753 0.000000 0.000000
# 5 0.000000 0.000000 0.000000 0.000000 0.031753 0.000000
# 6 -0.015740 0.015740 0.000000 0.000000 0.000000 0.049177
#
#
# Mechanical properties :
#
#
# Convention : Reuss Voigt Hill
#
# Bulk Modulus (GPa) = 46.74760 51.28573 49.01667
# Shear Modulus (GPa) = 24.04309 30.19466 27.11888
#
# Velocity S-wave (km/s) = 3.56450 3.99455 3.78564
# Velocity P-wave (km/s) = 6.45328 6.95538 6.70903
#
# Compressibility (1/GPa) = 0.02139147
#
# Stress axis : x y z
#
# Youngs Moduli (GPa) = 50.79661 50.79661 64.95320
#
# Poissons Ratio (x) = 0.65001 0.12640
# Poissons Ratio (y) = 0.65001 0.12640
# Poissons Ratio (z) = 0.09885 0.09885
#
# Static dielectric constant tensor:
#      x y z
#    x 3.436170 0.000000 0.000000 
#    y 0.000000 3.436170 0.000000 
#    z 0.000000 0.000000 3.421160 
# 
# 
# High freq. dielectric constant tensor:
#      x y z
#    x 1.737450 0.000000 0.000000 
#    y 0.000000 1.737450 0.000000 
#    z 0.000000 0.000000 1.741270 
# 
# From -- ./inp_files/755.got.cif
#   From: 2010.03.12/outbox.cif.g09.slc.cpg/sg84_1_cif.got.tgz:755.got - 2010.04.08 20:07:29.
