data_PCOD8303214
_publ_section_title
;
Structure prediction by ZEFSAII (Michael W. Deem and Ramdas Pophale) SiO2 
 PCOD8303214
Probable space group: P 42/M
;
_chemical_formula_sum "Si O2"
_cell_formula_units_Z 56
_cell_length_a 11.897518
_cell_length_b 11.897518
_cell_length_c 21.582579
_cell_angle_alpha 90.000000
_cell_angle_beta 90.000000
_cell_angle_gamma 90.000000
_cell_volume 3055.034228
_symmetry_space_group_name_H-M "P 42/M"
_symmetry_group_IT_number 84
_symmetry_cell_setting 'tetragonal'
loop_
_space_group_symop_operation_xyz
x,y,z
-y,x,1/2+z
-x,-y,z
y,-x,1/2+z
-x,-y,-z
y,-x,1/2-z
x,y,-z
-y,x,1/2-z
loop_
_atom_site_type_symbol
_atom_site_label
_atom_site_fract_x
_atom_site_fract_y
_atom_site_fract_z
Si Si1 0.652297 0.575905 0.572106
Si Si2 0.337946 0.415398 0.926961
Si Si3 0.109633 0.641598 0.162021
Si Si4 0.852837 0.615844 0.837539
Si Si5 0.196536 0.228544 0.427282
Si Si6 0.188979 0.177839 0.237004
Si Si7 0.014430 0.129442 0.340875
O O1 0.627081 0.569429 0.500000
O O2 0.543192 0.642867 0.598147
O O3 0.657170 0.447083 0.595447
O O4 0.769728 0.640646 0.585752
O O5 0.228601 0.361019 0.895545
O O6 0.317010 0.409040 0.000000
O O7 0.148593 0.515977 0.176037
O O8 0.160605 0.698684 0.100901
O O9 0.147778 0.701084 0.224809
O O10 0.978328 0.655117 0.147794
O O11 0.810082 0.689198 0.778779
O O12 0.187107 0.202530 0.500000
O O13 0.078636 0.197928 0.395019
O O14 0.080491 0.142578 0.276567
O O15 0.183439 0.108103 0.172143
O O16 0.000000 0.000000 0.361279
#
# Coordination Sequence:
#
# PCOD8303214 Si02
#       7
#     8   8   8   8   8   8   8
#     4   8  15  32  54  78 113 152 187 221 277 354
#     4   9  17  32  55  81 112 152 190 224 276 352
#     4  10  22  36  55  82 118 147 190 242 301 347
#     4  11  21  36  55  83 114 151 194 240 286 352
#     4  10  20  35  59  89 117 143 186 247 297 344
#     4  11  19  39  57  76 107 150 196 235 285 347
#     4  11  19  36  63  79 103 153 202 239 284 348
#
# _framework density 18.330400999999998
#
# number of rings (size 3 to 8) (size 9 to 14) (size 15 to 20)
#    0.000    2.000    4.286    1.714    0.000    0.857 
#    5.143    2.143    0.000    0.000    0.000    3.000 
#    0.000    0.000    0.000    0.000    0.000    0.000 
#
# Total GULP energy -693938.428454 kJ/mol
# GULP energy per Si atom -12391.757651 kJ/mol
# Density = 1.828868 g / cm^3
# Si number density = 18.330401 Si / 1000 Ang^3
#
#
#
# Elastic Constant Matrix: (Units=GPa)
#
#
# Indices 1 2 3 4 5 6 
#
# 1 102.4471 46.5695 52.4063 0.0000 0.0000 1.5001
# 2 46.5695 102.4471 52.4063 0.0000 0.0000 -1.5001
# 3 52.4063 52.4063 83.6234 0.0000 0.0000 0.0000
# 4 0.0000 0.0000 0.0000 26.4644 0.0000 0.0000
# 5 0.0000 0.0000 0.0000 0.0000 26.4644 0.0000
# 6 1.5001 -1.5001 0.0000 0.0000 0.0000 31.0924
#
#
#
# Elastic Compliance Matrix: (Units=1/GPa)
#
#
# Indices 1 2 3 4 5 6 
#
# 1 0.014972 -0.002971 -0.007521 0.000000 0.000000 -0.000866
# 2 -0.002971 0.014972 -0.007521 0.000000 0.000000 0.000866
# 3 -0.007521 -0.007521 0.021384 0.000000 0.000000 0.000000
# 4 0.000000 0.000000 0.000000 0.037787 0.000000 0.000000
# 5 0.000000 0.000000 0.000000 0.000000 0.037787 0.000000
# 6 -0.000866 0.000866 0.000000 0.000000 0.000000 0.032246
#
#
# Mechanical properties :
#
#
# Convention : Reuss Voigt Hill
#
# Bulk Modulus (GPa) = 65.34651 65.69798 65.52224
# Shear Modulus (GPa) = 24.96605 25.94661 25.45633
#
# Velocity S-wave (km/s) = 3.69454 3.76639 3.73064
# Velocity P-wave (km/s) = 7.34344 7.40493 7.37425
#
# Compressibility (1/GPa) = 0.01530304
#
# Stress axis : x y z
#
# Youngs Moduli (GPa) = 66.79345 66.79345 46.76289
#
# Poissons Ratio (x) = 0.19846 0.35168
# Poissons Ratio (y) = 0.19846 0.35168
# Poissons Ratio (z) = 0.50232 0.50232
#
# Static dielectric constant tensor:
#      x y z
#    x 3.522360 0.000000 0.000000 
#    y 0.000000 3.522360 0.000000 
#    z 0.000000 0.000000 3.091790 
# 
# 
# High freq. dielectric constant tensor:
#      x y z
#    x 1.711320 0.000000 0.000000 
#    y 0.000000 1.711320 0.000000 
#    z 0.000000 0.000000 1.682570 
# 
# From -- ./inp_files/4497.got.cif
#   From: 2010.03.12/outbox.cif.g09.slc.cpg/sg84_3_cif.got.tgz:4497.got - 2010.04.08 20:07:29.
