data_PCOD8303233
_publ_section_title
;
Structure prediction by ZEFSAII (Michael W. Deem and Ramdas Pophale) SiO2 
 PCOD8303233
Probable space group: P 42/M
;
_chemical_formula_sum "Si O2"
_cell_formula_units_Z 58
_cell_length_a 17.774123
_cell_length_b 17.774123
_cell_length_c 9.097679
_cell_angle_alpha 90.000000
_cell_angle_beta 90.000000
_cell_angle_gamma 90.000000
_cell_volume 2874.133732
_symmetry_space_group_name_H-M "P 42/M"
_symmetry_group_IT_number 84
_symmetry_cell_setting 'tetragonal'
loop_
_space_group_symop_operation_xyz
x,y,z
-y,x,1/2+z
-x,-y,z
y,-x,1/2+z
-x,-y,-z
y,-x,1/2-z
x,y,-z
-y,x,1/2-z
loop_
_atom_site_type_symbol
_atom_site_label
_atom_site_fract_x
_atom_site_fract_y
_atom_site_fract_z
Si Si1 0.318787 0.960870 0.825771
Si Si2 0.243653 0.808512 0.165535
Si Si3 0.419939 0.190268 0.173650
Si Si4 0.508765 0.336397 0.837440
Si Si5 0.449219 0.886294 0.665305
Si Si6 0.500000 0.500000 0.750000
Si Si7 0.730535 0.636393 0.838605
Si Si8 0.111174 0.712009 0.831291
O O1 0.262274 0.893068 0.781573
O O2 0.398947 0.949750 0.745194
O O3 0.281181 0.036345 0.764688
O O4 0.331201 0.967606 0.000000
O O5 0.285449 0.743188 0.256575
O O6 0.154186 0.792736 0.176012
O O7 0.273670 0.799942 0.000000
O O8 0.443751 0.277014 0.212902
O O9 0.479934 0.128959 0.230803
O O10 0.345586 0.171123 0.263093
O O11 0.408323 0.178649 0.000000
O O12 0.482595 0.423660 0.840782
O O13 0.582679 0.330075 0.737800
O O14 0.533058 0.311756 0.000000
O O15 0.472075 0.913217 0.500000
O O16 0.403618 0.810071 0.652584
O O17 0.697935 0.654875 0.000000
O O18 0.092165 0.690536 0.000000
#
# Coordination Sequence:
#
# PCOD8303233 Si02
#       8
#     8   8   8   8   8   2   8   8
#     4  10  20  37  60  87 118 152 190 232 279 341
#     4   9  20  38  60  85 116 152 186 226 281 336
#     4  10  21  38  58  83 115 151 192 241 292 347
#     4  10  23  41  57  77 110 149 195 247 298 343
#     4   9  17  33  56  84 115 151 188 232 286 341
#     4  12  26  40  56  82 106 156 208 258 294 340
#     4   9  18  33  58  84 108 142 190 237 284 340
#     4  11  23  38  58  88 118 149 187 232 283 338
#
# _framework density 20.179993
#
# number of rings (size 3 to 8) (size 9 to 14) (size 15 to 20)
#    0.000    2.207    0.000    2.276    1.931    7.172 
#    0.000    2.759    0.000    0.414    0.000    2.897 
#    0.000    0.000    0.000    0.000    0.000    0.000 
#
# Total GULP energy -718895.880341 kJ/mol
# GULP energy per Si atom -12394.756558 kJ/mol
# Density = 2.013406 g / cm^3
# Si number density = 20.179993 Si / 1000 Ang^3
#
#
#
# Elastic Constant Matrix: (Units=GPa)
#
#
# Indices 1 2 3 4 5 6 
#
# 1 93.0048 39.0293 32.0670 0.0000 0.0000 3.6984
# 2 39.0293 93.0048 32.0670 0.0000 0.0000 -3.6984
# 3 32.0670 32.0670 111.5908 0.0000 0.0000 0.0000
# 4 0.0000 0.0000 0.0000 21.0800 0.0000 0.0000
# 5 0.0000 0.0000 0.0000 0.0000 21.0800 0.0000
# 6 3.6984 -3.6984 0.0000 0.0000 0.0000 20.6685
#
#
#
# Elastic Compliance Matrix: (Units=1/GPa)
#
#
# Indices 1 2 3 4 5 6 
#
# 1 0.013898 -0.005095 -0.002530 0.000000 0.000000 -0.003399
# 2 -0.005095 0.013898 -0.002530 0.000000 0.000000 0.003399
# 3 -0.002530 -0.002530 0.010415 0.000000 0.000000 0.000000
# 4 0.000000 0.000000 0.000000 0.047438 0.000000 0.000000
# 5 0.000000 0.000000 0.000000 0.000000 0.047438 0.000000
# 6 -0.003399 0.003399 0.000000 0.000000 0.000000 0.049599
#
#
# Mechanical properties :
#
#
# Convention : Reuss Voigt Hill
#
# Bulk Modulus (GPa) = 55.85958 55.99188 55.92573
# Shear Modulus (GPa) = 23.92782 25.52815 24.72799
#
# Velocity S-wave (km/s) = 3.44716 3.56057 3.50433
# Velocity P-wave (km/s) = 6.60187 6.68656 6.64435
#
# Compressibility (1/GPa) = 0.01790203
#
# Stress axis : x y z
#
# Youngs Moduli (GPa) = 71.95497 71.95497 96.01461
#
# Poissons Ratio (x) = 0.36662 0.24287
# Poissons Ratio (y) = 0.36662 0.24287
# Poissons Ratio (z) = 0.18201 0.18201
#
# Static dielectric constant tensor:
#      x y z
#    x 3.542750 0.000000 0.000000 
#    y 0.000000 3.542750 0.000000 
#    z 0.000000 0.000000 3.853070 
# 
# 
# High freq. dielectric constant tensor:
#      x y z
#    x 1.774960 0.000000 0.000000 
#    y 0.000000 1.774960 0.000000 
#    z 0.000000 0.000000 1.797240 
# 
# From -- ./inp_files/1161.got.cif
#   From: 2010.03.12/outbox.cif.g09.slc.cpg/sg84_1_cif.got.tgz:1161.got - 2010.04.08 20:07:29.
