data_PCOD8303146
_publ_section_title
;
Structure prediction by ZEFSAII (Michael W. Deem and Ramdas Pophale) SiO2 
 PCOD8303146
Probable space group: P 42/M
;
_chemical_formula_sum "Si O2"
_cell_formula_units_Z 40
_cell_length_a 12.343945
_cell_length_b 12.343945
_cell_length_c 14.032451
_cell_angle_alpha 90.000000
_cell_angle_beta 90.000000
_cell_angle_gamma 90.000000
_cell_volume 2138.166350
_symmetry_space_group_name_H-M "P 42/M"
_symmetry_group_IT_number 84
_symmetry_cell_setting 'tetragonal'
loop_
_space_group_symop_operation_xyz
x,y,z
-y,x,1/2+z
-x,-y,z
y,-x,1/2+z
-x,-y,-z
y,-x,1/2-z
x,y,-z
-y,x,1/2-z
loop_
_atom_site_type_symbol
_atom_site_label
_atom_site_fract_x
_atom_site_fract_y
_atom_site_fract_z
Si Si1 0.771006 0.092571 0.107180
Si Si2 0.167959 0.313991 0.796221
Si Si3 0.943651 0.262260 0.891285
Si Si4 0.117983 0.543387 0.220565
Si Si5 0.859570 0.313854 0.389583
O O1 0.697041 0.157032 0.182019
O O2 0.892920 0.141191 0.117763
O O3 0.766587 0.962731 0.125769
O O4 0.727867 0.116454 0.000000
O O5 0.193915 0.442265 0.810687
O O6 0.263543 0.248510 0.844984
O O7 0.058131 0.265283 0.839745
O O8 0.860899 0.349072 0.842720
O O9 0.960945 0.296135 0.000000
O O10 0.123767 0.573790 0.332736
O O11 0.000000 0.500000 0.196345
O O12 0.841255 0.340802 0.500000
#
# Coordination Sequence:
#
# PCOD8303146 Si02
#       5
#     8   8   8   8   8
#     4  10  19  33  55  80 115 150 184 224 276 340
#     4  11  20  36  54  80 115 150 190 232 285 332
#     4  10  20  34  53  81 113 152 192 225 276 341
#     4  10  20  35  56  80 111 152 188 236 278 332
#     4  11  22  36  56  87 115 147 192 239 288 339
#
# _framework density 18.707618
#
# number of rings (size 3 to 8) (size 9 to 14) (size 15 to 20)
#    0.000    1.600    6.000    0.600    0.000    6.400 
#    0.000    5.000    0.000    0.600    0.000    1.400 
#    0.000    0.000    0.000    0.000    0.000    0.000 
#
# Total GULP energy -495620.941034 kJ/mol
# GULP energy per Si atom -12390.523526 kJ/mol
# Density = 1.866504 g / cm^3
# Si number density = 18.707618 Si / 1000 Ang^3
#
#
#
# Elastic Constant Matrix: (Units=GPa)
#
#
# Indices 1 2 3 4 5 6 
#
# 1 65.7139 24.4711 15.1979 0.0000 0.0000 2.5736
# 2 24.4711 65.7139 15.1979 0.0000 0.0000 -2.5736
# 3 15.1979 15.1979 100.9066 0.0000 0.0000 0.0000
# 4 0.0000 0.0000 0.0000 21.6962 0.0000 0.0000
# 5 0.0000 0.0000 0.0000 0.0000 21.6962 0.0000
# 6 2.5736 -2.5736 0.0000 0.0000 0.0000 6.7933
#
#
#
# Elastic Compliance Matrix: (Units=1/GPa)
#
#
# Indices 1 2 3 4 5 6 
#
# 1 0.018566 -0.006884 -0.001759 0.000000 0.000000 -0.009641
# 2 -0.006884 0.018566 -0.001759 0.000000 0.000000 0.009641
# 3 -0.001759 -0.001759 0.010440 0.000000 0.000000 0.000000
# 4 0.000000 0.000000 0.000000 0.046091 0.000000 0.000000
# 5 0.000000 0.000000 0.000000 0.000000 0.046091 0.000000
# 6 -0.009641 0.009641 0.000000 0.000000 0.000000 0.154509
#
#
# Mechanical properties :
#
#
# Convention : Reuss Voigt Hill
#
# Bulk Modulus (GPa) = 37.36187 38.00758 37.68473
# Shear Modulus (GPa) = 15.43258 21.86832 18.65045
#
# Velocity S-wave (km/s) = 2.87529 3.42270 3.16087
# Velocity P-wave (km/s) = 5.57116 5.99838 5.78872
#
# Compressibility (1/GPa) = 0.02676525
#
# Stress axis : x y z
#
# Youngs Moduli (GPa) = 53.86308 53.86308 95.78439
#
# Poissons Ratio (x) = 0.37081 0.16852
# Poissons Ratio (y) = 0.37081 0.16852
# Poissons Ratio (z) = 0.09476 0.09476
#
# Static dielectric constant tensor:
#      x y z
#    x 3.523590 0.000000 0.000000 
#    y 0.000000 3.523590 0.000000 
#    z 0.000000 0.000000 3.766810 
# 
# 
# High freq. dielectric constant tensor:
#      x y z
#    x 1.698330 0.000000 0.000000 
#    y 0.000000 1.698330 0.000000 
#    z 0.000000 0.000000 1.748500 
# 
# From -- ./inp_files/2886.got.cif
#   From: 2010.03.12/outbox.cif.g09.slc.cpg/sg84_2_cif.got.tgz:2886.got - 2010.04.08 20:07:29.
