data_PCOD8303911
_publ_section_title
;
Structure prediction by ZEFSAII (Michael W. Deem and Ramdas Pophale) SiO2 
 PCOD8303911
Probable space group: I 4/M
;
_chemical_formula_sum "Si O2"
_cell_formula_units_Z 96
_cell_length_a 23.954336
_cell_length_b 23.954336
_cell_length_c 8.866174
_cell_angle_alpha 90.000000
_cell_angle_beta 90.000000
_cell_angle_gamma 90.000000
_cell_volume 5087.501193
_symmetry_space_group_name_H-M "I 4/M"
_symmetry_group_IT_number 87
_symmetry_cell_setting 'tetragonal'
loop_
_space_group_symop_operation_xyz
x,y,z
-y,x,z
-x,-y,z
y,-x,z
-x,-y,-z
y,-x,-z
x,y,-z
-y,x,-z
1/2+x,1/2+y,1/2+z
1/2-y,1/2+x,1/2+z
1/2-x,1/2-y,1/2+z
1/2+y,1/2-x,1/2+z
1/2-x,1/2-y,1/2-z
1/2+y,1/2-x,1/2-z
1/2+x,1/2+y,1/2-z
1/2-y,1/2+x,1/2-z
loop_
_atom_site_type_symbol
_atom_site_label
_atom_site_fract_x
_atom_site_fract_y
_atom_site_fract_z
Si Si1 0.203688 0.956051 0.821535
Si Si2 0.485249 0.918176 0.679949
Si Si3 0.728007 0.833028 0.178115
Si Si4 0.456800 0.793528 0.678882
Si Si5 0.264029 0.665401 0.321912
Si Si6 0.015521 0.089265 0.325828
O O1 0.215738 0.894150 0.757950
O O2 0.142766 0.976200 0.776539
O O3 0.249611 0.998635 0.754287
O O4 0.207210 0.955311 0.000000
O O5 0.486830 0.925358 0.500000
O O6 0.436027 0.955803 0.749027
O O7 0.473914 0.855140 0.731370
O O8 0.721943 0.895605 0.242074
O O9 0.679390 0.795662 0.250073
O O10 0.788672 0.809911 0.226668
O O11 0.720061 0.831178 0.000000
O O12 0.456068 0.789774 0.500000
O O13 0.256195 0.664002 0.500000
O O14 0.018759 0.106518 0.500000
O O15 0.955365 0.063443 0.287218
#
# Coordination Sequence:
#
# PCOD8303911 Si02
#       6
#    16  16  16  16  16  16
#     4  10  21  35  56  84 110 139 177 224 271 316
#     4  10  20  36  56  78 104 140 177 219 269 318
#     4   9  18  35  55  74 103 143 177 212 262 319
#     4   9  20  35  53  78 110 140 172 218 270 314
#     4   9  19  34  54  80 107 136 174 221 265 308
#     4   9  20  39  58  78 110 147 179 218 267 316
#
# _framework density 18.869775000000001
#
# number of rings (size 3 to 8) (size 9 to 14) (size 15 to 20)
#    0.000    2.667    0.000    1.500    4.667    1.333 
#    0.000    4.167    0.000    0.000    0.000    0.000 
#    0.000    0.000    0.000    0.000    0.000    0.000 
#
# Total GULP energy -595237.471650 kJ/mol
# GULP energy per Si atom -12400.780659 kJ/mol
# Density = 1.882683 g / cm^3
# Si number density = 18.869775 Si / 1000 Ang^3
#
#
#
# Elastic Constant Matrix: (Units=GPa)
#
#
# Indices 1 2 3 4 5 6 
#
# 1 156.2700 82.4668 24.3103 0.0000 0.0000 -1.9169
# 2 82.4668 156.2700 24.3103 0.0000 0.0000 1.9169
# 3 24.3103 24.3103 25.5851 0.0000 0.0000 0.0000
# 4 0.0000 0.0000 0.0000 25.8871 0.0000 0.0000
# 5 0.0000 0.0000 0.0000 0.0000 25.8871 0.0000
# 6 -1.9169 1.9169 0.0000 0.0000 0.0000 23.9617
#
#
#
# Elastic Compliance Matrix: (Units=1/GPa)
#
#
# Indices 1 2 3 4 5 6 
#
# 1 0.009400 -0.004206 -0.004935 0.000000 0.000000 0.001088
# 2 -0.004206 0.009400 -0.004935 0.000000 0.000000 -0.001088
# 3 -0.004935 -0.004935 0.048463 0.000000 0.000000 0.000000
# 4 0.000000 0.000000 0.000000 0.038629 0.000000 0.000000
# 5 0.000000 0.000000 0.000000 0.000000 0.038629 0.000000
# 6 0.001088 -0.001088 0.000000 0.000000 0.000000 0.041907
#
#
# Mechanical properties :
#
#
# Convention : Reuss Voigt Hill
#
# Bulk Modulus (GPa) = 25.56822 66.70000 46.13411
# Shear Modulus (GPa) = 21.96655 28.94966 25.45811
#
# Velocity S-wave (km/s) = 3.41561 3.92111 3.67706
# Velocity P-wave (km/s) = 5.39763 7.47826 6.52146
#
# Compressibility (1/GPa) = 0.03911105
#
# Stress axis : x y z
#
# Youngs Moduli (GPa) = 106.38378 106.38378 20.63409
#
# Poissons Ratio (x) = 0.44747 0.10183
# Poissons Ratio (y) = 0.44747 0.10183
# Poissons Ratio (z) = 0.52500 0.52500
#
# Static dielectric constant tensor:
#      x y z
#    x 3.644170 0.000000 0.000000 
#    y 0.000000 3.644170 0.000000 
#    z 0.000000 0.000000 3.156910 
# 
# 
# High freq. dielectric constant tensor:
#      x y z
#    x 1.742380 0.000000 0.000000 
#    y 0.000000 1.742380 0.000000 
#    z 0.000000 0.000000 1.707580 
# 
# From -- ./inp_files/1315.got.cif
#   From: 2010.03.12/outbox.cif.g09.slc.cpg/sg87_1_cif.got.tgz:1315.got - 2010.04.08 20:16:13.
