data_PCOD8303872
_publ_section_title
;
Structure prediction by ZEFSAII (Michael W. Deem and Ramdas Pophale) SiO2 
 PCOD8303872
Probable space group: I 4/M
;
_chemical_formula_sum "Si O2"
_cell_formula_units_Z 96
_cell_length_a 23.554333
_cell_length_b 23.554333
_cell_length_c 8.839068
_cell_angle_alpha 90.000000
_cell_angle_beta 90.000000
_cell_angle_gamma 90.000000
_cell_volume 4903.973291
_symmetry_space_group_name_H-M "I 4/M"
_symmetry_group_IT_number 87
_symmetry_cell_setting 'tetragonal'
loop_
_space_group_symop_operation_xyz
x,y,z
-y,x,z
-x,-y,z
y,-x,z
-x,-y,-z
y,-x,-z
x,y,-z
-y,x,-z
1/2+x,1/2+y,1/2+z
1/2-y,1/2+x,1/2+z
1/2-x,1/2-y,1/2+z
1/2+y,1/2-x,1/2+z
1/2-x,1/2-y,1/2-z
1/2+y,1/2-x,1/2-z
1/2+x,1/2+y,1/2-z
1/2-y,1/2+x,1/2-z
loop_
_atom_site_type_symbol
_atom_site_label
_atom_site_fract_x
_atom_site_fract_y
_atom_site_fract_z
Si Si1 0.518162 0.916973 0.319651
Si Si2 0.682099 0.304833 0.331108
Si Si3 0.316425 0.922221 0.677675
Si Si4 0.589915 0.482412 0.323718
Si Si5 0.683083 0.193545 0.830556
Si Si6 0.920094 0.813689 0.676689
O O1 0.516238 0.922971 0.500000
O O2 0.457532 0.933421 0.249778
O O3 0.531868 0.852809 0.270305
O O4 0.656945 0.302891 0.500000
O O5 0.657041 0.251284 0.238924
O O6 0.749584 0.301244 0.334429
O O7 0.662602 0.363234 0.254869
O O8 0.327153 0.929241 0.500000
O O9 0.335479 0.859108 0.726738
O O10 0.251084 0.933259 0.723039
O O11 0.565539 0.543839 0.280431
O O12 0.604390 0.479192 0.500000
O O13 0.647264 0.472376 0.229152
O O14 0.658938 0.185012 0.000000
O O15 0.910165 0.818081 0.500000
#
# Coordination Sequence:
#
# PCOD8303872 Si02
#       6
#    16  16  16  16  16  16
#     4  11  22  39  62  85 109 141 182 225 269 320
#     4   9  16  27  45  69 101 141 180 216 259 316
#     4  10  20  35  54  80 113 145 179 222 273 325
#     4   9  19  37  59  80 104 138 180 223 268 322
#     4   9  16  27  45  71 102 138 179 219 262 315
#     4  10  20  33  53  81 112 143 177 223 274 322
#
# _framework density 19.575962000000001
#
# number of rings (size 3 to 8) (size 9 to 14) (size 15 to 20)
#    0.000    2.333    0.000    4.500    0.000    6.667 
#    0.000    2.500    0.000    4.000    0.000    0.000 
#    0.000    0.000    0.000    0.000    0.000    0.000 
#
# Total GULP energy -595250.826040 kJ/mol
# GULP energy per Si atom -12401.058876 kJ/mol
# Density = 1.953141 g / cm^3
# Si number density = 19.575962 Si / 1000 Ang^3
#
#
#
# Elastic Constant Matrix: (Units=GPa)
#
#
# Indices 1 2 3 4 5 6 
#
# 1 68.6554 37.8029 36.8859 0.0000 0.0000 0.2526
# 2 37.8029 68.6554 36.8859 0.0000 0.0000 -0.2526
# 3 36.8859 36.8859 118.0816 0.0000 0.0000 0.0000
# 4 0.0000 0.0000 0.0000 31.1053 0.0000 0.0000
# 5 0.0000 0.0000 0.0000 0.0000 31.1053 0.0000
# 6 0.2526 -0.2526 0.0000 0.0000 0.0000 23.7710
#
#
#
# Elastic Compliance Matrix: (Units=1/GPa)
#
#
# Indices 1 2 3 4 5 6 
#
# 1 0.022203 -0.010215 -0.003745 0.000000 0.000000 -0.000345
# 2 -0.010215 0.022203 -0.003745 0.000000 0.000000 0.000345
# 3 -0.003745 -0.003745 0.010808 0.000000 0.000000 0.000000
# 4 0.000000 0.000000 0.000000 0.032149 0.000000 0.000000
# 5 0.000000 0.000000 0.000000 0.000000 0.032149 0.000000
# 6 -0.000345 0.000345 0.000000 0.000000 0.000000 0.042075
#
#
# Mechanical properties :
#
#
# Convention : Reuss Voigt Hill
#
# Bulk Modulus (GPa) = 50.49074 53.17131 51.83102
# Shear Modulus (GPa) = 24.55810 26.78415 25.67113
#
# Velocity S-wave (km/s) = 3.54574 3.70295 3.62520
# Velocity P-wave (km/s) = 6.52773 6.74559 6.63755
#
# Compressibility (1/GPa) = 0.01980561
#
# Stress axis : x y z
#
# Youngs Moduli (GPa) = 45.03868 45.03868 92.52097
#
# Poissons Ratio (x) = 0.46006 0.34648
# Poissons Ratio (y) = 0.46006 0.34648
# Poissons Ratio (z) = 0.16867 0.16867
#
# Static dielectric constant tensor:
#      x y z
#    x 3.420530 0.000000 0.000000 
#    y 0.000000 3.420530 0.000000 
#    z 0.000000 0.000000 3.642520 
# 
# 
# High freq. dielectric constant tensor:
#      x y z
#    x 1.743840 0.000000 0.000000 
#    y 0.000000 1.743840 0.000000 
#    z 0.000000 0.000000 1.773960 
# 
# From -- ./inp_files/1405.got.cif
#   From: 2010.03.12/outbox.cif.g09.slc.cpg/sg87_1_cif.got.tgz:1405.got - 2010.04.08 20:16:13.
