data_PCOD8303572
_publ_section_title
;
Structure prediction by ZEFSAII (Michael W. Deem and Ramdas Pophale) SiO2 
 PCOD8303572
Probable space group: P 42/N
;
_chemical_formula_sum "Si O2"
_cell_formula_units_Z 50
_cell_length_a 15.110812
_cell_length_b 15.110812
_cell_length_c 11.963537
_cell_angle_alpha 90.000000
_cell_angle_beta 90.000000
_cell_angle_gamma 90.000000
_cell_volume 2731.713833
_symmetry_space_group_name_H-M "P 42/N"
_symmetry_group_IT_number 86
_space_group.IT_coordinate_system_code '2'
_symmetry_cell_setting 'tetragonal'
loop_
_space_group_symop_operation_xyz
x,y,z
-y,1/2+x,1/2+z
1/2-x,1/2-y,z
1/2+y,-x,1/2+z
-x,-y,-z
y,1/2-x,1/2-z
1/2+x,1/2+y,-z
1/2-y,x,1/2-z
loop_
_atom_site_type_symbol
_atom_site_label
_atom_site_fract_x
_atom_site_fract_y
_atom_site_fract_z
Si Si1 0.750000 0.750000 0.750000
Si Si2 0.916601 0.984316 0.073539
Si Si3 0.345698 0.957701 0.128486
Si Si4 0.854468 0.152448 0.598837
Si Si5 0.347773 0.665006 0.850431
Si Si6 0.010209 0.536212 0.769507
Si Si7 0.585997 0.817964 0.620566
O O1 0.684832 0.804224 0.667649
O O2 0.871176 0.079817 0.077217
O O3 0.850586 0.914626 0.010531
O O4 0.951533 0.954114 0.196579
O O5 0.000000 0.000000 0.000000
O O6 0.332497 0.893008 0.231169
O O7 0.442765 0.001989 0.135130
O O8 0.274005 0.035088 0.130445
O O9 0.334318 0.898019 0.020363
O O10 0.753388 0.117579 0.584279
O O11 0.841315 0.242840 0.667113
O O12 0.917228 0.091800 0.672697
O O13 0.960096 0.605687 0.691605
#
# Coordination Sequence:
#
# PCOD8303572 Si02
#       7
#     2   8   8   8   8   8   8
#     4  12  24  36  64  92 114 160 204 268 288 326
#     4   9  20  37  60  80 114 156 193 235 297 349
#     4  11  21  37  58  84 120 151 195 245 294 355
#     4  11  22  36  60  86 123 153 193 243 300 357
#     4  10  22  36  56  89 115 152 195 239 297 355
#     4  10  21  37  59  87 116 156 192 244 296 356
#     4  11  20  38  60  85 117 147 204 245 289 350
#
# _framework density 18.303529000000001
#
# number of rings (size 3 to 8) (size 9 to 14) (size 15 to 20)
#    0.000    1.600    4.800    0.480    0.000    5.120 
#    0.000    0.000    3.520    0.000    0.000    0.000 
#    0.000    0.000    0.000    0.000    0.000    0.000 
#
# Total GULP energy -619645.849975 kJ/mol
# GULP energy per Si atom -12392.916999 kJ/mol
# Density = 1.826187 g / cm^3
# Si number density = 18.303529 Si / 1000 Ang^3
#
#
#
# Elastic Constant Matrix: (Units=GPa)
#
#
# Indices 1 2 3 4 5 6 
#
# 1 82.1657 48.7260 39.6732 0.0000 0.0000 7.8512
# 2 48.7260 82.1657 39.6732 0.0000 0.0000 -7.8512
# 3 39.6732 39.6732 65.3703 0.0000 0.0000 0.0000
# 4 0.0000 0.0000 0.0000 24.7225 0.0000 0.0000
# 5 0.0000 0.0000 0.0000 0.0000 24.7225 0.0000
# 6 7.8512 -7.8512 0.0000 0.0000 0.0000 26.0147
#
#
#
# Elastic Compliance Matrix: (Units=1/GPa)
#
#
# Indices 1 2 3 4 5 6 
#
# 1 0.023464 -0.011378 -0.007335 0.000000 0.000000 -0.010515
# 2 -0.011378 0.023464 -0.007335 0.000000 0.000000 0.010515
# 3 -0.007335 -0.007335 0.024201 0.000000 0.000000 0.000000
# 4 0.000000 0.000000 0.000000 0.040449 0.000000 0.000000
# 5 0.000000 0.000000 0.000000 0.000000 0.040449 0.000000
# 6 -0.010515 0.010515 0.000000 0.000000 0.000000 0.044787
#
#
# Mechanical properties :
#
#
# Convention : Reuss Voigt Hill
#
# Bulk Modulus (GPa) = 52.54059 53.98292 53.26175
# Shear Modulus (GPa) = 19.58815 21.86722 20.72768
#
# Velocity S-wave (km/s) = 3.27492 3.46019 3.36883
# Velocity P-wave (km/s) = 6.56259 6.74693 6.65540
#
# Compressibility (1/GPa) = 0.01903290
#
# Stress axis : x y z
#
# Youngs Moduli (GPa) = 42.61761 42.61761 41.32045
#
# Poissons Ratio (x) = 0.48490 0.30310
# Poissons Ratio (y) = 0.48490 0.30310
# Poissons Ratio (z) = 0.31261 0.31261
#
# Static dielectric constant tensor:
#      x y z
#    x 3.641300 0.000000 0.000000 
#    y 0.000000 3.641300 0.000000 
#    z 0.000000 0.000000 3.726950 
# 
# 
# High freq. dielectric constant tensor:
#      x y z
#    x 1.712680 0.000000 0.000000 
#    y 0.000000 1.712680 0.000000 
#    z 0.000000 0.000000 1.703170 
# 
# From -- ./inp_files/2304.got.cif
#   From: 2010.03.12/outbox.cif.g09.slc.cpg/sg86_2_cif.got.tgz:2304.got - 2010.04.08 20:12:58.
