data_PCOD8303578
_publ_section_title
;
Structure prediction by ZEFSAII (Michael W. Deem and Ramdas Pophale) SiO2 
 PCOD8303578
Probable space group: P 42/N
;
_chemical_formula_sum "Si O2"
_cell_formula_units_Z 40
_cell_length_a 8.953526
_cell_length_b 8.953526
_cell_length_c 23.809056
_cell_angle_alpha 90.000000
_cell_angle_beta 90.000000
_cell_angle_gamma 90.000000
_cell_volume 1908.667922
_symmetry_space_group_name_H-M "P 42/N"
_symmetry_group_IT_number 86
_space_group.IT_coordinate_system_code '2'
_symmetry_cell_setting 'tetragonal'
loop_
_space_group_symop_operation_xyz
x,y,z
-y,1/2+x,1/2+z
1/2-x,1/2-y,z
1/2+y,-x,1/2+z
-x,-y,-z
y,1/2-x,1/2-z
1/2+x,1/2+y,-z
1/2-y,x,1/2-z
loop_
_atom_site_type_symbol
_atom_site_label
_atom_site_fract_x
_atom_site_fract_y
_atom_site_fract_z
Si Si1 0.553302 0.932219 0.173421
Si Si2 0.896270 0.347038 0.935604
Si Si3 0.174774 0.911971 0.783970
Si Si4 0.687023 0.600907 0.536050
Si Si5 0.579497 0.749675 0.840112
O O1 0.513546 0.844247 0.116148
O O2 0.493306 0.831558 0.224155
O O3 0.729957 0.972515 0.177092
O O4 0.473363 0.089766 0.179070
O O5 0.750000 0.250000 0.920621
O O6 0.858156 0.517482 0.948568
O O7 0.969231 0.282641 0.992183
O O8 0.250000 0.750000 0.777650
O O9 0.011449 0.886176 0.811237
O O10 0.750000 0.750000 0.507850
O O11 0.774436 0.559220 0.593031
O O12 0.750000 0.750000 0.820744
#
# Coordination Sequence:
#
# PCOD8303578 Si02
#       5
#     8   8   8   8   8
#     4  10  22  39  56  86 122 162 202 249 320 362
#     4  10  21  39  64  88 124 163 205 258 304 382
#     4  10  22  38  60  86 123 160 203 259 308 373
#     4   9  20  40  60  92 122 154 206 254 314 367
#     4   9  20  36  64  92 116 156 208 256 299 372
#
# _framework density 20.957023
#
# number of rings (size 3 to 8) (size 9 to 14) (size 15 to 20)
#    0.000    2.400    0.000    0.600    5.600    6.800 
#    7.200    0.000    0.000    0.000    0.000    0.000 
#    0.000    0.000    0.000    0.000    0.000    0.000 
#
# Total GULP energy -495799.302494 kJ/mol
# GULP energy per Si atom -12394.982562 kJ/mol
# Density = 2.090932 g / cm^3
# Si number density = 20.957023 Si / 1000 Ang^3
#
#
#
# Elastic Constant Matrix: (Units=GPa)
#
#
# Indices 1 2 3 4 5 6 
#
# 1 82.1221 30.3716 44.6738 0.0000 0.0000 4.2293
# 2 30.3716 82.1221 44.6738 0.0000 0.0000 -4.2293
# 3 44.6738 44.6738 99.2531 0.0000 0.0000 0.0000
# 4 0.0000 0.0000 0.0000 26.2865 0.0000 0.0000
# 5 0.0000 0.0000 0.0000 0.0000 26.2865 0.0000
# 6 4.2293 -4.2293 0.0000 0.0000 0.0000 31.1807
#
#
#
# Elastic Compliance Matrix: (Units=1/GPa)
#
#
# Indices 1 2 3 4 5 6 
#
# 1 0.016798 -0.002963 -0.006227 0.000000 0.000000 -0.002680
# 2 -0.002963 0.016798 -0.006227 0.000000 0.000000 0.002680
# 3 -0.006227 -0.006227 0.015681 0.000000 0.000000 0.000000
# 4 0.000000 0.000000 0.000000 0.038042 0.000000 0.000000
# 5 0.000000 0.000000 0.000000 0.000000 0.038042 0.000000
# 6 -0.002680 0.002680 0.000000 0.000000 0.000000 0.032798
#
#
# Mechanical properties :
#
#
# Convention : Reuss Voigt Hill
#
# Bulk Modulus (GPa) = 54.22220 55.88175 55.05197
# Shear Modulus (GPa) = 25.62211 26.33595 25.97903
#
# Velocity S-wave (km/s) = 3.50037 3.54879 3.52466
# Velocity P-wave (km/s) = 6.50123 6.59657 6.54907
#
# Compressibility (1/GPa) = 0.01844263
#
# Stress axis : x y z
#
# Youngs Moduli (GPa) = 59.52917 59.52917 63.77116
#
# Poissons Ratio (x) = 0.17639 0.39712
# Poissons Ratio (y) = 0.17639 0.39712
# Poissons Ratio (z) = 0.37071 0.37071
#
# Static dielectric constant tensor:
#      x y z
#    x 3.825430 0.000000 0.000000 
#    y 0.000000 3.825430 0.000000 
#    z 0.000000 0.000000 3.844470 
# 
# 
# High freq. dielectric constant tensor:
#      x y z
#    x 1.815180 0.000000 0.000000 
#    y 0.000000 1.815180 0.000000 
#    z 0.000000 0.000000 1.824270 
# 
# From -- ./inp_files/4462.got.cif
#   From: 2010.03.12/outbox.cif.g09.slc.cpg/sg86_3_cif.got.tgz:4462.got - 2010.04.08 20:12:58.
