data_PCOD8303343
_publ_section_title
;
Structure prediction by ZEFSAII (Michael W. Deem and Ramdas Pophale) SiO2 
 PCOD8303343
Probable space group: P 42/M
;
_chemical_formula_sum "Si O2"
_cell_formula_units_Z 40
_cell_length_a 8.820916
_cell_length_b 8.820916
_cell_length_c 23.958683
_cell_angle_alpha 90.000000
_cell_angle_beta 90.000000
_cell_angle_gamma 90.000000
_cell_volume 1864.190602
_symmetry_space_group_name_H-M "P 42/M"
_symmetry_group_IT_number 84
_symmetry_cell_setting 'tetragonal'
loop_
_space_group_symop_operation_xyz
x,y,z
-y,x,1/2+z
-x,-y,z
y,-x,1/2+z
-x,-y,-z
y,-x,1/2-z
x,y,-z
-y,x,1/2-z
loop_
_atom_site_type_symbol
_atom_site_label
_atom_site_fract_x
_atom_site_fract_y
_atom_site_fract_z
Si Si1 0.265199 0.093955 0.436796
Si Si2 0.590348 0.154299 0.237319
Si Si3 0.412392 0.771868 0.437113
Si Si4 0.726747 0.332785 0.334168
Si Si5 0.165205 0.960619 0.160887
O O1 0.203602 0.103073 0.500000
O O2 0.409144 0.202860 0.429639
O O3 0.129991 0.148083 0.397006
O O4 0.317315 0.923536 0.422831
O O5 0.622189 0.220351 0.298101
O O6 0.491405 0.264677 0.198252
O O7 0.753533 0.140633 0.207743
O O8 0.500000 0.000000 0.247001
O O9 0.377495 0.717128 0.500000
O O10 0.357732 0.643819 0.393448
O O11 0.892152 0.267541 0.348412
O O12 0.000000 0.000000 0.184769
#
# Coordination Sequence:
#
# PCOD8303343 Si02
#       5
#     8   8   8   8   8
#     4   9  19  36  62  98 130 162 214 268 316 377
#     4  10  27  43  60  95 130 166 221 266 327 391
#     4   9  19  37  64  94 128 167 209 262 319 380
#     4  11  24  42  64  88 130 171 207 270 321 383
#     4  11  23  38  64  92 122 165 214 270 318 378
#
# _framework density 21.457035999999999
#
# number of rings (size 3 to 8) (size 9 to 14) (size 15 to 20)
#    0.000    2.000    2.000    1.200   11.200    1.600 
#    0.000    1.000    0.000    6.000    0.000    0.000 
#    0.000    0.000    0.000    0.000    0.000    0.000 
#
# Total GULP energy -496027.608318 kJ/mol
# GULP energy per Si atom -12400.690208 kJ/mol
# Density = 2.140820 g / cm^3
# Si number density = 21.457036 Si / 1000 Ang^3
#
#
#
# Elastic Constant Matrix: (Units=GPa)
#
#
# Indices 1 2 3 4 5 6 
#
# 1 80.7258 25.3909 54.5248 0.0000 0.0000 -4.1527
# 2 25.3909 80.7258 54.5248 0.0000 0.0000 4.1527
# 3 54.5248 54.5248 152.9588 0.0000 0.0000 0.0000
# 4 0.0000 0.0000 0.0000 27.6410 0.0000 0.0000
# 5 0.0000 0.0000 0.0000 0.0000 27.6410 0.0000
# 6 -4.1527 4.1527 0.0000 0.0000 0.0000 23.5613
#
#
#
# Elastic Compliance Matrix: (Units=1/GPa)
#
#
# Indices 1 2 3 4 5 6 
#
# 1 0.016717 -0.001846 -0.005301 0.000000 0.000000 0.003272
# 2 -0.001846 0.016717 -0.005301 0.000000 0.000000 -0.003272
# 3 -0.005301 -0.005301 0.010317 0.000000 0.000000 0.000000
# 4 0.000000 0.000000 0.000000 0.036178 0.000000 0.000000
# 5 0.000000 0.000000 0.000000 0.000000 0.036178 0.000000
# 6 0.003272 -0.003272 0.000000 0.000000 0.000000 0.043596
#
#
# Mechanical properties :
#
#
# Convention : Reuss Voigt Hill
#
# Bulk Modulus (GPa) = 53.03614 64.81016 58.92315
# Shear Modulus (GPa) = 26.19386 27.76662 26.98024
#
# Velocity S-wave (km/s) = 3.49773 3.60120 3.54984
# Velocity P-wave (km/s) = 6.40961 6.89650 6.65751
#
# Compressibility (1/GPa) = 0.01885507
#
# Stress axis : x y z
#
# Youngs Moduli (GPa) = 59.81920 59.81920 96.92688
#
# Poissons Ratio (x) = 0.11042 0.51382
# Poissons Ratio (y) = 0.11042 0.51382
# Poissons Ratio (z) = 0.31711 0.31711
#
# Static dielectric constant tensor:
#      x y z
#    x 3.793820 0.000000 0.000000 
#    y 0.000000 3.793820 0.000000 
#    z 0.000000 0.000000 3.931490 
# 
# 
# High freq. dielectric constant tensor:
#      x y z
#    x 1.831090 0.000000 0.000000 
#    y 0.000000 1.831090 0.000000 
#    z 0.000000 0.000000 1.853210 
# 
# From -- ./inp_files/4816.got.cif
#   From: 2010.03.12/outbox.cif.g09.slc.cpg/sg84_3_cif.got.tgz:4816.got - 2010.04.08 20:07:29.
