data_PCOD8303930
_publ_section_title
;
Structure prediction by ZEFSAII (Michael W. Deem and Ramdas Pophale) SiO2 
 PCOD8303930
Probable space group: I 4/M
;
_chemical_formula_sum "Si O2"
_cell_formula_units_Z 80
_cell_length_a 16.463280
_cell_length_b 16.463280
_cell_length_c 14.048582
_cell_angle_alpha 90.000000
_cell_angle_beta 90.000000
_cell_angle_gamma 90.000000
_cell_volume 3807.721882
_symmetry_space_group_name_H-M "I 4/M"
_symmetry_group_IT_number 87
_symmetry_cell_setting 'tetragonal'
loop_
_space_group_symop_operation_xyz
x,y,z
-y,x,z
-x,-y,z
y,-x,z
-x,-y,-z
y,-x,-z
x,y,-z
-y,x,-z
1/2+x,1/2+y,1/2+z
1/2-y,1/2+x,1/2+z
1/2-x,1/2-y,1/2+z
1/2+y,1/2-x,1/2+z
1/2-x,1/2-y,1/2-z
1/2+y,1/2-x,1/2-z
1/2+x,1/2+y,1/2-z
1/2-y,1/2+x,1/2-z
loop_
_atom_site_type_symbol
_atom_site_label
_atom_site_fract_x
_atom_site_fract_y
_atom_site_fract_z
Si Si1 0.642777 0.690232 0.612712
Si Si2 0.851813 0.270824 0.387143
Si Si3 0.396094 0.424941 0.886904
Si Si4 0.965898 0.236014 0.112953
Si Si5 0.377756 0.048931 0.749969
O O1 0.638913 0.689880 0.500000
O O2 0.704398 0.761208 0.646261
O O3 0.552120 0.704063 0.652398
O O4 0.673785 0.603175 0.649654
O O5 0.862061 0.278060 0.500000
O O6 0.870560 0.179368 0.349705
O O7 0.916152 0.332455 0.342138
O O8 0.481543 0.387320 0.850609
O O9 0.395355 0.425201 0.000000
O O10 0.946592 0.323662 0.155552
O O11 0.965109 0.245564 0.000000
O O12 0.456722 0.100889 0.775244
#
# Coordination Sequence:
#
# PCOD8303930 Si02
#       5
#    16  16  16  16  16
#     4   9  19  37  63  90 116 154 197 246 305 356
#     4  10  20  37  59  86 120 155 198 245 293 358
#     4   8  15  30  53  81 115 152 188 232 286 346
#     4  10  21  41  64  88 120 154 199 252 300 353
#     4  11  24  40  59  87 119 157 200 241 297 358
#
# _framework density 21.009937000000001
#
# number of rings (size 3 to 8) (size 9 to 14) (size 15 to 20)
#    0.000    2.400    2.000    0.600    0.000    3.600 
#    3.600    8.000    0.000    0.000    0.000    0.000 
#    0.000    0.000    0.000    0.000    0.000    0.000 
#
# Total GULP energy -495971.260507 kJ/mol
# GULP energy per Si atom -12399.281513 kJ/mol
# Density = 2.096212 g / cm^3
# Si number density = 21.009937 Si / 1000 Ang^3
#
#
#
# Elastic Constant Matrix: (Units=GPa)
#
#
# Indices 1 2 3 4 5 6 
#
# 1 172.5936 98.0053 23.6210 0.0000 0.0000 3.5471
# 2 98.0053 172.5936 23.6210 0.0000 0.0000 -3.5471
# 3 23.6210 23.6210 31.4984 0.0000 0.0000 0.0000
# 4 0.0000 0.0000 0.0000 20.7794 0.0000 0.0000
# 5 0.0000 0.0000 0.0000 0.0000 20.7794 0.0000
# 6 3.5471 -3.5471 0.0000 0.0000 0.0000 34.4003
#
#
#
# Elastic Compliance Matrix: (Units=1/GPa)
#
#
# Indices 1 2 3 4 5 6 
#
# 1 0.008896 -0.004644 -0.003189 0.000000 0.000000 -0.001396
# 2 -0.004644 0.008896 -0.003189 0.000000 0.000000 0.001396
# 3 -0.003189 -0.003189 0.036530 0.000000 0.000000 0.000000
# 4 0.000000 0.000000 0.000000 0.048125 0.000000 0.000000
# 5 0.000000 0.000000 0.000000 0.000000 0.048125 0.000000
# 6 -0.001396 0.001396 0.000000 0.000000 0.000000 0.029357
#
#
# Mechanical properties :
#
#
# Convention : Reuss Voigt Hill
#
# Bulk Modulus (GPa) = 30.97940 74.13114 52.55527
# Shear Modulus (GPa) = 23.50382 30.62102 27.06242
#
# Velocity S-wave (km/s) = 3.34833 3.82180 3.59287
# Velocity P-wave (km/s) = 5.45211 7.40509 6.50234
#
# Compressibility (1/GPa) = 0.03227952
#
# Stress axis : x y z
#
# Youngs Moduli (GPa) = 112.41052 112.41052 27.37461
#
# Poissons Ratio (x) = 0.52201 0.08729
# Poissons Ratio (y) = 0.52201 0.08729
# Poissons Ratio (z) = 0.35845 0.35845
#
# Static dielectric constant tensor:
#      x y z
#    x 4.143090 0.000000 0.000000 
#    y 0.000000 4.143090 0.000000 
#    z 0.000000 0.000000 3.405800 
# 
# 
# High freq. dielectric constant tensor:
#      x y z
#    x 1.830170 0.000000 0.000000 
#    y 0.000000 1.830170 0.000000 
#    z 0.000000 0.000000 1.808330 
# 
# From -- ./inp_files/3488.got.cif
#   From: 2010.03.12/outbox.cif.g09.slc.cpg/sg87_2_cif.got.tgz:3488.got - 2010.04.08 20:16:13.
