data_PCOD8303219
_publ_section_title
;
Structure prediction by ZEFSAII (Michael W. Deem and Ramdas Pophale) SiO2 
 PCOD8303219
Probable space group: P 42/M
;
_chemical_formula_sum "Si O2"
_cell_formula_units_Z 40
_cell_length_a 8.681041
_cell_length_b 8.681041
_cell_length_c 26.935365
_cell_angle_alpha 90.000000
_cell_angle_beta 90.000000
_cell_angle_gamma 90.000000
_cell_volume 2029.861843
_symmetry_space_group_name_H-M "P 42/M"
_symmetry_group_IT_number 84
_symmetry_cell_setting 'tetragonal'
loop_
_space_group_symop_operation_xyz
x,y,z
-y,x,1/2+z
-x,-y,z
y,-x,1/2+z
-x,-y,-z
y,-x,1/2-z
x,y,-z
-y,x,1/2-z
loop_
_atom_site_type_symbol
_atom_site_label
_atom_site_fract_x
_atom_site_fract_y
_atom_site_fract_z
Si Si1 0.659797 0.908926 0.944443
Si Si2 0.670800 0.972377 0.691172
Si Si3 0.714514 0.828218 0.791649
Si Si4 0.473061 0.321589 0.127216
Si Si5 0.763339 0.110391 0.136817
O O1 0.634843 0.745523 0.916900
O O2 0.500000 0.000000 0.945178
O O3 0.784417 0.010817 0.913704
O O4 0.722239 0.879892 0.000000
O O5 0.650042 0.850934 0.736075
O O6 0.790530 0.915187 0.649041
O O7 0.500000 0.000000 0.668152
O O8 0.751688 0.120099 0.714211
O O9 0.607782 0.705687 0.819889
O O10 0.716775 0.992852 0.819464
O O11 0.500000 0.500000 0.116971
O O12 0.633766 0.236264 0.128298
#
# Coordination Sequence:
#
# PCOD8303219 Si02
#       5
#     8   8   8   8   8
#     4   8  16  33  59  85 111 149 194 241 300 362
#     4  12  23  36  54  80 108 150 197 238 288 348
#     4  11  22  37  54  76 111 153 195 233 286 353
#     4  10  20  36  55  84 119 148 186 247 299 346
#     4  10  20  36  57  80 113 148 194 242 283 348
#
# _framework density 19.705773000000001
#
# number of rings (size 3 to 8) (size 9 to 14) (size 15 to 20)
#    0.000    1.800    2.000    4.800    0.000    0.400 
#    0.000    0.000    0.000   10.200    0.000    0.000 
#    0.000    0.000    0.000    0.000    0.000    0.000 
#
# Total GULP energy -495902.563265 kJ/mol
# GULP energy per Si atom -12397.564082 kJ/mol
# Density = 1.966092 g / cm^3
# Si number density = 19.705773 Si / 1000 Ang^3
#
#
#
# Elastic Constant Matrix: (Units=GPa)
#
#
# Indices 1 2 3 4 5 6 
#
# 1 102.7864 32.4490 29.2717 0.0000 0.0000 -4.1732
# 2 32.4490 102.7864 29.2717 0.0000 0.0000 4.1732
# 3 29.2717 29.2717 31.4109 0.0000 0.0000 0.0000
# 4 0.0000 0.0000 0.0000 14.7558 0.0000 0.0000
# 5 0.0000 0.0000 0.0000 0.0000 14.7558 0.0000
# 6 -4.1732 4.1732 0.0000 0.0000 0.0000 34.8784
#
#
#
# Elastic Compliance Matrix: (Units=1/GPa)
#
#
# Indices 1 2 3 4 5 6 
#
# 1 0.013408 -0.001014 -0.011551 0.000000 0.000000 0.001726
# 2 -0.001014 0.013408 -0.011551 0.000000 0.000000 -0.001726
# 3 -0.011551 -0.011551 0.053364 0.000000 0.000000 0.000000
# 4 0.000000 0.000000 0.000000 0.067770 0.000000 0.000000
# 5 0.000000 0.000000 0.000000 0.000000 0.067770 0.000000
# 6 0.001726 -0.001726 0.000000 0.000000 0.000000 0.029084
#
#
# Mechanical properties :
#
#
# Convention : Reuss Voigt Hill
#
# Bulk Modulus (GPa) = 31.29784 46.55206 38.92495
# Shear Modulus (GPa) = 16.46440 22.61074 19.53757
#
# Velocity S-wave (km/s) = 2.89366 3.39103 3.15217
# Velocity P-wave (km/s) = 5.20398 6.24555 5.74841
#
# Compressibility (1/GPa) = 0.03195109
#
# Stress axis : x y z
#
# Youngs Moduli (GPa) = 74.58024 74.58024 18.73915
#
# Poissons Ratio (x) = 0.07559 0.21645
# Poissons Ratio (y) = 0.07559 0.21645
# Poissons Ratio (z) = 0.86145 0.86145
#
# Static dielectric constant tensor:
#      x y z
#    x 3.608430 0.000000 0.000000 
#    y 0.000000 3.608430 0.000000 
#    z 0.000000 0.000000 3.754190 
# 
# 
# High freq. dielectric constant tensor:
#      x y z
#    x 1.761600 0.000000 0.000000 
#    y 0.000000 1.761600 0.000000 
#    z 0.000000 0.000000 1.749560 
# 
# From -- ./inp_files/5330.got.cif
#   From: 2010.03.12/outbox.cif.g09.slc.cpg/sg84_3_cif.got.tgz:5330.got - 2010.04.08 20:07:29.
