data_PCOD8303306
_publ_section_title
;
Structure prediction by ZEFSAII (Michael W. Deem and Ramdas Pophale) SiO2 
 PCOD8303306
Probable space group: P 42/M
;
_chemical_formula_sum "Si O2"
_cell_formula_units_Z 64
_cell_length_a 12.174070
_cell_length_b 12.174070
_cell_length_c 21.902017
_cell_angle_alpha 90.000000
_cell_angle_beta 90.000000
_cell_angle_gamma 90.000000
_cell_volume 3246.053705
_symmetry_space_group_name_H-M "P 42/M"
_symmetry_group_IT_number 84
_symmetry_cell_setting 'tetragonal'
loop_
_space_group_symop_operation_xyz
x,y,z
-y,x,1/2+z
-x,-y,z
y,-x,1/2+z
-x,-y,-z
y,-x,1/2-z
x,y,-z
-y,x,1/2-z
loop_
_atom_site_type_symbol
_atom_site_label
_atom_site_fract_x
_atom_site_fract_y
_atom_site_fract_z
Si Si1 0.451153 0.789209 0.764595
Si Si2 0.659212 0.696861 0.823532
Si Si3 0.382037 0.464183 0.069402
Si Si4 0.808407 0.967122 0.302674
Si Si5 0.873896 0.731130 0.349615
Si Si6 0.241868 0.681553 0.931455
Si Si7 0.815976 0.907257 0.169595
Si Si8 0.919479 0.414095 0.837614
O O1 0.533975 0.733660 0.813004
O O2 0.377266 0.694983 0.733748
O O3 0.370249 0.871756 0.801468
O O4 0.524288 0.846282 0.712711
O O5 0.669299 0.628680 0.886661
O O6 0.738302 0.802213 0.827270
O O7 0.500000 0.500000 0.093688
O O8 0.319386 0.577799 0.072157
O O9 0.384280 0.417116 0.000000
O O10 0.826083 0.842370 0.321525
O O11 0.835039 0.978068 0.231400
O O12 0.678139 0.992990 0.304589
O O13 0.870710 0.058185 0.345245
O O14 0.792470 0.700291 0.405544
O O15 0.999290 0.758224 0.373211
O O16 0.137789 0.648796 0.892274
O O17 0.204243 0.707382 0.000000
O O18 0.000000 0.500000 0.869633
#
# Coordination Sequence:
#
# PCOD8303306 Si02
#       8
#     8   8   8   8   8   8   8   8
#     4  12  23  37  58  95 133 158 195 253 319 381
#     4  12  24  36  59  90 127 160 199 247 313 375
#     4  10  22  41  63  84 116 163 211 252 299 367
#     4  11  21  34  56  85 123 162 197 243 307 387
#     4  11  23  38  59  90 121 160 208 252 312 366
#     4  10  22  42  62  84 119 166 216 259 304 367
#     4  12  21  38  58  88 122 162 204 248 309 382
#     4  11  21  36  58  89 125 158 201 257 315 373
#
# _framework density 19.716246999999999
#
# number of rings (size 3 to 8) (size 9 to 14) (size 15 to 20)
#    0.000    0.875    5.000    3.375    1.750    0.250 
#    0.000    0.625    0.000    6.000    0.000    4.375 
#    0.000    0.000    0.000    0.000    0.000    0.000 
#
# Total GULP energy -792949.366060 kJ/mol
# GULP energy per Si atom -12389.833845 kJ/mol
# Density = 1.967137 g / cm^3
# Si number density = 19.716247 Si / 1000 Ang^3
#
#
#
# Elastic Constant Matrix: (Units=GPa)
#
#
# Indices 1 2 3 4 5 6 
#
# 1 106.6770 39.1236 32.1671 0.0000 0.0000 0.1841
# 2 39.1236 106.6770 32.1671 0.0000 0.0000 -0.1841
# 3 32.1671 32.1671 85.9228 0.0000 0.0000 0.0000
# 4 0.0000 0.0000 0.0000 19.4568 0.0000 0.0000
# 5 0.0000 0.0000 0.0000 0.0000 19.4568 0.0000
# 6 0.1841 -0.1841 0.0000 0.0000 0.0000 29.7022
#
#
#
# Elastic Compliance Matrix: (Units=1/GPa)
#
#
# Indices 1 2 3 4 5 6 
#
# 1 0.011510 -0.003294 -0.003076 0.000000 0.000000 -0.000092
# 2 -0.003294 0.011510 -0.003076 0.000000 0.000000 0.000092
# 3 -0.003076 -0.003076 0.013941 0.000000 0.000000 0.000000
# 4 0.000000 0.000000 0.000000 0.051396 0.000000 0.000000
# 5 0.000000 0.000000 0.000000 0.000000 0.051396 0.000000
# 6 -0.000092 0.000092 0.000000 0.000000 0.000000 0.033669
#
#
# Mechanical properties :
#
#
# Convention : Reuss Voigt Hill
#
# Bulk Modulus (GPa) = 55.34063 56.24360 55.79211
# Shear Modulus (GPa) = 25.20982 26.77778 25.99380
#
# Velocity S-wave (km/s) = 3.57968 3.68932 3.63491
# Velocity P-wave (km/s) = 6.72420 6.83641 6.78054
#
# Compressibility (1/GPa) = 0.01806991
#
# Stress axis : x y z
#
# Youngs Moduli (GPa) = 86.88300 86.88300 71.72919
#
# Poissons Ratio (x) = 0.28618 0.22062
# Poissons Ratio (y) = 0.28618 0.22062
# Poissons Ratio (z) = 0.26723 0.26723
#
# Static dielectric constant tensor:
#      x y z
#    x 3.863770 0.000000 0.000000 
#    y 0.000000 3.863770 0.000000 
#    z 0.000000 0.000000 3.644990 
# 
# 
# High freq. dielectric constant tensor:
#      x y z
#    x 1.784710 0.000000 0.000000 
#    y 0.000000 1.784710 0.000000 
#    z 0.000000 0.000000 1.724300 
# 
# From -- ./inp_files/5101.got.cif
#   From: 2010.03.12/outbox.cif.g09.slc.cpg/sg84_3_cif.got.tgz:5101.got - 2010.04.08 20:07:29.
