data_PCOD8303821
_publ_section_title
;
Structure prediction by ZEFSAII (Michael W. Deem and Ramdas Pophale) SiO2 
 PCOD8303821
Probable space group: I 4/M
;
_chemical_formula_sum "Si O2"
_cell_formula_units_Z 112
_cell_length_a 15.099477
_cell_length_b 15.099477
_cell_length_c 24.330534
_cell_angle_alpha 90.000000
_cell_angle_beta 90.000000
_cell_angle_gamma 90.000000
_cell_volume 5547.220773
_symmetry_space_group_name_H-M "I 4/M"
_symmetry_group_IT_number 87
_symmetry_cell_setting 'tetragonal'
loop_
_space_group_symop_operation_xyz
x,y,z
-y,x,z
-x,-y,z
y,-x,z
-x,-y,-z
y,-x,-z
x,y,-z
-y,x,-z
1/2+x,1/2+y,1/2+z
1/2-y,1/2+x,1/2+z
1/2-x,1/2-y,1/2+z
1/2+y,1/2-x,1/2+z
1/2-x,1/2-y,1/2-z
1/2+y,1/2-x,1/2-z
1/2+x,1/2+y,1/2-z
1/2-y,1/2+x,1/2-z
loop_
_atom_site_type_symbol
_atom_site_label
_atom_site_fract_x
_atom_site_fract_y
_atom_site_fract_z
Si Si1 0.617374 0.415213 0.062051
Si Si2 0.198710 0.781335 0.639725
Si Si3 0.358128 0.512547 0.725345
Si Si4 0.369164 0.861560 0.315903
Si Si5 0.540373 0.200625 0.792236
Si Si6 0.224242 0.032274 0.113557
Si Si7 0.351806 0.292812 0.436635
O O1 0.621663 0.519383 0.072314
O O2 0.682491 0.370827 0.105488
O O3 0.647724 0.393186 0.000000
O O4 0.277878 0.804685 0.681810
O O5 0.111130 0.746538 0.668944
O O6 0.223218 0.704926 0.597368
O O7 0.404969 0.419709 0.739230
O O8 0.273927 0.522206 0.764038
O O9 0.332184 0.513094 0.661874
O O10 0.408727 0.853864 0.254707
O O11 0.433456 0.819034 0.362467
O O12 0.358033 0.967796 0.325909
O O13 0.167310 0.108637 0.085095
O O14 0.236392 0.954346 0.069379
O O15 0.324686 0.287016 0.500000
#
# Coordination Sequence:
#
# PCOD8303821 Si02
#       7
#    16  16  16  16  16  16  16
#     4   9  18  34  59  89 120 152 191 245 305 359
#     4  11  22  38  60  86 119 155 198 245 298 356
#     4  10  19  33  57  87 122 153 185 237 302 356
#     4  10  24  39  60  84 115 156 195 251 291 357
#     4  11  23  38  58  83 116 154 205 236 298 353
#     4  10  21  39  60  86 121 152 197 242 302 350
#     4  11  23  39  62  89 119 158 201 250 297 356
#
# _framework density 20.190289
#
# number of rings (size 3 to 8) (size 9 to 14) (size 15 to 20)
#    0.000    1.714    1.429    3.429    4.000    0.571 
#    0.000    2.143    0.000    3.429    0.000    0.000 
#    0.000    0.000    0.000    0.000    0.000    0.000 
#
# Total GULP energy -694376.989098 kJ/mol
# GULP energy per Si atom -12399.589091 kJ/mol
# Density = 2.014434 g / cm^3
# Si number density = 20.190289 Si / 1000 Ang^3
#
#
#
# Elastic Constant Matrix: (Units=GPa)
#
#
# Indices 1 2 3 4 5 6 
#
# 1 82.2213 14.0370 24.1933 0.0000 0.0000 8.7572
# 2 14.0370 82.2213 24.1933 0.0000 0.0000 -8.7572
# 3 24.1933 24.1933 75.1017 0.0000 0.0000 0.0000
# 4 0.0000 0.0000 0.0000 17.9195 0.0000 0.0000
# 5 0.0000 0.0000 0.0000 0.0000 17.9195 0.0000
# 6 8.7572 -8.7572 0.0000 0.0000 0.0000 32.3265
#
#
#
# Elastic Compliance Matrix: (Units=1/GPa)
#
#
# Indices 1 2 3 4 5 6 
#
# 1 0.014080 -0.001684 -0.003993 0.000000 0.000000 -0.004270
# 2 -0.001684 0.014080 -0.003993 0.000000 0.000000 0.004270
# 3 -0.003993 -0.003993 0.015888 0.000000 0.000000 0.000000
# 4 0.000000 0.000000 0.000000 0.055805 0.000000 0.000000
# 5 0.000000 0.000000 0.000000 0.000000 0.055805 0.000000
# 6 -0.004270 0.004270 0.000000 0.000000 0.000000 0.033248
#
#
# Mechanical properties :
#
#
# Convention : Reuss Voigt Hill
#
# Bulk Modulus (GPa) = 40.47425 40.48794 40.48110
# Shear Modulus (GPa) = 23.09672 25.44115 24.26894
#
# Velocity S-wave (km/s) = 3.38591 3.55360 3.47076
# Velocity P-wave (km/s) = 5.94775 6.07734 6.01290
#
# Compressibility (1/GPa) = 0.02470706
#
# Stress axis : x y z
#
# Youngs Moduli (GPa) = 71.02516 71.02516 62.94038
#
# Poissons Ratio (x) = 0.11957 0.25134
# Poissons Ratio (y) = 0.11957 0.25134
# Poissons Ratio (z) = 0.28362 0.28362
#
# Static dielectric constant tensor:
#      x y z
#    x 3.645280 0.000000 0.000000 
#    y 0.000000 3.645280 0.000000 
#    z 0.000000 0.000000 3.562300 
# 
# 
# High freq. dielectric constant tensor:
#      x y z
#    x 1.788300 0.000000 0.000000 
#    y 0.000000 1.788300 0.000000 
#    z 0.000000 0.000000 1.779950 
# 
# From -- ./inp_files/5876.got.cif
#   From: 2010.03.12/outbox.cif.g09.slc.cpg/sg87_3_cif.got.tgz:5876.got - 2010.04.08 20:16:13.
