data_PCOD8303948
_publ_section_title
;
Structure prediction by ZEFSAII (Michael W. Deem and Ramdas Pophale) SiO2 
 PCOD8303948
Probable space group: I 4/M
;
_chemical_formula_sum "Si O2"
_cell_formula_units_Z 88
_cell_length_a 17.020916
_cell_length_b 17.020916
_cell_length_c 15.096013
_cell_angle_alpha 90.000000
_cell_angle_beta 90.000000
_cell_angle_gamma 90.000000
_cell_volume 4373.489800
_symmetry_space_group_name_H-M "I 4/M"
_symmetry_group_IT_number 87
_symmetry_cell_setting 'tetragonal'
loop_
_space_group_symop_operation_xyz
x,y,z
-y,x,z
-x,-y,z
y,-x,z
-x,-y,-z
y,-x,-z
x,y,-z
-y,x,-z
1/2+x,1/2+y,1/2+z
1/2-y,1/2+x,1/2+z
1/2-x,1/2-y,1/2+z
1/2+y,1/2-x,1/2+z
1/2-x,1/2-y,1/2-z
1/2+y,1/2-x,1/2-z
1/2+x,1/2+y,1/2-z
1/2-y,1/2+x,1/2-z
loop_
_atom_site_type_symbol
_atom_site_label
_atom_site_fract_x
_atom_site_fract_y
_atom_site_fract_z
Si Si1 0.200223 0.736581 0.663794
Si Si2 0.557035 0.765298 0.639529
Si Si3 0.828833 0.168218 0.500000
Si Si4 0.932180 0.438358 0.596315
Si Si5 0.004000 0.229641 0.500000
Si Si6 0.368728 0.521995 0.500000
Si Si7 0.709941 0.972779 0.683121
O O1 0.250000 0.750000 0.750000
O O2 0.219762 0.649745 0.628036
O O3 0.218421 0.797379 0.584855
O O4 0.110275 0.753830 0.691545
O O5 0.518274 0.847043 0.605639
O O6 0.530275 0.687592 0.586061
O O7 0.530355 0.757359 0.741389
O O8 0.919297 0.190999 0.500000
O O9 0.832882 0.074391 0.500000
O O10 0.931072 0.393457 0.500000
O O11 0.949538 0.382482 0.681029
O O12 0.000000 0.500000 0.594653
O O13 0.016085 0.278807 0.589491
O O14 0.410263 0.436055 0.500000
#
# Coordination Sequence:
#
# PCOD8303948 Si02
#       7
#    16  16   8  16   8   8  16
#     4  10  22  39  62  95 125 161 206 259 312 379
#     4  11  23  41  66  92 129 170 214 267 318 392
#     4  10  21  39  65  84 121 163 200 265 313 377
#     4  10  21  38  59  90 134 171 206 250 315 397
#     4  10  20  41  59  86 124 158 206 254 322 369
#     4  11  27  50  70  88 123 176 233 294 337 372
#     4  10  22  37  62  90 128 166 203 256 316 379
#
# _framework density 20.121231000000002
#
# number of rings (size 3 to 8) (size 9 to 14) (size 15 to 20)
#    0.000    1.727    1.818    1.636   10.182    0.182 
#    0.000    0.000    0.000    0.000    0.000    0.000 
#    0.000    0.000    0.000    0.000    0.000    0.000 
#
# Total GULP energy -545097.293825 kJ/mol
# GULP energy per Si atom -12388.574860 kJ/mol
# Density = 2.007543 g / cm^3
# Si number density = 20.121231 Si / 1000 Ang^3
#
#
#
# Elastic Constant Matrix: (Units=GPa)
#
#
# Indices 1 2 3 4 5 6 
#
# 1 97.1237 39.2646 49.9801 0.0000 0.0000 -4.3885
# 2 39.2646 97.1237 49.9801 0.0000 0.0000 4.3885
# 3 49.9801 49.9801 154.0204 0.0000 0.0000 0.0000
# 4 0.0000 0.0000 0.0000 32.6420 0.0000 0.0000
# 5 0.0000 0.0000 0.0000 0.0000 32.6420 0.0000
# 6 -4.3885 4.3885 0.0000 0.0000 0.0000 22.9313
#
#
#
# Elastic Compliance Matrix: (Units=1/GPa)
#
#
# Indices 1 2 3 4 5 6 
#
# 1 0.013710 -0.004090 -0.003122 0.000000 0.000000 0.003407
# 2 -0.004090 0.013710 -0.003122 0.000000 0.000000 -0.003407
# 3 -0.003122 -0.003122 0.008519 0.000000 0.000000 0.000000
# 4 0.000000 0.000000 0.000000 0.030635 0.000000 0.000000
# 5 0.000000 0.000000 0.000000 0.000000 0.030635 0.000000
# 6 0.003407 -0.003407 0.000000 0.000000 0.000000 0.044912
#
#
# Mechanical properties :
#
#
# Convention : Reuss Voigt Hill
#
# Bulk Modulus (GPa) = 65.48057 69.63531 67.55794
# Shear Modulus (GPa) = 29.78328 31.57926 30.68127
#
# Velocity S-wave (km/s) = 3.85150 3.96593 3.90913
# Velocity P-wave (km/s) = 7.23826 7.46019 7.35006
#
# Compressibility (1/GPa) = 0.01527171
#
# Stress axis : x y z
#
# Youngs Moduli (GPa) = 72.93933 72.93933 117.38953
#
# Poissons Ratio (x) = 0.29833 0.36645
# Poissons Ratio (y) = 0.29833 0.36645
# Poissons Ratio (z) = 0.22769 0.22769
#
# Static dielectric constant tensor:
#      x y z
#    x 3.695650 0.000000 0.000000 
#    y 0.000000 3.695650 0.000000 
#    z 0.000000 0.000000 4.071730 
# 
# 
# High freq. dielectric constant tensor:
#      x y z
#    x 1.776340 0.000000 0.000000 
#    y 0.000000 1.776340 0.000000 
#    z 0.000000 0.000000 1.797920 
# 
# From -- ./inp_files/3677.got.cif
#   From: 2010.03.12/outbox.cif.g09.slc.cpg/sg87_2_cif.got.tgz:3677.got - 2010.04.08 20:16:13.
