data_PCOD8303033
_publ_section_title
;
Structure prediction by ZEFSAII (Michael W. Deem and Ramdas Pophale) SiO2 
 PCOD8303033
Probable space group: P 4/M
;
_chemical_formula_sum "Si O2"
_cell_formula_units_Z 40
_cell_length_a 8.740311
_cell_length_b 8.740311
_cell_length_c 26.688418
_cell_angle_alpha 90.000000
_cell_angle_beta 90.000000
_cell_angle_gamma 90.000000
_cell_volume 2038.809287
_symmetry_space_group_name_H-M "P 4/M"
_symmetry_group_IT_number 83
_symmetry_cell_setting 'tetragonal'
loop_
_space_group_symop_operation_xyz
x,y,z
-y,x,z
-x,-y,z
y,-x,z
-x,-y,-z
y,-x,-z
x,y,-z
-y,x,-z
loop_
_atom_site_type_symbol
_atom_site_label
_atom_site_fract_x
_atom_site_fract_y
_atom_site_fract_z
Si Si1 0.262663 0.578500 0.557263
Si Si2 0.062571 0.758020 0.256272
Si Si3 0.926972 0.239490 0.629802
Si Si4 0.442110 0.744362 0.000000
Si Si5 0.000000 0.500000 0.816029
Si Si6 0.557511 0.252013 0.891722
O O1 0.310312 0.405240 0.568462
O O2 0.208936 0.597281 0.500000
O O3 0.121256 0.623023 0.593038
O O4 0.084745 0.701255 0.313205
O O5 0.891317 0.816600 0.246174
O O6 0.092754 0.618728 0.218684
O O7 0.099002 0.187347 0.619167
O O8 0.320452 0.610777 0.000000
O O9 0.421683 0.831353 0.946694
O O10 0.123305 0.411903 0.850256
O O11 0.680755 0.386727 0.885529
#
# Coordination Sequence:
#
# PCOD8303033 Si02
#       6
#     8   8   8   4   4   8
#     4   9  19  35  53  76 106 133 157 194 247 299
#     4   9  20  37  51  68  99 134 165 201 249 297
#     4   9  19  35  53  72  96 129 169 207 239 285
#     4   7  12  27  48  66  94 134 162 192 244 294
#     4  12  20  29  52  78  97 126 166 210 250 290
#     4   9  18  32  49  72 101 130 164 204 245 292
#
# _framework density 19.619295000000001
#
# number of rings (size 3 to 8) (size 9 to 14) (size 15 to 20)
#    0.000    2.900    0.000    4.200    0.000    5.200 
#    0.000    3.000    0.000    2.400    0.000    0.000 
#    0.000   12.800    0.000    0.000    0.000    0.000 
#
# Total GULP energy -495730.929190 kJ/mol
# GULP energy per Si atom -12393.273230 kJ/mol
# Density = 1.957464 g / cm^3
# Si number density = 19.619295 Si / 1000 Ang^3
#
#
#
# Elastic Constant Matrix: (Units=GPa)
#
#
# Indices 1 2 3 4 5 6 
#
# 1 39.7786 6.5415 38.1678 0.0000 0.0000 -2.1128
# 2 6.5415 39.7786 38.1678 0.0000 0.0000 2.1128
# 3 38.1678 38.1678 130.9585 0.0000 0.0000 0.0000
# 4 0.0000 0.0000 0.0000 21.8499 0.0000 0.0000
# 5 0.0000 0.0000 0.0000 0.0000 21.8499 0.0000
# 6 -2.1128 2.1128 0.0000 0.0000 0.0000 24.9738
#
#
#
# Elastic Compliance Matrix: (Units=1/GPa)
#
#
# Indices 1 2 3 4 5 6 
#
# 1 0.035978 0.005564 -0.012107 0.000000 0.000000 0.002573
# 2 0.005564 0.035978 -0.012107 0.000000 0.000000 -0.002573
# 3 -0.012107 -0.012107 0.014693 0.000000 0.000000 0.000000
# 4 0.000000 0.000000 0.000000 0.045767 0.000000 0.000000
# 5 0.000000 0.000000 0.000000 0.000000 0.045767 0.000000
# 6 0.002573 -0.002573 0.000000 0.000000 0.000000 0.040477
#
#
# Mechanical properties :
#
#
# Convention : Reuss Voigt Hill
#
# Bulk Modulus (GPa) = 20.26437 41.80774 31.03605
# Shear Modulus (GPa) = 18.35462 22.24395 20.29928
#
# Velocity S-wave (km/s) = 3.06198 3.37082 3.22010
# Velocity P-wave (km/s) = 4.78039 6.04199 5.44783
#
# Compressibility (1/GPa) = 0.04934771
#
# Stress axis : x y z
#
# Youngs Moduli (GPa) = 27.79483 27.79483 68.05796
#
# Poissons Ratio (x) = -0.15465 0.82400
# Poissons Ratio (y) = -0.15465 0.82400
# Poissons Ratio (z) = 0.33652 0.33652
#
# Static dielectric constant tensor:
#      x y z
#    x 3.244110 0.000000 0.000000 
#    y 0.000000 3.244110 0.000000 
#    z 0.000000 0.000000 3.774380 
# 
# 
# High freq. dielectric constant tensor:
#      x y z
#    x 1.741960 0.000000 0.000000 
#    y 0.000000 1.741960 0.000000 
#    z 0.000000 0.000000 1.778880 
# 
# From -- ./inp_files/3280.got.cif
#   From: 2010.03.12/outbox.cif.g09.slc.cpg/sg83_2_cif.got.tgz:3280.got - 2010.04.08 20:05:18.
