data_PCOD8303340
_publ_section_title
;
Structure prediction by ZEFSAII (Michael W. Deem and Ramdas Pophale) SiO2 
 PCOD8303340
Probable space group: P 42/M
;
_chemical_formula_sum "Si O2"
_cell_formula_units_Z 48
_cell_length_a 8.242073
_cell_length_b 8.242073
_cell_length_c 31.073497
_cell_angle_alpha 90.000000
_cell_angle_beta 90.000000
_cell_angle_gamma 90.000000
_cell_volume 2110.877569
_symmetry_space_group_name_H-M "P 42/M"
_symmetry_group_IT_number 84
_symmetry_cell_setting 'tetragonal'
loop_
_space_group_symop_operation_xyz
x,y,z
-y,x,1/2+z
-x,-y,z
y,-x,1/2+z
-x,-y,-z
y,-x,1/2-z
x,y,-z
-y,x,1/2-z
loop_
_atom_site_type_symbol
_atom_site_label
_atom_site_fract_x
_atom_site_fract_y
_atom_site_fract_z
Si Si1 0.826832 0.817867 0.180765
Si Si2 0.467955 0.314913 0.326453
Si Si3 0.328222 0.348016 0.950449
Si Si4 0.676072 0.318396 0.914780
Si Si5 0.911286 0.332367 0.764992
Si Si6 0.967715 0.177153 0.588055
O O1 0.776196 0.637970 0.166245
O O2 0.704733 0.898193 0.214787
O O3 0.825110 0.934200 0.139339
O O4 0.998459 0.805907 0.206375
O O5 0.500000 0.500000 0.320575
O O6 0.351407 0.272270 0.366125
O O7 0.362486 0.266243 0.284711
O O8 0.483439 0.330217 0.919815
O O9 0.248317 0.528631 0.942513
O O10 0.220971 0.193760 0.938273
O O11 0.380066 0.335462 0.000000
O O12 0.724978 0.131852 0.925476
O O13 0.000000 0.500000 0.770910
O O14 0.000000 0.000000 0.571062
#
# Coordination Sequence:
#
# PCOD8303340 Si02
#       6
#     8   8   8   8   8   8
#     4  11  25  45  62  94 144 183 238 286 350 415
#     4  11  22  41  68  96 133 172 234 296 352 410
#     4  11  25  49  75 107 141 180 235 303 371 439
#     4  11  22  45  75 106 136 182 239 297 362 432
#     4  10  26  40  62  96 131 188 234 288 344 411
#     4  12  27  44  71 106 145 193 234 289 361 441
#
# _framework density 22.739356999999998
#
# number of rings (size 3 to 8) (size 9 to 14) (size 15 to 20)
#    0.000    1.000    3.333    2.500    9.333    4.333 
#    0.000    0.833    0.000    0.000    0.000    0.000 
#    0.000    0.000    0.000    0.000    0.000    0.000 
#
# Total GULP energy -594719.742539 kJ/mol
# GULP energy per Si atom -12389.994636 kJ/mol
# Density = 2.268760 g / cm^3
# Si number density = 22.739357 Si / 1000 Ang^3
#
#
#
# Elastic Constant Matrix: (Units=GPa)
#
#
# Indices 1 2 3 4 5 6 
#
# 1 110.0038 34.7977 26.5643 0.0000 0.0000 1.5252
# 2 34.7977 110.0038 26.5643 0.0000 0.0000 -1.5252
# 3 26.5643 26.5643 90.6186 0.0000 0.0000 0.0000
# 4 0.0000 0.0000 0.0000 -11.9493 0.0000 0.0000
# 5 0.0000 0.0000 0.0000 0.0000 -11.9493 0.0000
# 6 1.5252 -1.5252 0.0000 0.0000 0.0000 33.1523
#
#
#
# Elastic Compliance Matrix: (Units=1/GPa)
#
#
# Indices 1 2 3 4 5 6 
#
# 1 0.010530 -0.002792 -0.002268 0.000000 0.000000 -0.000613
# 2 -0.002792 0.010530 -0.002268 0.000000 0.000000 0.000613
# 3 -0.002268 -0.002268 0.012365 0.000000 0.000000 0.000000
# 4 0.000000 0.000000 0.000000 -0.083687 0.000000 0.000000
# 5 0.000000 0.000000 0.000000 0.000000 -0.083687 0.000000
# 6 -0.000613 0.000613 0.000000 0.000000 0.000000 0.030220
#
#
# Mechanical properties :
#
#
# Convention : Reuss Voigt Hill
#
# Bulk Modulus (GPa) = 53.28193 54.05319 53.66756
# Shear Modulus (GPa) = -60.37559 16.69739 -21.83910
#
# Velocity S-wave (km/s) = -5.15837 2.71273 -3.10241
# Velocity P-wave (km/s) = 3.46351 5.79950 3.28925
#
# Compressibility (1/GPa) = 0.01876809
#
# Stress axis : x y z
#
# Youngs Moduli (GPa) = 94.96691 94.96691 80.87204
#
# Poissons Ratio (x) = 0.26512 0.18345
# Poissons Ratio (y) = 0.26512 0.18345
# Poissons Ratio (z) = 0.21543 0.21543
#
# Static dielectric constant tensor:
#      x y z
#    x 4.463480 0.000000 0.000000 
#    y 0.000000 4.463480 0.000000 
#    z 0.000000 0.000000 4.153650 
# 
# 
# High freq. dielectric constant tensor:
#      x y z
#    x 1.901700 0.000000 0.000000 
#    y 0.000000 1.901700 0.000000 
#    z 0.000000 0.000000 1.894760 
# 
# From -- ./inp_files/5789.got.cif
#   From: 2010.03.12/outbox.cif.g09.slc.cpg/sg84_3_cif.got.tgz:5789.got - 2010.04.08 20:07:29.
