data_PCOD8303646
_publ_section_title
;
Structure prediction by ZEFSAII (Michael W. Deem and Ramdas Pophale) SiO2 
 PCOD8303646
Probable space group: P 42/N
;
_chemical_formula_sum "Si O2"
_cell_formula_units_Z 38
_cell_length_a 13.685526
_cell_length_b 13.685526
_cell_length_c 8.915470
_cell_angle_alpha 90.000000
_cell_angle_beta 90.000000
_cell_angle_gamma 90.000000
_cell_volume 1669.810667
_symmetry_space_group_name_H-M "P 42/N"
_symmetry_group_IT_number 86
_space_group.IT_coordinate_system_code '2'
_symmetry_cell_setting 'tetragonal'
loop_
_space_group_symop_operation_xyz
x,y,z
-y,1/2+x,1/2+z
1/2-x,1/2-y,z
1/2+y,-x,1/2+z
-x,-y,-z
y,1/2-x,1/2-z
1/2+x,1/2+y,-z
1/2-y,x,1/2-z
loop_
_atom_site_type_symbol
_atom_site_label
_atom_site_fract_x
_atom_site_fract_y
_atom_site_fract_z
Si Si1 0.590662 0.621474 0.612510
Si Si2 0.750000 0.250000 0.629779
Si Si3 0.241072 0.603995 0.119479
Si Si4 0.043765 0.954020 0.148184
Si Si5 0.343267 0.126023 0.783538
Si Si6 0.750000 0.750000 0.750000
O O1 0.503659 0.698714 0.624664
O O2 0.563831 0.528714 0.714130
O O3 0.610548 0.596739 0.438581
O O4 0.693569 0.669745 0.654068
O O5 0.791949 0.337534 0.732262
O O6 0.662408 0.294025 0.528333
O O7 0.357581 0.601518 0.109572
O O8 0.966313 0.870635 0.185084
O O9 0.000000 0.000000 0.000000
O O10 0.225475 0.124700 0.801947
#
# Coordination Sequence:
#
# PCOD8303646 Si02
#       6
#     8   4   8   8   8   2
#     4  12  25  44  71 100 137 182 230 288 349 418
#     4  10  24  42  68  92 136 178 218 282 340 414
#     4  11  23  44  65  99 132 177 227 277 345 407
#     4  12  26  42  70 103 135 179 234 286 345 420
#     4  11  26  46  70 101 141 183 230 288 353 418
#     4  12  24  44  74  96 136 180 234 280 352 416
#
# _framework density 22.757069999999999
#
# number of rings (size 3 to 8) (size 9 to 14) (size 15 to 20)
#    0.000    0.632    2.105    5.684    2.947    5.053 
#    0.000    0.000    0.000    0.000    0.000    0.000 
#    0.000    0.000    0.000    0.000    0.000    0.000 
#
# Total GULP energy -471211.299847 kJ/mol
# GULP energy per Si atom -12400.297364 kJ/mol
# Density = 2.270527 g / cm^3
# Si number density = 22.757070 Si / 1000 Ang^3
#
#
#
# Elastic Constant Matrix: (Units=GPa)
#
#
# Indices 1 2 3 4 5 6 
#
# 1 77.5026 9.9448 7.2419 0.0000 0.0000 2.6483
# 2 9.9448 77.5026 7.2419 0.0000 0.0000 -2.6483
# 3 7.2419 7.2419 119.8441 0.0000 0.0000 0.0000
# 4 0.0000 0.0000 0.0000 32.3391 0.0000 0.0000
# 5 0.0000 0.0000 0.0000 0.0000 32.3391 0.0000
# 6 2.6483 -2.6483 0.0000 0.0000 0.0000 42.0939
#
#
#
# Elastic Compliance Matrix: (Units=1/GPa)
#
#
# Indices 1 2 3 4 5 6 
#
# 1 0.013213 -0.001662 -0.000698 0.000000 0.000000 -0.000936
# 2 -0.001662 0.013213 -0.000698 0.000000 0.000000 0.000936
# 3 -0.000698 -0.000698 0.008429 0.000000 0.000000 0.000000
# 4 0.000000 0.000000 0.000000 0.030922 0.000000 0.000000
# 5 0.000000 0.000000 0.000000 0.000000 0.030922 0.000000
# 6 -0.000936 0.000936 0.000000 0.000000 0.000000 0.023874
#
#
# Mechanical properties :
#
#
# Convention : Reuss Voigt Hill
#
# Bulk Modulus (GPa) = 34.79636 35.96738 35.38187
# Shear Modulus (GPa) = 36.69191 38.04916 37.37054
#
# Velocity S-wave (km/s) = 4.01974 4.09341 4.05674
# Velocity P-wave (km/s) = 6.07190 6.17904 6.12571
#
# Compressibility (1/GPa) = 0.02873864
#
# Stress axis : x y z
#
# Youngs Moduli (GPa) = 75.68145 75.68145 118.64467
#
# Poissons Ratio (x) = 0.12580 0.08281
# Poissons Ratio (y) = 0.12580 0.08281
# Poissons Ratio (z) = 0.05283 0.05283
#
# Static dielectric constant tensor:
#      x y z
#    x 3.992820 0.000000 0.000000 
#    y 0.000000 3.992820 0.000000 
#    z 0.000000 0.000000 4.282260 
# 
# 
# High freq. dielectric constant tensor:
#      x y z
#    x 1.902370 0.000000 0.000000 
#    y 0.000000 1.902370 0.000000 
#    z 0.000000 0.000000 1.911810 
# 
# From -- ./inp_files/1068.got.cif
#   From: 2010.03.12/outbox.cif.g09.slc.cpg/sg86_1_cif.got.tgz:1068.got - 2010.04.08 20:12:58.
