data_PCOD8303294
_publ_section_title
;
Structure prediction by ZEFSAII (Michael W. Deem and Ramdas Pophale) SiO2 
 PCOD8303294
Probable space group: P 42/M
;
_chemical_formula_sum "Si O2"
_cell_formula_units_Z 34
_cell_length_a 9.984151
_cell_length_b 9.984151
_cell_length_c 17.759284
_cell_angle_alpha 90.000000
_cell_angle_beta 90.000000
_cell_angle_gamma 90.000000
_cell_volume 1770.303523
_symmetry_space_group_name_H-M "P 42/M"
_symmetry_group_IT_number 84
_symmetry_cell_setting 'tetragonal'
loop_
_space_group_symop_operation_xyz
x,y,z
-y,x,1/2+z
-x,-y,z
y,-x,1/2+z
-x,-y,-z
y,-x,1/2-z
x,y,-z
-y,x,1/2-z
loop_
_atom_site_type_symbol
_atom_site_label
_atom_site_fract_x
_atom_site_fract_y
_atom_site_fract_z
Si Si1 0.097014 0.364534 0.500000
Si Si2 0.655813 0.462390 0.500000
Si Si3 0.456909 0.859913 0.741423
Si Si4 0.973012 0.759789 0.349283
Si Si5 0.676421 0.735347 0.155280
Si Si6 0.000000 0.000000 0.250000
O O1 0.252067 0.405982 0.500000
O O2 0.076618 0.258772 0.433458
O O3 0.000000 0.500000 0.500000
O O4 0.500000 0.500000 0.500000
O O5 0.693059 0.382625 0.575253
O O6 0.367184 0.909601 0.809678
O O7 0.386079 0.770610 0.679260
O O8 0.569800 0.766196 0.778905
O O9 0.500000 0.000000 0.701152
O O10 0.133282 0.766323 0.352786
O O11 0.925744 0.892917 0.304674
#
# Coordination Sequence:
#
# PCOD8303294 Si02
#       6
#     4   4   8   8   8   2
#     4  12  20  43  70  90 128 179 221 261 328 398
#     4  12  26  40  61  99 130 163 218 278 326 388
#     4  10  22  37  63  92 124 170 217 271 326 391
#     4  11  21  40  66  93 125 170 221 270 313 398
#     4  11  22  40  63  90 127 171 216 266 331 392
#     4  12  24  38  64 100 132 162 216 284 328 366
#
# _framework density 19.205746999999999
#
# number of rings (size 3 to 8) (size 9 to 14) (size 15 to 20)
#    0.000    0.941    7.059    0.706    3.294    0.471 
#    0.000    0.588    0.000    0.000    0.000    0.000 
#    0.000    0.000    0.000    0.000    0.000    0.000 
#
# Total GULP energy -421315.546144 kJ/mol
# GULP energy per Si atom -12391.633710 kJ/mol
# Density = 1.916203 g / cm^3
# Si number density = 19.205747 Si / 1000 Ang^3
#
#
#
# Elastic Constant Matrix: (Units=GPa)
#
#
# Indices 1 2 3 4 5 6 
#
# 1 96.4901 40.9195 53.3988 0.0000 0.0000 -2.3671
# 2 40.9195 96.4901 53.3988 0.0000 0.0000 2.3671
# 3 53.3988 53.3988 128.4822 0.0000 0.0000 0.0000
# 4 0.0000 0.0000 0.0000 31.3684 0.0000 0.0000
# 5 0.0000 0.0000 0.0000 0.0000 31.3684 0.0000
# 6 -2.3671 2.3671 0.0000 0.0000 0.0000 34.6764
#
#
#
# Elastic Compliance Matrix: (Units=1/GPa)
#
#
# Indices 1 2 3 4 5 6 
#
# 1 0.014425 -0.003675 -0.004468 0.000000 0.000000 0.001236
# 2 -0.003675 0.014425 -0.004468 0.000000 0.000000 -0.001236
# 3 -0.004468 -0.004468 0.011497 0.000000 0.000000 0.000000
# 4 0.000000 0.000000 0.000000 0.031879 0.000000 0.000000
# 5 0.000000 0.000000 0.000000 0.000000 0.031879 0.000000
# 6 0.001236 -0.001236 0.000000 0.000000 0.000000 0.029007
#
#
# Mechanical properties :
#
#
# Convention : Reuss Voigt Hill
#
# Bulk Modulus (GPa) = 66.11299 68.54408 67.32853
# Shear Modulus (GPa) = 30.60423 31.06566 30.83494
#
# Velocity S-wave (km/s) = 3.99619 4.02620 4.01122
# Velocity P-wave (km/s) = 7.46934 7.57500 7.52235
#
# Compressibility (1/GPa) = 0.01512562
#
# Stress axis : x y z
#
# Youngs Moduli (GPa) = 69.32314 69.32314 86.97946
#
# Poissons Ratio (x) = 0.25478 0.38861
# Poissons Ratio (y) = 0.25478 0.38861
# Poissons Ratio (z) = 0.30972 0.30972
#
# Static dielectric constant tensor:
#      x y z
#    x 2.465890 0.000000 0.000000 
#    y 0.000000 2.465890 0.000000 
#    z 0.000000 0.000000 3.528830 
# 
# 
# High freq. dielectric constant tensor:
#      x y z
#    x 1.745020 0.000000 0.000000 
#    y 0.000000 1.745020 0.000000 
#    z 0.000000 0.000000 1.748890 
# 
# From -- ./inp_files/4291.got.cif
#   From: 2010.03.12/outbox.cif.g09.slc.cpg/sg84_3_cif.got.tgz:4291.got - 2010.04.08 20:07:29.
