data_PCOD8303562
_publ_section_title
;
Structure prediction by ZEFSAII (Michael W. Deem and Ramdas Pophale) SiO2 
 PCOD8303562
Probable space group: P 42/N
;
_chemical_formula_sum "Si O2"
_cell_formula_units_Z 48
_cell_length_a 9.130054
_cell_length_b 9.130054
_cell_length_c 29.350081
_cell_angle_alpha 90.000000
_cell_angle_beta 90.000000
_cell_angle_gamma 90.000000
_cell_volume 2446.560707
_symmetry_space_group_name_H-M "P 42/N"
_symmetry_group_IT_number 86
_space_group.IT_coordinate_system_code '2'
_symmetry_cell_setting 'tetragonal'
loop_
_space_group_symop_operation_xyz
x,y,z
-y,1/2+x,1/2+z
1/2-x,1/2-y,z
1/2+y,-x,1/2+z
-x,-y,-z
y,1/2-x,1/2-z
1/2+x,1/2+y,-z
1/2-y,x,1/2-z
loop_
_atom_site_type_symbol
_atom_site_label
_atom_site_fract_x
_atom_site_fract_y
_atom_site_fract_z
Si Si1 0.608192 0.427589 0.336940
Si Si2 0.776323 0.081636 0.518397
Si Si3 0.112207 0.350175 0.423894
Si Si4 0.956280 0.065085 0.438047
Si Si5 0.427911 0.414047 0.250886
Si Si6 0.415665 0.566831 0.161782
O O1 0.541037 0.476056 0.384979
O O2 0.515284 0.486091 0.293641
O O3 0.598345 0.254530 0.332282
O O4 0.773406 0.490725 0.339313
O O5 0.750000 0.250000 0.530233
O O6 0.798198 0.052065 0.463736
O O7 0.654254 0.971681 0.538421
O O8 0.932220 0.049115 0.540824
O O9 0.250000 0.250000 0.406677
O O10 0.999462 0.236119 0.446515
O O11 0.036444 0.437951 0.382329
O O12 0.452806 0.242133 0.244141
O O13 0.487966 0.486160 0.204736
#
# Coordination Sequence:
#
# PCOD8303562 Si02
#       6
#     8   8   8   8   8   8
#     4   9  18  34  54  80 114 142 184 228 275 338
#     4  10  21  35  55  83 111 147 188 238 282 330
#     4   9  19  34  58  82 111 147 191 238 275 335
#     4   9  20  37  56  80 112 151 186 235 283 331
#     4   9  18  29  54  83 105 134 180 238 277 320
#     4   9  18  31  55  85 106 146 185 223 279 333
#
# _framework density 19.619377
#
# number of rings (size 3 to 8) (size 9 to 14) (size 15 to 20)
#    0.000    2.833    0.000    0.000   14.000    0.667 
#    0.000    1.667    0.000    2.500    0.000    0.000 
#    0.000    0.000    0.000    0.000    0.000    0.000 
#
# Total GULP energy -594679.054672 kJ/mol
# GULP energy per Si atom -12389.146972 kJ/mol
# Density = 1.957472 g / cm^3
# Si number density = 19.619377 Si / 1000 Ang^3
#
#
#
# Elastic Constant Matrix: (Units=GPa)
#
#
# Indices 1 2 3 4 5 6 
#
# 1 67.1845 23.5169 53.9344 0.0000 0.0000 4.8603
# 2 23.5169 67.1845 53.9344 0.0000 0.0000 -4.8603
# 3 53.9344 53.9344 161.6072 0.0000 0.0000 0.0000
# 4 0.0000 0.0000 0.0000 23.4115 0.0000 0.0000
# 5 0.0000 0.0000 0.0000 0.0000 23.4115 0.0000
# 6 4.8603 -4.8603 0.0000 0.0000 0.0000 14.3427
#
#
#
# Elastic Compliance Matrix: (Units=1/GPa)
#
#
# Indices 1 2 3 4 5 6 
#
# 1 0.021525 -0.003244 -0.006101 0.000000 0.000000 -0.008393
# 2 -0.003244 0.021525 -0.006101 0.000000 0.000000 0.008393
# 3 -0.006101 -0.006101 0.010260 0.000000 0.000000 0.000000
# 4 0.000000 0.000000 0.000000 0.042714 0.000000 0.000000
# 5 0.000000 0.000000 0.000000 0.000000 0.042714 0.000000
# 6 -0.008393 0.008393 0.000000 0.000000 0.000000 0.075410
#
#
# Mechanical properties :
#
#
# Convention : Reuss Voigt Hill
#
# Bulk Modulus (GPa) = 44.60712 62.08306 53.34509
# Shear Modulus (GPa) = 19.80097 23.20583 21.50340
#
# Velocity S-wave (km/s) = 3.18032 3.44292 3.31422
# Velocity P-wave (km/s) = 6.02259 6.89328 6.47259
#
# Compressibility (1/GPa) = 0.02241795
#
# Stress axis : x y z
#
# Youngs Moduli (GPa) = 46.45793 46.45793 97.46439
#
# Poissons Ratio (x) = 0.15070 0.59464
# Poissons Ratio (y) = 0.15070 0.59464
# Poissons Ratio (z) = 0.28344 0.28344
#
# Static dielectric constant tensor:
#      x y z
#    x 3.508040 0.000000 0.000000 
#    y 0.000000 3.508040 0.000000 
#    z 0.000000 0.000000 3.862110 
# 
# 
# High freq. dielectric constant tensor:
#      x y z
#    x 1.740230 0.000000 0.000000 
#    y 0.000000 1.740230 0.000000 
#    z 0.000000 0.000000 1.774210 
# 
# From -- ./inp_files/5158.got.cif
#   From: 2010.03.12/outbox.cif.g09.slc.cpg/sg86_3_cif.got.tgz:5158.got - 2010.04.08 20:12:58.
