data_PCOD8303613
_publ_section_title
;
Structure prediction by ZEFSAII (Michael W. Deem and Ramdas Pophale) SiO2 
 PCOD8303613
Probable space group: P 42/N
;
_chemical_formula_sum "Si O2"
_cell_formula_units_Z 64
_cell_length_a 22.073246
_cell_length_b 22.073246
_cell_length_c 5.229145
_cell_angle_alpha 90.000000
_cell_angle_beta 90.000000
_cell_angle_gamma 90.000000
_cell_volume 2547.786848
_symmetry_space_group_name_H-M "P 42/N"
_symmetry_group_IT_number 86
_space_group.IT_coordinate_system_code '2'
_symmetry_cell_setting 'tetragonal'
loop_
_space_group_symop_operation_xyz
x,y,z
-y,1/2+x,1/2+z
1/2-x,1/2-y,z
1/2+y,-x,1/2+z
-x,-y,-z
y,1/2-x,1/2-z
1/2+x,1/2+y,-z
1/2-y,x,1/2-z
loop_
_atom_site_type_symbol
_atom_site_label
_atom_site_fract_x
_atom_site_fract_y
_atom_site_fract_z
Si Si1 0.944446 0.739431 0.833608
Si Si2 0.380924 0.031698 0.278527
Si Si3 0.077894 0.358160 0.537740
Si Si4 0.132525 0.812780 0.238298
Si Si5 0.679341 0.363646 0.274426
Si Si6 0.462985 0.586160 0.278617
Si Si7 0.332001 0.212334 0.820539
Si Si8 0.870529 0.015519 0.432152
O O1 0.943520 0.708865 0.552461
O O2 0.970544 0.807646 0.813466
O O3 0.876122 0.737028 0.953652
O O4 0.992296 0.695907 0.981665
O O5 0.403972 0.101230 0.293395
O O6 0.405029 0.011320 0.004995
O O7 0.416061 0.995044 0.502615
O O8 0.137933 0.346850 0.698859
O O9 0.029589 0.394256 0.713218
O O10 0.181092 0.825719 0.462212
O O11 0.109038 0.745155 0.270363
O O12 0.074811 0.853066 0.284801
O O13 0.161028 0.821628 0.960480
O O14 0.633177 0.419493 0.292764
O O15 0.419653 0.526725 0.336266
O O16 0.265809 0.183147 0.890326
#
# Coordination Sequence:
#
# PCOD8303613 Si02
#       8
#     8   8   8   8   8   8   8   8
#     4  11  26  43  73 103 149 196 248 305 377 446
#     4  12  28  48  75 107 146 191 247 308 365 441
#     4  11  27  43  71 106 144 192 250 301 375 445
#     4  11  24  42  69 102 138 183 232 293 357 446
#     4  11  24  42  68  99 141 180 236 288 367 424
#     4  11  27  47  73 103 142 191 250 299 368 426
#     4  10  22  43  70 103 149 192 247 310 381 450
#     4  10  26  46  70 100 139 193 243 304 363 439
#
# _framework density 25.119838999999999
#
# number of rings (size 3 to 8) (size 9 to 14) (size 15 to 20)
#    0.000    1.125    1.250    3.000   15.750    2.500 
#    0.000    1.250    0.000    0.000    0.000    0.000 
#    0.000    0.000    0.000    0.000    0.000    0.000 
#
# Total GULP energy -793004.322694 kJ/mol
# GULP energy per Si atom -12390.692542 kJ/mol
# Density = 2.506267 g / cm^3
# Si number density = 25.119839 Si / 1000 Ang^3
#
#
#
# Elastic Constant Matrix: (Units=GPa)
#
#
# Indices 1 2 3 4 5 6 
#
# 1 73.8844 14.4499 14.9358 0.0000 0.0000 -11.9337
# 2 14.4499 73.8844 14.9358 0.0000 0.0000 11.9337
# 3 14.9358 14.9358 82.5288 0.0000 0.0000 0.0000
# 4 0.0000 0.0000 0.0000 24.1776 0.0000 0.0000
# 5 0.0000 0.0000 0.0000 0.0000 24.1776 0.0000
# 6 -11.9337 11.9337 0.0000 0.0000 0.0000 11.0713
#
#
#
# Elastic Compliance Matrix: (Units=1/GPa)
#
#
# Indices 1 2 3 4 5 6 
#
# 1 0.020863 -0.008804 -0.002182 0.000000 0.000000 0.031978
# 2 -0.008804 0.020863 -0.002182 0.000000 0.000000 -0.031978
# 3 -0.002182 -0.002182 0.012907 0.000000 0.000000 0.000000
# 4 0.000000 0.000000 0.000000 0.041361 0.000000 0.000000
# 5 0.000000 0.000000 0.000000 0.000000 0.041361 0.000000
# 6 0.031978 -0.031978 0.000000 0.000000 0.000000 0.159261
#
#
# Mechanical properties :
#
#
# Convention : Reuss Voigt Hill
#
# Bulk Modulus (GPa) = 35.34221 35.43787 35.39004
# Shear Modulus (GPa) = 15.04287 24.28371 19.66329
#
# Velocity S-wave (km/s) = 2.44978 3.11258 2.80085
# Velocity P-wave (km/s) = 4.70127 5.20150 4.95770
#
# Compressibility (1/GPa) = 0.02829478
#
# Stress axis : x y z
#
# Youngs Moduli (GPa) = 47.93253 47.93253 77.47800
#
# Poissons Ratio (x) = 0.42200 0.16908
# Poissons Ratio (y) = 0.42200 0.16908
# Poissons Ratio (z) = 0.10460 0.10460
#
# Static dielectric constant tensor:
#      x y z
#    x 4.612860 0.000000 0.000000 
#    y 0.000000 4.612860 0.000000 
#    z 0.000000 0.000000 4.636830 
# 
# 
# High freq. dielectric constant tensor:
#      x y z
#    x 2.007950 0.000000 0.000000 
#    y 0.000000 2.007950 0.000000 
#    z 0.000000 0.000000 1.995430 
# 
# From -- ./inp_files/548.got.cif
#   From: 2010.03.12/outbox.cif.g09.slc.cpg/sg86_1_cif.got.tgz:548.got - 2010.04.08 20:12:58.
