data_PCOD8303865
_publ_section_title
;
Structure prediction by ZEFSAII (Michael W. Deem and Ramdas Pophale) SiO2 
 PCOD8303865
Probable space group: I 4/M
;
_chemical_formula_sum "Si O2"
_cell_formula_units_Z 104
_cell_length_a 18.084804
_cell_length_b 18.084804
_cell_length_c 17.492640
_cell_angle_alpha 90.000000
_cell_angle_beta 90.000000
_cell_angle_gamma 90.000000
_cell_volume 5721.145212
_symmetry_space_group_name_H-M "I 4/M"
_symmetry_group_IT_number 87
_symmetry_cell_setting 'tetragonal'
loop_
_space_group_symop_operation_xyz
x,y,z
-y,x,z
-x,-y,z
y,-x,z
-x,-y,-z
y,-x,-z
x,y,-z
-y,x,-z
1/2+x,1/2+y,1/2+z
1/2-y,1/2+x,1/2+z
1/2-x,1/2-y,1/2+z
1/2+y,1/2-x,1/2+z
1/2-x,1/2-y,1/2-z
1/2+y,1/2-x,1/2-z
1/2+x,1/2+y,1/2-z
1/2-y,1/2+x,1/2-z
loop_
_atom_site_type_symbol
_atom_site_label
_atom_site_fract_x
_atom_site_fract_y
_atom_site_fract_z
Si Si1 0.938262 0.107196 0.000000
Si Si2 0.858115 0.592310 0.831631
Si Si3 0.111040 0.782177 0.869531
Si Si4 0.823078 0.219103 0.712275
Si Si5 0.730223 0.165575 0.412750
Si Si6 0.987311 0.350244 0.173892
Si Si7 0.889573 0.452725 0.913547
O O1 0.912212 0.150307 0.076209
O O2 0.026963 0.100024 0.000000
O O3 0.782373 0.636374 0.836419
O O4 0.855898 0.537889 0.760299
O O5 0.869605 0.538835 0.903984
O O6 0.923929 0.652382 0.827805
O O7 0.126415 0.812005 0.782346
O O8 0.183910 0.741641 0.902445
O O9 0.044335 0.722658 0.867792
O O10 0.750000 0.250000 0.750000
O O11 0.799561 0.160745 0.646483
O O12 0.758769 0.160076 0.500000
O O13 0.680501 0.096377 0.388742
O O14 0.960819 0.426070 0.133671
O O15 0.910504 0.436892 0.000000
#
# Coordination Sequence:
#
# PCOD8303865 Si02
#       7
#     8  16  16  16  16  16  16
#     4  11  24  42  60  82 113 148 188 244 297 328
#     4  11  20  33  50  80 110 141 182 224 270 334
#     4   9  19  37  53  79 109 142 188 233 275 340
#     4   9  20  34  54  80 105 139 190 235 272 325
#     4   9  17  35  57  74 109 149 183 228 284 330
#     4  10  20  32  53  76 110 149 178 215 277 337
#     4  10  21  34  51  76 114 147 179 222 277 335
#
# _framework density 18.178179
#
# number of rings (size 3 to 8) (size 9 to 14) (size 15 to 20)
#    0.000    2.231    2.308    1.385    1.077    4.308 
#    2.769    0.000    0.000    0.000    0.000    0.000 
#    0.000    0.000    0.000    5.077    0.000    0.000 
#
# Total GULP energy -644541.894012 kJ/mol
# GULP energy per Si atom -12395.036423 kJ/mol
# Density = 1.813680 g / cm^3
# Si number density = 18.178179 Si / 1000 Ang^3
#
#
#
# Elastic Constant Matrix: (Units=GPa)
#
#
# Indices 1 2 3 4 5 6 
#
# 1 55.3796 21.5560 26.3252 0.0000 0.0000 8.1194
# 2 21.5560 55.3796 26.3252 0.0000 0.0000 -8.1194
# 3 26.3252 26.3252 74.7491 0.0000 0.0000 0.0000
# 4 0.0000 0.0000 0.0000 27.2279 0.0000 0.0000
# 5 0.0000 0.0000 0.0000 0.0000 27.2279 0.0000
# 6 8.1194 -8.1194 0.0000 0.0000 0.0000 11.4229
#
#
#
# Elastic Compliance Matrix: (Units=1/GPa)
#
#
# Indices 1 2 3 4 5 6 
#
# 1 0.031003 -0.013878 -0.006031 0.000000 0.000000 -0.031901
# 2 -0.013878 0.031003 -0.006031 0.000000 0.000000 0.031901
# 3 -0.006031 -0.006031 0.017626 0.000000 0.000000 0.000000
# 4 0.000000 0.000000 0.000000 0.036727 0.000000 0.000000
# 5 0.000000 0.000000 0.000000 0.000000 0.036727 0.000000
# 6 -0.031901 0.031901 0.000000 0.000000 0.000000 0.132894
#
#
# Mechanical properties :
#
#
# Convention : Reuss Voigt Hill
#
# Bulk Modulus (GPa) = 36.03339 37.10233 36.56786
# Shear Modulus (GPa) = 14.40456 20.59588 17.50022
#
# Velocity S-wave (km/s) = 2.81803 3.36966 3.10611
# Velocity P-wave (km/s) = 5.51849 5.96608 5.74665
#
# Compressibility (1/GPa) = 0.02775203
#
# Stress axis : x y z
#
# Youngs Moduli (GPa) = 32.25474 32.25474 56.73367
#
# Poissons Ratio (x) = 0.44763 0.34217
# Poissons Ratio (y) = 0.44763 0.34217
# Poissons Ratio (z) = 0.19453 0.19453
#
# Static dielectric constant tensor:
#      x y z
#    x 3.578460 0.000000 0.000000 
#    y 0.000000 3.578460 0.000000 
#    z 0.000000 0.000000 3.323160 
# 
# 
# High freq. dielectric constant tensor:
#      x y z
#    x 1.680990 0.000000 0.000000 
#    y 0.000000 1.680990 0.000000 
#    z 0.000000 0.000000 1.715420 
# 
# From -- ./inp_files/4511.got.cif
#   From: 2010.03.12/outbox.cif.g09.slc.cpg/sg87_3_cif.got.tgz:4511.got - 2010.04.08 20:16:13.
