data_PCOD8303313
_publ_section_title
;
Structure prediction by ZEFSAII (Michael W. Deem and Ramdas Pophale) SiO2 
 PCOD8303313
Probable space group: P 42/M
;
_chemical_formula_sum "Si O2"
_cell_formula_units_Z 40
_cell_length_a 14.109526
_cell_length_b 14.109526
_cell_length_c 9.576292
_cell_angle_alpha 90.000000
_cell_angle_beta 90.000000
_cell_angle_gamma 90.000000
_cell_volume 1906.435991
_symmetry_space_group_name_H-M "P 42/M"
_symmetry_group_IT_number 84
_symmetry_cell_setting 'tetragonal'
loop_
_space_group_symop_operation_xyz
x,y,z
-y,x,1/2+z
-x,-y,z
y,-x,1/2+z
-x,-y,-z
y,-x,1/2-z
x,y,-z
-y,x,1/2-z
loop_
_atom_site_type_symbol
_atom_site_label
_atom_site_fract_x
_atom_site_fract_y
_atom_site_fract_z
Si Si1 0.941043 0.116335 0.000000
Si Si2 0.911412 0.144240 0.500000
Si Si3 0.980372 0.605583 0.160697
Si Si4 0.133978 0.754705 0.225772
Si Si5 0.374285 0.459868 0.333365
Si Si6 0.662971 0.197937 0.161095
O O1 0.891431 0.154043 0.863268
O O2 0.051032 0.156175 0.000000
O O3 0.917084 0.006447 0.000000
O O4 0.897969 0.218133 0.378299
O O5 0.897444 0.653470 0.250060
O O6 0.000000 0.500000 0.216502
O O7 0.079238 0.661391 0.175765
O O8 0.947716 0.603909 0.000000
O O9 0.246817 0.740487 0.212799
O O10 0.385266 0.558484 0.249475
O O11 0.400885 0.467413 0.500000
O O12 0.265501 0.427816 0.318408
O O13 0.675201 0.168363 0.000000
#
# Coordination Sequence:
#
# PCOD8303313 Si02
#       6
#     4   4   8   8   8   8
#     4  11  20  40  65  88 134 165 217 270 324 378
#     4  11  24  36  63  98 124 171 215 270 322 386
#     4  11  26  46  69  98 134 177 224 276 336 401
#     4  12  24  42  64  94 132 172 223 269 328 391
#     4  10  22  42  69 100 131 167 217 276 338 396
#     4  11  25  44  69  96 135 178 219 274 333 396
#
# _framework density 20.981556999999999
#
# number of rings (size 3 to 8) (size 9 to 14) (size 15 to 20)
#    0.000    1.000    2.000    4.800    5.600    3.600 
#    0.000    0.000    0.000    0.000    0.000    0.000 
#    0.000    0.000    0.000    0.000    0.000    0.000 
#
# Total GULP energy -495831.740465 kJ/mol
# GULP energy per Si atom -12395.793512 kJ/mol
# Density = 2.093380 g / cm^3
# Si number density = 20.981557 Si / 1000 Ang^3
#
#
#
# Elastic Constant Matrix: (Units=GPa)
#
#
# Indices 1 2 3 4 5 6 
#
# 1 87.0510 26.7373 30.4266 0.0000 0.0000 4.0664
# 2 26.7373 87.0510 30.4266 0.0000 0.0000 -4.0664
# 3 30.4266 30.4266 142.6036 0.0000 0.0000 0.0000
# 4 0.0000 0.0000 0.0000 255.5182 0.0000 0.0000
# 5 0.0000 0.0000 0.0000 0.0000 255.5182 0.0000
# 6 4.0664 -4.0664 0.0000 0.0000 0.0000 35.6622
#
#
#
# Elastic Compliance Matrix: (Units=1/GPa)
#
#
# Indices 1 2 3 4 5 6 
#
# 1 0.013380 -0.003459 -0.002117 0.000000 0.000000 -0.001920
# 2 -0.003459 0.013380 -0.002117 0.000000 0.000000 0.001920
# 3 -0.002117 -0.002117 0.007916 0.000000 0.000000 0.000000
# 4 0.000000 0.000000 0.000000 0.003914 0.000000 0.000000
# 5 0.000000 0.000000 0.000000 0.000000 0.003914 0.000000
# 6 -0.001920 0.001920 0.000000 0.000000 0.000000 0.028479
#
#
# Mechanical properties :
#
#
# Convention : Reuss Voigt Hill
#
# Bulk Modulus (GPa) = 51.84146 54.65409 53.24777
# Shear Modulus (GPa) = 53.88178 124.61407 89.24792
#
# Velocity S-wave (km/s) = 5.07310 7.71499 6.52907
# Velocity P-wave (km/s) = 7.68614 10.26970 9.07038
#
# Compressibility (1/GPa) = 0.01928958
#
# Stress axis : x y z
#
# Youngs Moduli (GPa) = 74.74098 74.74098 126.33170
#
# Poissons Ratio (x) = 0.25855 0.26740
# Poissons Ratio (y) = 0.25855 0.26740
# Poissons Ratio (z) = 0.15820 0.15820
#
# Static dielectric constant tensor:
#      x y z
#    x 3.780050 0.000000 0.000000 
#    y 0.000000 3.780050 0.000000 
#    z 0.000000 0.000000 3.863590 
# 
# 
# High freq. dielectric constant tensor:
#      x y z
#    x 1.821940 0.000000 0.000000 
#    y 0.000000 1.821940 0.000000 
#    z 0.000000 0.000000 1.835060 
# 
# From -- ./inp_files/847.got.cif
#   From: 2010.03.12/outbox.cif.g09.slc.cpg/sg84_1_cif.got.tgz:847.got - 2010.04.08 20:07:29.
