data_PCOD8303976
_publ_section_title
;
Structure prediction by ZEFSAII (Michael W. Deem and Ramdas Pophale) SiO2 
 PCOD8303976
Probable space group: I 4/M
;
_chemical_formula_sum "Si O2"
_cell_formula_units_Z 96
_cell_length_a 23.974202
_cell_length_b 23.974202
_cell_length_c 8.867434
_cell_angle_alpha 90.000000
_cell_angle_beta 90.000000
_cell_angle_gamma 90.000000
_cell_volume 5096.667307
_symmetry_space_group_name_H-M "I 4/M"
_symmetry_group_IT_number 87
_symmetry_cell_setting 'tetragonal'
loop_
_space_group_symop_operation_xyz
x,y,z
-y,x,z
-x,-y,z
y,-x,z
-x,-y,-z
y,-x,-z
x,y,-z
-y,x,-z
1/2+x,1/2+y,1/2+z
1/2-y,1/2+x,1/2+z
1/2-x,1/2-y,1/2+z
1/2+y,1/2-x,1/2+z
1/2-x,1/2-y,1/2-z
1/2+y,1/2-x,1/2-z
1/2+x,1/2+y,1/2-z
1/2-y,1/2+x,1/2-z
loop_
_atom_site_type_symbol
_atom_site_label
_atom_site_fract_x
_atom_site_fract_y
_atom_site_fract_z
Si Si1 0.016581 0.086468 0.679393
Si Si2 0.208420 0.956632 0.320482
Si Si3 0.482712 0.919795 0.822575
Si Si4 0.049253 0.705559 0.323215
Si Si5 0.262107 0.164450 0.177388
Si Si6 0.229421 0.832570 0.677775
O O1 0.017226 0.088734 0.500000
O O2 0.028310 0.147589 0.746730
O O3 0.956204 0.064639 0.735413
O O4 0.207350 0.956608 0.500000
O O5 0.226676 0.895779 0.261464
O O6 0.252217 0.002269 0.261700
O O7 0.543285 0.935302 0.757423
O O8 0.471559 0.855949 0.783936
O O9 0.481782 0.931700 0.000000
O O10 0.059770 0.713653 0.500000
O O11 0.105989 0.716663 0.237093
O O12 0.202257 0.179296 0.247868
O O13 0.307371 0.210983 0.225916
O O14 0.255259 0.161574 0.000000
O O15 0.220294 0.829871 0.500000
#
# Coordination Sequence:
#
# PCOD8303976 Si02
#       6
#    16  16  16  16  16  16
#     4   8  14  24  41  71 105 131 161 208 263 310
#     4   9  18  31  51  78 105 139 178 224 273 317
#     4  10  21  37  58  81 109 145 184 230 279 333
#     4  10  22  36  55  83 111 142 185 229 272 327
#     4  10  21  36  56  80 110 147 182 225 277 328
#     4   9  19  36  58  80 106 142 183 227 275 325
#
# _framework density 18.835837999999999
#
# number of rings (size 3 to 8) (size 9 to 14) (size 15 to 20)
#    0.000    2.667    0.000    2.000    4.667    2.000 
#    0.000    0.833    0.000    0.000    0.000    0.000 
#    0.000    1.333    0.000    0.000    0.000    0.000 
#
# Total GULP energy -595204.701195 kJ/mol
# GULP energy per Si atom -12400.097942 kJ/mol
# Density = 1.879297 g / cm^3
# Si number density = 18.835838 Si / 1000 Ang^3
#
#
#
# Elastic Constant Matrix: (Units=GPa)
#
#
# Indices 1 2 3 4 5 6 
#
# 1 151.5908 76.4679 26.9513 0.0000 0.0000 -1.0642
# 2 76.4679 151.5908 26.9513 0.0000 0.0000 1.0642
# 3 26.9513 26.9513 31.3783 0.0000 0.0000 0.0000
# 4 0.0000 0.0000 0.0000 20.4045 0.0000 0.0000
# 5 0.0000 0.0000 0.0000 0.0000 20.4045 0.0000
# 6 -1.0642 1.0642 0.0000 0.0000 0.0000 24.5026
#
#
#
# Elastic Compliance Matrix: (Units=1/GPa)
#
#
# Indices 1 2 3 4 5 6 
#
# 1 0.009415 -0.003913 -0.004726 0.000000 0.000000 0.000579
# 2 -0.003913 0.009415 -0.004726 0.000000 0.000000 -0.000579
# 3 -0.004726 -0.004726 0.039987 0.000000 0.000000 0.000000
# 4 0.000000 0.000000 0.000000 0.049009 0.000000 0.000000
# 5 0.000000 0.000000 0.000000 0.000000 0.049009 0.000000
# 6 0.000579 -0.000579 0.000000 0.000000 0.000000 0.040862
#
#
# Mechanical properties :
#
#
# Convention : Reuss Voigt Hill
#
# Bulk Modulus (GPa) = 31.16416 66.14455 48.65436
# Shear Modulus (GPa) = 21.26565 26.67492 23.97029
#
# Velocity S-wave (km/s) = 3.36370 3.76730 3.57121
# Velocity P-wave (km/s) = 5.62735 7.35635 6.54916
#
# Compressibility (1/GPa) = 0.03208814
#
# Stress axis : x y z
#
# Youngs Moduli (GPa) = 106.21542 106.21542 25.00827
#
# Poissons Ratio (x) = 0.41563 0.11818
# Poissons Ratio (y) = 0.41563 0.11818
# Poissons Ratio (z) = 0.50192 0.50192
#
# Static dielectric constant tensor:
#      x y z
#    x 3.674850 0.000000 0.000000 
#    y 0.000000 3.674850 0.000000 
#    z 0.000000 0.000000 3.098800 
# 
# 
# High freq. dielectric constant tensor:
#      x y z
#    x 1.741860 0.000000 0.000000 
#    y 0.000000 1.741860 0.000000 
#    z 0.000000 0.000000 1.694160 
# 
# From -- ./inp_files/1375.got.cif
#   From: 2010.03.12/outbox.cif.g09.slc.cpg/sg87_1_cif.got.tgz:1375.got - 2010.04.08 20:16:13.
