data_PCOD8303298
_publ_section_title
;
Structure prediction by ZEFSAII (Michael W. Deem and Ramdas Pophale) SiO2 
 PCOD8303298
Probable space group: P 42/M
;
_chemical_formula_sum "Si O2"
_cell_formula_units_Z 48
_cell_length_a 7.999521
_cell_length_b 7.999521
_cell_length_c 31.854521
_cell_angle_alpha 90.000000
_cell_angle_beta 90.000000
_cell_angle_gamma 90.000000
_cell_volume 2038.445218
_symmetry_space_group_name_H-M "P 42/M"
_symmetry_group_IT_number 84
_symmetry_cell_setting 'tetragonal'
loop_
_space_group_symop_operation_xyz
x,y,z
-y,x,1/2+z
-x,-y,z
y,-x,1/2+z
-x,-y,-z
y,-x,1/2-z
x,y,-z
-y,x,1/2-z
loop_
_atom_site_type_symbol
_atom_site_label
_atom_site_fract_x
_atom_site_fract_y
_atom_site_fract_z
Si Si1 0.249859 0.601321 0.316268
Si Si2 0.129902 0.124633 0.121091
Si Si3 0.086766 0.743641 0.241372
Si Si4 0.120248 0.632544 0.917872
Si Si5 0.057196 0.309274 0.451756
Si Si6 0.265513 0.598632 0.832393
O O1 0.151660 0.710469 0.350357
O O2 0.144438 0.598057 0.273257
O O3 0.261787 0.412203 0.333020
O O4 0.433937 0.675008 0.308140
O O5 0.022462 0.283004 0.109888
O O6 0.186387 0.048778 0.076566
O O7 0.000000 0.000000 0.144678
O O8 0.110462 0.678138 0.193612
O O9 0.896057 0.791201 0.246963
O O10 0.249757 0.747014 0.944868
O O11 0.230026 0.548656 0.880735
O O12 0.000000 0.500000 0.943994
O O13 0.013221 0.274892 0.500000
O O14 0.000000 0.500000 0.440885
#
# Coordination Sequence:
#
# PCOD8303298 Si02
#       6
#     8   8   8   8   8   8
#     4  11  23  41  63  89 124 169 217 266 325 393
#     4  10  22  38  66  92 125 164 212 260 319 392
#     4  11  26  40  60  89 125 168 219 273 323 386
#     4  11  22  40  67  97 130 167 215 273 331 392
#     4  10  23  44  68  96 133 173 215 265 327 405
#     4  11  24  41  62  89 127 168 214 266 331 390
#
# _framework density 23.547360000000001
#
# number of rings (size 3 to 8) (size 9 to 14) (size 15 to 20)
#    0.000    1.333    1.667    3.000    7.000    6.667 
#    0.000    0.000    0.000    2.000    0.000    0.000 
#    0.000    0.000    0.000    0.000    0.000    0.000 
#
# Total GULP energy -594665.797835 kJ/mol
# GULP energy per Si atom -12388.870788 kJ/mol
# Density = 2.349376 g / cm^3
# Si number density = 23.547360 Si / 1000 Ang^3
#
#
#
# Elastic Constant Matrix: (Units=GPa)
#
#
# Indices 1 2 3 4 5 6 
#
# 1 82.8998 14.5117 11.3384 0.0000 0.0000 2.4710
# 2 14.5117 82.8998 11.3384 0.0000 0.0000 -2.4710
# 3 11.3384 11.3384 82.7485 0.0000 0.0000 0.0000
# 4 0.0000 0.0000 0.0000 35.1536 0.0000 0.0000
# 5 0.0000 0.0000 0.0000 0.0000 35.1536 0.0000
# 6 2.4710 -2.4710 0.0000 0.0000 0.0000 51.9278
#
#
#
# Elastic Compliance Matrix: (Units=1/GPa)
#
#
# Indices 1 2 3 4 5 6 
#
# 1 0.012638 -0.002034 -0.001453 0.000000 0.000000 -0.000698
# 2 -0.002034 0.012638 -0.001453 0.000000 0.000000 0.000698
# 3 -0.001453 -0.001453 0.012483 0.000000 0.000000 0.000000
# 4 0.000000 0.000000 0.000000 0.028447 0.000000 0.000000
# 5 0.000000 0.000000 0.000000 0.000000 0.028447 0.000000
# 6 -0.000698 0.000698 0.000000 0.000000 0.000000 0.019324
#
#
# Mechanical properties :
#
#
# Convention : Reuss Voigt Hill
#
# Bulk Modulus (GPa) = 35.86930 35.88059 35.87495
# Shear Modulus (GPa) = 37.55142 38.53766 38.04454
#
# Velocity S-wave (km/s) = 3.99773 4.04988 4.02389
# Velocity P-wave (km/s) = 6.04773 6.09421 6.07101
#
# Compressibility (1/GPa) = 0.02787899
#
# Stress axis : x y z
#
# Youngs Moduli (GPa) = 79.12379 79.12379 80.10902
#
# Poissons Ratio (x) = 0.16097 0.11640
# Poissons Ratio (y) = 0.16097 0.11640
# Poissons Ratio (z) = 0.11497 0.11497
#
# Static dielectric constant tensor:
#      x y z
#    x 7.542920 0.000000 0.000000 
#    y 0.000000 7.542920 0.000000 
#    z 0.000000 0.000000 3.891290 
# 
# 
# High freq. dielectric constant tensor:
#      x y z
#    x 1.943270 0.000000 0.000000 
#    y 0.000000 1.943270 0.000000 
#    z 0.000000 0.000000 1.908680 
# 
# From -- ./inp_files/5750.got.cif
#   From: 2010.03.12/outbox.cif.g09.slc.cpg/sg84_3_cif.got.tgz:5750.got - 2010.04.08 20:07:29.
