data_PCOD8303904
_publ_section_title
;
Structure prediction by ZEFSAII (Michael W. Deem and Ramdas Pophale) SiO2 
 PCOD8303904
Probable space group: I 4/M
;
_chemical_formula_sum "Si O2"
_cell_formula_units_Z 64
_cell_length_a 19.592287
_cell_length_b 19.592287
_cell_length_c 8.698817
_cell_angle_alpha 90.000000
_cell_angle_beta 90.000000
_cell_angle_gamma 90.000000
_cell_volume 3339.107972
_symmetry_space_group_name_H-M "I 4/M"
_symmetry_group_IT_number 87
_symmetry_cell_setting 'tetragonal'
loop_
_space_group_symop_operation_xyz
x,y,z
-y,x,z
-x,-y,z
y,-x,z
-x,-y,-z
y,-x,-z
x,y,-z
-y,x,-z
1/2+x,1/2+y,1/2+z
1/2-y,1/2+x,1/2+z
1/2-x,1/2-y,1/2+z
1/2+y,1/2-x,1/2+z
1/2-x,1/2-y,1/2-z
1/2+y,1/2-x,1/2-z
1/2+x,1/2+y,1/2-z
1/2-y,1/2+x,1/2-z
loop_
_atom_site_type_symbol
_atom_site_label
_atom_site_fract_x
_atom_site_fract_y
_atom_site_fract_z
Si Si1 0.745441 0.860638 0.177299
Si Si2 0.272561 0.995731 0.325391
Si Si3 0.652199 0.737441 0.174761
Si Si4 0.975136 0.593200 0.825934
O O1 0.677737 0.815208 0.218709
O O2 0.812360 0.815911 0.211926
O O3 0.754615 0.930394 0.274881
O O4 0.744473 0.882265 0.000000
O O5 0.299845 0.002840 0.500000
O O6 0.222908 0.929656 0.315076
O O7 0.327853 0.969581 0.204544
O O8 0.677223 0.724229 0.000000
O O9 0.926779 0.553535 0.707606
O O10 0.955238 0.575269 0.000000
#
# Coordination Sequence:
#
# PCOD8303904 Si02
#       4
#    16  16  16  16
#     4  10  20  35  56  81 109 140 179 225 269 317
#     4  11  21  34  54  78 106 140 178 219 265 320
#     4   9  20  37  55  77 107 143 180 219 266 321
#     4  11  21  33  48  70 103 140 177 214 258 311
#
# _framework density 19.166795
#
# number of rings (size 3 to 8) (size 9 to 14) (size 15 to 20)
#    0.000    1.750    0.000    6.000    0.000    5.000 
#    0.000    0.000    0.000    0.750    0.000    5.250 
#    0.000    0.000    0.000    0.000    0.000    0.000 
#
# Total GULP energy -396450.358302 kJ/mol
# GULP energy per Si atom -12389.073697 kJ/mol
# Density = 1.912317 g / cm^3
# Si number density = 19.166795 Si / 1000 Ang^3
#
#
#
# Elastic Constant Matrix: (Units=GPa)
#
#
# Indices 1 2 3 4 5 6 
#
# 1 108.3819 2.9623 27.4318 0.0000 0.0000 -70.0154
# 2 2.9623 108.3819 27.4318 0.0000 0.0000 70.0154
# 3 27.4318 27.4318 90.1599 0.0000 0.0000 0.0000
# 4 0.0000 0.0000 0.0000 29.3060 0.0000 0.0000
# 5 0.0000 0.0000 0.0000 0.0000 29.3060 0.0000
# 6 -70.0154 70.0154 0.0000 0.0000 0.0000 306.2471
#
#
#
# Elastic Compliance Matrix: (Units=1/GPa)
#
#
# Indices 1 2 3 4 5 6 
#
# 1 0.012094 -0.001529 -0.003215 0.000000 0.000000 0.003115
# 2 -0.001529 0.012094 -0.003215 0.000000 0.000000 -0.003115
# 3 -0.003215 -0.003215 0.013047 0.000000 0.000000 0.000000
# 4 0.000000 0.000000 0.000000 0.034123 0.000000 0.000000
# 5 0.000000 0.000000 0.000000 0.000000 0.034123 0.000000
# 6 0.003115 -0.003115 0.000000 0.000000 0.000000 0.004689
#
#
# Mechanical properties :
#
#
# Convention : Reuss Voigt Hill
#
# Bulk Modulus (GPa) = 46.90517 46.95284 46.92901
# Shear Modulus (GPa) = 37.53954 89.57833 63.55893
#
# Velocity S-wave (km/s) = 4.43038 6.84380 5.76480
# Velocity P-wave (km/s) = 7.12013 9.32740 8.29749
#
# Compressibility (1/GPa) = 0.02131961
#
# Stress axis : x y z
#
# Youngs Moduli (GPa) = 82.68536 82.68536 76.64315
#
# Poissons Ratio (x) = 0.12642 0.24637
# Poissons Ratio (y) = 0.12642 0.24637
# Poissons Ratio (z) = 0.26579 0.26579
#
# Static dielectric constant tensor:
#      x y z
#    x 3.383700 0.000000 0.000000 
#    y 0.000000 3.383700 0.000000 
#    z 0.000000 0.000000 4.843890 
# 
# 
# High freq. dielectric constant tensor:
#      x y z
#    x 1.724130 0.000000 0.000000 
#    y 0.000000 1.724130 0.000000 
#    z 0.000000 0.000000 1.756600 
# 
# From -- ./inp_files/965.got.cif
#   From: 2010.03.12/outbox.cif.g09.slc.cpg/sg87_1_cif.got.tgz:965.got - 2010.04.08 20:16:13.
