data_PCOD8303597
_publ_section_title
;
Structure prediction by ZEFSAII (Michael W. Deem and Ramdas Pophale) SiO2 
 PCOD8303597
Probable space group: P 42/N
;
_chemical_formula_sum "Si O2"
_cell_formula_units_Z 56
_cell_length_a 14.034702
_cell_length_b 14.034702
_cell_length_c 12.450779
_cell_angle_alpha 90.000000
_cell_angle_beta 90.000000
_cell_angle_gamma 90.000000
_cell_volume 2452.465552
_symmetry_space_group_name_H-M "P 42/N"
_symmetry_group_IT_number 86
_space_group.IT_coordinate_system_code '2'
_symmetry_cell_setting 'tetragonal'
loop_
_space_group_symop_operation_xyz
x,y,z
-y,1/2+x,1/2+z
1/2-x,1/2-y,z
1/2+y,-x,1/2+z
-x,-y,-z
y,1/2-x,1/2-z
1/2+x,1/2+y,-z
1/2-y,x,1/2-z
loop_
_atom_site_type_symbol
_atom_site_label
_atom_site_fract_x
_atom_site_fract_y
_atom_site_fract_z
Si Si1 0.472472 0.999511 0.682926
Si Si2 0.239957 0.975535 0.414466
Si Si3 0.377902 0.320597 0.708376
Si Si4 0.112366 0.929587 0.989376
Si Si5 0.679194 0.836979 0.967135
Si Si6 0.302732 0.846118 0.024915
Si Si7 0.503019 0.333620 0.304965
O O1 0.381467 0.030789 0.753084
O O2 0.488626 0.082373 0.593875
O O3 0.456575 0.901904 0.615181
O O4 0.561754 0.980770 0.759660
O O5 0.340095 0.956825 0.470979
O O6 0.169609 0.887389 0.439806
O O7 0.196646 0.070647 0.463433
O O8 0.254337 0.984192 0.286982
O O9 0.377948 0.220185 0.770203
O O10 0.385337 0.301420 0.581654
O O11 0.223005 0.910149 0.965977
O O12 0.750000 0.750000 0.944862
O O13 0.701267 0.916196 0.878168
O O14 0.250000 0.750000 0.063406
O O15 0.343320 0.898660 0.129619
#
# Coordination Sequence:
#
# PCOD8303597 Si02
#       7
#     8   8   8   8   8   8   8
#     4  10  22  41  66 100 141 186 241 294 355 430
#     4  10  24  45  67 100 141 186 243 296 363 438
#     4  11  23  42  66 102 136 195 245 299 361 419
#     4   9  21  41  71  97 139 190 237 293 359 431
#     4  12  27  45  70 100 152 188 244 302 358 438
#     4  10  23  45  69 100 141 186 236 304 359 434
#     4  11  27  42  69 107 142 190 241 293 376 433
#
# _framework density 22.834164000000001
#
# number of rings (size 3 to 8) (size 9 to 14) (size 15 to 20)
#    0.000    1.571    1.429    1.714    6.000    7.429 
#    0.000    0.000    0.000    0.000    0.000    0.000 
#    0.000    0.000    0.000    0.000    0.000    0.000 
#
# Total GULP energy -694606.154018 kJ/mol
# GULP energy per Si atom -12403.681322 kJ/mol
# Density = 2.278219 g / cm^3
# Si number density = 22.834164 Si / 1000 Ang^3
#
#
#
# Elastic Constant Matrix: (Units=GPa)
#
#
# Indices 1 2 3 4 5 6 
#
# 1 92.7318 37.4932 43.6203 0.0000 0.0000 -1.6964
# 2 37.4932 92.7318 43.6203 0.0000 0.0000 1.6964
# 3 43.6203 43.6203 144.5151 0.0000 0.0000 0.0000
# 4 0.0000 0.0000 0.0000 39.6866 0.0000 0.0000
# 5 0.0000 0.0000 0.0000 0.0000 39.6866 0.0000
# 6 -1.6964 1.6964 0.0000 0.0000 0.0000 37.2430
#
#
#
# Elastic Compliance Matrix: (Units=1/GPa)
#
#
# Indices 1 2 3 4 5 6 
#
# 1 0.013890 -0.004264 -0.002905 0.000000 0.000000 0.000827
# 2 -0.004264 0.013890 -0.002905 0.000000 0.000000 -0.000827
# 3 -0.002905 -0.002905 0.008674 0.000000 0.000000 0.000000
# 4 0.000000 0.000000 0.000000 0.025197 0.000000 0.000000
# 5 0.000000 0.000000 0.000000 0.000000 0.025197 0.000000
# 6 0.000827 -0.000827 0.000000 0.000000 0.000000 0.026926
#
#
# Mechanical properties :
#
#
# Convention : Reuss Voigt Hill
#
# Bulk Modulus (GPa) = 61.33826 64.38289 62.86057
# Shear Modulus (GPa) = 35.87879 37.00624 36.44252
#
# Velocity S-wave (km/s) = 3.96823 4.03010 3.99929
# Velocity P-wave (km/s) = 6.92219 7.06489 6.99390
#
# Compressibility (1/GPa) = 0.01630304
#
# Stress axis : x y z
#
# Youngs Moduli (GPa) = 71.99574 71.99574 115.29291
#
# Poissons Ratio (x) = 0.30702 0.33496
# Poissons Ratio (y) = 0.30702 0.33496
# Poissons Ratio (z) = 0.20917 0.20917
#
# Static dielectric constant tensor:
#      x y z
#    x 4.115520 0.000000 0.000000 
#    y 0.000000 4.115520 0.000000 
#    z 0.000000 0.000000 4.165880 
# 
# 
# High freq. dielectric constant tensor:
#      x y z
#    x 1.904050 0.000000 0.000000 
#    y 0.000000 1.904050 0.000000 
#    z 0.000000 0.000000 1.903850 
# 
# From -- ./inp_files/2390.got.cif
#   From: 2010.03.12/outbox.cif.g09.slc.cpg/sg86_2_cif.got.tgz:2390.got - 2010.04.08 20:12:58.
