data_PCOD8303148
_publ_section_title
;
Structure prediction by ZEFSAII (Michael W. Deem and Ramdas Pophale) SiO2 
 PCOD8303148
Probable space group: P 42/M
;
_chemical_formula_sum "Si O2"
_cell_formula_units_Z 48
_cell_length_a 17.046908
_cell_length_b 17.046908
_cell_length_c 8.757264
_cell_angle_alpha 90.000000
_cell_angle_beta 90.000000
_cell_angle_gamma 90.000000
_cell_volume 2544.835280
_symmetry_space_group_name_H-M "P 42/M"
_symmetry_group_IT_number 84
_symmetry_cell_setting 'tetragonal'
loop_
_space_group_symop_operation_xyz
x,y,z
-y,x,1/2+z
-x,-y,z
y,-x,1/2+z
-x,-y,-z
y,-x,1/2-z
x,y,-z
-y,x,1/2-z
loop_
_atom_site_type_symbol
_atom_site_label
_atom_site_fract_x
_atom_site_fract_y
_atom_site_fract_z
Si Si1 0.491788 0.618966 0.182229
Si Si2 0.205703 0.094326 0.820995
Si Si3 0.098886 0.631723 0.176719
Si Si4 0.789912 0.509863 0.178278
Si Si5 0.383729 0.927079 0.673786
Si Si6 0.797160 0.068533 0.325047
O O1 0.571345 0.583170 0.253798
O O2 0.483575 0.709827 0.227604
O O3 0.494485 0.610863 0.000000
O O4 0.287670 0.123163 0.754097
O O5 0.139121 0.151960 0.757133
O O6 0.182989 0.006829 0.774758
O O7 0.211916 0.101356 0.000000
O O8 0.172062 0.575309 0.202694
O O9 0.014702 0.599382 0.243100
O O10 0.082479 0.649829 0.000000
O O11 0.854820 0.569354 0.250658
O O12 0.771616 0.526257 0.000000
O O13 0.413859 0.927350 0.500000
O O14 0.292887 0.906848 0.690608
O O15 0.818758 0.049861 0.500000
#
# Coordination Sequence:
#
# PCOD8303148 Si02
#       6
#     8   8   8   8   8   8
#     4  11  23  41  61  81 108 140 176 219 269 319
#     4  10  20  33  51  75 102 135 177 222 267 314
#     4   9  18  33  53  78 110 144 176 214 261 312
#     4  10  19  33  57  86 110 139 179 214 253 312
#     4   8  15  31  54  77 105 142 178 211 251 306
#     4   9  19  35  52  72 100 136 176 215 261 314
#
# _framework density 18.861733000000001
#
# number of rings (size 3 to 8) (size 9 to 14) (size 15 to 20)
#    0.000    2.500    0.000    4.000    0.000    5.667 
#    0.000    6.667    0.000    5.000    0.000    0.000 
#    0.000    0.000    0.000    0.000    0.000    0.000 
#
# Total GULP energy -595018.532607 kJ/mol
# GULP energy per Si atom -12396.219429 kJ/mol
# Density = 1.881880 g / cm^3
# Si number density = 18.861733 Si / 1000 Ang^3
#
#
#
# Elastic Constant Matrix: (Units=GPa)
#
#
# Indices 1 2 3 4 5 6 
#
# 1 74.0647 27.6146 23.9984 0.0000 0.0000 -0.5518
# 2 27.6146 74.0647 23.9984 0.0000 0.0000 0.5518
# 3 23.9984 23.9984 59.0344 0.0000 0.0000 0.0000
# 4 0.0000 0.0000 0.0000 24.3317 0.0000 0.0000
# 5 0.0000 0.0000 0.0000 0.0000 24.3317 0.0000
# 6 -0.5518 0.5518 0.0000 0.0000 0.0000 28.2860
#
#
#
# Elastic Compliance Matrix: (Units=1/GPa)
#
#
# Indices 1 2 3 4 5 6 
#
# 1 0.016854 -0.004684 -0.004947 0.000000 0.000000 0.000420
# 2 -0.004684 0.016854 -0.004947 0.000000 0.000000 -0.000420
# 3 -0.004947 -0.004947 0.020962 0.000000 0.000000 0.000000
# 4 0.000000 0.000000 0.000000 0.041099 0.000000 0.000000
# 5 0.000000 0.000000 0.000000 0.000000 0.041099 0.000000
# 6 0.000420 -0.000420 0.000000 0.000000 0.000000 0.035370
#
#
# Mechanical properties :
#
#
# Convention : Reuss Voigt Hill
#
# Bulk Modulus (GPa) = 39.19641 39.82076 39.50858
# Shear Modulus (GPa) = 23.82095 24.16003 23.99049
#
# Velocity S-wave (km/s) = 3.55762 3.58285 3.57026
# Velocity P-wave (km/s) = 6.14016 6.18656 6.16340
#
# Compressibility (1/GPa) = 0.02551254
#
# Stress axis : x y z
#
# Youngs Moduli (GPa) = 59.33191 59.33191 47.70609
#
# Poissons Ratio (x) = 0.27792 0.23602
# Poissons Ratio (y) = 0.27792 0.23602
# Poissons Ratio (z) = 0.29354 0.29354
#
# Static dielectric constant tensor:
#      x y z
#    x 3.551570 0.000000 0.000000 
#    y 0.000000 3.551570 0.000000 
#    z 0.000000 0.000000 3.242760 
# 
# 
# High freq. dielectric constant tensor:
#      x y z
#    x 1.738670 0.000000 0.000000 
#    y 0.000000 1.738670 0.000000 
#    z 0.000000 0.000000 1.707440 
# 
# From -- ./inp_files/967.got.cif
#   From: 2010.03.12/outbox.cif.g09.slc.cpg/sg84_1_cif.got.tgz:967.got - 2010.04.08 20:07:29.
