data_PCOD8303705
_publ_section_title
;
Structure prediction by ZEFSAII (Michael W. Deem and Ramdas Pophale) SiO2 
 PCOD8303705
Probable space group: P 42/N
;
_chemical_formula_sum "Si O2"
_cell_formula_units_Z 36
_cell_length_a 10.575944
_cell_length_b 10.575944
_cell_length_c 13.601233
_cell_angle_alpha 90.000000
_cell_angle_beta 90.000000
_cell_angle_gamma 90.000000
_cell_volume 1521.305956
_symmetry_space_group_name_H-M "P 42/N"
_symmetry_group_IT_number 86
_space_group.IT_coordinate_system_code '2'
_symmetry_cell_setting 'tetragonal'
loop_
_space_group_symop_operation_xyz
x,y,z
-y,1/2+x,1/2+z
1/2-x,1/2-y,z
1/2+y,-x,1/2+z
-x,-y,-z
y,1/2-x,1/2-z
1/2+x,1/2+y,-z
1/2-y,x,1/2-z
loop_
_atom_site_type_symbol
_atom_site_label
_atom_site_fract_x
_atom_site_fract_y
_atom_site_fract_z
Si Si1 0.580669 0.168914 0.232802
Si Si2 0.562388 0.371617 0.529604
Si Si3 0.874384 0.661986 0.461318
Si Si4 0.750000 0.250000 0.397394
Si Si5 0.577899 0.997744 0.645884
O O1 0.637350 0.083123 0.146196
O O2 0.663934 0.161565 0.330398
O O3 0.580879 0.313022 0.195580
O O4 0.449800 0.108271 0.270861
O O5 0.500000 0.500000 0.500000
O O6 0.472862 0.259894 0.493736
O O7 0.688971 0.355791 0.467172
O O8 0.750000 0.750000 0.429704
O O9 0.852117 0.563257 0.550215
O O10 0.951338 0.583531 0.375851
#
# Coordination Sequence:
#
# PCOD8303705 Si02
#       5
#     8   8   8   4   8
#     4  12  26  44  77 104 154 193 256 315 384 459
#     4  12  26  45  72 107 146 202 249 314 389 448
#     4  11  25  48  75 105 158 197 253 328 379 466
#     4  12  24  46  72 106 144 196 248 314 370 460
#     4  11  26  47  72 119 143 204 260 311 390 464
#
# _framework density 23.663879000000001
#
# number of rings (size 3 to 8) (size 9 to 14) (size 15 to 20)
#    0.000    0.444    2.222    6.000    9.333    0.000 
#    0.000    0.000    0.000    0.000    0.000    0.000 
#    0.000    0.000    0.000    0.000    0.000    0.000 
#
# Total GULP energy -445997.948707 kJ/mol
# GULP energy per Si atom -12388.831909 kJ/mol
# Density = 2.361002 g / cm^3
# Si number density = 23.663879 Si / 1000 Ang^3
#
#
#
# Elastic Constant Matrix: (Units=GPa)
#
#
# Indices 1 2 3 4 5 6 
#
# 1 111.0482 48.4172 43.1813 0.0000 0.0000 -5.6432
# 2 48.4172 111.0482 43.1813 0.0000 0.0000 5.6432
# 3 43.1813 43.1813 119.1643 0.0000 0.0000 0.0000
# 4 0.0000 0.0000 0.0000 38.5044 0.0000 0.0000
# 5 0.0000 0.0000 0.0000 0.0000 38.5044 0.0000
# 6 -5.6432 5.6432 0.0000 0.0000 0.0000 44.3169
#
#
#
# Elastic Compliance Matrix: (Units=1/GPa)
#
#
# Indices 1 2 3 4 5 6 
#
# 1 0.012072 -0.004270 -0.002827 0.000000 0.000000 0.002081
# 2 -0.004270 0.012072 -0.002827 0.000000 0.000000 -0.002081
# 3 -0.002827 -0.002827 0.010441 0.000000 0.000000 0.000000
# 4 0.000000 0.000000 0.000000 0.025971 0.000000 0.000000
# 5 0.000000 0.000000 0.000000 0.000000 0.025971 0.000000
# 6 0.002081 -0.002081 0.000000 0.000000 0.000000 0.023095
#
#
# Mechanical properties :
#
#
# Convention : Reuss Voigt Hill
#
# Bulk Modulus (GPa) = 67.86072 67.86891 67.86482
# Shear Modulus (GPa) = 37.20746 38.03053 37.61900
#
# Velocity S-wave (km/s) = 3.96957 4.01323 3.99146
# Velocity P-wave (km/s) = 7.05330 7.08642 7.06988
#
# Compressibility (1/GPa) = 0.01473606
#
# Stress axis : x y z
#
# Youngs Moduli (GPa) = 82.83752 82.83752 95.77843
#
# Poissons Ratio (x) = 0.35369 0.27079
# Poissons Ratio (y) = 0.35369 0.27079
# Poissons Ratio (z) = 0.23420 0.23420
#
# Static dielectric constant tensor:
#      x y z
#    x 4.222350 0.000000 0.000000 
#    y 0.000000 4.222350 0.000000 
#    z 0.000000 0.000000 4.344340 
# 
# 
# High freq. dielectric constant tensor:
#      x y z
#    x 1.943590 0.000000 0.000000 
#    y 0.000000 1.943590 0.000000 
#    z 0.000000 0.000000 1.940220 
# 
# From -- ./inp_files/2077.got.cif
#   From: 2010.03.12/outbox.cif.g09.slc.cpg/sg86_2_cif.got.tgz:2077.got - 2010.04.08 20:12:58.
