data_PCOD8303352
_publ_section_title
;
Structure prediction by ZEFSAII (Michael W. Deem and Ramdas Pophale) SiO2 
 PCOD8303352
Probable space group: P 42/M
;
_chemical_formula_sum "Si O2"
_cell_formula_units_Z 40
_cell_length_a 14.315722
_cell_length_b 14.315722
_cell_length_c 8.411838
_cell_angle_alpha 90.000000
_cell_angle_beta 90.000000
_cell_angle_gamma 90.000000
_cell_volume 1723.921208
_symmetry_space_group_name_H-M "P 42/M"
_symmetry_group_IT_number 84
_symmetry_cell_setting 'tetragonal'
loop_
_space_group_symop_operation_xyz
x,y,z
-y,x,1/2+z
-x,-y,z
y,-x,1/2+z
-x,-y,-z
y,-x,1/2-z
x,y,-z
-y,x,1/2-z
loop_
_atom_site_type_symbol
_atom_site_label
_atom_site_fract_x
_atom_site_fract_y
_atom_site_fract_z
Si Si1 0.229949 0.334224 0.814738
Si Si2 0.400061 0.588863 0.821879
Si Si3 0.975233 0.139815 0.313336
Si Si4 0.284409 0.151839 0.312328
Si Si5 0.493122 0.104878 0.311215
O O1 0.325883 0.334491 0.715590
O O2 0.212154 0.225593 0.774926
O O3 0.160435 0.414381 0.747889
O O4 0.245512 0.351579 0.000000
O O5 0.506422 0.622792 0.800429
O O6 0.382030 0.552558 0.000000
O O7 0.996756 0.146090 0.500000
O O8 0.947401 0.241741 0.243521
O O9 0.066968 0.108123 0.219417
O O10 0.276185 0.163487 0.500000
O O11 0.394765 0.153108 0.259237
O O12 0.497604 0.101201 0.500000
O O13 0.500000 0.000000 0.241652
#
# Coordination Sequence:
#
# PCOD8303352 Si02
#       5
#     8   8   8   8   8
#     4  11  22  38  62  90 124 167 218 268 325 394
#     4  11  21  35  56  83 117 154 201 257 319 383
#     4  11  23  42  67  98 133 171 219 276 340 405
#     4  11  23  40  66  98 134 174 224 279 339 404
#     4   9  21  41  64  91 125 172 223 272 329 398
#
# _framework density 23.202914
#
# number of rings (size 3 to 8) (size 9 to 14) (size 15 to 20)
#    0.000    1.400    0.000    7.200    2.800    1.600 
#    0.000    3.000    0.000    4.800    0.000    0.000 
#    0.000    0.000    0.000    0.000    0.000    0.000 
#
# Total GULP energy -495654.751846 kJ/mol
# GULP energy per Si atom -12391.368796 kJ/mol
# Density = 2.315010 g / cm^3
# Si number density = 23.202914 Si / 1000 Ang^3
#
#
#
# Elastic Constant Matrix: (Units=GPa)
#
#
# Indices 1 2 3 4 5 6 
#
# 1 81.3367 34.8297 9.1181 0.0000 0.0000 12.1760
# 2 34.8297 81.3367 9.1181 0.0000 0.0000 -12.1760
# 3 9.1181 9.1181 80.5881 0.0000 0.0000 0.0000
# 4 0.0000 0.0000 0.0000 30.9680 0.0000 0.0000
# 5 0.0000 0.0000 0.0000 0.0000 30.9680 0.0000
# 6 12.1760 -12.1760 0.0000 0.0000 0.0000 47.3141
#
#
#
# Elastic Compliance Matrix: (Units=1/GPa)
#
#
# Indices 1 2 3 4 5 6 
#
# 1 0.016807 -0.008043 -0.000992 0.000000 0.000000 -0.006395
# 2 -0.008043 0.016807 -0.000992 0.000000 0.000000 0.006395
# 3 -0.000992 -0.000992 0.012633 0.000000 0.000000 0.000000
# 4 0.000000 0.000000 0.000000 0.032291 0.000000 0.000000
# 5 0.000000 0.000000 0.000000 0.000000 0.032291 0.000000
# 6 -0.006395 0.006395 0.000000 0.000000 0.000000 0.024427
#
#
# Mechanical properties :
#
#
# Convention : Reuss Voigt Hill
#
# Bulk Modulus (GPa) = 38.17553 38.82147 38.49850
# Shear Modulus (GPa) = 30.47992 34.52974 32.50483
#
# Velocity S-wave (km/s) = 3.62833 3.86186 3.74691
# Velocity P-wave (km/s) = 5.83452 6.05416 5.94536
#
# Compressibility (1/GPa) = 0.02619479
#
# Stress axis : x y z
#
# Youngs Moduli (GPa) = 59.49758 59.49758 79.15666
#
# Poissons Ratio (x) = 0.47856 0.07849
# Poissons Ratio (y) = 0.47856 0.07849
# Poissons Ratio (z) = 0.05900 0.05900
#
# Static dielectric constant tensor:
#      x y z
#    x 4.409310 0.000000 0.000000 
#    y 0.000000 4.409310 0.000000 
#    z 0.000000 0.000000 3.957730 
# 
# 
# High freq. dielectric constant tensor:
#      x y z
#    x 1.925490 0.000000 0.000000 
#    y 0.000000 1.925490 0.000000 
#    z 0.000000 0.000000 1.890050 
# 
# From -- ./inp_files/781.got.cif
#   From: 2010.03.12/outbox.cif.g09.slc.cpg/sg84_1_cif.got.tgz:781.got - 2010.04.08 20:07:29.
