data_PCOD8303291
_publ_section_title
;
Structure prediction by ZEFSAII (Michael W. Deem and Ramdas Pophale) SiO2 
 PCOD8303291
Probable space group: P 42/M
;
_chemical_formula_sum "Si O2"
_cell_formula_units_Z 44
_cell_length_a 8.672983
_cell_length_b 8.672983
_cell_length_c 27.513325
_cell_angle_alpha 90.000000
_cell_angle_beta 90.000000
_cell_angle_gamma 90.000000
_cell_volume 2069.569753
_symmetry_space_group_name_H-M "P 42/M"
_symmetry_group_IT_number 84
_symmetry_cell_setting 'tetragonal'
loop_
_space_group_symop_operation_xyz
x,y,z
-y,x,1/2+z
-x,-y,z
y,-x,1/2+z
-x,-y,-z
y,-x,1/2-z
x,y,-z
-y,x,1/2-z
loop_
_atom_site_type_symbol
_atom_site_label
_atom_site_fract_x
_atom_site_fract_y
_atom_site_fract_z
Si Si1 0.260000 0.495536 0.500000
Si Si2 0.821700 0.824217 0.741729
Si Si3 0.500000 0.000000 0.579165
Si Si4 0.608200 0.355745 0.683074
Si Si5 0.750816 0.491935 0.000000
Si Si6 0.197691 0.676252 0.141307
Si Si7 0.493292 0.826653 0.894365
O O1 0.407525 0.601199 0.500000
O O2 0.316290 0.315458 0.500000
O O3 0.165656 0.539839 0.451271
O O4 0.714024 0.703552 0.771140
O O5 0.794533 0.813840 0.684786
O O6 0.000927 0.781841 0.744767
O O7 0.533599 0.150206 0.547350
O O8 0.346718 0.038682 0.611342
O O9 0.500000 0.500000 0.699765
O O10 0.496068 0.228205 0.661201
O O11 0.726475 0.396929 0.640231
O O12 0.327028 0.744994 0.105992
O O13 0.500000 0.000000 0.873685
#
# Coordination Sequence:
#
# PCOD8303291 Si02
#       7
#     4   8   4   8   4   8   8
#     4  11  21  40  63  96 126 167 209 267 328 388
#     4  11  25  44  64  93 135 176 212 266 339 396
#     4  11  20  40  60 100 120 164 214 267 316 386
#     4  10  24  41  63  94 127 167 223 268 315 381
#     4  10  22  36  67  88 133 162 210 270 323 383
#     4  11  23  38  66  93 124 171 219 270 317 382
#     4  11  23  40  65  95 132 165 215 269 328 384
#
# _framework density 21.260456999999999
#
# number of rings (size 3 to 8) (size 9 to 14) (size 15 to 20)
#    0.000    1.273    1.818    3.545   10.182    0.000 
#    1.636    0.000    0.000    1.091    0.000    0.000 
#    0.000    0.000    0.000    0.000    0.000    0.000 
#
# Total GULP energy -545287.661137 kJ/mol
# GULP energy per Si atom -12392.901389 kJ/mol
# Density = 2.121207 g / cm^3
# Si number density = 21.260457 Si / 1000 Ang^3
#
#
#
# Elastic Constant Matrix: (Units=GPa)
#
#
# Indices 1 2 3 4 5 6 
#
# 1 89.8597 18.4812 20.6202 0.0000 0.0000 -0.7070
# 2 18.4812 89.8597 20.6202 0.0000 0.0000 0.7070
# 3 20.6202 20.6202 111.2752 0.0000 0.0000 0.0000
# 4 0.0000 0.0000 0.0000 26.9947 0.0000 0.0000
# 5 0.0000 0.0000 0.0000 0.0000 26.9947 0.0000
# 6 -0.7070 0.7070 0.0000 0.0000 0.0000 25.5997
#
#
#
# Elastic Compliance Matrix: (Units=1/GPa)
#
#
# Indices 1 2 3 4 5 6 
#
# 1 0.011974 -0.002043 -0.001840 0.000000 0.000000 0.000387
# 2 -0.002043 0.011974 -0.001840 0.000000 0.000000 -0.000387
# 3 -0.001840 -0.001840 0.009669 0.000000 0.000000 0.000000
# 4 0.000000 0.000000 0.000000 0.037044 0.000000 0.000000
# 5 0.000000 0.000000 0.000000 0.000000 0.037044 0.000000
# 6 0.000387 -0.000387 0.000000 0.000000 0.000000 0.039084
#
#
# Mechanical properties :
#
#
# Convention : Reuss Voigt Hill
#
# Bulk Modulus (GPa) = 45.10790 45.60423 45.35607
# Shear Modulus (GPa) = 30.18828 31.33603 30.76215
#
# Velocity S-wave (km/s) = 3.77228 3.84332 3.80797
# Velocity P-wave (km/s) = 6.34321 6.41807 6.38075
#
# Compressibility (1/GPa) = 0.02216906
#
# Stress axis : x y z
#
# Youngs Moduli (GPa) = 83.51394 83.51394 103.42599
#
# Poissons Ratio (x) = 0.17066 0.19033
# Poissons Ratio (y) = 0.17066 0.19033
# Poissons Ratio (z) = 0.15368 0.15368
#
# Static dielectric constant tensor:
#      x y z
#    x 3.845490 0.000000 0.000000 
#    y 0.000000 3.845490 0.000000 
#    z 0.000000 0.000000 4.016570 
# 
# 
# High freq. dielectric constant tensor:
#      x y z
#    x 1.826490 0.000000 0.000000 
#    y 0.000000 1.826490 0.000000 
#    z 0.000000 0.000000 1.854480 
# 
# From -- ./inp_files/5704.got.cif
#   From: 2010.03.12/outbox.cif.g09.slc.cpg/sg84_3_cif.got.tgz:5704.got - 2010.04.08 20:07:29.
