data_PCOD8303998
_publ_section_title
;
Structure prediction by ZEFSAII (Michael W. Deem and Ramdas Pophale) SiO2 
 PCOD8303998
Probable space group: I 4/M
;
_chemical_formula_sum "Si O2"
_cell_formula_units_Z 80
_cell_length_a 15.762520
_cell_length_b 15.762520
_cell_length_c 15.564259
_cell_angle_alpha 90.000000
_cell_angle_beta 90.000000
_cell_angle_gamma 90.000000
_cell_volume 3867.049670
_symmetry_space_group_name_H-M "I 4/M"
_symmetry_group_IT_number 87
_symmetry_cell_setting 'tetragonal'
loop_
_space_group_symop_operation_xyz
x,y,z
-y,x,z
-x,-y,z
y,-x,z
-x,-y,-z
y,-x,-z
x,y,-z
-y,x,-z
1/2+x,1/2+y,1/2+z
1/2-y,1/2+x,1/2+z
1/2-x,1/2-y,1/2+z
1/2+y,1/2-x,1/2+z
1/2-x,1/2-y,1/2-z
1/2+y,1/2-x,1/2-z
1/2+x,1/2+y,1/2-z
1/2-y,1/2+x,1/2-z
loop_
_atom_site_type_symbol
_atom_site_label
_atom_site_fract_x
_atom_site_fract_y
_atom_site_fract_z
Si Si1 0.903090 0.899066 0.745731
Si Si2 0.687996 0.741506 0.668727
Si Si3 0.384846 0.935228 0.399639
Si Si4 0.434987 0.123616 0.398916
Si Si5 0.217411 0.851477 0.404031
O O1 0.856266 0.850806 0.824680
O O2 0.869004 0.864655 0.654245
O O3 0.002794 0.881369 0.752730
O O4 0.750000 0.750000 0.750000
O O5 0.611588 0.808815 0.661477
O O6 0.751505 0.756751 0.588911
O O7 0.382404 0.916503 0.500000
O O8 0.468006 0.885556 0.364845
O O9 0.297416 0.899922 0.359827
O O10 0.388735 0.034702 0.381886
O O11 0.431403 0.148055 0.500000
O O12 0.196527 0.883844 0.500000
#
# Coordination Sequence:
#
# PCOD8303998 Si02
#       5
#    16  16  16  16  16
#     4  10  24  43  59  79 117 166 204 235 279 341
#     4  10  22  36  56  84 116 154 195 233 287 347
#     4   8  17  32  56  89 117 141 181 238 304 355
#     4   9  17  34  58  84 116 152 186 239 301 353
#     4  10  21  37  62  92 116 145 192 249 300 348
#
# _framework density 20.687607
#
# number of rings (size 3 to 8) (size 9 to 14) (size 15 to 20)
#    0.000    2.600    0.000    1.800    8.400    0.800 
#    0.000    1.000    0.000    9.600    0.000    5.600 
#    0.000    0.000    0.000    0.000    0.000    0.000 
#
# Total GULP energy -495667.771848 kJ/mol
# GULP energy per Si atom -12391.694296 kJ/mol
# Density = 2.064052 g / cm^3
# Si number density = 20.687607 Si / 1000 Ang^3
#
#
#
# Elastic Constant Matrix: (Units=GPa)
#
#
# Indices 1 2 3 4 5 6 
#
# 1 89.5981 36.7771 13.4114 0.0000 0.0000 2.7890
# 2 36.7771 89.5981 13.4114 0.0000 0.0000 -2.7891
# 3 13.4114 13.4114 39.1781 0.0000 0.0000 0.0000
# 4 0.0000 0.0000 0.0000 23.2453 0.0000 0.0000
# 5 0.0000 0.0000 0.0000 0.0000 23.2453 0.0000
# 6 2.7890 -2.7891 0.0000 0.0000 0.0000 38.1340
#
#
#
# Elastic Compliance Matrix: (Units=1/GPa)
#
#
# Indices 1 2 3 4 5 6 
#
# 1 0.013806 -0.005273 -0.002921 0.000000 0.000000 -0.001395
# 2 -0.005273 0.013806 -0.002921 0.000000 0.000000 0.001395
# 3 -0.002921 -0.002921 0.027524 0.000000 0.000000 0.000000
# 4 0.000000 0.000000 0.000000 0.043019 0.000000 0.000000
# 5 0.000000 0.000000 0.000000 0.000000 0.043019 0.000000
# 6 -0.001395 0.001395 0.000000 0.000000 0.000000 0.026427
#
#
# Mechanical properties :
#
#
# Convention : Reuss Voigt Hill
#
# Bulk Modulus (GPa) = 30.38943 38.39715 34.39329
# Shear Modulus (GPa) = 24.90018 27.24321 26.07170
#
# Velocity S-wave (km/s) = 3.47310 3.63283 3.55386
# Velocity P-wave (km/s) = 5.55021 6.01642 5.78801
#
# Compressibility (1/GPa) = 0.03290618
#
# Stress axis : x y z
#
# Youngs Moduli (GPa) = 72.43195 72.43194 36.33154
#
# Poissons Ratio (x) = 0.38194 0.10612
# Poissons Ratio (y) = 0.38194 0.10612
# Poissons Ratio (z) = 0.21157 0.21157
#
# Static dielectric constant tensor:
#      x y z
#    x 4.118760 0.000000 0.000000 
#    y 0.000000 4.118760 0.000000 
#    z 0.000000 0.000000 3.554730 
# 
# 
# High freq. dielectric constant tensor:
#      x y z
#    x 1.813430 0.000000 0.000000 
#    y 0.000000 1.813430 0.000000 
#    z 0.000000 0.000000 1.785250 
# 
# From -- ./inp_files/5093.got.cif
#   From: 2010.03.12/outbox.cif.g09.slc.cpg/sg87_3_cif.got.tgz:5093.got - 2010.04.08 20:16:13.
