data_PCOD8303798
_publ_section_title
;
Structure prediction by ZEFSAII (Michael W. Deem and Ramdas Pophale) SiO2 
 PCOD8303798
Probable space group: I 4/M
;
_chemical_formula_sum "Si O2"
_cell_formula_units_Z 68
_cell_length_a 17.044158
_cell_length_b 17.044158
_cell_length_c 13.362419
_cell_angle_alpha 90.000000
_cell_angle_beta 90.000000
_cell_angle_gamma 90.000000
_cell_volume 3881.827109
_symmetry_space_group_name_H-M "I 4/M"
_symmetry_group_IT_number 87
_symmetry_cell_setting 'tetragonal'
loop_
_space_group_symop_operation_xyz
x,y,z
-y,x,z
-x,-y,z
y,-x,z
-x,-y,-z
y,-x,-z
x,y,-z
-y,x,-z
1/2+x,1/2+y,1/2+z
1/2-y,1/2+x,1/2+z
1/2-x,1/2-y,1/2+z
1/2+y,1/2-x,1/2+z
1/2-x,1/2-y,1/2-z
1/2+y,1/2-x,1/2-z
1/2+x,1/2+y,1/2-z
1/2-y,1/2+x,1/2-z
loop_
_atom_site_type_symbol
_atom_site_label
_atom_site_fract_x
_atom_site_fract_y
_atom_site_fract_z
Si Si1 0.086136 0.382334 0.113785
Si Si2 0.696384 0.249135 0.113416
Si Si3 0.217045 0.988034 0.883256
Si Si4 0.154992 0.830118 0.806612
Si Si5 0.500000 0.000000 0.250000
O O1 0.175373 0.359210 0.137793
O O2 0.029780 0.308486 0.133444
O O3 0.062895 0.454524 0.183125
O O4 0.078215 0.410758 0.000000
O O5 0.786586 0.222981 0.127034
O O6 0.674199 0.319045 0.188757
O O7 0.685165 0.279148 0.000000
O O8 0.197540 0.067784 0.827885
O O9 0.163580 0.921050 0.833537
O O10 0.195986 0.993056 0.000000
#
# Coordination Sequence:
#
# PCOD8303798 Si02
#       5
#    16  16  16  16   4
#     4   9  19  31  46  69  98 128 161 200 242 283
#     4   9  18  35  53  70  96 133 169 200 235 291
#     4  10  19  33  50  73 100 126 161 207 247 288
#     4  10  19  32  53  75  98 129 163 200 250 293
#     4  12  18  28  48  70 100 132 158 196 244 294
#
# _framework density 17.517523000000001
#
# number of rings (size 3 to 8) (size 9 to 14) (size 15 to 20)
#    0.000    2.353    0.000    5.294    0.000    0.471 
#    0.000    2.353    0.000    8.471    0.000    1.647 
#    0.000    0.000    0.000    0.000    0.000    0.000 
#
# Total GULP energy -421683.923810 kJ/mol
# GULP energy per Si atom -12402.468347 kJ/mol
# Density = 1.747765 g / cm^3
# Si number density = 17.517523 Si / 1000 Ang^3
#
#
#
# Elastic Constant Matrix: (Units=GPa)
#
#
# Indices 1 2 3 4 5 6 
#
# 1 50.8437 6.6528 26.4250 0.0000 0.0000 4.0870
# 2 6.6528 50.8437 26.4250 0.0000 0.0000 -4.0870
# 3 26.4250 26.4250 98.3021 0.0000 0.0000 0.0000
# 4 0.0000 0.0000 0.0000 22.0868 0.0000 0.0000
# 5 0.0000 0.0000 0.0000 0.0000 22.0868 0.0000
# 6 4.0870 -4.0870 0.0000 0.0000 0.0000 14.9222
#
#
#
# Elastic Compliance Matrix: (Units=1/GPa)
#
#
# Indices 1 2 3 4 5 6 
#
# 1 0.023468 -0.000368 -0.006210 0.000000 0.000000 -0.006529
# 2 -0.000368 0.023468 -0.006210 0.000000 0.000000 0.006529
# 3 -0.006210 -0.006210 0.013511 0.000000 0.000000 0.000000
# 4 0.000000 0.000000 0.000000 0.045276 0.000000 0.000000
# 5 0.000000 0.000000 0.000000 0.000000 0.045276 0.000000
# 6 -0.006529 0.006529 0.000000 0.000000 0.000000 0.070590
#
#
# Mechanical properties :
#
#
# Convention : Reuss Voigt Hill
#
# Bulk Modulus (GPa) = 28.67552 35.44393 32.05972
# Shear Modulus (GPa) = 19.32070 21.18495 20.25283
#
# Velocity S-wave (km/s) = 3.32465 3.48136 3.40390
# Velocity P-wave (km/s) = 5.58058 6.03632 5.81292
#
# Compressibility (1/GPa) = 0.03487295
#
# Stress axis : x y z
#
# Youngs Moduli (GPa) = 42.61042 42.61042 74.01256
#
# Poissons Ratio (x) = 0.01569 0.45959
# Poissons Ratio (y) = 0.01569 0.45959
# Poissons Ratio (z) = 0.26460 0.26460
#
# Static dielectric constant tensor:
#      x y z
#    x 3.108170 0.000000 0.000000 
#    y 0.000000 3.108170 0.000000 
#    z 0.000000 0.000000 3.300710 
# 
# 
# High freq. dielectric constant tensor:
#      x y z
#    x 1.666150 0.000000 0.000000 
#    y 0.000000 1.666150 0.000000 
#    z 0.000000 0.000000 1.683610 
# 
# From -- ./inp_files/2482.got.cif
#   From: 2010.03.12/outbox.cif.g09.slc.cpg/sg87_2_cif.got.tgz:2482.got - 2010.04.08 20:16:13.
