data_PCOD8303563
_publ_section_title
;
Structure prediction by ZEFSAII (Michael W. Deem and Ramdas Pophale) SiO2 
 PCOD8303563
Probable space group: P 42/N
;
_chemical_formula_sum "Si O2"
_cell_formula_units_Z 48
_cell_length_a 9.230844
_cell_length_b 9.230844
_cell_length_c 29.303592
_cell_angle_alpha 90.000000
_cell_angle_beta 90.000000
_cell_angle_gamma 90.000000
_cell_volume 2496.914561
_symmetry_space_group_name_H-M "P 42/N"
_symmetry_group_IT_number 86
_space_group.IT_coordinate_system_code '2'
_symmetry_cell_setting 'tetragonal'
loop_
_space_group_symop_operation_xyz
x,y,z
-y,1/2+x,1/2+z
1/2-x,1/2-y,z
1/2+y,-x,1/2+z
-x,-y,-z
y,1/2-x,1/2-z
1/2+x,1/2+y,-z
1/2-y,x,1/2-z
loop_
_atom_site_type_symbol
_atom_site_label
_atom_site_fract_x
_atom_site_fract_y
_atom_site_fract_z
Si Si1 0.569613 0.385883 0.339141
Si Si2 0.899850 0.439494 0.332572
Si Si3 0.615213 0.649168 0.079476
Si Si4 0.074696 0.411721 0.247166
Si Si5 0.778474 0.415203 0.023198
Si Si6 0.547744 0.076782 0.941146
O O1 0.731381 0.418390 0.322679
O O2 0.531707 0.216427 0.343823
O O3 0.469397 0.469113 0.302782
O O4 0.537144 0.447301 0.388486
O O5 0.924113 0.549306 0.374852
O O6 0.980301 0.492518 0.286353
O O7 0.750000 0.750000 0.094307
O O8 0.657480 0.522112 0.043954
O O9 0.502442 0.754642 0.053539
O O10 0.241406 0.453804 0.254664
O O11 0.750000 0.250000 0.037705
O O12 0.937163 0.457592 0.040605
O O13 0.797360 0.432883 0.967864
#
# Coordination Sequence:
#
# PCOD8303563 Si02
#       6
#     8   8   8   8   8   8
#     4   9  18  35  57  78 107 144 182 218 271 337
#     4   9  18  34  56  81 103 147 182 213 275 336
#     4   9  19  37  56  77 114 146 180 233 278 330
#     4   9  18  34  56  80 112 138 177 233 279 323
#     4  10  21  35  56  81 108 147 184 233 279 322
#     4   9  20  38  55  78 113 147 184 229 276 334
#
# _framework density 19.223724000000001
#
# number of rings (size 3 to 8) (size 9 to 14) (size 15 to 20)
#    0.000    2.833    0.000    0.000    4.667    2.000 
#    9.000    0.000   18.333    0.000    0.000    0.000 
#    0.000    0.000    0.000    0.000    0.000    0.000 
#
# Total GULP energy -594844.989962 kJ/mol
# GULP energy per Si atom -12392.603958 kJ/mol
# Density = 1.917997 g / cm^3
# Si number density = 19.223724 Si / 1000 Ang^3
#
#
#
# Elastic Constant Matrix: (Units=GPa)
#
#
# Indices 1 2 3 4 5 6 
#
# 1 65.4464 31.0442 64.4070 0.0000 0.0000 -5.6790
# 2 31.0442 65.4464 64.4070 0.0000 0.0000 5.6790
# 3 64.4070 64.4070 156.4506 0.0000 0.0000 0.0000
# 4 0.0000 0.0000 0.0000 34.0371 0.0000 0.0000
# 5 0.0000 0.0000 0.0000 0.0000 34.0371 0.0000
# 6 -5.6790 5.6790 0.0000 0.0000 0.0000 24.0004
#
#
#
# Elastic Compliance Matrix: (Units=1/GPa)
#
#
# Indices 1 2 3 4 5 6 
#
# 1 0.027270 -0.004261 -0.009472 0.000000 0.000000 0.007461
# 2 -0.004261 0.027270 -0.009472 0.000000 0.000000 -0.007461
# 3 -0.009472 -0.009472 0.014191 0.000000 0.000000 0.000000
# 4 0.000000 0.000000 0.000000 0.029380 0.000000 0.000000
# 5 0.000000 0.000000 0.000000 0.000000 0.029380 0.000000
# 6 0.007461 -0.007461 0.000000 0.000000 0.000000 0.045197
#
#
# Mechanical properties :
#
#
# Convention : Reuss Voigt Hill
#
# Bulk Modulus (GPa) = 44.80304 67.45109 56.12706
# Shear Modulus (GPa) = 22.07128 26.91394 24.49261
#
# Velocity S-wave (km/s) = 3.39208 3.74577 3.57330
# Velocity P-wave (km/s) = 6.22080 7.33971 6.80329
#
# Compressibility (1/GPa) = 0.02231992
#
# Stress axis : x y z
#
# Youngs Moduli (GPa) = 36.67008 36.67008 70.46776
#
# Poissons Ratio (x) = 0.15625 0.66750
# Poissons Ratio (y) = 0.15625 0.66750
# Poissons Ratio (z) = 0.34735 0.34735
#
# Static dielectric constant tensor:
#      x y z
#    x 3.501070 0.000000 0.000000 
#    y 0.000000 3.501070 0.000000 
#    z 0.000000 0.000000 3.729370 
# 
# 
# High freq. dielectric constant tensor:
#      x y z
#    x 1.735980 0.000000 0.000000 
#    y 0.000000 1.735980 0.000000 
#    z 0.000000 0.000000 1.754920 
# 
# From -- ./inp_files/5206.got.cif
#   From: 2010.03.12/outbox.cif.g09.slc.cpg/sg86_3_cif.got.tgz:5206.got - 2010.04.08 20:12:58.
