data_PCOD8303883
_publ_section_title
;
Structure prediction by ZEFSAII (Michael W. Deem and Ramdas Pophale) SiO2 
 PCOD8303883
Probable space group: I 4/M
;
_chemical_formula_sum "Si O2"
_cell_formula_units_Z 104
_cell_length_a 24.532942
_cell_length_b 24.532942
_cell_length_c 9.524300
_cell_angle_alpha 90.000000
_cell_angle_beta 90.000000
_cell_angle_gamma 90.000000
_cell_volume 5732.345136
_symmetry_space_group_name_H-M "I 4/M"
_symmetry_group_IT_number 87
_symmetry_cell_setting 'tetragonal'
loop_
_space_group_symop_operation_xyz
x,y,z
-y,x,z
-x,-y,z
y,-x,z
-x,-y,-z
y,-x,-z
x,y,-z
-y,x,-z
1/2+x,1/2+y,1/2+z
1/2-y,1/2+x,1/2+z
1/2-x,1/2-y,1/2+z
1/2+y,1/2-x,1/2+z
1/2-x,1/2-y,1/2-z
1/2+y,1/2-x,1/2-z
1/2+x,1/2+y,1/2-z
1/2-y,1/2+x,1/2-z
loop_
_atom_site_type_symbol
_atom_site_label
_atom_site_fract_x
_atom_site_fract_y
_atom_site_fract_z
Si Si1 0.086275 0.029318 0.500000
Si Si2 0.634035 0.061556 0.343177
Si Si3 0.435299 0.346415 0.649383
Si Si4 0.358574 0.067373 0.663020
Si Si5 0.860137 0.943405 0.217431
Si Si6 0.448710 0.253662 0.161725
Si Si7 0.441648 0.756887 0.334240
O O1 0.127195 0.041422 0.375784
O O2 0.033715 0.068298 0.500000
O O3 0.611895 0.074847 0.500000
O O4 0.596825 0.088324 0.224746
O O5 0.696432 0.083738 0.329979
O O6 0.633331 0.996909 0.318554
O O7 0.418120 0.319880 0.500000
O O8 0.406882 0.404662 0.660971
O O9 0.499532 0.358726 0.636410
O O10 0.416042 0.305816 0.776027
O O11 0.350945 0.083066 0.500000
O O12 0.306293 0.088370 0.752434
O O13 0.801454 0.912815 0.196203
O O14 0.499054 0.249036 0.266706
O O15 0.466111 0.264801 0.000000
O O16 0.444284 0.770268 0.500000
#
# Coordination Sequence:
#
# PCOD8303883 Si02
#       7
#     8  16  16  16  16  16  16
#     4  11  22  36  48  76 106 146 182 221 277 329
#     4   9  19  36  54  79 113 140 170 211 256 306
#     4  11  22  35  50  74 105 138 177 222 273 319
#     4  10  21  35  56  84 109 142 177 211 255 310
#     4  11  22  33  52  74 103 138 180 221 270 323
#     4   9  19  34  53  76 102 137 179 218 257 311
#     4  10  20  34  52  75 104 139 176 220 268 308
#
# _framework density 18.142662000000001
#
# number of rings (size 3 to 8) (size 9 to 14) (size 15 to 20)
#    0.000    1.923    1.538    4.615    6.462    4.308 
#    0.000    2.308    0.000    0.923    0.000    0.000 
#    0.000    0.000    0.000    0.000    0.000    0.000 
#
# Total GULP energy -644283.125975 kJ/mol
# GULP energy per Si atom -12390.060115 kJ/mol
# Density = 1.810137 g / cm^3
# Si number density = 18.142662 Si / 1000 Ang^3
#
#
#
# Elastic Constant Matrix: (Units=GPa)
#
#
# Indices 1 2 3 4 5 6 
#
# 1 64.1263 34.2277 36.9951 0.0000 0.0000 0.5452
# 2 34.2277 64.1263 36.9951 0.0000 0.0000 -0.5452
# 3 36.9951 36.9951 154.2062 0.0000 0.0000 0.0000
# 4 0.0000 0.0000 0.0000 28.5759 0.0000 0.0000
# 5 0.0000 0.0000 0.0000 0.0000 28.5759 0.0000
# 6 0.5452 -0.5452 0.0000 0.0000 0.0000 4.4602
#
#
#
# Elastic Compliance Matrix: (Units=1/GPa)
#
#
# Indices 1 2 3 4 5 6 
#
# 1 0.023001 -0.010595 -0.002976 0.000000 0.000000 -0.004107
# 2 -0.010595 0.023001 -0.002976 0.000000 0.000000 0.004107
# 3 -0.002976 -0.002976 0.007913 0.000000 0.000000 0.000000
# 4 0.000000 0.000000 0.000000 0.034995 0.000000 0.000000
# 5 0.000000 0.000000 0.000000 0.000000 0.034995 0.000000
# 6 -0.004107 0.004107 0.000000 0.000000 0.000000 0.225211
#
#
# Mechanical properties :
#
#
# Convention : Reuss Voigt Hill
#
# Bulk Modulus (GPa) = 48.03007 55.43270 51.73138
# Shear Modulus (GPa) = 12.84847 23.93845 18.39346
#
# Velocity S-wave (km/s) = 2.66407 3.63637 3.18751
# Velocity P-wave (km/s) = 5.99951 6.94630 6.49019
#
# Compressibility (1/GPa) = 0.02082029
#
# Stress axis : x y z
#
# Youngs Moduli (GPa) = 43.47579 43.47579 126.37542
#
# Poissons Ratio (x) = 0.46062 0.37614
# Poissons Ratio (y) = 0.46062 0.37614
# Poissons Ratio (z) = 0.12940 0.12940
#
# Static dielectric constant tensor:
#      x y z
#    x 3.439390 0.000000 0.000000 
#    y 0.000000 3.439390 0.000000 
#    z 0.000000 0.000000 3.627050 
# 
# 
# High freq. dielectric constant tensor:
#      x y z
#    x 1.678690 0.000000 0.000000 
#    y 0.000000 1.678690 0.000000 
#    z 0.000000 0.000000 1.728800 
# 
# From -- ./inp_files/1636.got.cif
#   From: 2010.03.12/outbox.cif.g09.slc.cpg/sg87_1_cif.got.tgz:1636.got - 2010.04.08 20:16:13.
