data_PCOD8303292
_publ_section_title
;
Structure prediction by ZEFSAII (Michael W. Deem and Ramdas Pophale) SiO2 
 PCOD8303292
Probable space group: P 42/M
;
_chemical_formula_sum "Si O2"
_cell_formula_units_Z 48
_cell_length_a 16.645551
_cell_length_b 16.645551
_cell_length_c 8.956750
_cell_angle_alpha 90.000000
_cell_angle_beta 90.000000
_cell_angle_gamma 90.000000
_cell_volume 2481.685846
_symmetry_space_group_name_H-M "P 42/M"
_symmetry_group_IT_number 84
_symmetry_cell_setting 'tetragonal'
loop_
_space_group_symop_operation_xyz
x,y,z
-y,x,1/2+z
-x,-y,z
y,-x,1/2+z
-x,-y,-z
y,-x,1/2-z
x,y,-z
-y,x,1/2-z
loop_
_atom_site_type_symbol
_atom_site_label
_atom_site_fract_x
_atom_site_fract_y
_atom_site_fract_z
Si Si1 0.608424 0.833721 0.328756
Si Si2 0.834806 0.573069 0.171512
Si Si3 0.994817 0.619439 0.331760
Si Si4 0.992654 0.800752 0.335838
Si Si5 0.150087 0.164816 0.829788
Si Si6 0.253982 0.286956 0.325293
O O1 0.632227 0.851322 0.500000
O O2 0.517532 0.801529 0.315288
O O3 0.666402 0.761483 0.267180
O O4 0.616006 0.917474 0.241871
O O5 0.924164 0.572242 0.245231
O O6 0.765098 0.628097 0.245645
O O7 0.845487 0.599756 0.000000
O O8 0.001613 0.585007 0.500000
O O9 0.963095 0.709775 0.334917
O O10 0.981376 0.840116 0.500000
O O11 0.085857 0.799792 0.294296
O O12 0.943296 0.850427 0.211672
O O13 0.178502 0.231607 0.714011
O O14 0.159682 0.193631 0.000000
O O15 0.259367 0.304261 0.500000
#
# Coordination Sequence:
#
# PCOD8303292 Si02
#       6
#     8   8   8   8   8   8
#     4  10  23  40  59  85 118 153 188 231 282 339
#     4  11  23  39  59  86 118 151 189 230 281 340
#     4  11  21  35  57  87 120 152 188 232 281 334
#     4  10  22  37  53  79 113 147 192 240 280 328
#     4  11  22  37  57  79 107 150 195 235 282 332
#     4  11  22  38  60  84 112 147 186 230 281 334
#
# _framework density 19.341691000000001
#
# number of rings (size 3 to 8) (size 9 to 14) (size 15 to 20)
#    0.000    1.333    3.333    2.500    0.000    6.333 
#    0.000    1.667    0.000    0.500    0.000    3.500 
#    0.000    0.000    0.000    0.000    0.000    0.000 
#
# Total GULP energy -594908.681125 kJ/mol
# GULP energy per Si atom -12393.930857 kJ/mol
# Density = 1.929767 g / cm^3
# Si number density = 19.341691 Si / 1000 Ang^3
#
#
#
# Elastic Constant Matrix: (Units=GPa)
#
#
# Indices 1 2 3 4 5 6 
#
# 1 83.5905 54.3486 44.7092 0.0000 0.0000 3.4107
# 2 54.3486 83.5905 44.7092 0.0000 0.0000 -3.4107
# 3 44.7092 44.7092 92.6122 0.0000 0.0000 0.0000
# 4 0.0000 0.0000 0.0000 22.6858 0.0000 0.0000
# 5 0.0000 0.0000 0.0000 0.0000 22.6858 0.0000
# 6 3.4107 -3.4107 0.0000 0.0000 0.0000 23.6995
#
#
#
# Elastic Compliance Matrix: (Units=1/GPa)
#
#
# Indices 1 2 3 4 5 6 
#
# 1 0.022969 -0.012417 -0.005094 0.000000 0.000000 -0.005092
# 2 -0.012417 0.022969 -0.005094 0.000000 0.000000 0.005092
# 3 -0.005094 -0.005094 0.015716 0.000000 0.000000 0.000000
# 4 0.000000 0.000000 0.000000 0.044081 0.000000 0.000000
# 5 0.000000 0.000000 0.000000 0.000000 0.044081 0.000000
# 6 -0.005092 0.005092 0.000000 0.000000 0.000000 0.043661
#
#
# Mechanical properties :
#
#
# Convention : Reuss Voigt Hill
#
# Bulk Modulus (GPa) = 60.81352 60.81411 60.81381
# Shear Modulus (GPa) = 20.47794 21.54930 21.01362
#
# Velocity S-wave (km/s) = 3.25737 3.34149 3.29970
# Velocity P-wave (km/s) = 6.75701 6.81158 6.78435
#
# Compressibility (1/GPa) = 0.01644371
#
# Stress axis : x y z
#
# Youngs Moduli (GPa) = 43.53784 43.53784 63.62971
#
# Poissons Ratio (x) = 0.54060 0.32412
# Poissons Ratio (y) = 0.54060 0.32412
# Poissons Ratio (z) = 0.22178 0.22178
#
# Static dielectric constant tensor:
#      x y z
#    x 3.529690 0.000000 0.000000 
#    y 0.000000 3.529690 0.000000 
#    z 0.000000 0.000000 3.610510 
# 
# 
# High freq. dielectric constant tensor:
#      x y z
#    x 1.743940 0.000000 0.000000 
#    y 0.000000 1.743940 0.000000 
#    z 0.000000 0.000000 1.758770 
# 
# From -- ./inp_files/1011.got.cif
#   From: 2010.03.12/outbox.cif.g09.slc.cpg/sg84_1_cif.got.tgz:1011.got - 2010.04.08 20:07:29.
