data_PCOD8303970
_publ_section_title
;
Structure prediction by ZEFSAII (Michael W. Deem and Ramdas Pophale) SiO2 
 PCOD8303970
Probable space group: I 4/M
;
_chemical_formula_sum "Si O2"
_cell_formula_units_Z 72
_cell_length_a 19.316324
_cell_length_b 19.316324
_cell_length_c 10.304833
_cell_angle_alpha 90.000000
_cell_angle_beta 90.000000
_cell_angle_gamma 90.000000
_cell_volume 3844.943131
_symmetry_space_group_name_H-M "I 4/M"
_symmetry_group_IT_number 87
_symmetry_cell_setting 'tetragonal'
loop_
_space_group_symop_operation_xyz
x,y,z
-y,x,z
-x,-y,z
y,-x,z
-x,-y,-z
y,-x,-z
x,y,-z
-y,x,-z
1/2+x,1/2+y,1/2+z
1/2-y,1/2+x,1/2+z
1/2-x,1/2-y,1/2+z
1/2+y,1/2-x,1/2+z
1/2-x,1/2-y,1/2-z
1/2+y,1/2-x,1/2-z
1/2+x,1/2+y,1/2-z
1/2-y,1/2+x,1/2-z
loop_
_atom_site_type_symbol
_atom_site_label
_atom_site_fract_x
_atom_site_fract_y
_atom_site_fract_z
Si Si1 0.926074 0.831499 0.257961
Si Si2 0.426632 0.413748 0.000000
Si Si3 0.330498 0.062766 0.851597
Si Si4 0.055696 0.321071 0.347959
Si Si5 0.571029 0.325517 0.644336
O O1 0.895808 0.875012 0.377243
O O2 0.917894 0.750459 0.285126
O O3 0.873887 0.860422 0.148358
O O4 0.006029 0.851164 0.230916
O O5 0.508394 0.402789 0.000000
O O6 0.381432 0.126623 0.836128
O O7 0.253527 0.090761 0.820893
O O8 0.350281 0.005996 0.742491
O O9 0.335684 0.032789 0.000000
O O10 0.032851 0.311892 0.500000
O O11 0.541182 0.328030 0.500000
#
# Coordination Sequence:
#
# PCOD8303970 Si02
#       5
#    16   8  16  16  16
#     4  11  20  34  56  78 110 147 186 227 268 322
#     4  11  20  32  50  80 114 141 183 233 265 311
#     4   9  21  40  59  83 113 143 183 232 280 338
#     4  10  21  38  61  84 109 145 186 231 284 336
#     4  10  21  36  53  78 112 148 185 224 272 328
#
# _framework density 18.725895000000001
#
# number of rings (size 3 to 8) (size 9 to 14) (size 15 to 20)
#    0.000    1.889    3.333    0.667    0.000    3.556 
#    0.000    3.333    0.000    0.000    0.000    0.000 
#    0.000    0.000    0.000    0.000    0.000    0.000 
#
# Total GULP energy -446133.319215 kJ/mol
# GULP energy per Si atom -12392.592200 kJ/mol
# Density = 1.868327 g / cm^3
# Si number density = 18.725895 Si / 1000 Ang^3
#
#
#
# Elastic Constant Matrix: (Units=GPa)
#
#
# Indices 1 2 3 4 5 6 
#
# 1 91.0379 47.0923 37.6799 0.0000 0.0000 4.7413
# 2 47.0923 91.0379 37.6799 0.0000 0.0000 -4.7413
# 3 37.6799 37.6799 80.5052 0.0000 0.0000 0.0000
# 4 0.0000 0.0000 0.0000 27.5923 0.0000 0.0000
# 5 0.0000 0.0000 0.0000 0.0000 27.5923 0.0000
# 6 4.7413 -4.7413 0.0000 0.0000 0.0000 34.7828
#
#
#
# Elastic Compliance Matrix: (Units=1/GPa)
#
#
# Indices 1 2 3 4 5 6 
#
# 1 0.016584 -0.006861 -0.004550 0.000000 0.000000 -0.003196
# 2 -0.006861 0.016584 -0.004550 0.000000 0.000000 0.003196
# 3 -0.004550 -0.004550 0.016681 0.000000 0.000000 0.000000
# 4 0.000000 0.000000 0.000000 0.036242 0.000000 0.000000
# 5 0.000000 0.000000 0.000000 0.000000 0.036242 0.000000
# 6 -0.003196 0.003196 0.000000 0.000000 0.000000 0.029621
#
#
# Mechanical properties :
#
#
# Convention : Reuss Voigt Hill
#
# Bulk Modulus (GPa) = 55.79162 56.38723 56.08942
# Shear Modulus (GPa) = 26.33628 27.33542 26.83585
#
# Velocity S-wave (km/s) = 3.75428 3.82483 3.78972
# Velocity P-wave (km/s) = 6.97505 7.04862 7.01193
#
# Compressibility (1/GPa) = 0.01792384
#
# Stress axis : x y z
#
# Youngs Moduli (GPa) = 60.30068 60.30068 59.94817
#
# Poissons Ratio (x) = 0.41375 0.27279
# Poissons Ratio (y) = 0.41375 0.27279
# Poissons Ratio (z) = 0.27439 0.27439
#
# Static dielectric constant tensor:
#      x y z
#    x 3.253270 0.000000 0.000000 
#    y 0.000000 3.253270 0.000000 
#    z 0.000000 0.000000 3.761180 
# 
# 
# High freq. dielectric constant tensor:
#      x y z
#    x 1.716330 0.000000 0.000000 
#    y 0.000000 1.716330 0.000000 
#    z 0.000000 0.000000 1.744590 
# 
# From -- ./inp_files/1070.got.cif
#   From: 2010.03.12/outbox.cif.g09.slc.cpg/sg87_1_cif.got.tgz:1070.got - 2010.04.08 20:16:13.
