data_PCOD8303939
_publ_section_title
;
Structure prediction by ZEFSAII (Michael W. Deem and Ramdas Pophale) SiO2 
 PCOD8303939
Probable space group: I 4/M
;
_chemical_formula_sum "Si O2"
_cell_formula_units_Z 120
_cell_length_a 26.501113
_cell_length_b 26.501113
_cell_length_c 9.185207
_cell_angle_alpha 90.000000
_cell_angle_beta 90.000000
_cell_angle_gamma 90.000000
_cell_volume 6450.853453
_symmetry_space_group_name_H-M "I 4/M"
_symmetry_group_IT_number 87
_symmetry_cell_setting 'tetragonal'
loop_
_space_group_symop_operation_xyz
x,y,z
-y,x,z
-x,-y,z
y,-x,z
-x,-y,-z
y,-x,-z
x,y,-z
-y,x,-z
1/2+x,1/2+y,1/2+z
1/2-y,1/2+x,1/2+z
1/2-x,1/2-y,1/2+z
1/2+y,1/2-x,1/2+z
1/2-x,1/2-y,1/2-z
1/2+y,1/2-x,1/2-z
1/2+x,1/2+y,1/2-z
1/2-y,1/2+x,1/2-z
loop_
_atom_site_type_symbol
_atom_site_label
_atom_site_fract_x
_atom_site_fract_y
_atom_site_fract_z
Si Si1 0.986215 0.917715 0.000000
Si Si2 0.247458 0.039751 0.670392
Si Si3 0.814644 0.334351 0.169500
Si Si4 0.632973 0.702854 0.167844
Si Si5 0.611070 0.092889 0.167307
Si Si6 0.534719 0.676943 0.339313
Si Si7 0.004836 0.641332 0.666105
Si Si8 0.655627 0.261440 0.171080
O O1 0.980086 0.882310 0.856440
O O2 0.040965 0.942424 0.000000
O O3 0.237715 0.034030 0.500000
O O4 0.243506 0.097639 0.718741
O O5 0.204557 0.008743 0.750945
O O6 0.302220 0.019122 0.714136
O O7 0.762524 0.363637 0.194982
O O8 0.858917 0.366015 0.241614
O O9 0.811420 0.279542 0.242876
O O10 0.826199 0.327414 0.000000
O O11 0.588049 0.680055 0.260582
O O12 0.684084 0.675730 0.218254
O O13 0.621796 0.691102 0.000000
O O14 0.620682 0.037349 0.226720
O O15 0.552130 0.104430 0.182230
O O16 0.628493 0.096401 0.000000
O O17 0.539501 0.702025 0.500000
O O18 0.984759 0.641381 0.500000
O O19 0.662975 0.251756 0.000000
#
# Coordination Sequence:
#
# PCOD8303939 Si02
#       8
#     8  16  16  16  16  16  16  16
#     4   9  22  44  64  86 126 162 196 251 322 374
#     4  10  20  38  60  84 118 154 192 247 301 356
#     4  11  22  37  57  87 122 163 198 241 297 360
#     4  10  22  38  57  86 126 160 196 244 304 360
#     4  11  23  40  61  83 113 152 199 245 298 358
#     4  10  23  35  61  91 115 152 203 246 299 356
#     4  10  22  40  59  82 114 151 193 244 299 349
#     4  10  21  38  61  85 117 162 202 241 301 360
#
# _framework density 18.60219
#
# number of rings (size 3 to 8) (size 9 to 14) (size 15 to 20)
#    0.400    1.400    1.333    2.400    1.867    7.200 
#    0.000    1.333    0.000    0.000    0.000    3.733 
#    0.000    0.000    0.000    0.000    0.000    0.000 
#
# Total GULP energy -744165.329672 kJ/mol
# GULP energy per Si atom -12402.755495 kJ/mol
# Density = 1.855985 g / cm^3
# Si number density = 18.602190 Si / 1000 Ang^3
#
#
#
# Elastic Constant Matrix: (Units=GPa)
#
#
# Indices 1 2 3 4 5 6 
#
# 1 72.8241 29.9163 39.2868 0.0000 0.0000 2.6758
# 2 29.9163 72.8241 39.2868 0.0000 0.0000 -2.6758
# 3 39.2868 39.2868 69.2112 0.0000 0.0000 0.0000
# 4 0.0000 0.0000 0.0000 31.1640 0.0000 0.0000
# 5 0.0000 0.0000 0.0000 0.0000 31.1640 0.0000
# 6 2.6758 -2.6758 0.0000 0.0000 0.0000 33.2279
#
#
#
# Elastic Compliance Matrix: (Units=1/GPa)
#
#
# Indices 1 2 3 4 5 6 
#
# 1 0.020371 -0.003171 -0.009763 0.000000 0.000000 -0.001896
# 2 -0.003171 0.020371 -0.009763 0.000000 0.000000 0.001896
# 3 -0.009763 -0.009763 0.025533 0.000000 0.000000 0.000000
# 4 0.000000 0.000000 0.000000 0.032088 0.000000 0.000000
# 5 0.000000 0.000000 0.000000 0.000000 0.032088 0.000000
# 6 -0.001896 0.001896 0.000000 0.000000 0.000000 0.030401
#
#
# Mechanical properties :
#
#
# Convention : Reuss Voigt Hill
#
# Bulk Modulus (GPa) = 47.89446 47.98214 47.93830
# Shear Modulus (GPa) = 23.45132 26.20248 24.82690
#
# Velocity S-wave (km/s) = 3.55445 3.75716 3.65721
# Velocity P-wave (km/s) = 6.53055 6.68367 6.60756
#
# Compressibility (1/GPa) = 0.02087924
#
# Stress axis : x y z
#
# Youngs Moduli (GPa) = 49.08899 49.08899 39.16555
#
# Poissons Ratio (x) = 0.15567 0.38239
# Poissons Ratio (y) = 0.15567 0.38239
# Poissons Ratio (z) = 0.47928 0.47928
#
# Static dielectric constant tensor:
#      x y z
#    x 3.430980 0.000000 0.000000 
#    y 0.000000 3.430980 0.000000 
#    z 0.000000 0.000000 3.421980 
# 
# 
# High freq. dielectric constant tensor:
#      x y z
#    x 1.729260 0.000000 0.000000 
#    y 0.000000 1.729260 0.000000 
#    z 0.000000 0.000000 1.719960 
# 
# From -- ./inp_files/1689.got.cif
#   From: 2010.03.12/outbox.cif.g09.slc.cpg/sg87_1_cif.got.tgz:1689.got - 2010.04.08 20:16:13.
