data_PCOD8303526
_publ_section_title
;
Structure prediction by ZEFSAII (Michael W. Deem and Ramdas Pophale) SiO2 
 PCOD8303526
Probable space group: P 42/N
;
_chemical_formula_sum "Si O2"
_cell_formula_units_Z 44
_cell_length_a 13.569725
_cell_length_b 13.569725
_cell_length_c 11.782198
_cell_angle_alpha 90.000000
_cell_angle_beta 90.000000
_cell_angle_gamma 90.000000
_cell_volume 2169.543737
_symmetry_space_group_name_H-M "P 42/N"
_symmetry_group_IT_number 86
_space_group.IT_coordinate_system_code '2'
_symmetry_cell_setting 'tetragonal'
loop_
_space_group_symop_operation_xyz
x,y,z
-y,1/2+x,1/2+z
1/2-x,1/2-y,z
1/2+y,-x,1/2+z
-x,-y,-z
y,1/2-x,1/2-z
1/2+x,1/2+y,-z
1/2-y,x,1/2-z
loop_
_atom_site_type_symbol
_atom_site_label
_atom_site_fract_x
_atom_site_fract_y
_atom_site_fract_z
Si Si1 0.876572 0.066595 0.138426
Si Si2 0.361352 0.065879 0.706442
Si Si3 0.109816 0.821863 0.624801
Si Si4 0.688802 0.955775 0.053398
Si Si5 0.250000 0.250000 0.895868
Si Si6 0.882108 0.183353 0.922822
O O1 0.884587 0.129406 0.252686
O O2 0.938081 0.966181 0.144693
O O3 0.767181 0.032391 0.106334
O O4 0.920289 0.134894 0.039380
O O5 0.385590 0.061610 0.841391
O O6 0.288920 0.158754 0.682699
O O7 0.303426 0.970321 0.665571
O O8 0.116029 0.702906 0.635877
O O9 0.204994 0.849641 0.549293
O O10 0.009191 0.855015 0.558522
O O11 0.725375 0.844266 0.023019
#
# Coordination Sequence:
#
# PCOD8303526 Si02
#       6
#     8   8   8   8   4   8
#     4  10  21  38  56  84 118 150 191 230 289 341
#     4  11  20  37  61  85 112 152 186 235 289 338
#     4  10  22  37  57  87 113 150 194 237 278 334
#     4  10  20  35  60  85 113 149 188 241 280 332
#     4  10  21  38  60  87 116 143 194 238 283 338
#     4  10  22  36  59  80 118 154 186 232 287 345
#
# _framework density 20.280763
#
# number of rings (size 3 to 8) (size 9 to 14) (size 15 to 20)
#    0.000    1.818    1.818    3.273    2.545    2.182 
#    0.000    0.000    0.000    1.091    0.000    0.000 
#    0.000    0.000    0.000    0.000    0.000    0.000 
#
# Total GULP energy -545085.329519 kJ/mol
# GULP energy per Si atom -12388.302944 kJ/mol
# Density = 2.023460 g / cm^3
# Si number density = 20.280763 Si / 1000 Ang^3
#
#
#
# Elastic Constant Matrix: (Units=GPa)
#
#
# Indices 1 2 3 4 5 6 
#
# 1 107.1460 23.7131 41.6904 0.0000 0.0000 -0.1996
# 2 23.7131 107.1460 41.6904 0.0000 0.0000 0.1996
# 3 41.6904 41.6904 89.0893 0.0000 0.0000 0.0000
# 4 0.0000 0.0000 0.0000 25.1799 0.0000 0.0000
# 5 0.0000 0.0000 0.0000 0.0000 25.1799 0.0000
# 6 -0.1996 0.1996 0.0000 0.0000 0.0000 19.3591
#
#
#
# Elastic Compliance Matrix: (Units=1/GPa)
#
#
# Indices 1 2 3 4 5 6 
#
# 1 0.011437 -0.000549 -0.005095 0.000000 0.000000 0.000124
# 2 -0.000549 0.011437 -0.005095 0.000000 0.000000 -0.000124
# 3 -0.005095 -0.005095 0.015994 0.000000 0.000000 0.000000
# 4 0.000000 0.000000 0.000000 0.039714 0.000000 0.000000
# 5 0.000000 0.000000 0.000000 0.000000 0.039714 0.000000
# 6 0.000124 -0.000124 0.000000 0.000000 0.000000 0.051658
#
#
# Mechanical properties :
#
#
# Convention : Reuss Voigt Hill
#
# Bulk Modulus (GPa) = 57.50766 57.50767 57.50766
# Shear Modulus (GPa) = 25.35109 27.02962 26.19036
#
# Velocity S-wave (km/s) = 3.53938 3.65467 3.59749
# Velocity P-wave (km/s) = 6.71716 6.79898 6.75820
#
# Compressibility (1/GPa) = 0.01738899
#
# Stress axis : x y z
#
# Youngs Moduli (GPa) = 87.43261 87.43261 62.52503
#
# Poissons Ratio (x) = 0.04799 0.31859
# Poissons Ratio (y) = 0.04799 0.31859
# Poissons Ratio (z) = 0.44550 0.44550
#
# Static dielectric constant tensor:
#      x y z
#    x 3.777200 0.000000 0.000000 
#    y 0.000000 3.777200 0.000000 
#    z 0.000000 0.000000 3.509780 
# 
# 
# High freq. dielectric constant tensor:
#      x y z
#    x 1.791120 0.000000 0.000000 
#    y 0.000000 1.791120 0.000000 
#    z 0.000000 0.000000 1.770020 
# 
# From -- ./inp_files/2204.got.cif
#   From: 2010.03.12/outbox.cif.g09.slc.cpg/sg86_2_cif.got.tgz:2204.got - 2010.04.08 20:12:58.
