data_PCOD8303503
_publ_section_title
;
Structure prediction by ZEFSAII (Michael W. Deem and Ramdas Pophale) SiO2 
 PCOD8303503
Probable space group: P 42/N
;
_chemical_formula_sum "Si O2"
_cell_formula_units_Z 60
_cell_length_a 11.641095
_cell_length_b 11.641095
_cell_length_c 21.867031
_cell_angle_alpha 90.000000
_cell_angle_beta 90.000000
_cell_angle_gamma 90.000000
_cell_volume 2963.312735
_symmetry_space_group_name_H-M "P 42/N"
_symmetry_group_IT_number 86
_space_group.IT_coordinate_system_code '2'
_symmetry_cell_setting 'tetragonal'
loop_
_space_group_symop_operation_xyz
x,y,z
-y,1/2+x,1/2+z
1/2-x,1/2-y,z
1/2+y,-x,1/2+z
-x,-y,-z
y,1/2-x,1/2-z
1/2+x,1/2+y,-z
1/2-y,x,1/2-z
loop_
_atom_site_type_symbol
_atom_site_label
_atom_site_fract_x
_atom_site_fract_y
_atom_site_fract_z
Si Si1 0.300596 0.631549 0.667662
Si Si2 0.471977 0.328079 0.537261
Si Si3 0.871252 0.459146 0.723792
Si Si4 0.492918 0.574789 0.584644
Si Si5 0.005122 0.619013 0.804848
Si Si6 0.750000 0.750000 0.397648
Si Si7 0.748446 0.384780 0.141077
Si Si8 0.403009 0.280786 0.787205
O O1 0.250000 0.750000 0.643234
O O2 0.392029 0.673293 0.717163
O O3 0.362044 0.574524 0.609335
O O4 0.214067 0.540258 0.700789
O O5 0.516120 0.454561 0.552588
O O6 0.484338 0.319989 0.463234
O O7 0.342598 0.304900 0.557267
O O8 0.555354 0.242377 0.574602
O O9 0.755367 0.515186 0.697331
O O10 0.926040 0.366304 0.676670
O O11 0.966611 0.555054 0.741605
O O12 0.579648 0.582585 0.641844
O O13 0.137091 0.580943 0.820121
O O14 0.696095 0.846407 0.353281
O O15 0.750000 0.250000 0.130714
O O16 0.370704 0.150023 0.762548
#
# Coordination Sequence:
#
# PCOD8303503 Si02
#       8
#     8   8   8   8   8   4   8   8
#     4  11  21  34  55  86 123 158 189 232 296 364
#     4  10  19  36  60  86 109 154 195 244 293 348
#     4  10  21  35  56  82 116 154 186 242 284 350
#     4   9  20  37  58  79 115 153 200 239 285 353
#     4   9  19  38  56  82 113 151 200 229 288 347
#     4  10  19  36  58  90 116 143 194 242 302 348
#     4   9  19  36  57  86 118 148 190 239 290 348
#     4   9  21  36  58  91 122 150 178 243 311 355
#
# _framework density 20.247610000000002
#
# number of rings (size 3 to 8) (size 9 to 14) (size 15 to 20)
#    0.000    2.533    1.333    1.200    3.733    2.933 
#    0.000    2.667    0.000    0.800    0.000    0.000 
#    0.000    0.000    0.000    0.000    0.000    0.000 
#
# Total GULP energy -743438.677374 kJ/mol
# GULP energy per Si atom -12390.644623 kJ/mol
# Density = 2.020153 g / cm^3
# Si number density = 20.247610 Si / 1000 Ang^3
#
#
#
# Elastic Constant Matrix: (Units=GPa)
#
#
# Indices 1 2 3 4 5 6 
#
# 1 76.6964 26.3537 36.0629 0.0000 0.0000 3.2612
# 2 26.3537 76.6964 36.0629 0.0000 0.0000 -3.2612
# 3 36.0629 36.0629 112.5870 0.0000 0.0000 0.0000
# 4 0.0000 0.0000 0.0000 23.0936 0.0000 0.0000
# 5 0.0000 0.0000 0.0000 0.0000 23.0936 0.0000
# 6 3.2612 -3.2612 0.0000 0.0000 0.0000 25.6359
#
#
#
# Elastic Compliance Matrix: (Units=1/GPa)
#
#
# Indices 1 2 3 4 5 6 
#
# 1 0.016352 -0.003844 -0.004007 0.000000 0.000000 -0.002569
# 2 -0.003844 0.016352 -0.004007 0.000000 0.000000 0.002569
# 3 -0.004007 -0.004007 0.011449 0.000000 0.000000 0.000000
# 4 0.000000 0.000000 0.000000 0.043302 0.000000 0.000000
# 5 0.000000 0.000000 0.000000 0.000000 0.043302 0.000000
# 6 -0.002569 0.002569 0.000000 0.000000 0.000000 0.039661
#
#
# Mechanical properties :
#
#
# Convention : Reuss Voigt Hill
#
# Bulk Modulus (GPa) = 48.92598 51.43763 50.18180
# Shear Modulus (GPa) = 24.88220 25.53130 25.20675
#
# Velocity S-wave (km/s) = 3.50936 3.55484 3.53218
# Velocity P-wave (km/s) = 6.37473 6.50451 6.43995
#
# Compressibility (1/GPa) = 0.02043904
#
# Stress axis : x y z
#
# Youngs Moduli (GPa) = 61.15284 61.15284 87.34620
#
# Poissons Ratio (x) = 0.23509 0.34995
# Poissons Ratio (y) = 0.23509 0.34995
# Poissons Ratio (z) = 0.24501 0.24501
#
# Static dielectric constant tensor:
#      x y z
#    x 3.548540 0.000000 0.000000 
#    y 0.000000 3.548540 0.000000 
#    z 0.000000 0.000000 3.950650 
# 
# 
# High freq. dielectric constant tensor:
#      x y z
#    x 1.774050 0.000000 0.000000 
#    y 0.000000 1.774050 0.000000 
#    z 0.000000 0.000000 1.779130 
# 
# From -- ./inp_files/4254.got.cif
#   From: 2010.03.12/outbox.cif.g09.slc.cpg/sg86_3_cif.got.tgz:4254.got - 2010.04.08 20:12:58.
