data_PCOD8303154
_publ_section_title
;
Structure prediction by ZEFSAII (Michael W. Deem and Ramdas Pophale) SiO2 
 PCOD8303154
Probable space group: P 42/M
;
_chemical_formula_sum "Si O2"
_cell_formula_units_Z 58
_cell_length_a 17.850557
_cell_length_b 17.850557
_cell_length_c 9.339274
_cell_angle_alpha 90.000000
_cell_angle_beta 90.000000
_cell_angle_gamma 90.000000
_cell_volume 2975.888543
_symmetry_space_group_name_H-M "P 42/M"
_symmetry_group_IT_number 84
_symmetry_cell_setting 'tetragonal'
loop_
_space_group_symop_operation_xyz
x,y,z
-y,x,1/2+z
-x,-y,z
y,-x,1/2+z
-x,-y,-z
y,-x,1/2-z
x,y,-z
-y,x,1/2-z
loop_
_atom_site_type_symbol
_atom_site_label
_atom_site_fract_x
_atom_site_fract_y
_atom_site_fract_z
Si Si1 0.731965 0.632633 0.836753
Si Si2 0.640065 0.412813 0.841381
Si Si3 0.291167 0.123157 0.833167
Si Si4 0.954342 0.692544 0.667155
Si Si5 0.446748 0.856879 0.831691
Si Si6 0.189855 0.579079 0.835261
Si Si7 0.500000 0.500000 0.750000
Si Si8 0.165627 0.227464 0.841909
O O1 0.646940 0.628945 0.784072
O O2 0.778781 0.583845 0.726070
O O3 0.764361 0.716028 0.830463
O O4 0.736166 0.601037 0.000000
O O5 0.723258 0.448018 0.818939
O O6 0.574650 0.475872 0.837541
O O7 0.637601 0.375531 0.000000
O O8 0.340083 0.178767 0.735943
O O9 0.203910 0.146742 0.812918
O O10 0.299818 0.038494 0.775774
O O11 0.315283 0.129910 0.000000
O O12 0.950422 0.706909 0.500000
O O13 0.924287 0.609762 0.707139
O O14 0.901503 0.756259 0.733910
O O15 0.524746 0.868135 0.748808
O O16 0.461727 0.851926 0.000000
O O17 0.165548 0.582035 0.000000
O O18 0.130048 0.231375 0.000000
#
# Coordination Sequence:
#
# PCOD8303154 Si02
#       8
#     8   8   8   8   8   8   2   8
#     4  10  19  34  58  82 105 140 185 234 284 334
#     4  11  24  40  55  76 104 142 190 239 288 337
#     4  10  20  38  60  85 114 149 187 225 277 338
#     4   9  20  36  58  85 114 147 186 227 272 333
#     4  10  20  35  54  79 112 150 185 228 284 338
#     4  11  23  37  56  82 111 146 190 242 286 336
#     4  12  26  40  56  74 106 148 192 246 290 332
#     4   9  18  34  58  85 113 144 180 224 274 330
#
# _framework density 19.489979000000002
#
# number of rings (size 3 to 8) (size 9 to 14) (size 15 to 20)
#    0.000    1.931    1.379    2.276    0.000    5.517 
#    0.000    2.759    0.000    0.414    0.000    2.897 
#    0.000    0.000    0.000    0.000    0.000    0.000 
#
# Total GULP energy -718954.200604 kJ/mol
# GULP energy per Si atom -12395.762079 kJ/mol
# Density = 1.944562 g / cm^3
# Si number density = 19.489979 Si / 1000 Ang^3
#
#
#
# Elastic Constant Matrix: (Units=GPa)
#
#
# Indices 1 2 3 4 5 6 
#
# 1 90.8892 28.0384 37.0821 0.0000 0.0000 0.7836
# 2 28.0384 90.8892 37.0821 0.0000 0.0000 -0.7836
# 3 37.0821 37.0821 88.1153 0.0000 0.0000 0.0000
# 4 0.0000 0.0000 0.0000 24.6559 0.0000 0.0000
# 5 0.0000 0.0000 0.0000 0.0000 24.6559 0.0000
# 6 0.7836 -0.7836 0.0000 0.0000 0.0000 12.2013
#
#
#
# Elastic Compliance Matrix: (Units=1/GPa)
#
#
# Indices 1 2 3 4 5 6 
#
# 1 0.013668 -0.002268 -0.004798 0.000000 0.000000 -0.001023
# 2 -0.002268 0.013668 -0.004798 0.000000 0.000000 0.001023
# 3 -0.004798 -0.004798 0.015387 0.000000 0.000000 0.000000
# 4 0.000000 0.000000 0.000000 0.040558 0.000000 0.000000
# 5 0.000000 0.000000 0.000000 0.000000 0.040558 0.000000
# 6 -0.001023 0.001023 0.000000 0.000000 0.000000 0.082090
#
#
# Mechanical properties :
#
#
# Convention : Reuss Voigt Hill
#
# Bulk Modulus (GPa) = 52.64038 52.69988 52.67013
# Shear Modulus (GPa) = 21.18745 23.48203 22.33474
#
# Velocity S-wave (km/s) = 3.30069 3.47483 3.38888
# Velocity P-wave (km/s) = 6.44931 6.57247 6.51118
#
# Compressibility (1/GPa) = 0.01899682
#
# Stress axis : x y z
#
# Youngs Moduli (GPa) = 73.16208 73.16208 64.99067
#
# Poissons Ratio (x) = 0.16593 0.31180
# Poissons Ratio (y) = 0.16593 0.31180
# Poissons Ratio (z) = 0.35101 0.35101
#
# Static dielectric constant tensor:
#      x y z
#    x 3.495070 0.000000 0.000000 
#    y 0.000000 3.495070 0.000000 
#    z 0.000000 0.000000 3.531520 
# 
# 
# High freq. dielectric constant tensor:
#      x y z
#    x 1.745190 0.000000 0.000000 
#    y 0.000000 1.745190 0.000000 
#    z 0.000000 0.000000 1.762150 
# 
# From -- ./inp_files/1139.got.cif
#   From: 2010.03.12/outbox.cif.g09.slc.cpg/sg84_1_cif.got.tgz:1139.got - 2010.04.08 20:07:29.
