data_PCOD8303836
_publ_section_title
;
Structure prediction by ZEFSAII (Michael W. Deem and Ramdas Pophale) SiO2 
 PCOD8303836
Probable space group: I 4/M
;
_chemical_formula_sum "Si O2"
_cell_formula_units_Z 96
_cell_length_a 23.302820
_cell_length_b 23.302820
_cell_length_c 9.255893
_cell_angle_alpha 90.000000
_cell_angle_beta 90.000000
_cell_angle_gamma 90.000000
_cell_volume 5026.148160
_symmetry_space_group_name_H-M "I 4/M"
_symmetry_group_IT_number 87
_symmetry_cell_setting 'tetragonal'
loop_
_space_group_symop_operation_xyz
x,y,z
-y,x,z
-x,-y,z
y,-x,z
-x,-y,-z
y,-x,-z
x,y,-z
-y,x,-z
1/2+x,1/2+y,1/2+z
1/2-y,1/2+x,1/2+z
1/2-x,1/2-y,1/2+z
1/2+y,1/2-x,1/2+z
1/2-x,1/2-y,1/2-z
1/2+y,1/2-x,1/2-z
1/2+x,1/2+y,1/2-z
1/2-y,1/2+x,1/2-z
loop_
_atom_site_type_symbol
_atom_site_label
_atom_site_fract_x
_atom_site_fract_y
_atom_site_fract_z
Si Si1 0.898486 0.605554 0.658272
Si Si2 0.374352 0.704019 0.166260
Si Si3 0.285127 0.609783 0.165417
Si Si4 0.199268 0.311570 0.338634
Si Si5 0.509529 0.279150 0.335087
Si Si6 0.493433 0.149556 0.339777
O O1 0.926117 0.602199 0.500000
O O2 0.834447 0.629009 0.650055
O O3 0.893993 0.541408 0.724561
O O4 0.936131 0.648812 0.749160
O O5 0.346693 0.640832 0.172133
O O6 0.326220 0.747121 0.234911
O O7 0.435106 0.697053 0.248980
O O8 0.385366 0.723077 0.000000
O O9 0.237038 0.655381 0.223376
O O10 0.291321 0.551722 0.258933
O O11 0.268973 0.593039 0.000000
O O12 0.221005 0.293463 0.500000
O O13 0.508289 0.303734 0.500000
O O14 0.520149 0.211924 0.339063
O O15 0.477296 0.129924 0.500000
#
# Coordination Sequence:
#
# PCOD8303836 Si02
#       6
#    16  16  16  16  16  16
#     4  10  20  35  54  75 106 147 188 238 284 324
#     4  11  23  37  58  88 120 153 189 231 284 344
#     4  10  22  39  59  87 119 151 190 235 285 342
#     4  10  19  35  57  83 118 152 187 234 285 337
#     4  11  22  38  60  84 113 150 190 234 284 342
#     4  10  21  36  52  76 106 142 192 236 277 330
#
# _framework density 19.100114999999999
#
# number of rings (size 3 to 8) (size 9 to 14) (size 15 to 20)
#    0.000    1.667    3.333    1.500    0.000    4.333 
#    0.000    1.667    0.000    0.500    0.000    3.500 
#    0.000    0.000    0.000    0.000    0.000    0.000 
#
# Total GULP energy -594688.864475 kJ/mol
# GULP energy per Si atom -12389.351343 kJ/mol
# Density = 1.905664 g / cm^3
# Si number density = 19.100115 Si / 1000 Ang^3
#
#
#
# Elastic Constant Matrix: (Units=GPa)
#
#
# Indices 1 2 3 4 5 6 
#
# 1 79.2984 35.6982 45.4058 0.0000 0.0000 3.4286
# 2 35.6982 79.2984 45.4058 0.0000 0.0000 -3.4286
# 3 45.4058 45.4058 103.5908 0.0000 0.0000 0.0000
# 4 0.0000 0.0000 0.0000 28.5586 0.0000 0.0000
# 5 0.0000 0.0000 0.0000 0.0000 28.5586 0.0000
# 6 3.4286 -3.4286 0.0000 0.0000 0.0000 22.1789
#
#
#
# Elastic Compliance Matrix: (Units=1/GPa)
#
#
# Indices 1 2 3 4 5 6 
#
# 1 0.018403 -0.005104 -0.005829 0.000000 0.000000 -0.003634
# 2 -0.005104 0.018403 -0.005829 0.000000 0.000000 0.003634
# 3 -0.005829 -0.005829 0.014764 0.000000 0.000000 0.000000
# 4 0.000000 0.000000 0.000000 0.035016 0.000000 0.000000
# 5 0.000000 0.000000 0.000000 0.000000 0.035016 0.000000
# 6 -0.003634 0.003634 0.000000 0.000000 0.000000 0.046211
#
#
# Mechanical properties :
#
#
# Convention : Reuss Voigt Hill
#
# Bulk Modulus (GPa) = 55.41757 57.24525 56.33141
# Shear Modulus (GPa) = 24.11344 24.90438 24.50891
#
# Velocity S-wave (km/s) = 3.55699 3.61485 3.58604
# Velocity P-wave (km/s) = 6.77841 6.88906 6.83396
#
# Compressibility (1/GPa) = 0.01804482
#
# Stress axis : x y z
#
# Youngs Moduli (GPa) = 54.33831 54.33831 67.73419
#
# Poissons Ratio (x) = 0.27734 0.39485
# Poissons Ratio (y) = 0.27734 0.39485
# Poissons Ratio (z) = 0.31676 0.31676
#
# Static dielectric constant tensor:
#      x y z
#    x 3.330460 0.000000 0.000000 
#    y 0.000000 3.330460 0.000000 
#    z 0.000000 0.000000 3.604440 
# 
# 
# High freq. dielectric constant tensor:
#      x y z
#    x 1.732310 0.000000 0.000000 
#    y 0.000000 1.732310 0.000000 
#    z 0.000000 0.000000 1.742210 
# 
# From -- ./inp_files/1438.got.cif
#   From: 2010.03.12/outbox.cif.g09.slc.cpg/sg87_1_cif.got.tgz:1438.got - 2010.04.08 20:16:13.
