data_PCOD8303965
_publ_section_title
;
Structure prediction by ZEFSAII (Michael W. Deem and Ramdas Pophale) SiO2 
 PCOD8303965
Probable space group: I 4/M
;
_chemical_formula_sum "Si O2"
_cell_formula_units_Z 80
_cell_length_a 23.774356
_cell_length_b 23.774356
_cell_length_c 7.594864
_cell_angle_alpha 90.000000
_cell_angle_beta 90.000000
_cell_angle_gamma 90.000000
_cell_volume 4292.769054
_symmetry_space_group_name_H-M "I 4/M"
_symmetry_group_IT_number 87
_symmetry_cell_setting 'tetragonal'
loop_
_space_group_symop_operation_xyz
x,y,z
-y,x,z
-x,-y,z
y,-x,z
-x,-y,-z
y,-x,-z
x,y,-z
-y,x,-z
1/2+x,1/2+y,1/2+z
1/2-y,1/2+x,1/2+z
1/2-x,1/2-y,1/2+z
1/2+y,1/2-x,1/2+z
1/2-x,1/2-y,1/2-z
1/2+y,1/2-x,1/2-z
1/2+x,1/2+y,1/2-z
1/2-y,1/2+x,1/2-z
loop_
_atom_site_type_symbol
_atom_site_label
_atom_site_fract_x
_atom_site_fract_y
_atom_site_fract_z
Si Si1 0.298936 0.872998 0.204584
Si Si2 0.114696 0.117082 0.500000
Si Si3 0.785965 0.616198 0.697881
Si Si4 0.680987 0.322622 0.291222
Si Si5 0.006347 0.257033 0.790806
Si Si6 0.333875 0.502904 0.000000
O O1 0.355472 0.847186 0.289178
O O2 0.246130 0.833701 0.260802
O O3 0.293722 0.938436 0.261645
O O4 0.308248 0.868742 0.000000
O O5 0.132243 0.146810 0.681064
O O6 0.047642 0.116102 0.500000
O O7 0.137358 0.055788 0.500000
O O8 0.767188 0.607871 0.500000
O O9 0.738429 0.658421 0.777914
O O10 0.787008 0.552129 0.773616
O O11 0.672231 0.332533 0.500000
O O12 0.010932 0.200549 0.680017
O O13 0.008029 0.243689 0.000000
#
# Coordination Sequence:
#
# PCOD8303965 Si02
#       6
#    16   8  16  16  16   8
#     4  10  21  35  56  84 117 149 189 240 291 349
#     4  12  24  37  64  86 112 156 204 240 288 345
#     4  10  21  35  56  84 117 149 189 240 291 349
#     4  10  21  37  55  85 118 149 185 237 299 353
#     4  10  22  40  57  82 118 159 194 233 291 354
#     4  12  24  39  64  84 114 157 202 242 288 344
#
# _framework density 18.63599
#
# number of rings (size 3 to 8) (size 9 to 14) (size 15 to 20)
#    0.000    1.600    4.000    0.600    5.600    0.200 
#    0.000    0.000    0.000    0.600    0.000    7.000 
#    0.000    0.000    0.000    0.000    0.000    0.000 
#
# Total GULP energy -495567.425362 kJ/mol
# GULP energy per Si atom -12389.185634 kJ/mol
# Density = 1.859357 g / cm^3
# Si number density = 18.635990 Si / 1000 Ang^3
#
#
#
# Elastic Constant Matrix: (Units=GPa)
#
#
# Indices 1 2 3 4 5 6 
#
# 1 110.5656 40.9553 19.4083 0.0000 0.0000 -9.5320
# 2 40.9553 110.5656 19.4083 0.0000 0.0000 9.5320
# 3 19.4083 19.4083 53.5012 0.0000 0.0000 0.0000
# 4 0.0000 0.0000 0.0000 17.9062 0.0000 0.0000
# 5 0.0000 0.0000 0.0000 0.0000 17.9062 0.0000
# 6 -9.5320 9.5320 0.0000 0.0000 0.0000 41.7805
#
#
#
# Elastic Compliance Matrix: (Units=1/GPa)
#
#
# Indices 1 2 3 4 5 6 
#
# 1 0.011300 -0.004024 -0.002639 0.000000 0.000000 0.003496
# 2 -0.004024 0.011300 -0.002639 0.000000 0.000000 -0.003496
# 3 -0.002639 -0.002639 0.020606 0.000000 0.000000 0.000000
# 4 0.000000 0.000000 0.000000 0.055847 0.000000 0.000000
# 5 0.000000 0.000000 0.000000 0.000000 0.055847 0.000000
# 6 0.003496 -0.003496 0.000000 0.000000 0.000000 0.025530
#
#
# Mechanical properties :
#
#
# Convention : Reuss Voigt Hill
#
# Bulk Modulus (GPa) = 40.65004 48.24181 44.44592
# Shear Modulus (GPa) = 24.12742 28.50927 26.31834
#
# Velocity S-wave (km/s) = 3.60205 3.91550 3.76204
# Velocity P-wave (km/s) = 6.25777 6.81059 6.54002
#
# Compressibility (1/GPa) = 0.02460022
#
# Stress axis : x y z
#
# Youngs Moduli (GPa) = 88.49936 88.49936 48.52919
#
# Poissons Ratio (x) = 0.35609 0.12809
# Poissons Ratio (y) = 0.35609 0.12809
# Poissons Ratio (z) = 0.23359 0.23359
#
# Static dielectric constant tensor:
#      x y z
#    x 3.602190 0.000000 0.000000 
#    y 0.000000 3.602190 0.000000 
#    z 0.000000 0.000000 -0.392310 
# 
# 
# High freq. dielectric constant tensor:
#      x y z
#    x 1.711860 0.000000 0.000000 
#    y 0.000000 1.711860 0.000000 
#    z 0.000000 0.000000 1.730870 
# 
# From -- ./inp_files/1284.got.cif
#   From: 2010.03.12/outbox.cif.g09.slc.cpg/sg87_1_cif.got.tgz:1284.got - 2010.04.08 20:16:13.
