data_PCOD8303825
_publ_section_title
;
Structure prediction by ZEFSAII (Michael W. Deem and Ramdas Pophale) SiO2 
 PCOD8303825
Probable space group: I 4/M
;
_chemical_formula_sum "Si O2"
_cell_formula_units_Z 96
_cell_length_a 19.929627
_cell_length_b 19.929627
_cell_length_c 13.348451
_cell_angle_alpha 90.000000
_cell_angle_beta 90.000000
_cell_angle_gamma 90.000000
_cell_volume 5301.871685
_symmetry_space_group_name_H-M "I 4/M"
_symmetry_group_IT_number 87
_symmetry_cell_setting 'tetragonal'
loop_
_space_group_symop_operation_xyz
x,y,z
-y,x,z
-x,-y,z
y,-x,z
-x,-y,-z
y,-x,-z
x,y,-z
-y,x,-z
1/2+x,1/2+y,1/2+z
1/2-y,1/2+x,1/2+z
1/2-x,1/2-y,1/2+z
1/2+y,1/2-x,1/2+z
1/2-x,1/2-y,1/2-z
1/2+y,1/2-x,1/2-z
1/2+x,1/2+y,1/2-z
1/2-y,1/2+x,1/2-z
loop_
_atom_site_type_symbol
_atom_site_label
_atom_site_fract_x
_atom_site_fract_y
_atom_site_fract_z
Si Si1 0.927067 0.918781 0.888661
Si Si2 0.018130 0.394044 0.745381
Si Si3 0.698652 0.108034 0.616636
Si Si4 0.700564 0.379863 0.713069
Si Si5 0.227289 0.497442 0.384466
Si Si6 0.244562 0.150100 0.116063
O O1 0.892759 0.879067 0.797352
O O2 0.005279 0.906702 0.877377
O O3 0.903937 0.893624 0.000000
O O4 0.069964 0.449364 0.789093
O O5 0.049278 0.351085 0.653548
O O6 0.999417 0.345198 0.834735
O O7 0.714717 0.097137 0.500000
O O8 0.769651 0.108171 0.676463
O O9 0.664267 0.178310 0.641618
O O10 0.733633 0.433874 0.638194
O O11 0.703770 0.302106 0.676540
O O12 0.211055 0.493036 0.500000
O O13 0.267788 0.428821 0.354508
O O14 0.230032 0.162988 0.000000
#
# Coordination Sequence:
#
# PCOD8303825 Si02
#       6
#    16  16  16  16  16  16
#     4   9  17  30  51  83 115 139 171 221 278 324
#     4  10  20  35  57  81 103 134 180 227 269 322
#     4  10  22  38  53  74 107 146 180 216 266 324
#     4  11  20  31  53  79 105 141 180 216 260 322
#     4  10  20  33  52  81 109 137 177 221 273 323
#     4  10  19  34  54  76 107 140 173 220 273 319
#
# _framework density 18.106812000000001
#
# number of rings (size 3 to 8) (size 9 to 14) (size 15 to 20)
#    0.000    2.000    1.667    3.500    0.000    3.333 
#    0.000    1.667    0.000    9.000    0.000    1.167 
#    0.000    0.000    0.000    0.000    0.000    0.000 
#
# Total GULP energy -594690.890034 kJ/mol
# GULP energy per Si atom -12389.393542 kJ/mol
# Density = 1.806560 g / cm^3
# Si number density = 18.106812 Si / 1000 Ang^3
#
#
#
# Elastic Constant Matrix: (Units=GPa)
#
#
# Indices 1 2 3 4 5 6 
#
# 1 64.0703 16.8719 42.0487 0.0000 0.0000 -6.0787
# 2 16.8719 64.0703 42.0487 0.0000 0.0000 6.0787
# 3 42.0487 42.0487 98.6664 0.0000 0.0000 0.0000
# 4 0.0000 0.0000 0.0000 20.9526 0.0000 0.0000
# 5 0.0000 0.0000 0.0000 0.0000 20.9526 0.0000
# 6 -6.0787 6.0787 0.0000 0.0000 0.0000 36.7647
#
#
#
# Elastic Compliance Matrix: (Units=1/GPa)
#
#
# Indices 1 2 3 4 5 6 
#
# 1 0.022151 0.000021 -0.009449 0.000000 0.000000 0.003659
# 2 0.000021 0.022151 -0.009449 0.000000 0.000000 -0.003659
# 3 -0.009449 -0.009449 0.018189 0.000000 0.000000 0.000000
# 4 0.000000 0.000000 0.000000 0.047727 0.000000 0.000000
# 5 0.000000 0.000000 0.000000 0.000000 0.047727 0.000000
# 6 0.003659 -0.003659 0.000000 0.000000 0.000000 0.028410
#
#
# Mechanical properties :
#
#
# Convention : Reuss Voigt Hill
#
# Bulk Modulus (GPa) = 40.42590 47.63840 44.03215
# Shear Modulus (GPa) = 21.51900 24.12318 22.82109
#
# Velocity S-wave (km/s) = 3.45113 3.65399 3.55401
# Velocity P-wave (km/s) = 6.18508 6.64597 6.41966
#
# Compressibility (1/GPa) = 0.02473661
#
# Stress axis : x y z
#
# Youngs Moduli (GPa) = 45.14533 45.14533 54.97876
#
# Poissons Ratio (x) = -0.00095 0.51949
# Poissons Ratio (y) = -0.00095 0.51949
# Poissons Ratio (z) = 0.42657 0.42657
#
# Static dielectric constant tensor:
#      x y z
#    x 3.613350 0.000000 0.000000 
#    y 0.000000 3.613350 0.000000 
#    z 0.000000 0.000000 3.080840 
# 
# 
# High freq. dielectric constant tensor:
#      x y z
#    x 1.715930 0.000000 0.000000 
#    y 0.000000 1.715930 0.000000 
#    z 0.000000 0.000000 1.662580 
# 
# From -- ./inp_files/2731.got.cif
#   From: 2010.03.12/outbox.cif.g09.slc.cpg/sg87_2_cif.got.tgz:2731.got - 2010.04.08 20:16:13.
