data_PCOD8303407
_publ_section_title
;
Structure prediction by ZEFSAII (Michael W. Deem and Ramdas Pophale) SiO2 
 PCOD8303407
Probable space group: P 4/N
;
_chemical_formula_sum "Si O2"
_cell_formula_units_Z 64
_cell_length_a 18.396536
_cell_length_b 18.396536
_cell_length_c 11.168314
_cell_angle_alpha 90.000000
_cell_angle_beta 90.000000
_cell_angle_gamma 90.000000
_cell_volume 3779.720839
_symmetry_space_group_name_H-M "P 4/N"
_symmetry_group_IT_number 85
_symmetry_cell_setting 'tetragonal'
loop_
_space_group_symop_operation_xyz
x,y,z
1/2-y,x,z
1/2-x,1/2-y,z
y,1/2-x,z
-x,-y,-z
1/2+y,-x,-z
1/2+x,1/2+y,-z
-y,1/2+x,-z
loop_
_atom_site_type_symbol
_atom_site_label
_atom_site_fract_x
_atom_site_fract_y
_atom_site_fract_z
Si Si1 0.467360 0.613630 0.304816
Si Si2 0.879333 0.569195 0.671120
Si Si3 0.689848 0.855165 0.894056
Si Si4 0.319198 0.428552 0.732340
Si Si5 0.727459 0.974963 0.477186
Si Si6 0.359191 0.523477 0.402646
Si Si7 0.561717 0.477929 0.352499
Si Si8 0.575270 0.673789 0.143639
O O1 0.473776 0.686487 0.382850
O O2 0.383483 0.584809 0.303928
O O3 0.511729 0.548915 0.369742
O O4 0.499364 0.630780 0.171781
O O5 0.832926 0.595544 0.783341
O O6 0.827849 0.572675 0.554664
O O7 0.910820 0.487529 0.695172
O O8 0.943594 0.625710 0.648693
O O9 0.652248 0.776630 0.893068
O O10 0.660587 0.898224 0.009884
O O11 0.282855 0.423597 0.599502
O O12 0.372482 0.499565 0.737708
O O13 0.365533 0.355566 0.759155
O O14 0.259268 0.436114 0.835637
O O15 0.773708 0.026756 0.567133
O O16 0.405629 0.543308 0.520107
#
# Coordination Sequence:
#
# PCOD8303407 Si02
#       8
#     8   8   8   8   8   8   8   8
#     4   9  16  30  49  75  92 127 169 215 246 294
#     4  11  19  33  51  72 101 141 166 202 254 310
#     4  11  23  37  49  68 108 150 169 194 250 315
#     4   9  19  29  52  78  93 129 173 214 246 299
#     4  10  18  28  51  76 101 128 164 205 258 313
#     4  10  17  30  50  74 105 130 160 206 267 304
#     4   9  16  31  51  73 101 127 167 213 261 287
#     4  10  18  34  52  68  99 135 176 207 248 294
#
# _framework density 16.932468
#
# number of rings (size 3 to 8) (size 9 to 14) (size 15 to 20)
#    0.000    2.125    3.750    1.500    1.750    0.250 
#    0.000    5.625    0.000    0.375    0.000    0.000 
#    0.000    0.000    0.000    0.000    0.000    0.000 
#
# Total GULP energy -792973.207433 kJ/mol
# GULP energy per Si atom -12390.206366 kJ/mol
# Density = 1.689393 g / cm^3
# Si number density = 16.932468 Si / 1000 Ang^3
#
#
#
# Elastic Constant Matrix: (Units=GPa)
#
#
# Indices 1 2 3 4 5 6 
#
# 1 52.8253 22.6539 29.5064 0.0000 0.0000 1.0054
# 2 22.6539 52.8253 29.5064 0.0000 0.0000 -1.0054
# 3 29.5064 29.5064 79.0888 0.0000 0.0000 0.0000
# 4 0.0000 0.0000 0.0000 23.2505 0.0000 0.0000
# 5 0.0000 0.0000 0.0000 0.0000 23.2505 0.0000
# 6 1.0054 -1.0054 0.0000 0.0000 0.0000 15.3971
#
#
#
# Elastic Compliance Matrix: (Units=1/GPa)
#
#
# Indices 1 2 3 4 5 6 
#
# 1 0.025997 -0.007292 -0.006978 0.000000 0.000000 -0.002174
# 2 -0.007292 0.025997 -0.006978 0.000000 0.000000 0.002174
# 3 -0.006978 -0.006978 0.017851 0.000000 0.000000 0.000000
# 4 0.000000 0.000000 0.000000 0.043010 0.000000 0.000000
# 5 0.000000 0.000000 0.000000 0.000000 0.043010 0.000000
# 6 -0.002174 0.002174 0.000000 0.000000 0.000000 0.065231
#
#
# Mechanical properties :
#
#
# Convention : Reuss Voigt Hill
#
# Bulk Modulus (GPa) = 36.56716 38.67476 37.62096
# Shear Modulus (GPa) = 18.33462 19.25115 18.79288
#
# Velocity S-wave (km/s) = 3.29418 3.37551 3.33509
# Velocity P-wave (km/s) = 6.00929 6.17108 6.09072
#
# Compressibility (1/GPa) = 0.02734694
#
# Stress axis : x y z
#
# Youngs Moduli (GPa) = 38.46632 38.46632 56.01947
#
# Poissons Ratio (x) = 0.28050 0.39092
# Poissons Ratio (y) = 0.28050 0.39092
# Poissons Ratio (z) = 0.26843 0.26843
#
# Static dielectric constant tensor:
#      x y z
#    x 3.299790 0.000000 0.000000 
#    y 0.000000 3.299790 0.000000 
#    z 0.000000 0.000000 2.989820 
# 
# 
# High freq. dielectric constant tensor:
#      x y z
#    x 1.639190 0.000000 0.000000 
#    y 0.000000 1.639190 0.000000 
#    z 0.000000 0.000000 1.631110 
# 
# From -- ./inp_files/1866.got.cif
#   From: 2010.03.12/outbox.cif.g09.slc.cpg/sg85_cif.got.tgz:1866.got - 2010.04.08 20:10:46.
