data_PCOD8303552
_publ_section_title
;
Structure prediction by ZEFSAII (Michael W. Deem and Ramdas Pophale) SiO2 
 PCOD8303552
Probable space group: P 42/N
;
_chemical_formula_sum "Si O2"
_cell_formula_units_Z 40
_cell_length_a 14.502041
_cell_length_b 14.502041
_cell_length_c 8.277864
_cell_angle_alpha 90.000000
_cell_angle_beta 90.000000
_cell_angle_gamma 90.000000
_cell_volume 1740.910899
_symmetry_space_group_name_H-M "P 42/N"
_symmetry_group_IT_number 86
_space_group.IT_coordinate_system_code '2'
_symmetry_cell_setting 'tetragonal'
loop_
_space_group_symop_operation_xyz
x,y,z
-y,1/2+x,1/2+z
1/2-x,1/2-y,z
1/2+y,-x,1/2+z
-x,-y,-z
y,1/2-x,1/2-z
1/2+x,1/2+y,-z
1/2-y,x,1/2-z
loop_
_atom_site_type_symbol
_atom_site_label
_atom_site_fract_x
_atom_site_fract_y
_atom_site_fract_z
Si Si1 0.135460 0.900446 0.258053
Si Si2 0.964567 0.820926 0.430818
Si Si3 0.849924 0.965567 0.264860
Si Si4 0.032062 0.083266 0.237317
Si Si5 0.054763 0.786921 0.987577
O O1 0.238180 0.895266 0.333987
O O2 0.065303 0.859937 0.389275
O O3 0.131706 0.840979 0.093202
O O4 0.111396 0.007133 0.220504
O O5 0.889759 0.865398 0.309159
O O6 0.960880 0.710468 0.400523
O O7 0.944082 0.847833 0.615012
O O8 0.932441 0.037184 0.254328
O O9 0.786995 0.000414 0.409795
O O10 0.024403 0.142436 0.073531
#
# Coordination Sequence:
#
# PCOD8303552 Si02
#       5
#     8   8   8   8   8
#     4  10  21  42  64  92 123 174 217 266 333 403
#     4  10  20  40  69  86 127 168 222 272 327 407
#     4  10  21  41  61  94 119 174 218 269 335 398
#     4  11  21  40  66  90 128 174 223 272 332 411
#     4  11  22  38  65  92 130 165 222 270 337 404
#
# _framework density 22.976476999999999
#
# number of rings (size 3 to 8) (size 9 to 14) (size 15 to 20)
#    0.000    1.600    4.000    1.800    2.800    0.400 
#    0.000    8.000    0.000    0.600    0.000    0.000 
#    0.000    0.000    0.000    0.000    0.000    0.000 
#
# Total GULP energy -495966.907838 kJ/mol
# GULP energy per Si atom -12399.172696 kJ/mol
# Density = 2.292418 g / cm^3
# Si number density = 22.976477 Si / 1000 Ang^3
#
#
#
# Elastic Constant Matrix: (Units=GPa)
#
#
# Indices 1 2 3 4 5 6 
#
# 1 92.4540 18.8035 44.6169 0.0000 0.0000 -1.0685
# 2 18.8035 92.4540 44.6169 0.0000 0.0000 1.0685
# 3 44.6169 44.6169 94.9475 0.0000 0.0000 0.0000
# 4 0.0000 0.0000 0.0000 34.6384 0.0000 0.0000
# 5 0.0000 0.0000 0.0000 0.0000 34.6384 0.0000
# 6 -1.0685 1.0685 0.0000 0.0000 0.0000 10.7888
#
#
#
# Elastic Compliance Matrix: (Units=1/GPa)
#
#
# Indices 1 2 3 4 5 6 
#
# 1 0.014021 0.000404 -0.006778 0.000000 0.000000 0.001349
# 2 0.000404 0.014021 -0.006778 0.000000 0.000000 -0.001349
# 3 -0.006778 -0.006778 0.016903 0.000000 0.000000 0.000000
# 4 0.000000 0.000000 0.000000 0.028870 0.000000 0.000000
# 5 0.000000 0.000000 0.000000 0.000000 0.028870 0.000000
# 6 0.001349 -0.001349 0.000000 0.000000 0.000000 0.092956
#
#
# Mechanical properties :
#
#
# Convention : Reuss Voigt Hill
#
# Bulk Modulus (GPa) = 53.65196 55.10335 54.37766
# Shear Modulus (GPa) = 21.91468 27.46766 24.69117
#
# Velocity S-wave (km/s) = 3.09170 3.46131 3.28171
# Velocity P-wave (km/s) = 6.01218 6.32525 6.17070
#
# Compressibility (1/GPa) = 0.01863865
#
# Stress axis : x y z
#
# Youngs Moduli (GPa) = 71.32293 71.32293 59.16260
#
# Poissons Ratio (x) = -0.02881 0.40102
# Poissons Ratio (y) = -0.02881 0.40102
# Poissons Ratio (z) = 0.48345 0.48345
#
# Static dielectric constant tensor:
#      x y z
#    x 4.190140 0.000000 0.000000 
#    y 0.000000 4.190140 0.000000 
#    z 0.000000 0.000000 4.319760 
# 
# 
# High freq. dielectric constant tensor:
#      x y z
#    x 1.895740 0.000000 0.000000 
#    y 0.000000 1.895740 0.000000 
#    z 0.000000 0.000000 1.915740 
# 
# From -- ./inp_files/1137.got.cif
#   From: 2010.03.12/outbox.cif.g09.slc.cpg/sg86_1_cif.got.tgz:1137.got - 2010.04.08 20:12:58.
