data_PCOD8303914
_publ_section_title
;
Structure prediction by ZEFSAII (Michael W. Deem and Ramdas Pophale) SiO2 
 PCOD8303914
Probable space group: I 4/M
;
_chemical_formula_sum "Si O2"
_cell_formula_units_Z 96
_cell_length_a 23.793202
_cell_length_b 23.793202
_cell_length_c 8.953372
_cell_angle_alpha 90.000000
_cell_angle_beta 90.000000
_cell_angle_gamma 90.000000
_cell_volume 5068.651274
_symmetry_space_group_name_H-M "I 4/M"
_symmetry_group_IT_number 87
_symmetry_cell_setting 'tetragonal'
loop_
_space_group_symop_operation_xyz
x,y,z
-y,x,z
-x,-y,z
y,-x,z
-x,-y,-z
y,-x,-z
x,y,-z
-y,x,-z
1/2+x,1/2+y,1/2+z
1/2-y,1/2+x,1/2+z
1/2-x,1/2-y,1/2+z
1/2+y,1/2-x,1/2+z
1/2-x,1/2-y,1/2-z
1/2+y,1/2-x,1/2-z
1/2+x,1/2+y,1/2-z
1/2-y,1/2+x,1/2-z
loop_
_atom_site_type_symbol
_atom_site_label
_atom_site_fract_x
_atom_site_fract_y
_atom_site_fract_z
Si Si1 0.941575 0.930460 0.675523
Si Si2 0.147866 0.851176 0.174902
Si Si3 0.278096 0.854179 0.826370
Si Si4 0.445387 0.848669 0.330552
Si Si5 0.736336 0.867940 0.326834
Si Si6 0.059544 0.354571 0.669464
O O1 0.934251 0.922181 0.500000
O O2 0.904756 0.883667 0.757419
O O3 0.006778 0.921862 0.721522
O O4 0.213254 0.851326 0.217622
O O5 0.123357 0.793462 0.237122
O O6 0.138187 0.852830 0.000000
O O7 0.308762 0.794771 0.790018
O O8 0.302952 0.902401 0.722545
O O9 0.287319 0.869522 0.000000
O O10 0.444199 0.825605 0.500000
O O11 0.419166 0.803175 0.219853
O O12 0.412461 0.906907 0.319016
O O13 0.508073 0.861027 0.280522
O O14 0.750827 0.872788 0.500000
O O15 0.039938 0.342839 0.500000
#
# Coordination Sequence:
#
# PCOD8303914 Si02
#       6
#    16  16  16  16  16  16
#     4   9  20  40  61  79 104 140 181 224 267 313
#     4  11  22  35  56  86 114 141 176 218 269 328
#     4   9  20  37  55  78 111 148 182 222 271 320
#     4  10  21  37  56  79 110 145 183 230 278 325
#     4  10  20  36  57  79 108 146 185 224 267 318
#     4  10  21  36  56  81 108 144 187 229 276 327
#
# _framework density 18.939951000000001
#
# number of rings (size 3 to 8) (size 9 to 14) (size 15 to 20)
#    0.000    2.167    0.000    3.000    0.000    6.333 
#    0.000    5.833    0.000    0.000    0.000    0.000 
#    0.000    0.000    0.000    0.000    0.000    0.000 
#
# Total GULP energy -595312.549178 kJ/mol
# GULP energy per Si atom -12402.344775 kJ/mol
# Density = 1.889684 g / cm^3
# Si number density = 18.939951 Si / 1000 Ang^3
#
#
#
# Elastic Constant Matrix: (Units=GPa)
#
#
# Indices 1 2 3 4 5 6 
#
# 1 59.5998 33.9200 30.6999 0.0000 0.0000 7.9412
# 2 33.9200 59.5998 30.6999 0.0000 0.0000 -7.9412
# 3 30.6999 30.6999 56.0678 0.0000 0.0000 0.0000
# 4 0.0000 0.0000 0.0000 33.5323 0.0000 0.0000
# 5 0.0000 0.0000 0.0000 0.0000 33.5323 0.0000
# 6 7.9412 -7.9412 0.0000 0.0000 0.0000 16.5164
#
#
#
# Elastic Compliance Matrix: (Units=1/GPa)
#
#
# Indices 1 2 3 4 5 6 
#
# 1 0.036058 -0.019364 -0.009141 0.000000 0.000000 -0.026648
# 2 -0.019364 0.036058 -0.009141 0.000000 0.000000 0.026648
# 3 -0.009141 -0.009141 0.027846 0.000000 0.000000 0.000000
# 4 0.000000 0.000000 0.000000 0.029822 0.000000 0.000000
# 5 0.000000 0.000000 0.000000 0.000000 0.029822 0.000000
# 6 -0.026648 0.026648 0.000000 0.000000 0.000000 0.086171
#
#
# Mechanical properties :
#
#
# Convention : Reuss Voigt Hill
#
# Bulk Modulus (GPa) = 40.53407 40.65634 40.59520
# Shear Modulus (GPa) = 15.18405 22.04604 18.61504
#
# Velocity S-wave (km/s) = 2.83449 3.41544 3.13844
# Velocity P-wave (km/s) = 5.67100 6.08820 5.88330
#
# Compressibility (1/GPa) = 0.02467061
#
# Stress axis : x y z
#
# Youngs Moduli (GPa) = 27.73283 27.73283 35.91202
#
# Poissons Ratio (x) = 0.53702 0.32827
# Poissons Ratio (y) = 0.53702 0.32827
# Poissons Ratio (z) = 0.25351 0.25351
#
# Static dielectric constant tensor:
#      x y z
#    x 3.416800 0.000000 0.000000 
#    y 0.000000 3.416800 0.000000 
#    z 0.000000 0.000000 3.501420 
# 
# 
# High freq. dielectric constant tensor:
#      x y z
#    x 1.735590 0.000000 0.000000 
#    y 0.000000 1.735590 0.000000 
#    z 0.000000 0.000000 1.745300 
# 
# From -- ./inp_files/1436.got.cif
#   From: 2010.03.12/outbox.cif.g09.slc.cpg/sg87_1_cif.got.tgz:1436.got - 2010.04.08 20:16:13.
