data_PCOD8303045
_publ_section_title
;
Structure prediction by ZEFSAII (Michael W. Deem and Ramdas Pophale) SiO2 
 PCOD8303045
Probable space group: P 4/M
;
_chemical_formula_sum "Si O2"
_cell_formula_units_Z 32
_cell_length_a 9.000000
_cell_length_b 9.000000
_cell_length_c 21.000000
_cell_angle_alpha 90.000000
_cell_angle_beta 90.000000
_cell_angle_gamma 90.000000
_cell_volume 1701.000000
_symmetry_space_group_name_H-M "P 4/M"
_symmetry_group_IT_number 83
_symmetry_cell_setting 'tetragonal'
loop_
_space_group_symop_operation_xyz
x,y,z
-y,x,z
-x,-y,z
y,-x,z
-x,-y,-z
y,-x,-z
x,y,-z
-y,x,-z
loop_
_atom_site_type_symbol
_atom_site_label
_atom_site_fract_x
_atom_site_fract_y
_atom_site_fract_z
Si Si1 0.327470 0.672225 0.117195
Si Si2 0.325374 0.674369 0.500000
Si Si3 0.173909 0.825832 0.379201
Si Si4 0.827305 0.827654 0.000000
Si Si5 0.326663 0.673078 0.261917
O O1 0.293592 0.499816 0.106563
O O2 0.281856 0.717786 0.189453
O O3 0.237277 0.762194 0.065017
O O4 0.292059 0.499847 0.500000
O O5 0.255836 0.743773 0.436674
O O6 0.230917 0.768689 0.311018
O O7 0.999845 0.792115 0.384531
O O8 0.999789 0.791357 0.000000
O O9 0.293573 0.499845 0.273448
#
# Coordination Sequence:
#
# PCOD8303045 Si02
#       5
#     8   4   8   4   8
#     4   9  19  37  60  83 107 139 183 232 276 323
#     4  11  24  41  62  86 110 141 186 235 276 320
#     4  11  24  39  56  83 118 151 183 222 270 325
#     4  11  24  37  50  76 114 149 182 225 276 330
#     4   9  19  37  60  85 111 141 182 229 274 324
#
# _framework density 18.812463000000001
#
# number of rings (size 3 to 8) (size 9 to 14) (size 15 to 20)
#    0.000    2.000    0.000    4.500    0.000   13.000 
#    0.000    7.500    0.000    0.000    0.000    0.000 
#    0.000    0.000    0.000    0.000    0.000    0.000 
#
# Total GULP energy -396846.440912 kJ/mol
# GULP energy per Si atom -12401.451278 kJ/mol
# Density = 1.876965 g / cm^3
# Si number density = 18.812463 Si / 1000 Ang^3
#
#
#
# Elastic Constant Matrix: (Units=GPa)
#
#
# Indices 1 2 3 4 5 6 
#
# 1 115.6223 86.4231 94.0369 0.0000 0.0000 -0.0085
# 2 86.4231 115.6223 94.0369 0.0000 0.0000 0.0085
# 3 94.0369 94.0369 197.6131 0.0000 0.0000 0.0000
# 4 0.0000 0.0000 0.0000 25.0001 0.0000 0.0000
# 5 0.0000 0.0000 0.0000 0.0000 25.0001 0.0000
# 6 -0.0085 0.0085 0.0000 0.0000 0.0000 34.6390
#
#
#
# Elastic Compliance Matrix: (Units=1/GPa)
#
#
# Indices 1 2 3 4 5 6 
#
# 1 0.021566 -0.012681 -0.004228 0.000000 0.000000 0.000008
# 2 -0.012681 0.021566 -0.004228 0.000000 0.000000 -0.000008
# 3 -0.004228 -0.004228 0.009084 0.000000 0.000000 0.000000
# 4 0.000000 0.000000 0.000000 0.040000 0.000000 0.000000
# 5 0.000000 0.000000 0.000000 0.000000 0.040000 0.000000
# 6 0.000008 -0.000008 0.000000 0.000000 0.000000 0.028869
#
#
# Mechanical properties :
#
#
# Convention : Reuss Voigt Hill
#
# Bulk Modulus (GPa) = 100.58134 108.65020 104.61577
# Shear Modulus (GPa) = 24.19261 27.21857 25.70559
#
# Velocity S-wave (km/s) = 3.58996 3.80786 3.70051
# Velocity P-wave (km/s) = 8.41220 8.78708 8.60168
#
# Compressibility (1/GPa) = 0.00994220
#
# Stress axis : x y z
#
# Youngs Moduli (GPa) = 46.36863 46.36863 110.07896
#
# Poissons Ratio (x) = 0.58801 0.46542
# Poissons Ratio (y) = 0.58801 0.46542
# Poissons Ratio (z) = 0.19605 0.19605
#
# Static dielectric constant tensor:
#      x y z
#    x 3.489320 0.000000 0.000000 
#    y 0.000000 3.489320 0.000000 
#    z 0.000000 0.000000 3.727960 
# 
# 
# High freq. dielectric constant tensor:
#      x y z
#    x 1.735170 0.000000 0.000000 
#    y 0.000000 1.735170 0.000000 
#    z 0.000000 0.000000 1.763000 
# 
# From -- ./inp_files/2802.got.cif
#   From: 2010.03.12/outbox.ucp.g09.slc.cvg/sg83_2_cif.got.tgz:2802.got - 2010.05.04 20:12:55.
