data_PCOD8303400
_publ_section_title
;
Structure prediction by ZEFSAII (Michael W. Deem and Ramdas Pophale) SiO2 
 PCOD8303400
Probable space group: P 42/M
;
_chemical_formula_sum "Si O2"
_cell_formula_units_Z 38
_cell_length_a 11.958625
_cell_length_b 11.958625
_cell_length_c 12.884759
_cell_angle_alpha 90.000000
_cell_angle_beta 90.000000
_cell_angle_gamma 90.000000
_cell_volume 1842.632788
_symmetry_space_group_name_H-M "P 42/M"
_symmetry_group_IT_number 84
_symmetry_cell_setting 'tetragonal'
loop_
_space_group_symop_operation_xyz
x,y,z
-y,x,1/2+z
-x,-y,z
y,-x,1/2+z
-x,-y,-z
y,-x,1/2-z
x,y,-z
-y,x,1/2-z
loop_
_atom_site_type_symbol
_atom_site_label
_atom_site_fract_x
_atom_site_fract_y
_atom_site_fract_z
Si Si1 0.500000 0.500000 0.750000
Si Si2 0.470887 0.368546 0.000000
Si Si3 0.872714 0.709423 0.220013
Si Si4 0.733783 0.501595 0.717251
Si Si5 0.431141 0.114445 0.500000
Si Si6 0.785769 0.660718 0.000000
Si Si7 0.128911 0.697823 0.210867
O O1 0.626993 0.511595 0.799998
O O2 0.500000 0.500000 0.000000
O O3 0.526811 0.320616 0.895264
O O4 0.345601 0.320537 0.000000
O O5 0.826762 0.591330 0.258141
O O6 0.818626 0.812428 0.282912
O O7 0.002714 0.710367 0.250149
O O8 0.848812 0.718275 0.097221
O O9 0.794901 0.382239 0.717433
O O10 0.525771 0.208154 0.500000
O O11 0.350354 0.127696 0.596297
O O12 0.500000 0.000000 0.500000
#
# Coordination Sequence:
#
# PCOD8303400 Si02
#       7
#     2   4   8   8   4   4   8
#     4  12  20  38  64  96 132 170 208 282 344 404
#     4  12  26  38  63 103 144 178 211 272 361 430
#     4  12  26  44  70  97 139 182 237 282 343 409
#     4  12  23  41  63 102 138 173 220 283 352 416
#     4  12  22  42  76 100 126 173 247 290 331 413
#     4  12  22  44  68  98 132 186 228 281 334 419
#     4  12  25  45  69 101 136 182 234 293 341 402
#
# _framework density 20.622665000000001
#
# number of rings (size 3 to 8) (size 9 to 14) (size 15 to 20)
#    0.000    0.000    9.474    0.632    2.947    0.421 
#    0.000    5.263    0.000    2.526    0.000    0.000 
#    0.000    0.000    0.000    0.000    0.000    0.000 
#
# Total GULP energy -470752.109695 kJ/mol
# GULP energy per Si atom -12388.213413 kJ/mol
# Density = 2.057573 g / cm^3
# Si number density = 20.622665 Si / 1000 Ang^3
#
#
#
# Elastic Constant Matrix: (Units=GPa)
#
#
# Indices 1 2 3 4 5 6 
#
# 1 128.0272 31.7989 15.6967 0.0000 0.0000 -5.7665
# 2 31.7989 128.0272 15.6967 0.0000 0.0000 5.7665
# 3 15.6967 15.6967 104.7587 0.0000 0.0000 0.0000
# 4 0.0000 0.0000 0.0000 22.9304 0.0000 0.0000
# 5 0.0000 0.0000 0.0000 0.0000 22.9304 0.0000
# 6 -5.7665 5.7665 0.0000 0.0000 0.0000 39.1575
#
#
#
# Elastic Compliance Matrix: (Units=1/GPa)
#
#
# Indices 1 2 3 4 5 6 
#
# 1 0.008513 -0.002066 -0.000966 0.000000 0.000000 0.001558
# 2 -0.002066 0.008513 -0.000966 0.000000 0.000000 -0.001558
# 3 -0.000966 -0.000966 0.009835 0.000000 0.000000 0.000000
# 4 0.000000 0.000000 0.000000 0.043610 0.000000 0.000000
# 5 0.000000 0.000000 0.000000 0.000000 0.043610 0.000000
# 6 0.001558 -0.001558 0.000000 0.000000 0.000000 0.025997
#
#
# Mechanical properties :
#
#
# Convention : Reuss Voigt Hill
#
# Bulk Modulus (GPa) = 53.00945 54.13308 53.57126
# Shear Modulus (GPa) = 32.39147 36.84505 34.61826
#
# Velocity S-wave (km/s) = 3.96747 4.23144 4.10158
# Velocity P-wave (km/s) = 6.83725 7.08377 6.96160
#
# Compressibility (1/GPa) = 0.01886456
#
# Stress axis : x y z
#
# Youngs Moduli (GPa) = 117.47300 117.47300 101.67553
#
# Poissons Ratio (x) = 0.24271 0.09821
# Poissons Ratio (y) = 0.24271 0.09821
# Poissons Ratio (z) = 0.11347 0.11347
#
# Static dielectric constant tensor:
#      x y z
#    x 3.905380 0.000000 0.000000 
#    y 0.000000 3.905380 0.000000 
#    z 0.000000 0.000000 4.079140 
# 
# 
# High freq. dielectric constant tensor:
#      x y z
#    x 1.809860 0.000000 0.000000 
#    y 0.000000 1.809860 0.000000 
#    z 0.000000 0.000000 1.795740 
# 
# From -- ./inp_files/2994.got.cif
#   From: 2010.03.12/outbox.cif.g09.slc.cpg/sg84_2_cif.got.tgz:2994.got - 2010.04.08 20:07:29.
