data_PCOD8303075
_publ_section_title
;
Structure prediction by ZEFSAII (Michael W. Deem and Ramdas Pophale) SiO2 
 PCOD8303075
Probable space group: P 42/M
;
_chemical_formula_sum "Si O2"
_cell_formula_units_Z 64
_cell_length_a 11.707922
_cell_length_b 11.707922
_cell_length_c 26.406474
_cell_angle_alpha 90.000000
_cell_angle_beta 90.000000
_cell_angle_gamma 90.000000
_cell_volume 3619.678978
_symmetry_space_group_name_H-M "P 42/M"
_symmetry_group_IT_number 84
_symmetry_cell_setting 'tetragonal'
loop_
_space_group_symop_operation_xyz
x,y,z
-y,x,1/2+z
-x,-y,z
y,-x,1/2+z
-x,-y,-z
y,-x,1/2-z
x,y,-z
-y,x,1/2-z
loop_
_atom_site_type_symbol
_atom_site_label
_atom_site_fract_x
_atom_site_fract_y
_atom_site_fract_z
Si Si1 0.788608 0.561541 0.350566
Si Si2 0.789382 0.869090 0.889716
Si Si3 0.618399 0.380901 0.231119
Si Si4 0.057477 0.833360 0.763929
Si Si5 0.173455 0.660970 0.704388
Si Si6 0.557622 0.878659 0.942168
Si Si7 0.864041 0.987126 0.556372
Si Si8 0.187052 0.878388 0.137012
O O1 0.665143 0.588970 0.325427
O O2 0.849874 0.470983 0.311854
O O3 0.782987 0.501194 0.405746
O O4 0.855504 0.679099 0.357051
O O5 0.733524 0.791691 0.845709
O O6 0.693093 0.890673 0.932717
O O7 0.900783 0.811999 0.915388
O O8 0.827974 0.985955 0.862417
O O9 0.516042 0.358546 0.271372
O O10 0.726590 0.318283 0.254989
O O11 0.062889 0.713621 0.732954
O O12 0.112477 0.821496 0.818980
O O13 0.926386 0.870739 0.768870
O O14 0.500000 0.000000 0.929532
O O15 0.535828 0.841864 0.000000
O O16 0.812036 0.979670 0.500000
O O17 0.829676 0.869711 0.585181
O O18 0.000000 0.000000 0.553749
#
# Coordination Sequence:
#
# PCOD8303075 Si02
#       8
#     8   8   8   8   8   8   8   8
#     4  10  20  32  49  71  99 131 167 206 255 305
#     4  10  18  31  46  67  96 134 170 206 247 306
#     4   9  18  34  53  73  97 128 164 210 262 307
#     4  11  21  31  46  68 100 140 171 203 247 302
#     4  10  19  31  48  72  96 131 168 204 251 306
#     4  10  19  29  45  69 101 134 165 204 258 306
#     4   9  19  31  46  66  94 133 173 209 245 293
#     4  11  19  30  45  67  97 128 167 208 247 297
#
# _framework density 17.681125000000002
#
# number of rings (size 3 to 8) (size 9 to 14) (size 15 to 20)
#    0.000    2.000    3.750    1.125    3.500    1.000 
#    0.000    0.000    0.000    0.000    0.000   16.625 
#    0.000    1.000    0.000    0.000    0.000    0.000 
#
# Total GULP energy -792985.859825 kJ/mol
# GULP energy per Si atom -12390.404060 kJ/mol
# Density = 1.764088 g / cm^3
# Si number density = 17.681125 Si / 1000 Ang^3
#
#
#
# Elastic Constant Matrix: (Units=GPa)
#
#
# Indices 1 2 3 4 5 6 
#
# 1 69.4132 15.9290 31.7825 0.0000 0.0000 -2.9031
# 2 15.9290 69.4132 31.7825 0.0000 0.0000 2.9031
# 3 31.7825 31.7825 108.2511 0.0000 0.0000 0.0000
# 4 0.0000 0.0000 0.0000 22.2824 0.0000 0.0000
# 5 0.0000 0.0000 0.0000 0.0000 22.2824 0.0000
# 6 -2.9031 2.9031 0.0000 0.0000 0.0000 16.0839
#
#
#
# Elastic Compliance Matrix: (Units=1/GPa)
#
#
# Indices 1 2 3 4 5 6 
#
# 1 0.017034 -0.002037 -0.004403 0.000000 0.000000 0.003442
# 2 -0.002037 0.017034 -0.004403 0.000000 0.000000 -0.003442
# 3 -0.004403 -0.004403 0.011823 0.000000 0.000000 0.000000
# 4 0.000000 0.000000 0.000000 0.044879 0.000000 0.000000
# 5 0.000000 0.000000 0.000000 0.000000 0.044879 0.000000
# 6 0.003442 -0.003442 0.000000 0.000000 0.000000 0.063417
#
#
# Mechanical properties :
#
#
# Convention : Reuss Voigt Hill
#
# Bulk Modulus (GPa) = 41.31392 45.11840 43.21616
# Shear Modulus (GPa) = 21.85129 23.30196 22.57663
#
# Velocity S-wave (km/s) = 3.51929 3.63423 3.57722
# Velocity P-wave (km/s) = 6.31907 6.57141 6.44647
#
# Compressibility (1/GPa) = 0.02420492
#
# Stress axis : x y z
#
# Youngs Moduli (GPa) = 58.70634 58.70634 84.57875
#
# Poissons Ratio (x) = 0.11958 0.37241
# Poissons Ratio (y) = 0.11958 0.37241
# Poissons Ratio (z) = 0.25849 0.25849
#
# Static dielectric constant tensor:
#      x y z
#    x 3.187960 0.000000 0.000000 
#    y 0.000000 3.187960 0.000000 
#    z 0.000000 0.000000 3.458320 
# 
# 
# High freq. dielectric constant tensor:
#      x y z
#    x 1.658260 0.000000 0.000000 
#    y 0.000000 1.658260 0.000000 
#    z 0.000000 0.000000 1.688600 
# 
# From -- ./inp_files/5457.got.cif
#   From: 2010.03.12/outbox.cif.g09.slc.cpg/sg84_3_cif.got.tgz:5457.got - 2010.04.08 20:07:29.
