data_PCOD8303091
_publ_section_title
;
Structure prediction by ZEFSAII (Michael W. Deem and Ramdas Pophale) SiO2 
 PCOD8303091
Probable space group: P 42/M
;
_chemical_formula_sum "Si O2"
_cell_formula_units_Z 48
_cell_length_a 16.806207
_cell_length_b 16.806207
_cell_length_c 8.956035
_cell_angle_alpha 90.000000
_cell_angle_beta 90.000000
_cell_angle_gamma 90.000000
_cell_volume 2529.619491
_symmetry_space_group_name_H-M "P 42/M"
_symmetry_group_IT_number 84
_symmetry_cell_setting 'tetragonal'
loop_
_space_group_symop_operation_xyz
x,y,z
-y,x,1/2+z
-x,-y,z
y,-x,1/2+z
-x,-y,-z
y,-x,1/2-z
x,y,-z
-y,x,1/2-z
loop_
_atom_site_type_symbol
_atom_site_label
_atom_site_fract_x
_atom_site_fract_y
_atom_site_fract_z
Si Si1 0.026639 0.105265 0.834101
Si Si2 0.731567 0.822744 0.327122
Si Si3 0.000776 0.716556 0.168268
Si Si4 0.580379 0.282952 0.675308
Si Si5 0.685492 0.153959 0.177414
Si Si6 0.601838 0.694936 0.672512
O O1 0.936410 0.087670 0.779318
O O2 0.040421 0.197991 0.835144
O O3 0.038206 0.070139 0.000000
O O4 0.747854 0.839156 0.500000
O O5 0.721714 0.911340 0.254889
O O6 0.805358 0.769089 0.265605
O O7 0.649598 0.776415 0.297616
O O8 0.936386 0.668874 0.266999
O O9 0.005491 0.680691 0.000000
O O10 0.592659 0.270441 0.500000
O O11 0.613242 0.206341 0.761126
O O12 0.488480 0.290966 0.719075
O O13 0.624405 0.363199 0.726744
O O14 0.683029 0.155918 0.000000
O O15 0.610427 0.669587 0.500000
#
# Coordination Sequence:
#
# PCOD8303091 Si02
#       6
#     8   8   8   8   8   8
#     4  10  19  29  42  63  92 125 164 214 270 322
#     4   8  16  33  53  71  97 135 175 213 256 308
#     4  10  19  31  49  71  94 127 175 221 258 305
#     4  10  20  35  57  83 109 137 172 212 254 308
#     4  10  20  35  54  75 104 140 175 215 266 316
#     4   9  19  36  57  81 109 141 173 208 258 313
#
# _framework density 18.975183999999999
#
# number of rings (size 3 to 8) (size 9 to 14) (size 15 to 20)
#    0.000    2.500    0.000    4.000    0.000    4.333 
#    0.000    6.667    0.000    5.000    0.000    0.000 
#    0.000    0.000    0.000    0.000    0.000    0.000 
#
# Total GULP energy -594881.736233 kJ/mol
# GULP energy per Si atom -12393.369505 kJ/mol
# Density = 1.893200 g / cm^3
# Si number density = 18.975184 Si / 1000 Ang^3
#
#
#
# Elastic Constant Matrix: (Units=GPa)
#
#
# Indices 1 2 3 4 5 6 
#
# 1 107.0841 27.1211 26.0128 0.0000 0.0000 1.7186
# 2 27.1211 107.0841 26.0128 0.0000 0.0000 -1.7186
# 3 26.0128 26.0128 63.7619 0.0000 0.0000 0.0000
# 4 0.0000 0.0000 0.0000 25.9292 0.0000 0.0000
# 5 0.0000 0.0000 0.0000 0.0000 25.9292 0.0000
# 6 1.7186 -1.7186 0.0000 0.0000 0.0000 11.2476
#
#
#
# Elastic Compliance Matrix: (Units=1/GPa)
#
#
# Indices 1 2 3 4 5 6 
#
# 1 0.010720 -0.001869 -0.003611 0.000000 0.000000 -0.001923
# 2 -0.001869 0.010720 -0.003611 0.000000 0.000000 0.001923
# 3 -0.003611 -0.003611 0.018630 0.000000 0.000000 0.000000
# 4 0.000000 0.000000 0.000000 0.038567 0.000000 0.000000
# 5 0.000000 0.000000 0.000000 0.000000 0.038567 0.000000
# 6 -0.001923 0.001923 0.000000 0.000000 0.000000 0.089496
#
#
# Mechanical properties :
#
#
# Convention : Reuss Voigt Hill
#
# Bulk Modulus (GPa) = 45.68714 48.46928 47.07821
# Shear Modulus (GPa) = 21.53542 25.87340 23.70441
#
# Velocity S-wave (km/s) = 3.37252 3.69662 3.53828
# Velocity P-wave (km/s) = 6.26855 6.61959 6.44646
#
# Compressibility (1/GPa) = 0.02188800
#
# Stress axis : x y z
#
# Youngs Moduli (GPa) = 93.28549 93.28549 53.67781
#
# Poissons Ratio (x) = 0.17432 0.19383
# Poissons Ratio (y) = 0.17432 0.19383
# Poissons Ratio (z) = 0.33685 0.33685
#
# Static dielectric constant tensor:
#      x y z
#    x 3.457680 0.000000 0.000000 
#    y 0.000000 3.457680 0.000000 
#    z 0.000000 0.000000 3.402650 
# 
# 
# High freq. dielectric constant tensor:
#      x y z
#    x 1.729240 0.000000 0.000000 
#    y 0.000000 1.729240 0.000000 
#    z 0.000000 0.000000 1.723420 
# 
# From -- ./inp_files/991.got.cif
#   From: 2010.03.12/outbox.cif.g09.slc.cpg/sg84_1_cif.got.tgz:991.got - 2010.04.08 20:07:29.
