data_PCOD8303636
_publ_section_title
;
Structure prediction by ZEFSAII (Michael W. Deem and Ramdas Pophale) SiO2 
 PCOD8303636
Probable space group: P 42/N
;
_chemical_formula_sum "Si O2"
_cell_formula_units_Z 38
_cell_length_a 9.402764
_cell_length_b 9.402764
_cell_length_c 17.616281
_cell_angle_alpha 90.000000
_cell_angle_beta 90.000000
_cell_angle_gamma 90.000000
_cell_volume 1557.490122
_symmetry_space_group_name_H-M "P 42/N"
_symmetry_group_IT_number 86
_space_group.IT_coordinate_system_code '2'
_symmetry_cell_setting 'tetragonal'
loop_
_space_group_symop_operation_xyz
x,y,z
-y,1/2+x,1/2+z
1/2-x,1/2-y,z
1/2+y,-x,1/2+z
-x,-y,-z
y,1/2-x,1/2-z
1/2+x,1/2+y,-z
1/2-y,x,1/2-z
loop_
_atom_site_type_symbol
_atom_site_label
_atom_site_fract_x
_atom_site_fract_y
_atom_site_fract_z
Si Si1 0.750000 0.750000 0.873740
Si Si2 0.184253 0.965262 0.188732
Si Si3 0.138830 0.038533 0.856232
Si Si4 0.750000 0.250000 0.436978
Si Si5 0.750000 0.750000 0.250000
Si Si6 0.750000 0.250000 0.179416
Si Si7 0.037441 0.165956 0.996966
O O1 0.765997 0.616485 0.816863
O O2 0.886736 0.773944 0.928282
O O3 0.248994 0.887249 0.115841
O O4 0.219589 0.886707 0.267318
O O5 0.016159 0.982615 0.179558
O O6 0.205872 0.882557 0.875348
O O7 0.245855 0.102805 0.795115
O O8 0.139473 0.158079 0.923137
O O9 0.741636 0.394194 0.486890
O O10 0.000000 0.000000 0.000000
#
# Coordination Sequence:
#
# PCOD8303636 Si02
#       7
#     4   8   8   4   2   4   8
#     4  12  23  46  73 101 153 190 232 300 360 434
#     4  10  23  44  67 102 140 186 228 294 362 420
#     4  11  23  44  69 101 138 180 236 297 351 421
#     4   9  20  43  68  92 141 178 227 296 338 409
#     4  12  22  44  72  96 130 184 236 282 352 436
#     4  11  24  45  74 100 139 184 241 302 356 429
#     4  11  23  45  68 104 143 182 239 289 356 432
#
# _framework density 24.398228
#
# number of rings (size 3 to 8) (size 9 to 14) (size 15 to 20)
#    0.000    1.263    6.316    0.632    0.000    3.368 
#    0.000    0.000    0.000    0.000    0.000    0.000 
#    0.000    0.000    0.000    0.000    0.000    0.000 
#
# Total GULP energy -470871.868996 kJ/mol
# GULP energy per Si atom -12391.364974 kJ/mol
# Density = 2.434270 g / cm^3
# Si number density = 24.398228 Si / 1000 Ang^3
#
#
#
# Elastic Constant Matrix: (Units=GPa)
#
#
# Indices 1 2 3 4 5 6 
#
# 1 115.8143 47.3392 19.5928 0.0000 0.0000 -6.8363
# 2 47.3392 115.8143 19.5928 0.0000 0.0000 6.8363
# 3 19.5928 19.5928 46.6651 0.0000 0.0000 0.0000
# 4 0.0000 0.0000 0.0000 8.5961 0.0000 0.0000
# 5 0.0000 0.0000 0.0000 0.0000 8.5961 0.0000
# 6 -6.8363 6.8363 0.0000 0.0000 0.0000 49.3330
#
#
#
# Elastic Compliance Matrix: (Units=1/GPa)
#
#
# Indices 1 2 3 4 5 6 
#
# 1 0.010918 -0.004101 -0.002862 0.000000 0.000000 0.002081
# 2 -0.004101 0.010918 -0.002862 0.000000 0.000000 -0.002081
# 3 -0.002862 -0.002862 0.023833 0.000000 0.000000 0.000000
# 4 0.000000 0.000000 0.000000 0.116331 0.000000 0.000000
# 5 0.000000 0.000000 0.000000 0.000000 0.116331 0.000000
# 6 0.002081 -0.002081 0.000000 0.000000 0.000000 0.020847
#
#
# Mechanical properties :
#
#
# Convention : Reuss Voigt Hill
#
# Bulk Modulus (GPa) = 38.43536 50.14927 44.29232
# Shear Modulus (GPa) = 15.26707 26.08964 20.67836
#
# Velocity S-wave (km/s) = 2.50420 3.27360 2.91440
# Velocity P-wave (km/s) = 4.91416 5.90658 5.43308
#
# Compressibility (1/GPa) = 0.02601771
#
# Stress axis : x y z
#
# Youngs Moduli (GPa) = 91.59183 91.59183 41.95931
#
# Poissons Ratio (x) = 0.37566 0.12009
# Poissons Ratio (y) = 0.37566 0.12009
# Poissons Ratio (z) = 0.26214 0.26214
#
# Static dielectric constant tensor:
#      x y z
#    x 4.705930 0.000000 0.000000 
#    y 0.000000 4.705930 0.000000 
#    z 0.000000 0.000000 -29.530250 
# 
# 
# High freq. dielectric constant tensor:
#      x y z
#    x 1.969340 0.000000 0.000000 
#    y 0.000000 1.969340 0.000000 
#    z 0.000000 0.000000 1.975670 
# 
# From -- ./inp_files/4595.got.cif
#   From: 2010.03.12/outbox.cif.g09.slc.cpg/sg86_3_cif.got.tgz:4595.got - 2010.04.08 20:12:58.
