data_PCOD8303418
_publ_section_title
;
Structure prediction by ZEFSAII (Michael W. Deem and Ramdas Pophale) SiO2 
 PCOD8303418
Probable space group: P 4/N
;
_chemical_formula_sum "Si O2"
_cell_formula_units_Z 40
_cell_length_a 14.336477
_cell_length_b 14.336477
_cell_length_c 9.418469
_cell_angle_alpha 90.000000
_cell_angle_beta 90.000000
_cell_angle_gamma 90.000000
_cell_volume 1935.821002
_symmetry_space_group_name_H-M "P 4/N"
_symmetry_group_IT_number 85
_symmetry_cell_setting 'tetragonal'
loop_
_space_group_symop_operation_xyz
x,y,z
1/2-y,x,z
1/2-x,1/2-y,z
y,1/2-x,z
-x,-y,-z
1/2+y,-x,-z
1/2+x,1/2+y,-z
-y,1/2+x,-z
loop_
_atom_site_type_symbol
_atom_site_label
_atom_site_fract_x
_atom_site_fract_y
_atom_site_fract_z
Si Si1 0.694625 0.894919 0.495810
Si Si2 0.598994 0.980697 0.236061
Si Si3 0.846177 0.869286 0.002552
Si Si4 0.896044 0.523420 0.761930
Si Si5 0.383935 0.672520 0.999540
O O1 0.630685 0.803049 0.493870
O O2 0.672376 0.958000 0.359418
O O3 0.675393 0.956251 0.635146
O O4 0.579717 0.890487 0.137254
O O5 0.497873 0.002215 0.303184
O O6 0.638174 0.065097 0.141844
O O7 0.736973 0.881104 0.009748
O O8 0.883374 0.911290 0.855944
O O9 0.856192 0.440336 0.858724
O O10 0.283808 0.623531 0.994200
#
# Coordination Sequence:
#
# PCOD8303418 Si02
#       5
#     8   8   8   8   8
#     4  11  25  44  66  93 128 166 206 263 327 382
#     4  11  24  38  65  93 127 165 208 261 313 372
#     4  10  20  35  61  93 124 162 209 266 318 367
#     4  11  24  38  65  93 127 165 208 261 313 372
#     4  10  24  43  65  93 126 170 211 256 304 365
#
# _framework density 20.663070000000001
#
# number of rings (size 3 to 8) (size 9 to 14) (size 15 to 20)
#    0.000    1.400    0.000    5.400   16.800    3.200 
#    0.000    0.000    0.000    2.400    0.000    0.000 
#    0.000    0.000    0.000    0.000    0.000    0.000 
#
# Total GULP energy -496126.052697 kJ/mol
# GULP energy per Si atom -12403.151317 kJ/mol
# Density = 2.061604 g / cm^3
# Si number density = 20.663070 Si / 1000 Ang^3
#
#
#
# Elastic Constant Matrix: (Units=GPa)
#
#
# Indices 1 2 3 4 5 6 
#
# 1 78.1149 42.3914 18.5177 0.0000 0.0000 -10.9741
# 2 42.3914 78.1149 18.5177 0.0000 0.0000 10.9741
# 3 18.5177 18.5177 102.8003 0.0000 0.0000 0.0000
# 4 0.0000 0.0000 0.0000 25.4915 0.0000 0.0000
# 5 0.0000 0.0000 0.0000 0.0000 25.4915 0.0000
# 6 -10.9741 10.9741 0.0000 0.0000 0.0000 36.1310
#
#
#
# Elastic Compliance Matrix: (Units=1/GPa)
#
#
# Indices 1 2 3 4 5 6 
#
# 1 0.021600 -0.012815 -0.001582 0.000000 0.000000 0.010453
# 2 -0.012815 0.021600 -0.001582 0.000000 0.000000 -0.010453
# 3 -0.001582 -0.001582 0.010298 0.000000 0.000000 0.000000
# 4 0.000000 0.000000 0.000000 0.039229 0.000000 0.000000
# 5 0.000000 0.000000 0.000000 0.000000 0.039229 0.000000
# 6 0.010453 -0.010453 0.000000 0.000000 0.000000 0.034027
#
#
# Mechanical properties :
#
#
# Convention : Reuss Voigt Hill
#
# Bulk Modulus (GPa) = 46.43092 46.43150 46.43121
# Shear Modulus (GPa) = 24.37590 29.39634 26.88612
#
# Velocity S-wave (km/s) = 3.43838 3.77590 3.61108
# Velocity P-wave (km/s) = 6.18729 6.44433 6.31712
#
# Compressibility (1/GPa) = 0.02153737
#
# Stress axis : x y z
#
# Youngs Moduli (GPa) = 46.29675 46.29675 97.10923
#
# Poissons Ratio (x) = 0.59330 0.15367
# Poissons Ratio (y) = 0.59330 0.15367
# Poissons Ratio (z) = 0.07326 0.07326
#
# Static dielectric constant tensor:
#      x y z
#    x 3.821000 0.000000 0.000000 
#    y 0.000000 3.821000 0.000000 
#    z 0.000000 0.000000 3.821420 
# 
# 
# High freq. dielectric constant tensor:
#      x y z
#    x 1.816920 0.000000 0.000000 
#    y 0.000000 1.816920 0.000000 
#    z 0.000000 0.000000 1.801560 
# 
# From -- ./inp_files/891.got.cif
#   From: 2010.03.12/outbox.cif.g09.slc.cpg/sg85_cif.got.tgz:891.got - 2010.04.08 20:10:46.
