data_PCOD8303497
_publ_section_title
;
Structure prediction by ZEFSAII (Michael W. Deem and Ramdas Pophale) SiO2 
 PCOD8303497
Probable space group: P 42/N
;
_chemical_formula_sum "Si O2"
_cell_formula_units_Z 32
_cell_length_a 9.130075
_cell_length_b 9.130075
_cell_length_c 17.655690
_cell_angle_alpha 90.000000
_cell_angle_beta 90.000000
_cell_angle_gamma 90.000000
_cell_volume 1471.747765
_symmetry_space_group_name_H-M "P 42/N"
_symmetry_group_IT_number 86
_space_group.IT_coordinate_system_code '2'
_symmetry_cell_setting 'tetragonal'
loop_
_space_group_symop_operation_xyz
x,y,z
-y,1/2+x,1/2+z
1/2-x,1/2-y,z
1/2+y,-x,1/2+z
-x,-y,-z
y,1/2-x,1/2-z
1/2+x,1/2+y,-z
1/2-y,x,1/2-z
loop_
_atom_site_type_symbol
_atom_site_label
_atom_site_fract_x
_atom_site_fract_y
_atom_site_fract_z
Si Si1 0.249663 0.519179 0.002891
Si Si2 0.491479 0.165056 0.923566
Si Si3 0.438817 0.104002 0.760430
Si Si4 0.506468 0.496510 0.106327
O O1 0.348683 0.453189 0.072086
O O2 0.145630 0.649386 0.033061
O O3 0.144422 0.391860 0.972603
O O4 0.361236 0.584199 0.939117
O O5 0.505634 0.077490 0.843667
O O6 0.458933 0.332736 0.907588
O O7 0.272586 0.049807 0.763820
O O8 0.531770 0.013644 0.696833
#
# Coordination Sequence:
#
# PCOD8303497 Si02
#       4
#     8   8   8   8
#     4  10  20  32  56  84 108 148 184 234 292 334
#     4  10  19  34  57  82 116 146 193 238 282 340
#     4   9  16  30  56  82 107 144 188 241 292 338
#     4  10  19  34  57  82 116 146 193 238 282 340
#
# _framework density 21.742857000000001
#
# number of rings (size 3 to 8) (size 9 to 14) (size 15 to 20)
#    0.000    2.250    2.500    1.500    0.000    0.000 
#    0.000    0.000   33.000    0.000    0.000    0.000 
#    0.000    0.000    0.000    0.000    0.000    0.000 
#
# Total GULP energy -396600.824933 kJ/mol
# GULP energy per Si atom -12393.775779 kJ/mol
# Density = 2.169337 g / cm^3
# Si number density = 21.742857 Si / 1000 Ang^3
#
#
#
# Elastic Constant Matrix: (Units=GPa)
#
#
# Indices 1 2 3 4 5 6 
#
# 1 68.2188 8.1740 39.4285 0.0000 0.0000 -0.7621
# 2 8.1740 68.2188 39.4285 0.0000 0.0000 0.7621
# 3 39.4285 39.4285 165.1935 0.0000 0.0000 0.0000
# 4 0.0000 0.0000 0.0000 29.0032 0.0000 0.0000
# 5 0.0000 0.0000 0.0000 0.0000 29.0032 0.0000
# 6 -0.7621 0.7621 0.0000 0.0000 0.0000 25.4416
#
#
#
# Elastic Compliance Matrix: (Units=1/GPa)
#
#
# Indices 1 2 3 4 5 6 
#
# 1 0.017018 0.000351 -0.004146 0.000000 0.000000 0.000499
# 2 0.000351 0.017018 -0.004146 0.000000 0.000000 -0.000499
# 3 -0.004146 -0.004146 0.008033 0.000000 0.000000 0.000000
# 4 0.000000 0.000000 0.000000 0.034479 0.000000 0.000000
# 5 0.000000 0.000000 0.000000 0.000000 0.034479 0.000000
# 6 0.000499 -0.000499 0.000000 0.000000 0.000000 0.039336
#
#
# Mechanical properties :
#
#
# Convention : Reuss Voigt Hill
#
# Bulk Modulus (GPa) = 38.18421 52.85480 45.51951
# Shear Modulus (GPa) = 28.57587 30.99628 29.78608
#
# Velocity S-wave (km/s) = 3.62921 3.77979 3.70526
# Velocity P-wave (km/s) = 5.92971 6.58869 6.26787
#
# Compressibility (1/GPa) = 0.02618883
#
# Stress axis : x y z
#
# Youngs Moduli (GPa) = 58.76004 58.76004 124.49308
#
# Poissons Ratio (x) = -0.02065 0.51613
# Poissons Ratio (y) = -0.02065 0.51613
# Poissons Ratio (z) = 0.24361 0.24361
#
# Static dielectric constant tensor:
#      x y z
#    x 3.665850 0.000000 0.000000 
#    y 0.000000 3.665850 0.000000 
#    z 0.000000 0.000000 4.495050 
# 
# 
# High freq. dielectric constant tensor:
#      x y z
#    x 1.826950 0.000000 0.000000 
#    y 0.000000 1.826950 0.000000 
#    z 0.000000 0.000000 1.866420 
# 
# From -- ./inp_files/3807.got.cif
#   From: 2010.03.12/outbox.cif.g09.slc.cpg/sg86_2_cif.got.tgz:3807.got - 2010.04.08 20:12:58.
