data_PCOD8303322
_publ_section_title
;
Structure prediction by ZEFSAII (Michael W. Deem and Ramdas Pophale) SiO2 
 PCOD8303322
Probable space group: P 42/M
;
_chemical_formula_sum "Si O2"
_cell_formula_units_Z 34
_cell_length_a 12.793637
_cell_length_b 12.793637
_cell_length_c 10.348090
_cell_angle_alpha 90.000000
_cell_angle_beta 90.000000
_cell_angle_gamma 90.000000
_cell_volume 1693.745855
_symmetry_space_group_name_H-M "P 42/M"
_symmetry_group_IT_number 84
_symmetry_cell_setting 'tetragonal'
loop_
_space_group_symop_operation_xyz
x,y,z
-y,x,1/2+z
-x,-y,z
y,-x,1/2+z
-x,-y,-z
y,-x,1/2-z
x,y,-z
-y,x,1/2-z
loop_
_atom_site_type_symbol
_atom_site_label
_atom_site_fract_x
_atom_site_fract_y
_atom_site_fract_z
Si Si1 0.761633 0.190987 0.248372
Si Si2 0.706225 0.406292 0.352636
Si Si3 0.894413 0.557771 0.348874
Si Si4 0.875077 0.121305 0.000000
Si Si5 0.500000 0.500000 0.250000
Si Si6 0.117091 0.877906 0.500000
O O1 0.716372 0.308015 0.257274
O O2 0.664506 0.111782 0.232569
O O3 0.827269 0.165220 0.374061
O O4 0.836662 0.183129 0.125361
O O5 0.721611 0.369198 0.500000
O O6 0.795992 0.486967 0.312455
O O7 0.593437 0.459661 0.340251
O O8 0.894619 0.587052 0.500000
O O9 0.000000 0.500000 0.307321
O O10 0.998740 0.121474 0.000000
O O11 0.835124 0.001504 0.000000
#
# Coordination Sequence:
#
# PCOD8303322 Si02
#       6
#     8   8   8   4   2   4
#     4  12  23  43  70  99 130 176 224 275 337 400
#     4  11  24  42  65  98 131 173 219 280 332 398
#     4  10  23  41  66  96 132 175 222 268 338 408
#     4  11  26  44  67  98 131 183 222 269 341 411
#     4  12  22  44  68  90 132 178 228 272 338 410
#     4  11  26  44  67  96 139 171 224 285 331 399
#
# _framework density 20.073851000000001
#
# number of rings (size 3 to 8) (size 9 to 14) (size 15 to 20)
#    0.000    0.941    4.706    1.765    6.588    1.882 
#    2.118    1.765    0.000    0.000    0.000    0.000 
#    0.000    0.000    0.000    0.000    0.000    0.000 
#
# Total GULP energy -421789.509296 kJ/mol
# GULP energy per Si atom -12405.573803 kJ/mol
# Density = 2.002816 g / cm^3
# Si number density = 20.073851 Si / 1000 Ang^3
#
#
#
# Elastic Constant Matrix: (Units=GPa)
#
#
# Indices 1 2 3 4 5 6 
#
# 1 113.7686 38.9247 39.0134 0.0000 0.0000 -0.2561
# 2 38.9247 113.7686 39.0134 0.0000 0.0000 0.2561
# 3 39.0134 39.0134 110.3659 0.0000 0.0000 0.0000
# 4 0.0000 0.0000 0.0000 1.3170 0.0000 0.0000
# 5 0.0000 0.0000 0.0000 0.0000 1.3170 0.0000
# 6 -0.2561 0.2561 0.0000 0.0000 0.0000 34.4410
#
#
#
# Elastic Compliance Matrix: (Units=1/GPa)
#
#
# Indices 1 2 3 4 5 6 
#
# 1 0.010677 -0.002684 -0.002825 0.000000 0.000000 0.000099
# 2 -0.002684 0.010677 -0.002825 0.000000 0.000000 -0.000099
# 3 -0.002825 -0.002825 0.011058 0.000000 0.000000 0.000000
# 4 0.000000 0.000000 0.000000 0.759315 0.000000 0.000000
# 5 0.000000 0.000000 0.000000 0.000000 0.759315 0.000000
# 6 0.000099 -0.000099 0.000000 0.000000 0.000000 0.029037
#
#
# Mechanical properties :
#
#
# Convention : Reuss Voigt Hill
#
# Bulk Modulus (GPa) = 63.52280 63.53403 63.52842
# Shear Modulus (GPa) = 3.12110 22.14508 12.63309
#
# Velocity S-wave (km/s) = 1.24827 3.32502 2.51137
# Velocity P-wave (km/s) = 5.81299 6.81615 6.33446
#
# Compressibility (1/GPa) = 0.01574238
#
# Stress axis : x y z
#
# Youngs Moduli (GPa) = 93.65615 93.65615 90.42992
#
# Poissons Ratio (x) = 0.25142 0.25550
# Poissons Ratio (y) = 0.25142 0.25550
# Poissons Ratio (z) = 0.26462 0.26462
#
# Static dielectric constant tensor:
#      x y z
#    x 3.775910 0.000000 0.000000 
#    y 0.000000 3.775910 0.000000 
#    z 0.000000 0.000000 3.359000 
# 
# 
# High freq. dielectric constant tensor:
#      x y z
#    x 1.798510 0.000000 0.000000 
#    y 0.000000 1.798510 0.000000 
#    z 0.000000 0.000000 1.772640 
# 
# From -- ./inp_files/1983.got.cif
#   From: 2010.03.12/outbox.cif.g09.slc.cpg/sg84_1_cif.got.tgz:1983.got - 2010.04.08 20:07:29.
