data_PCOD8303985
_publ_section_title
;
Structure prediction by ZEFSAII (Michael W. Deem and Ramdas Pophale) SiO2 
 PCOD8303985
Probable space group: I 4/M
;
_chemical_formula_sum "Si O2"
_cell_formula_units_Z 96
_cell_length_a 23.048259
_cell_length_b 23.048259
_cell_length_c 9.815989
_cell_angle_alpha 90.000000
_cell_angle_beta 90.000000
_cell_angle_gamma 90.000000
_cell_volume 5214.471693
_symmetry_space_group_name_H-M "I 4/M"
_symmetry_group_IT_number 87
_symmetry_cell_setting 'tetragonal'
loop_
_space_group_symop_operation_xyz
x,y,z
-y,x,z
-x,-y,z
y,-x,z
-x,-y,-z
y,-x,-z
x,y,-z
-y,x,-z
1/2+x,1/2+y,1/2+z
1/2-y,1/2+x,1/2+z
1/2-x,1/2-y,1/2+z
1/2+y,1/2-x,1/2+z
1/2-x,1/2-y,1/2-z
1/2+y,1/2-x,1/2-z
1/2+x,1/2+y,1/2-z
1/2-y,1/2+x,1/2-z
loop_
_atom_site_type_symbol
_atom_site_label
_atom_site_fract_x
_atom_site_fract_y
_atom_site_fract_z
Si Si1 0.483632 0.840574 0.841214
Si Si2 0.791614 0.825551 0.343535
Si Si3 0.915410 0.628729 0.844562
Si Si4 0.996379 0.091502 0.337998
Si Si5 0.168274 0.268361 0.846389
Si Si6 0.544144 0.286709 0.838111
O O1 0.421394 0.869103 0.814643
O O2 0.530347 0.877219 0.756248
O O3 0.481956 0.774167 0.785139
O O4 0.500644 0.842964 0.000000
O O5 0.811858 0.821428 0.500000
O O6 0.835013 0.785523 0.256548
O O7 0.725920 0.805637 0.323505
O O8 0.795950 0.890446 0.285545
O O9 0.885809 0.690415 0.815797
O O10 0.937465 0.624466 0.000000
O O11 0.994879 0.091872 0.500000
O O12 0.993367 0.158057 0.284766
O O13 0.054985 0.060031 0.286071
O O14 0.166314 0.244192 0.000000
O O15 0.546288 0.283126 0.000000
#
# Coordination Sequence:
#
# PCOD8303985 Si02
#       6
#    16  16  16  16  16  16
#     4  10  21  37  56  76  99 131 172 218 262 312
#     4   9  16  28  49  75 100 129 165 204 246 297
#     4  10  21  38  55  73 104 138 167 211 270 316
#     4   8  14  24  39  64 100 136 165 198 243 291
#     4   9  17  31  49  70 101 136 161 196 256 310
#     4   9  16  29  49  72 101 133 168 211 255 295
#
# _framework density 18.410302000000001
#
# number of rings (size 3 to 8) (size 9 to 14) (size 15 to 20)
#    0.000    2.833    1.667    0.500    0.000    3.000 
#    0.000    5.833    0.000    0.000    0.000    0.000 
#    0.000    0.000    0.000    7.333    0.000    6.000 
#
# Total GULP energy -595030.595428 kJ/mol
# GULP energy per Si atom -12396.470738 kJ/mol
# Density = 1.836840 g / cm^3
# Si number density = 18.410302 Si / 1000 Ang^3
#
#
#
# Elastic Constant Matrix: (Units=GPa)
#
#
# Indices 1 2 3 4 5 6 
#
# 1 87.7387 30.3214 30.6662 0.0000 0.0000 6.0065
# 2 30.3214 87.7387 30.6662 0.0000 0.0000 -6.0065
# 3 30.6662 30.6662 50.0641 0.0000 0.0000 0.0000
# 4 0.0000 0.0000 0.0000 23.4253 0.0000 0.0000
# 5 0.0000 0.0000 0.0000 0.0000 23.4253 0.0000
# 6 6.0065 -6.0065 0.0000 0.0000 0.0000 14.8365
#
#
#
# Elastic Compliance Matrix: (Units=1/GPa)
#
#
# Indices 1 2 3 4 5 6 
#
# 1 0.015726 -0.003302 -0.007610 0.000000 0.000000 -0.007703
# 2 -0.003302 0.015726 -0.007610 0.000000 0.000000 0.007703
# 3 -0.007610 -0.007610 0.029297 0.000000 0.000000 0.000000
# 4 0.000000 0.000000 0.000000 0.042689 0.000000 0.000000
# 5 0.000000 0.000000 0.000000 0.000000 0.042689 0.000000
# 6 -0.007703 0.007703 0.000000 0.000000 0.000000 0.073639
#
#
# Mechanical properties :
#
#
# Convention : Reuss Voigt Hill
#
# Bulk Modulus (GPa) = 42.18585 45.42767 43.80676
# Shear Modulus (GPa) = 18.88852 21.26328 20.07590
#
# Velocity S-wave (km/s) = 3.20656 3.40217 3.30581
# Velocity P-wave (km/s) = 6.05585 6.33732 6.19819
#
# Compressibility (1/GPa) = 0.02370463
#
# Stress axis : x y z
#
# Youngs Moduli (GPa) = 63.58950 63.58950 34.13299
#
# Poissons Ratio (x) = 0.20999 0.25975
# Poissons Ratio (y) = 0.20999 0.25975
# Poissons Ratio (z) = 0.48391 0.48391
#
# Static dielectric constant tensor:
#      x y z
#    x 3.447140 0.000000 0.000000 
#    y 0.000000 3.447140 0.000000 
#    z 0.000000 0.000000 3.036390 
# 
# 
# High freq. dielectric constant tensor:
#      x y z
#    x 1.714240 0.000000 0.000000 
#    y 0.000000 1.714240 0.000000 
#    z 0.000000 0.000000 1.666550 
# 
# From -- ./inp_files/1419.got.cif
#   From: 2010.03.12/outbox.cif.g09.slc.cpg/sg87_1_cif.got.tgz:1419.got - 2010.04.08 20:16:13.
