data_PCOD8303628
_publ_section_title
;
Structure prediction by ZEFSAII (Michael W. Deem and Ramdas Pophale) SiO2 
 PCOD8303628
Probable space group: P 42/N
;
_chemical_formula_sum "Si O2"
_cell_formula_units_Z 48
_cell_length_a 8.890533
_cell_length_b 8.890533
_cell_length_c 28.875141
_cell_angle_alpha 90.000000
_cell_angle_beta 90.000000
_cell_angle_gamma 90.000000
_cell_volume 2282.336681
_symmetry_space_group_name_H-M "P 42/N"
_symmetry_group_IT_number 86
_space_group.IT_coordinate_system_code '2'
_symmetry_cell_setting 'tetragonal'
loop_
_space_group_symop_operation_xyz
x,y,z
-y,1/2+x,1/2+z
1/2-x,1/2-y,z
1/2+y,-x,1/2+z
-x,-y,-z
y,1/2-x,1/2-z
1/2+x,1/2+y,-z
1/2-y,x,1/2-z
loop_
_atom_site_type_symbol
_atom_site_label
_atom_site_fract_x
_atom_site_fract_y
_atom_site_fract_z
Si Si1 0.322785 0.910512 0.456063
Si Si2 0.702543 0.532146 0.269002
Si Si3 0.588754 0.677199 0.866701
Si Si4 0.588475 0.678134 0.046058
Si Si5 0.308310 0.026616 0.266180
Si Si6 0.912823 0.179089 0.863186
O O1 0.250000 0.750000 0.461440
O O2 0.500419 0.892481 0.455048
O O3 0.265875 0.987284 0.408952
O O4 0.266113 0.010201 0.499039
O O5 0.576120 0.663616 0.266701
O O6 0.629277 0.374516 0.253030
O O7 0.767464 0.517853 0.320668
O O8 0.750000 0.750000 0.873148
O O9 0.510463 0.737604 0.819823
O O10 0.603596 0.498937 0.864137
O O11 0.750000 0.750000 0.050420
O O12 0.489592 0.734272 0.089420
O O13 0.161042 0.067847 0.236550
O O14 0.750000 0.250000 0.858586
#
# Coordination Sequence:
#
# PCOD8303628 Si02
#       6
#     8   8   8   8   8   8
#     4  10  23  43  64  99 130 166 216 268 327 393
#     4  11  25  41  61  89 130 171 212 273 322 389
#     4  11  22  42  64  91 129 163 216 269 325 384
#     4  10  23  42  69  94 133 170 211 271 328 392
#     4  11  22  41  63  91 125 172 218 270 321 387
#     4  11  24  42  65  95 126 173 218 266 327 395
#
# _framework density 21.031077
#
# number of rings (size 3 to 8) (size 9 to 14) (size 15 to 20)
#    0.000    1.333    3.333    2.000    2.333    2.000 
#    3.000    0.000    0.000    0.000    0.000    0.000 
#    0.000    0.000    0.000    0.000    0.000    0.000 
#
# Total GULP energy -595402.642223 kJ/mol
# GULP energy per Si atom -12404.221713 kJ/mol
# Density = 2.098321 g / cm^3
# Si number density = 21.031077 Si / 1000 Ang^3
#
#
#
# Elastic Constant Matrix: (Units=GPa)
#
#
# Indices 1 2 3 4 5 6 
#
# 1 67.7867 30.2719 43.9593 0.0000 0.0000 5.5758
# 2 30.2719 67.7867 43.9593 0.0000 0.0000 -5.5758
# 3 43.9593 43.9593 169.7927 0.0000 0.0000 0.0000
# 4 0.0000 0.0000 0.0000 45.3862 0.0000 0.0000
# 5 0.0000 0.0000 0.0000 0.0000 45.3862 0.0000
# 6 5.5758 -5.5758 0.0000 0.0000 0.0000 49.4850
#
#
#
# Elastic Compliance Matrix: (Units=1/GPa)
#
#
# Indices 1 2 3 4 5 6 
#
# 1 0.020430 -0.007150 -0.003438 0.000000 0.000000 -0.003108
# 2 -0.007150 0.020430 -0.003438 0.000000 0.000000 0.003108
# 3 -0.003438 -0.003438 0.007670 0.000000 0.000000 0.000000
# 4 0.000000 0.000000 0.000000 0.022033 0.000000 0.000000
# 5 0.000000 0.000000 0.000000 0.000000 0.022033 0.000000
# 6 -0.003108 0.003108 0.000000 0.000000 0.000000 0.020908
#
#
# Mechanical properties :
#
#
# Convention : Reuss Voigt Hill
#
# Bulk Modulus (GPa) = 48.83291 60.19410 54.51350
# Shear Modulus (GPa) = 33.69632 40.52983 37.11307
#
# Velocity S-wave (km/s) = 4.00711 4.39468 4.20536
# Velocity P-wave (km/s) = 6.68424 7.37798 7.03966
#
# Compressibility (1/GPa) = 0.02047799
#
# Stress axis : x y z
#
# Youngs Moduli (GPa) = 48.94672 48.94672 130.37917
#
# Poissons Ratio (x) = 0.34995 0.44830
# Poissons Ratio (y) = 0.34995 0.44830
# Poissons Ratio (z) = 0.16830 0.16830
#
# Static dielectric constant tensor:
#      x y z
#    x 3.724810 0.000000 0.000000 
#    y 0.000000 3.724810 0.000000 
#    z 0.000000 0.000000 4.271770 
# 
# 
# High freq. dielectric constant tensor:
#      x y z
#    x 1.824970 0.000000 0.000000 
#    y 0.000000 1.824970 0.000000 
#    z 0.000000 0.000000 1.838640 
# 
# From -- ./inp_files/5195.got.cif
#   From: 2010.03.12/outbox.cif.g09.slc.cpg/sg86_3_cif.got.tgz:5195.got - 2010.04.08 20:12:58.
