data_PCOD8303153
_publ_section_title
;
Structure prediction by ZEFSAII (Michael W. Deem and Ramdas Pophale) SiO2 
 PCOD8303153
Probable space group: P 42/M
;
_chemical_formula_sum "Si O2"
_cell_formula_units_Z 48
_cell_length_a 16.828938
_cell_length_b 16.828938
_cell_length_c 9.142313
_cell_angle_alpha 90.000000
_cell_angle_beta 90.000000
_cell_angle_gamma 90.000000
_cell_volume 2589.223301
_symmetry_space_group_name_H-M "P 42/M"
_symmetry_group_IT_number 84
_symmetry_cell_setting 'tetragonal'
loop_
_space_group_symop_operation_xyz
x,y,z
-y,x,1/2+z
-x,-y,z
y,-x,1/2+z
-x,-y,-z
y,-x,1/2-z
x,y,-z
-y,x,1/2-z
loop_
_atom_site_type_symbol
_atom_site_label
_atom_site_fract_x
_atom_site_fract_y
_atom_site_fract_z
Si Si1 0.377032 0.002543 0.163283
Si Si2 0.196705 0.008121 0.159222
Si Si3 0.147044 0.835210 0.166233
Si Si4 0.831458 0.429448 0.670565
Si Si5 0.259051 0.723500 0.672637
Si Si6 0.174897 0.392147 0.328364
O O1 0.287644 0.033744 0.162527
O O2 0.422826 0.077952 0.239169
O O3 0.383684 0.915053 0.239180
O O4 0.410998 0.989165 0.000000
O O5 0.150142 0.055693 0.285676
O O6 0.195714 0.914987 0.187906
O O7 0.158489 0.026557 0.000000
O O8 0.182944 0.774295 0.281517
O O9 0.151436 0.803787 0.000000
O O10 0.843967 0.411646 0.500000
O O11 0.764674 0.366158 0.726207
O O12 0.797237 0.517255 0.699519
O O13 0.273819 0.728040 0.500000
O O14 0.336890 0.759240 0.751452
O O15 0.174566 0.369054 0.500000
#
# Coordination Sequence:
#
# PCOD8303153 Si02
#       6
#     8   8   8   8   8   8
#     4   9  15  29  53  80 106 134 171 218 268 314
#     4  10  20  35  53  74 104 140 184 229 268 313
#     4  11  22  36  54  77 104 143 189 226 265 314
#     4   9  18  32  55  82 106 138 177 218 262 319
#     4  11  21  35  55  80 111 144 175 213 270 325
#     4  10  19  34  57  83 107 136 180 221 261 317
#
# _framework density 18.538378999999999
#
# number of rings (size 3 to 8) (size 9 to 14) (size 15 to 20)
#    0.000    2.000    3.333    1.500    0.000    3.667 
#    0.000    3.333    0.000    1.500    0.000    3.500 
#    0.000    0.000    0.000    0.000    0.000    0.000 
#
# Total GULP energy -594639.037486 kJ/mol
# GULP energy per Si atom -12388.313281 kJ/mol
# Density = 1.849618 g / cm^3
# Si number density = 18.538379 Si / 1000 Ang^3
#
#
#
# Elastic Constant Matrix: (Units=GPa)
#
#
# Indices 1 2 3 4 5 6 
#
# 1 93.4655 60.1058 35.7659 0.0000 0.0000 -4.1797
# 2 60.1058 93.4655 35.7659 0.0000 0.0000 4.1797
# 3 35.7659 35.7659 48.0342 0.0000 0.0000 0.0000
# 4 0.0000 0.0000 0.0000 22.5505 0.0000 0.0000
# 5 0.0000 0.0000 0.0000 0.0000 22.5505 0.0000
# 6 -4.1797 4.1797 0.0000 0.0000 0.0000 25.5847
#
#
#
# Elastic Compliance Matrix: (Units=1/GPa)
#
#
# Indices 1 2 3 4 5 6 
#
# 1 0.020613 -0.010643 -0.007423 0.000000 0.000000 0.005106
# 2 -0.010643 0.020613 -0.007423 0.000000 0.000000 -0.005106
# 3 -0.007423 -0.007423 0.031873 0.000000 0.000000 0.000000
# 4 0.000000 0.000000 0.000000 0.044345 0.000000 0.000000
# 5 0.000000 0.000000 0.000000 0.000000 0.044345 0.000000
# 6 0.005106 -0.005106 0.000000 0.000000 0.000000 0.040754
#
#
# Mechanical properties :
#
#
# Convention : Reuss Voigt Hill
#
# Bulk Modulus (GPa) = 45.20970 55.36004 50.28487
# Shear Modulus (GPa) = 19.16491 21.02563 20.09527
#
# Velocity S-wave (km/s) = 3.21876 3.37139 3.29596
# Velocity P-wave (km/s) = 6.18497 6.71433 6.45508
#
# Compressibility (1/GPa) = 0.02211915
#
# Stress axis : x y z
#
# Youngs Moduli (GPa) = 48.51422 48.51422 31.37479
#
# Poissons Ratio (x) = 0.51635 0.23289
# Poissons Ratio (y) = 0.51635 0.23289
# Poissons Ratio (z) = 0.36012 0.36012
#
# Static dielectric constant tensor:
#      x y z
#    x 3.426010 0.000000 0.000000 
#    y 0.000000 3.426010 0.000000 
#    z 0.000000 0.000000 3.115890 
# 
# 
# High freq. dielectric constant tensor:
#      x y z
#    x 1.716190 0.000000 0.000000 
#    y 0.000000 1.716190 0.000000 
#    z 0.000000 0.000000 1.676620 
# 
# From -- ./inp_files/1004.got.cif
#   From: 2010.03.12/outbox.cif.g09.slc.cpg/sg84_1_cif.got.tgz:1004.got - 2010.04.08 20:07:29.
