data_PCOD8303502
_publ_section_title
;
Structure prediction by ZEFSAII (Michael W. Deem and Ramdas Pophale) SiO2 
 PCOD8303502
Probable space group: P 42/N
;
_chemical_formula_sum "Si O2"
_cell_formula_units_Z 52
_cell_length_a 17.436495
_cell_length_b 17.436495
_cell_length_c 9.708401
_cell_angle_alpha 90.000000
_cell_angle_beta 90.000000
_cell_angle_gamma 90.000000
_cell_volume 2951.658339
_symmetry_space_group_name_H-M "P 42/N"
_symmetry_group_IT_number 86
_space_group.IT_coordinate_system_code '2'
_symmetry_cell_setting 'tetragonal'
loop_
_space_group_symop_operation_xyz
x,y,z
-y,1/2+x,1/2+z
1/2-x,1/2-y,z
1/2+y,-x,1/2+z
-x,-y,-z
y,1/2-x,1/2-z
1/2+x,1/2+y,-z
1/2-y,x,1/2-z
loop_
_atom_site_type_symbol
_atom_site_label
_atom_site_fract_x
_atom_site_fract_y
_atom_site_fract_z
Si Si1 0.594267 0.973509 0.593688
Si Si2 0.515741 0.593496 0.405630
Si Si3 0.526834 0.905288 0.851288
Si Si4 0.250000 0.250000 0.936583
Si Si5 0.590695 0.516991 0.162010
Si Si6 0.751752 0.917132 0.514891
Si Si7 0.420857 0.250305 0.688735
O O1 0.552278 0.911129 0.692394
O O2 0.568413 0.962402 0.436721
O O3 0.684437 0.958959 0.598378
O O4 0.570908 0.060648 0.641516
O O5 0.429965 0.563429 0.365945
O O6 0.531423 0.576933 0.565876
O O7 0.577785 0.544815 0.317692
O O8 0.530489 0.682050 0.378283
O O9 0.542672 0.823442 0.915301
O O10 0.175324 0.250835 0.035493
O O11 0.250547 0.170631 0.845471
O O12 0.678322 0.533955 0.124347
O O13 0.746970 0.930954 0.352117
#
# Coordination Sequence:
#
# PCOD8303502 Si02
#       7
#     8   8   8   4   8   8   8
#     4  10  22  35  52  79 115 145 181 222 275 323
#     4  10  19  36  56  79 106 149 188 219 260 334
#     4  10  22  35  52  79 115 145 181 222 275 323
#     4  12  21  30  51  88 111 138 179 224 265 328
#     4  10  19  36  56  79 106 149 188 219 260 334
#     4  12  21  34  54  83 115 146 178 230 274 328
#     4  12  19  33  59  82 106 143 193 227 260 326
#
# _framework density 17.617217
#
# number of rings (size 3 to 8) (size 9 to 14) (size 15 to 20)
#    0.000    1.231    6.154    1.385    0.000    2.462 
#    0.000    0.000    0.000    0.923    0.000    2.154 
#    0.000    0.000    0.000    0.000    0.000    0.000 
#
# Total GULP energy -644258.984790 kJ/mol
# GULP energy per Si atom -12389.595861 kJ/mol
# Density = 1.757712 g / cm^3
# Si number density = 17.617217 Si / 1000 Ang^3
#
#
#
# Elastic Constant Matrix: (Units=GPa)
#
#
# Indices 1 2 3 4 5 6 
#
# 1 115.4290 68.8309 17.4877 0.0000 0.0000 -0.9038
# 2 68.8309 115.4290 17.4877 0.0000 0.0000 0.9038
# 3 17.4877 17.4877 45.6096 0.0000 0.0000 0.0000
# 4 0.0000 0.0000 0.0000 22.8661 0.0000 0.0000
# 5 0.0000 0.0000 0.0000 0.0000 22.8661 0.0000
# 6 -0.9038 0.9038 0.0000 0.0000 0.0000 28.1706
#
#
#
# Elastic Compliance Matrix: (Units=1/GPa)
#
#
# Indices 1 2 3 4 5 6 
#
# 1 0.013670 -0.007817 -0.002244 0.000000 0.000000 0.000689
# 2 -0.007817 0.013670 -0.002244 0.000000 0.000000 -0.000689
# 3 -0.002244 -0.002244 0.023646 0.000000 0.000000 0.000000
# 4 0.000000 0.000000 0.000000 0.043733 0.000000 0.000000
# 5 0.000000 0.000000 0.000000 0.000000 0.043733 0.000000
# 6 0.000689 -0.000689 0.000000 0.000000 0.000000 0.035542
#
#
# Mechanical properties :
#
#
# Convention : Reuss Voigt Hill
#
# Bulk Modulus (GPa) = 37.91388 53.78668 45.85028
# Shear Modulus (GPa) = 24.10842 26.29132 25.19987
#
# Velocity S-wave (km/s) = 3.70328 3.86731 3.78618
# Velocity P-wave (km/s) = 6.31295 7.10904 6.72279
#
# Compressibility (1/GPa) = 0.02637556
#
# Stress axis : x y z
#
# Youngs Moduli (GPa) = 73.15293 73.15293 42.29012
#
# Poissons Ratio (x) = 0.57183 0.09491
# Poissons Ratio (y) = 0.57183 0.09491
# Poissons Ratio (z) = 0.16417 0.16417
#
# Static dielectric constant tensor:
#      x y z
#    x 3.407000 0.000000 0.000000 
#    y 0.000000 3.407000 0.000000 
#    z 0.000000 0.000000 3.351360 
# 
# 
# High freq. dielectric constant tensor:
#      x y z
#    x 1.662710 0.000000 0.000000 
#    y 0.000000 1.662710 0.000000 
#    z 0.000000 0.000000 1.690670 
# 
# From -- ./inp_files/1422.got.cif
#   From: 2010.03.12/outbox.cif.g09.slc.cpg/sg86_1_cif.got.tgz:1422.got - 2010.04.08 20:12:58.
