data_PCOD8303423
_publ_section_title
;
Structure prediction by ZEFSAII (Michael W. Deem and Ramdas Pophale) SiO2 
 PCOD8303423
Probable space group: P 4/N
;
_chemical_formula_sum "Si O2"
_cell_formula_units_Z 56
_cell_length_a 13.927585
_cell_length_b 13.927585
_cell_length_c 13.559754
_cell_angle_alpha 90.000000
_cell_angle_beta 90.000000
_cell_angle_gamma 90.000000
_cell_volume 2630.288862
_symmetry_space_group_name_H-M "P 4/N"
_symmetry_group_IT_number 85
_symmetry_cell_setting 'tetragonal'
loop_
_space_group_symop_operation_xyz
x,y,z
1/2-y,x,z
1/2-x,1/2-y,z
y,1/2-x,z
-x,-y,-z
1/2+y,-x,-z
1/2+x,1/2+y,-z
-y,1/2+x,-z
loop_
_atom_site_type_symbol
_atom_site_label
_atom_site_fract_x
_atom_site_fract_y
_atom_site_fract_z
Si Si1 0.060044 0.903637 0.997648
Si Si2 0.517975 0.259157 0.722630
Si Si3 0.191909 0.841742 0.163433
Si Si4 0.375295 0.922065 0.226778
Si Si5 0.321782 0.110609 0.321788
Si Si6 0.702413 0.898462 0.452626
Si Si7 0.283037 0.098263 0.910669
O O1 0.151296 0.904451 0.071721
O O2 0.994490 0.810899 0.024659
O O3 0.098795 0.897042 0.887636
O O4 0.000000 0.000000 0.000000
O O5 0.607198 0.316627 0.763372
O O6 0.551046 0.146648 0.713042
O O7 0.490615 0.308800 0.618255
O O8 0.427596 0.277175 0.794878
O O9 0.250000 0.750000 0.120715
O O10 0.262592 0.898825 0.237206
O O11 0.382611 0.032630 0.259863
O O12 0.376272 0.209407 0.296690
O O13 0.320930 0.075205 0.434901
O O14 0.632097 0.811307 0.428355
O O15 0.362989 0.177767 0.937217
#
# Coordination Sequence:
#
# PCOD8303423 Si02
#       7
#     8   8   8   8   8   8   8
#     4  11  25  37  60  90 123 158 219 263 299 365
#     4  10  20  38  59  92 118 151 206 256 311 365
#     4   9  23  40  60  84 120 171 201 247 314 385
#     4  11  24  38  62  85 124 162 206 250 316 365
#     4   9  21  43  63  86 121 165 208 248 310 385
#     4   9  18  38  67  91 120 159 200 252 317 374
#     4  10  21  37  57  86 123 158 201 258 316 363
#
# _framework density 21.290438000000002
#
# number of rings (size 3 to 8) (size 9 to 14) (size 15 to 20)
#    0.000    2.143    0.000    2.571   10.000    2.286 
#    2.571    2.857    0.000    0.000    0.000    0.000 
#    0.000    0.000    0.000    0.000    0.000    0.000 
#
# Total GULP energy -693930.698605 kJ/mol
# GULP energy per Si atom -12391.619618 kJ/mol
# Density = 2.124198 g / cm^3
# Si number density = 21.290438 Si / 1000 Ang^3
#
#
#
# Elastic Constant Matrix: (Units=GPa)
#
#
# Indices 1 2 3 4 5 6 
#
# 1 40.4789 28.0197 11.6479 0.0000 0.0000 -9.1238
# 2 28.0197 40.4789 11.6479 0.0000 0.0000 9.1238
# 3 11.6479 11.6479 55.2805 0.0000 0.0000 0.0000
# 4 0.0000 0.0000 0.0000 27.8168 0.0000 0.0000
# 5 0.0000 0.0000 0.0000 0.0000 27.8168 0.0000
# 6 -9.1238 9.1238 0.0000 0.0000 0.0000 27.0000
#
#
#
# Elastic Compliance Matrix: (Units=1/GPa)
#
#
# Indices 1 2 3 4 5 6 
#
# 1 0.087316 -0.071591 -0.003314 0.000000 0.000000 0.053697
# 2 -0.071591 0.087316 -0.003314 0.000000 0.000000 -0.053697
# 3 -0.003314 -0.003314 0.019486 0.000000 0.000000 0.000000
# 4 0.000000 0.000000 0.000000 0.035950 0.000000 0.000000
# 5 0.000000 0.000000 0.000000 0.000000 0.035950 0.000000
# 6 0.053697 -0.053697 0.000000 0.000000 0.000000 0.073327
#
#
# Mechanical properties :
#
#
# Convention : Reuss Voigt Hill
#
# Bulk Modulus (GPa) = 26.53693 26.54106 26.53899
# Shear Modulus (GPa) = 9.83591 22.18824 16.01208
#
# Velocity S-wave (km/s) = 2.15172 3.23177 2.74538
# Velocity P-wave (km/s) = 4.32024 5.13994 4.74782
#
# Compressibility (1/GPa) = 0.03768334
#
# Stress axis : x y z
#
# Youngs Moduli (GPa) = 11.45262 11.45262 51.31913
#
# Poissons Ratio (x) = 0.81990 0.17005
# Poissons Ratio (y) = 0.81990 0.17005
# Poissons Ratio (z) = 0.03795 0.03795
#
# Static dielectric constant tensor:
#      x y z
#    x 0.333880 0.000000 0.000000 
#    y 0.000000 0.333880 0.000000 
#    z 0.000000 0.000000 3.620190 
# 
# 
# High freq. dielectric constant tensor:
#      x y z
#    x 1.839110 0.000000 0.000000 
#    y 0.000000 1.839110 0.000000 
#    z 0.000000 0.000000 1.811480 
# 
# From -- ./inp_files/1745.got.cif
#   From: 2010.03.12/outbox.cif.g09.slc.cpg/sg85_cif.got.tgz:1745.got - 2010.04.08 20:10:46.
