data_PCOD8303151
_publ_section_title
;
Structure prediction by ZEFSAII (Michael W. Deem and Ramdas Pophale) SiO2 
 PCOD8303151
Probable space group: P 42/M
;
_chemical_formula_sum "Si O2"
_cell_formula_units_Z 48
_cell_length_a 16.793508
_cell_length_b 16.793508
_cell_length_c 8.692385
_cell_angle_alpha 90.000000
_cell_angle_beta 90.000000
_cell_angle_gamma 90.000000
_cell_volume 2451.443028
_symmetry_space_group_name_H-M "P 42/M"
_symmetry_group_IT_number 84
_symmetry_cell_setting 'tetragonal'
loop_
_space_group_symop_operation_xyz
x,y,z
-y,x,1/2+z
-x,-y,z
y,-x,1/2+z
-x,-y,-z
y,-x,1/2-z
x,y,-z
-y,x,1/2-z
loop_
_atom_site_type_symbol
_atom_site_label
_atom_site_fract_x
_atom_site_fract_y
_atom_site_fract_z
Si Si1 0.381517 0.768363 0.322430
Si Si2 0.883828 0.743017 0.683387
Si Si3 0.098331 0.931202 0.317648
Si Si4 0.129330 0.505046 0.327014
Si Si5 0.375666 0.008161 0.829015
Si Si6 0.594920 0.568537 0.178398
O O1 0.366707 0.787934 0.500000
O O2 0.310610 0.807487 0.224765
O O3 0.469816 0.800431 0.277343
O O4 0.380815 0.674372 0.288717
O O5 0.886770 0.752583 0.500000
O O6 0.876135 0.828024 0.765701
O O7 0.966525 0.701862 0.747713
O O8 0.093207 0.937444 0.500000
O O9 0.018513 0.890438 0.254717
O O10 0.161572 0.522127 0.500000
O O11 0.060904 0.440141 0.337271
O O12 0.088095 0.585467 0.252104
O O13 0.352115 0.034945 0.000000
O O14 0.608059 0.476749 0.227035
O O15 0.572650 0.570365 0.000000
#
# Coordination Sequence:
#
# PCOD8303151 Si02
#       6
#     8   8   8   8   8   8
#     4  10  20  33  50  79 112 140 172 220 274 324
#     4  10  19  34  56  81 109 144 180 221 270 319
#     4  11  22  39  61  84 109 141 182 225 267 318
#     4   8  13  25  45  68  96 136 177 211 250 309
#     4   7  12  24  44  69  98 133 175 212 251 307
#     4  10  21  37  58  79 103 136 179 225 271 323
#
# _framework density 19.580304999999999
#
# number of rings (size 3 to 8) (size 9 to 14) (size 15 to 20)
#    0.000    2.667    0.000    6.000    0.000    2.667 
#    0.000    9.167    0.000    6.000    0.000    0.000 
#    0.000    0.000    0.000    0.000    0.000    0.000 
#
# Total GULP energy -594627.814213 kJ/mol
# GULP energy per Si atom -12388.079463 kJ/mol
# Density = 1.953574 g / cm^3
# Si number density = 19.580305 Si / 1000 Ang^3
#
#
#
# Elastic Constant Matrix: (Units=GPa)
#
#
# Indices 1 2 3 4 5 6 
#
# 1 70.3284 26.6025 25.0965 0.0000 0.0000 -0.8081
# 2 26.6025 70.3284 25.0965 0.0000 0.0000 0.8081
# 3 25.0965 25.0965 84.6224 0.0000 0.0000 0.0000
# 4 0.0000 0.0000 0.0000 18.5432 0.0000 0.0000
# 5 0.0000 0.0000 0.0000 0.0000 18.5432 0.0000
# 6 -0.8081 0.8081 0.0000 0.0000 0.0000 16.7097
#
#
#
# Elastic Compliance Matrix: (Units=1/GPa)
#
#
# Indices 1 2 3 4 5 6 
#
# 1 0.017550 -0.005361 -0.003615 0.000000 0.000000 0.001108
# 2 -0.005361 0.017550 -0.003615 0.000000 0.000000 -0.001108
# 3 -0.003615 -0.003615 0.013961 0.000000 0.000000 0.000000
# 4 0.000000 0.000000 0.000000 0.053928 0.000000 0.000000
# 5 0.000000 0.000000 0.000000 0.000000 0.053928 0.000000
# 6 0.001108 -0.001108 0.000000 0.000000 0.000000 0.059953
#
#
# Mechanical properties :
#
#
# Convention : Reuss Voigt Hill
#
# Bulk Modulus (GPa) = 41.87749 42.09668 41.98708
# Shear Modulus (GPa) = 19.99920 20.65815 20.32868
#
# Velocity S-wave (km/s) = 3.19939 3.25167 3.22564
# Velocity P-wave (km/s) = 5.92302 5.97026 5.94669
#
# Compressibility (1/GPa) = 0.02387918
#
# Stress axis : x y z
#
# Youngs Moduli (GPa) = 56.98159 56.98159 71.62688
#
# Poissons Ratio (x) = 0.30549 0.25891
# Poissons Ratio (y) = 0.30549 0.25891
# Poissons Ratio (z) = 0.20597 0.20597
#
# Static dielectric constant tensor:
#      x y z
#    x 3.659420 0.000000 0.000000 
#    y 0.000000 3.659420 0.000000 
#    z 0.000000 0.000000 3.444130 
# 
# 
# High freq. dielectric constant tensor:
#      x y z
#    x 1.748960 0.000000 0.000000 
#    y 0.000000 1.748960 0.000000 
#    z 0.000000 0.000000 1.747950 
# 
# From -- ./inp_files/977.got.cif
#   From: 2010.03.12/outbox.cif.g09.slc.cpg/sg84_1_cif.got.tgz:977.got - 2010.04.08 20:07:29.
