data_PCOD8303445
_publ_section_title
;
Structure prediction by ZEFSAII (Michael W. Deem and Ramdas Pophale) SiO2 
 PCOD8303445
Probable space group: P 4/N
;
_chemical_formula_sum "Si O2"
_cell_formula_units_Z 40
_cell_length_a 9.590730
_cell_length_b 9.590730
_cell_length_c 22.665459
_cell_angle_alpha 90.000000
_cell_angle_beta 90.000000
_cell_angle_gamma 90.000000
_cell_volume 2084.816560
_symmetry_space_group_name_H-M "P 4/N"
_symmetry_group_IT_number 85
_symmetry_cell_setting 'tetragonal'
loop_
_space_group_symop_operation_xyz
x,y,z
1/2-y,x,z
1/2-x,1/2-y,z
y,1/2-x,z
-x,-y,-z
1/2+y,-x,-z
1/2+x,1/2+y,-z
-y,1/2+x,-z
loop_
_atom_site_type_symbol
_atom_site_label
_atom_site_fract_x
_atom_site_fract_y
_atom_site_fract_z
Si Si1 0.913104 0.125335 0.977082
Si Si2 0.462139 0.340876 0.849285
Si Si3 0.666159 0.539304 0.640669
Si Si4 0.398312 0.890989 0.525525
Si Si5 0.349247 0.458126 0.224166
O O1 0.978976 0.165922 0.915124
O O2 0.751387 0.077132 0.975081
O O3 0.000000 0.000000 0.000000
O O4 0.322080 0.430420 0.836414
O O5 0.585920 0.411196 0.811193
O O6 0.826423 0.572652 0.627629
O O7 0.625640 0.415480 0.596155
O O8 0.639497 0.495233 0.707899
O O9 0.437727 0.756951 0.486969
O O10 0.500000 0.000000 0.500000
O O11 0.185208 0.432998 0.209695
#
# Coordination Sequence:
#
# PCOD8303445 Si02
#       5
#     8   8   8   8   8
#     4  11  24  41  64  94 125 163 206 244 305 365
#     4  11  24  43  63  89 130 167 200 251 311 361
#     4   9  17  37  63  85 120 161 201 250 307 363
#     4  11  22  36  58  89 121 159 205 247 308 366
#     4   9  21  40  65  94 118 158 211 255 301 365
#
# _framework density 19.186339
#
# number of rings (size 3 to 8) (size 9 to 14) (size 15 to 20)
#    0.000    1.800    4.000    1.200    2.800    1.600 
#    3.600    0.000    0.000    0.000    0.000    0.000 
#    0.000    0.000    0.000    0.000    0.000    0.000 
#
# Total GULP energy -495629.313285 kJ/mol
# GULP energy per Si atom -12390.732832 kJ/mol
# Density = 1.914267 g / cm^3
# Si number density = 19.186339 Si / 1000 Ang^3
#
#
#
# Elastic Constant Matrix: (Units=GPa)
#
#
# Indices 1 2 3 4 5 6 
#
# 1 89.1171 54.6576 32.0916 0.0000 0.0000 -6.7434
# 2 54.6576 89.1171 32.0916 0.0000 0.0000 6.7434
# 3 32.0916 32.0916 87.9910 0.0000 0.0000 0.0000
# 4 0.0000 0.0000 0.0000 37.2842 0.0000 0.0000
# 5 0.0000 0.0000 0.0000 0.0000 37.2842 0.0000
# 6 -6.7434 6.7434 0.0000 0.0000 0.0000 38.9509
#
#
#
# Elastic Compliance Matrix: (Units=1/GPa)
#
#
# Indices 1 2 3 4 5 6 
#
# 1 0.019718 -0.011410 -0.003030 0.000000 0.000000 0.005389
# 2 -0.011410 0.019718 -0.003030 0.000000 0.000000 -0.005389
# 3 -0.003030 -0.003030 0.013575 0.000000 0.000000 0.000000
# 4 0.000000 0.000000 0.000000 0.026821 0.000000 0.000000
# 5 0.000000 0.000000 0.000000 0.000000 0.026821 0.000000
# 6 0.005389 -0.005389 0.000000 0.000000 0.000000 0.027539
#
#
# Mechanical properties :
#
#
# Convention : Reuss Voigt Hill
#
# Bulk Modulus (GPa) = 55.33790 55.98964 55.66377
# Shear Modulus (GPa) = 28.54566 32.52947 30.53756
#
# Velocity S-wave (km/s) = 3.86140 4.12205 3.99385
# Velocity P-wave (km/s) = 6.98466 7.20420 7.09528
#
# Compressibility (1/GPa) = 0.01807080
#
# Stress axis : x y z
#
# Youngs Moduli (GPa) = 50.71397 50.71397 73.66489
#
# Poissons Ratio (x) = 0.57867 0.22321
# Poissons Ratio (y) = 0.57867 0.22321
# Poissons Ratio (z) = 0.15367 0.15367
#
# Static dielectric constant tensor:
#      x y z
#    x 3.545260 0.000000 0.000000 
#    y 0.000000 3.545260 0.000000 
#    z 0.000000 0.000000 3.525330 
# 
# 
# High freq. dielectric constant tensor:
#      x y z
#    x 1.748740 0.000000 0.000000 
#    y 0.000000 1.748740 0.000000 
#    z 0.000000 0.000000 1.742420 
# 
# From -- ./inp_files/2316.got.cif
#   From: 2010.03.12/outbox.cif.g09.slc.cpg/sg85_cif.got.tgz:2316.got - 2010.04.08 20:10:46.
