data_PCOD8303829
_publ_section_title
;
Structure prediction by ZEFSAII (Michael W. Deem and Ramdas Pophale) SiO2 
 PCOD8303829
Probable space group: I 4/M
;
_chemical_formula_sum "Si O2"
_cell_formula_units_Z 96
_cell_length_a 23.841857
_cell_length_b 23.841857
_cell_length_c 9.127720
_cell_angle_alpha 90.000000
_cell_angle_beta 90.000000
_cell_angle_gamma 90.000000
_cell_volume 5188.507716
_symmetry_space_group_name_H-M "I 4/M"
_symmetry_group_IT_number 87
_symmetry_cell_setting 'tetragonal'
loop_
_space_group_symop_operation_xyz
x,y,z
-y,x,z
-x,-y,z
y,-x,z
-x,-y,-z
y,-x,-z
x,y,-z
-y,x,-z
1/2+x,1/2+y,1/2+z
1/2-y,1/2+x,1/2+z
1/2-x,1/2-y,1/2+z
1/2+y,1/2-x,1/2+z
1/2-x,1/2-y,1/2-z
1/2+y,1/2-x,1/2-z
1/2+x,1/2+y,1/2-z
1/2-y,1/2+x,1/2-z
loop_
_atom_site_type_symbol
_atom_site_label
_atom_site_fract_x
_atom_site_fract_y
_atom_site_fract_z
Si Si1 0.101427 0.389712 0.665488
Si Si2 0.717759 0.613948 0.170788
Si Si3 0.795626 0.132607 0.330083
Si Si4 0.490333 0.146763 0.665821
Si Si5 0.239748 0.989001 0.327656
Si Si6 0.179460 0.309858 0.826236
O O1 0.096862 0.366832 0.500000
O O2 0.139693 0.443680 0.672163
O O3 0.124947 0.343026 0.774353
O O4 0.039812 0.401173 0.734917
O O5 0.657765 0.642625 0.205270
O O6 0.715996 0.549351 0.230850
O O7 0.766991 0.654523 0.235307
O O8 0.729786 0.609848 0.000000
O O9 0.780234 0.140985 0.500000
O O10 0.798855 0.065809 0.292189
O O11 0.751856 0.172138 0.242621
O O12 0.468375 0.144204 0.500000
O O13 0.474739 0.205008 0.739224
O O14 0.252377 0.992668 0.500000
O O15 0.181564 0.303377 0.000000
#
# Coordination Sequence:
#
# PCOD8303829 Si02
#       6
#    16  16  16  16  16  16
#     4  11  23  37  54  77 106 142 183 225 270 320
#     4   9  19  34  52  79 110 142 180 222 269 323
#     4  10  20  34  54  79 108 143 183 221 268 327
#     4  11  23  37  55  78 105 140 185 230 265 314
#     4  10  19  34  56  77 105 144 179 219 271 323
#     4  11  20  32  53  79 110 142 176 223 272 321
#
# _framework density 18.50243
#
# number of rings (size 3 to 8) (size 9 to 14) (size 15 to 20)
#    0.000    1.667    3.333    2.000    0.000    2.333 
#    0.000    3.333    0.000    0.500    0.000    3.500 
#    0.000    0.000    0.000    3.000    0.000    3.333 
#
# Total GULP energy -594699.829018 kJ/mol
# GULP energy per Si atom -12389.579771 kJ/mol
# Density = 1.846032 g / cm^3
# Si number density = 18.502430 Si / 1000 Ang^3
#
#
#
# Elastic Constant Matrix: (Units=GPa)
#
#
# Indices 1 2 3 4 5 6 
#
# 1 104.2386 57.0018 31.5598 0.0000 0.0000 1.6862
# 2 57.0018 104.2386 31.5598 0.0000 0.0000 -1.6862
# 3 31.5598 31.5598 62.1336 0.0000 0.0000 0.0000
# 4 0.0000 0.0000 0.0000 19.3590 0.0000 0.0000
# 5 0.0000 0.0000 0.0000 0.0000 19.3590 0.0000
# 6 1.6862 -1.6862 0.0000 0.0000 0.0000 23.2745
#
#
#
# Elastic Compliance Matrix: (Units=1/GPa)
#
#
# Indices 1 2 3 4 5 6 
#
# 1 0.014511 -0.006769 -0.003932 0.000000 0.000000 -0.001542
# 2 -0.006769 0.014511 -0.003932 0.000000 0.000000 0.001542
# 3 -0.003932 -0.003932 0.020089 0.000000 0.000000 0.000000
# 4 0.000000 0.000000 0.000000 0.051656 0.000000 0.000000
# 5 0.000000 0.000000 0.000000 0.000000 0.051656 0.000000
# 6 -0.001542 0.001542 0.000000 0.000000 0.000000 0.043189
#
#
# Mechanical properties :
#
#
# Convention : Reuss Voigt Hill
#
# Bulk Modulus (GPa) = 50.39548 56.76153 53.57851
# Shear Modulus (GPa) = 21.59909 22.43112 22.01511
#
# Velocity S-wave (km/s) = 3.42038 3.48564 3.45316
# Velocity P-wave (km/s) = 6.54943 6.85157 6.70220
#
# Compressibility (1/GPa) = 0.01984305
#
# Stress axis : x y z
#
# Youngs Moduli (GPa) = 68.91518 68.91518 49.77909
#
# Poissons Ratio (x) = 0.46652 0.19573
# Poissons Ratio (y) = 0.46652 0.19573
# Poissons Ratio (z) = 0.27097 0.27097
#
# Static dielectric constant tensor:
#      x y z
#    x 3.477560 0.000000 0.000000 
#    y 0.000000 3.477560 0.000000 
#    z 0.000000 0.000000 3.368930 
# 
# 
# High freq. dielectric constant tensor:
#      x y z
#    x 1.709690 0.000000 0.000000 
#    y 0.000000 1.709690 0.000000 
#    z 0.000000 0.000000 1.706250 
# 
# From -- ./inp_files/1343.got.cif
#   From: 2010.03.12/outbox.cif.g09.slc.cpg/sg87_1_cif.got.tgz:1343.got - 2010.04.08 20:16:13.
