data_PCOD8303854
_publ_section_title
;
Structure prediction by ZEFSAII (Michael W. Deem and Ramdas Pophale) SiO2 
 PCOD8303854
Probable space group: I 4/M
;
_chemical_formula_sum "Si O2"
_cell_formula_units_Z 88
_cell_length_a 14.635807
_cell_length_b 14.635807
_cell_length_c 19.920665
_cell_angle_alpha 90.000000
_cell_angle_beta 90.000000
_cell_angle_gamma 90.000000
_cell_volume 4267.142831
_symmetry_space_group_name_H-M "I 4/M"
_symmetry_group_IT_number 87
_symmetry_cell_setting 'tetragonal'
loop_
_space_group_symop_operation_xyz
x,y,z
-y,x,z
-x,-y,z
y,-x,z
-x,-y,-z
y,-x,-z
x,y,-z
-y,x,-z
1/2+x,1/2+y,1/2+z
1/2-y,1/2+x,1/2+z
1/2-x,1/2-y,1/2+z
1/2+y,1/2-x,1/2+z
1/2-x,1/2-y,1/2-z
1/2+y,1/2-x,1/2-z
1/2+x,1/2+y,1/2-z
1/2-y,1/2+x,1/2-z
loop_
_atom_site_type_symbol
_atom_site_label
_atom_site_fract_x
_atom_site_fract_y
_atom_site_fract_z
Si Si1 0.255424 0.906584 0.370182
Si Si2 0.343878 0.165337 0.000000
Si Si3 0.138599 0.052042 0.854383
Si Si4 0.982773 0.209776 0.000000
Si Si5 0.792587 0.654030 0.268494
Si Si6 0.324781 0.199090 0.500000
Si Si7 0.609161 0.246476 0.128000
O O1 0.318668 0.904298 0.435228
O O2 0.324847 0.885950 0.308544
O O3 0.173606 0.834403 0.370431
O O4 0.212799 0.007173 0.372657
O O5 0.309703 0.061894 0.000000
O O6 0.259966 0.234481 0.000000
O O7 0.225429 0.090821 0.813987
O O8 0.052893 0.116710 0.834702
O O9 0.154345 0.052205 0.934716
O O10 0.089746 0.232566 0.000000
O O11 0.750000 0.750000 0.250000
O O12 0.813737 0.609715 0.196361
O O13 0.320194 0.135232 0.566348
#
# Coordination Sequence:
#
# PCOD8303854 Si02
#       7
#    16   8  16   8  16   8  16
#     4  10  21  41  63  91 120 161 209 264 316 387
#     4  10  19  39  61  88 120 165 204 249 312 375
#     4  11  24  39  64 103 135 165 215 275 327 392
#     4  12  22  37  71  93 134 173 213 263 328 396
#     4  10  23  39  62  89 130 174 208 255 334 398
#     4  10  23  41  65  93 128 175 210 264 327 396
#     4  10  23  40  66  91 123 165 217 264 326 384
#
# _framework density 20.622699999999998
#
# number of rings (size 3 to 8) (size 9 to 14) (size 15 to 20)
#    0.000    1.636    1.818    2.182   10.182    1.091 
#    0.000    1.818    0.000    3.273    0.000    0.000 
#    0.000    0.000    0.000    0.000    0.000    0.000 
#
# Total GULP energy -545210.817101 kJ/mol
# GULP energy per Si atom -12391.154934 kJ/mol
# Density = 2.057576 g / cm^3
# Si number density = 20.622700 Si / 1000 Ang^3
#
#
#
# Elastic Constant Matrix: (Units=GPa)
#
#
# Indices 1 2 3 4 5 6 
#
# 1 65.6077 19.3489 22.6354 0.0000 0.0000 -3.3649
# 2 19.3489 65.6077 22.6354 0.0000 0.0000 3.3649
# 3 22.6354 22.6354 143.9837 0.0000 0.0000 0.0000
# 4 0.0000 0.0000 0.0000 13.8805 0.0000 0.0000
# 5 0.0000 0.0000 0.0000 0.0000 13.8805 0.0000
# 6 -3.3649 3.3649 0.0000 0.0000 0.0000 19.0302
#
#
#
# Elastic Compliance Matrix: (Units=1/GPa)
#
#
# Indices 1 2 3 4 5 6 
#
# 1 0.017518 -0.004671 -0.002020 0.000000 0.000000 0.003923
# 2 -0.004671 0.017518 -0.002020 0.000000 0.000000 -0.003923
# 3 -0.002020 -0.002020 0.007580 0.000000 0.000000 0.000000
# 4 0.000000 0.000000 0.000000 0.072043 0.000000 0.000000
# 5 0.000000 0.000000 0.000000 0.000000 0.072043 0.000000
# 6 0.003923 -0.003923 0.000000 0.000000 0.000000 0.053936
#
#
# Mechanical properties :
#
#
# Convention : Reuss Voigt Hill
#
# Bulk Modulus (GPa) = 39.68958 44.93759 42.31358
# Shear Modulus (GPa) = 18.76480 23.39686 21.08083
#
# Velocity S-wave (km/s) = 3.01974 3.37192 3.20068
# Velocity P-wave (km/s) = 5.60766 6.08255 5.84993
#
# Compressibility (1/GPa) = 0.02519553
#
# Stress axis : x y z
#
# Youngs Moduli (GPa) = 57.08544 57.08543 131.92197
#
# Poissons Ratio (x) = 0.26663 0.26643
# Poissons Ratio (y) = 0.26663 0.26643
# Poissons Ratio (z) = 0.11529 0.11529
#
# Static dielectric constant tensor:
#      x y z
#    x 3.641420 0.000000 0.000000 
#    y 0.000000 3.641420 0.000000 
#    z 0.000000 0.000000 5.014320 
# 
# 
# High freq. dielectric constant tensor:
#      x y z
#    x 1.790140 0.000000 0.000000 
#    y 0.000000 1.790140 0.000000 
#    z 0.000000 0.000000 1.828550 
# 
# From -- ./inp_files/5233.got.cif
#   From: 2010.03.12/outbox.cif.g09.slc.cpg/sg87_3_cif.got.tgz:5233.got - 2010.04.08 20:16:13.
