data_PCOD8303275
_publ_section_title
;
Structure prediction by ZEFSAII (Michael W. Deem and Ramdas Pophale) SiO2 
 PCOD8303275
Probable space group: P 42/M
;
_chemical_formula_sum "Si O2"
_cell_formula_units_Z 40
_cell_length_a 14.728354
_cell_length_b 14.728354
_cell_length_c 9.979351
_cell_angle_alpha 90.000000
_cell_angle_beta 90.000000
_cell_angle_gamma 90.000000
_cell_volume 2164.764843
_symmetry_space_group_name_H-M "P 42/M"
_symmetry_group_IT_number 84
_symmetry_cell_setting 'tetragonal'
loop_
_space_group_symop_operation_xyz
x,y,z
-y,x,1/2+z
-x,-y,z
y,-x,1/2+z
-x,-y,-z
y,-x,1/2-z
x,y,-z
-y,x,1/2-z
loop_
_atom_site_type_symbol
_atom_site_label
_atom_site_fract_x
_atom_site_fract_y
_atom_site_fract_z
Si Si1 0.370442 0.255957 0.745068
Si Si2 0.376975 0.574663 0.000000
Si Si3 0.365313 0.574938 0.500000
Si Si4 0.836079 0.189166 0.843748
Si Si5 0.926538 0.431372 0.347843
Si Si6 0.010393 0.771358 0.350982
O O1 0.407972 0.315712 0.626992
O O2 0.377733 0.317625 0.875311
O O3 0.266376 0.227494 0.720534
O O4 0.431964 0.165468 0.760738
O O5 0.404530 0.470907 0.000000
O O6 0.464739 0.641585 0.000000
O O7 0.784482 0.095340 0.823190
O O8 0.930541 0.179590 0.763163
O O9 0.855881 0.210714 0.000000
O O10 0.901628 0.460247 0.500000
O O11 0.000000 0.500000 0.284397
O O12 0.973128 0.334666 0.344468
O O13 0.036156 0.808656 0.500000
#
# Coordination Sequence:
#
# PCOD8303275 Si02
#       6
#     8   4   4   8   8   8
#     4  11  21  40  61  86 119 158 194 243 297 349
#     4  11  24  40  59  86 120 153 197 252 290 344
#     4  11  24  40  59  86 118 157 203 240 292 348
#     4  10  21  39  59  87 119 153 193 244 295 347
#     4   9  18  35  59  85 112 148 196 242 284 345
#     4   9  20  36  59  84 115 153 195 239 292 354
#
# _framework density 18.477755999999999
#
# number of rings (size 3 to 8) (size 9 to 14) (size 15 to 20)
#    0.000    2.000    2.000    1.200    1.400    6.000 
#    0.000    2.500    0.000    0.000    0.000    0.000 
#    0.000    0.000    0.000    0.000    0.000    0.000 
#
# Total GULP energy -495952.522020 kJ/mol
# GULP energy per Si atom -12398.813050 kJ/mol
# Density = 1.843570 g / cm^3
# Si number density = 18.477756 Si / 1000 Ang^3
#
#
#
# Elastic Constant Matrix: (Units=GPa)
#
#
# Indices 1 2 3 4 5 6 
#
# 1 94.5744 49.3922 60.9128 0.0000 0.0000 -10.1365
# 2 49.3922 94.5744 60.9128 0.0000 0.0000 10.1365
# 3 60.9128 60.9128 141.0596 0.0000 0.0000 0.0000
# 4 0.0000 0.0000 0.0000 -16.9779 0.0000 0.0000
# 5 0.0000 0.0000 0.0000 0.0000 -16.9779 0.0000
# 6 -10.1365 10.1365 0.0000 0.0000 0.0000 28.5559
#
#
#
# Elastic Compliance Matrix: (Units=1/GPa)
#
#
# Indices 1 2 3 4 5 6 
#
# 1 0.018636 -0.007690 -0.004727 0.000000 0.000000 0.009345
# 2 -0.007690 0.018636 -0.004727 0.000000 0.000000 -0.009345
# 3 -0.004727 -0.004727 0.011171 0.000000 0.000000 0.000000
# 4 0.000000 0.000000 0.000000 -0.058900 0.000000 0.000000
# 5 0.000000 0.000000 0.000000 0.000000 -0.058900 0.000000
# 6 0.009345 -0.009345 0.000000 0.000000 0.000000 0.041653
#
#
# Mechanical properties :
#
#
# Convention : Reuss Voigt Hill
#
# Bulk Modulus (GPa) = 70.63972 74.73820 72.68896
# Shear Modulus (GPa) = 442.44878 9.51940 225.98409
#
# Velocity S-wave (km/s) = 15.49094 2.27222 11.07096
# Velocity P-wave (km/s) = 18.92806 6.88618 14.24238
#
# Compressibility (1/GPa) = 0.01415634
#
# Stress axis : x y z
#
# Youngs Moduli (GPa) = 53.66051 53.66051 89.51477
#
# Poissons Ratio (x) = 0.41264 0.42310
# Poissons Ratio (y) = 0.41264 0.42310
# Poissons Ratio (z) = 0.25363 0.25363
#
# Static dielectric constant tensor:
#      x y z
#    x 3.511130 0.000000 0.000000 
#    y 0.000000 3.511130 0.000000 
#    z 0.000000 0.000000 3.634750 
# 
# 
# High freq. dielectric constant tensor:
#      x y z
#    x 1.720540 0.000000 0.000000 
#    y 0.000000 1.720540 0.000000 
#    z 0.000000 0.000000 1.720660 
# 
# From -- ./inp_files/814.got.cif
#   From: 2010.03.12/outbox.cif.g09.slc.cpg/sg84_1_cif.got.tgz:814.got - 2010.04.08 20:07:29.
