data_PCOD8303302
_publ_section_title
;
Structure prediction by ZEFSAII (Michael W. Deem and Ramdas Pophale) SiO2 
 PCOD8303302
Probable space group: P 42/M
;
_chemical_formula_sum "Si O2"
_cell_formula_units_Z 40
_cell_length_a 14.269267
_cell_length_b 14.269267
_cell_length_c 8.766741
_cell_angle_alpha 90.000000
_cell_angle_beta 90.000000
_cell_angle_gamma 90.000000
_cell_volume 1785.013499
_symmetry_space_group_name_H-M "P 42/M"
_symmetry_group_IT_number 84
_symmetry_cell_setting 'tetragonal'
loop_
_space_group_symop_operation_xyz
x,y,z
-y,x,1/2+z
-x,-y,z
y,-x,1/2+z
-x,-y,-z
y,-x,1/2-z
x,y,-z
-y,x,1/2-z
loop_
_atom_site_type_symbol
_atom_site_label
_atom_site_fract_x
_atom_site_fract_y
_atom_site_fract_z
Si Si1 0.235849 0.338610 0.828092
Si Si2 0.422852 0.605196 0.828507
Si Si3 0.971799 0.136967 0.180342
Si Si4 0.293518 0.136448 0.174470
Si Si5 0.488843 0.106338 0.321718
O O1 0.314900 0.348620 0.699741
O O2 0.222461 0.226567 0.817223
O O3 0.152030 0.409292 0.782527
O O4 0.269216 0.363389 0.000000
O O5 0.506735 0.625109 0.710334
O O6 0.460515 0.604863 0.000000
O O7 0.944209 0.243148 0.226065
O O8 0.066205 0.110441 0.269765
O O9 0.989465 0.131091 0.000000
O O10 0.399966 0.153850 0.235734
O O11 0.302189 0.103539 0.000000
O O12 0.466725 0.113590 0.500000
O O13 0.500000 0.000000 0.266641
#
# Coordination Sequence:
#
# PCOD8303302 Si02
#       5
#     8   8   8   8   8
#     4  10  22  40  61  88 125 166 214 266 322 390
#     4  11  21  34  55  82 114 152 198 252 314 375
#     4  11  23  42  68  99 134 173 220 279 340 405
#     4  11  24  41  65  99 135 178 224 278 340 405
#     4  10  23  43  66  93 128 177 225 276 340 405
#
# _framework density 22.408795000000001
#
# number of rings (size 3 to 8) (size 9 to 14) (size 15 to 20)
#    0.000    1.400    0.000    6.600    2.800    6.000 
#    0.000    0.000    0.000    0.000    0.000    0.000 
#    0.000    0.000    0.000    0.000    0.000    0.000 
#
# Total GULP energy -495672.777811 kJ/mol
# GULP energy per Si atom -12391.819445 kJ/mol
# Density = 2.235779 g / cm^3
# Si number density = 22.408795 Si / 1000 Ang^3
#
#
#
# Elastic Constant Matrix: (Units=GPa)
#
#
# Indices 1 2 3 4 5 6 
#
# 1 -269.8479 354.4441 15.0345 0.0000 0.0000 114.1601
# 2 354.4441 -269.8479 15.0345 0.0000 0.0000 -114.1601
# 3 15.0345 15.0345 99.6920 0.0000 0.0000 0.0000
# 4 0.0000 0.0000 0.0000 31.3129 0.0000 0.0000
# 5 0.0000 0.0000 0.0000 0.0000 31.3129 0.0000
# 6 114.1601 -114.1601 0.0000 0.0000 0.0000 9.6484
#
#
#
# Elastic Compliance Matrix: (Units=1/GPa)
#
#
# Indices 1 2 3 4 5 6 
#
# 1 0.006095 0.006396 -0.001884 0.000000 0.000000 0.003558
# 2 0.006396 0.006095 -0.001884 0.000000 0.000000 -0.003558
# 3 -0.001884 -0.001884 0.010599 0.000000 0.000000 0.000000
# 4 0.000000 0.000000 0.000000 0.031936 0.000000 0.000000
# 5 0.000000 0.000000 0.000000 0.000000 0.031936 0.000000
# 6 0.003558 -0.003558 0.000000 0.000000 0.000000 0.019455
#
#
# Mechanical properties :
#
#
# Convention : Reuss Voigt Hill
#
# Bulk Modulus (GPa) = 35.65678 36.55804 36.10741
# Shear Modulus (GPa) = 45.36897 -40.51295 2.42801
#
# Velocity S-wave (km/s) = 4.50444 -4.25656 1.04205
# Velocity P-wave (km/s) = 6.55743 2.79431 4.19474
#
# Compressibility (1/GPa) = 0.02804516
#
# Stress axis : x y z
#
# Youngs Moduli (GPa) = 164.07268 164.07268 94.34812
#
# Poissons Ratio (x) = -1.04933 0.17772
# Poissons Ratio (y) = -1.04933 0.17772
# Poissons Ratio (z) = 0.30906 0.30906
#
# Static dielectric constant tensor:
#      x y z
#    x 3.981820 0.000000 0.000000 
#    y 0.000000 3.981820 0.000000 
#    z 0.000000 0.000000 3.965170 
# 
# 
# High freq. dielectric constant tensor:
#      x y z
#    x 1.880050 0.000000 0.000000 
#    y 0.000000 1.880050 0.000000 
#    z 0.000000 0.000000 1.880970 
# 
# From -- ./inp_files/768.got.cif
#   From: 2010.03.12/outbox.cif.g09.slc.cpg/sg84_1_cif.got.tgz:768.got - 2010.04.08 20:07:29.
