data_PCOD8303556
_publ_section_title
;
Structure prediction by ZEFSAII (Michael W. Deem and Ramdas Pophale) SiO2 
 PCOD8303556
Probable space group: P 42/N
;
_chemical_formula_sum "Si O2"
_cell_formula_units_Z 22
_cell_length_a 8.488897
_cell_length_b 8.488897
_cell_length_c 13.165633
_cell_angle_alpha 90.000000
_cell_angle_beta 90.000000
_cell_angle_gamma 90.000000
_cell_volume 948.733581
_symmetry_space_group_name_H-M "P 42/N"
_symmetry_group_IT_number 86
_space_group.IT_coordinate_system_code '2'
_symmetry_cell_setting 'tetragonal'
loop_
_space_group_symop_operation_xyz
x,y,z
-y,1/2+x,1/2+z
1/2-x,1/2-y,z
1/2+y,-x,1/2+z
-x,-y,-z
y,1/2-x,1/2-z
1/2+x,1/2+y,-z
1/2-y,x,1/2-z
loop_
_atom_site_type_symbol
_atom_site_label
_atom_site_fract_x
_atom_site_fract_y
_atom_site_fract_z
Si Si1 0.250000 0.750000 0.435306
Si Si2 0.584073 0.290600 0.371894
Si Si3 0.477028 0.963598 0.312451
Si Si4 0.750000 0.750000 0.250000
O O1 0.380760 0.665674 0.509761
O O2 0.332390 0.879106 0.366682
O O3 0.750000 0.250000 0.316247
O O4 0.507861 0.433511 0.307239
O O5 0.483063 0.130677 0.368142
O O6 0.640734 0.864845 0.319323
#
# Coordination Sequence:
#
# PCOD8303556 Si02
#       4
#     4   8   8   2
#     4  10  20  42  66  94 132 164 220 270 318 390
#     4  10  23  39  65  94 127 171 214 262 327 369
#     4  12  21  43  63  95 135 169 217 269 315 396
#     4  12  20  36  68  88 124 186 208 256 332 376
#
# _framework density 23.188804999999999
#
# number of rings (size 3 to 8) (size 9 to 14) (size 15 to 20)
#    1.091    0.000    5.455    1.091    0.000    0.727 
#    0.000   20.000    0.000    0.000    0.000    0.000 
#    0.000    0.000    0.000    0.000    0.000    0.000 
#
# Total GULP energy -272558.982340 kJ/mol
# GULP energy per Si atom -12389.044652 kJ/mol
# Density = 2.313603 g / cm^3
# Si number density = 23.188805 Si / 1000 Ang^3
#
#
#
# Elastic Constant Matrix: (Units=GPa)
#
#
# Indices 1 2 3 4 5 6 
#
# 1 72.4981 33.0154 14.4384 0.0000 0.0000 -1.2669
# 2 33.0154 72.4981 14.4384 0.0000 0.0000 1.2669
# 3 14.4384 14.4384 89.2548 0.0000 0.0000 0.0000
# 4 0.0000 0.0000 0.0000 15.6936 0.0000 0.0000
# 5 0.0000 0.0000 0.0000 0.0000 15.6936 0.0000
# 6 -1.2669 1.2669 0.0000 0.0000 0.0000 41.1123
#
#
#
# Elastic Compliance Matrix: (Units=1/GPa)
#
#
# Indices 1 2 3 4 5 6 
#
# 1 0.017647 -0.007731 -0.001604 0.000000 0.000000 0.000782
# 2 -0.007731 0.017647 -0.001604 0.000000 0.000000 -0.000782
# 3 -0.001604 -0.001604 0.011723 0.000000 0.000000 0.000000
# 4 0.000000 0.000000 0.000000 0.063720 0.000000 0.000000
# 5 0.000000 0.000000 0.000000 0.000000 0.063720 0.000000
# 6 0.000782 -0.000782 0.000000 0.000000 0.000000 0.024372
#
#
# Mechanical properties :
#
#
# Convention : Reuss Voigt Hill
#
# Bulk Modulus (GPa) = 39.77847 39.78172 39.78010
# Shear Modulus (GPa) = 21.82576 25.99048 23.90812
#
# Velocity S-wave (km/s) = 3.07126 3.35150 3.21443
# Velocity P-wave (km/s) = 5.45603 5.67182 5.56497
#
# Compressibility (1/GPa) = 0.02513923
#
# Stress axis : x y z
#
# Youngs Moduli (GPa) = 56.66650 56.66650 85.30335
#
# Poissons Ratio (x) = 0.43807 0.13684
# Poissons Ratio (y) = 0.43807 0.13684
# Poissons Ratio (z) = 0.09090 0.09090
#
# Static dielectric constant tensor:
#      x y z
#    x 3.948270 0.000000 0.000000 
#    y 0.000000 3.948270 0.000000 
#    z 0.000000 0.000000 4.049300 
# 
# 
# High freq. dielectric constant tensor:
#      x y z
#    x 1.902950 0.000000 0.000000 
#    y 0.000000 1.902950 0.000000 
#    z 0.000000 0.000000 1.911540 
# 
# From -- ./inp_files/1685.got.cif
#   From: 2010.03.12/outbox.cif.g09.slc.cpg/sg86_1_cif.got.tgz:1685.got - 2010.04.08 20:12:58.
