data_PCOD8303844
_publ_section_title
;
Structure prediction by ZEFSAII (Michael W. Deem and Ramdas Pophale) SiO2 
 PCOD8303844
Probable space group: I 4/M
;
_chemical_formula_sum "Si O2"
_cell_formula_units_Z 112
_cell_length_a 14.870785
_cell_length_b 14.870785
_cell_length_c 23.878355
_cell_angle_alpha 90.000000
_cell_angle_beta 90.000000
_cell_angle_gamma 90.000000
_cell_volume 5280.465311
_symmetry_space_group_name_H-M "I 4/M"
_symmetry_group_IT_number 87
_symmetry_cell_setting 'tetragonal'
loop_
_space_group_symop_operation_xyz
x,y,z
-y,x,z
-x,-y,z
y,-x,z
-x,-y,-z
y,-x,-z
x,y,-z
-y,x,-z
1/2+x,1/2+y,1/2+z
1/2-y,1/2+x,1/2+z
1/2-x,1/2-y,1/2+z
1/2+y,1/2-x,1/2+z
1/2-x,1/2-y,1/2-z
1/2+y,1/2-x,1/2-z
1/2+x,1/2+y,1/2-z
1/2-y,1/2+x,1/2-z
loop_
_atom_site_type_symbol
_atom_site_label
_atom_site_fract_x
_atom_site_fract_y
_atom_site_fract_z
Si Si1 0.647941 0.756671 0.838530
Si Si2 0.070551 0.131044 0.251894
Si Si3 0.574468 0.086814 0.715922
Si Si4 0.938757 0.635965 0.563362
Si Si5 0.383138 0.410436 0.437413
Si Si6 0.960218 0.611530 0.107075
Si Si7 0.727520 0.346341 0.647346
O O1 0.591822 0.674335 0.812413
O O2 0.651825 0.842152 0.795800
O O3 0.603615 0.786078 0.897441
O O4 0.750868 0.724328 0.843026
O O5 0.105829 0.198697 0.204498
O O6 0.963990 0.120233 0.245633
O O7 0.513249 0.115885 0.769420
O O8 0.508221 0.079566 0.663621
O O9 0.943223 0.673425 0.500000
O O10 0.879499 0.543576 0.563258
O O11 0.038212 0.612022 0.586135
O O12 0.484384 0.376641 0.427007
O O13 0.351549 0.385559 0.500000
O O14 0.323622 0.358724 0.391778
O O15 0.910902 0.705910 0.113476
#
# Coordination Sequence:
#
# PCOD8303844 Si02
#       7
#    16  16  16  16  16  16  16
#     4  11  26  40  66  95 128 165 216 268 318 381
#     4  11  27  46  67  90 127 175 215 265 322 379
#     4  10  19  35  61  91 123 168 208 256 320 389
#     4  10  22  43  67  94 129 171 214 266 328 386
#     4   9  20  38  60  86 125 176 215 250 302 369
#     4  10  22  37  62  96 129 168 204 260 328 385
#     4  12  25  39  63 102 129 169 210 265 317 381
#
# _framework density 21.210251
#
# number of rings (size 3 to 8) (size 9 to 14) (size 15 to 20)
#    0.000    1.571    0.000    6.857   12.000    2.857 
#    0.000    0.000    0.000    0.000    0.000    1.000 
#    0.000    0.000    0.000    0.000    0.000    0.000 
#
# Total GULP energy -694080.053021 kJ/mol
# GULP energy per Si atom -12394.286661 kJ/mol
# Density = 2.116198 g / cm^3
# Si number density = 21.210251 Si / 1000 Ang^3
#
#
#
# Elastic Constant Matrix: (Units=GPa)
#
#
# Indices 1 2 3 4 5 6 
#
# 1 65.5513 20.4158 30.3752 0.0000 0.0000 3.4224
# 2 20.4158 65.5513 30.3752 0.0000 0.0000 -3.4224
# 3 30.3752 30.3752 114.1336 0.0000 0.0000 0.0000
# 4 0.0000 0.0000 0.0000 20.4795 0.0000 0.0000
# 5 0.0000 0.0000 0.0000 0.0000 20.4795 0.0000
# 6 3.4224 -3.4224 0.0000 0.0000 0.0000 27.1865
#
#
#
# Elastic Compliance Matrix: (Units=1/GPa)
#
#
# Indices 1 2 3 4 5 6 
#
# 1 0.018457 -0.004130 -0.003813 0.000000 0.000000 -0.002843
# 2 -0.004130 0.018457 -0.003813 0.000000 0.000000 0.002843
# 3 -0.003813 -0.003813 0.010791 0.000000 0.000000 0.000000
# 4 0.000000 0.000000 0.000000 0.048829 0.000000 0.000000
# 5 0.000000 0.000000 0.000000 0.000000 0.048829 0.000000
# 6 -0.002843 0.002843 0.000000 0.000000 0.000000 0.037499
#
#
# Mechanical properties :
#
#
# Convention : Reuss Voigt Hill
#
# Bulk Modulus (GPa) = 41.33392 45.28541 43.30967
# Shear Modulus (GPa) = 23.31677 24.56711 23.94194
#
# Velocity S-wave (km/s) = 3.31919 3.40702 3.36339
# Velocity P-wave (km/s) = 5.84973 6.07241 5.96211
#
# Compressibility (1/GPa) = 0.02419320
#
# Stress axis : x y z
#
# Youngs Moduli (GPa) = 54.18073 54.18073 92.66839
#
# Poissons Ratio (x) = 0.22376 0.35334
# Poissons Ratio (y) = 0.22376 0.35334
# Poissons Ratio (z) = 0.20659 0.20659
#
# Static dielectric constant tensor:
#      x y z
#    x 3.753530 0.000000 0.000000 
#    y 0.000000 3.753530 0.000000 
#    z 0.000000 0.000000 3.999250 
# 
# 
# High freq. dielectric constant tensor:
#      x y z
#    x 1.819250 0.000000 0.000000 
#    y 0.000000 1.819250 0.000000 
#    z 0.000000 0.000000 1.831900 
# 
# From -- ./inp_files/5865.got.cif
#   From: 2010.03.12/outbox.cif.g09.slc.cpg/sg87_3_cif.got.tgz:5865.got - 2010.04.08 20:16:13.
