data_PCOD8303946
_publ_section_title
;
Structure prediction by ZEFSAII (Michael W. Deem and Ramdas Pophale) SiO2 
 PCOD8303946
Probable space group: I 4/M
;
_chemical_formula_sum "Si O2"
_cell_formula_units_Z 72
_cell_length_a 18.512963
_cell_length_b 18.512963
_cell_length_c 10.370149
_cell_angle_alpha 90.000000
_cell_angle_beta 90.000000
_cell_angle_gamma 90.000000
_cell_volume 3554.159083
_symmetry_space_group_name_H-M "I 4/M"
_symmetry_group_IT_number 87
_symmetry_cell_setting 'tetragonal'
loop_
_space_group_symop_operation_xyz
x,y,z
-y,x,z
-x,-y,z
y,-x,z
-x,-y,-z
y,-x,-z
x,y,-z
-y,x,-z
1/2+x,1/2+y,1/2+z
1/2-y,1/2+x,1/2+z
1/2-x,1/2-y,1/2+z
1/2+y,1/2-x,1/2+z
1/2-x,1/2-y,1/2-z
1/2+y,1/2-x,1/2-z
1/2+x,1/2+y,1/2-z
1/2-y,1/2+x,1/2-z
loop_
_atom_site_type_symbol
_atom_site_label
_atom_site_fract_x
_atom_site_fract_y
_atom_site_fract_z
Si Si1 0.299378 0.329947 0.643211
Si Si2 0.566854 0.312633 0.000000
Si Si3 0.060582 0.898090 0.243657
Si Si4 0.311939 0.853493 0.740278
Si Si5 0.457487 0.194586 0.000000
Si Si6 0.842287 0.613348 0.000000
O O1 0.294606 0.296734 0.500000
O O2 0.344850 0.404292 0.638603
O O3 0.219870 0.349940 0.692783
O O4 0.338813 0.272727 0.736161
O O5 0.580323 0.365051 0.118837
O O6 0.486055 0.277769 0.000000
O O7 0.624656 0.245857 0.000000
O O8 0.975459 0.902409 0.225118
O O9 0.320840 0.913278 0.630101
O O10 0.350864 0.877966 0.872820
O O11 0.527198 0.141221 0.000000
#
# Coordination Sequence:
#
# PCOD8303946 Si02
#       6
#    16   8  16  16   8   8
#     4  11  22  35  60  92 128 180 228 279 331 389
#     4  10  20  39  62  96 128 173 220 273 316 400
#     4  11  23  38  57  88 136 185 227 266 315 389
#     4  11  21  40  64  97 130 168 226 287 338 393
#     4  10  22  39  71  98 125 168 213 285 339 406
#     4  10  22  41  65 100 130 161 219 275 340 416
#
# _framework density 20.257956
#
# number of rings (size 3 to 8) (size 9 to 14) (size 15 to 20)
#    0.667    0.667    4.444    2.000    0.000    2.667 
#    0.000    2.222    0.000    2.000    0.000    0.000 
#    0.000    0.000    0.000    0.000    0.000    0.000 
#
# Total GULP energy -446321.963091 kJ/mol
# GULP energy per Si atom -12397.832308 kJ/mol
# Density = 2.021185 g / cm^3
# Si number density = 20.257956 Si / 1000 Ang^3
#
#
#
# Elastic Constant Matrix: (Units=GPa)
#
#
# Indices 1 2 3 4 5 6 
#
# 1 82.0663 43.5529 43.2079 0.0000 0.0000 0.9840
# 2 43.5529 82.0663 43.2079 0.0000 0.0000 -0.9840
# 3 43.2079 43.2079 138.4923 0.0000 0.0000 0.0000
# 4 0.0000 0.0000 0.0000 33.0108 0.0000 0.0000
# 5 0.0000 0.0000 0.0000 0.0000 33.0108 0.0000
# 6 0.9840 -0.9840 0.0000 0.0000 0.0000 26.9765
#
#
#
# Elastic Compliance Matrix: (Units=1/GPa)
#
#
# Indices 1 2 3 4 5 6 
#
# 1 0.018075 -0.007939 -0.003162 0.000000 0.000000 -0.000949
# 2 -0.007939 0.018075 -0.003162 0.000000 0.000000 0.000949
# 3 -0.003162 -0.003162 0.009194 0.000000 0.000000 0.000000
# 4 0.000000 0.000000 0.000000 0.030293 0.000000 0.000000
# 5 0.000000 0.000000 0.000000 0.000000 0.030293 0.000000
# 6 -0.000949 0.000949 0.000000 0.000000 0.000000 0.037138
#
#
# Mechanical properties :
#
#
# Convention : Reuss Voigt Hill
#
# Bulk Modulus (GPa) = 59.46519 62.50693 60.98606
# Shear Modulus (GPa) = 28.21665 30.11002 29.16334
#
# Velocity S-wave (km/s) = 3.73616 3.85948 3.79832
# Velocity P-wave (km/s) = 6.93034 7.12624 7.02897
#
# Compressibility (1/GPa) = 0.01681656
#
# Stress axis : x y z
#
# Youngs Moduli (GPa) = 55.32586 55.32586 108.76879
#
# Poissons Ratio (x) = 0.43922 0.34396
# Poissons Ratio (y) = 0.43922 0.34396
# Poissons Ratio (z) = 0.17496 0.17496
#
# Static dielectric constant tensor:
#      x y z
#    x 3.518620 0.000000 0.000000 
#    y 0.000000 3.518620 0.000000 
#    z 0.000000 0.000000 3.658180 
# 
# 
# High freq. dielectric constant tensor:
#      x y z
#    x 1.775240 0.000000 0.000000 
#    y 0.000000 1.775240 0.000000 
#    z 0.000000 0.000000 1.800940 
# 
# From -- ./inp_files/1125.got.cif
#   From: 2010.03.12/outbox.cif.g09.slc.cpg/sg87_1_cif.got.tgz:1125.got - 2010.04.08 20:16:13.
