data_PCOD8303010
_publ_section_title
;
Structure prediction by ZEFSAII (Michael W. Deem and Ramdas Pophale) SiO2 
 PCOD8303010
Probable space group: P 4/M
;
_chemical_formula_sum "Si O2"
_cell_formula_units_Z 49
_cell_length_a 8.434193
_cell_length_b 8.434193
_cell_length_c 31.849939
_cell_angle_alpha 90.000000
_cell_angle_beta 90.000000
_cell_angle_gamma 90.000000
_cell_volume 2265.664889
_symmetry_space_group_name_H-M "P 4/M"
_symmetry_group_IT_number 83
_symmetry_cell_setting 'tetragonal'
loop_
_space_group_symop_operation_xyz
x,y,z
-y,x,z
-x,-y,z
y,-x,z
-x,-y,-z
y,-x,-z
x,y,-z
-y,x,-z
loop_
_atom_site_type_symbol
_atom_site_label
_atom_site_fract_x
_atom_site_fract_y
_atom_site_fract_z
Si Si1 0.431909 0.174130 0.500000
Si Si2 0.750405 0.569867 0.047094
Si Si3 0.749474 0.919270 0.175680
Si Si4 0.738177 0.392377 0.250474
Si Si5 0.500000 0.000000 0.889119
Si Si6 0.500000 0.500000 0.500000
Si Si7 0.127751 0.774569 0.422232
Si Si8 0.873057 0.228545 0.672331
O O1 0.563297 0.316068 0.500000
O O2 0.340507 0.200028 0.456285
O O3 0.500000 0.000000 0.500000
O O4 0.609122 0.692056 0.054040
O O5 0.885631 0.604941 0.081198
O O6 0.819160 0.589378 0.000000
O O7 0.663684 0.877353 0.219292
O O8 0.898364 0.802254 0.172483
O O9 0.620995 0.894717 0.138753
O O10 0.706915 0.577586 0.243035
O O11 0.800974 0.362237 0.297459
O O12 0.160690 0.712537 0.375029
O O13 0.941281 0.787959 0.429290
O O14 0.060223 0.210955 0.680635
#
# Coordination Sequence:
#
# PCOD8303010 Si02
#       8
#     4   8   8   8   4   1   8   8
#     4  12  24  43  64  91 136 174 216 262 336 388
#     4   9  19  36  58  86 122 163 205 249 301 362
#     4  11  24  40  60  86 119 158 202 254 312 375
#     4  11  24  42  60  87 120 159 204 254 313 370
#     4  12  21  36  60  90 120 156 206 257 310 358
#     4  12  28  44  60 104 132 172 220 292 316 400
#     4   9  18  37  65  93 123 167 216 260 312 384
#     4   9  19  38  63  91 121 156 206 256 308 372
#
# _framework density 21.627206999999999
#
# number of rings (size 3 to 8) (size 9 to 14) (size 15 to 20)
#    0.000    1.796    0.000    6.122    0.000    3.918 
#    8.816    1.633    0.000    0.000    0.000    6.857 
#    0.000    0.000    0.000    0.000    0.000    0.000 
#
# Total GULP energy -607090.730883 kJ/mol
# GULP energy per Si atom -12389.606753 kJ/mol
# Density = 2.157798 g / cm^3
# Si number density = 21.627207 Si / 1000 Ang^3
#
#
#
# Elastic Constant Matrix: (Units=GPa)
#
#
# Indices 1 2 3 4 5 6 
#
# 1 83.9372 28.0400 48.8187 0.0000 0.0000 -3.9373
# 2 28.0400 83.9372 48.8187 0.0000 0.0000 3.9373
# 3 48.8187 48.8187 151.0883 0.0000 0.0000 0.0000
# 4 0.0000 0.0000 0.0000 28.8362 0.0000 0.0000
# 5 0.0000 0.0000 0.0000 0.0000 28.8362 0.0000
# 6 -3.9373 3.9373 0.0000 0.0000 0.0000 31.0661
#
#
#
# Elastic Compliance Matrix: (Units=1/GPa)
#
#
# Indices 1 2 3 4 5 6 
#
# 1 0.015324 -0.002891 -0.004017 0.000000 0.000000 0.002309
# 2 -0.002891 0.015324 -0.004017 0.000000 0.000000 -0.002309
# 3 -0.004017 -0.004017 0.009215 0.000000 0.000000 0.000000
# 4 0.000000 0.000000 0.000000 0.034679 0.000000 0.000000
# 5 0.000000 0.000000 0.000000 0.000000 0.034679 0.000000
# 6 0.002309 -0.002309 0.000000 0.000000 0.000000 0.032775
#
#
# Mechanical properties :
#
#
# Convention : Reuss Voigt Hill
#
# Bulk Modulus (GPa) = 55.51884 63.36859 59.44372
# Shear Modulus (GPa) = 29.43766 30.63339 30.03553
#
# Velocity S-wave (km/s) = 3.69337 3.76763 3.73068
# Velocity P-wave (km/s) = 6.62680 6.94915 6.78989
#
# Compressibility (1/GPa) = 0.01801190
#
# Stress axis : x y z
#
# Youngs Moduli (GPa) = 65.25608 65.25608 108.52135
#
# Poissons Ratio (x) = 0.18865 0.43597
# Poissons Ratio (y) = 0.18865 0.43597
# Poissons Ratio (z) = 0.26216 0.26216
#
# Static dielectric constant tensor:
#      x y z
#    x 3.876390 0.000000 0.000000 
#    y 0.000000 3.876390 0.000000 
#    z 0.000000 0.000000 3.994890 
# 
# 
# High freq. dielectric constant tensor:
#      x y z
#    x 1.847240 0.000000 0.000000 
#    y 0.000000 1.847240 0.000000 
#    z 0.000000 0.000000 1.856040 
# 
# From -- ./inp_files/3512.got.cif
#   From: 2010.03.12/outbox.cif.g09.slc.cpg/sg83_2_cif.got.tgz:3512.got - 2010.04.08 20:05:18.
