data_PCOD8303307
_publ_section_title
;
Structure prediction by ZEFSAII (Michael W. Deem and Ramdas Pophale) SiO2 
 PCOD8303307
Probable space group: P 42/M
;
_chemical_formula_sum "Si O2"
_cell_formula_units_Z 64
_cell_length_a 12.218569
_cell_length_b 12.218569
_cell_length_c 21.651346
_cell_angle_alpha 90.000000
_cell_angle_beta 90.000000
_cell_angle_gamma 90.000000
_cell_volume 3232.403674
_symmetry_space_group_name_H-M "P 42/M"
_symmetry_group_IT_number 84
_symmetry_cell_setting 'tetragonal'
loop_
_space_group_symop_operation_xyz
x,y,z
-y,x,1/2+z
-x,-y,z
y,-x,1/2+z
-x,-y,-z
y,-x,1/2-z
x,y,-z
-y,x,1/2-z
loop_
_atom_site_type_symbol
_atom_site_label
_atom_site_fract_x
_atom_site_fract_y
_atom_site_fract_z
Si Si1 0.447419 0.802917 0.757000
Si Si2 0.653315 0.699972 0.821880
Si Si3 0.481194 0.374147 0.932315
Si Si4 0.798828 0.962988 0.305291
Si Si5 0.886469 0.740715 0.346647
Si Si6 0.280360 0.685133 0.927200
Si Si7 0.809178 0.898140 0.172397
Si Si8 0.906463 0.429950 0.856332
O O1 0.549598 0.761613 0.795511
O O2 0.387898 0.697310 0.727250
O O3 0.365698 0.867929 0.802836
O O4 0.495421 0.880040 0.703478
O O5 0.619882 0.645444 0.886583
O O6 0.750785 0.783118 0.836018
O O7 0.500000 0.500000 0.942013
O O8 0.594872 0.328942 0.904867
O O9 0.454999 0.321784 0.000000
O O10 0.861886 0.848826 0.307161
O O11 0.773395 0.968795 0.232882
O O12 0.685328 0.962580 0.341465
O O13 0.875501 0.060937 0.331082
O O14 0.807324 0.746960 0.405790
O O15 0.010382 0.758624 0.374792
O O16 0.203015 0.592748 0.895902
O O17 0.266234 0.672804 0.000000
O O18 0.000000 0.500000 0.892976
#
# Coordination Sequence:
#
# PCOD8303307 Si02
#       8
#     8   8   8   8   8   8   8   8
#     4  12  23  37  57  94 133 161 192 255 324 380
#     4  12  24  36  58  90 129 159 201 251 308 376
#     4  10  22  41  63  84 116 166 213 251 300 371
#     4  11  21  35  56  86 124 163 198 245 307 389
#     4  11  22  38  61  90 121 160 208 253 313 367
#     4  10  22  43  62  85 121 166 217 258 303 372
#     4  12  21  37  58  89 122 162 204 250 313 378
#     4  11  22  37  58  89 127 159 202 258 314 370
#
# _framework density 19.799509
#
# number of rings (size 3 to 8) (size 9 to 14) (size 15 to 20)
#    0.000    0.875    5.000    3.375    1.750    0.250 
#    0.000    0.625    0.000   13.500    0.000    0.000 
#    0.000    0.000    0.000    0.000    0.000    0.000 
#
# Total GULP energy -793073.717350 kJ/mol
# GULP energy per Si atom -12391.776834 kJ/mol
# Density = 1.975444 g / cm^3
# Si number density = 19.799509 Si / 1000 Ang^3
#
#
#
# Elastic Constant Matrix: (Units=GPa)
#
#
# Indices 1 2 3 4 5 6 
#
# 1 82.8511 17.1408 12.5784 0.0000 0.0000 0.1987
# 2 17.1408 82.8511 12.5784 0.0000 0.0000 -0.1987
# 3 12.5784 12.5784 44.7716 0.0000 0.0000 0.0000
# 4 0.0000 0.0000 0.0000 21.1558 0.0000 0.0000
# 5 0.0000 0.0000 0.0000 0.0000 21.1558 0.0000
# 6 0.1987 -0.1987 0.0000 0.0000 0.0000 36.7282
#
#
#
# Elastic Compliance Matrix: (Units=1/GPa)
#
#
# Indices 1 2 3 4 5 6 
#
# 1 0.012990 -0.002229 -0.003023 0.000000 0.000000 -0.000082
# 2 -0.002229 0.012990 -0.003023 0.000000 0.000000 0.000082
# 3 -0.003023 -0.003023 0.024034 0.000000 0.000000 0.000000
# 4 0.000000 0.000000 0.000000 0.047268 0.000000 0.000000
# 5 0.000000 0.000000 0.000000 0.000000 0.047268 0.000000
# 6 -0.000082 0.000082 0.000000 0.000000 0.000000 0.027228
#
#
# Mechanical properties :
#
#
# Convention : Reuss Voigt Hill
#
# Bulk Modulus (GPa) = 29.88305 32.78543 31.33424
# Shear Modulus (GPa) = 25.06460 27.01974 26.04217
#
# Velocity S-wave (km/s) = 3.56184 3.69815 3.63063
# Velocity P-wave (km/s) = 5.66049 5.90167 5.78234
#
# Compressibility (1/GPa) = 0.03346378
#
# Stress axis : x y z
#
# Youngs Moduli (GPa) = 76.98151 76.98151 41.60708
#
# Poissons Ratio (x) = 0.17157 0.12579
# Poissons Ratio (y) = 0.17157 0.12579
# Poissons Ratio (z) = 0.23274 0.23274
#
# Static dielectric constant tensor:
#      x y z
#    x 4.385010 0.000000 0.000000 
#    y 0.000000 4.385010 0.000000 
#    z 0.000000 0.000000 3.421760 
# 
# 
# High freq. dielectric constant tensor:
#      x y z
#    x 1.789340 0.000000 0.000000 
#    y 0.000000 1.789340 0.000000 
#    z 0.000000 0.000000 1.729740 
# 
# From -- ./inp_files/5102.got.cif
#   From: 2010.03.12/outbox.cif.g09.slc.cpg/sg84_3_cif.got.tgz:5102.got - 2010.04.08 20:07:29.
