data_PCOD8303511
_publ_section_title
;
Structure prediction by ZEFSAII (Michael W. Deem and Ramdas Pophale) SiO2 
 PCOD8303511
Probable space group: P 42/N
;
_chemical_formula_sum "Si O2"
_cell_formula_units_Z 64
_cell_length_a 11.678253
_cell_length_b 11.678253
_cell_length_c 22.281292
_cell_angle_alpha 90.000000
_cell_angle_beta 90.000000
_cell_angle_gamma 90.000000
_cell_volume 3038.758100
_symmetry_space_group_name_H-M "P 42/N"
_symmetry_group_IT_number 86
_space_group.IT_coordinate_system_code '2'
_symmetry_cell_setting 'tetragonal'
loop_
_space_group_symop_operation_xyz
x,y,z
-y,1/2+x,1/2+z
1/2-x,1/2-y,z
1/2+y,-x,1/2+z
-x,-y,-z
y,1/2-x,1/2-z
1/2+x,1/2+y,-z
1/2-y,x,1/2-z
loop_
_atom_site_type_symbol
_atom_site_label
_atom_site_fract_x
_atom_site_fract_y
_atom_site_fract_z
Si Si1 0.377616 0.776652 0.244271
Si Si2 0.441561 0.791482 0.557422
Si Si3 0.183750 0.368641 0.415687
Si Si4 0.981882 0.801067 0.042584
Si Si5 0.308077 0.914056 0.355542
Si Si6 0.811496 0.997803 0.072692
Si Si7 0.386065 0.558274 0.624386
Si Si8 0.446932 0.625610 0.342014
O O1 0.250000 0.750000 0.222868
O O2 0.371314 0.878057 0.294026
O O3 0.444396 0.812965 0.185223
O O4 0.444834 0.665410 0.271918
O O5 0.548719 0.849379 0.589819
O O6 0.484014 0.751146 0.491828
O O7 0.402132 0.684444 0.597289
O O8 0.342922 0.886457 0.549024
O O9 0.250000 0.250000 0.411853
O O10 0.220352 0.439232 0.475135
O O11 0.213919 0.448761 0.358421
O O12 0.977588 0.679558 0.076786
O O13 0.897168 0.891120 0.073517
O O14 0.387625 0.882553 0.412043
O O15 0.184481 0.853735 0.362818
O O16 0.712624 0.973461 0.120771
O O17 0.507690 0.501768 0.643947
#
# Coordination Sequence:
#
# PCOD8303511 Si02
#       8
#     8   8   8   8   8   8   8   8
#     4   9  21  44  64  85 119 172 221 264 317 393
#     4  11  22  40  61  94 132 169 217 262 321 399
#     4  11  22  38  64  96 133 170 213 274 338 384
#     4  11  23  38  61  95 134 172 208 257 324 408
#     4  10  19  42  67  86 121 169 221 263 314 400
#     4  10  20  39  64  91 126 176 211 251 331 390
#     4  12  26  40  63 101 130 166 220 277 331 378
#     4  10  24  39  64  95 122 162 217 268 321 387
#
# _framework density 21.061236999999998
#
# number of rings (size 3 to 8) (size 9 to 14) (size 15 to 20)
#    0.000    1.500    2.500    3.750    5.250    3.500 
#    4.500    0.000    0.000    0.000    0.000    0.000 
#    0.000    0.000    0.000    0.000    0.000    0.000 
#
# Total GULP energy -793284.603568 kJ/mol
# GULP energy per Si atom -12395.071931 kJ/mol
# Density = 2.101330 g / cm^3
# Si number density = 21.061237 Si / 1000 Ang^3
#
#
#
# Elastic Constant Matrix: (Units=GPa)
#
#
# Indices 1 2 3 4 5 6 
#
# 1 77.8290 8.7363 23.5457 0.0000 0.0000 6.6724
# 2 8.7363 77.8290 23.5457 0.0000 0.0000 -6.6724
# 3 23.5457 23.5457 59.9017 0.0000 0.0000 0.0000
# 4 0.0000 0.0000 0.0000 22.2383 0.0000 0.0000
# 5 0.0000 0.0000 0.0000 0.0000 22.2383 0.0000
# 6 6.6724 -6.6724 0.0000 0.0000 0.0000 35.6184
#
#
#
# Elastic Compliance Matrix: (Units=1/GPa)
#
#
# Indices 1 2 3 4 5 6 
#
# 1 0.014855 -0.000161 -0.005776 0.000000 0.000000 -0.002813
# 2 -0.000161 0.014855 -0.005776 0.000000 0.000000 0.002813
# 3 -0.005776 -0.005776 0.021235 0.000000 0.000000 0.000000
# 4 0.000000 0.000000 0.000000 0.044967 0.000000 0.000000
# 5 0.000000 0.000000 0.000000 0.000000 0.044967 0.000000
# 6 -0.002813 0.002813 0.000000 0.000000 0.000000 0.029129
#
#
# Mechanical properties :
#
#
# Convention : Reuss Voigt Hill
#
# Bulk Modulus (GPa) = 36.33800 36.35726 36.34763
# Shear Modulus (GPa) = 24.67813 26.66780 25.67296
#
# Velocity S-wave (km/s) = 3.42677 3.56223 3.49516
# Velocity P-wave (km/s) = 5.74003 5.84974 5.79515
#
# Compressibility (1/GPa) = 0.02751940
#
# Stress axis : x y z
#
# Youngs Moduli (GPa) = 67.31591 67.31591 47.09286
#
# Poissons Ratio (x) = 0.01086 0.27200
# Poissons Ratio (y) = 0.01086 0.27200
# Poissons Ratio (z) = 0.38880 0.38880
#
# Static dielectric constant tensor:
#      x y z
#    x 3.797640 0.000000 0.000000 
#    y 0.000000 3.797640 0.000000 
#    z 0.000000 0.000000 3.683690 
# 
# 
# High freq. dielectric constant tensor:
#      x y z
#    x 1.823850 0.000000 0.000000 
#    y 0.000000 1.823850 0.000000 
#    z 0.000000 0.000000 1.811540 
# 
# From -- ./inp_files/4680.got.cif
#   From: 2010.03.12/outbox.cif.g09.slc.cpg/sg86_3_cif.got.tgz:4680.got - 2010.04.08 20:12:58.
