data_PCOD8303063
_publ_section_title
;
Structure prediction by ZEFSAII (Michael W. Deem and Ramdas Pophale) SiO2 
 PCOD8303063
Probable space group: P 42/M
;
_chemical_formula_sum "Si O2"
_cell_formula_units_Z 44
_cell_length_a 10.852236
_cell_length_b 10.852236
_cell_length_c 22.362541
_cell_angle_alpha 90.000000
_cell_angle_beta 90.000000
_cell_angle_gamma 90.000000
_cell_volume 2633.659402
_symmetry_space_group_name_H-M "P 42/M"
_symmetry_group_IT_number 84
_symmetry_cell_setting 'tetragonal'
loop_
_space_group_symop_operation_xyz
x,y,z
-y,x,1/2+z
-x,-y,z
y,-x,1/2+z
-x,-y,-z
y,-x,1/2-z
x,y,-z
-y,x,1/2-z
loop_
_atom_site_type_symbol
_atom_site_label
_atom_site_fract_x
_atom_site_fract_y
_atom_site_fract_z
Si Si1 0.873777 0.279068 0.777314
Si Si2 0.881257 0.076440 0.677149
Si Si3 0.500000 0.000000 0.233125
Si Si4 0.145184 0.529173 0.564932
Si Si5 0.154255 0.330796 0.350406
Si Si6 0.049580 0.783358 0.569743
O O1 0.870002 0.202831 0.715088
O O2 0.749499 0.255946 0.815683
O O3 0.992852 0.238339 0.815140
O O4 0.892001 0.427110 0.769214
O O5 0.892051 0.103586 0.606219
O O6 0.000000 0.000000 0.699608
O O7 0.388318 0.941721 0.196070
O O8 0.199482 0.494936 0.500000
O O9 0.217083 0.446147 0.614006
O O10 0.151946 0.674870 0.576412
O O11 0.000000 0.500000 0.567636
O O12 0.080879 0.247401 0.398400
O O13 0.026572 0.815953 0.500000
#
# Coordination Sequence:
#
# PCOD8303063 Si02
#       6
#     8   8   4   8   8   8
#     4  12  21  31  50  72 103 138 172 203 255 317
#     4  12  17  31  45  70 107 136 161 198 255 321
#     4  12  20  32  51  76  99 140 172 204 256 310
#     4   8  14  26  42  66  96 125 161 202 245 290
#     4  11  17  30  48  71 100 134 164 208 253 306
#     4  10  18  27  46  76 106 133 164 208 257 309
#
# _framework density 16.706792
#
# number of rings (size 3 to 8) (size 9 to 14) (size 15 to 20)
#    0.000    1.273   10.000    1.636    0.000    0.364 
#    0.000    0.000    0.000    0.545    0.000    5.727 
#    0.000    2.909    0.000    0.000    0.000    0.000 
#
# Total GULP energy -545094.991471 kJ/mol
# GULP energy per Si atom -12388.522533 kJ/mol
# Density = 1.666877 g / cm^3
# Si number density = 16.706792 Si / 1000 Ang^3
#
#
#
# Elastic Constant Matrix: (Units=GPa)
#
#
# Indices 1 2 3 4 5 6 
#
# 1 50.0953 18.1721 31.1426 0.0000 0.0000 -2.5511
# 2 18.1721 50.0953 31.1426 0.0000 0.0000 2.5511
# 3 31.1426 31.1426 109.4105 0.0000 0.0000 0.0000
# 4 0.0000 0.0000 0.0000 14.2063 0.0000 0.0000
# 5 0.0000 0.0000 0.0000 0.0000 14.2063 0.0000
# 6 -2.5511 2.5511 0.0000 0.0000 0.0000 20.5258
#
#
#
# Elastic Compliance Matrix: (Units=1/GPa)
#
#
# Indices 1 2 3 4 5 6 
#
# 1 0.025873 -0.006087 -0.005632 0.000000 0.000000 0.003972
# 2 -0.006087 0.025873 -0.005632 0.000000 0.000000 -0.003972
# 3 -0.005632 -0.005632 0.012346 0.000000 0.000000 0.000000
# 4 0.000000 0.000000 0.000000 0.070391 0.000000 0.000000
# 5 0.000000 0.000000 0.000000 0.000000 0.070391 0.000000
# 6 0.003972 -0.003972 0.000000 0.000000 0.000000 0.049707
#
#
# Mechanical properties :
#
#
# Convention : Reuss Voigt Hill
#
# Bulk Modulus (GPa) = 34.02360 41.16840 37.59600
# Shear Modulus (GPa) = 16.71790 18.39729 17.55759
#
# Velocity S-wave (km/s) = 3.16676 3.32201 3.24531
# Velocity P-wave (km/s) = 5.81210 6.27770 6.04938
#
# Compressibility (1/GPa) = 0.02939137
#
# Stress axis : x y z
#
# Youngs Moduli (GPa) = 38.64967 38.64967 80.99692
#
# Poissons Ratio (x) = 0.23524 0.45619
# Poissons Ratio (y) = 0.23524 0.45619
# Poissons Ratio (z) = 0.21768 0.21768
#
# Static dielectric constant tensor:
#      x y z
#    x 3.006260 0.000000 0.000000 
#    y 0.000000 3.006260 0.000000 
#    z 0.000000 0.000000 3.399060 
# 
# 
# High freq. dielectric constant tensor:
#      x y z
#    x 1.604310 0.000000 0.000000 
#    y 0.000000 1.604310 0.000000 
#    z 0.000000 0.000000 1.653680 
# 
# From -- ./inp_files/4358.got.cif
#   From: 2010.03.12/outbox.cif.g09.slc.cpg/sg84_3_cif.got.tgz:4358.got - 2010.04.08 20:07:29.
