data_PCOD8303743
_publ_section_title
;
Structure prediction by ZEFSAII (Michael W. Deem and Ramdas Pophale) SiO2 
 PCOD8303743
Probable space group: I 4/M
;
_chemical_formula_sum "Si O2"
_cell_formula_units_Z 80
_cell_length_a 14.578210
_cell_length_b 14.578210
_cell_length_c 18.509912
_cell_angle_alpha 90.000000
_cell_angle_beta 90.000000
_cell_angle_gamma 90.000000
_cell_volume 3933.804366
_symmetry_space_group_name_H-M "I 4/M"
_symmetry_group_IT_number 87
_symmetry_cell_setting 'tetragonal'
loop_
_space_group_symop_operation_xyz
x,y,z
-y,x,z
-x,-y,z
y,-x,z
-x,-y,-z
y,-x,-z
x,y,-z
-y,x,-z
1/2+x,1/2+y,1/2+z
1/2-y,1/2+x,1/2+z
1/2-x,1/2-y,1/2+z
1/2+y,1/2-x,1/2+z
1/2-x,1/2-y,1/2-z
1/2+y,1/2-x,1/2-z
1/2+x,1/2+y,1/2-z
1/2-y,1/2+x,1/2-z
loop_
_atom_site_type_symbol
_atom_site_label
_atom_site_fract_x
_atom_site_fract_y
_atom_site_fract_z
Si Si1 0.777954 0.685024 0.081873
Si Si2 0.005672 0.608132 0.579441
Si Si3 0.879821 0.911007 0.672142
Si Si4 0.836350 0.789045 0.209264
Si Si5 0.951906 0.637636 0.729124
O O1 0.859836 0.611000 0.084641
O O2 0.687291 0.642083 0.117865
O O3 0.814186 0.777193 0.123892
O O4 0.755118 0.713978 0.000000
O O5 0.965528 0.632918 0.500000
O O6 0.944865 0.654942 0.642329
O O7 0.000000 0.500000 0.593990
O O8 0.854579 0.890400 0.757363
O O9 0.981676 0.873285 0.656750
O O10 0.750000 0.750000 0.250000
O O11 0.925587 0.729420 0.229776
O O12 0.884106 0.557108 0.753151
#
# Coordination Sequence:
#
# PCOD8303743 Si02
#       5
#    16  16  16  16  16
#     4  10  20  36  57  85 121 155 190 246 312 369
#     4  10  18  30  50  84 120 151 185 230 293 365
#     4  10  22  39  60  86 114 158 213 256 296 350
#     4  10  21  35  55  81 112 150 199 245 293 354
#     4  11  18  31  54  82 109 150 192 240 301 362
#
# _framework density 20.336548000000001
#
# number of rings (size 3 to 8) (size 9 to 14) (size 15 to 20)
#    0.000    1.800    4.000    1.200    2.800    0.800 
#    0.000    7.000    0.000    1.200    0.000    1.400 
#    0.000    0.000    0.000    0.000    0.000    0.000 
#
# Total GULP energy -495576.926403 kJ/mol
# GULP energy per Si atom -12389.423160 kJ/mol
# Density = 2.029026 g / cm^3
# Si number density = 20.336548 Si / 1000 Ang^3
#
#
#
# Elastic Constant Matrix: (Units=GPa)
#
#
# Indices 1 2 3 4 5 6 
#
# 1 52.1072 9.6829 32.9014 0.0000 0.0000 -7.6404
# 2 9.6829 52.1072 32.9014 0.0000 0.0000 7.6404
# 3 32.9014 32.9014 184.2882 0.0000 0.0000 0.0000
# 4 0.0000 0.0000 0.0000 22.0548 0.0000 0.0000
# 5 0.0000 0.0000 0.0000 0.0000 22.0548 0.0000
# 6 -7.6404 7.6404 0.0000 0.0000 0.0000 21.3517
#
#
#
# Elastic Compliance Matrix: (Units=1/GPa)
#
#
# Indices 1 2 3 4 5 6 
#
# 1 0.023521 -0.003538 -0.003568 0.000000 0.000000 0.009683
# 2 -0.003538 0.023521 -0.003568 0.000000 0.000000 -0.009683
# 3 -0.003568 -0.003568 0.006700 0.000000 0.000000 0.000000
# 4 0.000000 0.000000 0.000000 0.045342 0.000000 0.000000
# 5 0.000000 0.000000 0.000000 0.000000 0.045342 0.000000
# 6 0.009683 -0.009683 0.000000 0.000000 0.000000 0.053764
#
#
# Mechanical properties :
#
#
# Convention : Reuss Voigt Hill
#
# Bulk Modulus (GPa) = 30.86815 48.83045 39.84930
# Shear Modulus (GPa) = 21.70752 27.29338 24.50045
#
# Velocity S-wave (km/s) = 3.27067 3.66742 3.47472
# Velocity P-wave (km/s) = 5.42906 6.48048 5.97793
#
# Compressibility (1/GPa) = 0.03239585
#
# Stress axis : x y z
#
# Youngs Moduli (GPa) = 42.51511 42.51511 149.25030
#
# Poissons Ratio (x) = 0.15042 0.53247
# Poissons Ratio (y) = 0.15042 0.53247
# Poissons Ratio (z) = 0.15168 0.15168
#
# Static dielectric constant tensor:
#      x y z
#    x 3.541070 0.000000 0.000000 
#    y 0.000000 3.541070 0.000000 
#    z 0.000000 0.000000 4.246950 
# 
# 
# High freq. dielectric constant tensor:
#      x y z
#    x 1.781410 0.000000 0.000000 
#    y 0.000000 1.781410 0.000000 
#    z 0.000000 0.000000 1.794440 
# 
# From -- ./inp_files/5063.got.cif
#   From: 2010.03.12/outbox.cif.g09.slc.cpg/sg87_3_cif.got.tgz:5063.got - 2010.04.08 20:16:13.
