data_PCOD8303446
_publ_section_title
;
Structure prediction by ZEFSAII (Michael W. Deem and Ramdas Pophale) SiO2 
 PCOD8303446
Probable space group: P 4/N
;
_chemical_formula_sum "Si O2"
_cell_formula_units_Z 64
_cell_length_a 11.458401
_cell_length_b 11.458401
_cell_length_c 24.320982
_cell_angle_alpha 90.000000
_cell_angle_beta 90.000000
_cell_angle_gamma 90.000000
_cell_volume 3193.222200
_symmetry_space_group_name_H-M "P 4/N"
_symmetry_group_IT_number 85
_symmetry_cell_setting 'tetragonal'
loop_
_space_group_symop_operation_xyz
x,y,z
1/2-y,x,z
1/2-x,1/2-y,z
y,1/2-x,z
-x,-y,-z
1/2+y,-x,-z
1/2+x,1/2+y,-z
-y,1/2+x,-z
loop_
_atom_site_type_symbol
_atom_site_label
_atom_site_fract_x
_atom_site_fract_y
_atom_site_fract_z
Si Si1 0.938630 0.782571 0.885232
Si Si2 0.742084 0.941525 0.503493
Si Si3 0.056195 0.262730 0.614859
Si Si4 0.780977 0.937144 0.108080
Si Si5 0.150001 0.654881 0.184086
Si Si6 0.942418 0.778335 0.622120
Si Si7 0.750641 0.436964 0.997622
Si Si8 0.352879 0.840570 0.308036
O O1 0.844190 0.883695 0.877588
O O2 0.034649 0.798977 0.838652
O O3 0.992172 0.796730 0.945609
O O4 0.631512 0.859081 0.503339
O O5 0.751641 0.010023 0.445232
O O6 0.727046 0.008354 0.561827
O O7 0.127770 0.143123 0.621552
O O8 0.958982 0.279543 0.660468
O O9 0.654977 0.882696 0.119866
O O10 0.797955 0.044311 0.148257
O O11 0.790598 0.975092 0.044723
O O12 0.250000 0.750000 0.181253
O O13 0.105823 0.633125 0.246073
O O14 0.846617 0.880312 0.629270
O O15 0.039932 0.804758 0.666624
O O16 0.855958 0.357541 0.020856
O O17 0.250000 0.750000 0.307730
#
# Coordination Sequence:
#
# PCOD8303446 Si02
#       8
#     8   8   8   8   8   8   8   8
#     4  11  25  43  67  99 127 162 215 265 311 374
#     4   7  12  30  59  88 118 156 199 249 312 376
#     4   9  19  39  65  90 122 164 209 256 316 379
#     4  11  25  43  67  99 127 162 215 265 311 374
#     4  11  26  46  65  85 127 173 208 261 323 372
#     4   9  19  39  65  90 122 164 209 256 316 379
#     4  11  22  37  66 102 136 169 201 248 322 380
#     4  11  26  42  59  91 127 163 212 264 312 366
#
# _framework density 20.042449999999999
#
# number of rings (size 3 to 8) (size 9 to 14) (size 15 to 20)
#    0.000    2.000    1.250    3.000    5.250    4.000 
#    2.250    4.375    0.000    0.000    0.000    0.000 
#    0.000    0.000    0.000    0.000    0.000    0.000 
#
# Total GULP energy -793182.424740 kJ/mol
# GULP energy per Si atom -12393.475387 kJ/mol
# Density = 1.999683 g / cm^3
# Si number density = 20.042450 Si / 1000 Ang^3
#
#
#
# Elastic Constant Matrix: (Units=GPa)
#
#
# Indices 1 2 3 4 5 6 
#
# 1 66.4810 9.3371 13.8734 0.0000 0.0000 -0.6825
# 2 9.3371 66.4810 13.8734 0.0000 0.0000 0.6825
# 3 13.8734 13.8734 97.0262 0.0000 0.0000 0.0000
# 4 0.0000 0.0000 0.0000 10.4803 0.0000 0.0000
# 5 0.0000 0.0000 0.0000 0.0000 10.4803 0.0000
# 6 -0.6825 0.6825 0.0000 0.0000 0.0000 18.7342
#
#
#
# Elastic Compliance Matrix: (Units=1/GPa)
#
#
# Indices 1 2 3 4 5 6 
#
# 1 0.015716 -0.001799 -0.001990 0.000000 0.000000 0.000638
# 2 -0.001799 0.015716 -0.001990 0.000000 0.000000 -0.000638
# 3 -0.001990 -0.001990 0.010876 0.000000 0.000000 0.000000
# 4 0.000000 0.000000 0.000000 0.095417 0.000000 0.000000
# 5 0.000000 0.000000 0.000000 0.000000 0.095417 0.000000
# 6 0.000638 -0.000638 0.000000 0.000000 0.000000 0.053425
#
#
# Mechanical properties :
#
#
# Convention : Reuss Voigt Hill
#
# Bulk Modulus (GPa) = 32.51933 33.79508 33.15721
# Shear Modulus (GPa) = 16.21400 20.79924 18.50662
#
# Velocity S-wave (km/s) = 2.84735 3.22492 3.04200
# Velocity P-wave (km/s) = 5.20291 5.54664 5.37752
#
# Compressibility (1/GPa) = 0.03075094
#
# Stress axis : x y z
#
# Youngs Moduli (GPa) = 63.62806 63.62806 91.94908
#
# Poissons Ratio (x) = 0.11444 0.18298
# Poissons Ratio (y) = 0.11444 0.18298
# Poissons Ratio (z) = 0.12662 0.12662
#
# Static dielectric constant tensor:
#      x y z
#    x 3.631100 0.000000 0.000000 
#    y 0.000000 3.631100 0.000000 
#    z 0.000000 0.000000 3.979430 
# 
# 
# High freq. dielectric constant tensor:
#      x y z
#    x 1.779000 0.000000 0.000000 
#    y 0.000000 1.779000 0.000000 
#    z 0.000000 0.000000 1.789270 
# 
# From -- ./inp_files/2358.got.cif
#   From: 2010.03.12/outbox.cif.g09.slc.cpg/sg85_cif.got.tgz:2358.got - 2010.04.08 20:10:46.
