data_PCOD8303273
_publ_section_title
;
Structure prediction by ZEFSAII (Michael W. Deem and Ramdas Pophale) SiO2 
 PCOD8303273
Probable space group: P 42/M
;
_chemical_formula_sum "Si O2"
_cell_formula_units_Z 34
_cell_length_a 11.612298
_cell_length_b 11.612298
_cell_length_c 12.552720
_cell_angle_alpha 90.000000
_cell_angle_beta 90.000000
_cell_angle_gamma 90.000000
_cell_volume 1692.677363
_symmetry_space_group_name_H-M "P 42/M"
_symmetry_group_IT_number 84
_symmetry_cell_setting 'tetragonal'
loop_
_space_group_symop_operation_xyz
x,y,z
-y,x,1/2+z
-x,-y,z
y,-x,1/2+z
-x,-y,-z
y,-x,1/2-z
x,y,-z
-y,x,1/2-z
loop_
_atom_site_type_symbol
_atom_site_label
_atom_site_fract_x
_atom_site_fract_y
_atom_site_fract_z
Si Si1 0.242936 0.378840 0.230383
Si Si2 0.817742 0.847532 0.126110
Si Si3 0.449032 0.376846 0.618608
Si Si4 0.000000 0.000000 0.750000
Si Si5 0.446519 0.122052 0.114764
O O1 0.164090 0.273727 0.189064
O O2 0.289807 0.443215 0.125450
O O3 0.349425 0.334338 0.301667
O O4 0.178635 0.475298 0.297012
O O5 0.686938 0.887370 0.149493
O O6 0.842758 0.834519 0.000000
O O7 0.905346 0.940414 0.174492
O O8 0.500000 0.500000 0.651796
O O9 0.398333 0.376489 0.500000
O O10 0.500000 0.000000 0.094699
O O11 0.451838 0.188980 0.000000
#
# Coordination Sequence:
#
# PCOD8303273 Si02
#       5
#     8   8   8   2   8
#     4  12  19  37  60  90 130 171 200 259 319 383
#     4  11  24  43  68  95 127 170 219 275 332 392
#     4  11  20  32  54  91 131 169 204 237 297 383
#     4  12  26  48  72  90 120 168 226 292 340 394
#     4  10  21  38  62  91 125 166 215 263 315 380
#
# _framework density 20.086521999999999
#
# number of rings (size 3 to 8) (size 9 to 14) (size 15 to 20)
#    0.000    0.941    4.706    3.176    0.000    3.765 
#    0.000    3.529    0.000    2.824    0.000    0.000 
#    0.000    0.000    0.000    0.000    0.000    0.000 
#
# Total GULP energy -421318.285265 kJ/mol
# GULP energy per Si atom -12391.714273 kJ/mol
# Density = 2.004080 g / cm^3
# Si number density = 20.086522 Si / 1000 Ang^3
#
#
#
# Elastic Constant Matrix: (Units=GPa)
#
#
# Indices 1 2 3 4 5 6 
#
# 1 109.3275 54.5455 56.6040 0.0000 0.0000 0.2542
# 2 54.5455 109.3275 56.6040 0.0000 0.0000 -0.2542
# 3 56.6040 56.6040 128.5135 0.0000 0.0000 0.0000
# 4 0.0000 0.0000 0.0000 37.0792 0.0000 0.0000
# 5 0.0000 0.0000 0.0000 0.0000 37.0792 0.0000
# 6 0.2542 -0.2542 0.0000 0.0000 0.0000 45.6067
#
#
#
# Elastic Compliance Matrix: (Units=1/GPa)
#
#
# Indices 1 2 3 4 5 6 
#
# 1 0.013513 -0.004742 -0.003863 0.000000 0.000000 -0.000102
# 2 -0.004742 0.013513 -0.003863 0.000000 0.000000 0.000102
# 3 -0.003863 -0.003863 0.011184 0.000000 0.000000 0.000000
# 4 0.000000 0.000000 0.000000 0.026969 0.000000 0.000000
# 5 0.000000 0.000000 0.000000 0.000000 0.026969 0.000000
# 6 -0.000102 0.000102 0.000000 0.000000 0.000000 0.021928
#
#
# Mechanical properties :
#
#
# Convention : Reuss Voigt Hill
#
# Bulk Modulus (GPa) = 75.33714 75.85285 75.59499
# Shear Modulus (GPa) = 34.85813 35.91403 35.38608
#
# Velocity S-wave (km/s) = 4.17033 4.23302 4.20179
# Velocity P-wave (km/s) = 7.79594 7.85725 7.82665
#
# Compressibility (1/GPa) = 0.01327367
#
# Stress axis : x y z
#
# Youngs Moduli (GPa) = 74.00210 74.00210 89.40985
#
# Poissons Ratio (x) = 0.35092 0.34541
# Poissons Ratio (y) = 0.35092 0.34541
# Poissons Ratio (z) = 0.28589 0.28589
#
# Static dielectric constant tensor:
#      x y z
#    x 3.344990 0.000000 0.000000 
#    y 0.000000 3.344990 0.000000 
#    z 0.000000 0.000000 10.620980 
# 
# 
# High freq. dielectric constant tensor:
#      x y z
#    x 1.776680 0.000000 0.000000 
#    y 0.000000 1.776680 0.000000 
#    z 0.000000 0.000000 1.798460 
# 
# From -- ./inp_files/1875.got.cif
#   From: 2010.03.12/outbox.cif.g09.slc.cpg/sg84_1_cif.got.tgz:1875.got - 2010.04.08 20:07:29.
