data_PCOD8303775
_publ_section_title
;
Structure prediction by ZEFSAII (Michael W. Deem and Ramdas Pophale) SiO2 
 PCOD8303775
Probable space group: I 4/M
;
_chemical_formula_sum "Si O2"
_cell_formula_units_Z 96
_cell_length_a 26.989819
_cell_length_b 26.989819
_cell_length_c 8.837978
_cell_angle_alpha 90.000000
_cell_angle_beta 90.000000
_cell_angle_gamma 90.000000
_cell_volume 6438.027988
_symmetry_space_group_name_H-M "I 4/M"
_symmetry_group_IT_number 87
_symmetry_cell_setting 'tetragonal'
loop_
_space_group_symop_operation_xyz
x,y,z
-y,x,z
-x,-y,z
y,-x,z
-x,-y,-z
y,-x,-z
x,y,-z
-y,x,-z
1/2+x,1/2+y,1/2+z
1/2-y,1/2+x,1/2+z
1/2-x,1/2-y,1/2+z
1/2+y,1/2-x,1/2+z
1/2-x,1/2-y,1/2-z
1/2+y,1/2-x,1/2-z
1/2+x,1/2+y,1/2-z
1/2-y,1/2+x,1/2-z
loop_
_atom_site_type_symbol
_atom_site_label
_atom_site_fract_x
_atom_site_fract_y
_atom_site_fract_z
Si Si1 0.325591 0.250591 0.668669
Si Si2 0.981942 0.431919 0.325785
Si Si3 0.998450 0.663330 0.172602
Si Si4 0.825161 0.392827 0.177261
Si Si5 0.604009 0.195380 0.671441
Si Si6 0.764291 0.824691 0.667528
O O1 0.348104 0.256997 0.500000
O O2 0.365313 0.225758 0.780482
O O3 0.277405 0.216880 0.660960
O O4 0.310342 0.304505 0.733396
O O5 0.970110 0.443586 0.500000
O O6 0.945733 0.461561 0.214705
O O7 0.976473 0.375254 0.287181
O O8 0.944785 0.678498 0.232708
O O9 0.044053 0.702245 0.179084
O O10 0.991975 0.644064 0.000000
O O11 0.872416 0.358184 0.226388
O O12 0.826870 0.405222 0.000000
O O13 0.622936 0.201019 0.500000
O O14 0.625147 0.241392 0.764949
O O15 0.784064 0.836694 0.500000
#
# Coordination Sequence:
#
# PCOD8303775 Si02
#       6
#    16  16  16  16  16  16
#     4   9  16  27  43  62  83 104 127 159 201 246
#     4  11  21  33  46  58  72  94 128 170 213 252
#     4  11  21  32  44  59  80 106 136 169 208 250
#     4  10  19  31  45  61  81 106 138 174 211 248
#     4   9  19  32  44  58  79 106 135 169 208 250
#     4   9  16  26  43  64  82 100 126 161 200 243
#
# _framework density 14.911398999999999
#
# number of rings (size 3 to 8) (size 9 to 14) (size 15 to 20)
#    0.000    2.167    0.000    5.000    0.000    7.333 
#    0.000    0.000    0.000    0.000    0.000    0.000 
#    0.000    0.000    0.000    0.000    0.000    0.833 
#
# Total GULP energy -594685.747541 kJ/mol
# GULP energy per Si atom -12389.286407 kJ/mol
# Density = 1.487746 g / cm^3
# Si number density = 14.911399 Si / 1000 Ang^3
#
#
#
# Elastic Constant Matrix: (Units=GPa)
#
#
# Indices 1 2 3 4 5 6 
#
# 1 46.6284 29.0203 22.8029 0.0000 0.0000 20.4435
# 2 29.0203 46.6284 22.8029 0.0000 0.0000 -20.4435
# 3 22.8029 22.8029 82.3859 0.0000 0.0000 0.0000
# 4 0.0000 0.0000 0.0000 22.2516 0.0000 0.0000
# 5 0.0000 0.0000 0.0000 0.0000 22.2516 0.0000
# 6 20.4435 -20.4435 0.0000 0.0000 0.0000 715.1951
#
#
#
# Elastic Compliance Matrix: (Units=1/GPa)
#
#
# Indices 1 2 3 4 5 6 
#
# 1 0.038348 -0.022482 -0.004392 0.000000 0.000000 -0.001739
# 2 -0.022482 0.038348 -0.004392 0.000000 0.000000 0.001739
# 3 -0.004392 -0.004392 0.014569 0.000000 0.000000 0.000000
# 4 0.000000 0.000000 0.000000 0.044941 0.000000 0.000000
# 5 0.000000 0.000000 0.000000 0.000000 0.044941 0.000000
# 6 -0.001739 0.001739 0.000000 0.000000 0.000000 0.001498
#
#
# Mechanical properties :
#
#
# Convention : Reuss Voigt Hill
#
# Bulk Modulus (GPa) = 34.79980 36.09943 35.44962
# Shear Modulus (GPa) = 19.62691 158.67408 89.15049
#
# Velocity S-wave (km/s) = 3.63193 10.32677 7.74058
# Velocity P-wave (km/s) = 6.40127 12.90161 10.18400
#
# Compressibility (1/GPa) = 0.02873579
#
# Stress axis : x y z
#
# Youngs Moduli (GPa) = 26.07688 26.07688 68.63880
#
# Poissons Ratio (x) = 0.58625 0.30143
# Poissons Ratio (y) = 0.58625 0.30143
# Poissons Ratio (z) = 0.11452 0.11452
#
# Static dielectric constant tensor:
#      x y z
#    x 2.715210 0.000000 0.000000 
#    y 0.000000 2.715210 0.000000 
#    z 0.000000 0.000000 3.465790 
# 
# 
# High freq. dielectric constant tensor:
#      x y z
#    x 1.533250 0.000000 0.000000 
#    y 0.000000 1.533250 0.000000 
#    z 0.000000 0.000000 1.591100 
# 
# From -- ./inp_files/1529.got.cif
#   From: 2010.03.12/outbox.cif.g09.slc.cpg/sg87_1_cif.got.tgz:1529.got - 2010.04.08 20:16:13.
