data_PCOD8303288
_publ_section_title
;
Structure prediction by ZEFSAII (Michael W. Deem and Ramdas Pophale) SiO2 
 PCOD8303288
Probable space group: P 42/M
;
_chemical_formula_sum "Si O2"
_cell_formula_units_Z 18
_cell_length_a 5.372303
_cell_length_b 5.372303
_cell_length_c 23.840244
_cell_angle_alpha 90.000000
_cell_angle_beta 90.000000
_cell_angle_gamma 90.000000
_cell_volume 688.068528
_symmetry_space_group_name_H-M "P 42/M"
_symmetry_group_IT_number 84
_symmetry_cell_setting 'tetragonal'
loop_
_space_group_symop_operation_xyz
x,y,z
-y,x,1/2+z
-x,-y,z
y,-x,1/2+z
-x,-y,-z
y,-x,1/2-z
x,y,-z
-y,x,1/2-z
loop_
_atom_site_type_symbol
_atom_site_label
_atom_site_fract_x
_atom_site_fract_y
_atom_site_fract_z
Si Si1 0.657630 0.749764 0.561757
Si Si2 0.248809 0.864797 0.821435
Si Si3 0.500000 0.500000 0.250000
O O1 0.500000 0.500000 0.570529
O O2 0.786628 0.742742 0.500000
O O3 0.859161 0.760142 0.610888
O O4 0.500000 0.000000 0.567495
O O5 0.275686 0.596695 0.790867
O O6 0.500000 0.000000 0.802386
O O7 0.000000 0.000000 0.799284
#
# Coordination Sequence:
#
# PCOD8303288 Si02
#       3
#     8   8   2
#     4  10  21  43  74 108 151 196 249 325 403 480
#     4  12  29  48  79 112 151 207 265 328 405 479
#     4  12  32  52  70 108 164 200 268 338 388 484
#
# _framework density 26.160188000000002
#
# number of rings (size 3 to 8) (size 9 to 14) (size 15 to 20)
#    0.000    0.889    2.222    2.667    6.222    1.778 
#    0.000    0.000    0.000    0.000    0.000    0.000 
#    0.000    0.000    0.000    0.000    0.000    0.000 
#
# Total GULP energy -223102.566870 kJ/mol
# GULP energy per Si atom -12394.587048 kJ/mol
# Density = 2.610065 g / cm^3
# Si number density = 26.160188 Si / 1000 Ang^3
#
#
#
# Elastic Constant Matrix: (Units=GPa)
#
#
# Indices 1 2 3 4 5 6 
#
# 1 157.0952 51.9975 41.7743 0.0000 0.0000 -1.4894
# 2 51.9975 157.0952 41.7743 0.0000 0.0000 1.4894
# 3 41.7743 41.7743 184.3912 0.0000 0.0000 0.0000
# 4 0.0000 0.0000 0.0000 -3.4333 0.0000 0.0000
# 5 0.0000 0.0000 0.0000 0.0000 -3.4333 0.0000
# 6 -1.4894 1.4894 0.0000 0.0000 0.0000 49.7902
#
#
#
# Elastic Compliance Matrix: (Units=1/GPa)
#
#
# Indices 1 2 3 4 5 6 
#
# 1 0.007391 -0.002132 -0.001191 0.000000 0.000000 0.000285
# 2 -0.002132 0.007391 -0.001191 0.000000 0.000000 -0.000285
# 3 -0.001191 -0.001191 0.005963 0.000000 0.000000 0.000000
# 4 0.000000 0.000000 0.000000 -0.291267 0.000000 0.000000
# 5 0.000000 0.000000 0.000000 0.000000 -0.291267 0.000000
# 6 0.000285 -0.000285 0.000000 0.000000 0.000000 0.020101
#
#
# Mechanical properties :
#
#
# Convention : Reuss Voigt Hill
#
# Bulk Modulus (GPa) = 85.36161 85.51930 85.44045
# Shear Modulus (GPa) = -9.45622 32.78709 11.66543
#
# Velocity S-wave (km/s) = -1.90331 3.54407 2.11398
# Velocity P-wave (km/s) = 5.27931 7.03625 6.22012
#
# Compressibility (1/GPa) = 0.01171487
#
# Stress axis : x y z
#
# Youngs Moduli (GPa) = 135.30300 135.30300 167.69911
#
# Poissons Ratio (x) = 0.28849 0.19979
# Poissons Ratio (y) = 0.28849 0.19979
# Poissons Ratio (z) = 0.16119 0.16119
#
# Static dielectric constant tensor:
#      x y z
#    x 4.645760 0.000000 0.000000 
#    y 0.000000 4.645760 0.000000 
#    z 0.000000 0.000000 5.158840 
# 
# 
# High freq. dielectric constant tensor:
#      x y z
#    x 2.037410 0.000000 0.000000 
#    y 0.000000 2.037410 0.000000 
#    z 0.000000 0.000000 2.085500 
# 
# From -- ./inp_files/4594.got.cif
#   From: 2010.03.12/outbox.cif.g09.slc.cpg/sg84_3_cif.got.tgz:4594.got - 2010.04.08 20:07:29.
