data_PCOD8303092
_publ_section_title
;
Structure prediction by ZEFSAII (Michael W. Deem and Ramdas Pophale) SiO2 
 PCOD8303092
Probable space group: P 42/M
;
_chemical_formula_sum "Si O2"
_cell_formula_units_Z 64
_cell_length_a 21.404676
_cell_length_b 21.404676
_cell_length_c 9.236213
_cell_angle_alpha 90.000000
_cell_angle_beta 90.000000
_cell_angle_gamma 90.000000
_cell_volume 4231.664777
_symmetry_space_group_name_H-M "P 42/M"
_symmetry_group_IT_number 84
_symmetry_cell_setting 'tetragonal'
loop_
_space_group_symop_operation_xyz
x,y,z
-y,x,1/2+z
-x,-y,z
y,-x,1/2+z
-x,-y,-z
y,-x,1/2-z
x,y,-z
-y,x,1/2-z
loop_
_atom_site_type_symbol
_atom_site_label
_atom_site_fract_x
_atom_site_fract_y
_atom_site_fract_z
Si Si1 0.924734 0.836190 0.170121
Si Si2 0.265561 0.158655 0.339653
Si Si3 0.750907 0.334441 0.665811
Si Si4 0.670726 0.562103 0.831684
Si Si5 0.847995 0.744682 0.339684
Si Si6 0.347608 0.748922 0.170368
Si Si7 0.339755 0.561713 0.337107
Si Si8 0.068877 0.837421 0.169573
O O1 0.899370 0.769191 0.226753
O O2 0.890210 0.894515 0.242351
O O3 0.996929 0.841342 0.212578
O O4 0.913654 0.838794 0.000000
O O5 0.294933 0.152548 0.500000
O O6 0.321093 0.179503 0.229659
O O7 0.210528 0.209071 0.338859
O O8 0.232534 0.093743 0.291253
O O9 0.747841 0.310964 0.500000
O O10 0.703249 0.296993 0.763946
O O11 0.729380 0.406746 0.675423
O O12 0.732815 0.586714 0.747747
O O13 0.612170 0.606914 0.800666
O O14 0.653459 0.493555 0.776734
O O15 0.687143 0.559525 0.000000
O O16 0.878191 0.743356 0.500000
O O17 0.820509 0.675605 0.299960
O O18 0.353629 0.736286 0.000000
O O19 0.349257 0.535976 0.500000
O O20 0.080329 0.850371 0.000000
#
# Coordination Sequence:
#
# PCOD8303092 Si02
#       8
#     8   8   8   8   8   8   8   8
#     4  10  19  29  43  60  79 110 146 177 208 241
#     4   8  14  26  42  57  77 105 132 164 210 254
#     4   9  16  26  41  62  83 101 131 172 207 244
#     4  10  20  31  44  62  82 109 146 179 201 234
#     4   8  15  27  42  60  81 104 130 165 210 254
#     4   9  16  27  43  60  80 106 131 162 211 255
#     4   9  19  32  42  57  84 113 138 171 210 239
#     4   9  19  32  41  56  84 112 141 176 211 247
#
# _framework density 15.124071000000001
#
# number of rings (size 3 to 8) (size 9 to 14) (size 15 to 20)
#    0.000    3.000    0.000    3.750    0.000    9.500 
#    0.000    2.500    0.000    0.000    0.000    0.000 
#    0.000    1.000    0.000   11.250    0.000    5.500 
#
# Total GULP energy -792989.205594 kJ/mol
# GULP energy per Si atom -12390.456337 kJ/mol
# Density = 1.508965 g / cm^3
# Si number density = 15.124071 Si / 1000 Ang^3
#
#
#
# Elastic Constant Matrix: (Units=GPa)
#
#
# Indices 1 2 3 4 5 6 
#
# 1 58.2148 57.4298 51.5492 0.0000 0.0000 -0.9932
# 2 57.4298 58.2148 51.5492 0.0000 0.0000 0.9932
# 3 51.5492 51.5492 98.5573 0.0000 0.0000 0.0000
# 4 0.0000 0.0000 0.0000 20.6547 0.0000 0.0000
# 5 0.0000 0.0000 0.0000 0.0000 20.6547 0.0000
# 6 -0.9932 0.9932 0.0000 0.0000 0.0000 14.6318
#
#
#
# Elastic Compliance Matrix: (Units=1/GPa)
#
#
# Indices 1 2 3 4 5 6 
#
# 1 0.777144 -0.760942 -0.008474 0.000000 0.000000 0.104406
# 2 -0.760942 0.777144 -0.008474 0.000000 0.000000 -0.104406
# 3 -0.008474 -0.008474 0.019011 0.000000 0.000000 0.000000
# 4 0.000000 0.000000 0.000000 0.048415 0.000000 0.000000
# 5 0.000000 0.000000 0.000000 0.000000 0.048415 0.000000
# 6 0.104406 -0.104406 0.000000 0.000000 0.000000 0.082519
#
#
# Mechanical properties :
#
#
# Convention : Reuss Voigt Hill
#
# Bulk Modulus (GPa) = 57.08375 59.56039 58.32207
# Shear Modulus (GPa) = 1.50863 14.81882 8.16372
#
# Velocity S-wave (km/s) = 0.99983 3.13360 2.32584
# Velocity P-wave (km/s) = 6.25767 7.24978 6.77192
#
# Compressibility (1/GPa) = 0.01751812
#
# Stress axis : x y z
#
# Youngs Moduli (GPa) = 1.28676 1.28676 52.60053
#
# Poissons Ratio (x) = 0.97915 0.44576
# Poissons Ratio (y) = 0.97915 0.44576
# Poissons Ratio (z) = 0.01090 0.01090
#
# Static dielectric constant tensor:
#      x y z
#    x 3.051500 0.000000 0.000000 
#    y 0.000000 3.051500 0.000000 
#    z 0.000000 0.000000 3.075090 
# 
# 
# High freq. dielectric constant tensor:
#      x y z
#    x 1.550810 0.000000 0.000000 
#    y 0.000000 1.550810 0.000000 
#    z 0.000000 0.000000 1.593170 
# 
# From -- ./inp_files/1410.got.cif
#   From: 2010.03.12/outbox.cif.g09.slc.cpg/sg84_1_cif.got.tgz:1410.got - 2010.04.08 20:07:29.
