data_PCOD8303168
_publ_section_title
;
Structure prediction by ZEFSAII (Michael W. Deem and Ramdas Pophale) SiO2 
 PCOD8303168
Probable space group: P 42/M
;
_chemical_formula_sum "Si O2"
_cell_formula_units_Z 64
_cell_length_a 12.050199
_cell_length_b 12.050199
_cell_length_c 24.167779
_cell_angle_alpha 90.000000
_cell_angle_beta 90.000000
_cell_angle_gamma 90.000000
_cell_volume 3509.337837
_symmetry_space_group_name_H-M "P 42/M"
_symmetry_group_IT_number 84
_symmetry_cell_setting 'tetragonal'
loop_
_space_group_symop_operation_xyz
x,y,z
-y,x,1/2+z
-x,-y,z
y,-x,1/2+z
-x,-y,-z
y,-x,1/2-z
x,y,-z
-y,x,1/2-z
loop_
_atom_site_type_symbol
_atom_site_label
_atom_site_fract_x
_atom_site_fract_y
_atom_site_fract_z
Si Si1 0.569989 0.183278 0.264361
Si Si2 0.122662 0.486220 0.117865
Si Si3 0.266611 0.804493 0.436410
Si Si4 0.874821 0.607256 0.355123
Si Si5 0.127685 0.024414 0.435814
Si Si6 0.807715 0.270341 0.134766
Si Si7 0.882183 0.356638 0.632082
Si Si8 0.220575 0.673207 0.255435
O O1 0.555484 0.107860 0.318874
O O2 0.600717 0.107242 0.211611
O O3 0.664706 0.273083 0.274540
O O4 0.455525 0.249158 0.254868
O O5 0.190893 0.392764 0.085302
O O6 0.183360 0.605073 0.110753
O O7 0.000000 0.500000 0.092321
O O8 0.273307 0.775056 0.500000
O O9 0.195883 0.707654 0.409450
O O10 0.202460 0.917836 0.424862
O O11 0.769520 0.680886 0.372559
O O12 0.849872 0.484748 0.376924
O O13 0.987188 0.658642 0.381187
O O14 0.133246 0.062563 0.500000
O O15 0.180124 0.117196 0.396299
O O16 0.000000 0.000000 0.418884
O O17 0.834199 0.271045 0.200684
O O18 0.865519 0.313089 0.694567
#
# Coordination Sequence:
#
# PCOD8303168 Si02
#       8
#     8   8   8   8   8   8   8   8
#     4   9  18  31  51  82 109 145 185 222 280 341
#     4  11  21  34  57  81 113 151 185 233 286 336
#     4  11  23  38  58  84 112 149 197 238 281 338
#     4   9  20  34  58  82 111 146 188 233 279 346
#     4  10  21  37  58  80 111 151 190 237 284 331
#     4  10  20  36  54  84 113 143 190 232 279 346
#     4  10  19  37  57  80 111 150 187 234 287 336
#     4   9  18  31  53  79 112 146 182 226 283 336
#
# _framework density 18.23706
#
# number of rings (size 3 to 8) (size 9 to 14) (size 15 to 20)
#    0.000    2.125    2.500    0.750    5.250    1.000 
#    0.000    2.500    0.000    0.750    0.000    0.000 
#    0.000    0.000    0.000    0.000    0.000    0.000 
#
# Total GULP energy -793371.953556 kJ/mol
# GULP energy per Si atom -12396.436774 kJ/mol
# Density = 1.819555 g / cm^3
# Si number density = 18.237060 Si / 1000 Ang^3
#
#
#
# Elastic Constant Matrix: (Units=GPa)
#
#
# Indices 1 2 3 4 5 6 
#
# 1 103.2095 57.3936 47.9374 0.0000 0.0000 -0.0410
# 2 57.3936 103.2095 47.9374 0.0000 0.0000 0.0410
# 3 47.9374 47.9374 73.7258 0.0000 0.0000 0.0000
# 4 0.0000 0.0000 0.0000 22.2686 0.0000 0.0000
# 5 0.0000 0.0000 0.0000 0.0000 22.2686 0.0000
# 6 -0.0410 0.0410 0.0000 0.0000 0.0000 33.6836
#
#
#
# Elastic Compliance Matrix: (Units=1/GPa)
#
#
# Indices 1 2 3 4 5 6 
#
# 1 0.016002 -0.005825 -0.006617 0.000000 0.000000 0.000027
# 2 -0.005825 0.016002 -0.006617 0.000000 0.000000 -0.000027
# 3 -0.006617 -0.006617 0.022169 0.000000 0.000000 0.000000
# 4 0.000000 0.000000 0.000000 0.044906 0.000000 0.000000
# 5 0.000000 0.000000 0.000000 0.000000 0.044906 0.000000
# 6 0.000027 -0.000027 0.000000 0.000000 0.000000 0.029688
#
#
# Mechanical properties :
#
#
# Convention : Reuss Voigt Hill
#
# Bulk Modulus (GPa) = 62.28966 65.18686 63.73826
# Shear Modulus (GPa) = 23.02643 24.10258 23.56451
#
# Velocity S-wave (km/s) = 3.55719 3.63936 3.59851
# Velocity P-wave (km/s) = 7.14851 7.31312 7.23128
#
# Compressibility (1/GPa) = 0.01605403
#
# Stress axis : x y z
#
# Youngs Moduli (GPa) = 62.49371 62.49371 45.10870
#
# Poissons Ratio (x) = 0.36402 0.29848
# Poissons Ratio (y) = 0.36402 0.29848
# Poissons Ratio (z) = 0.41352 0.41352
#
# Static dielectric constant tensor:
#      x y z
#    x 3.382090 0.000000 0.000000 
#    y 0.000000 3.382090 0.000000 
#    z 0.000000 0.000000 3.322390 
# 
# 
# High freq. dielectric constant tensor:
#      x y z
#    x 1.706820 0.000000 0.000000 
#    y 0.000000 1.706820 0.000000 
#    z 0.000000 0.000000 1.695270 
# 
# From -- ./inp_files/5099.got.cif
#   From: 2010.03.12/outbox.cif.g09.slc.cpg/sg84_3_cif.got.tgz:5099.got - 2010.04.08 20:07:29.
