data_PCOD8303704
_publ_section_title
;
Structure prediction by ZEFSAII (Michael W. Deem and Ramdas Pophale) SiO2 
 PCOD8303704
Probable space group: P 42/N
;
_chemical_formula_sum "Si O2"
_cell_formula_units_Z 38
_cell_length_a 8.999231
_cell_length_b 8.999231
_cell_length_c 20.434026
_cell_angle_alpha 90.000000
_cell_angle_beta 90.000000
_cell_angle_gamma 90.000000
_cell_volume 1654.873270
_symmetry_space_group_name_H-M "P 42/N"
_symmetry_group_IT_number 86
_space_group.IT_coordinate_system_code '2'
_symmetry_cell_setting 'tetragonal'
loop_
_space_group_symop_operation_xyz
x,y,z
-y,1/2+x,1/2+z
1/2-x,1/2-y,z
1/2+y,-x,1/2+z
-x,-y,-z
y,1/2-x,1/2-z
1/2+x,1/2+y,-z
1/2-y,x,1/2-z
loop_
_atom_site_type_symbol
_atom_site_label
_atom_site_fract_x
_atom_site_fract_y
_atom_site_fract_z
Si Si1 0.879440 0.038218 0.052526
Si Si2 0.007328 0.712971 0.844772
Si Si3 0.954335 0.381232 0.854819
Si Si4 0.750000 0.250000 0.748930
Si Si5 0.250000 0.750000 0.040470
Si Si6 0.750000 0.750000 0.750000
Si Si7 0.750000 0.750000 0.378313
O O1 0.944210 0.158984 0.104367
O O2 0.812810 0.887885 0.080570
O O3 0.752102 0.110480 0.008218
O O4 0.000000 0.000000 0.000000
O O5 0.143695 0.657369 0.799439
O O6 0.950565 0.556211 0.875743
O O7 0.885912 0.788362 0.797932
O O8 0.854929 0.356890 0.791006
O O9 0.893663 0.278762 0.914102
O O10 0.116665 0.318708 0.835806
#
# Coordination Sequence:
#
# PCOD8303704 Si02
#       7
#     8   8   8   4   4   2   4
#     4  12  28  46  75 109 149 191 251 302 369 447
#     4  12  27  48  73 108 146 196 245 310 371 438
#     4  11  26  45  77 104 148 191 245 301 370 442
#     4  11  25  48  70 108 145 189 246 308 376 445
#     4  11  25  50  70 106 151 193 236 304 362 437
#     4  12  28  46  84 104 142 196 256 294 364 444
#     4  12  26  45  73 114 137 193 234 302 370 428
#
# _framework density 22.962482999999999
#
# number of rings (size 3 to 8) (size 9 to 14) (size 15 to 20)
#    0.000    0.421    4.211    3.158    8.842    3.368 
#    0.000    1.053    0.000    0.000    0.000    0.000 
#    0.000    0.000    0.000    0.000    0.000    0.000 
#
# Total GULP energy -470781.161996 kJ/mol
# GULP energy per Si atom -12388.977947 kJ/mol
# Density = 2.291022 g / cm^3
# Si number density = 22.962483 Si / 1000 Ang^3
#
#
#
# Elastic Constant Matrix: (Units=GPa)
#
#
# Indices 1 2 3 4 5 6 
#
# 1 141.5592 38.3972 49.8361 0.0000 0.0000 -11.6021
# 2 38.3972 141.5592 49.8361 0.0000 0.0000 11.6021
# 3 49.8361 49.8361 107.5464 0.0000 0.0000 0.0000
# 4 0.0000 0.0000 0.0000 17.4389 0.0000 0.0000
# 5 0.0000 0.0000 0.0000 0.0000 17.4389 0.0000
# 6 -11.6021 11.6021 0.0000 0.0000 0.0000 42.5658
#
#
#
# Elastic Compliance Matrix: (Units=1/GPa)
#
#
# Indices 1 2 3 4 5 6 
#
# 1 0.008901 -0.001426 -0.003464 0.000000 0.000000 0.002815
# 2 -0.001426 0.008901 -0.003464 0.000000 0.000000 -0.002815
# 3 -0.003464 -0.003464 0.012509 0.000000 0.000000 0.000000
# 4 0.000000 0.000000 0.000000 0.057343 0.000000 0.000000
# 5 0.000000 0.000000 0.000000 0.000000 0.057343 0.000000
# 6 0.002815 -0.002815 0.000000 0.000000 0.000000 0.025027
#
#
# Mechanical properties :
#
#
# Convention : Reuss Voigt Hill
#
# Bulk Modulus (GPa) = 73.51065 74.08928 73.79997
# Shear Modulus (GPa) = 26.14151 32.32841 29.23496
#
# Velocity S-wave (km/s) = 3.37774 3.75624 3.57201
# Velocity P-wave (km/s) = 6.87714 7.15178 7.01580
#
# Compressibility (1/GPa) = 0.01360347
#
# Stress axis : x y z
#
# Youngs Moduli (GPa) = 112.34588 112.34588 79.94376
#
# Poissons Ratio (x) = 0.16015 0.27693
# Poissons Ratio (y) = 0.16015 0.27693
# Poissons Ratio (z) = 0.38918 0.38918
#
# Static dielectric constant tensor:
#      x y z
#    x 2.996500 0.000000 0.000000 
#    y 0.000000 2.996500 0.000000 
#    z 0.000000 0.000000 4.058530 
# 
# 
# High freq. dielectric constant tensor:
#      x y z
#    x 1.920380 0.000000 0.000000 
#    y 0.000000 1.920380 0.000000 
#    z 0.000000 0.000000 1.904520 
# 
# From -- ./inp_files/4580.got.cif
#   From: 2010.03.12/outbox.cif.g09.slc.cpg/sg86_3_cif.got.tgz:4580.got - 2010.04.08 20:12:58.
