data_PCOD8303876
_publ_section_title
;
Structure prediction by ZEFSAII (Michael W. Deem and Ramdas Pophale) SiO2 
 PCOD8303876
Probable space group: I 4/M
;
_chemical_formula_sum "Si O2"
_cell_formula_units_Z 96
_cell_length_a 28.839113
_cell_length_b 28.839113
_cell_length_c 8.914309
_cell_angle_alpha 90.000000
_cell_angle_beta 90.000000
_cell_angle_gamma 90.000000
_cell_volume 7413.981220
_symmetry_space_group_name_H-M "I 4/M"
_symmetry_group_IT_number 87
_symmetry_cell_setting 'tetragonal'
loop_
_space_group_symop_operation_xyz
x,y,z
-y,x,z
-x,-y,z
y,-x,z
-x,-y,-z
y,-x,-z
x,y,-z
-y,x,-z
1/2+x,1/2+y,1/2+z
1/2-y,1/2+x,1/2+z
1/2-x,1/2-y,1/2+z
1/2+y,1/2-x,1/2+z
1/2-x,1/2-y,1/2-z
1/2+y,1/2-x,1/2-z
1/2+x,1/2+y,1/2-z
1/2-y,1/2+x,1/2-z
loop_
_atom_site_type_symbol
_atom_site_label
_atom_site_fract_x
_atom_site_fract_y
_atom_site_fract_z
Si Si1 0.884810 0.196183 0.165352
Si Si2 0.244287 0.678228 0.831469
Si Si3 0.190179 0.884465 0.832002
Si Si4 0.545132 0.379258 0.678790
Si Si5 0.619434 0.445740 0.821701
Si Si6 0.179190 0.741872 0.667268
O O1 0.845075 0.157834 0.161853
O O2 0.931973 0.170794 0.217661
O O3 0.869923 0.238372 0.272866
O O4 0.891208 0.217406 0.000000
O O5 0.261478 0.633621 0.737726
O O6 0.196536 0.698123 0.763673
O O7 0.282964 0.717828 0.827599
O O8 0.234327 0.661903 0.000000
O O9 0.169063 0.924971 0.728420
O O10 0.199201 0.903624 0.000000
O O11 0.537162 0.384571 0.500000
O O12 0.578214 0.420271 0.734529
O O13 0.498749 0.382699 0.773351
O O14 0.613375 0.440540 0.000000
O O15 0.171018 0.723885 0.500000
#
# Coordination Sequence:
#
# PCOD8303876 Si02
#       6
#    16  16  16  16  16  16
#     4   8  15  26  39  52  67  87 110 135 164 202
#     4   9  15  22  33  50  71  92 113 135 158 189
#     4   9  16  27  40  53  70  91 112 134 166 207
#     4  10  20  34  47  57  70  90 114 142 181 225
#     4  11  21  32  45  60  73  86 110 145 184 223
#     4   9  15  21  32  50  71  92 111 131 158 194
#
# _framework density 12.948510000000001
#
# number of rings (size 3 to 8) (size 9 to 14) (size 15 to 20)
#    0.000    2.667    0.000    4.500    0.000    9.000 
#    0.000    1.667    0.000    0.000    0.000    0.000 
#    0.000    0.000    0.000    0.000    0.000    0.000 
#
# Total GULP energy -594955.479134 kJ/mol
# GULP energy per Si atom -12394.905815 kJ/mol
# Density = 1.291904 g / cm^3
# Si number density = 12.948510 Si / 1000 Ang^3
#
#
#
# Elastic Constant Matrix: (Units=GPa)
#
#
# Indices 1 2 3 4 5 6 
#
# 1 32.2771 33.1781 19.5378 0.0000 0.0000 -0.2077
# 2 33.1781 32.2771 19.5378 0.0000 0.0000 0.2077
# 3 19.5378 19.5378 82.5795 0.0000 0.0000 0.0000
# 4 0.0000 0.0000 0.0000 18.9442 0.0000 0.0000
# 5 0.0000 0.0000 0.0000 0.0000 18.9442 0.0000
# 6 -0.2077 0.2077 0.0000 0.0000 0.0000 15.0181
#
#
#
# Elastic Compliance Matrix: (Units=1/GPa)
#
#
# Indices 1 2 3 4 5 6 
#
# 1 -0.542499 0.560289 -0.004209 0.000000 0.000000 -0.015253
# 2 0.560289 -0.542499 -0.004209 0.000000 0.000000 0.015253
# 3 -0.004209 -0.004209 0.014101 0.000000 0.000000 0.000000
# 4 0.000000 0.000000 0.000000 0.052787 0.000000 0.000000
# 5 0.000000 0.000000 0.000000 0.000000 0.052787 0.000000
# 6 -0.015253 0.015253 0.000000 0.000000 0.000000 0.066164
#
#
# Mechanical properties :
#
#
# Convention : Reuss Voigt Hill
#
# Bulk Modulus (GPa) = 30.44546 32.40456 31.42501
# Shear Modulus (GPa) = -2.51010 15.57331 6.53160
#
# Velocity S-wave (km/s) = -1.39382 3.47177 2.24839
# Velocity P-wave (km/s) = 4.57968 6.41490 5.57335
#
# Compressibility (1/GPa) = 0.03284562
#
# Stress axis : x y z
#
# Youngs Moduli (GPa) = -1.84332 -1.84332 70.91579
#
# Poissons Ratio (x) = 1.03279 0.29849
# Poissons Ratio (y) = 1.03279 0.29849
# Poissons Ratio (z) = -0.00776 -0.00776
#
# Static dielectric constant tensor:
#      x y z
#    x 2.455520 0.000000 0.000000 
#    y 0.000000 2.455520 0.000000 
#    z 0.000000 0.000000 2.843510 
# 
# 
# High freq. dielectric constant tensor:
#      x y z
#    x 1.452870 0.000000 0.000000 
#    y 0.000000 1.452870 0.000000 
#    z 0.000000 0.000000 1.513310 
# 
# From -- ./inp_files/1547.got.cif
#   From: 2010.03.12/outbox.cif.g09.slc.cpg/sg87_1_cif.got.tgz:1547.got - 2010.04.08 20:16:13.
