data_PCOD8303475
_publ_section_title
;
Structure prediction by ZEFSAII (Michael W. Deem and Ramdas Pophale) SiO2 
 PCOD8303475
Probable space group: P 42/N
;
_chemical_formula_sum "Si O2"
_cell_formula_units_Z 48
_cell_length_a 11.227378
_cell_length_b 11.227378
_cell_length_c 18.013115
_cell_angle_alpha 90.000000
_cell_angle_beta 90.000000
_cell_angle_gamma 90.000000
_cell_volume 2270.625500
_symmetry_space_group_name_H-M "P 42/N"
_symmetry_group_IT_number 86
_space_group.IT_coordinate_system_code '2'
_symmetry_cell_setting 'tetragonal'
loop_
_space_group_symop_operation_xyz
x,y,z
-y,1/2+x,1/2+z
1/2-x,1/2-y,z
1/2+y,-x,1/2+z
-x,-y,-z
y,1/2-x,1/2-z
1/2+x,1/2+y,-z
1/2-y,x,1/2-z
loop_
_atom_site_type_symbol
_atom_site_label
_atom_site_fract_x
_atom_site_fract_y
_atom_site_fract_z
Si Si1 0.739741 0.110192 0.613439
Si Si2 0.750000 0.750000 0.971336
Si Si3 0.012553 0.178066 0.808860
Si Si4 0.750000 0.750000 0.250000
Si Si5 0.986687 0.864759 0.023516
Si Si6 0.399573 0.115724 0.144359
Si Si7 0.416063 0.571827 0.750775
Si Si8 0.750000 0.750000 0.750000
O O1 0.750000 0.250000 0.619520
O O2 0.644276 0.065286 0.673742
O O3 0.704539 0.075495 0.530313
O O4 0.864407 0.040094 0.626924
O O5 0.686816 0.857139 0.925183
O O6 0.850526 0.817744 0.018882
O O7 0.142363 0.237295 0.807623
O O8 0.969226 0.155106 0.892504
O O9 0.927461 0.274769 0.768190
O O10 0.019617 0.055338 0.763434
O O11 0.000000 0.000000 0.000000
O O12 0.366743 0.217592 0.203586
O O13 0.374840 0.984556 0.178406
#
# Coordination Sequence:
#
# PCOD8303475 Si02
#       8
#     8   4   8   2   8   8   8   2
#     4  11  23  40  59  93 130 166 206 270 326 386
#     4   9  23  41  64  92 116 171 220 258 313 398
#     4  10  21  37  62  92 118 167 207 260 319 394
#     4   8  18  36  62  86 128 152 214 272 316 378
#     4  11  22  44  67  88 130 173 221 261 332 400
#     4  10  20  37  63  90 121 159 208 265 318 375
#     4  11  21  40  62  93 125 156 210 264 323 380
#     4  10  16  32  62  84 112 158 208 250 302 380
#
# _framework density 21.13955
#
# number of rings (size 3 to 8) (size 9 to 14) (size 15 to 20)
#    0.000    1.667    3.333    1.500    0.000    0.000 
#    9.000    1.667    0.000    0.000    0.000    0.000 
#    0.000    0.000    0.000    0.000    0.000    0.000 
#
# Total GULP energy -594777.052041 kJ/mol
# GULP energy per Si atom -12391.188584 kJ/mol
# Density = 2.109144 g / cm^3
# Si number density = 21.139550 Si / 1000 Ang^3
#
#
#
# Elastic Constant Matrix: (Units=GPa)
#
#
# Indices 1 2 3 4 5 6 
#
# 1 75.1658 9.8604 11.4342 0.0000 0.0000 -0.0453
# 2 9.8604 75.1658 11.4342 0.0000 0.0000 0.0453
# 3 11.4342 11.4342 96.4817 0.0000 0.0000 0.0000
# 4 0.0000 0.0000 0.0000 24.6562 0.0000 0.0000
# 5 0.0000 0.0000 0.0000 0.0000 24.6562 0.0000
# 6 -0.0453 0.0453 0.0000 0.0000 0.0000 25.6617
#
#
#
# Elastic Compliance Matrix: (Units=1/GPa)
#
#
# Indices 1 2 3 4 5 6 
#
# 1 0.013731 -0.001582 -0.001440 0.000000 0.000000 0.000027
# 2 -0.001582 0.013731 -0.001440 0.000000 0.000000 -0.000027
# 3 -0.001440 -0.001440 0.010706 0.000000 0.000000 0.000000
# 4 0.000000 0.000000 0.000000 0.040558 0.000000 0.000000
# 5 0.000000 0.000000 0.000000 0.000000 0.040558 0.000000
# 6 0.000027 -0.000027 0.000000 0.000000 0.000000 0.038969
#
#
# Mechanical properties :
#
#
# Convention : Reuss Voigt Hill
#
# Bulk Modulus (GPa) = 34.19547 34.69678 34.44612
# Shear Modulus (GPa) = 28.26100 29.26711 28.76405
#
# Velocity S-wave (km/s) = 3.66030 3.72489 3.69273
# Velocity P-wave (km/s) = 5.83737 5.91173 5.87467
#
# Compressibility (1/GPa) = 0.02924364
#
# Stress axis : x y z
#
# Youngs Moduli (GPa) = 72.83054 72.83054 93.40633
#
# Poissons Ratio (x) = 0.11523 0.13448
# Poissons Ratio (y) = 0.11523 0.13448
# Poissons Ratio (z) = 0.10486 0.10486
#
# Static dielectric constant tensor:
#      x y z
#    x 3.779800 0.000000 0.000000 
#    y 0.000000 3.779800 0.000000 
#    z 0.000000 0.000000 3.815820 
# 
# 
# High freq. dielectric constant tensor:
#      x y z
#    x 1.822450 0.000000 0.000000 
#    y 0.000000 1.822450 0.000000 
#    z 0.000000 0.000000 1.826290 
# 
# From -- ./inp_files/3646.got.cif
#   From: 2010.03.12/outbox.cif.g09.slc.cpg/sg86_2_cif.got.tgz:3646.got - 2010.04.08 20:12:58.
