data_PCOD8303892
_publ_section_title
;
Structure prediction by ZEFSAII (Michael W. Deem and Ramdas Pophale) SiO2 
 PCOD8303892
Probable space group: I 4/M
;
_chemical_formula_sum "Si O2"
_cell_formula_units_Z 96
_cell_length_a 23.855703
_cell_length_b 23.855703
_cell_length_c 9.232491
_cell_angle_alpha 90.000000
_cell_angle_beta 90.000000
_cell_angle_gamma 90.000000
_cell_volume 5254.160455
_symmetry_space_group_name_H-M "I 4/M"
_symmetry_group_IT_number 87
_symmetry_cell_setting 'tetragonal'
loop_
_space_group_symop_operation_xyz
x,y,z
-y,x,z
-x,-y,z
y,-x,z
-x,-y,-z
y,-x,-z
x,y,-z
-y,x,-z
1/2+x,1/2+y,1/2+z
1/2-y,1/2+x,1/2+z
1/2-x,1/2-y,1/2+z
1/2+y,1/2-x,1/2+z
1/2-x,1/2-y,1/2-z
1/2+y,1/2-x,1/2-z
1/2+x,1/2+y,1/2-z
1/2-y,1/2+x,1/2-z
loop_
_atom_site_type_symbol
_atom_site_label
_atom_site_fract_x
_atom_site_fract_y
_atom_site_fract_z
Si Si1 0.930415 0.356022 0.669900
Si Si2 0.558218 0.861444 0.163905
Si Si3 0.225694 0.352206 0.330953
Si Si4 0.640118 0.760178 0.836483
Si Si5 0.350113 0.644221 0.329815
Si Si6 0.067482 0.061585 0.668854
O O1 0.919724 0.353302 0.500000
O O2 0.906441 0.414163 0.730093
O O3 0.901693 0.302605 0.742143
O O4 0.994970 0.352673 0.712697
O O5 0.588366 0.802020 0.176774
O O6 0.562244 0.884452 0.000000
O O7 0.214526 0.363219 0.500000
O O8 0.197365 0.292417 0.288717
O O9 0.290502 0.354196 0.289805
O O10 0.624170 0.709271 0.731754
O O11 0.646480 0.737211 0.000000
O O12 0.351418 0.633540 0.500000
O O13 0.401282 0.610319 0.260545
O O14 0.078784 0.072223 0.500000
O O15 0.003560 0.078058 0.707537
#
# Coordination Sequence:
#
# PCOD8303892 Si02
#       6
#    16  16  16  16  16  16
#     4  10  20  34  55  79 102 137 182 221 260 310
#     4   9  20  37  53  75 108 140 174 220 268 309
#     4   9  20  37  53  74 109 144 172 213 265 309
#     4   9  18  35  55  73 103 145 180 214 256 304
#     4  11  22  34  54  85 112 135 169 213 262 315
#     4   9  20  40  61  78 101 137 178 216 255 304
#
# _framework density 18.271235999999998
#
# number of rings (size 3 to 8) (size 9 to 14) (size 15 to 20)
#    0.000    2.500    0.000    3.000    0.000    7.667 
#    0.000    7.500    0.000    0.000    0.000    0.000 
#    0.000    0.000    0.000    0.000    0.000    0.000 
#
# Total GULP energy -595236.541206 kJ/mol
# GULP energy per Si atom -12400.761275 kJ/mol
# Density = 1.822965 g / cm^3
# Si number density = 18.271236 Si / 1000 Ang^3
#
#
#
# Elastic Constant Matrix: (Units=GPa)
#
#
# Indices 1 2 3 4 5 6 
#
# 1 74.7308 48.4071 39.7296 0.0000 0.0000 -7.5146
# 2 48.4071 74.7308 39.7296 0.0000 0.0000 7.5146
# 3 39.7296 39.7296 64.4119 0.0000 0.0000 0.0000
# 4 0.0000 0.0000 0.0000 33.5080 0.0000 0.0000
# 5 0.0000 0.0000 0.0000 0.0000 33.5080 0.0000
# 6 -7.5146 7.5146 0.0000 0.0000 0.0000 19.9047
#
#
#
# Elastic Compliance Matrix: (Units=1/GPa)
#
#
# Indices 1 2 3 4 5 6 
#
# 1 0.030959 -0.017468 -0.008321 0.000000 0.000000 0.018283
# 2 -0.017468 0.030959 -0.008321 0.000000 0.000000 -0.018283
# 3 -0.008321 -0.008321 0.025790 0.000000 0.000000 0.000000
# 4 0.000000 0.000000 0.000000 0.029844 0.000000 0.000000
# 5 0.000000 0.000000 0.000000 0.000000 0.029844 0.000000
# 6 0.018283 -0.018283 0.000000 0.000000 0.000000 0.064044
#
#
# Mechanical properties :
#
#
# Convention : Reuss Voigt Hill
#
# Bulk Modulus (GPa) = 51.31660 52.17847 51.74754
# Shear Modulus (GPa) = 17.47308 23.11795 20.29551
#
# Velocity S-wave (km/s) = 3.09579 3.56091 3.33647
# Velocity P-wave (km/s) = 6.39731 6.74733 6.57465
#
# Compressibility (1/GPa) = 0.01948687
#
# Stress axis : x y z
#
# Youngs Moduli (GPa) = 32.30111 32.30111 38.77490
#
# Poissons Ratio (x) = 0.56425 0.32264
# Poissons Ratio (y) = 0.56425 0.32264
# Poissons Ratio (z) = 0.26878 0.26878
#
# Static dielectric constant tensor:
#      x y z
#    x 3.343810 0.000000 0.000000 
#    y 0.000000 3.343810 0.000000 
#    z 0.000000 0.000000 3.383840 
# 
# 
# High freq. dielectric constant tensor:
#      x y z
#    x 1.709780 0.000000 0.000000 
#    y 0.000000 1.709780 0.000000 
#    z 0.000000 0.000000 1.710460 
# 
# From -- ./inp_files/1449.got.cif
#   From: 2010.03.12/outbox.cif.g09.slc.cpg/sg87_1_cif.got.tgz:1449.got - 2010.04.08 20:16:13.
