data_PCOD8303842
_publ_section_title
;
Structure prediction by ZEFSAII (Michael W. Deem and Ramdas Pophale) SiO2 
 PCOD8303842
Probable space group: I 4/M
;
_chemical_formula_sum "Si O2"
_cell_formula_units_Z 112
_cell_length_a 15.520072
_cell_length_b 15.520072
_cell_length_c 22.302729
_cell_angle_alpha 90.000000
_cell_angle_beta 90.000000
_cell_angle_gamma 90.000000
_cell_volume 5372.117099
_symmetry_space_group_name_H-M "I 4/M"
_symmetry_group_IT_number 87
_symmetry_cell_setting 'tetragonal'
loop_
_space_group_symop_operation_xyz
x,y,z
-y,x,z
-x,-y,z
y,-x,z
-x,-y,-z
y,-x,-z
x,y,-z
-y,x,-z
1/2+x,1/2+y,1/2+z
1/2-y,1/2+x,1/2+z
1/2-x,1/2-y,1/2+z
1/2+y,1/2-x,1/2+z
1/2-x,1/2-y,1/2-z
1/2+y,1/2-x,1/2-z
1/2+x,1/2+y,1/2-z
1/2-y,1/2+x,1/2-z
loop_
_atom_site_type_symbol
_atom_site_label
_atom_site_fract_x
_atom_site_fract_y
_atom_site_fract_z
Si Si1 0.795059 0.514331 0.359206
Si Si2 0.889637 0.265148 0.251675
Si Si3 0.742530 0.035158 0.569129
Si Si4 0.012715 0.859813 0.670975
Si Si5 0.932508 0.425313 0.565382
Si Si6 0.158309 0.238539 0.825898
Si Si7 0.318826 0.773105 0.429632
O O1 0.824580 0.569757 0.301048
O O2 0.868520 0.450999 0.382333
O O3 0.723172 0.444062 0.338116
O O4 0.766000 0.579814 0.411669
O O5 0.835806 0.189899 0.218552
O O6 0.831063 0.322466 0.295143
O O7 0.970215 0.221794 0.286300
O O8 0.765886 0.026910 0.500000
O O9 0.824657 0.996432 0.603386
O O10 0.720027 0.133490 0.585947
O O11 0.660377 0.979167 0.587258
O O12 0.092739 0.922850 0.682545
O O13 0.887550 0.410967 0.500000
O O14 0.000000 0.500000 0.556626
O O15 0.205985 0.236072 0.890480
O O16 0.310467 0.751445 0.500000
#
# Coordination Sequence:
#
# PCOD8303842 Si02
#       7
#    16  16  16  16  16  16  16
#     4  11  21  36  59  87 117 152 196 241 299 359
#     4  10  22  41  60  82 120 160 201 252 298 349
#     4  10  21  38  60  85 120 159 197 250 310 364
#     4  11  23  39  61  85 115 161 212 254 299 358
#     4  10  19  35  59  87 119 153 191 236 298 369
#     4  10  22  40  61  90 118 155 203 248 296 366
#     4  10  21  38  62  88 119 155 190 246 309 362
#
# _framework density 20.848393000000002
#
# number of rings (size 3 to 8) (size 9 to 14) (size 15 to 20)
#    0.000    1.714    1.429    3.000    0.000    4.000 
#    2.571    4.286    0.000    3.857    0.000    4.000 
#    0.000    0.000    0.000    0.000    0.000    0.000 
#
# Total GULP energy -694098.169701 kJ/mol
# GULP energy per Si atom -12394.610173 kJ/mol
# Density = 2.080094 g / cm^3
# Si number density = 20.848393 Si / 1000 Ang^3
#
#
#
# Elastic Constant Matrix: (Units=GPa)
#
#
# Indices 1 2 3 4 5 6 
#
# 1 68.4326 9.5874 39.9403 0.0000 0.0000 -10.9557
# 2 9.5874 68.4326 39.9403 0.0000 0.0000 10.9557
# 3 39.9403 39.9403 120.7649 0.0000 0.0000 0.0000
# 4 0.0000 0.0000 0.0000 36.5773 0.0000 0.0000
# 5 0.0000 0.0000 0.0000 0.0000 36.5773 0.0000
# 6 -10.9557 10.9557 0.0000 0.0000 0.0000 21.6833
#
#
#
# Elastic Compliance Matrix: (Units=1/GPa)
#
#
# Indices 1 2 3 4 5 6 
#
# 1 0.020156 -0.000776 -0.006409 0.000000 0.000000 0.010576
# 2 -0.000776 0.020156 -0.006409 0.000000 0.000000 -0.010576
# 3 -0.006409 -0.006409 0.012520 0.000000 0.000000 0.000000
# 4 0.000000 0.000000 0.000000 0.027339 0.000000 0.000000
# 5 0.000000 0.000000 0.000000 0.000000 0.027339 0.000000
# 6 0.010576 -0.010576 0.000000 0.000000 0.000000 0.056806
#
#
# Mechanical properties :
#
#
# Convention : Reuss Voigt Hill
#
# Bulk Modulus (GPa) = 38.99918 48.50734 43.75326
# Shear Modulus (GPa) = 24.99346 30.17838 27.58592
#
# Velocity S-wave (km/s) = 3.46615 3.80875 3.64148
# Velocity P-wave (km/s) = 5.89624 6.53141 6.22194
#
# Compressibility (1/GPa) = 0.02564156
#
# Stress axis : x y z
#
# Youngs Moduli (GPa) = 49.61404 49.61404 79.87211
#
# Poissons Ratio (x) = 0.03851 0.51192
# Poissons Ratio (y) = 0.03851 0.51192
# Poissons Ratio (z) = 0.31799 0.31799
#
# Static dielectric constant tensor:
#      x y z
#    x 3.703000 0.000000 0.000000 
#    y 0.000000 3.703000 0.000000 
#    z 0.000000 0.000000 4.003840 
# 
# 
# High freq. dielectric constant tensor:
#      x y z
#    x 1.806280 0.000000 0.000000 
#    y 0.000000 1.806280 0.000000 
#    z 0.000000 0.000000 1.832400 
# 
# From -- ./inp_files/5881.got.cif
#   From: 2010.03.12/outbox.cif.g09.slc.cpg/sg87_3_cif.got.tgz:5881.got - 2010.04.08 20:16:13.
