data_PCOD8303223
_publ_section_title
;
Structure prediction by ZEFSAII (Michael W. Deem and Ramdas Pophale) SiO2 
 PCOD8303223
Probable space group: P 42/M
;
_chemical_formula_sum "Si O2"
_cell_formula_units_Z 40
_cell_length_a 15.651801
_cell_length_b 15.651801
_cell_length_c 8.643498
_cell_angle_alpha 90.000000
_cell_angle_beta 90.000000
_cell_angle_gamma 90.000000
_cell_volume 2117.474412
_symmetry_space_group_name_H-M "P 42/M"
_symmetry_group_IT_number 84
_symmetry_cell_setting 'tetragonal'
loop_
_space_group_symop_operation_xyz
x,y,z
-y,x,1/2+z
-x,-y,z
y,-x,1/2+z
-x,-y,-z
y,-x,1/2-z
x,y,-z
-y,x,1/2-z
loop_
_atom_site_type_symbol
_atom_site_label
_atom_site_fract_x
_atom_site_fract_y
_atom_site_fract_z
Si Si1 0.357235 0.775931 0.178618
Si Si2 0.023960 0.759709 0.821244
Si Si3 0.614046 0.557512 0.819102
Si Si4 0.164866 0.189235 0.179163
Si Si5 0.408119 0.966122 0.820373
O O1 0.403857 0.705881 0.281725
O O2 0.257423 0.781158 0.222158
O O3 0.403173 0.865555 0.215381
O O4 0.365672 0.750413 0.000000
O O5 0.094798 0.804251 0.716964
O O6 0.934933 0.805054 0.778441
O O7 0.018285 0.659767 0.780874
O O8 0.048022 0.770835 0.000000
O O9 0.611600 0.458723 0.768317
O O10 0.596075 0.564001 0.000000
O O11 0.179718 0.210216 0.000000
O O12 0.500000 0.000000 0.769302
O O13 0.389323 0.984466 0.000000
#
# Coordination Sequence:
#
# PCOD8303223 Si02
#       5
#     8   8   8   8   8
#     4  10  20  36  57  81 110 143 181 225 273 325
#     4  10  21  36  55  80 109 142 181 225 272 322
#     4  11  22  38  58  81 111 145 184 228 275 325
#     4  10  21  37  56  79 109 144 182 225 273 325
#     4   9  19  36  57  80 108 142 179 220 268 323
#
# _framework density 18.890429000000001
#
# number of rings (size 3 to 8) (size 9 to 14) (size 15 to 20)
#    0.000    2.000    0.000    4.200    0.000    5.600 
#    0.000    8.000    0.000    0.000    0.000    0.000 
#    0.000    0.000    0.000    0.000    0.000    0.000 
#
# Total GULP energy -496229.701517 kJ/mol
# GULP energy per Si atom -12405.742538 kJ/mol
# Density = 1.884743 g / cm^3
# Si number density = 18.890429 Si / 1000 Ang^3
#
#
#
# Elastic Constant Matrix: (Units=GPa)
#
#
# Indices 1 2 3 4 5 6 
#
# 1 103.3820 60.0596 26.2768 0.0000 0.0000 12.0618
# 2 60.0596 103.3820 26.2768 0.0000 0.0000 -12.0618
# 3 26.2768 26.2768 57.9582 0.0000 0.0000 0.0000
# 4 0.0000 0.0000 0.0000 32.6007 0.0000 0.0000
# 5 0.0000 0.0000 0.0000 0.0000 32.6007 0.0000
# 6 12.0618 -12.0618 0.0000 0.0000 0.0000 27.9177
#
#
#
# Elastic Compliance Matrix: (Units=1/GPa)
#
#
# Indices 1 2 3 4 5 6 
#
# 1 0.018779 -0.011616 -0.003247 0.000000 0.000000 -0.013132
# 2 -0.011616 0.018779 -0.003247 0.000000 0.000000 0.013132
# 3 -0.003247 -0.003247 0.020198 0.000000 0.000000 0.000000
# 4 0.000000 0.000000 0.000000 0.030674 0.000000 0.000000
# 5 0.000000 0.000000 0.000000 0.000000 0.030674 0.000000
# 6 -0.013132 0.013132 0.000000 0.000000 0.000000 0.047167
#
#
# Mechanical properties :
#
#
# Convention : Reuss Voigt Hill
#
# Bulk Modulus (GPa) = 46.43792 54.43874 50.43833
# Shear Modulus (GPa) = 23.84679 28.76442 26.30560
#
# Velocity S-wave (km/s) = 3.55684 3.90641 3.73572
# Velocity P-wave (km/s) = 6.44239 7.01623 6.73542
#
# Compressibility (1/GPa) = 0.02153413
#
# Stress axis : x y z
#
# Youngs Moduli (GPa) = 53.25114 53.25114 49.50906
#
# Poissons Ratio (x) = 0.61859 0.16077
# Poissons Ratio (y) = 0.61859 0.16077
# Poissons Ratio (z) = 0.17292 0.17292
#
# Static dielectric constant tensor:
#      x y z
#    x 3.416480 0.000000 0.000000 
#    y 0.000000 3.416480 0.000000 
#    z 0.000000 0.000000 3.490030 
# 
# 
# High freq. dielectric constant tensor:
#      x y z
#    x 1.733780 0.000000 0.000000 
#    y 0.000000 1.733780 0.000000 
#    z 0.000000 0.000000 1.745000 
# 
# From -- ./inp_files/743.got.cif
#   From: 2010.03.12/outbox.cif.g09.slc.cpg/sg84_1_cif.got.tgz:743.got - 2010.04.08 20:07:29.
