data_PCOD8303714
_publ_section_title
;
Structure prediction by ZEFSAII (Michael W. Deem and Ramdas Pophale) SiO2 
 PCOD8303714
Probable space group: P 42/N
;
_chemical_formula_sum "Si O2"
_cell_formula_units_Z 34
_cell_length_a 18.409475
_cell_length_b 18.409475
_cell_length_c 4.998923
_cell_angle_alpha 90.000000
_cell_angle_beta 90.000000
_cell_angle_gamma 90.000000
_cell_volume 1694.178844
_symmetry_space_group_name_H-M "P 42/N"
_symmetry_group_IT_number 86
_space_group.IT_coordinate_system_code '2'
_symmetry_cell_setting 'tetragonal'
loop_
_space_group_symop_operation_xyz
x,y,z
-y,1/2+x,1/2+z
1/2-x,1/2-y,z
1/2+y,-x,1/2+z
-x,-y,-z
y,1/2-x,1/2-z
1/2+x,1/2+y,-z
1/2-y,x,1/2-z
loop_
_atom_site_type_symbol
_atom_site_label
_atom_site_fract_x
_atom_site_fract_y
_atom_site_fract_z
Si Si1 0.250000 0.250000 0.750000
Si Si2 0.550982 0.068935 0.024205
Si Si3 0.499311 0.849907 0.473828
Si Si4 0.189153 0.480178 0.065255
Si Si5 0.165566 0.383576 0.562149
O O1 0.217059 0.312691 0.558726
O O2 0.523852 0.130924 0.825219
O O3 0.632291 0.045892 0.950297
O O4 0.546804 0.100363 0.323481
O O5 0.500000 0.000000 0.000000
O O6 0.481585 0.765651 0.509856
O O7 0.584642 0.861768 0.519418
O O8 0.193845 0.443628 0.356135
O O9 0.167826 0.417452 0.856994
#
# Coordination Sequence:
#
# PCOD8303714 Si02
#       5
#     2   8   8   8   8
#     4  12  28  38  60  98 152 178 196 242 328 418
#     4  12  23  43  68  94 125 172 226 269 312 383
#     4  12  24  41  65  95 128 169 218 269 323 371
#     4  12  26  41  65  94 130 169 218 269 319 380
#     4  12  24  39  61  93 133 179 209 244 311 402
#
# _framework density 20.068721
#
# number of rings (size 3 to 8) (size 9 to 14) (size 15 to 20)
#    0.000    0.000    7.059    3.529    3.294    0.941 
#    0.000    0.000    0.000    4.235    0.000    0.000 
#    0.000    0.000    0.000    0.000    0.000    0.000 
#
# Total GULP energy -421899.138740 kJ/mol
# GULP energy per Si atom -12408.798198 kJ/mol
# Density = 2.002304 g / cm^3
# Si number density = 20.068721 Si / 1000 Ang^3
#
#
#
# Elastic Constant Matrix: (Units=GPa)
#
#
# Indices 1 2 3 4 5 6 
#
# 1 101.1333 47.6430 11.7611 0.0000 0.0000 -3.3381
# 2 47.6430 101.1333 11.7611 0.0000 0.0000 3.3381
# 3 11.7611 11.7611 71.3679 0.0000 0.0000 0.0000
# 4 0.0000 0.0000 0.0000 26.1497 0.0000 0.0000
# 5 0.0000 0.0000 0.0000 0.0000 26.1497 0.0000
# 6 -3.3381 3.3381 0.0000 0.0000 0.0000 35.8212
#
#
#
# Elastic Compliance Matrix: (Units=1/GPa)
#
#
# Indices 1 2 3 4 5 6 
#
# 1 0.012908 -0.006007 -0.001137 0.000000 0.000000 0.001763
# 2 -0.006007 0.012908 -0.001137 0.000000 0.000000 -0.001763
# 3 -0.001137 -0.001137 0.014387 0.000000 0.000000 0.000000
# 4 0.000000 0.000000 0.000000 0.038241 0.000000 0.000000
# 5 0.000000 0.000000 0.000000 0.000000 0.038241 0.000000
# 6 0.001763 -0.001763 0.000000 0.000000 0.000000 0.028245
#
#
# Mechanical properties :
#
#
# Convention : Reuss Voigt Hill
#
# Bulk Modulus (GPa) = 42.30091 46.21832 44.25962
# Shear Modulus (GPa) = 29.52054 31.12208 30.32131
#
# Velocity S-wave (km/s) = 3.83949 3.94226 3.89121
# Velocity P-wave (km/s) = 6.38587 6.61830 6.50312
#
# Compressibility (1/GPa) = 0.02364015
#
# Stress axis : x y z
#
# Youngs Moduli (GPa) = 77.47044 77.47044 69.50841
#
# Poissons Ratio (x) = 0.46535 0.07905
# Poissons Ratio (y) = 0.46535 0.07905
# Poissons Ratio (z) = 0.08811 0.08811
#
# Static dielectric constant tensor:
#      x y z
#    x 3.740270 0.000000 0.000000 
#    y 0.000000 3.740270 0.000000 
#    z 0.000000 0.000000 3.777730 
# 
# 
# High freq. dielectric constant tensor:
#      x y z
#    x 1.776440 0.000000 0.000000 
#    y 0.000000 1.776440 0.000000 
#    z 0.000000 0.000000 1.799200 
# 
# From -- ./inp_files/262.got.cif
#   From: 2010.03.12/outbox.cif.g09.slc.cpg/sg86_1_cif.got.tgz:262.got - 2010.04.08 20:12:58.
