data_PCOD8303747
_publ_section_title
;
Structure prediction by ZEFSAII (Michael W. Deem and Ramdas Pophale) SiO2 
 PCOD8303747
Probable space group: I 4/M
;
_chemical_formula_sum "Si O2"
_cell_formula_units_Z 96
_cell_length_a 23.749486
_cell_length_b 23.749486
_cell_length_c 9.500220
_cell_angle_alpha 90.000000
_cell_angle_beta 90.000000
_cell_angle_gamma 90.000000
_cell_volume 5358.485898
_symmetry_space_group_name_H-M "I 4/M"
_symmetry_group_IT_number 87
_symmetry_cell_setting 'tetragonal'
loop_
_space_group_symop_operation_xyz
x,y,z
-y,x,z
-x,-y,z
y,-x,z
-x,-y,-z
y,-x,-z
x,y,-z
-y,x,-z
1/2+x,1/2+y,1/2+z
1/2-y,1/2+x,1/2+z
1/2-x,1/2-y,1/2+z
1/2+y,1/2-x,1/2+z
1/2-x,1/2-y,1/2-z
1/2+y,1/2-x,1/2-z
1/2+x,1/2+y,1/2-z
1/2-y,1/2+x,1/2-z
loop_
_atom_site_type_symbol
_atom_site_label
_atom_site_fract_x
_atom_site_fract_y
_atom_site_fract_z
Si Si1 0.895394 0.595719 0.847679
Si Si2 0.384224 0.716652 0.163949
Si Si3 0.293383 0.630822 0.163661
Si Si4 0.183344 0.304773 0.841593
Si Si5 0.491178 0.259291 0.166121
Si Si6 0.504935 0.152653 0.340886
O O1 0.873603 0.659471 0.846248
O O2 0.868607 0.563971 0.717509
O O3 0.962666 0.599694 0.833761
O O4 0.879638 0.567719 0.000000
O O5 0.355456 0.656302 0.195256
O O6 0.344375 0.766885 0.224492
O O7 0.448788 0.715709 0.223358
O O8 0.389290 0.729329 0.000000
O O9 0.249256 0.670234 0.246262
O O10 0.296184 0.564426 0.205953
O O11 0.277605 0.637101 0.000000
O O12 0.199567 0.284497 0.000000
O O13 0.480347 0.200740 0.242096
O O14 0.493794 0.249863 0.000000
O O15 0.513519 0.174491 0.500000
#
# Coordination Sequence:
#
# PCOD8303747 Si02
#       6
#    16  16  16  16  16  16
#     4  10  21  36  52  72 101 138 172 209 261 302
#     4   9  18  33  51  74 103 135 168 203 254 308
#     4  10  20  32  52  79 101 130 174 210 244 305
#     4  10  18  32  52  72 105 139 160 203 263 306
#     4  10  19  34  54  73 102 138 166 206 259 305
#     4  11  22  35  53  75  99 132 178 219 246 297
#
# _framework density 17.915507999999999
#
# number of rings (size 3 to 8) (size 9 to 14) (size 15 to 20)
#    0.000    2.000    3.333    1.000    0.000    2.333 
#    0.000    2.500    0.000    0.500    0.000    3.500 
#    0.000    0.000    0.000    3.000    0.000    3.333 
#
# Total GULP energy -594760.874065 kJ/mol
# GULP energy per Si atom -12390.851543 kJ/mol
# Density = 1.787473 g / cm^3
# Si number density = 17.915508 Si / 1000 Ang^3
#
#
#
# Elastic Constant Matrix: (Units=GPa)
#
#
# Indices 1 2 3 4 5 6 
#
# 1 98.4968 54.0909 28.8523 0.0000 0.0000 -2.6195
# 2 54.0909 98.4968 28.8523 0.0000 0.0000 2.6195
# 3 28.8523 28.8523 47.2367 0.0000 0.0000 0.0000
# 4 0.0000 0.0000 0.0000 17.9789 0.0000 0.0000
# 5 0.0000 0.0000 0.0000 0.0000 17.9789 0.0000
# 6 -2.6195 2.6195 0.0000 0.0000 0.0000 23.4328
#
#
#
# Elastic Compliance Matrix: (Units=1/GPa)
#
#
# Indices 1 2 3 4 5 6 
#
# 1 0.015671 -0.007149 -0.005205 0.000000 0.000000 0.002551
# 2 -0.007149 0.015671 -0.005205 0.000000 0.000000 -0.002551
# 3 -0.005205 -0.005205 0.027529 0.000000 0.000000 0.000000
# 4 0.000000 0.000000 0.000000 0.055621 0.000000 0.000000
# 5 0.000000 0.000000 0.000000 0.000000 0.055621 0.000000
# 6 0.002551 -0.002551 0.000000 0.000000 0.000000 0.043246
#
#
# Mechanical properties :
#
#
# Convention : Reuss Voigt Hill
#
# Bulk Modulus (GPa) = 42.10216 51.98012 47.04114
# Shear Modulus (GPa) = 19.50114 20.70713 20.10413
#
# Velocity S-wave (km/s) = 3.30283 3.40343 3.35351
# Velocity P-wave (km/s) = 6.17222 6.67244 6.42720
#
# Compressibility (1/GPa) = 0.02375175
#
# Stress axis : x y z
#
# Youngs Moduli (GPa) = 63.81086 63.81086 36.32557
#
# Poissons Ratio (x) = 0.45620 0.18909
# Poissons Ratio (y) = 0.45620 0.18909
# Poissons Ratio (z) = 0.33216 0.33216
#
# Static dielectric constant tensor:
#      x y z
#    x 3.356410 0.000000 0.000000 
#    y 0.000000 3.356410 0.000000 
#    z 0.000000 0.000000 3.229580 
# 
# 
# High freq. dielectric constant tensor:
#      x y z
#    x 1.682400 0.000000 0.000000 
#    y 0.000000 1.682400 0.000000 
#    z 0.000000 0.000000 1.677480 
# 
# From -- ./inp_files/1373.got.cif
#   From: 2010.03.12/outbox.cif.g09.slc.cpg/sg87_1_cif.got.tgz:1373.got - 2010.04.08 20:16:13.
