data_PCOD8303893
_publ_section_title
;
Structure prediction by ZEFSAII (Michael W. Deem and Ramdas Pophale) SiO2 
 PCOD8303893
Probable space group: I 4/M
;
_chemical_formula_sum "Si O2"
_cell_formula_units_Z 80
_cell_length_a 13.760892
_cell_length_b 13.760892
_cell_length_c 19.562930
_cell_angle_alpha 90.000000
_cell_angle_beta 90.000000
_cell_angle_gamma 90.000000
_cell_volume 3704.478458
_symmetry_space_group_name_H-M "I 4/M"
_symmetry_group_IT_number 87
_symmetry_cell_setting 'tetragonal'
loop_
_space_group_symop_operation_xyz
x,y,z
-y,x,z
-x,-y,z
y,-x,z
-x,-y,-z
y,-x,-z
x,y,-z
-y,x,-z
1/2+x,1/2+y,1/2+z
1/2-y,1/2+x,1/2+z
1/2-x,1/2-y,1/2+z
1/2+y,1/2-x,1/2+z
1/2-x,1/2-y,1/2-z
1/2+y,1/2-x,1/2-z
1/2+x,1/2+y,1/2-z
1/2-y,1/2+x,1/2-z
loop_
_atom_site_type_symbol
_atom_site_label
_atom_site_fract_x
_atom_site_fract_y
_atom_site_fract_z
Si Si1 0.109221 0.734088 0.802818
Si Si2 0.178005 0.625431 0.923338
Si Si3 0.611017 0.775081 0.306227
Si Si4 0.119916 0.910712 0.418559
Si Si5 0.911420 0.569080 0.077523
O O1 0.100861 0.679325 0.875876
O O2 0.156539 0.659201 0.750205
O O3 0.173420 0.831108 0.812312
O O4 0.997804 0.755663 0.782473
O O5 0.286975 0.653463 0.895984
O O6 0.177648 0.507345 0.921030
O O7 0.158435 0.662720 0.000000
O O8 0.609473 0.836823 0.376367
O O9 0.119442 0.916878 0.500000
O O10 0.132970 0.020745 0.389451
O O11 0.000000 0.500000 0.102840
O O12 0.930794 0.606543 0.000000
#
# Coordination Sequence:
#
# PCOD8303893 Si02
#       5
#    16  16  16  16  16
#     4  11  25  43  67  92 125 170 220 269 334 399
#     4  10  20  34  57  91 125 162 212 269 320 378
#     4  11  25  44  66  95 126 168 217 270 330 406
#     4   8  15  28  46  73 116 164 199 237 305 380
#     4  10  20  37  64  96 127 160 210 269 322 377
#
# _framework density 21.595483000000002
#
# number of rings (size 3 to 8) (size 9 to 14) (size 15 to 20)
#    0.000    2.000    2.000    1.800    2.800    1.200 
#    0.000    0.000    0.000    0.000    0.000    2.800 
#    0.000    0.000    0.000    0.000    0.000    0.000 
#
# Total GULP energy -495566.340765 kJ/mol
# GULP energy per Si atom -12389.158519 kJ/mol
# Density = 2.154633 g / cm^3
# Si number density = 21.595483 Si / 1000 Ang^3
#
#
#
# Elastic Constant Matrix: (Units=GPa)
#
#
# Indices 1 2 3 4 5 6 
#
# 1 124.0567 46.4061 42.1007 0.0000 0.0000 -3.3773
# 2 46.4061 124.0567 42.1007 0.0000 0.0000 3.3773
# 3 42.1007 42.1007 83.4458 0.0000 0.0000 0.0000
# 4 0.0000 0.0000 0.0000 24.1326 0.0000 0.0000
# 5 0.0000 0.0000 0.0000 0.0000 24.1326 0.0000
# 6 -3.3773 3.3773 0.0000 0.0000 0.0000 22.3340
#
#
#
# Elastic Compliance Matrix: (Units=1/GPa)
#
#
# Indices 1 2 3 4 5 6 
#
# 1 0.010432 -0.002618 -0.003942 0.000000 0.000000 0.001973
# 2 -0.002618 0.010432 -0.003942 0.000000 0.000000 -0.001973
# 3 -0.003942 -0.003942 0.015962 0.000000 0.000000 0.000000
# 4 0.000000 0.000000 0.000000 0.041438 0.000000 0.000000
# 5 0.000000 0.000000 0.000000 0.000000 0.041438 0.000000
# 6 0.001973 -0.001973 0.000000 0.000000 0.000000 0.045372
#
#
# Mechanical properties :
#
#
# Convention : Reuss Voigt Hill
#
# Bulk Modulus (GPa) = 63.21019 65.86378 64.53699
# Shear Modulus (GPa) = 26.13002 27.51662 26.82332
#
# Velocity S-wave (km/s) = 3.48225 3.57344 3.52814
# Velocity P-wave (km/s) = 6.74549 6.89863 6.82249
#
# Compressibility (1/GPa) = 0.01582023
#
# Stress axis : x y z
#
# Youngs Moduli (GPa) = 95.86104 95.86104 62.64984
#
# Poissons Ratio (x) = 0.25097 0.24698
# Poissons Ratio (y) = 0.25097 0.24698
# Poissons Ratio (z) = 0.37790 0.37790
#
# Static dielectric constant tensor:
#      x y z
#    x 4.080850 0.000000 0.000000 
#    y 0.000000 4.080850 0.000000 
#    z 0.000000 0.000000 3.698070 
# 
# 
# High freq. dielectric constant tensor:
#      x y z
#    x 1.846440 0.000000 0.000000 
#    y 0.000000 1.846440 0.000000 
#    z 0.000000 0.000000 1.830040 
# 
# From -- ./inp_files/5088.got.cif
#   From: 2010.03.12/outbox.cif.g09.slc.cpg/sg87_3_cif.got.tgz:5088.got - 2010.04.08 20:16:13.
