data_PCOD8303992
_publ_section_title
;
Structure prediction by ZEFSAII (Michael W. Deem and Ramdas Pophale) SiO2 
 PCOD8303992
Probable space group: I 4/M
;
_chemical_formula_sum "Si O2"
_cell_formula_units_Z 96
_cell_length_a 13.586117
_cell_length_b 13.586117
_cell_length_c 25.055225
_cell_angle_alpha 90.000000
_cell_angle_beta 90.000000
_cell_angle_gamma 90.000000
_cell_volume 4624.757951
_symmetry_space_group_name_H-M "I 4/M"
_symmetry_group_IT_number 87
_symmetry_cell_setting 'tetragonal'
loop_
_space_group_symop_operation_xyz
x,y,z
-y,x,z
-x,-y,z
y,-x,z
-x,-y,-z
y,-x,-z
x,y,-z
-y,x,-z
1/2+x,1/2+y,1/2+z
1/2-y,1/2+x,1/2+z
1/2-x,1/2-y,1/2+z
1/2+y,1/2-x,1/2+z
1/2-x,1/2-y,1/2-z
1/2+y,1/2-x,1/2-z
1/2+x,1/2+y,1/2-z
1/2-y,1/2+x,1/2-z
loop_
_atom_site_type_symbol
_atom_site_label
_atom_site_fract_x
_atom_site_fract_y
_atom_site_fract_z
Si Si1 0.105202 0.880288 0.405290
Si Si2 0.765857 0.548796 0.299223
Si Si3 0.933912 0.591758 0.625042
Si Si4 0.275909 0.207620 0.060044
Si Si5 0.265832 0.076245 0.679427
Si Si6 0.852527 0.779110 0.158429
O O1 0.179777 0.814750 0.439791
O O2 0.110978 0.842141 0.343145
O O3 0.991077 0.864223 0.418793
O O4 0.876841 0.555736 0.321822
O O5 0.763119 0.523310 0.236610
O O6 0.711527 0.651960 0.304086
O O7 0.703099 0.468547 0.333076
O O8 0.855716 0.627828 0.580594
O O9 0.000000 0.500000 0.603705
O O10 0.998977 0.687308 0.637853
O O11 0.178106 0.205068 0.096725
O O12 0.246094 0.179174 0.000000
O O13 0.336418 0.170026 0.681323
#
# Coordination Sequence:
#
# PCOD8303992 Si02
#       6
#    16  16  16  16  16  16
#     4  10  21  37  57  89 127 160 202 243 297 388
#     4  11  23  37  63  90 129 169 206 254 317 374
#     4  11  22  39  62  94 125 158 213 264 304 381
#     4  10  23  44  65  88 124 166 209 271 320 356
#     4  11  21  37  62  89 130 168 201 252 314 372
#     4  10  23  41  58  92 126 162 216 265 302 378
#
# _framework density 20.757843999999999
#
# number of rings (size 3 to 8) (size 9 to 14) (size 15 to 20)
#    0.000    1.500    3.333    1.500    2.333    1.333 
#    0.000    4.167    0.000    0.000    0.000    4.667 
#    0.000    0.000    0.000    0.000    0.000    0.000 
#
# Total GULP energy -594929.889490 kJ/mol
# GULP energy per Si atom -12394.372698 kJ/mol
# Density = 2.071060 g / cm^3
# Si number density = 20.757844 Si / 1000 Ang^3
#
#
#
# Elastic Constant Matrix: (Units=GPa)
#
#
# Indices 1 2 3 4 5 6 
#
# 1 71.0133 8.5028 31.0794 0.0000 0.0000 3.9874
# 2 8.5028 71.0133 31.0794 0.0000 0.0000 -3.9874
# 3 31.0794 31.0794 126.7447 0.0000 0.0000 0.0000
# 4 0.0000 0.0000 0.0000 18.7457 0.0000 0.0000
# 5 0.0000 0.0000 0.0000 0.0000 18.7457 0.0000
# 6 3.9874 -3.9874 0.0000 0.0000 0.0000 27.8047
#
#
#
# Elastic Compliance Matrix: (Units=1/GPa)
#
#
# Indices 1 2 3 4 5 6 
#
# 1 0.015927 -0.000369 -0.003815 0.000000 0.000000 -0.002337
# 2 -0.000369 0.015927 -0.003815 0.000000 0.000000 0.002337
# 3 -0.003815 -0.003815 0.009761 0.000000 0.000000 0.000000
# 4 0.000000 0.000000 0.000000 0.053346 0.000000 0.000000
# 5 0.000000 0.000000 0.000000 0.000000 0.053346 0.000000
# 6 -0.002337 0.002337 0.000000 0.000000 0.000000 0.036635
#
#
# Mechanical properties :
#
#
# Convention : Reuss Voigt Hill
#
# Bulk Modulus (GPa) = 39.03622 45.56607 42.30114
# Shear Modulus (GPa) = 23.86887 26.26654 25.06770
#
# Velocity S-wave (km/s) = 3.39466 3.56108 3.47886
# Velocity P-wave (km/s) = 5.84904 6.23757 6.04643
#
# Compressibility (1/GPa) = 0.02561723
#
# Stress axis : x y z
#
# Youngs Moduli (GPa) = 62.78677 62.78677 102.44942
#
# Poissons Ratio (x) = 0.02314 0.39086
# Poissons Ratio (y) = 0.02314 0.39086
# Poissons Ratio (z) = 0.23954 0.23954
#
# Static dielectric constant tensor:
#      x y z
#    x 3.835880 0.000000 0.000000 
#    y 0.000000 3.835880 0.000000 
#    z 0.000000 0.000000 3.390160 
# 
# 
# High freq. dielectric constant tensor:
#      x y z
#    x 1.814640 0.000000 0.000000 
#    y 0.000000 1.814640 0.000000 
#    z 0.000000 0.000000 1.782250 
# 
# From -- ./inp_files/5324.got.cif
#   From: 2010.03.12/outbox.cif.g09.slc.cpg/sg87_3_cif.got.tgz:5324.got - 2010.04.08 20:16:13.
