data_PCOD8303533
_publ_section_title
;
Structure prediction by ZEFSAII (Michael W. Deem and Ramdas Pophale) SiO2 
 PCOD8303533
Probable space group: P 42/N
;
_chemical_formula_sum "Si O2"
_cell_formula_units_Z 56
_cell_length_a 11.788306
_cell_length_b 11.788306
_cell_length_c 20.945806
_cell_angle_alpha 90.000000
_cell_angle_beta 90.000000
_cell_angle_gamma 90.000000
_cell_volume 2910.716302
_symmetry_space_group_name_H-M "P 42/N"
_symmetry_group_IT_number 86
_space_group.IT_coordinate_system_code '2'
_symmetry_cell_setting 'tetragonal'
loop_
_space_group_symop_operation_xyz
x,y,z
-y,1/2+x,1/2+z
1/2-x,1/2-y,z
1/2+y,-x,1/2+z
-x,-y,-z
y,1/2-x,1/2-z
1/2+x,1/2+y,-z
1/2-y,x,1/2-z
loop_
_atom_site_type_symbol
_atom_site_label
_atom_site_fract_x
_atom_site_fract_y
_atom_site_fract_z
Si Si1 0.576975 0.958818 0.557355
Si Si2 0.322588 0.473581 0.413566
Si Si3 0.265558 0.092354 0.283314
Si Si4 0.686410 0.022417 0.117641
Si Si5 0.929732 0.416630 0.681671
Si Si6 0.273289 0.120525 0.004736
Si Si7 0.869617 0.873766 0.269829
O O1 0.527858 0.999741 0.625130
O O2 0.500000 0.000000 0.500000
O O3 0.704591 0.011158 0.552717
O O4 0.584034 0.822547 0.555459
O O5 0.295406 0.393550 0.352024
O O6 0.388907 0.587394 0.396124
O O7 0.394254 0.395998 0.462257
O O8 0.124956 0.323084 0.273209
O O9 0.312623 0.962438 0.285603
O O10 0.734689 0.966009 0.053939
O O11 0.638350 0.919527 0.159782
O O12 0.788745 0.085547 0.155102
O O13 0.021514 0.429531 0.736558
O O14 0.250000 0.250000 0.982065
O O15 0.893774 0.764923 0.224925
#
# Coordination Sequence:
#
# PCOD8303533 Si02
#       7
#     8   8   8   8   8   8   8
#     4  10  20  37  57  86 115 159 201 245 309 370
#     4  10  23  38  59  90 119 154 207 257 304 378
#     4  10  22  36  59  84 115 161 198 248 307 371
#     4  11  21  38  62  90 120 158 203 258 316 365
#     4  10  21  37  58  88 120 156 203 253 307 376
#     4  10  22  37  61  88 117 160 205 254 303 376
#     4   9  20  35  58  85 117 157 204 247 301 372
#
# _framework density 19.239249000000001
#
# number of rings (size 3 to 8) (size 9 to 14) (size 15 to 20)
#    0.000    2.000    1.429    1.286   14.000    2.286 
#    0.000    0.000    0.000    0.000    0.000    0.000 
#    0.000    0.000    0.000    0.000    0.000    0.000 
#
# Total GULP energy -693930.759366 kJ/mol
# GULP energy per Si atom -12391.620703 kJ/mol
# Density = 1.919546 g / cm^3
# Si number density = 19.239249 Si / 1000 Ang^3
#
#
#
# Elastic Constant Matrix: (Units=GPa)
#
#
# Indices 1 2 3 4 5 6 
#
# 1 82.9279 46.3449 28.2151 0.0000 0.0000 -6.2065
# 2 46.3449 82.9279 28.2151 0.0000 0.0000 6.2065
# 3 28.2151 28.2151 60.7179 0.0000 0.0000 0.0000
# 4 0.0000 0.0000 0.0000 36.3298 0.0000 0.0000
# 5 0.0000 0.0000 0.0000 0.0000 36.3298 0.0000
# 6 -6.2065 6.2065 0.0000 0.0000 0.0000 38.8992
#
#
#
# Elastic Compliance Matrix: (Units=1/GPa)
#
#
# Indices 1 2 3 4 5 6 
#
# 1 0.019302 -0.009598 -0.004509 0.000000 0.000000 0.004611
# 2 -0.009598 0.019302 -0.004509 0.000000 0.000000 -0.004611
# 3 -0.004509 -0.004509 0.020661 0.000000 0.000000 0.000000
# 4 0.000000 0.000000 0.000000 0.027526 0.000000 0.000000
# 5 0.000000 0.000000 0.000000 0.000000 0.027526 0.000000
# 6 0.004611 -0.004611 0.000000 0.000000 0.000000 0.027179
#
#
# Mechanical properties :
#
#
# Convention : Reuss Voigt Hill
#
# Bulk Modulus (GPa) = 45.39045 48.01378 46.70211
# Shear Modulus (GPa) = 26.87144 30.56500 28.71822
#
# Velocity S-wave (km/s) = 3.74130 3.99015 3.86773
# Velocity P-wave (km/s) = 6.50438 6.79991 6.65378
#
# Compressibility (1/GPa) = 0.02203107
#
# Stress axis : x y z
#
# Youngs Moduli (GPa) = 51.80855 51.80855 48.40146
#
# Poissons Ratio (x) = 0.49725 0.21826
# Poissons Ratio (y) = 0.49725 0.21826
# Poissons Ratio (z) = 0.23362 0.23362
#
# Static dielectric constant tensor:
#      x y z
#    x 3.580720 0.000000 0.000000 
#    y 0.000000 3.580720 0.000000 
#    z 0.000000 0.000000 3.505650 
# 
# 
# High freq. dielectric constant tensor:
#      x y z
#    x 1.744880 0.000000 0.000000 
#    y 0.000000 1.744880 0.000000 
#    z 0.000000 0.000000 1.742580 
# 
# From -- ./inp_files/4642.got.cif
#   From: 2010.03.12/outbox.cif.g09.slc.cpg/sg86_3_cif.got.tgz:4642.got - 2010.04.08 20:12:58.
