data_PCOD8303955
_publ_section_title
;
Structure prediction by ZEFSAII (Michael W. Deem and Ramdas Pophale) SiO2 
 PCOD8303955
Probable space group: I 4/M
;
_chemical_formula_sum "Si O2"
_cell_formula_units_Z 112
_cell_length_a 15.063312
_cell_length_b 15.063312
_cell_length_c 23.640532
_cell_angle_alpha 90.000000
_cell_angle_beta 90.000000
_cell_angle_gamma 90.000000
_cell_volume 5364.116342
_symmetry_space_group_name_H-M "I 4/M"
_symmetry_group_IT_number 87
_symmetry_cell_setting 'tetragonal'
loop_
_space_group_symop_operation_xyz
x,y,z
-y,x,z
-x,-y,z
y,-x,z
-x,-y,-z
y,-x,-z
x,y,-z
-y,x,-z
1/2+x,1/2+y,1/2+z
1/2-y,1/2+x,1/2+z
1/2-x,1/2-y,1/2+z
1/2+y,1/2-x,1/2+z
1/2-x,1/2-y,1/2-z
1/2+y,1/2-x,1/2-z
1/2+x,1/2+y,1/2-z
1/2-y,1/2+x,1/2-z
loop_
_atom_site_type_symbol
_atom_site_label
_atom_site_fract_x
_atom_site_fract_y
_atom_site_fract_z
Si Si1 0.530195 0.135501 0.763916
Si Si2 0.152920 0.787308 0.758730
Si Si3 0.493709 0.232721 0.881865
Si Si4 0.183944 0.171075 0.634691
Si Si5 0.817608 0.160839 0.123292
Si Si6 0.432081 0.066589 0.064487
Si Si7 0.518616 0.258783 0.432757
O O1 0.600744 0.054561 0.771558
O O2 0.580462 0.210847 0.727714
O O3 0.500004 0.175174 0.824117
O O4 0.250000 0.750000 0.750000
O O5 0.132726 0.830542 0.698306
O O6 0.151781 0.855506 0.811458
O O7 0.414402 0.303351 0.883292
O O8 0.585422 0.280365 0.899344
O O9 0.469413 0.165375 0.931629
O O10 0.253765 0.251466 0.624384
O O11 0.905211 0.172127 0.084967
O O12 0.770581 0.074287 0.099241
O O13 0.334604 0.056043 0.090429
O O14 0.500000 0.000000 0.096132
O O15 0.423288 0.037415 0.000000
O O16 0.503520 0.265268 0.500000
#
# Coordination Sequence:
#
# PCOD8303955 Si02
#       7
#    16  16  16  16  16  16  16
#     4  10  21  33  56  92 122 166 217 269 325 392
#     4   9  20  36  54  84 129 166 209 264 324 394
#     4  11  22  41  63  89 133 167 218 264 334 399
#     4  10  22  40  62  94 128 178 213 266 332 403
#     4  11  22  40  62  91 129 173 219 273 342 385
#     4  10  22  40  63  93 121 154 209 276 332 383
#     4  11  24  41  65  92 125 171 224 278 333 399
#
# _framework density 20.879486
#
# number of rings (size 3 to 8) (size 9 to 14) (size 15 to 20)
#    0.000    1.714    1.429    3.000    2.000    6.286 
#    0.000    2.143    0.000    3.429    0.000    1.000 
#    0.000    0.000    0.000    0.000    0.000    0.000 
#
# Total GULP energy -693959.025505 kJ/mol
# GULP energy per Si atom -12392.125455 kJ/mol
# Density = 2.083196 g / cm^3
# Si number density = 20.879486 Si / 1000 Ang^3
#
#
#
# Elastic Constant Matrix: (Units=GPa)
#
#
# Indices 1 2 3 4 5 6 
#
# 1 110.5775 39.5332 26.5832 0.0000 0.0000 2.2075
# 2 39.5332 110.5775 26.5832 0.0000 0.0000 -2.2075
# 3 26.5832 26.5832 63.2887 0.0000 0.0000 0.0000
# 4 0.0000 0.0000 0.0000 26.5345 0.0000 0.0000
# 5 0.0000 0.0000 0.0000 0.0000 26.5345 0.0000
# 6 2.2075 -2.2075 0.0000 0.0000 0.0000 52.4086
#
#
#
# Elastic Compliance Matrix: (Units=1/GPa)
#
#
# Indices 1 2 3 4 5 6 
#
# 1 0.010969 -0.003143 -0.003287 0.000000 0.000000 -0.000594
# 2 -0.003143 0.010969 -0.003287 0.000000 0.000000 0.000594
# 3 -0.003287 -0.003287 0.018562 0.000000 0.000000 0.000000
# 4 0.000000 0.000000 0.000000 0.037687 0.000000 0.000000
# 5 0.000000 0.000000 0.000000 0.000000 0.037687 0.000000
# 6 -0.000594 0.000594 0.000000 0.000000 0.000000 0.019131
#
#
# Mechanical properties :
#
#
# Convention : Reuss Voigt Hill
#
# Bulk Modulus (GPa) = 47.47128 52.20481 49.83804
# Shear Modulus (GPa) = 30.96698 33.87846 32.42272
#
# Velocity S-wave (km/s) = 3.85532 4.03249 3.94490
# Velocity P-wave (km/s) = 6.52711 6.83655 6.68362
#
# Compressibility (1/GPa) = 0.02106537
#
# Stress axis : x y z
#
# Youngs Moduli (GPa) = 91.16325 91.16325 53.87344
#
# Poissons Ratio (x) = 0.28656 0.17709
# Poissons Ratio (y) = 0.28656 0.17709
# Poissons Ratio (z) = 0.29967 0.29967
#
# Static dielectric constant tensor:
#      x y z
#    x 3.703020 0.000000 0.000000 
#    y 0.000000 3.703020 0.000000 
#    z 0.000000 0.000000 3.935770 
# 
# 
# High freq. dielectric constant tensor:
#      x y z
#    x 1.816270 0.000000 0.000000 
#    y 0.000000 1.816270 0.000000 
#    z 0.000000 0.000000 1.802240 
# 
# From -- ./inp_files/5869.got.cif
#   From: 2010.03.12/outbox.cif.g09.slc.cpg/sg87_3_cif.got.tgz:5869.got - 2010.04.08 20:16:13.
