data_PCOD8303279
_publ_section_title
;
Structure prediction by ZEFSAII (Michael W. Deem and Ramdas Pophale) SiO2 
 PCOD8303279
Probable space group: P 42/M
;
_chemical_formula_sum "Si O2"
_cell_formula_units_Z 40
_cell_length_a 14.693167
_cell_length_b 14.693167
_cell_length_c 9.997642
_cell_angle_alpha 90.000000
_cell_angle_beta 90.000000
_cell_angle_gamma 90.000000
_cell_volume 2158.382498
_symmetry_space_group_name_H-M "P 42/M"
_symmetry_group_IT_number 84
_symmetry_cell_setting 'tetragonal'
loop_
_space_group_symop_operation_xyz
x,y,z
-y,x,1/2+z
-x,-y,z
y,-x,1/2+z
-x,-y,-z
y,-x,1/2-z
x,y,-z
-y,x,1/2-z
loop_
_atom_site_type_symbol
_atom_site_label
_atom_site_fract_x
_atom_site_fract_y
_atom_site_fract_z
Si Si1 0.863973 0.244534 0.758326
Si Si2 0.071190 0.570869 0.848437
Si Si3 0.918405 0.134964 0.500000
Si Si4 0.268411 0.487320 0.852253
Si Si5 0.123352 0.075256 0.500000
Si Si6 0.329220 0.683762 0.843619
O O1 0.925344 0.336152 0.763228
O O2 0.880331 0.192176 0.622509
O O3 0.892822 0.175141 0.870744
O O4 0.758909 0.271316 0.776307
O O5 0.166290 0.521093 0.850286
O O6 0.000000 0.500000 0.783408
O O7 0.041988 0.596944 0.000000
O O8 0.026800 0.126219 0.500000
O O9 0.879466 0.033560 0.500000
O O10 0.331660 0.574916 0.826826
O O11 0.279700 0.416452 0.733681
O O12 0.290447 0.445574 0.000000
O O13 0.333304 0.711248 0.000000
#
# Coordination Sequence:
#
# PCOD8303279 Si02
#       6
#     8   8   4   8   4   8
#     4  11  21  41  60  86 121 156 192 242 294 345
#     4   9  18  37  61  85 115 155 197 239 290 350
#     4  11  26  36  61  92 116 151 205 242 284 344
#     4   9  20  36  59  85 115 151 197 241 286 351
#     4  11  22  44  59  82 122 159 193 244 290 342
#     4  10  21  40  59  85 120 156 189 240 301 346
#
# _framework density 18.532397
#
# number of rings (size 3 to 8) (size 9 to 14) (size 15 to 20)
#    0.000    2.000    2.000    2.400    1.400    6.000 
#    5.400    2.500    0.000    0.000    0.000    0.000 
#    0.000    0.000    0.000    0.000    0.000    0.000 
#
# Total GULP energy -495895.886292 kJ/mol
# GULP energy per Si atom -12397.397157 kJ/mol
# Density = 1.849022 g / cm^3
# Si number density = 18.532397 Si / 1000 Ang^3
#
#
#
# Elastic Constant Matrix: (Units=GPa)
#
#
# Indices 1 2 3 4 5 6 
#
# 1 80.4081 45.7643 55.7677 0.0000 0.0000 14.6423
# 2 45.7643 80.4081 55.7677 0.0000 0.0000 -14.6423
# 3 55.7677 55.7677 138.0665 0.0000 0.0000 0.0000
# 4 0.0000 0.0000 0.0000 35.6730 0.0000 0.0000
# 5 0.0000 0.0000 0.0000 0.0000 35.6730 0.0000
# 6 14.6423 -14.6423 0.0000 0.0000 0.0000 22.0266
#
#
#
# Elastic Compliance Matrix: (Units=1/GPa)
#
#
# Indices 1 2 3 4 5 6 
#
# 1 0.039108 -0.026781 -0.004979 0.000000 0.000000 -0.043800
# 2 -0.026781 0.039108 -0.004979 0.000000 0.000000 0.043800
# 3 -0.004979 -0.004979 0.011265 0.000000 0.000000 0.000000
# 4 0.000000 0.000000 0.000000 0.028032 0.000000 0.000000
# 5 0.000000 0.000000 0.000000 0.000000 0.028032 0.000000
# 6 -0.043800 0.043800 0.000000 0.000000 0.000000 0.103633
#
#
# Mechanical properties :
#
#
# Convention : Reuss Voigt Hill
#
# Bulk Modulus (GPa) = 62.48853 68.16469 65.32661
# Shear Modulus (GPa) = 15.24422 28.11340 21.67881
#
# Velocity S-wave (km/s) = 2.87116 3.89908 3.42391
# Velocity P-wave (km/s) = 6.69202 7.55855 7.13844
#
# Compressibility (1/GPa) = 0.01600294
#
# Stress axis : x y z
#
# Youngs Moduli (GPa) = 25.56990 25.56990 88.76827
#
# Poissons Ratio (x) = 0.68479 0.44200
# Poissons Ratio (y) = 0.68479 0.44200
# Poissons Ratio (z) = 0.12732 0.12732
#
# Static dielectric constant tensor:
#      x y z
#    x 3.600100 0.000000 0.000000 
#    y 0.000000 3.600100 0.000000 
#    z 0.000000 0.000000 3.325680 
# 
# 
# High freq. dielectric constant tensor:
#      x y z
#    x 1.724920 0.000000 0.000000 
#    y 0.000000 1.724920 0.000000 
#    z 0.000000 0.000000 1.715700 
# 
# From -- ./inp_files/815.got.cif
#   From: 2010.03.12/outbox.cif.g09.slc.cpg/sg84_1_cif.got.tgz:815.got - 2010.04.08 20:07:29.
