data_PCOD8303897
_publ_section_title
;
Structure prediction by ZEFSAII (Michael W. Deem and Ramdas Pophale) SiO2 
 PCOD8303897
Probable space group: I 4/M
;
_chemical_formula_sum "Si O2"
_cell_formula_units_Z 96
_cell_length_a 24.014251
_cell_length_b 24.014251
_cell_length_c 8.721934
_cell_angle_alpha 90.000000
_cell_angle_beta 90.000000
_cell_angle_gamma 90.000000
_cell_volume 5029.801977
_symmetry_space_group_name_H-M "I 4/M"
_symmetry_group_IT_number 87
_symmetry_cell_setting 'tetragonal'
loop_
_space_group_symop_operation_xyz
x,y,z
-y,x,z
-x,-y,z
y,-x,z
-x,-y,-z
y,-x,-z
x,y,-z
-y,x,-z
1/2+x,1/2+y,1/2+z
1/2-y,1/2+x,1/2+z
1/2-x,1/2-y,1/2+z
1/2+y,1/2-x,1/2+z
1/2-x,1/2-y,1/2-z
1/2+y,1/2-x,1/2-z
1/2+x,1/2+y,1/2-z
1/2-y,1/2+x,1/2-z
loop_
_atom_site_type_symbol
_atom_site_label
_atom_site_fract_x
_atom_site_fract_y
_atom_site_fract_z
Si Si1 0.848309 0.227801 0.821086
Si Si2 0.644090 0.147090 0.319518
Si Si3 0.436433 0.635940 0.321344
Si Si4 0.141714 0.946451 0.320719
Si Si5 0.558239 0.061042 0.817870
Si Si6 0.770328 0.144692 0.321770
O O1 0.862095 0.289487 0.759590
O O2 0.900256 0.189481 0.775005
O O3 0.791220 0.202001 0.754935
O O4 0.838382 0.232238 0.000000
O O5 0.631198 0.141148 0.500000
O O6 0.602135 0.108526 0.225793
O O7 0.707167 0.129264 0.279384
O O8 0.430727 0.621820 0.500000
O O9 0.416479 0.582708 0.223529
O O10 0.498941 0.650022 0.278687
O O11 0.142707 0.960563 0.500000
O O12 0.192033 0.906811 0.267663
O O13 0.497666 0.077893 0.753307
O O14 0.554664 0.055206 0.000000
O O15 0.777058 0.155328 0.500000
#
# Coordination Sequence:
#
# PCOD8303897 Si02
#       6
#    16  16  16  16  16  16
#     4   9  19  34  54  79 112 147 181 223 270 316
#     4  10  20  36  57  85 115 145 182 222 263 318
#     4  10  20  35  53  76 104 139 178 221 268 316
#     4  10  20  35  53  76 104 139 178 221 268 316
#     4  11  23  41  62  83 109 143 179 223 274 325
#     4   9  19  34  54  79 112 147 181 223 270 316
#
# _framework density 19.08624
#
# number of rings (size 3 to 8) (size 9 to 14) (size 15 to 20)
#    0.000    2.167    0.000    3.500    0.000    4.333 
#    0.000    5.000    0.000    0.000    0.000    0.000 
#    0.000    0.000    0.000    0.000    0.000    0.000 
#
# Total GULP energy -595266.835041 kJ/mol
# GULP energy per Si atom -12401.392397 kJ/mol
# Density = 1.904280 g / cm^3
# Si number density = 19.086240 Si / 1000 Ang^3
#
#
#
# Elastic Constant Matrix: (Units=GPa)
#
#
# Indices 1 2 3 4 5 6 
#
# 1 80.2716 39.0797 25.9585 0.0000 0.0000 6.3800
# 2 39.0797 80.2716 25.9585 0.0000 0.0000 -6.3800
# 3 25.9585 25.9585 60.2047 0.0000 0.0000 0.0000
# 4 0.0000 0.0000 0.0000 29.3946 0.0000 0.0000
# 5 0.0000 0.0000 0.0000 0.0000 29.3946 0.0000
# 6 6.3800 -6.3800 0.0000 0.0000 0.0000 22.5236
#
#
#
# Elastic Compliance Matrix: (Units=1/GPa)
#
#
# Indices 1 2 3 4 5 6 
#
# 1 0.018462 -0.008149 -0.004447 0.000000 0.000000 -0.007538
# 2 -0.008149 0.018462 -0.004447 0.000000 0.000000 0.007538
# 3 -0.004447 -0.004447 0.020444 0.000000 0.000000 0.000000
# 4 0.000000 0.000000 0.000000 0.034020 0.000000 0.000000
# 5 0.000000 0.000000 0.000000 0.000000 0.034020 0.000000
# 6 -0.007538 0.007538 0.000000 0.000000 0.000000 0.048668
#
#
# Mechanical properties :
#
#
# Convention : Reuss Voigt Hill
#
# Bulk Modulus (GPa) = 42.94829 44.74902 43.84866
# Shear Modulus (GPa) = 23.15637 24.91265 24.03451
#
# Velocity S-wave (km/s) = 3.48695 3.61677 3.55245
# Velocity P-wave (km/s) = 6.22598 6.39828 6.31272
#
# Compressibility (1/GPa) = 0.02328381
#
# Stress axis : x y z
#
# Youngs Moduli (GPa) = 54.16456 54.16456 48.91292
#
# Poissons Ratio (x) = 0.44141 0.21750
# Poissons Ratio (y) = 0.44141 0.21750
# Poissons Ratio (z) = 0.24085 0.24085
#
# Static dielectric constant tensor:
#      x y z
#    x 3.637300 0.000000 0.000000 
#    y 0.000000 3.637300 0.000000 
#    z 0.000000 0.000000 3.425560 
# 
# 
# High freq. dielectric constant tensor:
#      x y z
#    x 1.745310 0.000000 0.000000 
#    y 0.000000 1.745310 0.000000 
#    z 0.000000 0.000000 1.741780 
# 
# From -- ./inp_files/1448.got.cif
#   From: 2010.03.12/outbox.cif.g09.slc.cpg/sg87_1_cif.got.tgz:1448.got - 2010.04.08 20:16:13.
