data_PCOD8303898
_publ_section_title
;
Structure prediction by ZEFSAII (Michael W. Deem and Ramdas Pophale) SiO2 
 PCOD8303898
Probable space group: I 4/M
;
_chemical_formula_sum "Si O2"
_cell_formula_units_Z 96
_cell_length_a 24.073150
_cell_length_b 24.073150
_cell_length_c 8.544067
_cell_angle_alpha 90.000000
_cell_angle_beta 90.000000
_cell_angle_gamma 90.000000
_cell_volume 4951.428239
_symmetry_space_group_name_H-M "I 4/M"
_symmetry_group_IT_number 87
_symmetry_cell_setting 'tetragonal'
loop_
_space_group_symop_operation_xyz
x,y,z
-y,x,z
-x,-y,z
y,-x,z
-x,-y,-z
y,-x,-z
x,y,-z
-y,x,-z
1/2+x,1/2+y,1/2+z
1/2-y,1/2+x,1/2+z
1/2-x,1/2-y,1/2+z
1/2+y,1/2-x,1/2+z
1/2-x,1/2-y,1/2-z
1/2+y,1/2-x,1/2-z
1/2+x,1/2+y,1/2-z
1/2-y,1/2+x,1/2-z
loop_
_atom_site_type_symbol
_atom_site_label
_atom_site_fract_x
_atom_site_fract_y
_atom_site_fract_z
Si Si1 0.227798 0.846960 0.317223
Si Si2 0.558500 0.346884 0.680237
Si Si3 0.433173 0.350658 0.320700
Si Si4 0.137447 0.761551 0.317756
Si Si5 0.562553 0.057473 0.815406
Si Si6 0.645690 0.852229 0.816257
O O1 0.233197 0.838364 0.500000
O O2 0.196071 0.903771 0.282437
O O3 0.192670 0.793823 0.251684
O O4 0.289505 0.852382 0.245858
O O5 0.562465 0.327165 0.500000
O O6 0.495982 0.356210 0.736157
O O7 0.589576 0.405210 0.703933
O O8 0.584643 0.300772 0.792541
O O9 0.428974 0.331347 0.500000
O O10 0.143521 0.746978 0.500000
O O11 0.123813 0.706458 0.219808
O O12 0.505239 0.077593 0.735813
O O13 0.612562 0.098157 0.768940
O O14 0.554007 0.058880 0.000000
O O15 0.633087 0.853825 0.000000
#
# Coordination Sequence:
#
# PCOD8303898 Si02
#       6
#    16  16  16  16  16  16
#     4   9  20  36  54  77 109 143 178 221 272 323
#     4   9  18  33  51  75 105 141 181 224 270 319
#     4   9  18  32  52  75 104 140 180 223 269 317
#     4  10  20  35  54  79 109 143 179 223 275 325
#     4  11  23  42  64  86 113 145 179 221 270 322
#     4  11  22  37  58  84 110 142 182 223 265 321
#
# _framework density 19.388345999999999
#
# number of rings (size 3 to 8) (size 9 to 14) (size 15 to 20)
#    0.000    2.167    0.000    3.500    0.000    4.333 
#    0.000    5.000    0.000    0.000    0.000    4.667 
#    0.000    0.000    0.000    0.000    0.000    0.000 
#
# Total GULP energy -595196.679165 kJ/mol
# GULP energy per Si atom -12399.930816 kJ/mol
# Density = 1.934422 g / cm^3
# Si number density = 19.388346 Si / 1000 Ang^3
#
#
#
# Elastic Constant Matrix: (Units=GPa)
#
#
# Indices 1 2 3 4 5 6 
#
# 1 89.6649 38.3488 14.7188 0.0000 0.0000 -1.3963
# 2 38.3488 89.6649 14.7188 0.0000 0.0000 1.3963
# 3 14.7188 14.7188 47.5402 0.0000 0.0000 0.0000
# 4 0.0000 0.0000 0.0000 28.9994 0.0000 0.0000
# 5 0.0000 0.0000 0.0000 0.0000 28.9994 0.0000
# 6 -1.3963 1.3963 0.0000 0.0000 0.0000 23.7889
#
#
#
# Elastic Compliance Matrix: (Units=1/GPa)
#
#
# Indices 1 2 3 4 5 6 
#
# 1 0.013980 -0.005570 -0.002604 0.000000 0.000000 0.001147
# 2 -0.005570 0.013980 -0.002604 0.000000 0.000000 -0.001147
# 3 -0.002604 -0.002604 0.022647 0.000000 0.000000 0.000000
# 4 0.000000 0.000000 0.000000 0.034484 0.000000 0.000000
# 5 0.000000 0.000000 0.000000 0.000000 0.034484 0.000000
# 6 0.001147 -0.001147 0.000000 0.000000 0.000000 0.042171
#
#
# Mechanical properties :
#
#
# Convention : Reuss Voigt Hill
#
# Bulk Modulus (GPa) = 34.42061 40.27144 37.34602
# Shear Modulus (GPa) = 25.90885 26.96311 26.43598
#
# Velocity S-wave (km/s) = 3.65952 3.73324 3.69656
# Velocity P-wave (km/s) = 5.97059 6.27684 6.12563
#
# Compressibility (1/GPa) = 0.02905236
#
# Stress axis : x y z
#
# Youngs Moduli (GPa) = 71.53079 71.53079 44.15554
#
# Poissons Ratio (x) = 0.39839 0.11498
# Poissons Ratio (y) = 0.39839 0.11498
# Poissons Ratio (z) = 0.18626 0.18626
#
# Static dielectric constant tensor:
#      x y z
#    x 3.598440 0.000000 0.000000 
#    y 0.000000 3.598440 0.000000 
#    z 0.000000 0.000000 3.448570 
# 
# 
# High freq. dielectric constant tensor:
#      x y z
#    x 1.755650 0.000000 0.000000 
#    y 0.000000 1.755650 0.000000 
#    z 0.000000 0.000000 1.749740 
# 
# From -- ./inp_files/1355.got.cif
#   From: 2010.03.12/outbox.cif.g09.slc.cpg/sg87_1_cif.got.tgz:1355.got - 2010.04.08 20:16:13.
