data_PCOD8303084
_publ_section_title
;
Structure prediction by ZEFSAII (Michael W. Deem and Ramdas Pophale) SiO2 
 PCOD8303084
Probable space group: P 42/M
;
_chemical_formula_sum "Si O2"
_cell_formula_units_Z 40
_cell_length_a 9.624753
_cell_length_b 9.624753
_cell_length_c 23.853237
_cell_angle_alpha 90.000000
_cell_angle_beta 90.000000
_cell_angle_gamma 90.000000
_cell_volume 2209.665369
_symmetry_space_group_name_H-M "P 42/M"
_symmetry_group_IT_number 84
_symmetry_cell_setting 'tetragonal'
loop_
_space_group_symop_operation_xyz
x,y,z
-y,x,1/2+z
-x,-y,z
y,-x,1/2+z
-x,-y,-z
y,-x,1/2-z
x,y,-z
-y,x,1/2-z
loop_
_atom_site_type_symbol
_atom_site_label
_atom_site_fract_x
_atom_site_fract_y
_atom_site_fract_z
Si Si1 0.338146 0.995743 0.864833
Si Si2 0.943219 0.778419 0.249423
Si Si3 0.835451 0.496011 0.060635
Si Si4 0.749052 0.145520 0.369178
Si Si5 0.192302 0.133825 0.433384
O O1 0.324050 0.929469 0.802638
O O2 0.245958 0.915405 0.910468
O O3 0.500000 0.000000 0.882482
O O4 0.275037 0.148945 0.863560
O O5 0.907119 0.699623 0.191889
O O6 0.097290 0.836073 0.241567
O O7 0.786128 0.613196 0.103292
O O8 0.796134 0.341425 0.080333
O O9 0.000000 0.500000 0.055494
O O10 0.768240 0.528507 0.000000
O O11 0.820144 0.017997 0.403803
O O12 0.170919 0.110971 0.500000
#
# Coordination Sequence:
#
# PCOD8303084 Si02
#       5
#     8   8   8   8   8
#     4  11  23  35  50  81 116 143 175 219 272 328
#     4   9  17  33  54  77 104 135 176 219 266 316
#     4   8  16  31  54  83 104 128 180 230 261 304
#     4  10  18  34  59  81 103 140 181 226 268 317
#     4  10  20  36  57  81 109 142 180 225 269 314
#
# _framework density 18.102288000000001
#
# number of rings (size 3 to 8) (size 9 to 14) (size 15 to 20)
#    0.000    2.400    2.000    2.400    0.000    5.200 
#    0.000    1.000    0.000    2.400    0.000    0.000 
#    0.000    0.000    0.000    0.000    0.000    0.000 
#
# Total GULP energy -495720.058228 kJ/mol
# GULP energy per Si atom -12393.001456 kJ/mol
# Density = 1.806109 g / cm^3
# Si number density = 18.102288 Si / 1000 Ang^3
#
#
#
# Elastic Constant Matrix: (Units=GPa)
#
#
# Indices 1 2 3 4 5 6 
#
# 1 66.3924 10.8137 27.5281 0.0000 0.0000 0.3360
# 2 10.8137 66.3924 27.5281 0.0000 0.0000 -0.3360
# 3 27.5281 27.5281 104.6631 0.0000 0.0000 0.0000
# 4 0.0000 0.0000 0.0000 10.0981 0.0000 0.0000
# 5 0.0000 0.0000 0.0000 0.0000 10.0981 0.0000
# 6 0.3360 -0.3360 0.0000 0.0000 0.0000 5.4501
#
#
#
# Elastic Compliance Matrix: (Units=1/GPa)
#
#
# Indices 1 2 3 4 5 6 
#
# 1 0.016974 -0.001032 -0.004193 0.000000 0.000000 -0.001110
# 2 -0.001032 0.016974 -0.004193 0.000000 0.000000 0.001110
# 3 -0.004193 -0.004193 0.011760 0.000000 0.000000 0.000000
# 4 0.000000 0.000000 0.000000 0.099029 0.000000 0.000000
# 5 0.000000 0.000000 0.000000 0.000000 0.099029 0.000000
# 6 -0.001110 0.001110 0.000000 0.000000 0.000000 0.183621
#
#
# Mechanical properties :
#
#
# Convention : Reuss Voigt Hill
#
# Bulk Modulus (GPa) = 37.21255 41.02085 39.11670
# Shear Modulus (GPa) = 10.98465 16.56779 13.77622
#
# Velocity S-wave (km/s) = 2.46602 3.02856 2.76165
# Velocity P-wave (km/s) = 5.35815 5.91095 5.64133
#
# Compressibility (1/GPa) = 0.02687265
#
# Stress axis : x y z
#
# Youngs Moduli (GPa) = 58.91291 58.91291 85.03268
#
# Poissons Ratio (x) = 0.06078 0.35655
# Poissons Ratio (y) = 0.06078 0.35655
# Poissons Ratio (z) = 0.24703 0.24703
#
# Static dielectric constant tensor:
#      x y z
#    x 3.249490 0.000000 0.000000 
#    y 0.000000 3.249490 0.000000 
#    z 0.000000 0.000000 3.663740 
# 
# 
# High freq. dielectric constant tensor:
#      x y z
#    x 1.674240 0.000000 0.000000 
#    y 0.000000 1.674240 0.000000 
#    z 0.000000 0.000000 1.718520 
# 
# From -- ./inp_files/5328.got.cif
#   From: 2010.03.12/outbox.cif.g09.slc.cpg/sg84_3_cif.got.tgz:5328.got - 2010.04.08 20:07:29.
