data_PCOD8303086
_publ_section_title
;
Structure prediction by ZEFSAII (Michael W. Deem and Ramdas Pophale) SiO2 
 PCOD8303086
Probable space group: P 42/M
;
_chemical_formula_sum "Si O2"
_cell_formula_units_Z 48
_cell_length_a 9.887481
_cell_length_b 9.887481
_cell_length_c 26.764592
_cell_angle_alpha 90.000000
_cell_angle_beta 90.000000
_cell_angle_gamma 90.000000
_cell_volume 2616.567551
_symmetry_space_group_name_H-M "P 42/M"
_symmetry_group_IT_number 84
_symmetry_cell_setting 'tetragonal'
loop_
_space_group_symop_operation_xyz
x,y,z
-y,x,1/2+z
-x,-y,z
y,-x,1/2+z
-x,-y,-z
y,-x,1/2-z
x,y,-z
-y,x,1/2-z
loop_
_atom_site_type_symbol
_atom_site_label
_atom_site_fract_x
_atom_site_fract_y
_atom_site_fract_z
Si Si1 0.263223 0.359890 0.794838
Si Si2 0.327942 0.247214 0.306248
Si Si3 0.017750 0.341891 0.136261
Si Si4 0.403720 0.122496 0.058379
Si Si5 0.090638 0.126162 0.941770
Si Si6 0.499516 0.345489 0.132165
O O1 0.251265 0.519261 0.786257
O O2 0.239147 0.282566 0.742475
O O3 0.407896 0.325612 0.818745
O O4 0.151616 0.309499 0.833152
O O5 0.288392 0.103095 0.328857
O O6 0.301710 0.351019 0.351382
O O7 0.000000 0.500000 0.122728
O O8 0.031796 0.258825 0.085258
O O9 0.246957 0.092400 0.071194
O O10 0.449761 0.257690 0.085966
O O11 0.500000 0.000000 0.076482
O O12 0.424304 0.149168 0.000000
O O13 0.073030 0.156274 0.000000
O O14 0.000000 0.000000 0.924543
O O15 0.500000 0.500000 0.113385
#
# Coordination Sequence:
#
# PCOD8303086 Si02
#       6
#     8   8   8   8   8   8
#     4  10  18  37  56  81 117 153 193 238 288 345
#     4  10  20  34  58  84 115 155 193 235 288 347
#     4  10  22  39  59  86 117 148 198 246 281 336
#     4  10  22  41  61  87 118 149 193 245 294 349
#     4  10  22  42  63  82 115 158 191 234 297 353
#     4  10  20  35  63  86 112 155 196 237 291 343
#
# _framework density 18.344643000000001
#
# number of rings (size 3 to 8) (size 9 to 14) (size 15 to 20)
#    0.000    2.000    3.333    0.000    2.333    0.667 
#    6.000    0.000    0.000    0.000    0.000    0.000 
#    0.000    0.000    0.000    0.000    0.000    0.000 
#
# Total GULP energy -595239.900418 kJ/mol
# GULP energy per Si atom -12400.831259 kJ/mol
# Density = 1.830289 g / cm^3
# Si number density = 18.344643 Si / 1000 Ang^3
#
#
#
# Elastic Constant Matrix: (Units=GPa)
#
#
# Indices 1 2 3 4 5 6 
#
# 1 84.9862 53.8377 46.6402 0.0000 0.0000 4.2102
# 2 53.8377 84.9862 46.6402 0.0000 0.0000 -4.2102
# 3 46.6402 46.6402 79.7463 0.0000 0.0000 0.0000
# 4 0.0000 0.0000 0.0000 14.8129 0.0000 0.0000
# 5 0.0000 0.0000 0.0000 0.0000 14.8129 0.0000
# 6 4.2102 -4.2102 0.0000 0.0000 0.0000 26.2819
#
#
#
# Elastic Compliance Matrix: (Units=1/GPa)
#
#
# Indices 1 2 3 4 5 6 
#
# 1 0.022712 -0.010845 -0.006940 0.000000 0.000000 -0.005376
# 2 -0.010845 0.022712 -0.006940 0.000000 0.000000 0.005376
# 3 -0.006940 -0.006940 0.020658 0.000000 0.000000 0.000000
# 4 0.000000 0.000000 0.000000 0.067509 0.000000 0.000000
# 5 0.000000 0.000000 0.000000 0.000000 0.067509 0.000000
# 6 -0.005376 0.005376 0.000000 0.000000 0.000000 0.039771
#
#
# Mechanical properties :
#
#
# Convention : Reuss Voigt Hill
#
# Bulk Modulus (GPa) = 60.13183 60.43942 60.28563
# Shear Modulus (GPa) = 16.89951 18.02158 17.46054
#
# Velocity S-wave (km/s) = 3.03846 3.13771 3.08848
# Velocity P-wave (km/s) = 6.72010 6.79302 6.75666
#
# Compressibility (1/GPa) = 0.01663013
#
# Stress axis : x y z
#
# Youngs Moduli (GPa) = 44.02928 44.02928 48.40726
#
# Poissons Ratio (x) = 0.47751 0.33597
# Poissons Ratio (y) = 0.47751 0.33597
# Poissons Ratio (z) = 0.30558 0.30558
#
# Static dielectric constant tensor:
#      x y z
#    x 3.514290 0.000000 0.000000 
#    y 0.000000 3.514290 0.000000 
#    z 0.000000 0.000000 3.216390 
# 
# 
# High freq. dielectric constant tensor:
#      x y z
#    x 1.709210 0.000000 0.000000 
#    y 0.000000 1.709210 0.000000 
#    z 0.000000 0.000000 1.708620 
# 
# From -- ./inp_files/5758.got.cif
#   From: 2010.03.12/outbox.cif.g09.slc.cpg/sg84_3_cif.got.tgz:5758.got - 2010.04.08 20:07:29.
