data_PCOD8303596
_publ_section_title
;
Structure prediction by ZEFSAII (Michael W. Deem and Ramdas Pophale) SiO2 
 PCOD8303596
Probable space group: P 42/N
;
_chemical_formula_sum "Si O2"
_cell_formula_units_Z 42
_cell_length_a 11.095189
_cell_length_b 11.095189
_cell_length_c 16.415806
_cell_angle_alpha 90.000000
_cell_angle_beta 90.000000
_cell_angle_gamma 90.000000
_cell_volume 2020.838560
_symmetry_space_group_name_H-M "P 42/N"
_symmetry_group_IT_number 86
_space_group.IT_coordinate_system_code '2'
_symmetry_cell_setting 'tetragonal'
loop_
_space_group_symop_operation_xyz
x,y,z
-y,1/2+x,1/2+z
1/2-x,1/2-y,z
1/2+y,-x,1/2+z
-x,-y,-z
y,1/2-x,1/2-z
1/2+x,1/2+y,-z
1/2-y,x,1/2-z
loop_
_atom_site_type_symbol
_atom_site_label
_atom_site_fract_x
_atom_site_fract_y
_atom_site_fract_z
Si Si1 0.051943 0.413486 0.817215
Si Si2 0.749108 0.890062 0.874716
Si Si3 0.870010 0.524190 0.713480
Si Si4 0.895581 0.422388 0.964436
Si Si5 0.176785 0.865730 0.368428
Si Si6 0.250000 0.250000 0.750000
O O1 0.121579 0.538518 0.838866
O O2 0.149741 0.309140 0.807798
O O3 0.974527 0.427235 0.733642
O O4 0.953073 0.365072 0.882844
O O5 0.750000 0.750000 0.903546
O O6 0.659981 0.905870 0.797735
O O7 0.882287 0.929791 0.848801
O O8 0.712779 0.983681 0.945608
O O9 0.751124 0.475918 0.668653
O O10 0.859960 0.322804 0.032098
O O11 0.000000 0.500000 0.000000
O O12 0.250000 0.750000 0.335793
#
# Coordination Sequence:
#
# PCOD8303596 Si02
#       6
#     8   8   8   8   8   2
#     4  10  22  41  63  92 119 168 208 260 316 375
#     4  11  17  32  63  96 120 156 211 267 304 366
#     4  11  18  36  66  94 121 154 223 268 306 364
#     4   9  21  39  55  86 129 161 195 243 325 376
#     4  11  22  42  61  89 132 165 201 264 330 380
#     4  12  24  44  60  84 124 156 218 252 312 380
#
# _framework density 20.783452
#
# number of rings (size 3 to 8) (size 9 to 14) (size 15 to 20)
#    0.000    1.524    3.810    3.429    0.000    0.000 
#   17.143    2.857    0.000    0.000    0.000    0.000 
#    0.000    0.000    0.000    0.000    0.000    0.000 
#
# Total GULP energy -520366.538237 kJ/mol
# GULP energy per Si atom -12389.679482 kJ/mol
# Density = 2.073615 g / cm^3
# Si number density = 20.783452 Si / 1000 Ang^3
#
#
#
# Elastic Constant Matrix: (Units=GPa)
#
#
# Indices 1 2 3 4 5 6 
#
# 1 76.2813 24.1825 30.4596 0.0000 0.0000 0.2476
# 2 24.1825 76.2813 30.4596 0.0000 0.0000 -0.2476
# 3 30.4596 30.4596 80.1968 0.0000 0.0000 0.0000
# 4 0.0000 0.0000 0.0000 32.1840 0.0000 0.0000
# 5 0.0000 0.0000 0.0000 0.0000 32.1840 0.0000
# 6 0.2476 -0.2476 0.0000 0.0000 0.0000 45.4764
#
#
#
# Elastic Compliance Matrix: (Units=1/GPa)
#
#
# Indices 1 2 3 4 5 6 
#
# 1 0.016064 -0.003132 -0.004912 0.000000 0.000000 -0.000105
# 2 -0.003132 0.016064 -0.004912 0.000000 0.000000 0.000105
# 3 -0.004912 -0.004912 0.016200 0.000000 0.000000 0.000000
# 4 0.000000 0.000000 0.000000 0.031071 0.000000 0.000000
# 5 0.000000 0.000000 0.000000 0.000000 0.031071 0.000000
# 6 -0.000105 0.000105 0.000000 0.000000 0.000000 0.021991
#
#
# Mechanical properties :
#
#
# Convention : Reuss Voigt Hill
#
# Bulk Modulus (GPa) = 44.60761 44.77367 44.69064
# Shear Modulus (GPa) = 30.14881 31.81274 30.98077
#
# Velocity S-wave (km/s) = 3.81283 3.91663 3.86508
# Velocity P-wave (km/s) = 6.39478 6.48406 6.43957
#
# Compressibility (1/GPa) = 0.02241770
#
# Stress axis : x y z
#
# Youngs Moduli (GPa) = 62.25189 62.25189 61.72669
#
# Poissons Ratio (x) = 0.19494 0.30319
# Poissons Ratio (y) = 0.19494 0.30319
# Poissons Ratio (z) = 0.30577 0.30577
#
# Static dielectric constant tensor:
#      x y z
#    x 4.085230 0.000000 0.000000 
#    y 0.000000 4.085230 0.000000 
#    z 0.000000 0.000000 5.557450 
# 
# 
# High freq. dielectric constant tensor:
#      x y z
#    x 1.807800 0.000000 0.000000 
#    y 0.000000 1.807800 0.000000 
#    z 0.000000 0.000000 1.794930 
# 
# From -- ./inp_files/3457.got.cif
#   From: 2010.03.12/outbox.cif.g09.slc.cpg/sg86_2_cif.got.tgz:3457.got - 2010.04.08 20:12:58.
