data_PCOD8303538
_publ_section_title
;
Structure prediction by ZEFSAII (Michael W. Deem and Ramdas Pophale) SiO2 
 PCOD8303538
Probable space group: P 42/N
;
_chemical_formula_sum "Si O2"
_cell_formula_units_Z 44
_cell_length_a 11.639529
_cell_length_b 11.639529
_cell_length_c 16.144594
_cell_angle_alpha 90.000000
_cell_angle_beta 90.000000
_cell_angle_gamma 90.000000
_cell_volume 2187.247563
_symmetry_space_group_name_H-M "P 42/N"
_symmetry_group_IT_number 86
_space_group.IT_coordinate_system_code '2'
_symmetry_cell_setting 'tetragonal'
loop_
_space_group_symop_operation_xyz
x,y,z
-y,1/2+x,1/2+z
1/2-x,1/2-y,z
1/2+y,-x,1/2+z
-x,-y,-z
y,1/2-x,1/2-z
1/2+x,1/2+y,-z
1/2-y,x,1/2-z
loop_
_atom_site_type_symbol
_atom_site_label
_atom_site_fract_x
_atom_site_fract_y
_atom_site_fract_z
Si Si1 0.648191 0.048314 0.335950
Si Si2 0.017622 0.804053 0.348919
Si Si3 0.250000 0.750000 0.072719
Si Si4 0.551937 0.450199 0.085624
Si Si5 0.798295 0.871441 0.433505
Si Si6 0.811144 0.058583 0.551635
O O1 0.712368 0.036217 0.248726
O O2 0.663334 0.177794 0.369387
O O3 0.512006 0.016823 0.338250
O O4 0.698581 0.953504 0.399201
O O5 0.031191 0.688490 0.402382
O O6 0.106944 0.903174 0.374397
O O7 0.889799 0.851333 0.361133
O O8 0.160241 0.681547 0.016200
O O9 0.534042 0.314426 0.089020
O O10 0.500000 0.500000 0.000000
O O11 0.750000 0.750000 0.465349
O O12 0.855751 0.939202 0.510966
#
# Coordination Sequence:
#
# PCOD8303538 Si02
#       6
#     8   8   4   8   8   8
#     4  11  24  37  62  94 127 163 207 267 331 367
#     4  12  23  38  61  96 131 159 211 273 320 381
#     4  10  20  38  60  92 118 154 212 252 300 386
#     4  12  20  41  65  87 125 172 210 252 323 396
#     4  11  22  39  61  91 125 165 212 257 314 382
#     4  11  22  40  64  91 118 167 215 254 310 382
#
# _framework density 20.116606000000001
#
# number of rings (size 3 to 8) (size 9 to 14) (size 15 to 20)
#    0.000    0.727    7.273    1.636    2.545    0.000 
#    0.000    0.000    0.000    0.000    0.000    0.000 
#    0.000    0.000    0.000    0.000    0.000    0.000 
#
# Total GULP energy -545412.251318 kJ/mol
# GULP energy per Si atom -12395.732984 kJ/mol
# Density = 2.007082 g / cm^3
# Si number density = 20.116606 Si / 1000 Ang^3
#
#
#
# Elastic Constant Matrix: (Units=GPa)
#
#
# Indices 1 2 3 4 5 6 
#
# 1 95.8791 30.2810 25.7265 0.0000 0.0000 2.1159
# 2 30.2810 95.8791 25.7265 0.0000 0.0000 -2.1159
# 3 25.7265 25.7265 67.8157 0.0000 0.0000 0.0000
# 4 0.0000 0.0000 0.0000 21.2609 0.0000 0.0000
# 5 0.0000 0.0000 0.0000 0.0000 21.2609 0.0000
# 6 2.1159 -2.1159 0.0000 0.0000 0.0000 34.0805
#
#
#
# Elastic Compliance Matrix: (Units=1/GPa)
#
#
# Indices 1 2 3 4 5 6 
#
# 1 0.012341 -0.002964 -0.003557 0.000000 0.000000 -0.000950
# 2 -0.002964 0.012341 -0.003557 0.000000 0.000000 0.000950
# 3 -0.003557 -0.003557 0.017445 0.000000 0.000000 0.000000
# 4 0.000000 0.000000 0.000000 0.047035 0.000000 0.000000
# 5 0.000000 0.000000 0.000000 0.000000 0.047035 0.000000
# 6 -0.000950 0.000950 0.000000 0.000000 0.000000 0.029460
#
#
# Mechanical properties :
#
#
# Convention : Reuss Voigt Hill
#
# Bulk Modulus (GPa) = 45.51663 47.00467 46.26065
# Shear Modulus (GPa) = 25.88814 27.17645 26.53230
#
# Velocity S-wave (km/s) = 3.59124 3.67951 3.63564
# Velocity P-wave (km/s) = 6.31439 6.43961 6.37730
#
# Compressibility (1/GPa) = 0.02196999
#
# Stress axis : x y z
#
# Youngs Moduli (GPa) = 81.02777 81.02777 57.32348
#
# Poissons Ratio (x) = 0.24018 0.20392
# Poissons Ratio (y) = 0.24018 0.20392
# Poissons Ratio (z) = 0.28824 0.28824
#
# Static dielectric constant tensor:
#      x y z
#    x 3.855620 0.000000 0.000000 
#    y 0.000000 3.855620 0.000000 
#    z 0.000000 0.000000 3.463280 
# 
# 
# High freq. dielectric constant tensor:
#      x y z
#    x 1.789580 0.000000 0.000000 
#    y 0.000000 1.789580 0.000000 
#    z 0.000000 0.000000 1.764050 
# 
# From -- ./inp_files/3450.got.cif
#   From: 2010.03.12/outbox.cif.g09.slc.cpg/sg86_2_cif.got.tgz:3450.got - 2010.04.08 20:12:58.
