data_PCOD8303189
_publ_section_title
;
Structure prediction by ZEFSAII (Michael W. Deem and Ramdas Pophale) SiO2 
 PCOD8303189
Probable space group: P 42/M
;
_chemical_formula_sum "Si O2"
_cell_formula_units_Z 56
_cell_length_a 12.472967
_cell_length_b 12.472967
_cell_length_c 19.596412
_cell_angle_alpha 90.000000
_cell_angle_beta 90.000000
_cell_angle_gamma 90.000000
_cell_volume 3048.709951
_symmetry_space_group_name_H-M "P 42/M"
_symmetry_group_IT_number 84
_symmetry_cell_setting 'tetragonal'
loop_
_space_group_symop_operation_xyz
x,y,z
-y,x,1/2+z
-x,-y,z
y,-x,1/2+z
-x,-y,-z
y,-x,1/2-z
x,y,-z
-y,x,1/2-z
loop_
_atom_site_type_symbol
_atom_site_label
_atom_site_fract_x
_atom_site_fract_y
_atom_site_fract_z
Si Si1 0.385954 0.440003 0.823683
Si Si2 0.399051 0.234296 0.731635
Si Si3 0.989923 0.183314 0.330941
Si Si4 0.096665 0.195938 0.083319
Si Si5 0.912886 0.414570 0.645296
Si Si6 0.090293 0.788280 0.820010
Si Si7 0.676335 0.719814 0.076727
O O1 0.500000 0.500000 0.810682
O O2 0.364291 0.341486 0.772073
O O3 0.279832 0.513435 0.820662
O O4 0.382979 0.387100 0.897565
O O5 0.446454 0.145074 0.783382
O O6 0.303082 0.179752 0.690386
O O7 0.920047 0.107109 0.380618
O O8 0.977910 0.305980 0.350019
O O9 0.964704 0.173112 0.250366
O O10 0.110603 0.153336 0.349103
O O11 0.204263 0.259434 0.107007
O O12 0.995141 0.250959 0.121887
O O13 0.083046 0.189243 0.000000
O O14 0.821303 0.401455 0.588264
O O15 0.000000 0.500000 0.621958
O O16 0.695732 0.696831 0.000000
#
# Coordination Sequence:
#
# PCOD8303189 Si02
#       7
#     8   8   8   8   8   8   8
#     4  11  20  37  61  83 111 148 186 236 294 346
#     4  10  21  34  54  85 115 142 181 239 294 335
#     4  10  20  33  53  82 115 149 193 237 281 337
#     4  10  21  39  57  81 117 159 195 232 288 349
#     4   9  20  33  53  83 112 146 185 236 290 338
#     4  11  21  32  55  84 114 150 192 237 281 343
#     4   9  21  39  58  79 111 150 190 231 283 349
#
# _framework density 18.368424999999998
#
# number of rings (size 3 to 8) (size 9 to 14) (size 15 to 20)
#    0.000    2.000    2.857    1.286    2.000    2.857 
#    0.000    0.714    0.000    3.429    0.000    0.000 
#    0.000    0.000    0.000    0.000    0.000    0.000 
#
# Total GULP energy -693738.258109 kJ/mol
# GULP energy per Si atom -12388.183181 kJ/mol
# Density = 1.832662 g / cm^3
# Si number density = 18.368425 Si / 1000 Ang^3
#
#
#
# Elastic Constant Matrix: (Units=GPa)
#
#
# Indices 1 2 3 4 5 6 
#
# 1 99.1759 58.1129 30.1814 0.0000 0.0000 -7.5299
# 2 58.1129 99.1759 30.1814 0.0000 0.0000 7.5299
# 3 30.1814 30.1814 62.1078 0.0000 0.0000 0.0000
# 4 0.0000 0.0000 0.0000 14.8518 0.0000 0.0000
# 5 0.0000 0.0000 0.0000 0.0000 14.8518 0.0000
# 6 -7.5299 7.5299 0.0000 0.0000 0.0000 32.3584
#
#
#
# Elastic Compliance Matrix: (Units=1/GPa)
#
#
# Indices 1 2 3 4 5 6 
#
# 1 0.017220 -0.009405 -0.003798 0.000000 0.000000 0.006196
# 2 -0.009405 0.017220 -0.003798 0.000000 0.000000 -0.006196
# 3 -0.003798 -0.003798 0.019792 0.000000 0.000000 0.000000
# 4 0.000000 0.000000 0.000000 0.067332 0.000000 0.000000
# 5 0.000000 0.000000 0.000000 0.000000 0.067332 0.000000
# 6 0.006196 -0.006196 0.000000 0.000000 0.000000 0.033787
#
#
# Mechanical properties :
#
#
# Convention : Reuss Voigt Hill
#
# Bulk Modulus (GPa) = 49.42830 55.26787 52.34808
# Shear Modulus (GPa) = 18.98048 21.87801 20.42925
#
# Velocity S-wave (km/s) = 3.21802 3.45493 3.33857
# Velocity P-wave (km/s) = 6.38556 6.78743 6.58956
#
# Compressibility (1/GPa) = 0.02023133
#
# Stress axis : x y z
#
# Youngs Moduli (GPa) = 58.07158 58.07158 50.52507
#
# Poissons Ratio (x) = 0.54616 0.19188
# Poissons Ratio (y) = 0.54616 0.19188
# Poissons Ratio (z) = 0.22055 0.22055
#
# Static dielectric constant tensor:
#      x y z
#    x 4.059440 0.000000 0.000000 
#    y 0.000000 4.059440 0.000000 
#    z 0.000000 0.000000 3.351520 
# 
# 
# High freq. dielectric constant tensor:
#      x y z
#    x 1.710520 0.000000 0.000000 
#    y 0.000000 1.710520 0.000000 
#    z 0.000000 0.000000 1.694410 
# 
# From -- ./inp_files/4487.got.cif
#   From: 2010.03.12/outbox.cif.g09.slc.cpg/sg84_3_cif.got.tgz:4487.got - 2010.04.08 20:07:29.
