data_PCOD8303759
_publ_section_title
;
Structure prediction by ZEFSAII (Michael W. Deem and Ramdas Pophale) SiO2 
 PCOD8303759
Probable space group: I 4/M
;
_chemical_formula_sum "Si O2"
_cell_formula_units_Z 96
_cell_length_a 25.044908
_cell_length_b 25.044908
_cell_length_c 9.463711
_cell_angle_alpha 90.000000
_cell_angle_beta 90.000000
_cell_angle_gamma 90.000000
_cell_volume 5936.088277
_symmetry_space_group_name_H-M "I 4/M"
_symmetry_group_IT_number 87
_symmetry_cell_setting 'tetragonal'
loop_
_space_group_symop_operation_xyz
x,y,z
-y,x,z
-x,-y,z
y,-x,z
-x,-y,-z
y,-x,-z
x,y,-z
-y,x,-z
1/2+x,1/2+y,1/2+z
1/2-y,1/2+x,1/2+z
1/2-x,1/2-y,1/2+z
1/2+y,1/2-x,1/2+z
1/2-x,1/2-y,1/2-z
1/2+y,1/2-x,1/2-z
1/2+x,1/2+y,1/2-z
1/2-y,1/2+x,1/2-z
loop_
_atom_site_type_symbol
_atom_site_label
_atom_site_fract_x
_atom_site_fract_y
_atom_site_fract_z
Si Si1 0.309776 0.898314 0.836516
Si Si2 0.002843 0.311708 0.343156
Si Si3 0.315361 0.602340 0.335389
Si Si4 0.314015 0.383275 0.166306
Si Si5 0.306258 0.113471 0.667829
Si Si6 0.815030 0.003390 0.344263
O O1 0.247407 0.889738 0.809100
O O2 0.340610 0.846187 0.777909
O O3 0.332894 0.950227 0.757296
O O4 0.322400 0.907248 0.000000
O O5 0.011703 0.335737 0.500000
O O6 0.944651 0.327728 0.280355
O O7 0.003994 0.248278 0.350926
O O8 0.330018 0.602578 0.500000
O O9 0.343539 0.650660 0.257041
O O10 0.335782 0.546222 0.269938
O O11 0.253510 0.374601 0.222486
O O12 0.333644 0.443778 0.197448
O O13 0.319180 0.370070 0.000000
O O14 0.303130 0.110917 0.500000
O O15 0.837607 0.018515 0.500000
#
# Coordination Sequence:
#
# PCOD8303759 Si02
#       6
#    16  16  16  16  16  16
#     4   9  17  29  44  64  91 119 144 174 218 266
#     4   8  14  27  46  64  81 108 150 189 214 244
#     4  10  19  28  42  67  95 118 139 172 221 266
#     4   9  17  30  48  66  85 115 152 182 209 250
#     4   8  15  29  47  64  86 118 150 179 214 256
#     4   8  15  29  47  63  80 110 152 186 209 244
#
# _framework density 16.172266
#
# number of rings (size 3 to 8) (size 9 to 14) (size 15 to 20)
#    0.000    3.333    0.000    2.500    0.000    2.000 
#    0.000    4.167    0.000    1.000    0.000    7.000 
#    0.000    0.000    0.000    0.000    0.000    0.000 
#
# Total GULP energy -594895.505774 kJ/mol
# GULP energy per Si atom -12393.656370 kJ/mol
# Density = 1.613546 g / cm^3
# Si number density = 16.172266 Si / 1000 Ang^3
#
#
#
# Elastic Constant Matrix: (Units=GPa)
#
#
# Indices 1 2 3 4 5 6 
#
# 1 81.4966 49.0178 48.3675 0.0000 0.0000 -1.1918
# 2 49.0178 81.4966 48.3675 0.0000 0.0000 1.1918
# 3 48.3675 48.3675 74.7821 0.0000 0.0000 0.0000
# 4 0.0000 0.0000 0.0000 21.4397 0.0000 0.0000
# 5 0.0000 0.0000 0.0000 0.0000 21.4397 0.0000
# 6 -1.1918 1.1918 0.0000 0.0000 0.0000 2.0448
#
#
#
# Elastic Compliance Matrix: (Units=1/GPa)
#
#
# Indices 1 2 3 4 5 6 
#
# 1 0.023441 -0.008724 -0.009519 0.000000 0.000000 0.018746
# 2 -0.008724 0.023441 -0.009519 0.000000 0.000000 -0.018746
# 3 -0.009519 -0.009519 0.025685 0.000000 0.000000 0.000000
# 4 0.000000 0.000000 0.000000 0.046643 0.000000 0.000000
# 5 0.000000 0.000000 0.000000 0.000000 0.046643 0.000000
# 6 0.018746 -0.018746 0.000000 0.000000 0.000000 0.510894
#
#
# Mechanical properties :
#
#
# Convention : Reuss Voigt Hill
#
# Bulk Modulus (GPa) = 58.66983 58.80900 58.73941
# Shear Modulus (GPa) = 6.77553 15.11967 10.94760
#
# Velocity S-wave (km/s) = 2.04907 3.06095 2.60462
# Velocity P-wave (km/s) = 6.47727 6.99540 6.74132
#
# Compressibility (1/GPa) = 0.01704454
#
# Stress axis : x y z
#
# Youngs Moduli (GPa) = 42.66022 42.66022 38.93303
#
# Poissons Ratio (x) = 0.37217 0.37059
# Poissons Ratio (y) = 0.37217 0.37059
# Poissons Ratio (z) = 0.40607 0.40607
#
# Static dielectric constant tensor:
#      x y z
#    x 3.115450 0.000000 0.000000 
#    y 0.000000 3.115450 0.000000 
#    z 0.000000 0.000000 3.067720 
# 
# 
# High freq. dielectric constant tensor:
#      x y z
#    x 1.607260 0.000000 0.000000 
#    y 0.000000 1.607260 0.000000 
#    z 0.000000 0.000000 1.608410 
# 
# From -- ./inp_files/1434.got.cif
#   From: 2010.03.12/outbox.cif.g09.slc.cpg/sg87_1_cif.got.tgz:1434.got - 2010.04.08 20:16:13.
