data_PCOD8303618
_publ_section_title
;
Structure prediction by ZEFSAII (Michael W. Deem and Ramdas Pophale) SiO2 
 PCOD8303618
Probable space group: P 42/N
;
_chemical_formula_sum "Si O2"
_cell_formula_units_Z 42
_cell_length_a 11.630130
_cell_length_b 11.630130
_cell_length_c 15.484720
_cell_angle_alpha 90.000000
_cell_angle_beta 90.000000
_cell_angle_gamma 90.000000
_cell_volume 2094.462048
_symmetry_space_group_name_H-M "P 42/N"
_symmetry_group_IT_number 86
_space_group.IT_coordinate_system_code '2'
_symmetry_cell_setting 'tetragonal'
loop_
_space_group_symop_operation_xyz
x,y,z
-y,1/2+x,1/2+z
1/2-x,1/2-y,z
1/2+y,-x,1/2+z
-x,-y,-z
y,1/2-x,1/2-z
1/2+x,1/2+y,-z
1/2-y,x,1/2-z
loop_
_atom_site_type_symbol
_atom_site_label
_atom_site_fract_x
_atom_site_fract_y
_atom_site_fract_z
Si Si1 0.043879 0.321587 0.859888
Si Si2 0.250000 0.250000 0.250000
Si Si3 0.552303 0.561551 0.188057
Si Si4 0.933389 0.749153 0.443253
Si Si5 0.047835 0.319239 0.371977
Si Si6 0.135582 0.818205 0.544885
O O1 0.031451 0.418856 0.786883
O O2 0.029979 0.197390 0.817094
O O3 0.166632 0.333019 0.908443
O O4 0.947919 0.335090 0.932250
O O5 0.136010 0.260654 0.306871
O O6 0.658463 0.529463 0.128099
O O7 0.446953 0.483164 0.157927
O O8 0.895361 0.682152 0.531405
O O9 0.049795 0.822133 0.462588
O O10 0.929288 0.245267 0.374845
O O11 0.250000 0.750000 0.519510
#
# Coordination Sequence:
#
# PCOD8303618 Si02
#       6
#     8   2   8   8   8   8
#     4  12  22  41  71  99 135 173 230 279 334 403
#     4  12  24  48  64 104 134 180 240 268 352 408
#     4  12  23  42  67 103 135 173 227 280 339 398
#     4  10  24  40  65 102 126 181 218 271 338 396
#     4  10  25  43  69  94 137 177 222 278 338 405
#     4  10  22  45  65  94 134 178 222 278 336 397
#
# _framework density 20.052880999999999
#
# number of rings (size 3 to 8) (size 9 to 14) (size 15 to 20)
#    1.143    0.000    3.810    2.857    2.667    0.000 
#    0.000    2.857    0.000    0.000    0.000    0.000 
#    0.000    0.000    0.000    0.000    0.000    0.000 
#
# Total GULP energy -520692.888983 kJ/mol
# GULP energy per Si atom -12397.449738 kJ/mol
# Density = 2.000724 g / cm^3
# Si number density = 20.052881 Si / 1000 Ang^3
#
#
#
# Elastic Constant Matrix: (Units=GPa)
#
#
# Indices 1 2 3 4 5 6 
#
# 1 60.7758 2.1459 8.7813 0.0000 0.0000 6.7833
# 2 2.1459 60.7758 8.7813 0.0000 0.0000 -6.7833
# 3 8.7813 8.7813 73.3761 0.0000 0.0000 0.0000
# 4 0.0000 0.0000 0.0000 24.0561 0.0000 0.0000
# 5 0.0000 0.0000 0.0000 0.0000 24.0561 0.0000
# 6 6.7833 -6.7833 0.0000 0.0000 0.0000 40.0405
#
#
#
# Elastic Compliance Matrix: (Units=1/GPa)
#
#
# Indices 1 2 3 4 5 6 
#
# 1 0.017097 -0.000655 -0.001968 0.000000 0.000000 -0.003007
# 2 -0.000655 0.017097 -0.001968 0.000000 0.000000 0.003007
# 3 -0.001968 -0.001968 0.014099 0.000000 0.000000 0.000000
# 4 0.000000 0.000000 0.000000 0.041570 0.000000 0.000000
# 5 0.000000 0.000000 0.000000 0.000000 0.041570 0.000000
# 6 -0.003007 0.003007 0.000000 0.000000 0.000000 0.025994
#
#
# Mechanical properties :
#
#
# Convention : Reuss Voigt Hill
#
# Bulk Modulus (GPa) = 25.56719 26.03827 25.80273
# Shear Modulus (GPa) = 27.83274 29.31181 28.57227
#
# Velocity S-wave (km/s) = 3.72958 3.82740 3.77881
# Velocity P-wave (km/s) = 5.59678 5.70482 5.65106
#
# Compressibility (1/GPa) = 0.03911262
#
# Stress axis : x y z
#
# Youngs Moduli (GPa) = 58.48973 58.48973 70.92511
#
# Poissons Ratio (x) = 0.03831 0.13956
# Poissons Ratio (y) = 0.03831 0.13956
# Poissons Ratio (z) = 0.11509 0.11509
#
# Static dielectric constant tensor:
#      x y z
#    x 3.563150 0.000000 0.000000 
#    y 0.000000 3.563150 0.000000 
#    z 0.000000 0.000000 3.537470 
# 
# 
# High freq. dielectric constant tensor:
#      x y z
#    x 1.784190 0.000000 0.000000 
#    y 0.000000 1.784190 0.000000 
#    z 0.000000 0.000000 1.776420 
# 
# From -- ./inp_files/3471.got.cif
#   From: 2010.03.12/outbox.cif.g09.slc.cpg/sg86_2_cif.got.tgz:3471.got - 2010.04.08 20:12:58.
