data_PCOD8303341
_publ_section_title
;
Structure prediction by ZEFSAII (Michael W. Deem and Ramdas Pophale) SiO2 
 PCOD8303341
Probable space group: P 42/M
;
_chemical_formula_sum "Si O2"
_cell_formula_units_Z 48
_cell_length_a 8.581838
_cell_length_b 8.581838
_cell_length_c 28.560366
_cell_angle_alpha 90.000000
_cell_angle_beta 90.000000
_cell_angle_gamma 90.000000
_cell_volume 2103.412220
_symmetry_space_group_name_H-M "P 42/M"
_symmetry_group_IT_number 84
_symmetry_cell_setting 'tetragonal'
loop_
_space_group_symop_operation_xyz
x,y,z
-y,x,1/2+z
-x,-y,z
y,-x,1/2+z
-x,-y,-z
y,-x,1/2-z
x,y,-z
-y,x,1/2-z
loop_
_atom_site_type_symbol
_atom_site_label
_atom_site_fract_x
_atom_site_fract_y
_atom_site_fract_z
Si Si1 0.458922 0.832041 0.865649
Si Si2 0.084778 0.237579 0.052553
Si Si3 0.675965 0.224957 0.643081
Si Si4 0.158244 0.815382 0.733765
Si Si5 0.240163 0.909833 0.948316
Si Si6 0.592733 0.662129 0.298515
O O1 0.603527 0.718577 0.875081
O O2 0.376917 0.856107 0.915044
O O3 0.348895 0.748088 0.828884
O O4 0.500000 0.000000 0.843716
O O5 0.123876 0.352278 0.095848
O O6 0.901153 0.211120 0.053923
O O7 0.178409 0.080547 0.064713
O O8 0.129569 0.300024 0.000000
O O9 0.813103 0.164967 0.677882
O O10 0.518092 0.219459 0.673577
O O11 0.259192 0.661880 0.750698
O O12 0.974773 0.786765 0.741213
O O13 0.312473 0.910907 0.000000
O O14 0.500000 0.500000 0.288309
#
# Coordination Sequence:
#
# PCOD8303341 Si02
#       6
#     8   8   8   8   8   8
#     4  11  21  38  65  93 128 173 225 272 328 407
#     4   9  19  38  63  98 136 173 223 284 342 400
#     4  11  24  41  66  97 134 186 212 276 350 401
#     4  11  27  47  72 104 133 178 236 294 338 411
#     4   9  19  35  63  97 132 170 223 291 335 387
#     4  10  26  45  65  98 144 178 222 274 345 417
#
# _framework density 22.820063000000001
#
# number of rings (size 3 to 8) (size 9 to 14) (size 15 to 20)
#    0.000    1.833    1.667    2.000    7.000    3.000 
#    0.000    0.833    0.000    5.000    0.000    0.000 
#    0.000    0.000    0.000    0.000    0.000    0.000 
#
# Total GULP energy -594942.870156 kJ/mol
# GULP energy per Si atom -12394.643128 kJ/mol
# Density = 2.276812 g / cm^3
# Si number density = 22.820063 Si / 1000 Ang^3
#
#
#
# Elastic Constant Matrix: (Units=GPa)
#
#
# Indices 1 2 3 4 5 6 
#
# 1 79.3409 24.3228 40.4037 0.0000 0.0000 -1.5478
# 2 24.3228 79.3409 40.4037 0.0000 0.0000 1.5478
# 3 40.4037 40.4037 156.9129 0.0000 0.0000 0.0000
# 4 0.0000 0.0000 0.0000 33.1029 0.0000 0.0000
# 5 0.0000 0.0000 0.0000 0.0000 33.1029 0.0000
# 6 -1.5478 1.5478 0.0000 0.0000 0.0000 28.3756
#
#
#
# Elastic Compliance Matrix: (Units=1/GPa)
#
#
# Indices 1 2 3 4 5 6 
#
# 1 0.015150 -0.003081 -0.003108 0.000000 0.000000 0.000994
# 2 -0.003081 0.015150 -0.003108 0.000000 0.000000 -0.000994
# 3 -0.003108 -0.003108 0.007973 0.000000 0.000000 0.000000
# 4 0.000000 0.000000 0.000000 0.030209 0.000000 0.000000
# 5 0.000000 0.000000 0.000000 0.000000 0.030209 0.000000
# 6 0.000994 -0.000994 0.000000 0.000000 0.000000 0.035350
#
#
# Mechanical properties :
#
#
# Convention : Reuss Voigt Hill
#
# Bulk Modulus (GPa) = 50.81099 58.42834 54.61966
# Shear Modulus (GPa) = 31.40790 32.94725 32.17758
#
# Velocity S-wave (km/s) = 3.71391 3.80384 3.75915
# Velocity P-wave (km/s) = 6.38006 6.70461 6.54435
#
# Compressibility (1/GPa) = 0.01968078
#
# Stress axis : x y z
#
# Youngs Moduli (GPa) = 66.00471 66.00471 125.41757
#
# Poissons Ratio (x) = 0.20338 0.38976
# Poissons Ratio (y) = 0.20338 0.38976
# Poissons Ratio (z) = 0.20512 0.20512
#
# Static dielectric constant tensor:
#      x y z
#    x 4.035190 0.000000 0.000000 
#    y 0.000000 4.035190 0.000000 
#    z 0.000000 0.000000 4.282230 
# 
# 
# High freq. dielectric constant tensor:
#      x y z
#    x 1.888180 0.000000 0.000000 
#    y 0.000000 1.888180 0.000000 
#    z 0.000000 0.000000 1.915630 
# 
# From -- ./inp_files/5799.got.cif
#   From: 2010.03.12/outbox.cif.g09.slc.cpg/sg84_3_cif.got.tgz:5799.got - 2010.04.08 20:07:29.
