data_PCOD8303561
_publ_section_title
;
Structure prediction by ZEFSAII (Michael W. Deem and Ramdas Pophale) SiO2 
 PCOD8303561
Probable space group: P 42/N
;
_chemical_formula_sum "Si O2"
_cell_formula_units_Z 48
_cell_length_a 10.647766
_cell_length_b 10.647766
_cell_length_c 23.613585
_cell_angle_alpha 90.000000
_cell_angle_beta 90.000000
_cell_angle_gamma 90.000000
_cell_volume 2677.188329
_symmetry_space_group_name_H-M "P 42/N"
_symmetry_group_IT_number 86
_space_group.IT_coordinate_system_code '2'
_symmetry_cell_setting 'tetragonal'
loop_
_space_group_symop_operation_xyz
x,y,z
-y,1/2+x,1/2+z
1/2-x,1/2-y,z
1/2+y,-x,1/2+z
-x,-y,-z
y,1/2-x,1/2-z
1/2+x,1/2+y,-z
1/2-y,x,1/2-z
loop_
_atom_site_type_symbol
_atom_site_label
_atom_site_fract_x
_atom_site_fract_y
_atom_site_fract_z
Si Si1 0.637959 0.954765 0.486339
Si Si2 0.937295 0.675837 0.815958
Si Si3 0.854496 0.346908 0.402888
Si Si4 0.290527 0.012883 0.005702
Si Si5 0.520990 0.138514 0.064388
Si Si6 0.320781 0.448317 0.190461
O O1 0.625449 0.801650 0.483260
O O2 0.724886 0.006739 0.536658
O O3 0.500000 0.000000 0.500000
O O4 0.690615 0.015765 0.426913
O O5 0.032580 0.650859 0.867540
O O6 0.000427 0.656796 0.754280
O O7 0.825414 0.575204 0.821532
O O8 0.889975 0.817747 0.819754
O O9 0.750000 0.250000 0.379938
O O10 0.913748 0.286157 0.458308
O O11 0.949760 0.375084 0.352366
O O12 0.355458 0.938427 0.953959
O O13 0.395104 0.066484 0.047366
#
# Coordination Sequence:
#
# PCOD8303561 Si02
#       6
#     8   8   8   8   8   8
#     4  10  21  31  49  75 108 137 164 212 262 314
#     4   9  17  31  54  76 101 124 173 225 256 311
#     4  11  19  35  51  71 108 140 171 205 259 329
#     4  10  21  32  51  77 103 141 173 211 265 308
#     4  11  19  33  53  77 105 135 177 220 259 320
#     4   9  18  31  52  79  97 134 168 213 272 300
#
# _framework density 17.929258000000001
#
# number of rings (size 3 to 8) (size 9 to 14) (size 15 to 20)
#    0.000    2.000    3.333    3.500    2.333    0.000 
#    0.000    0.000   14.667    0.000    0.000    0.000 
#    0.000    0.000    0.000    0.000    0.000    0.000 
#
# Total GULP energy -594716.601454 kJ/mol
# GULP energy per Si atom -12389.929197 kJ/mol
# Density = 1.788845 g / cm^3
# Si number density = 17.929258 Si / 1000 Ang^3
#
#
#
# Elastic Constant Matrix: (Units=GPa)
#
#
# Indices 1 2 3 4 5 6 
#
# 1 58.0102 10.8115 32.2359 0.0000 0.0000 -4.8024
# 2 10.8115 58.0102 32.2359 0.0000 0.0000 4.8024
# 3 32.2359 32.2359 149.1337 0.0000 0.0000 0.0000
# 4 0.0000 0.0000 0.0000 26.1835 0.0000 0.0000
# 5 0.0000 0.0000 0.0000 0.0000 26.1835 0.0000
# 6 -4.8024 4.8024 0.0000 0.0000 0.0000 17.4414
#
#
#
# Elastic Compliance Matrix: (Units=1/GPa)
#
#
# Indices 1 2 3 4 5 6 
#
# 1 0.020332 -0.002112 -0.003938 0.000000 0.000000 0.006180
# 2 -0.002112 0.020332 -0.003938 0.000000 0.000000 -0.006180
# 3 -0.003938 -0.003938 0.008408 0.000000 0.000000 0.000000
# 4 0.000000 0.000000 0.000000 0.038192 0.000000 0.000000
# 5 0.000000 0.000000 0.000000 0.000000 0.038192 0.000000
# 6 0.006180 -0.006180 0.000000 0.000000 0.000000 0.060738
#
#
# Mechanical properties :
#
#
# Convention : Reuss Voigt Hill
#
# Bulk Modulus (GPa) = 34.37113 46.19119 40.28116
# Shear Modulus (GPa) = 23.16207 26.61976 24.89091
#
# Velocity S-wave (km/s) = 3.59814 3.85737 3.73001
# Velocity P-wave (km/s) = 6.03939 6.75708 6.40829
#
# Compressibility (1/GPa) = 0.02909419
#
# Stress axis : x y z
#
# Youngs Moduli (GPa) = 49.18326 49.18326 118.93522
#
# Poissons Ratio (x) = 0.10390 0.46840
# Poissons Ratio (y) = 0.10390 0.46840
# Poissons Ratio (z) = 0.19370 0.19370
#
# Static dielectric constant tensor:
#      x y z
#    x 3.674860 0.000000 0.000000 
#    y 0.000000 3.674860 0.000000 
#    z 0.000000 0.000000 3.377870 
# 
# 
# High freq. dielectric constant tensor:
#      x y z
#    x 1.681890 0.000000 0.000000 
#    y 0.000000 1.681890 0.000000 
#    z 0.000000 0.000000 1.683610 
# 
# From -- ./inp_files/4626.got.cif
#   From: 2010.03.12/outbox.cif.g09.slc.cpg/sg86_3_cif.got.tgz:4626.got - 2010.04.08 20:12:58.
