data_PCOD8303073
_publ_section_title
;
Structure prediction by ZEFSAII (Michael W. Deem and Ramdas Pophale) SiO2 
 PCOD8303073
Probable space group: P 42/M
;
_chemical_formula_sum "Si O2"
_cell_formula_units_Z 64
_cell_length_a 16.794632
_cell_length_b 16.794632
_cell_length_c 13.219722
_cell_angle_alpha 90.000000
_cell_angle_beta 90.000000
_cell_angle_gamma 90.000000
_cell_volume 3728.750346
_symmetry_space_group_name_H-M "P 42/M"
_symmetry_group_IT_number 84
_symmetry_cell_setting 'tetragonal'
loop_
_space_group_symop_operation_xyz
x,y,z
-y,x,1/2+z
-x,-y,z
y,-x,1/2+z
-x,-y,-z
y,-x,1/2-z
x,y,-z
-y,x,1/2-z
loop_
_atom_site_type_symbol
_atom_site_label
_atom_site_fract_x
_atom_site_fract_y
_atom_site_fract_z
Si Si1 0.101805 0.346154 0.112590
Si Si2 0.709606 0.246988 0.733217
Si Si3 0.606446 0.766507 0.884331
Si Si4 0.947444 0.575918 0.303709
Si Si5 0.221313 0.427645 0.385365
Si Si6 0.872758 0.169090 0.743858
Si Si7 0.181202 0.979464 0.617126
Si Si8 0.929930 0.311156 0.384940
O O1 0.189208 0.314321 0.141282
O O2 0.079205 0.418929 0.186609
O O3 0.037357 0.275481 0.119170
O O4 0.105264 0.381588 0.000000
O O5 0.719112 0.335210 0.689406
O O6 0.640995 0.257854 0.816070
O O7 0.789508 0.208518 0.782567
O O8 0.515470 0.748765 0.851268
O O9 0.624276 0.860019 0.872766
O O10 0.620880 0.739801 0.000000
O O11 0.873819 0.572896 0.379330
O O12 0.000000 0.500000 0.325290
O O13 0.993807 0.657221 0.325657
O O14 0.247449 0.410607 0.500000
O O15 0.862861 0.083561 0.690309
O O16 0.907606 0.225557 0.657453
O O17 0.932272 0.163145 0.839392
O O18 0.150856 0.974638 0.500000
O O19 0.953837 0.298279 0.500000
#
# Coordination Sequence:
#
# PCOD8303073 Si02
#       8
#     8   8   8   8   8   8   8   8
#     4   9  18  33  51  72  99 136 175 209 250 301
#     4   9  19  33  54  75 103 135 170 212 252 308
#     4   9  17  31  53  77 100 131 170 209 252 303
#     4  11  19  29  48  78 113 138 165 206 254 316
#     4  10  20  32  50  79 109 137 167 207 260 310
#     4  10  20  36  52  74 100 131 179 215 254 304
#     4  10  20  36  55  70  93 131 174 222 261 296
#     4  10  18  30  50  75 102 134 168 207 257 308
#
# _framework density 17.163927000000001
#
# number of rings (size 3 to 8) (size 9 to 14) (size 15 to 20)
#    0.000    2.250    2.500    1.125    0.000    4.500 
#    0.000    1.875    0.000    4.125    0.000    1.750 
#    0.000    0.000    0.000    0.000    0.000    0.000 
#
# Total GULP energy -793444.199866 kJ/mol
# GULP energy per Si atom -12397.565623 kJ/mol
# Density = 1.712486 g / cm^3
# Si number density = 17.163927 Si / 1000 Ang^3
#
#
#
# Elastic Constant Matrix: (Units=GPa)
#
#
# Indices 1 2 3 4 5 6 
#
# 1 86.2964 33.4423 38.6932 0.0000 0.0000 0.7603
# 2 33.4423 86.2964 38.6932 0.0000 0.0000 -0.7603
# 3 38.6932 38.6932 93.8599 0.0000 0.0000 0.0000
# 4 0.0000 0.0000 0.0000 20.2842 0.0000 0.0000
# 5 0.0000 0.0000 0.0000 0.0000 20.2842 0.0000
# 6 0.7603 -0.7603 0.0000 0.0000 0.0000 21.4286
#
#
#
# Elastic Compliance Matrix: (Units=1/GPa)
#
#
# Indices 1 2 3 4 5 6 
#
# 1 0.015162 -0.003777 -0.004693 0.000000 0.000000 -0.000672
# 2 -0.003777 0.015162 -0.004693 0.000000 0.000000 0.000672
# 3 -0.004693 -0.004693 0.014524 0.000000 0.000000 0.000000
# 4 0.000000 0.000000 0.000000 0.049299 0.000000 0.000000
# 5 0.000000 0.000000 0.000000 0.000000 0.049299 0.000000
# 6 -0.000672 0.000672 0.000000 0.000000 0.000000 0.046714
#
#
# Mechanical properties :
#
#
# Convention : Reuss Voigt Hill
#
# Bulk Modulus (GPa) = 53.99545 54.23445 54.11495
# Shear Modulus (GPa) = 22.45552 22.77432 22.61492
#
# Velocity S-wave (km/s) = 3.62096 3.64658 3.63379
# Velocity P-wave (km/s) = 7.00063 7.02827 7.01446
#
# Compressibility (1/GPa) = 0.01852008
#
# Stress axis : x y z
#
# Youngs Moduli (GPa) = 65.95408 65.95408 68.85268
#
# Poissons Ratio (x) = 0.24913 0.32315
# Poissons Ratio (y) = 0.24913 0.32315
# Poissons Ratio (z) = 0.30954 0.30954
#
# Static dielectric constant tensor:
#      x y z
#    x 3.098220 0.000000 0.000000 
#    y 0.000000 3.098220 0.000000 
#    z 0.000000 0.000000 3.140190 
# 
# 
# High freq. dielectric constant tensor:
#      x y z
#    x 1.649480 0.000000 0.000000 
#    y 0.000000 1.649480 0.000000 
#    z 0.000000 0.000000 1.660510 
# 
# From -- ./inp_files/2372.got.cif
#   From: 2010.03.12/outbox.cif.g09.slc.cpg/sg84_2_cif.got.tgz:2372.got - 2010.04.08 20:07:29.
