data_PCOD8303346
_publ_section_title
;
Structure prediction by ZEFSAII (Michael W. Deem and Ramdas Pophale) SiO2 
 PCOD8303346
Probable space group: P 42/M
;
_chemical_formula_sum "Si O2"
_cell_formula_units_Z 56
_cell_length_a 11.920700
_cell_length_b 11.920700
_cell_length_c 21.957849
_cell_angle_alpha 90.000000
_cell_angle_beta 90.000000
_cell_angle_gamma 90.000000
_cell_volume 3120.278159
_symmetry_space_group_name_H-M "P 42/M"
_symmetry_group_IT_number 84
_symmetry_cell_setting 'tetragonal'
loop_
_space_group_symop_operation_xyz
x,y,z
-y,x,1/2+z
-x,-y,z
y,-x,1/2+z
-x,-y,-z
y,-x,1/2-z
x,y,-z
-y,x,1/2-z
loop_
_atom_site_type_symbol
_atom_site_label
_atom_site_fract_x
_atom_site_fract_y
_atom_site_fract_z
Si Si1 0.614789 0.643360 0.751987
Si Si2 0.872146 0.518588 0.570486
Si Si3 0.679093 0.731749 0.121576
Si Si4 0.501302 0.374246 0.571214
Si Si5 0.702723 0.277074 0.127905
Si Si6 0.139651 0.119666 0.069898
Si Si7 0.134216 0.121529 0.569787
O O1 0.649336 0.515516 0.767474
O O2 0.637400 0.724727 0.808945
O O3 0.691013 0.691213 0.698133
O O4 0.866948 0.554400 0.500000
O O5 0.799130 0.407699 0.579794
O O6 0.820068 0.615504 0.611392
O O7 0.000000 0.500000 0.591490
O O8 0.695226 0.605602 0.097339
O O9 0.795783 0.798238 0.116185
O O10 0.500000 0.500000 0.600461
O O11 0.516177 0.383721 0.500000
O O12 0.386086 0.312999 0.586287
O O13 0.824732 0.225759 0.114758
O O14 0.009658 0.139270 0.081882
O O15 0.169678 0.990102 0.083657
O O16 0.171025 0.148395 0.000000
O O17 0.165247 0.149391 0.500000
#
# Coordination Sequence:
#
# PCOD8303346 Si02
#       7
#     8   8   8   8   8   8   8
#     4  11  22  40  58  79 112 162 202 235 282 344
#     4  11  22  34  55  91 125 146 181 248 312 354
#     4  12  21  36  58  83 115 155 196 238 287 348
#     4  11  20  31  51  83 115 145 182 234 293 348
#     4  12  21  36  58  83 115 155 196 238 287 348
#     4   9  19  38  63  88 116 151 190 238 297 355
#     4   9  19  38  63  88 116 151 190 238 297 355
#
# _framework density 17.947116999999999
#
# number of rings (size 3 to 8) (size 9 to 14) (size 15 to 20)
#    0.000    1.286    4.286    4.286    0.000    2.286 
#    0.000    3.571    0.000    4.286    0.000    0.000 
#    0.000    0.000    0.000    0.000    0.000    0.000 
#
# Total GULP energy -694560.207868 kJ/mol
# GULP energy per Si atom -12402.860855 kJ/mol
# Density = 1.790627 g / cm^3
# Si number density = 17.947117 Si / 1000 Ang^3
#
#
#
# Elastic Constant Matrix: (Units=GPa)
#
#
# Indices 1 2 3 4 5 6 
#
# 1 81.8282 36.7675 26.2447 0.0000 0.0000 0.2345
# 2 36.7675 81.8282 26.2447 0.0000 0.0000 -0.2345
# 3 26.2447 26.2447 68.5924 0.0000 0.0000 0.0000
# 4 0.0000 0.0000 0.0000 27.4210 0.0000 0.0000
# 5 0.0000 0.0000 0.0000 0.0000 27.4210 0.0000
# 6 0.2345 -0.2345 0.0000 0.0000 0.0000 36.5069
#
#
#
# Elastic Compliance Matrix: (Units=1/GPa)
#
#
# Indices 1 2 3 4 5 6 
#
# 1 0.016172 -0.006021 -0.003884 0.000000 0.000000 -0.000143
# 2 -0.006021 0.016172 -0.003884 0.000000 0.000000 0.000143
# 3 -0.003884 -0.003884 0.017551 0.000000 0.000000 0.000000
# 4 0.000000 0.000000 0.000000 0.036468 0.000000 0.000000
# 5 0.000000 0.000000 0.000000 0.000000 0.036468 0.000000
# 6 -0.000143 0.000143 0.000000 0.000000 0.000000 0.027394
#
#
# Mechanical properties :
#
#
# Convention : Reuss Voigt Hill
#
# Bulk Modulus (GPa) = 44.80846 45.64027 45.22437
# Shear Modulus (GPa) = 26.99141 27.80258 27.39699
#
# Velocity S-wave (km/s) = 3.88228 3.94018 3.91133
# Velocity P-wave (km/s) = 6.71694 6.79600 6.75658
#
# Compressibility (1/GPa) = 0.02231721
#
# Stress axis : x y z
#
# Youngs Moduli (GPa) = 61.83375 61.83375 56.97672
#
# Poissons Ratio (x) = 0.37232 0.22130
# Poissons Ratio (y) = 0.37232 0.22130
# Poissons Ratio (z) = 0.24016 0.24016
#
# Static dielectric constant tensor:
#      x y z
#    x 3.359880 0.000000 0.000000 
#    y 0.000000 3.359880 0.000000 
#    z 0.000000 0.000000 3.196880 
# 
# 
# High freq. dielectric constant tensor:
#      x y z
#    x 1.693590 0.000000 0.000000 
#    y 0.000000 1.693590 0.000000 
#    z 0.000000 0.000000 1.682480 
# 
# From -- ./inp_files/4494.got.cif
#   From: 2010.03.12/outbox.cif.g09.slc.cpg/sg84_3_cif.got.tgz:4494.got - 2010.04.08 20:07:29.
