data_PCOD8303390
_publ_section_title
;
Structure prediction by ZEFSAII (Michael W. Deem and Ramdas Pophale) SiO2 
 PCOD8303390
Probable space group: P 42/M
;
_chemical_formula_sum "Si O2"
_cell_formula_units_Z 44
_cell_length_a 8.362565
_cell_length_b 8.362565
_cell_length_c 30.636211
_cell_angle_alpha 90.000000
_cell_angle_beta 90.000000
_cell_angle_gamma 90.000000
_cell_volume 2142.466623
_symmetry_space_group_name_H-M "P 42/M"
_symmetry_group_IT_number 84
_symmetry_cell_setting 'tetragonal'
loop_
_space_group_symop_operation_xyz
x,y,z
-y,x,1/2+z
-x,-y,z
y,-x,1/2+z
-x,-y,-z
y,-x,1/2-z
x,y,-z
-y,x,1/2-z
loop_
_atom_site_type_symbol
_atom_site_label
_atom_site_fract_x
_atom_site_fract_y
_atom_site_fract_z
Si Si1 0.714765 0.656674 0.855518
Si Si2 0.168895 0.540997 0.285136
Si Si3 0.658519 0.778452 0.307048
Si Si4 0.157835 0.610379 0.950579
Si Si5 0.031581 0.817060 0.121904
Si Si6 0.500000 0.500000 0.583440
O O1 0.688183 0.756969 0.811633
O O2 0.761416 0.475598 0.843929
O O3 0.553925 0.649975 0.885448
O O4 0.862553 0.727536 0.881795
O O5 0.286746 0.391828 0.288710
O O6 0.132223 0.591785 0.235514
O O7 0.000000 0.500000 0.307259
O O8 0.794480 0.884511 0.330523
O O9 0.145333 0.757754 0.917215
O O10 0.336462 0.533691 0.943810
O O11 0.000000 0.500000 0.942739
O O12 0.153482 0.674283 0.000000
O O13 0.000000 0.000000 0.114042
#
# Coordination Sequence:
#
# PCOD8303390 Si02
#       6
#     8   8   8   8   8   4
#     4  12  22  40  68  93 130 177 228 273 329 398
#     4  12  24  38  58  92 128 170 228 280 332 386
#     4  12  23  41  61  90 126 176 227 278 324 402
#     4  11  23  43  73 105 135 175 229 284 345 422
#     4  12  25  45  67  97 140 181 219 283 356 407
#     4  12  21  40  73 102 132 168 228 283 337 404
#
# _framework density 20.537075999999999
#
# number of rings (size 3 to 8) (size 9 to 14) (size 15 to 20)
#    0.000    0.182    7.273    3.000    0.000    0.364 
#    0.000    0.000    0.000    1.091    0.000    0.000 
#    0.000    0.000    0.000    0.000    0.000    0.000 
#
# Total GULP energy -545419.593025 kJ/mol
# GULP energy per Si atom -12395.899841 kJ/mol
# Density = 2.049033 g / cm^3
# Si number density = 20.537076 Si / 1000 Ang^3
#
#
#
# Elastic Constant Matrix: (Units=GPa)
#
#
# Indices 1 2 3 4 5 6 
#
# 1 112.6451 30.5918 48.5657 0.0000 0.0000 6.4677
# 2 30.5918 112.6451 48.5657 0.0000 0.0000 -6.4677
# 3 48.5657 48.5657 117.4543 0.0000 0.0000 0.0000
# 4 0.0000 0.0000 0.0000 29.1597 0.0000 0.0000
# 5 0.0000 0.0000 0.0000 0.0000 29.1597 0.0000
# 6 6.4677 -6.4677 0.0000 0.0000 0.0000 30.6642
#
#
#
# Elastic Compliance Matrix: (Units=1/GPa)
#
#
# Indices 1 2 3 4 5 6 
#
# 1 0.011154 -0.001452 -0.004012 0.000000 0.000000 -0.002659
# 2 -0.001452 0.011154 -0.004012 0.000000 0.000000 0.002659
# 3 -0.004012 -0.004012 0.011831 0.000000 0.000000 0.000000
# 4 0.000000 0.000000 0.000000 0.034294 0.000000 0.000000
# 5 0.000000 0.000000 0.000000 0.000000 0.034294 0.000000
# 6 -0.002659 0.002659 0.000000 0.000000 0.000000 0.033733
#
#
# Mechanical properties :
#
#
# Convention : Reuss Voigt Hill
#
# Bulk Modulus (GPa) = 65.83836 66.46565 66.15200
# Shear Modulus (GPa) = 31.15774 32.13149 31.64462
#
# Velocity S-wave (km/s) = 3.89928 3.95974 3.92963
# Velocity P-wave (km/s) = 7.23881 7.30343 7.27119
#
# Compressibility (1/GPa) = 0.01518871
#
# Stress axis : x y z
#
# Youngs Moduli (GPa) = 89.65361 89.65361 84.52112
#
# Poissons Ratio (x) = 0.13021 0.33906
# Poissons Ratio (y) = 0.13021 0.33906
# Poissons Ratio (z) = 0.35965 0.35965
#
# Static dielectric constant tensor:
#      x y z
#    x 0.830920 0.000000 0.000000 
#    y 0.000000 0.830920 0.000000 
#    z 0.000000 0.000000 3.784240 
# 
# 
# High freq. dielectric constant tensor:
#      x y z
#    x 1.799760 0.000000 0.000000 
#    y 0.000000 1.799760 0.000000 
#    z 0.000000 0.000000 1.803250 
# 
# From -- ./inp_files/5673.got.cif
#   From: 2010.03.12/outbox.cif.g09.slc.cpg/sg84_3_cif.got.tgz:5673.got - 2010.04.08 20:07:29.
