data_PCOD8303061
_publ_section_title
;
Structure prediction by ZEFSAII (Michael W. Deem and Ramdas Pophale) SiO2 
 PCOD8303061
Probable space group: P 42/M
;
_chemical_formula_sum "Si O2"
_cell_formula_units_Z 48
_cell_length_a 9.693348
_cell_length_b 9.693348
_cell_length_c 28.019316
_cell_angle_alpha 90.000000
_cell_angle_beta 90.000000
_cell_angle_gamma 90.000000
_cell_volume 2632.722823
_symmetry_space_group_name_H-M "P 42/M"
_symmetry_group_IT_number 84
_symmetry_cell_setting 'tetragonal'
loop_
_space_group_symop_operation_xyz
x,y,z
-y,x,1/2+z
-x,-y,z
y,-x,1/2+z
-x,-y,-z
y,-x,1/2-z
x,y,-z
-y,x,1/2-z
loop_
_atom_site_type_symbol
_atom_site_label
_atom_site_fract_x
_atom_site_fract_y
_atom_site_fract_z
Si Si1 0.852395 0.825715 0.255097
Si Si2 0.224666 0.361399 0.830887
Si Si3 0.584938 0.638779 0.000000
Si Si4 0.363477 0.907582 0.500000
Si Si5 0.315401 0.252404 0.345867
Si Si6 0.524735 0.661697 0.103173
Si Si7 0.997969 0.339836 0.903697
O O1 0.778916 0.716325 0.219641
O O2 0.795298 0.785946 0.306441
O O3 0.017739 0.809333 0.257254
O O4 0.238482 0.527880 0.824941
O O5 0.344919 0.304172 0.864270
O O6 0.085885 0.311646 0.856457
O O7 0.500000 0.500000 0.000000
O O8 0.546671 0.721835 0.049121
O O9 0.746232 0.598867 0.000000
O O10 0.500000 0.000000 0.500000
O O11 0.271720 0.943896 0.452676
O O12 0.273836 0.399340 0.367364
O O13 0.291368 0.155305 0.391771
O O14 0.500000 0.500000 0.097945
O O15 0.000000 0.500000 0.915043
#
# Coordination Sequence:
#
# PCOD8303061 Si02
#       7
#     8   8   4   4   8   8   8
#     4  11  24  39  55  77 104 141 183 228 276 323
#     4  10  19  36  53  77 108 141 176 222 266 320
#     4  10  18  28  46  76 117 148 174 220 279 329
#     4  10  18  26  48  78 109 151 187 215 276 327
#     4  10  21  36  53  78 109 140 179 224 271 321
#     4   9  19  32  51  79 115 143 173 220 274 320
#     4   9  17  30  50  74 108 140 179 223 258 320
#
# _framework density 18.232074999999998
#
# number of rings (size 3 to 8) (size 9 to 14) (size 15 to 20)
#    0.000    2.167    3.333    0.000    9.333    0.000 
#    0.000    0.000    0.000    0.000    0.000    7.000 
#    0.000    0.000    0.000    0.000    0.000    0.000 
#
# Total GULP energy -594680.554365 kJ/mol
# GULP energy per Si atom -12389.178216 kJ/mol
# Density = 1.819058 g / cm^3
# Si number density = 18.232075 Si / 1000 Ang^3
#
#
#
# Elastic Constant Matrix: (Units=GPa)
#
#
# Indices 1 2 3 4 5 6 
#
# 1 68.9233 29.8689 39.3656 0.0000 0.0000 -3.4814
# 2 29.8689 68.9233 39.3656 0.0000 0.0000 3.4814
# 3 39.3656 39.3656 125.3433 0.0000 0.0000 0.0000
# 4 0.0000 0.0000 0.0000 28.3733 0.0000 0.0000
# 5 0.0000 0.0000 0.0000 0.0000 28.3733 0.0000
# 6 -3.4814 3.4814 0.0000 0.0000 0.0000 14.6149
#
#
#
# Elastic Compliance Matrix: (Units=1/GPa)
#
#
# Indices 1 2 3 4 5 6 
#
# 1 0.020121 -0.006620 -0.004240 0.000000 0.000000 0.006370
# 2 -0.006620 0.020121 -0.004240 0.000000 0.000000 -0.006370
# 3 -0.004240 -0.004240 0.010642 0.000000 0.000000 0.000000
# 4 0.000000 0.000000 0.000000 0.035244 0.000000 0.000000
# 5 0.000000 0.000000 0.000000 0.000000 0.035244 0.000000
# 6 0.006370 -0.006370 0.000000 0.000000 0.000000 0.071458
#
#
# Mechanical properties :
#
#
# Convention : Reuss Voigt Hill
#
# Bulk Modulus (GPa) = 48.34817 53.37668 50.86243
# Shear Modulus (GPa) = 21.74613 24.57828 23.16220
#
# Velocity S-wave (km/s) = 3.45735 3.67560 3.56815
# Velocity P-wave (km/s) = 6.52024 6.88137 6.70323
#
# Compressibility (1/GPa) = 0.02068330
#
# Stress axis : x y z
#
# Youngs Moduli (GPa) = 49.69870 49.69870 93.97147
#
# Poissons Ratio (x) = 0.32899 0.39847
# Poissons Ratio (y) = 0.32899 0.39847
# Poissons Ratio (z) = 0.21074 0.21074
#
# Static dielectric constant tensor:
#      x y z
#    x 3.224990 0.000000 0.000000 
#    y 0.000000 3.224990 0.000000 
#    z 0.000000 0.000000 3.978220 
# 
# 
# High freq. dielectric constant tensor:
#      x y z
#    x 1.678510 0.000000 0.000000 
#    y 0.000000 1.678510 0.000000 
#    z 0.000000 0.000000 1.729660 
# 
# From -- ./inp_files/5839.got.cif
#   From: 2010.03.12/outbox.cif.g09.slc.cpg/sg84_3_cif.got.tgz:5839.got - 2010.04.08 20:07:29.
