data_PCOD8303143
_publ_section_title
;
Structure prediction by ZEFSAII (Michael W. Deem and Ramdas Pophale) SiO2 
 PCOD8303143
Probable space group: P 42/M
;
_chemical_formula_sum "Si O2"
_cell_formula_units_Z 52
_cell_length_a 16.932100
_cell_length_b 16.932100
_cell_length_c 9.597220
_cell_angle_alpha 90.000000
_cell_angle_beta 90.000000
_cell_angle_gamma 90.000000
_cell_volume 2751.484685
_symmetry_space_group_name_H-M "P 42/M"
_symmetry_group_IT_number 84
_symmetry_cell_setting 'tetragonal'
loop_
_space_group_symop_operation_xyz
x,y,z
-y,x,1/2+z
-x,-y,z
y,-x,1/2+z
-x,-y,-z
y,-x,1/2-z
x,y,-z
-y,x,1/2-z
loop_
_atom_site_type_symbol
_atom_site_label
_atom_site_fract_x
_atom_site_fract_y
_atom_site_fract_z
Si Si1 0.309797 0.778852 0.334928
Si Si2 0.822929 0.132503 0.840259
Si Si3 0.000000 0.500000 0.740858
Si Si4 0.367909 0.210538 0.159547
Si Si5 0.069493 0.652949 0.151225
Si Si6 0.191205 0.003703 0.653064
Si Si7 0.458624 0.828357 0.156594
O O1 0.311664 0.798924 0.500000
O O2 0.243095 0.830544 0.259201
O O3 0.288864 0.685305 0.312003
O O4 0.393927 0.798697 0.266796
O O5 0.902978 0.180342 0.830661
O O6 0.846506 0.046534 0.777568
O O7 0.792544 0.125331 0.000000
O O8 0.029382 0.568573 0.840040
O O9 0.076351 0.471415 0.652145
O O10 0.328998 0.137452 0.238629
O O11 0.460541 0.218190 0.200907
O O12 0.362876 0.185689 0.000000
O O13 0.996510 0.713953 0.166649
O O14 0.110058 0.661172 0.000000
O O15 0.160649 0.975330 0.500000
O O16 0.433189 0.803638 0.000000
#
# Coordination Sequence:
#
# PCOD8303143 Si02
#       7
#     8   8   4   8   8   8   8
#     4  11  22  38  60  87 118 152 192 238 290 347
#     4  11  23  38  58  81 107 149 195 237 290 346
#     4  10  20  32  54  86 118 152 182 232 296 348
#     4   9  20  37  57  81 113 150 187 228 280 339
#     4  10  19  33  53  78 111 145 185 230 280 341
#     4  10  22  38  54  77 110 146 190 243 290 336
#     4  10  21  37  58  85 116 153 194 237 286 350
#
# _framework density 18.898887999999999
#
# number of rings (size 3 to 8) (size 9 to 14) (size 15 to 20)
#    0.000    1.846    1.538    2.308    0.000    7.692 
#    0.000    1.538    0.000    0.462    0.000    3.231 
#    0.000    0.000    0.000    0.000    0.000    0.000 
#
# Total GULP energy -644334.798989 kJ/mol
# GULP energy per Si atom -12391.053827 kJ/mol
# Density = 1.885587 g / cm^3
# Si number density = 18.898888 Si / 1000 Ang^3
#
#
#
# Elastic Constant Matrix: (Units=GPa)
#
#
# Indices 1 2 3 4 5 6 
#
# 1 87.5259 37.1709 53.5723 0.0000 0.0000 -0.8354
# 2 37.1709 87.5259 53.5723 0.0000 0.0000 0.8354
# 3 53.5723 53.5723 126.4758 0.0000 0.0000 0.0000
# 4 0.0000 0.0000 0.0000 27.7238 0.0000 0.0000
# 5 0.0000 0.0000 0.0000 0.0000 27.7238 0.0000
# 6 -0.8354 0.8354 0.0000 0.0000 0.0000 21.0005
#
#
#
# Elastic Compliance Matrix: (Units=1/GPa)
#
#
# Indices 1 2 3 4 5 6 
#
# 1 0.016247 -0.003638 -0.005341 0.000000 0.000000 0.000791
# 2 -0.003638 0.016247 -0.005341 0.000000 0.000000 -0.000791
# 3 -0.005341 -0.005341 0.012431 0.000000 0.000000 0.000000
# 4 0.000000 0.000000 0.000000 0.036070 0.000000 0.000000
# 5 0.000000 0.000000 0.000000 0.000000 0.036070 0.000000
# 6 0.000791 -0.000791 0.000000 0.000000 0.000000 0.047681
#
#
# Mechanical properties :
#
#
# Convention : Reuss Voigt Hill
#
# Bulk Modulus (GPa) = 61.40546 65.57318 63.48932
# Shear Modulus (GPa) = 25.14924 25.77044 25.45984
#
# Velocity S-wave (km/s) = 3.65187 3.69670 3.67435
# Velocity P-wave (km/s) = 7.09533 7.27962 7.18806
#
# Compressibility (1/GPa) = 0.01628520
#
# Stress axis : x y z
#
# Youngs Moduli (GPa) = 61.55071 61.55071 80.44428
#
# Poissons Ratio (x) = 0.22395 0.42962
# Poissons Ratio (y) = 0.22395 0.42962
# Poissons Ratio (z) = 0.32872 0.32872
#
# Static dielectric constant tensor:
#      x y z
#    x 3.555240 0.000000 0.000000 
#    y 0.000000 3.555240 0.000000 
#    z 0.000000 0.000000 3.572730 
# 
# 
# High freq. dielectric constant tensor:
#      x y z
#    x 1.724110 0.000000 0.000000 
#    y 0.000000 1.724110 0.000000 
#    z 0.000000 0.000000 1.745040 
# 
# From -- ./inp_files/1096.got.cif
#   From: 2010.03.12/outbox.cif.g09.slc.cpg/sg84_1_cif.got.tgz:1096.got - 2010.04.08 20:07:29.
