data_PCOD8303281
_publ_section_title
;
Structure prediction by ZEFSAII (Michael W. Deem and Ramdas Pophale) SiO2 
 PCOD8303281
Probable space group: P 42/M
;
_chemical_formula_sum "Si O2"
_cell_formula_units_Z 40
_cell_length_a 14.395697
_cell_length_b 14.395697
_cell_length_c 9.789434
_cell_angle_alpha 90.000000
_cell_angle_beta 90.000000
_cell_angle_gamma 90.000000
_cell_volume 2028.724046
_symmetry_space_group_name_H-M "P 42/M"
_symmetry_group_IT_number 84
_symmetry_cell_setting 'tetragonal'
loop_
_space_group_symop_operation_xyz
x,y,z
-y,x,1/2+z
-x,-y,z
y,-x,1/2+z
-x,-y,-z
y,-x,1/2-z
x,y,-z
-y,x,1/2-z
loop_
_atom_site_type_symbol
_atom_site_label
_atom_site_fract_x
_atom_site_fract_y
_atom_site_fract_z
Si Si1 0.925123 0.131195 0.000000
Si Si2 0.935029 0.130484 0.500000
Si Si3 0.990996 0.605052 0.337845
Si Si4 0.130549 0.755191 0.252975
Si Si5 0.380522 0.454383 0.335219
Si Si6 0.672204 0.210135 0.157916
O O1 0.916707 0.197501 0.126200
O O2 0.022626 0.081687 0.000000
O O3 0.849454 0.046745 0.000000
O O4 0.885846 0.174211 0.372705
O O5 0.996850 0.610961 0.500000
O O6 0.892766 0.647539 0.286534
O O7 0.000000 0.500000 0.285948
O O8 0.080018 0.657268 0.276027
O O9 0.241311 0.743848 0.237219
O O10 0.385432 0.550190 0.248490
O O11 0.405617 0.464292 0.500000
O O12 0.276179 0.416691 0.321703
O O13 0.701337 0.204513 0.000000
#
# Coordination Sequence:
#
# PCOD8303281 Si02
#       6
#     4   4   8   8   8   8
#     4  11  22  36  61  82 128 157 197 258 310 358
#     4  11  22  36  57  94 114 159 211 252 298 364
#     4  10  22  41  64  92 125 165 212 261 313 379
#     4  12  22  39  62  86 125 162 209 252 311 375
#     4  10  21  40  66  94 125 158 205 262 319 377
#     4  10  22  40  63  88 128 169 202 256 319 371
#
# _framework density 19.716825
#
# number of rings (size 3 to 8) (size 9 to 14) (size 15 to 20)
#    0.000    1.400    2.000    4.800    2.800    1.600 
#    3.600    0.500    0.000    0.000    0.000    0.000 
#    0.000    0.000    0.000    0.000    0.000    0.000 
#
# Total GULP energy -495760.371178 kJ/mol
# GULP energy per Si atom -12394.009279 kJ/mol
# Density = 1.967195 g / cm^3
# Si number density = 19.716825 Si / 1000 Ang^3
#
#
#
# Elastic Constant Matrix: (Units=GPa)
#
#
# Indices 1 2 3 4 5 6 
#
# 1 108.3900 42.7099 22.5013 0.0000 0.0000 4.7628
# 2 42.7099 108.3900 22.5013 0.0000 0.0000 -4.7628
# 3 22.5013 22.5013 100.0630 0.0000 0.0000 0.0000
# 4 0.0000 0.0000 0.0000 31.4518 0.0000 0.0000
# 5 0.0000 0.0000 0.0000 0.0000 31.4518 0.0000
# 6 4.7628 -4.7628 0.0000 0.0000 0.0000 38.0239
#
#
#
# Elastic Compliance Matrix: (Units=1/GPa)
#
#
# Indices 1 2 3 4 5 6 
#
# 1 0.011300 -0.004207 -0.001595 0.000000 0.000000 -0.001942
# 2 -0.004207 0.011300 -0.001595 0.000000 0.000000 0.001942
# 3 -0.001595 -0.001595 0.010711 0.000000 0.000000 0.000000
# 4 0.000000 0.000000 0.000000 0.031795 0.000000 0.000000
# 5 0.000000 0.000000 0.000000 0.000000 0.031795 0.000000
# 6 -0.001942 0.001942 0.000000 0.000000 0.000000 0.026786
#
#
# Mechanical properties :
#
#
# Convention : Reuss Voigt Hill
#
# Bulk Modulus (GPa) = 54.00375 54.69646 54.35010
# Shear Modulus (GPa) = 34.56551 35.46088 35.01319
#
# Velocity S-wave (km/s) = 4.19154 4.24548 4.21860
# Velocity P-wave (km/s) = 7.13264 7.19954 7.16617
#
# Compressibility (1/GPa) = 0.01851723
#
# Stress axis : x y z
#
# Youngs Moduli (GPa) = 88.49478 88.49478 93.36132
#
# Poissons Ratio (x) = 0.37229 0.14892
# Poissons Ratio (y) = 0.37229 0.14892
# Poissons Ratio (z) = 0.14115 0.14115
#
# Static dielectric constant tensor:
#      x y z
#    x 3.687870 0.000000 0.000000 
#    y 0.000000 3.687870 0.000000 
#    z 0.000000 0.000000 3.572740 
# 
# 
# High freq. dielectric constant tensor:
#      x y z
#    x 1.775810 0.000000 0.000000 
#    y 0.000000 1.775810 0.000000 
#    z 0.000000 0.000000 1.760370 
# 
# From -- ./inp_files/844.got.cif
#   From: 2010.03.12/outbox.cif.g09.slc.cpg/sg84_1_cif.got.tgz:844.got - 2010.04.08 20:07:29.
