data_PCOD8303122
_publ_section_title
;
Structure prediction by ZEFSAII (Michael W. Deem and Ramdas Pophale) SiO2 
 PCOD8303122
Probable space group: P 42/M
;
_chemical_formula_sum "Si O2"
_cell_formula_units_Z 64
_cell_length_a 20.467491
_cell_length_b 20.467491
_cell_length_c 8.783852
_cell_angle_alpha 90.000000
_cell_angle_beta 90.000000
_cell_angle_gamma 90.000000
_cell_volume 3679.715362
_symmetry_space_group_name_H-M "P 42/M"
_symmetry_group_IT_number 84
_symmetry_cell_setting 'tetragonal'
loop_
_space_group_symop_operation_xyz
x,y,z
-y,x,1/2+z
-x,-y,z
y,-x,1/2+z
-x,-y,-z
y,-x,1/2-z
x,y,-z
-y,x,1/2-z
loop_
_atom_site_type_symbol
_atom_site_label
_atom_site_fract_x
_atom_site_fract_y
_atom_site_fract_z
Si Si1 0.025462 0.089852 0.675620
Si Si2 0.762258 0.329851 0.669589
Si Si3 0.876204 0.741127 0.678738
Si Si4 0.222756 0.349108 0.829940
Si Si5 0.149788 0.771114 0.179146
Si Si6 0.998371 0.781234 0.821475
Si Si7 0.327926 0.574645 0.822995
Si Si8 0.319696 0.437536 0.677199
O O1 0.042595 0.075452 0.500000
O O2 0.036005 0.164007 0.716636
O O3 0.950966 0.072599 0.714795
O O4 0.781383 0.352985 0.500000
O O5 0.703643 0.279442 0.664206
O O6 0.824551 0.295149 0.744988
O O7 0.739784 0.392337 0.767430
O O8 0.890748 0.741742 0.500000
O O9 0.833902 0.677480 0.720208
O O10 0.835180 0.807558 0.727253
O O11 0.944453 0.727482 0.772927
O O12 0.253211 0.415390 0.761745
O O13 0.195599 0.362419 0.000000
O O14 0.073473 0.773758 0.229842
O O15 0.155391 0.762359 0.000000
O O16 0.995404 0.796685 0.000000
O O17 0.341005 0.508411 0.732898
O O18 0.389021 0.620879 0.785798
O O19 0.321410 0.559100 0.000000
O O20 0.303961 0.438511 0.500000
#
# Coordination Sequence:
#
# PCOD8303122 Si02
#       8
#     8   8   8   8   8   8   8   8
#     4  11  21  33  46  60  82 115 153 191 233 288
#     4   9  17  30  50  72  94 122 160 203 242 284
#     4  10  19  32  49  69  94 125 161 203 250 297
#     4   9  17  31  50  71  95 125 162 203 246 289
#     4   9  19  33  48  66  92 124 158 199 247 296
#     4  11  21  32  46  67  93 121 155 197 246 297
#     4  10  20  33  50  73 104 139 170 201 237 276
#     4  10  20  33  50  74 104 137 172 205 236 275
#
# _framework density 17.39265
#
# number of rings (size 3 to 8) (size 9 to 14) (size 15 to 20)
#    0.000    2.125    0.000    4.500    0.000    7.250 
#    0.000    1.250    0.000    0.000    0.000    0.875 
#    0.000    7.000    0.000    0.000    0.000    0.000 
#
# Total GULP energy -793195.451132 kJ/mol
# GULP energy per Si atom -12393.678924 kJ/mol
# Density = 1.735306 g / cm^3
# Si number density = 17.392650 Si / 1000 Ang^3
#
#
#
# Elastic Constant Matrix: (Units=GPa)
#
#
# Indices 1 2 3 4 5 6 
#
# 1 67.9276 41.2180 31.8236 0.0000 0.0000 1.1782
# 2 41.2180 67.9276 31.8236 0.0000 0.0000 -1.1782
# 3 31.8236 31.8236 72.4942 0.0000 0.0000 0.0000
# 4 0.0000 0.0000 0.0000 29.0522 0.0000 0.0000
# 5 0.0000 0.0000 0.0000 0.0000 29.0522 0.0000
# 6 1.1782 -1.1782 0.0000 0.0000 0.0000 2.5947
#
#
#
# Elastic Compliance Matrix: (Units=1/GPa)
#
#
# Indices 1 2 3 4 5 6 
#
# 1 0.025658 -0.013344 -0.005406 0.000000 0.000000 -0.017710
# 2 -0.013344 0.025658 -0.005406 0.000000 0.000000 0.017710
# 3 -0.005406 -0.005406 0.018540 0.000000 0.000000 0.000000
# 4 0.000000 0.000000 0.000000 0.034421 0.000000 0.000000
# 5 0.000000 0.000000 0.000000 0.000000 0.034421 0.000000
# 6 -0.017710 0.017710 0.000000 0.000000 0.000000 0.401483
#
#
# Mechanical properties :
#
#
# Convention : Reuss Voigt Hill
#
# Bulk Modulus (GPa) = 46.41247 46.45330 46.43288
# Shear Modulus (GPa) = 8.39385 19.03879 13.71632
#
# Velocity S-wave (km/s) = 2.19922 3.31213 2.81130
# Velocity P-wave (km/s) = 5.76123 6.43378 6.10677
#
# Compressibility (1/GPa) = 0.02154594
#
# Stress axis : x y z
#
# Youngs Moduli (GPa) = 38.97382 38.97382 53.93657
#
# Poissons Ratio (x) = 0.52006 0.29157
# Poissons Ratio (y) = 0.52006 0.29157
# Poissons Ratio (z) = 0.21068 0.21068
#
# Static dielectric constant tensor:
#      x y z
#    x 3.189940 0.000000 0.000000 
#    y 0.000000 3.189940 0.000000 
#    z 0.000000 0.000000 3.418690 
# 
# 
# High freq. dielectric constant tensor:
#      x y z
#    x 1.648430 0.000000 0.000000 
#    y 0.000000 1.648430 0.000000 
#    z 0.000000 0.000000 1.686560 
# 
# From -- ./inp_files/1368.got.cif
#   From: 2010.03.12/outbox.cif.g09.slc.cpg/sg84_1_cif.got.tgz:1368.got - 2010.04.08 20:07:29.
