data_PCOD8303059
_publ_section_title
;
Structure prediction by ZEFSAII (Michael W. Deem and Ramdas Pophale) SiO2 
 PCOD8303059
Probable space group: P 42/M
;
_chemical_formula_sum "Si O2"
_cell_formula_units_Z 48
_cell_length_a 14.690609
_cell_length_b 14.690609
_cell_length_c 13.585742
_cell_angle_alpha 90.000000
_cell_angle_beta 90.000000
_cell_angle_gamma 90.000000
_cell_volume 2931.993226
_symmetry_space_group_name_H-M "P 42/M"
_symmetry_group_IT_number 84
_symmetry_cell_setting 'tetragonal'
loop_
_space_group_symop_operation_xyz
x,y,z
-y,x,1/2+z
-x,-y,z
y,-x,1/2+z
-x,-y,-z
y,-x,1/2-z
x,y,-z
-y,x,1/2-z
loop_
_atom_site_type_symbol
_atom_site_label
_atom_site_fract_x
_atom_site_fract_y
_atom_site_fract_z
Si Si1 0.884699 0.564952 0.883476
Si Si2 0.749987 0.158007 0.308470
Si Si3 0.286242 0.097261 0.112673
Si Si4 0.790069 0.964055 0.388477
Si Si5 0.094376 0.201184 0.389652
Si Si6 0.919155 0.387434 0.798501
O O1 0.821321 0.649938 0.853523
O O2 0.851681 0.468379 0.835766
O O3 0.981160 0.588209 0.836362
O O4 0.890731 0.553845 0.000000
O O5 0.811643 0.236788 0.352561
O O6 0.743438 0.155733 0.189360
O O7 0.795345 0.060453 0.334313
O O8 0.376824 0.083848 0.179679
O O9 0.217133 0.012896 0.127775
O O10 0.318168 0.106191 0.000000
O O11 0.764667 0.987169 0.500000
O O12 0.884070 0.907241 0.378693
O O13 0.711651 0.897102 0.344253
O O14 0.121938 0.233787 0.500000
#
# Coordination Sequence:
#
# PCOD8303059 Si02
#       6
#     8   8   8   8   8   8
#     4  10  19  31  51  71  87 118 164 210 246 275
#     4  11  18  34  46  68  94 125 162 204 244 275
#     4  11  21  32  46  67  98 132 160 193 242 299
#     4  10  18  29  46  64  89 127 165 203 235 267
#     4  10  19  30  44  66  94 129 168 193 233 282
#     4  10  17  31  46  66  91 116 157 205 243 284
#
# _framework density 16.371116000000001
#
# number of rings (size 3 to 8) (size 9 to 14) (size 15 to 20)
#    0.000    1.667    5.000    4.500    0.000    0.667 
#    0.000    6.667    0.000    0.000    0.000    0.000 
#    0.000    0.667    0.000    3.167    0.000    0.000 
#
# Total GULP energy -594704.560538 kJ/mol
# GULP energy per Si atom -12389.678345 kJ/mol
# Density = 1.633385 g / cm^3
# Si number density = 16.371116 Si / 1000 Ang^3
#
#
#
# Elastic Constant Matrix: (Units=GPa)
#
#
# Indices 1 2 3 4 5 6 
#
# 1 54.3787 20.7513 33.2983 0.0000 0.0000 1.5966
# 2 20.7513 54.3787 33.2983 0.0000 0.0000 -1.5966
# 3 33.2983 33.2983 143.1685 0.0000 0.0000 0.0000
# 4 0.0000 0.0000 0.0000 20.2368 0.0000 0.0000
# 5 0.0000 0.0000 0.0000 0.0000 20.2368 0.0000
# 6 1.5966 -1.5966 0.0000 0.0000 0.0000 6.0212
#
#
#
# Elastic Compliance Matrix: (Units=1/GPa)
#
#
# Indices 1 2 3 4 5 6 
#
# 1 0.023636 -0.006869 -0.003900 0.000000 0.000000 -0.008089
# 2 -0.006869 0.023636 -0.003900 0.000000 0.000000 0.008089
# 3 -0.003900 -0.003900 0.008799 0.000000 0.000000 0.000000
# 4 0.000000 0.000000 0.000000 0.049415 0.000000 0.000000
# 5 0.000000 0.000000 0.000000 0.000000 0.049415 0.000000
# 6 -0.008089 0.008089 0.000000 0.000000 0.000000 0.170370
#
#
# Mechanical properties :
#
#
# Convention : Reuss Voigt Hill
#
# Bulk Modulus (GPa) = 37.40549 47.40241 42.40395
# Shear Modulus (GPa) = 13.75440 20.27081 17.01261
#
# Velocity S-wave (km/s) = 2.90170 3.52263 3.22714
# Velocity P-wave (km/s) = 5.84162 6.75004 6.31219
#
# Compressibility (1/GPa) = 0.02673405
#
# Stress axis : x y z
#
# Youngs Moduli (GPa) = 42.30763 42.30763 113.65219
#
# Poissons Ratio (x) = 0.29063 0.44321
# Poissons Ratio (y) = 0.29063 0.44321
# Poissons Ratio (z) = 0.16499 0.16499
#
# Static dielectric constant tensor:
#      x y z
#    x 3.397500 0.000000 0.000000 
#    y 0.000000 3.397500 0.000000 
#    z 0.000000 0.000000 3.524860 
# 
# 
# High freq. dielectric constant tensor:
#      x y z
#    x 1.589680 0.000000 0.000000 
#    y 0.000000 1.589680 0.000000 
#    z 0.000000 0.000000 1.659610 
# 
# From -- ./inp_files/3050.got.cif
#   From: 2010.03.12/outbox.cif.g09.slc.cpg/sg84_2_cif.got.tgz:3050.got - 2010.04.08 20:07:29.
