data_PCOD8303867
_publ_section_title
;
Structure prediction by ZEFSAII (Michael W. Deem and Ramdas Pophale) SiO2 
 PCOD8303867
Probable space group: I 4/M
;
_chemical_formula_sum "Si O2"
_cell_formula_units_Z 72
_cell_length_a 19.960463
_cell_length_b 19.960463
_cell_length_c 9.974131
_cell_angle_alpha 90.000000
_cell_angle_beta 90.000000
_cell_angle_gamma 90.000000
_cell_volume 3973.894103
_symmetry_space_group_name_H-M "I 4/M"
_symmetry_group_IT_number 87
_symmetry_cell_setting 'tetragonal'
loop_
_space_group_symop_operation_xyz
x,y,z
-y,x,z
-x,-y,z
y,-x,z
-x,-y,-z
y,-x,-z
x,y,-z
-y,x,-z
1/2+x,1/2+y,1/2+z
1/2-y,1/2+x,1/2+z
1/2-x,1/2-y,1/2+z
1/2+y,1/2-x,1/2+z
1/2-x,1/2-y,1/2-z
1/2+y,1/2-x,1/2-z
1/2+x,1/2+y,1/2-z
1/2-y,1/2+x,1/2-z
loop_
_atom_site_type_symbol
_atom_site_label
_atom_site_fract_x
_atom_site_fract_y
_atom_site_fract_z
Si Si1 0.721857 0.457956 0.716847
Si Si2 0.137097 0.358277 0.500000
Si Si3 0.507278 0.828382 0.500000
Si Si4 0.875398 0.348903 0.500000
Si Si5 0.680741 0.786953 0.253839
Si Si6 0.732294 0.008353 0.500000
Si Si7 0.609666 0.479260 0.500000
O O1 0.783053 0.489535 0.633305
O O2 0.732170 0.378447 0.735608
O O3 0.653210 0.470881 0.635926
O O4 0.720809 0.490407 0.866529
O O5 0.129104 0.438903 0.500000
O O6 0.178682 0.335028 0.626923
O O7 0.066562 0.322057 0.500000
O O8 0.569929 0.879628 0.500000
O O9 0.836254 0.320248 0.376055
O O10 0.947316 0.317547 0.500000
O O11 0.750000 0.750000 0.250000
O O12 0.577679 0.552939 0.500000
#
# Coordination Sequence:
#
# PCOD8303867 Si02
#       7
#    16   8   8   8  16   8   8
#     4   9  20  36  54  79 111 139 176 226 269 314
#     4  10  20  33  52  74 107 143 176 218 262 315
#     4   9  18  34  52  76 106 147 188 217 252 307
#     4  10  20  33  52  76 107 139 177 219 258 319
#     4  10  20  34  52  78 106 136 177 221 266 316
#     4  10  20  35  52  81 114 141 171 215 272 319
#     4  10  22  41  62  81 102 137 184 225 266 326
#
# _framework density 18.118248999999999
#
# number of rings (size 3 to 8) (size 9 to 14) (size 15 to 20)
#    0.000    2.333    0.000    2.667    0.000    5.778 
#    0.000    1.111    0.000    9.333    0.000    0.000 
#    0.000    0.000    0.000    0.000    0.000    0.000 
#
# Total GULP energy -446276.294334 kJ/mol
# GULP energy per Si atom -12396.563731 kJ/mol
# Density = 1.807701 g / cm^3
# Si number density = 18.118249 Si / 1000 Ang^3
#
#
#
# Elastic Constant Matrix: (Units=GPa)
#
#
# Indices 1 2 3 4 5 6 
#
# 1 116.0404 56.1344 57.1014 0.0000 0.0000 -12.9086
# 2 56.1344 116.0404 57.1014 0.0000 0.0000 12.9086
# 3 57.1014 57.1014 174.5238 0.0000 0.0000 0.0000
# 4 0.0000 0.0000 0.0000 2.2974 0.0000 0.0000
# 5 0.0000 0.0000 0.0000 0.0000 2.2974 0.0000
# 6 -12.9086 12.9086 0.0000 0.0000 0.0000 24.3089
#
#
#
# Elastic Compliance Matrix: (Units=1/GPa)
#
#
# Indices 1 2 3 4 5 6 
#
# 1 0.014532 -0.007114 -0.002427 0.000000 0.000000 0.011495
# 2 -0.007114 0.014532 -0.002427 0.000000 0.000000 -0.011495
# 3 -0.002427 -0.002427 0.007318 0.000000 0.000000 0.000000
# 4 0.000000 0.000000 0.000000 0.435279 0.000000 0.000000
# 5 0.000000 0.000000 0.000000 0.000000 0.435279 0.000000
# 6 0.011495 -0.011495 0.000000 0.000000 0.000000 0.053345
#
#
# Mechanical properties :
#
#
# Convention : Reuss Voigt Hill
#
# Bulk Modulus (GPa) = 80.34873 83.03098 81.68986
# Shear Modulus (GPa) = 5.05882 21.53190 13.29536
#
# Velocity S-wave (km/s) = 1.67278 3.45107 2.71183
# Velocity P-wave (km/s) = 6.94075 7.86172 7.41555
#
# Compressibility (1/GPa) = 0.01244575
#
# Stress axis : x y z
#
# Youngs Moduli (GPa) = 68.81241 68.81241 136.64875
#
# Poissons Ratio (x) = 0.48956 0.33165
# Poissons Ratio (y) = 0.48956 0.33165
# Poissons Ratio (z) = 0.16701 0.16701
#
# Static dielectric constant tensor:
#      x y z
#    x 3.234060 0.000000 0.000000 
#    y 0.000000 3.234060 0.000000 
#    z 0.000000 0.000000 4.094620 
# 
# 
# High freq. dielectric constant tensor:
#      x y z
#    x 1.693100 0.000000 0.000000 
#    y 0.000000 1.693100 0.000000 
#    z 0.000000 0.000000 1.724290 
# 
# From -- ./inp_files/1146.got.cif
#   From: 2010.03.12/outbox.cif.g09.slc.cpg/sg87_1_cif.got.tgz:1146.got - 2010.04.08 20:16:13.
