data_PCOD8303107
_publ_section_title
;
Structure prediction by ZEFSAII (Michael W. Deem and Ramdas Pophale) SiO2 
 PCOD8303107
Probable space group: P 42/M
;
_chemical_formula_sum "Si O2"
_cell_formula_units_Z 64
_cell_length_a 19.549413
_cell_length_b 19.549413
_cell_length_c 9.210659
_cell_angle_alpha 90.000000
_cell_angle_beta 90.000000
_cell_angle_gamma 90.000000
_cell_volume 3520.125499
_symmetry_space_group_name_H-M "P 42/M"
_symmetry_group_IT_number 84
_symmetry_cell_setting 'tetragonal'
loop_
_space_group_symop_operation_xyz
x,y,z
-y,x,1/2+z
-x,-y,z
y,-x,1/2+z
-x,-y,-z
y,-x,1/2-z
x,y,-z
-y,x,1/2-z
loop_
_atom_site_type_symbol
_atom_site_label
_atom_site_fract_x
_atom_site_fract_y
_atom_site_fract_z
Si Si1 0.915342 0.831834 0.667874
Si Si2 0.180835 0.421791 0.835077
Si Si3 0.708108 0.824788 0.829246
Si Si4 0.175096 0.555078 0.670348
Si Si5 0.823885 0.930300 0.169332
Si Si6 0.659909 0.560701 0.159485
Si Si7 0.329394 0.561879 0.667661
Si Si8 0.279930 0.802353 0.828504
O O1 0.914001 0.851140 0.500000
O O2 0.889615 0.898587 0.752212
O O3 0.867895 0.767130 0.701230
O O4 0.991755 0.813525 0.720278
O O5 0.144620 0.488841 0.758100
O O6 0.259642 0.438536 0.839974
O O7 0.174809 0.352061 0.742885
O O8 0.151836 0.412809 0.000000
O O9 0.631296 0.852476 0.788492
O O10 0.755726 0.888726 0.788556
O O11 0.735663 0.756890 0.744123
O O12 0.709709 0.805187 0.000000
O O13 0.164944 0.539113 0.500000
O O14 0.252544 0.565834 0.720973
O O15 0.838335 0.925186 0.000000
O O16 0.632071 0.633757 0.214372
O O17 0.630828 0.501085 0.259948
O O18 0.630559 0.546488 0.000000
O O19 0.330600 0.547213 0.500000
O O20 0.290601 0.788001 0.000000
#
# Coordination Sequence:
#
# PCOD8303107 Si02
#       8
#     8   8   8   8   8   8   8   8
#     4   9  19  34  51  76 108 137 168 205 241 284
#     4  10  19  31  47  67  91 119 156 201 248 298
#     4   9  17  31  52  74  97 128 166 207 249 297
#     4   9  17  30  47  67  90 116 151 198 251 298
#     4   9  18  33  53  77 105 138 172 202 239 288
#     4   9  18  30  41  55  77 105 138 179 226 276
#     4   9  17  28  40  54  75 103 135 175 224 277
#     4  10  19  31  49  72  99 130 164 205 251 296
#
# _framework density 18.181170999999999
#
# number of rings (size 3 to 8) (size 9 to 14) (size 15 to 20)
#    0.000    2.750    0.000    1.500    0.000    5.000 
#    0.000    5.000    0.000    0.750    0.000    5.250 
#    0.000    0.000    0.000    0.000    0.000    0.000 
#
# Total GULP energy -792841.104558 kJ/mol
# GULP energy per Si atom -12388.142259 kJ/mol
# Density = 1.813979 g / cm^3
# Si number density = 18.181171 Si / 1000 Ang^3
#
#
#
# Elastic Constant Matrix: (Units=GPa)
#
#
# Indices 1 2 3 4 5 6 
#
# 1 98.1263 2.8922 32.0584 0.0000 0.0000 3.0255
# 2 2.8922 98.1263 32.0584 0.0000 0.0000 -3.0255
# 3 32.0584 32.0584 48.8293 0.0000 0.0000 0.0000
# 4 0.0000 0.0000 0.0000 25.0575 0.0000 0.0000
# 5 0.0000 0.0000 0.0000 0.0000 25.0575 0.0000
# 6 3.0255 -3.0255 0.0000 0.0000 0.0000 16.8349
#
#
#
# Elastic Compliance Matrix: (Units=1/GPa)
#
#
# Indices 1 2 3 4 5 6 
#
# 1 0.013796 0.003175 -0.011142 0.000000 0.000000 -0.001909
# 2 0.003175 0.013796 -0.011142 0.000000 0.000000 0.001909
# 3 -0.011142 -0.011142 0.035110 0.000000 0.000000 0.000000
# 4 0.000000 0.000000 0.000000 0.039908 0.000000 0.000000
# 5 0.000000 0.000000 0.000000 0.000000 0.039908 0.000000
# 6 -0.001909 0.001909 0.000000 0.000000 0.000000 0.060087
#
#
# Mechanical properties :
#
#
# Convention : Reuss Voigt Hill
#
# Bulk Modulus (GPa) = 40.84380 42.12221 41.48300
# Shear Modulus (GPa) = 20.08135 25.26149 22.67142
#
# Velocity S-wave (km/s) = 3.32703 3.73155 3.53508
# Velocity P-wave (km/s) = 6.10512 6.46408 6.28716
#
# Compressibility (1/GPa) = 0.02448352
#
# Stress axis : x y z
#
# Youngs Moduli (GPa) = 72.48221 72.48221 28.48169
#
# Poissons Ratio (x) = -0.23011 0.31735
# Poissons Ratio (y) = -0.23011 0.31735
# Poissons Ratio (z) = 0.80762 0.80762
#
# Static dielectric constant tensor:
#      x y z
#    x 3.469050 0.000000 0.000000 
#    y 0.000000 3.469050 0.000000 
#    z 0.000000 0.000000 3.573150 
# 
# 
# High freq. dielectric constant tensor:
#      x y z
#    x 1.690310 0.000000 0.000000 
#    y 0.000000 1.690310 0.000000 
#    z 0.000000 0.000000 1.702230 
# 
# From -- ./inp_files/1381.got.cif
#   From: 2010.03.12/outbox.cif.g09.slc.cpg/sg84_1_cif.got.tgz:1381.got - 2010.04.08 20:07:29.
