data_PCOD8303760
_publ_section_title
;
Structure prediction by ZEFSAII (Michael W. Deem and Ramdas Pophale) SiO2 
 PCOD8303760
Probable space group: I 4/M
;
_chemical_formula_sum "Si O2"
_cell_formula_units_Z 96
_cell_length_a 15.595942
_cell_length_b 15.595942
_cell_length_c 28.611105
_cell_angle_alpha 90.000000
_cell_angle_beta 90.000000
_cell_angle_gamma 90.000000
_cell_volume 6959.176543
_symmetry_space_group_name_H-M "I 4/M"
_symmetry_group_IT_number 87
_symmetry_cell_setting 'tetragonal'
loop_
_space_group_symop_operation_xyz
x,y,z
-y,x,z
-x,-y,z
y,-x,z
-x,-y,-z
y,-x,-z
x,y,-z
-y,x,-z
1/2+x,1/2+y,1/2+z
1/2-y,1/2+x,1/2+z
1/2-x,1/2-y,1/2+z
1/2+y,1/2-x,1/2+z
1/2-x,1/2-y,1/2-z
1/2+y,1/2-x,1/2-z
1/2+x,1/2+y,1/2-z
1/2-y,1/2+x,1/2-z
loop_
_atom_site_type_symbol
_atom_site_label
_atom_site_fract_x
_atom_site_fract_y
_atom_site_fract_z
Si Si1 0.712065 0.463623 0.809986
Si Si2 0.925484 0.882995 0.217603
Si Si3 0.930435 0.123293 0.447744
Si Si4 0.310392 0.233487 0.704493
Si Si5 0.940317 0.620937 0.746783
Si Si6 0.314291 0.359584 0.857316
O O1 0.647130 0.424851 0.771351
O O2 0.811291 0.451545 0.795277
O O3 0.689570 0.405235 0.854438
O O4 0.692326 0.561520 0.821145
O O5 0.866308 0.816249 0.189539
O O6 0.025974 0.883218 0.205160
O O7 0.911215 0.157383 0.500000
O O8 0.892099 0.192461 0.410848
O O9 0.031626 0.114037 0.439929
O O10 0.250000 0.250000 0.750000
O O11 0.376839 0.157369 0.714270
O O12 0.258076 0.208317 0.658021
O O13 0.898653 0.531972 0.728461
#
# Coordination Sequence:
#
# PCOD8303760 Si02
#       6
#    16  16  16  16  16  16
#     4  11  19  26  41  62  82 111 158 180 212 252
#     4  10  19  29  41  57  85 119 149 179 215 253
#     4   9  18  30  44  64  89 115 145 184 225 261
#     4  11  20  28  41  61  86 112 153 189 210 246
#     4  10  20  31  40  52  85 123 149 182 213 250
#     4  12  19  28  43  63  87 118 150 188 209 255
#
# _framework density 13.794736
#
# number of rings (size 3 to 8) (size 9 to 14) (size 15 to 20)
#    0.000    1.500    8.333    0.500    2.333    0.333 
#    0.000    0.000    0.000    0.000    0.000    0.000 
#    0.000    8.000    0.000    1.833    0.000    0.000 
#
# Total GULP energy -594648.529591 kJ/mol
# GULP energy per Si atom -12388.511033 kJ/mol
# Density = 1.376334 g / cm^3
# Si number density = 13.794736 Si / 1000 Ang^3
#
#
#
# Elastic Constant Matrix: (Units=GPa)
#
#
# Indices 1 2 3 4 5 6 
#
# 1 79.9651 48.5825 27.4157 0.0000 0.0000 -1.1682
# 2 48.5825 79.9651 27.4157 0.0000 0.0000 1.1682
# 3 27.4157 27.4157 66.2149 0.0000 0.0000 0.0000
# 4 0.0000 0.0000 0.0000 16.3757 0.0000 0.0000
# 5 0.0000 0.0000 0.0000 0.0000 16.3757 0.0000
# 6 -1.1682 1.1682 0.0000 0.0000 0.0000 30.7687
#
#
#
# Elastic Compliance Matrix: (Units=1/GPa)
#
#
# Indices 1 2 3 4 5 6 
#
# 1 0.020701 -0.011254 -0.003912 0.000000 0.000000 0.001213
# 2 -0.011254 0.020701 -0.003912 0.000000 0.000000 -0.001213
# 3 -0.003912 -0.003912 0.018342 0.000000 0.000000 0.000000
# 4 0.000000 0.000000 0.000000 0.061066 0.000000 0.000000
# 5 0.000000 0.000000 0.000000 0.000000 0.061066 0.000000
# 6 0.001213 -0.001213 0.000000 0.000000 0.000000 0.032593
#
#
# Mechanical properties :
#
#
# Convention : Reuss Voigt Hill
#
# Bulk Modulus (GPa) = 46.31756 48.10809 47.21282
# Shear Modulus (GPa) = 19.24408 20.88611 20.06509
#
# Velocity S-wave (km/s) = 3.73906 3.89532 3.81799
# Velocity P-wave (km/s) = 7.23118 7.42841 7.33046
#
# Compressibility (1/GPa) = 0.02159008
#
# Stress axis : x y z
#
# Youngs Moduli (GPa) = 48.30587 48.30587 54.52094
#
# Poissons Ratio (x) = 0.54362 0.21327
# Poissons Ratio (y) = 0.54362 0.21327
# Poissons Ratio (z) = 0.18896 0.18896
#
# Static dielectric constant tensor:
#      x y z
#    x 2.872140 0.000000 0.000000 
#    y 0.000000 2.872140 0.000000 
#    z 0.000000 0.000000 2.360700 
# 
# 
# High freq. dielectric constant tensor:
#      x y z
#    x 1.532750 0.000000 0.000000 
#    y 0.000000 1.532750 0.000000 
#    z 0.000000 0.000000 1.465110 
# 
# From -- ./inp_files/6664.got.cif
#   From: 2010.03.12/outbox.cif.g09.slc.cpg/sg87_4_cif.got.tgz:6664.got - 2010.04.08 20:16:13.
