data_PCOD8303062
_publ_section_title
;
Structure prediction by ZEFSAII (Michael W. Deem and Ramdas Pophale) SiO2 
 PCOD8303062
Probable space group: P 42/M
;
_chemical_formula_sum "Si O2"
_cell_formula_units_Z 48
_cell_length_a 16.993153
_cell_length_b 16.993153
_cell_length_c 9.054201
_cell_angle_alpha 90.000000
_cell_angle_beta 90.000000
_cell_angle_gamma 90.000000
_cell_volume 2614.556714
_symmetry_space_group_name_H-M "P 42/M"
_symmetry_group_IT_number 84
_symmetry_cell_setting 'tetragonal'
loop_
_space_group_symop_operation_xyz
x,y,z
-y,x,1/2+z
-x,-y,z
y,-x,1/2+z
-x,-y,-z
y,-x,1/2-z
x,y,-z
-y,x,1/2-z
loop_
_atom_site_type_symbol
_atom_site_label
_atom_site_fract_x
_atom_site_fract_y
_atom_site_fract_z
Si Si1 0.716980 0.007105 0.163397
Si Si2 0.706927 0.421579 0.326156
Si Si3 0.180911 0.268685 0.325422
Si Si4 0.696948 0.840045 0.823661
Si Si5 0.400780 0.695273 0.827869
Si Si6 0.980351 0.104624 0.335888
O O1 0.674395 0.929550 0.233875
O O2 0.803359 0.970590 0.157124
O O3 0.716189 0.092529 0.243417
O O4 0.682325 0.022178 0.000000
O O5 0.696285 0.416136 0.500000
O O6 0.785629 0.376114 0.274770
O O7 0.713803 0.511334 0.272050
O O8 0.630482 0.381999 0.254258
O O9 0.175046 0.250284 0.500000
O O10 0.222846 0.194412 0.248140
O O11 0.229106 0.347702 0.290402
O O12 0.708618 0.840826 0.000000
O O13 0.399128 0.676179 0.000000
O O14 0.971345 0.068990 0.500000
O O15 0.066990 0.084366 0.272354
#
# Coordination Sequence:
#
# PCOD8303062 Si02
#       6
#     8   8   8   8   8   8
#     4   9  17  28  44  64  85 114 151 188 224 263
#     4   9  18  32  50  72  96 121 149 182 222 270
#     4   9  17  31  48  66  91 121 153 189 228 268
#     4   9  17  31  48  66  91 121 153 189 228 268
#     4   9  18  32  50  72  96 121 149 182 222 270
#     4  10  18  27  38  55  80 108 141 182 227 268
#
# _framework density 18.358751000000002
#
# number of rings (size 3 to 8) (size 9 to 14) (size 15 to 20)
#    0.000    2.833    0.000    2.000    0.000    1.000 
#    0.000    5.000    0.000    5.000    0.000    0.000 
#    0.000   10.667    0.000    0.000    0.000    0.000 
#
# Total GULP energy -594644.891179 kJ/mol
# GULP energy per Si atom -12388.435233 kJ/mol
# Density = 1.831697 g / cm^3
# Si number density = 18.358751 Si / 1000 Ang^3
#
#
#
# Elastic Constant Matrix: (Units=GPa)
#
#
# Indices 1 2 3 4 5 6 
#
# 1 112.8169 31.4363 14.7818 0.0000 0.0000 0.3129
# 2 31.4363 112.8169 14.7818 0.0000 0.0000 -0.3129
# 3 14.7818 14.7818 34.3786 0.0000 0.0000 0.0000
# 4 0.0000 0.0000 0.0000 21.8902 0.0000 0.0000
# 5 0.0000 0.0000 0.0000 0.0000 21.8902 0.0000
# 6 0.3129 -0.3129 0.0000 0.0000 0.0000 14.2728
#
#
#
# Elastic Compliance Matrix: (Units=1/GPa)
#
#
# Indices 1 2 3 4 5 6 
#
# 1 0.009946 -0.002344 -0.003269 0.000000 0.000000 -0.000269
# 2 -0.002344 0.009946 -0.003269 0.000000 0.000000 0.000269
# 3 -0.003269 -0.003269 0.031899 0.000000 0.000000 0.000000
# 4 0.000000 0.000000 0.000000 0.045683 0.000000 0.000000
# 5 0.000000 0.000000 0.000000 0.000000 0.045683 0.000000
# 6 -0.000269 0.000269 0.000000 0.000000 0.000000 0.070075
#
#
# Mechanical properties :
#
#
# Convention : Reuss Voigt Hill
#
# Bulk Modulus (GPa) = 29.38731 42.44579 35.91655
# Shear Modulus (GPa) = 20.63244 24.87813 22.75529
#
# Velocity S-wave (km/s) = 3.35602 3.68518 3.52444
# Velocity P-wave (km/s) = 5.57308 6.42478 6.01402
#
# Compressibility (1/GPa) = 0.03402829
#
# Stress axis : x y z
#
# Youngs Moduli (GPa) = 100.54210 100.54210 31.34915
#
# Poissons Ratio (x) = 0.23566 0.10247
# Poissons Ratio (y) = 0.23566 0.10247
# Poissons Ratio (z) = 0.32864 0.32864
#
# Static dielectric constant tensor:
#      x y z
#    x 3.481670 0.000000 0.000000 
#    y 0.000000 3.481670 0.000000 
#    z 0.000000 0.000000 3.232710 
# 
# 
# High freq. dielectric constant tensor:
#      x y z
#    x 1.708200 0.000000 0.000000 
#    y 0.000000 1.708200 0.000000 
#    z 0.000000 0.000000 1.684860 
# 
# From -- ./inp_files/1010.got.cif
#   From: 2010.03.12/outbox.cif.g09.slc.cpg/sg84_1_cif.got.tgz:1010.got - 2010.04.08 20:07:29.
