data_PCOD8303109
_publ_section_title
;
Structure prediction by ZEFSAII (Michael W. Deem and Ramdas Pophale) SiO2 
 PCOD8303109
Probable space group: P 42/M
;
_chemical_formula_sum "Si O2"
_cell_formula_units_Z 64
_cell_length_a 19.555365
_cell_length_b 19.555365
_cell_length_c 9.057694
_cell_angle_alpha 90.000000
_cell_angle_beta 90.000000
_cell_angle_gamma 90.000000
_cell_volume 3463.773598
_symmetry_space_group_name_H-M "P 42/M"
_symmetry_group_IT_number 84
_symmetry_cell_setting 'tetragonal'
loop_
_space_group_symop_operation_xyz
x,y,z
-y,x,1/2+z
-x,-y,z
y,-x,1/2+z
-x,-y,-z
y,-x,1/2-z
x,y,-z
-y,x,1/2-z
loop_
_atom_site_type_symbol
_atom_site_label
_atom_site_fract_x
_atom_site_fract_y
_atom_site_fract_z
Si Si1 0.671633 0.429479 0.334471
Si Si2 0.809966 0.714704 0.173791
Si Si3 0.654744 0.575435 0.341321
Si Si4 0.439955 0.191304 0.327881
Si Si5 0.171904 0.920012 0.672195
Si Si6 0.815650 0.573666 0.334245
Si Si7 0.175645 0.074319 0.673459
Si Si8 0.183335 0.713510 0.826687
O O1 0.701064 0.417533 0.500000
O O2 0.625703 0.498340 0.326142
O O3 0.622258 0.366899 0.294227
O O4 0.729478 0.434130 0.211593
O O5 0.873794 0.763057 0.212518
O O6 0.831520 0.641686 0.241176
O O7 0.740855 0.747861 0.244142
O O8 0.797731 0.706503 0.000000
O O9 0.631686 0.606921 0.500000
O O10 0.735256 0.564866 0.340382
O O11 0.455294 0.181933 0.500000
O O12 0.503460 0.155134 0.241223
O O13 0.364491 0.162370 0.284982
O O14 0.156272 0.918073 0.500000
O O15 0.104388 0.892490 0.752894
O O16 0.187120 0.996810 0.727154
O O17 0.846312 0.580086 0.500000
O O18 0.165211 0.078176 0.500000
O O19 0.241385 0.118512 0.722850
O O20 0.199361 0.719616 0.000000
#
# Coordination Sequence:
#
# PCOD8303109 Si02
#       8
#     8   8   8   8   8   8   8   8
#     4  10  20  31  43  60  82 111 147 187 237 294
#     4  10  19  31  50  75 101 130 167 210 253 297
#     4   9  19  32  42  56  80 109 143 185 232 287
#     4  10  19  31  48  69  92 118 154 201 249 296
#     4   9  19  34  52  78 109 139 173 209 243 288
#     4  10  20  33  48  68  94 123 158 200 249 301
#     4   9  18  34  54  76 107 143 173 204 246 293
#     4   9  18  32  51  74  99 131 169 208 253 304
#
# _framework density 18.476958
#
# number of rings (size 3 to 8) (size 9 to 14) (size 15 to 20)
#    0.000    2.500    0.000    3.000    0.000    8.500 
#    0.000    2.500    0.000    0.750    0.000    5.250 
#    0.000    0.000    0.000    0.000    0.000    0.000 
#
# Total GULP energy -793212.809583 kJ/mol
# GULP energy per Si atom -12393.950150 kJ/mol
# Density = 1.843490 g / cm^3
# Si number density = 18.476958 Si / 1000 Ang^3
#
#
#
# Elastic Constant Matrix: (Units=GPa)
#
#
# Indices 1 2 3 4 5 6 
#
# 1 96.5291 30.1742 38.3110 0.0000 0.0000 -0.8693
# 2 30.1742 96.5291 38.3110 0.0000 0.0000 0.8693
# 3 38.3110 38.3110 73.7483 0.0000 0.0000 0.0000
# 4 0.0000 0.0000 0.0000 24.6675 0.0000 0.0000
# 5 0.0000 0.0000 0.0000 0.0000 24.6675 0.0000
# 6 -0.8693 0.8693 0.0000 0.0000 0.0000 16.5943
#
#
#
# Elastic Compliance Matrix: (Units=1/GPa)
#
#
# Indices 1 2 3 4 5 6 
#
# 1 0.013299 -0.001792 -0.005978 0.000000 0.000000 0.000791
# 2 -0.001792 0.013299 -0.005978 0.000000 0.000000 -0.000791
# 3 -0.005978 -0.005978 0.019771 0.000000 0.000000 0.000000
# 4 0.000000 0.000000 0.000000 0.040539 0.000000 0.000000
# 5 0.000000 0.000000 0.000000 0.000000 0.040539 0.000000
# 6 0.000791 -0.000791 0.000000 0.000000 0.000000 0.060345
#
#
# Mechanical properties :
#
#
# Convention : Reuss Voigt Hill
#
# Bulk Modulus (GPa) = 52.98369 53.37768 53.18069
# Shear Modulus (GPa) = 22.56532 23.85321 23.20927
#
# Velocity S-wave (km/s) = 3.49846 3.59691 3.54802
# Velocity P-wave (km/s) = 6.71243 6.79719 6.75494
#
# Compressibility (1/GPa) = 0.01887373
#
# Stress axis : x y z
#
# Youngs Moduli (GPa) = 75.19154 75.19154 50.58024
#
# Poissons Ratio (x) = 0.13473 0.30237
# Poissons Ratio (y) = 0.13473 0.30237
# Poissons Ratio (z) = 0.44949 0.44949
#
# Static dielectric constant tensor:
#      x y z
#    x 3.418150 0.000000 0.000000 
#    y 0.000000 3.418150 0.000000 
#    z 0.000000 0.000000 3.555000 
# 
# 
# High freq. dielectric constant tensor:
#      x y z
#    x 1.698580 0.000000 0.000000 
#    y 0.000000 1.698580 0.000000 
#    z 0.000000 0.000000 1.722590 
# 
# From -- ./inp_files/1390.got.cif
#   From: 2010.03.12/outbox.cif.g09.slc.cpg/sg84_1_cif.got.tgz:1390.got - 2010.04.08 20:07:29.
