data_PCOD8303263
_publ_section_title
;
Structure prediction by ZEFSAII (Michael W. Deem and Ramdas Pophale) SiO2 
 PCOD8303263
Probable space group: P 42/M
;
_chemical_formula_sum "Si O2"
_cell_formula_units_Z 40
_cell_length_a 15.636759
_cell_length_b 15.636759
_cell_length_c 8.652671
_cell_angle_alpha 90.000000
_cell_angle_beta 90.000000
_cell_angle_gamma 90.000000
_cell_volume 2115.649288
_symmetry_space_group_name_H-M "P 42/M"
_symmetry_group_IT_number 84
_symmetry_cell_setting 'tetragonal'
loop_
_space_group_symop_operation_xyz
x,y,z
-y,x,1/2+z
-x,-y,z
y,-x,1/2+z
-x,-y,-z
y,-x,1/2-z
x,y,-z
-y,x,1/2-z
loop_
_atom_site_type_symbol
_atom_site_label
_atom_site_fract_x
_atom_site_fract_y
_atom_site_fract_z
Si Si1 0.277451 0.136816 0.822581
Si Si2 0.337951 0.325021 0.176422
Si Si3 0.749337 0.517109 0.678690
Si Si4 0.938897 0.111609 0.819840
Si Si5 0.548187 0.913942 0.320205
O O1 0.285533 0.238095 0.796293
O O2 0.202423 0.102793 0.715016
O O3 0.365149 0.090212 0.777659
O O4 0.256855 0.115261 0.000000
O O5 0.436939 0.311042 0.220761
O O6 0.301266 0.396286 0.289612
O O7 0.328802 0.356092 0.000000
O O8 0.776150 0.511699 0.500000
O O9 0.835172 0.514266 0.780237
O O10 0.038200 0.112422 0.771253
O O11 0.931934 0.091884 0.000000
O O12 0.571762 0.912015 0.500000
O O13 0.500000 0.000000 0.273173
#
# Coordination Sequence:
#
# PCOD8303263 Si02
#       5
#     8   8   8   8   8
#     4  10  21  38  58  82 112 145 184 227 272 326
#     4   9  20  37  55  78 109 142 178 223 270 320
#     4  10  21  36  56  81 108 142 182 224 271 323
#     4  11  22  38  59  83 112 146 184 227 276 326
#     4  10  21  37  57  81 110 144 181 224 274 325
#
# _framework density 18.906725000000002
#
# number of rings (size 3 to 8) (size 9 to 14) (size 15 to 20)
#    0.000    2.000    0.000    5.400    0.000    8.400 
#    0.000    4.000    0.000    0.000    0.000    0.000 
#    0.000    0.000    0.000    0.000    0.000    0.000 
#
# Total GULP energy -496205.096026 kJ/mol
# GULP energy per Si atom -12405.127401 kJ/mol
# Density = 1.886369 g / cm^3
# Si number density = 18.906725 Si / 1000 Ang^3
#
#
#
# Elastic Constant Matrix: (Units=GPa)
#
#
# Indices 1 2 3 4 5 6 
#
# 1 98.6119 54.9793 27.1586 0.0000 0.0000 13.6272
# 2 54.9793 98.6119 27.1586 0.0000 0.0000 -13.6272
# 3 27.1586 27.1586 65.5657 0.0000 0.0000 0.0000
# 4 0.0000 0.0000 0.0000 33.5243 0.0000 0.0000
# 5 0.0000 0.0000 0.0000 0.0000 33.5243 0.0000
# 6 13.6272 -13.6272 0.0000 0.0000 0.0000 29.3016
#
#
#
# Elastic Compliance Matrix: (Units=1/GPa)
#
#
# Indices 1 2 3 4 5 6 
#
# 1 0.019965 -0.012337 -0.003160 0.000000 0.000000 -0.015023
# 2 -0.012337 0.019965 -0.003160 0.000000 0.000000 0.015023
# 3 -0.003160 -0.003160 0.017870 0.000000 0.000000 0.000000
# 4 0.000000 0.000000 0.000000 0.029829 0.000000 0.000000
# 5 0.000000 0.000000 0.000000 0.000000 0.029829 0.000000
# 6 -0.015023 0.015023 0.000000 0.000000 0.000000 0.048101
#
#
# Mechanical properties :
#
#
# Convention : Reuss Voigt Hill
#
# Bulk Modulus (GPa) = 48.81155 53.48696 51.14925
# Shear Modulus (GPa) = 23.84335 29.50289 26.67312
#
# Velocity S-wave (km/s) = 3.55506 3.95453 3.76010
# Velocity P-wave (km/s) = 6.53638 7.01444 6.77963
#
# Compressibility (1/GPa) = 0.02048696
#
# Stress axis : x y z
#
# Youngs Moduli (GPa) = 50.08675 50.08675 55.96111
#
# Poissons Ratio (x) = 0.61793 0.17682
# Poissons Ratio (y) = 0.61793 0.17682
# Poissons Ratio (z) = 0.15826 0.15826
#
# Static dielectric constant tensor:
#      x y z
#    x 3.403960 0.000000 0.000000 
#    y 0.000000 3.403960 0.000000 
#    z 0.000000 0.000000 3.488440 
# 
# 
# High freq. dielectric constant tensor:
#      x y z
#    x 1.734220 0.000000 0.000000 
#    y 0.000000 1.734220 0.000000 
#    z 0.000000 0.000000 1.746450 
# 
# From -- ./inp_files/731.got.cif
#   From: 2010.03.12/outbox.cif.g09.slc.cpg/sg84_1_cif.got.tgz:731.got - 2010.04.08 20:07:29.
