data_PCOD8303849
_publ_section_title
;
Structure prediction by ZEFSAII (Michael W. Deem and Ramdas Pophale) SiO2 
 PCOD8303849
Probable space group: I 4/M
;
_chemical_formula_sum "Si O2"
_cell_formula_units_Z 128
_cell_length_a 23.537598
_cell_length_b 23.537598
_cell_length_c 12.152709
_cell_angle_alpha 90.000000
_cell_angle_beta 90.000000
_cell_angle_gamma 90.000000
_cell_volume 6732.825849
_symmetry_space_group_name_H-M "I 4/M"
_symmetry_group_IT_number 87
_symmetry_cell_setting 'tetragonal'
loop_
_space_group_symop_operation_xyz
x,y,z
-y,x,z
-x,-y,z
y,-x,z
-x,-y,-z
y,-x,-z
x,y,-z
-y,x,-z
1/2+x,1/2+y,1/2+z
1/2-y,1/2+x,1/2+z
1/2-x,1/2-y,1/2+z
1/2+y,1/2-x,1/2+z
1/2-x,1/2-y,1/2-z
1/2+y,1/2-x,1/2-z
1/2+x,1/2+y,1/2-z
1/2-y,1/2+x,1/2-z
loop_
_atom_site_type_symbol
_atom_site_label
_atom_site_fract_x
_atom_site_fract_y
_atom_site_fract_z
Si Si1 0.600187 0.122376 0.226040
Si Si2 0.060509 0.937088 0.129945
Si Si3 0.255479 0.093270 0.371938
Si Si4 0.824997 0.106989 0.129097
Si Si5 0.016166 0.249102 0.242572
Si Si6 0.616610 0.794811 0.123307
Si Si7 0.504900 0.862807 0.626991
Si Si8 0.709390 0.299238 0.212759
O O1 0.593206 0.176550 0.146468
O O2 0.653248 0.138538 0.303107
O O3 0.544076 0.109323 0.297868
O O4 0.611149 0.066422 0.154317
O O5 0.108171 0.891160 0.160495
O O6 0.999093 0.920506 0.177693
O O7 0.057651 0.942925 0.000000
O O8 0.243381 0.082253 0.500000
O O9 0.225156 0.151873 0.338364
O O10 0.228137 0.042501 0.298725
O O11 0.801539 0.049402 0.183493
O O12 0.799251 0.164239 0.176636
O O13 0.812434 0.105470 0.000000
O O14 0.054194 0.276247 0.338854
O O15 0.004047 0.295433 0.148201
O O16 0.660467 0.741989 0.126358
O O17 0.611942 0.817339 0.000000
O O18 0.491091 0.874964 0.500000
O O19 0.750000 0.250000 0.250000
#
# Coordination Sequence:
#
# PCOD8303849 Si02
#       8
#    16  16  16  16  16  16  16  16
#     4  10  21  37  57  85 110 142 193 234 289 365
#     4   8  15  29  50  79 113 149 181 212 274 347
#     4  11  22  39  60  82 114 154 194 244 290 341
#     4  10  21  36  58  86 120 154 188 244 299 344
#     4   9  21  36  56  84 110 143 201 234 283 358
#     4  10  19  37  58  78 111 148 184 239 292 339
#     4  10  20  37  57  80 110 146 183 238 297 345
#     4  11  23  39  53  86 117 153 205 241 284 356
#
# _framework density 19.011334000000002
#
# number of rings (size 3 to 8) (size 9 to 14) (size 15 to 20)
#    0.000    2.125    1.250    2.250    1.750    1.250 
#    0.000    3.125    0.000    0.000    0.000    0.000 
#    0.000    1.000    0.000    0.000    0.000    0.000 
#
# Total GULP energy -793352.132894 kJ/mol
# GULP energy per Si atom -12396.127076 kJ/mol
# Density = 1.896806 g / cm^3
# Si number density = 19.011334 Si / 1000 Ang^3
#
#
#
# Elastic Constant Matrix: (Units=GPa)
#
#
# Indices 1 2 3 4 5 6 
#
# 1 85.7942 32.4621 28.1281 0.0000 0.0000 1.4573
# 2 32.4621 85.7942 28.1281 0.0000 0.0000 -1.4573
# 3 28.1281 28.1281 98.2030 0.0000 0.0000 0.0000
# 4 0.0000 0.0000 0.0000 18.0410 0.0000 0.0000
# 5 0.0000 0.0000 0.0000 0.0000 18.0410 0.0000
# 6 1.4573 -1.4573 0.0000 0.0000 0.0000 27.5263
#
#
#
# Elastic Compliance Matrix: (Units=1/GPa)
#
#
# Indices 1 2 3 4 5 6 
#
# 1 0.014298 -0.004507 -0.002804 0.000000 0.000000 -0.000996
# 2 -0.004507 0.014298 -0.002804 0.000000 0.000000 0.000996
# 3 -0.002804 -0.002804 0.011789 0.000000 0.000000 0.000000
# 4 0.000000 0.000000 0.000000 0.055429 0.000000 0.000000
# 5 0.000000 0.000000 0.000000 0.000000 0.055429 0.000000
# 6 -0.000996 0.000996 0.000000 0.000000 0.000000 0.036434
#
#
# Mechanical properties :
#
#
# Convention : Reuss Voigt Hill
#
# Bulk Modulus (GPa) = 49.62031 49.69199 49.65615
# Shear Modulus (GPa) = 23.29631 24.79320 24.04475
#
# Velocity S-wave (km/s) = 3.50436 3.61519 3.56020
# Velocity P-wave (km/s) = 6.52158 6.60462 6.56323
#
# Compressibility (1/GPa) = 0.02015304
#
# Stress axis : x y z
#
# Youngs Moduli (GPa) = 69.94215 69.94215 84.82205
#
# Poissons Ratio (x) = 0.31525 0.23786
# Poissons Ratio (y) = 0.31525 0.23786
# Poissons Ratio (z) = 0.19613 0.19613
#
# Static dielectric constant tensor:
#      x y z
#    x 3.696320 0.000000 0.000000 
#    y 0.000000 3.696320 0.000000 
#    z 0.000000 0.000000 3.249810 
# 
# 
# High freq. dielectric constant tensor:
#      x y z
#    x 1.744210 0.000000 0.000000 
#    y 0.000000 1.744210 0.000000 
#    z 0.000000 0.000000 1.721680 
# 
# From -- ./inp_files/2979.got.cif
#   From: 2010.03.12/outbox.cif.g09.slc.cpg/sg87_2_cif.got.tgz:2979.got - 2010.04.08 20:16:13.
