data_PCOD8303365
_publ_section_title
;
Structure prediction by ZEFSAII (Michael W. Deem and Ramdas Pophale) SiO2 
 PCOD8303365
Probable space group: P 42/M
;
_chemical_formula_sum "Si O2"
_cell_formula_units_Z 40
_cell_length_a 15.828596
_cell_length_b 15.828596
_cell_length_c 8.784617
_cell_angle_alpha 90.000000
_cell_angle_beta 90.000000
_cell_angle_gamma 90.000000
_cell_volume 2200.937046
_symmetry_space_group_name_H-M "P 42/M"
_symmetry_group_IT_number 84
_symmetry_cell_setting 'tetragonal'
loop_
_space_group_symop_operation_xyz
x,y,z
-y,x,1/2+z
-x,-y,z
y,-x,1/2+z
-x,-y,-z
y,-x,1/2-z
x,y,-z
-y,x,1/2-z
loop_
_atom_site_type_symbol
_atom_site_label
_atom_site_fract_x
_atom_site_fract_y
_atom_site_fract_z
Si Si1 0.582228 0.044956 0.680902
Si Si2 0.015420 0.758524 0.179742
Si Si3 0.772910 0.638113 0.175905
Si Si4 0.160602 0.176258 0.175534
Si Si5 0.560685 0.389142 0.819995
O O1 0.581133 0.038098 0.500000
O O2 0.663942 0.995713 0.746277
O O3 0.585928 0.143725 0.726102
O O4 0.500000 0.000000 0.752734
O O5 0.935864 0.814908 0.234600
O O6 0.103609 0.796332 0.228301
O O7 0.010755 0.753141 0.000000
O O8 0.788771 0.737233 0.202108
O O9 0.696735 0.609260 0.282192
O O10 0.750605 0.620119 0.000000
O O11 0.163023 0.149741 0.000000
O O12 0.467171 0.386522 0.748610
O O13 0.553585 0.400396 0.000000
#
# Coordination Sequence:
#
# PCOD8303365 Si02
#       5
#     8   8   8   8   8
#     4   8  15  30  52  75  99 129 166 208 251 297
#     4   9  18  32  50  73  99 130 171 212 252 304
#     4   9  18  34  53  75 105 135 166 208 258 308
#     4   9  19  34  50  71 103 137 166 209 263 305
#     4  11  22  37  56  78 105 136 172 211 253 299
#
# _framework density 18.174077
#
# number of rings (size 3 to 8) (size 9 to 14) (size 15 to 20)
#    0.000    2.800    0.000    4.800    0.000    3.600 
#    0.000    7.000    0.000    1.200    0.000    0.000 
#    0.000    0.000    0.000    0.000    0.000    0.000 
#
# Total GULP energy -495889.564207 kJ/mol
# GULP energy per Si atom -12397.239105 kJ/mol
# Density = 1.813271 g / cm^3
# Si number density = 18.174077 Si / 1000 Ang^3
#
#
#
# Elastic Constant Matrix: (Units=GPa)
#
#
# Indices 1 2 3 4 5 6 
#
# 1 105.1467 62.4206 26.5406 0.0000 0.0000 10.8066
# 2 62.4206 105.1467 26.5406 0.0000 0.0000 -10.8066
# 3 26.5406 26.5406 54.9895 0.0000 0.0000 0.0000
# 4 0.0000 0.0000 0.0000 27.1993 0.0000 0.0000
# 5 0.0000 0.0000 0.0000 0.0000 27.1993 0.0000
# 6 10.8066 -10.8066 0.0000 0.0000 0.0000 29.8166
#
#
#
# Elastic Compliance Matrix: (Units=1/GPa)
#
#
# Indices 1 2 3 4 5 6 
#
# 1 0.017852 -0.010807 -0.003400 0.000000 0.000000 -0.010387
# 2 -0.010807 0.017852 -0.003400 0.000000 0.000000 0.010387
# 3 -0.003400 -0.003400 0.021467 0.000000 0.000000 0.000000
# 4 0.000000 0.000000 0.000000 0.036766 0.000000 0.000000
# 5 0.000000 0.000000 0.000000 0.000000 0.036766 0.000000
# 6 -0.010387 0.010387 0.000000 0.000000 0.000000 0.041068
#
#
# Mechanical properties :
#
#
# Convention : Reuss Voigt Hill
#
# Bulk Modulus (GPa) = 45.54474 55.14294 50.34384
# Shear Modulus (GPa) = 23.33128 26.82844 25.07986
#
# Velocity S-wave (km/s) = 3.58686 3.84629 3.71884
# Velocity P-wave (km/s) = 6.50144 7.08044 6.79711
#
# Compressibility (1/GPa) = 0.02195643
#
# Stress axis : x y z
#
# Youngs Moduli (GPa) = 56.01594 56.01594 46.58211
#
# Poissons Ratio (x) = 0.60538 0.15839
# Poissons Ratio (y) = 0.60538 0.15839
# Poissons Ratio (z) = 0.19046 0.19046
#
# Static dielectric constant tensor:
#      x y z
#    x 3.474260 0.000000 0.000000 
#    y 0.000000 3.474260 0.000000 
#    z 0.000000 0.000000 3.046300 
# 
# 
# High freq. dielectric constant tensor:
#      x y z
#    x 1.709050 0.000000 0.000000 
#    y 0.000000 1.709050 0.000000 
#    z 0.000000 0.000000 1.678860 
# 
# From -- ./inp_files/754.got.cif
#   From: 2010.03.12/outbox.cif.g09.slc.cpg/sg84_1_cif.got.tgz:754.got - 2010.04.08 20:07:29.
