data_PCOD8303286
_publ_section_title
;
Structure prediction by ZEFSAII (Michael W. Deem and Ramdas Pophale) SiO2 
 PCOD8303286
Probable space group: P 42/M
;
_chemical_formula_sum "Si O2"
_cell_formula_units_Z 40
_cell_length_a 8.646571
_cell_length_b 8.646571
_cell_length_c 26.430709
_cell_angle_alpha 90.000000
_cell_angle_beta 90.000000
_cell_angle_gamma 90.000000
_cell_volume 1976.044120
_symmetry_space_group_name_H-M "P 42/M"
_symmetry_group_IT_number 84
_symmetry_cell_setting 'tetragonal'
loop_
_space_group_symop_operation_xyz
x,y,z
-y,x,1/2+z
-x,-y,z
y,-x,1/2+z
-x,-y,-z
y,-x,1/2-z
x,y,-z
-y,x,1/2-z
loop_
_atom_site_type_symbol
_atom_site_label
_atom_site_fract_x
_atom_site_fract_y
_atom_site_fract_z
Si Si1 0.807796 0.254627 0.157715
Si Si2 0.212500 0.247647 0.057447
Si Si3 0.284812 0.622769 0.741958
Si Si4 0.500000 0.000000 0.403604
Si Si5 0.000000 0.000000 0.608960
Si Si6 0.468772 0.177751 0.135750
O O1 0.813360 0.275758 0.218358
O O2 0.907735 0.385624 0.132112
O O3 0.879316 0.088360 0.144919
O O4 0.630923 0.268788 0.138264
O O5 0.365937 0.252017 0.091662
O O6 0.121284 0.409224 0.061401
O O7 0.097686 0.110829 0.072992
O O8 0.266293 0.222258 0.000000
O O9 0.452520 0.698704 0.733653
O O10 0.194745 0.622004 0.688869
O O11 0.500000 0.000000 0.123663
#
# Coordination Sequence:
#
# PCOD8303286 Si02
#       6
#     8   8   8   4   4   8
#     4  10  21  41  64  91 127 164 205 255 320 375
#     4  11  23  42  64  90 126 168 211 265 321 370
#     4   9  19  36  62  89 121 164 198 247 312 369
#     4  10  23  40  66  92 122 162 217 262 312 380
#     4  10  21  42  61  94 124 168 206 262 314 388
#     4  11  22  40  61  94 129 160 211 256 306 381
#
# _framework density 20.242463000000001
#
# number of rings (size 3 to 8) (size 9 to 14) (size 15 to 20)
#    0.000    1.800    2.000    1.800    1.400    2.800 
#    3.600    4.000    0.000    0.000    0.000    0.000 
#    0.000    0.000    0.000    0.000    0.000    0.000 
#
# Total GULP energy -496162.353185 kJ/mol
# GULP energy per Si atom -12404.058830 kJ/mol
# Density = 2.019639 g / cm^3
# Si number density = 20.242463 Si / 1000 Ang^3
#
#
#
# Elastic Constant Matrix: (Units=GPa)
#
#
# Indices 1 2 3 4 5 6 
#
# 1 88.1521 28.7598 54.4372 0.0000 0.0000 5.2956
# 2 28.7598 88.1521 54.4372 0.0000 0.0000 -5.2956
# 3 54.4372 54.4372 147.3741 0.0000 0.0000 0.0000
# 4 0.0000 0.0000 0.0000 22.3073 0.0000 0.0000
# 5 0.0000 0.0000 0.0000 0.0000 22.3073 0.0000
# 6 5.2956 -5.2956 0.0000 0.0000 0.0000 28.1825
#
#
#
# Elastic Compliance Matrix: (Units=1/GPa)
#
#
# Indices 1 2 3 4 5 6 
#
# 1 0.015230 -0.002191 -0.004816 0.000000 0.000000 -0.003273
# 2 -0.002191 0.015230 -0.004816 0.000000 0.000000 0.003273
# 3 -0.004816 -0.004816 0.010343 0.000000 0.000000 0.000000
# 4 0.000000 0.000000 0.000000 0.044828 0.000000 0.000000
# 5 0.000000 0.000000 0.000000 0.000000 0.044828 0.000000
# 6 -0.003273 0.003273 0.000000 0.000000 0.000000 0.036713
#
#
# Mechanical properties :
#
#
# Convention : Reuss Voigt Hill
#
# Bulk Modulus (GPa) = 58.28937 66.54964 62.41950
# Shear Modulus (GPa) = 25.44030 26.96236 26.20133
#
# Velocity S-wave (km/s) = 3.54895 3.65358 3.60164
# Velocity P-wave (km/s) = 6.75659 7.12361 6.94253
#
# Compressibility (1/GPa) = 0.01715579
#
# Stress axis : x y z
#
# Youngs Moduli (GPa) = 65.66100 65.66100 96.67933
#
# Poissons Ratio (x) = 0.14388 0.46563
# Poissons Ratio (y) = 0.14388 0.46563
# Poissons Ratio (z) = 0.31624 0.31624
#
# Static dielectric constant tensor:
#      x y z
#    x 3.825910 0.000000 0.000000 
#    y 0.000000 3.825910 0.000000 
#    z 0.000000 0.000000 3.481520 
# 
# 
# High freq. dielectric constant tensor:
#      x y z
#    x 1.796470 0.000000 0.000000 
#    y 0.000000 1.796470 0.000000 
#    z 0.000000 0.000000 1.780510 
# 
# From -- ./inp_files/5388.got.cif
#   From: 2010.03.12/outbox.cif.g09.slc.cpg/sg84_3_cif.got.tgz:5388.got - 2010.04.08 20:07:29.
