data_PCOD8303778
_publ_section_title
;
Structure prediction by ZEFSAII (Michael W. Deem and Ramdas Pophale) SiO2 
 PCOD8303778
Probable space group: I 4/M
;
_chemical_formula_sum "Si O2"
_cell_formula_units_Z 96
_cell_length_a 25.134189
_cell_length_b 25.134189
_cell_length_c 9.213549
_cell_angle_alpha 90.000000
_cell_angle_beta 90.000000
_cell_angle_gamma 90.000000
_cell_volume 5820.451877
_symmetry_space_group_name_H-M "I 4/M"
_symmetry_group_IT_number 87
_symmetry_cell_setting 'tetragonal'
loop_
_space_group_symop_operation_xyz
x,y,z
-y,x,z
-x,-y,z
y,-x,z
-x,-y,-z
y,-x,-z
x,y,-z
-y,x,-z
1/2+x,1/2+y,1/2+z
1/2-y,1/2+x,1/2+z
1/2-x,1/2-y,1/2+z
1/2+y,1/2-x,1/2+z
1/2-x,1/2-y,1/2-z
1/2+y,1/2-x,1/2-z
1/2+x,1/2+y,1/2-z
1/2-y,1/2+x,1/2-z
loop_
_atom_site_type_symbol
_atom_site_label
_atom_site_fract_x
_atom_site_fract_y
_atom_site_fract_z
Si Si1 0.561716 0.644824 0.330575
Si Si2 0.065490 0.245762 0.659967
Si Si3 0.944139 0.638582 0.669306
Si Si4 0.854708 0.552833 0.329650
Si Si5 0.939113 0.250397 0.663445
Si Si6 0.559593 0.352958 0.328981
O O1 0.565215 0.653321 0.500000
O O2 0.586111 0.698902 0.263435
O O3 0.596304 0.594338 0.280921
O O4 0.501015 0.634576 0.281255
O O5 0.087749 0.233238 0.500000
O O6 0.083600 0.304751 0.711330
O O7 0.002142 0.247108 0.660411
O O8 0.961239 0.640461 0.500000
O O9 0.903168 0.592095 0.702248
O O10 0.996042 0.628296 0.765726
O O11 0.842676 0.547021 0.500000
O O12 0.803004 0.577657 0.251569
O O13 0.915756 0.252572 0.500000
O O14 0.917069 0.198366 0.745999
O O15 0.563307 0.341900 0.500000
#
# Coordination Sequence:
#
# PCOD8303778 Si02
#       6
#    16  16  16  16  16  16
#     4   9  17  28  44  67  93 120 151 186 224 270
#     4   8  15  29  46  62  85 117 151 186 222 263
#     4   9  19  33  47  68  96 123 152 187 228 271
#     4  10  19  31  49  70  93 122 153 187 227 270
#     4   9  17  30  47  66  89 118 154 192 227 267
#     4   9  17  29  45  67  94 122 152 186 226 271
#
# _framework density 16.493563999999999
#
# number of rings (size 3 to 8) (size 9 to 14) (size 15 to 20)
#    0.000    3.000    0.000    2.000    0.000    6.667 
#    0.000    3.333    0.000    1.000    0.000    4.667 
#    0.000    0.000    0.000    0.000    0.000    0.000 
#
# Total GULP energy -595013.816235 kJ/mol
# GULP energy per Si atom -12396.121172 kJ/mol
# Density = 1.645602 g / cm^3
# Si number density = 16.493564 Si / 1000 Ang^3
#
#
#
# Elastic Constant Matrix: (Units=GPa)
#
#
# Indices 1 2 3 4 5 6 
#
# 1 96.0970 60.3914 52.2925 0.0000 0.0000 -0.7963
# 2 60.3914 96.0970 52.2925 0.0000 0.0000 0.7963
# 3 52.2925 52.2925 74.7274 0.0000 0.0000 0.0000
# 4 0.0000 0.0000 0.0000 24.0606 0.0000 0.0000
# 5 0.0000 0.0000 0.0000 0.0000 24.0606 0.0000
# 6 -0.7963 0.7963 0.0000 0.0000 0.0000 2.6268
#
#
#
# Elastic Compliance Matrix: (Units=1/GPa)
#
#
# Indices 1 2 3 4 5 6 
#
# 1 0.020198 -0.008193 -0.008400 0.000000 0.000000 0.008607
# 2 -0.008193 0.020198 -0.008400 0.000000 0.000000 -0.008607
# 3 -0.008400 -0.008400 0.025139 0.000000 0.000000 0.000000
# 4 0.000000 0.000000 0.000000 0.041562 0.000000 0.000000
# 5 0.000000 0.000000 0.000000 0.000000 0.041562 0.000000
# 6 0.008607 -0.008607 0.000000 0.000000 0.000000 0.385910
#
#
# Mechanical properties :
#
#
# Convention : Reuss Voigt Hill
#
# Bulk Modulus (GPa) = 64.32524 66.31936 65.32230
# Shear Modulus (GPa) = 8.47834 16.94593 12.71214
#
# Velocity S-wave (km/s) = 2.26970 3.20883 2.77922
# Velocity P-wave (km/s) = 6.77891 7.35019 7.07032
#
# Compressibility (1/GPa) = 0.01554600
#
# Stress axis : x y z
#
# Youngs Moduli (GPa) = 49.51085 49.51085 39.77904
#
# Poissons Ratio (x) = 0.40565 0.33416
# Poissons Ratio (y) = 0.40565 0.33416
# Poissons Ratio (z) = 0.41591 0.41591
#
# Static dielectric constant tensor:
#      x y z
#    x 3.131840 0.000000 0.000000 
#    y 0.000000 3.131840 0.000000 
#    z 0.000000 0.000000 3.233440 
# 
# 
# High freq. dielectric constant tensor:
#      x y z
#    x 1.618210 0.000000 0.000000 
#    y 0.000000 1.618210 0.000000 
#    z 0.000000 0.000000 1.640050 
# 
# From -- ./inp_files/1398.got.cif
#   From: 2010.03.12/outbox.cif.g09.slc.cpg/sg87_1_cif.got.tgz:1398.got - 2010.04.08 20:16:13.
