data_PCOD8303776
_publ_section_title
;
Structure prediction by ZEFSAII (Michael W. Deem and Ramdas Pophale) SiO2 
 PCOD8303776
Probable space group: I 4/M
;
_chemical_formula_sum "Si O2"
_cell_formula_units_Z 120
_cell_length_a 27.757879
_cell_length_b 27.757879
_cell_length_c 8.255112
_cell_angle_alpha 90.000000
_cell_angle_beta 90.000000
_cell_angle_gamma 90.000000
_cell_volume 6360.562529
_symmetry_space_group_name_H-M "I 4/M"
_symmetry_group_IT_number 87
_symmetry_cell_setting 'tetragonal'
loop_
_space_group_symop_operation_xyz
x,y,z
-y,x,z
-x,-y,z
y,-x,z
-x,-y,-z
y,-x,-z
x,y,-z
-y,x,-z
1/2+x,1/2+y,1/2+z
1/2-y,1/2+x,1/2+z
1/2-x,1/2-y,1/2+z
1/2+y,1/2-x,1/2+z
1/2-x,1/2-y,1/2-z
1/2+y,1/2-x,1/2-z
1/2+x,1/2+y,1/2-z
1/2-y,1/2+x,1/2-z
loop_
_atom_site_type_symbol
_atom_site_label
_atom_site_fract_x
_atom_site_fract_y
_atom_site_fract_z
Si Si1 0.169719 0.814920 0.813792
Si Si2 0.290671 0.148313 0.191210
Si Si3 0.467698 0.427330 0.000000
Si Si4 0.255680 0.545894 0.683339
Si Si5 0.733966 0.143953 0.314243
Si Si6 0.977520 0.866090 0.187216
Si Si7 0.075368 0.843318 0.318287
Si Si8 0.948943 0.268160 0.319405
O O1 0.167335 0.760837 0.740807
O O2 0.222348 0.835952 0.790829
O O3 0.130476 0.851973 0.737301
O O4 0.156266 0.812456 0.000000
O O5 0.332213 0.184670 0.251835
O O6 0.301780 0.094638 0.256894
O O7 0.290203 0.145696 0.000000
O O8 0.524213 0.437431 0.000000
O O9 0.454093 0.399220 0.169347
O O10 0.249260 0.562561 0.500000
O O11 0.231771 0.586441 0.796135
O O12 0.312049 0.539894 0.725195
O O13 0.226338 0.496517 0.710423
O O14 0.742494 0.158396 0.500000
O O15 0.035805 0.868456 0.203272
O O16 0.964513 0.881697 0.000000
O O17 0.068379 0.863766 0.500000
O O18 0.068689 0.786353 0.311370
O O19 0.962806 0.283715 0.500000
#
# Coordination Sequence:
#
# PCOD8303776 Si02
#       8
#    16  16   8  16  16  16  16  16
#     4  10  19  31  47  70 105 144 183 219 256 312
#     4   9  19  34  50  71 102 143 182 215 255 311
#     4  11  26  44  60  78 100 130 168 220 286 345
#     4  10  21  36  55  79 105 134 170 219 271 314
#     4  11  22  33  48  73 108 143 175 216 265 314
#     4  10  21  39  62  82 102 132 172 222 279 337
#     4   9  16  30  52  77 101 130 172 216 259 313
#     4   9  17  30  53  76  97 131 173 214 253 302
#
# _framework density 18.866256
#
# number of rings (size 3 to 8) (size 9 to 14) (size 15 to 20)
#    0.000    2.200    0.667    2.400    1.867    6.400 
#    0.000    2.000    0.000    0.000    0.000    0.000 
#    0.000    0.533    0.000    5.600    0.000    2.400 
#
# Total GULP energy -743807.064954 kJ/mol
# GULP energy per Si atom -12396.784416 kJ/mol
# Density = 1.882332 g / cm^3
# Si number density = 18.866256 Si / 1000 Ang^3
#
#
#
# Elastic Constant Matrix: (Units=GPa)
#
#
# Indices 1 2 3 4 5 6 
#
# 1 52.2059 10.2652 10.6687 0.0000 0.0000 1.4362
# 2 10.2652 52.2059 10.6687 0.0000 0.0000 -1.4362
# 3 10.6687 10.6687 67.5969 0.0000 0.0000 0.0000
# 4 0.0000 0.0000 0.0000 25.8681 0.0000 0.0000
# 5 0.0000 0.0000 0.0000 0.0000 25.8681 0.0000
# 6 1.4362 -1.4362 0.0000 0.0000 0.0000 24.5870
#
#
#
# Elastic Compliance Matrix: (Units=1/GPa)
#
#
# Indices 1 2 3 4 5 6 
#
# 1 0.020429 -0.003510 -0.002670 0.000000 0.000000 -0.001398
# 2 -0.003510 0.020429 -0.002670 0.000000 0.000000 0.001398
# 3 -0.002670 -0.002670 0.015636 0.000000 0.000000 0.000000
# 4 0.000000 0.000000 0.000000 0.038658 0.000000 0.000000
# 5 0.000000 0.000000 0.000000 0.000000 0.038658 0.000000
# 6 -0.001398 0.001398 0.000000 0.000000 0.000000 0.040835
#
#
# Mechanical properties :
#
#
# Convention : Reuss Voigt Hill
#
# Bulk Modulus (GPa) = 25.77722 26.13490 25.95606
# Shear Modulus (GPa) = 24.35726 24.62506 24.49116
#
# Velocity S-wave (km/s) = 3.59701 3.61674 3.60689
# Velocity P-wave (km/s) = 5.56275 5.59677 5.57978
#
# Compressibility (1/GPa) = 0.03879394
#
# Stress axis : x y z
#
# Youngs Moduli (GPa) = 48.94955 48.94955 63.95295
#
# Poissons Ratio (x) = 0.17180 0.17078
# Poissons Ratio (y) = 0.17180 0.17078
# Poissons Ratio (z) = 0.13071 0.13071
#
# Static dielectric constant tensor:
#      x y z
#    x 3.428340 0.000000 0.000000 
#    y 0.000000 3.428340 0.000000 
#    z 0.000000 0.000000 3.502980 
# 
# 
# High freq. dielectric constant tensor:
#      x y z
#    x 1.709170 0.000000 0.000000 
#    y 0.000000 1.709170 0.000000 
#    z 0.000000 0.000000 1.740440 
# 
# From -- ./inp_files/1659.got.cif
#   From: 2010.03.12/outbox.cif.g09.slc.cpg/sg87_1_cif.got.tgz:1659.got - 2010.04.08 20:16:13.
