data_PCOD8303522
_publ_section_title
;
Structure prediction by ZEFSAII (Michael W. Deem and Ramdas Pophale) SiO2 
 PCOD8303522
Probable space group: P 42/N
;
_chemical_formula_sum "Si O2"
_cell_formula_units_Z 48
_cell_length_a 8.982575
_cell_length_b 8.982575
_cell_length_c 27.547670
_cell_angle_alpha 90.000000
_cell_angle_beta 90.000000
_cell_angle_gamma 90.000000
_cell_volume 2222.729308
_symmetry_space_group_name_H-M "P 42/N"
_symmetry_group_IT_number 86
_space_group.IT_coordinate_system_code '2'
_symmetry_cell_setting 'tetragonal'
loop_
_space_group_symop_operation_xyz
x,y,z
-y,1/2+x,1/2+z
1/2-x,1/2-y,z
1/2+y,-x,1/2+z
-x,-y,-z
y,1/2-x,1/2-z
1/2+x,1/2+y,-z
1/2-y,x,1/2-z
loop_
_atom_site_type_symbol
_atom_site_label
_atom_site_fract_x
_atom_site_fract_y
_atom_site_fract_z
Si Si1 0.445222 0.099079 0.828996
Si Si2 0.164601 0.000378 0.947839
Si Si3 0.519041 0.749502 0.995489
Si Si4 0.603962 0.556601 0.158764
Si Si5 0.945029 0.897222 0.757537
Si Si6 0.010425 0.506718 0.068870
O O1 0.446612 0.276285 0.830833
O O2 0.277795 0.035521 0.828413
O O3 0.541196 0.032459 0.874203
O O4 0.526559 0.055383 0.780125
O O5 0.074447 0.022296 0.897698
O O6 0.335670 0.981415 0.937336
O O7 0.147155 0.146620 0.981440
O O8 0.109570 0.853775 0.974397
O O9 0.587537 0.857397 0.953026
O O10 0.441053 0.850597 0.037211
O O11 0.502504 0.442166 0.189104
O O12 0.955800 0.720592 0.751873
#
# Coordination Sequence:
#
# PCOD8303522 Si02
#       6
#     8   8   8   8   8   8
#     4  10  21  40  68  94 119 158 211 260 306 368
#     4  10  20  37  59  87 123 163 208 252 303 360
#     4  10  20  34  58  88 126 162 202 248 298 358
#     4  10  21  40  68  94 119 158 211 260 306 368
#     4  11  26  45  62  88 128 159 196 255 322 380
#     4  10  20  37  59  87 123 163 208 252 303 360
#
# _framework density 21.595074
#
# number of rings (size 3 to 8) (size 9 to 14) (size 15 to 20)
#    0.000    1.833    1.667    2.000    2.333    4.000 
#    0.000   10.000    0.000    0.000    0.000    0.000 
#    0.000    0.000    0.000    0.000    0.000    0.000 
#
# Total GULP energy -595199.925636 kJ/mol
# GULP energy per Si atom -12399.998451 kJ/mol
# Density = 2.154592 g / cm^3
# Si number density = 21.595074 Si / 1000 Ang^3
#
#
#
# Elastic Constant Matrix: (Units=GPa)
#
#
# Indices 1 2 3 4 5 6 
#
# 1 100.1683 47.3024 53.7388 0.0000 0.0000 -1.0450
# 2 47.3024 100.1683 53.7388 0.0000 0.0000 1.0450
# 3 53.7388 53.7388 135.9151 0.0000 0.0000 0.0000
# 4 0.0000 0.0000 0.0000 81.0252 0.0000 0.0000
# 5 0.0000 0.0000 0.0000 0.0000 81.0252 0.0000
# 6 -1.0450 1.0450 0.0000 0.0000 0.0000 31.1928
#
#
#
# Elastic Compliance Matrix: (Units=1/GPa)
#
#
# Indices 1 2 3 4 5 6 
#
# 1 0.014233 -0.004707 -0.003766 0.000000 0.000000 0.000635
# 2 -0.004707 0.014233 -0.003766 0.000000 0.000000 -0.000635
# 3 -0.003766 -0.003766 0.010336 0.000000 0.000000 0.000000
# 4 0.000000 0.000000 0.000000 0.012342 0.000000 0.000000
# 5 0.000000 0.000000 0.000000 0.000000 0.012342 0.000000
# 6 0.000635 -0.000635 0.000000 0.000000 0.000000 0.032101
#
#
# Mechanical properties :
#
#
# Convention : Reuss Voigt Hill
#
# Bulk Modulus (GPa) = 69.82177 71.75684 70.78931
# Shear Modulus (GPa) = 40.05052 50.74678 45.39865
#
# Velocity S-wave (km/s) = 4.31119 4.85286 4.59002
# Velocity P-wave (km/s) = 7.56203 8.04368 7.80657
#
# Compressibility (1/GPa) = 0.01432218
#
# Stress axis : x y z
#
# Youngs Moduli (GPa) = 70.25709 70.25709 96.74999
#
# Poissons Ratio (x) = 0.33073 0.36440
# Poissons Ratio (y) = 0.33073 0.36440
# Poissons Ratio (z) = 0.26462 0.26462
#
# Static dielectric constant tensor:
#      x y z
#    x 3.847280 0.000000 0.000000 
#    y 0.000000 3.847280 0.000000 
#    z 0.000000 0.000000 4.290230 
# 
# 
# High freq. dielectric constant tensor:
#      x y z
#    x 1.841430 0.000000 0.000000 
#    y 0.000000 1.841430 0.000000 
#    z 0.000000 0.000000 1.857760 
# 
# From -- ./inp_files/5177.got.cif
#   From: 2010.03.12/outbox.cif.g09.slc.cpg/sg86_3_cif.got.tgz:5177.got - 2010.04.08 20:12:58.
