data_PCOD8303303
_publ_section_title
;
Structure prediction by ZEFSAII (Michael W. Deem and Ramdas Pophale) SiO2 
 PCOD8303303
Probable space group: P 42/M
;
_chemical_formula_sum "Si O2"
_cell_formula_units_Z 40
_cell_length_a 9.034946
_cell_length_b 9.034946
_cell_length_c 24.054389
_cell_angle_alpha 90.000000
_cell_angle_beta 90.000000
_cell_angle_gamma 90.000000
_cell_volume 1963.565769
_symmetry_space_group_name_H-M "P 42/M"
_symmetry_group_IT_number 84
_symmetry_cell_setting 'tetragonal'
loop_
_space_group_symop_operation_xyz
x,y,z
-y,x,1/2+z
-x,-y,z
y,-x,1/2+z
-x,-y,-z
y,-x,1/2-z
x,y,-z
-y,x,1/2-z
loop_
_atom_site_type_symbol
_atom_site_label
_atom_site_fract_x
_atom_site_fract_y
_atom_site_fract_z
Si Si1 0.948514 0.336694 0.137173
Si Si2 0.771509 0.919110 0.752646
Si Si3 0.841930 0.737044 0.436411
Si Si4 0.658767 0.449228 0.437107
Si Si5 0.849682 0.234274 0.627464
O O1 0.065423 0.202232 0.133260
O O2 0.000000 0.500000 0.119239
O O3 0.895173 0.342808 0.201668
O O4 0.820898 0.289989 0.094962
O O5 0.696114 0.873386 0.811124
O O6 0.911238 0.816782 0.739473
O O7 0.853293 0.793410 0.500000
O O8 0.791118 0.567536 0.434535
O O9 0.001400 0.756250 0.408419
O O10 0.500000 0.500000 0.412919
O O11 0.634477 0.394195 0.500000
O O12 0.711083 0.312706 0.400678
#
# Coordination Sequence:
#
# PCOD8303303 Si02
#       5
#     8   8   8   8   8
#     4  11  23  38  59  88 124 157 199 253 315 368
#     4   9  18  37  60  84 115 153 200 250 301 357
#     4  11  23  39  61  90 121 158 207 255 301 374
#     4  10  22  40  61  88 126 163 200 252 316 374
#     4  11  21  38  64  88 116 161 207 257 300 369
#
# _framework density 20.371102
#
# number of rings (size 3 to 8) (size 9 to 14) (size 15 to 20)
#    0.000    1.600    2.000    3.000    0.000    6.000 
#    0.000    0.000    0.000    0.000    0.000    0.000 
#    0.000    0.000    0.000    0.000    0.000    0.000 
#
# Total GULP energy -496000.922688 kJ/mol
# GULP energy per Si atom -12400.023067 kJ/mol
# Density = 2.032474 g / cm^3
# Si number density = 20.371102 Si / 1000 Ang^3
#
#
#
# Elastic Constant Matrix: (Units=GPa)
#
#
# Indices 1 2 3 4 5 6 
#
# 1 66.8822 2.4359 32.4334 0.0000 0.0000 -1.8014
# 2 2.4359 66.8822 32.4334 0.0000 0.0000 1.8014
# 3 32.4334 32.4334 136.6050 0.0000 0.0000 0.0000
# 4 0.0000 0.0000 0.0000 28.3905 0.0000 0.0000
# 5 0.0000 0.0000 0.0000 0.0000 28.3905 0.0000
# 6 -1.8014 1.8014 0.0000 0.0000 0.0000 35.0439
#
#
#
# Elastic Compliance Matrix: (Units=1/GPa)
#
#
# Indices 1 2 3 4 5 6 
#
# 1 0.017054 0.001493 -0.004404 0.000000 0.000000 0.000800
# 2 0.001493 0.017054 -0.004404 0.000000 0.000000 -0.000800
# 3 -0.004404 -0.004404 0.009411 0.000000 0.000000 0.000000
# 4 0.000000 0.000000 0.000000 0.035223 0.000000 0.000000
# 5 0.000000 0.000000 0.000000 0.000000 0.035223 0.000000
# 6 0.000800 -0.000800 0.000000 0.000000 0.000000 0.028618
#
#
# Mechanical properties :
#
#
# Convention : Reuss Voigt Hill
#
# Bulk Modulus (GPa) = 34.61248 44.99718 39.80483
# Shear Modulus (GPa) = 29.96832 31.90276 30.93554
#
# Velocity S-wave (km/s) = 3.83968 3.96166 3.90115
# Velocity P-wave (km/s) = 6.05684 6.56225 6.31460
#
# Compressibility (1/GPa) = 0.02889131
#
# Stress axis : x y z
#
# Youngs Moduli (GPa) = 58.63643 58.63643 106.25436
#
# Poissons Ratio (x) = -0.08753 0.46789
# Poissons Ratio (y) = -0.08753 0.46789
# Poissons Ratio (z) = 0.25821 0.25821
#
# Static dielectric constant tensor:
#      x y z
#    x 3.511550 0.000000 0.000000 
#    y 0.000000 3.511550 0.000000 
#    z 0.000000 0.000000 3.979480 
# 
# 
# High freq. dielectric constant tensor:
#      x y z
#    x 1.787080 0.000000 0.000000 
#    y 0.000000 1.787080 0.000000 
#    z 0.000000 0.000000 1.810430 
# 
# From -- ./inp_files/4785.got.cif
#   From: 2010.03.12/outbox.cif.g09.slc.cpg/sg84_3_cif.got.tgz:4785.got - 2010.04.08 20:07:29.
