data_PCOD8303757
_publ_section_title
;
Structure prediction by ZEFSAII (Michael W. Deem and Ramdas Pophale) SiO2 
 PCOD8303757
Probable space group: I 4/M
;
_chemical_formula_sum "Si O2"
_cell_formula_units_Z 80
_cell_length_a 16.122679
_cell_length_b 16.122679
_cell_length_c 15.813607
_cell_angle_alpha 90.000000
_cell_angle_beta 90.000000
_cell_angle_gamma 90.000000
_cell_volume 4110.601309
_symmetry_space_group_name_H-M "I 4/M"
_symmetry_group_IT_number 87
_symmetry_cell_setting 'tetragonal'
loop_
_space_group_symop_operation_xyz
x,y,z
-y,x,z
-x,-y,z
y,-x,z
-x,-y,-z
y,-x,-z
x,y,-z
-y,x,-z
1/2+x,1/2+y,1/2+z
1/2-y,1/2+x,1/2+z
1/2-x,1/2-y,1/2+z
1/2+y,1/2-x,1/2+z
1/2-x,1/2-y,1/2-z
1/2+y,1/2-x,1/2-z
1/2+x,1/2+y,1/2-z
1/2-y,1/2+x,1/2-z
loop_
_atom_site_type_symbol
_atom_site_label
_atom_site_fract_x
_atom_site_fract_y
_atom_site_fract_z
Si Si1 0.558479 0.782526 0.708055
Si Si2 0.813420 0.576146 0.169664
Si Si3 0.868320 0.013066 0.099782
Si Si4 0.250982 0.025052 0.500000
Si Si5 0.304575 0.659100 0.000000
Si Si6 0.310281 0.293913 0.815294
O O1 0.485799 0.834855 0.753682
O O2 0.621861 0.847800 0.667122
O O3 0.521158 0.724061 0.635931
O O4 0.597850 0.721857 0.779767
O O5 0.813568 0.529580 0.079962
O O6 0.719257 0.610465 0.184663
O O7 0.926517 0.089823 0.129297
O O8 0.859838 0.013830 0.000000
O O9 0.184419 0.099125 0.500000
O O10 0.199693 0.940158 0.500000
O O11 0.261444 0.694587 0.913717
O O12 0.250000 0.250000 0.750000
#
# Coordination Sequence:
#
# PCOD8303757 Si02
#       6
#    16  16  16   8   8  16
#     4  11  20  36  59  81 118 151 196 241 289 349
#     4  10  22  35  59  83 113 152 195 236 296 345
#     4   9  19  36  59  86 117 151 190 244 302 348
#     4  10  20  37  58  88 115 157 189 241 301 357
#     4  10  18  35  60  83 122 149 192 244 301 368
#     4   9  19  35  55  84 109 152 197 239 288 342
#
# _framework density 19.461872
#
# number of rings (size 3 to 8) (size 9 to 14) (size 15 to 20)
#    0.000    2.200    2.000    1.800    1.400    0.600 
#    1.800    0.000   11.000    1.200    0.000    0.000 
#    0.000    0.000    0.000    0.000    0.000    0.000 
#
# Total GULP energy -495607.263273 kJ/mol
# GULP energy per Si atom -12390.181582 kJ/mol
# Density = 1.941758 g / cm^3
# Si number density = 19.461872 Si / 1000 Ang^3
#
#
#
# Elastic Constant Matrix: (Units=GPa)
#
#
# Indices 1 2 3 4 5 6 
#
# 1 76.6281 28.9236 40.0976 0.0000 0.0000 -8.2827
# 2 28.9236 76.6281 40.0976 0.0000 0.0000 8.2827
# 3 40.0976 40.0976 118.3804 0.0000 0.0000 0.0000
# 4 0.0000 0.0000 0.0000 26.2758 0.0000 0.0000
# 5 0.0000 0.0000 0.0000 0.0000 26.2758 0.0000
# 6 -8.2827 8.2827 0.0000 0.0000 0.0000 24.1248
#
#
#
# Elastic Compliance Matrix: (Units=1/GPa)
#
#
# Indices 1 2 3 4 5 6 
#
# 1 0.018278 -0.005521 -0.004321 0.000000 0.000000 0.008171
# 2 -0.005521 0.018278 -0.004321 0.000000 0.000000 -0.008171
# 3 -0.004321 -0.004321 0.011375 0.000000 0.000000 0.000000
# 4 0.000000 0.000000 0.000000 0.038058 0.000000 0.000000
# 5 0.000000 0.000000 0.000000 0.000000 0.038058 0.000000
# 6 0.008171 -0.008171 0.000000 0.000000 0.000000 0.047062
#
#
# Mechanical properties :
#
#
# Convention : Reuss Voigt Hill
#
# Bulk Modulus (GPa) = 51.00876 54.43047 52.71961
# Shear Modulus (GPa) = 24.27527 26.16979 25.22253
#
# Velocity S-wave (km/s) = 3.53558 3.67095 3.60390
# Velocity P-wave (km/s) = 6.55237 6.78206 6.66820
#
# Compressibility (1/GPa) = 0.01960448
#
# Stress axis : x y z
#
# Youngs Moduli (GPa) = 54.70926 54.70926 87.91540
#
# Poissons Ratio (x) = 0.30207 0.37989
# Poissons Ratio (y) = 0.30207 0.37989
# Poissons Ratio (z) = 0.23640 0.23640
#
# Static dielectric constant tensor:
#      x y z
#    x 3.462400 0.000000 0.000000 
#    y 0.000000 3.462400 0.000000 
#    z 0.000000 0.000000 3.880730 
# 
# 
# High freq. dielectric constant tensor:
#      x y z
#    x 1.739020 0.000000 0.000000 
#    y 0.000000 1.739020 0.000000 
#    z 0.000000 0.000000 1.772830 
# 
# From -- ./inp_files/3539.got.cif
#   From: 2010.03.12/outbox.cif.g09.slc.cpg/sg87_2_cif.got.tgz:3539.got - 2010.04.08 20:16:13.
