data_PCOD8303742
_publ_section_title
;
Structure prediction by ZEFSAII (Michael W. Deem and Ramdas Pophale) SiO2 
 PCOD8303742
Probable space group: I 4/M
;
_chemical_formula_sum "Si O2"
_cell_formula_units_Z 96
_cell_length_a 21.827555
_cell_length_b 21.827555
_cell_length_c 12.249265
_cell_angle_alpha 90.000000
_cell_angle_beta 90.000000
_cell_angle_gamma 90.000000
_cell_volume 5836.066242
_symmetry_space_group_name_H-M "I 4/M"
_symmetry_group_IT_number 87
_symmetry_cell_setting 'tetragonal'
loop_
_space_group_symop_operation_xyz
x,y,z
-y,x,z
-x,-y,z
y,-x,z
-x,-y,-z
y,-x,-z
x,y,-z
-y,x,-z
1/2+x,1/2+y,1/2+z
1/2-y,1/2+x,1/2+z
1/2-x,1/2-y,1/2+z
1/2+y,1/2-x,1/2+z
1/2-x,1/2-y,1/2-z
1/2+y,1/2-x,1/2-z
1/2+x,1/2+y,1/2-z
1/2-y,1/2+x,1/2-z
loop_
_atom_site_type_symbol
_atom_site_label
_atom_site_fract_x
_atom_site_fract_y
_atom_site_fract_z
Si Si1 0.583510 0.214169 0.624043
Si Si2 0.551393 0.790587 0.378486
Si Si3 0.296880 0.314058 0.870148
Si Si4 0.588382 0.343278 0.289191
Si Si5 0.692822 0.169949 0.245860
Si Si6 0.152053 0.960791 0.122458
O O1 0.577989 0.195958 0.500000
O O2 0.516202 0.200906 0.676487
O O3 0.602838 0.285521 0.632875
O O4 0.635655 0.172718 0.674008
O O5 0.552610 0.819034 0.500000
O O6 0.604875 0.820755 0.308890
O O7 0.567368 0.719188 0.384144
O O8 0.328218 0.377256 0.825773
O O9 0.224639 0.310217 0.842790
O O10 0.329969 0.256368 0.812882
O O11 0.306050 0.311537 0.000000
O O12 0.514543 0.350643 0.285537
O O13 0.608898 0.406373 0.341195
O O14 0.133508 0.984473 0.000000
#
# Coordination Sequence:
#
# PCOD8303742 Si02
#       6
#    16  16  16  16  16  16
#     4   9  18  31  50  75 102 126 156 203 253 296
#     4   9  17  30  49  73 101 130 156 195 253 300
#     4  10  20  32  48  74 102 129 166 208 248 292
#     4  10  19  32  47  69 103 132 164 204 247 291
#     4  10  18  31  52  75  98 126 164 203 246 297
#     4  10  18  30  49  72  98 129 166 206 254 292
#
# _framework density 16.449435999999999
#
# number of rings (size 3 to 8) (size 9 to 14) (size 15 to 20)
#    0.000    2.333    1.667    3.500    0.000    0.333 
#    0.000    1.667    0.000    3.500    0.000    3.500 
#    0.000    0.000    0.000    0.000    0.000    0.000 
#
# Total GULP energy -594722.880821 kJ/mol
# GULP energy per Si atom -12390.060017 kJ/mol
# Density = 1.641200 g / cm^3
# Si number density = 16.449436 Si / 1000 Ang^3
#
#
#
# Elastic Constant Matrix: (Units=GPa)
#
#
# Indices 1 2 3 4 5 6 
#
# 1 86.5660 39.0286 35.5356 0.0000 0.0000 -1.2407
# 2 39.0286 86.5660 35.5356 0.0000 0.0000 1.2407
# 3 35.5356 35.5356 80.7473 0.0000 0.0000 0.0000
# 4 0.0000 0.0000 0.0000 21.9790 0.0000 0.0000
# 5 0.0000 0.0000 0.0000 0.0000 21.9790 0.0000
# 6 -1.2407 1.2407 0.0000 0.0000 0.0000 17.8234
#
#
#
# Elastic Compliance Matrix: (Units=1/GPa)
#
#
# Indices 1 2 3 4 5 6 
#
# 1 0.015858 -0.005255 -0.004666 0.000000 0.000000 0.001470
# 2 -0.005255 0.015858 -0.004666 0.000000 0.000000 -0.001470
# 3 -0.004666 -0.004666 0.016491 0.000000 0.000000 0.000000
# 4 0.000000 0.000000 0.000000 0.045498 0.000000 0.000000
# 5 0.000000 0.000000 0.000000 0.000000 0.045498 0.000000
# 6 0.001470 -0.001470 0.000000 0.000000 0.000000 0.056311
#
#
# Mechanical properties :
#
#
# Convention : Reuss Voigt Hill
#
# Bulk Modulus (GPa) = 52.54249 52.67542 52.60896
# Shear Modulus (GPa) = 21.64207 21.94158 21.79183
#
# Velocity S-wave (km/s) = 3.63116 3.65619 3.64370
# Velocity P-wave (km/s) = 7.04213 7.06511 7.05363
#
# Compressibility (1/GPa) = 0.01903222
#
# Stress axis : x y z
#
# Youngs Moduli (GPa) = 63.06109 63.06109 60.63854
#
# Poissons Ratio (x) = 0.33139 0.28294
# Poissons Ratio (y) = 0.33139 0.28294
# Poissons Ratio (z) = 0.29424 0.29424
#
# Static dielectric constant tensor:
#      x y z
#    x 3.070270 0.000000 0.000000 
#    y 0.000000 3.070270 0.000000 
#    z 0.000000 0.000000 2.999530 
# 
# 
# High freq. dielectric constant tensor:
#      x y z
#    x 1.625890 0.000000 0.000000 
#    y 0.000000 1.625890 0.000000 
#    z 0.000000 0.000000 1.610510 
# 
# From -- ./inp_files/2763.got.cif
#   From: 2010.03.12/outbox.cif.g09.slc.cpg/sg87_2_cif.got.tgz:2763.got - 2010.04.08 20:16:13.
