data_PCOD8303462
_publ_section_title
;
Structure prediction by ZEFSAII (Michael W. Deem and Ramdas Pophale) SiO2 
 PCOD8303462
Probable space group: P 4/N
;
_chemical_formula_sum "Si O2"
_cell_formula_units_Z 34
_cell_length_a 11.401233
_cell_length_b 11.401233
_cell_length_c 11.363288
_cell_angle_alpha 90.000000
_cell_angle_beta 90.000000
_cell_angle_gamma 90.000000
_cell_volume 1477.092375
_symmetry_space_group_name_H-M "P 4/N"
_symmetry_group_IT_number 85
_symmetry_cell_setting 'tetragonal'
loop_
_space_group_symop_operation_xyz
x,y,z
1/2-y,x,z
1/2-x,1/2-y,z
y,1/2-x,z
-x,-y,-z
1/2+y,-x,-z
1/2+x,1/2+y,-z
-y,1/2+x,-z
loop_
_atom_site_type_symbol
_atom_site_label
_atom_site_fract_x
_atom_site_fract_y
_atom_site_fract_z
Si Si1 0.250000 0.750000 0.500000
Si Si2 0.717667 0.561021 0.239390
Si Si3 0.577168 0.424770 0.405473
Si Si4 0.578999 0.661697 0.806182
Si Si5 0.427788 0.718968 0.015636
O O1 0.201988 0.630358 0.440105
O O2 0.844993 0.615121 0.233133
O O3 0.692702 0.497034 0.363381
O O4 0.712559 0.475691 0.128831
O O5 0.500000 0.500000 0.500000
O O6 0.501118 0.398983 0.290637
O O7 0.700155 0.594572 0.790253
O O8 0.524342 0.649450 0.937624
O O9 0.325903 0.630035 0.059640
#
# Coordination Sequence:
#
# PCOD8303462 Si02
#       5
#     2   8   8   8   8
#     4  12  28  44  72  98 132 176 252 300 364 446
#     4  11  25  43  69 104 143 186 237 294 367 447
#     4  12  26  48  72 102 139 192 245 312 370 432
#     4  11  25  43  69 104 143 186 237 294 367 447
#     4  11  24  41  70 110 146 185 236 295 368 454
#
# _framework density 23.018194000000001
#
# number of rings (size 3 to 8) (size 9 to 14) (size 15 to 20)
#    0.000    0.706    2.353    4.235    6.588    3.765 
#    0.000    2.353    0.000    0.000    0.000    0.000 
#    0.000    0.000    0.000    0.000    0.000    0.000 
#
# Total GULP energy -421219.701117 kJ/mol
# GULP energy per Si atom -12388.814739 kJ/mol
# Density = 2.296580 g / cm^3
# Si number density = 23.018194 Si / 1000 Ang^3
#
#
#
# Elastic Constant Matrix: (Units=GPa)
#
#
# Indices 1 2 3 4 5 6 
#
# 1 86.2252 16.1140 30.9362 0.0000 0.0000 18.7241
# 2 16.1140 86.2252 30.9362 0.0000 0.0000 -18.7241
# 3 30.9362 30.9362 119.3956 0.0000 0.0000 0.0000
# 4 0.0000 0.0000 0.0000 41.7887 0.0000 0.0000
# 5 0.0000 0.0000 0.0000 0.0000 41.7887 0.0000
# 6 18.7241 -18.7241 0.0000 0.0000 0.0000 93.3209
#
#
#
# Elastic Compliance Matrix: (Units=1/GPa)
#
#
# Indices 1 2 3 4 5 6 
#
# 1 0.013781 -0.002194 -0.003002 0.000000 0.000000 -0.003205
# 2 -0.002194 0.013781 -0.003002 0.000000 0.000000 0.003205
# 3 -0.003002 -0.003002 0.009931 0.000000 0.000000 0.000000
# 4 0.000000 0.000000 0.000000 0.023930 0.000000 0.000000
# 5 0.000000 0.000000 0.000000 0.000000 0.023930 0.000000
# 6 -0.003205 0.003205 0.000000 0.000000 0.000000 0.012002
#
#
# Mechanical properties :
#
#
# Convention : Reuss Voigt Hill
#
# Bulk Modulus (GPa) = 47.40311 49.75764 48.58037
# Shear Modulus (GPa) = 41.39634 49.63694 45.51664
#
# Velocity S-wave (km/s) = 4.24538 4.64877 4.45164
# Velocity P-wave (km/s) = 6.68352 7.10481 6.89738
#
# Compressibility (1/GPa) = 0.02109566
#
# Stress axis : x y z
#
# Youngs Moduli (GPa) = 72.56491 72.56491 100.69215
#
# Poissons Ratio (x) = 0.15923 0.30229
# Poissons Ratio (y) = 0.15923 0.30229
# Poissons Ratio (z) = 0.21785 0.21785
#
# Static dielectric constant tensor:
#      x y z
#    x 4.304960 0.000000 0.000000 
#    y 0.000000 4.304960 0.000000 
#    z 0.000000 0.000000 4.079190 
# 
# 
# High freq. dielectric constant tensor:
#      x y z
#    x 1.929320 0.000000 0.000000 
#    y 0.000000 1.929320 0.000000 
#    z 0.000000 0.000000 1.891690 
# 
# From -- ./inp_files/1451.got.cif
#   From: 2010.03.12/outbox.cif.g09.slc.cpg/sg85_cif.got.tgz:1451.got - 2010.04.08 20:10:46.
