data_PCOD8303458
_publ_section_title
;
Structure prediction by ZEFSAII (Michael W. Deem and Ramdas Pophale) SiO2 
 PCOD8303458
Probable space group: P 4/N
;
_chemical_formula_sum "Si O2"
_cell_formula_units_Z 48
_cell_length_a 9.202344
_cell_length_b 9.202344
_cell_length_c 28.480345
_cell_angle_alpha 90.000000
_cell_angle_beta 90.000000
_cell_angle_gamma 90.000000
_cell_volume 2411.804903
_symmetry_space_group_name_H-M "P 4/N"
_symmetry_group_IT_number 85
_symmetry_cell_setting 'tetragonal'
loop_
_space_group_symop_operation_xyz
x,y,z
1/2-y,x,z
1/2-x,1/2-y,z
y,1/2-x,z
-x,-y,-z
1/2+y,-x,-z
1/2+x,1/2+y,-z
-y,1/2+x,-z
loop_
_atom_site_type_symbol
_atom_site_label
_atom_site_fract_x
_atom_site_fract_y
_atom_site_fract_z
Si Si1 0.458005 0.125853 0.304064
Si Si2 0.415742 0.423840 0.041853
Si Si3 0.034622 0.150770 0.623623
Si Si4 0.890844 0.560081 0.228498
Si Si5 0.087362 0.874744 0.479334
Si Si6 0.595419 0.927533 0.119271
O O1 0.446739 0.299420 0.307246
O O2 0.569643 0.085837 0.345649
O O3 0.526665 0.068385 0.255547
O O4 0.245190 0.452942 0.038351
O O5 0.465083 0.491039 0.091250
O O6 0.500000 0.500000 0.000000
O O7 0.180724 0.061141 0.635070
O O8 0.977514 0.162938 0.570762
O O9 0.949448 0.720353 0.241830
O O10 0.921914 0.535911 0.173857
O O11 0.254052 0.925063 0.479225
O O12 0.000000 0.000000 0.500000
O O13 0.548999 0.763771 0.106038
#
# Coordination Sequence:
#
# PCOD8303458 Si02
#       6
#     8   8   8   8   8   8
#     4  11  26  42  59  89 125 160 198 248 300 351
#     4  11  24  39  56  83 119 159 204 254 306 359
#     4  11  24  43  66  91 120 157 199 245 296 353
#     4   9  19  39  65  92 120 156 200 246 298 358
#     4  11  24  41  64  94 124 158 197 240 292 348
#     4   9  19  37  62  90 120 154 198 249 300 359
#
# _framework density 19.90211
#
# number of rings (size 3 to 8) (size 9 to 14) (size 15 to 20)
#    0.000    1.667    1.667    3.000    2.333    9.333 
#    0.000    5.000    0.000    0.000    0.000    0.000 
#    0.000    0.000    0.000    0.000    0.000    0.000 
#
# Total GULP energy -594881.838164 kJ/mol
# GULP energy per Si atom -12393.371628 kJ/mol
# Density = 1.985681 g / cm^3
# Si number density = 19.902110 Si / 1000 Ang^3
#
#
#
# Elastic Constant Matrix: (Units=GPa)
#
#
# Indices 1 2 3 4 5 6 
#
# 1 90.7903 58.8439 38.6071 0.0000 0.0000 2.7131
# 2 58.8439 90.7903 38.6071 0.0000 0.0000 -2.7131
# 3 38.6071 38.6071 87.5038 0.0000 0.0000 0.0000
# 4 0.0000 0.0000 0.0000 39.7795 0.0000 0.0000
# 5 0.0000 0.0000 0.0000 0.0000 39.7795 0.0000
# 6 2.7131 -2.7131 0.0000 0.0000 0.0000 38.9430
#
#
#
# Elastic Compliance Matrix: (Units=1/GPa)
#
#
# Indices 1 2 3 4 5 6 
#
# 1 0.020165 -0.011512 -0.003818 0.000000 0.000000 -0.002207
# 2 -0.011512 0.020165 -0.003818 0.000000 0.000000 0.002207
# 3 -0.003818 -0.003818 0.014797 0.000000 0.000000 0.000000
# 4 0.000000 0.000000 0.000000 0.025139 0.000000 0.000000
# 5 0.000000 0.000000 0.000000 0.000000 0.025139 0.000000
# 6 -0.002207 0.002207 0.000000 0.000000 0.000000 0.025986
#
#
# Mechanical properties :
#
#
# Convention : Reuss Voigt Hill
#
# Bulk Modulus (GPa) = 59.41098 60.13340 59.77219
# Shear Modulus (GPa) = 28.52312 32.56879 30.54596
#
# Velocity S-wave (km/s) = 3.78983 4.04969 3.92192
# Velocity P-wave (km/s) = 7.00477 7.22128 7.11385
#
# Compressibility (1/GPa) = 0.01683191
#
# Stress axis : x y z
#
# Youngs Moduli (GPa) = 49.59052 49.59052 67.58172
#
# Poissons Ratio (x) = 0.57089 0.25801
# Poissons Ratio (y) = 0.57089 0.25801
# Poissons Ratio (z) = 0.18932 0.18932
#
# Static dielectric constant tensor:
#      x y z
#    x 3.733270 0.000000 0.000000 
#    y 0.000000 3.733270 0.000000 
#    z 0.000000 0.000000 3.244050 
# 
# 
# High freq. dielectric constant tensor:
#      x y z
#    x 1.783640 0.000000 0.000000 
#    y 0.000000 1.783640 0.000000 
#    z 0.000000 0.000000 1.781700 
# 
# From -- ./inp_files/2429.got.cif
#   From: 2010.03.12/outbox.cif.g09.slc.cpg/sg85_cif.got.tgz:2429.got - 2010.04.08 20:10:46.
