data_PCOD8303835
_publ_section_title
;
Structure prediction by ZEFSAII (Michael W. Deem and Ramdas Pophale) SiO2 
 PCOD8303835
Probable space group: I 4/M
;
_chemical_formula_sum "Si O2"
_cell_formula_units_Z 96
_cell_length_a 23.401490
_cell_length_b 23.401490
_cell_length_c 8.874896
_cell_angle_alpha 90.000000
_cell_angle_beta 90.000000
_cell_angle_gamma 90.000000
_cell_volume 4860.156938
_symmetry_space_group_name_H-M "I 4/M"
_symmetry_group_IT_number 87
_symmetry_cell_setting 'tetragonal'
loop_
_space_group_symop_operation_xyz
x,y,z
-y,x,z
-x,-y,z
y,-x,z
-x,-y,-z
y,-x,-z
x,y,-z
-y,x,-z
1/2+x,1/2+y,1/2+z
1/2-y,1/2+x,1/2+z
1/2-x,1/2-y,1/2+z
1/2+y,1/2-x,1/2+z
1/2-x,1/2-y,1/2-z
1/2+y,1/2-x,1/2-z
1/2+x,1/2+y,1/2-z
1/2-y,1/2+x,1/2-z
loop_
_atom_site_type_symbol
_atom_site_label
_atom_site_fract_x
_atom_site_fract_y
_atom_site_fract_z
Si Si1 0.973127 0.833400 0.178877
Si Si2 0.667691 0.279127 0.827501
Si Si3 0.708655 0.171394 0.326561
Si Si4 0.415434 0.994876 0.177088
Si Si5 0.706056 0.052449 0.824219
Si Si6 0.132039 0.094555 0.822228
O O1 0.974078 0.766752 0.230237
O O2 0.919807 0.868569 0.249503
O O3 0.029249 0.867087 0.236060
O O4 0.969935 0.835009 0.000000
O O5 0.671688 0.214136 0.774197
O O6 0.725238 0.314674 0.800064
O O7 0.619802 0.307582 0.725756
O O8 0.648753 0.280270 0.000000
O O9 0.691175 0.178882 0.500000
O O10 0.694214 0.108407 0.272859
O O11 0.448127 0.939067 0.242367
O O12 0.347120 0.990205 0.207093
O O13 0.428266 0.998778 0.000000
O O14 0.709031 0.069140 0.000000
O O15 0.127082 0.096352 0.000000
#
# Coordination Sequence:
#
# PCOD8303835 Si02
#       6
#    16  16  16  16  16  16
#     4   9  19  34  56  83 110 145 188 235 285 333
#     4  10  20  34  53  80 111 144 182 225 277 333
#     4  10  20  33  54  82 110 144 182 221 273 335
#     4  10  21  37  58  81 112 151 191 233 281 331
#     4  10  20  36  56  82 115 146 182 234 284 331
#     4  10  19  35  57  80 111 149 190 236 284 336
#
# _framework density 19.752448999999999
#
# number of rings (size 3 to 8) (size 9 to 14) (size 15 to 20)
#    0.000    2.167    1.667    2.000    0.000    4.333 
#    0.000    5.000    0.000    0.000    0.000    1.167 
#    0.000    0.000    0.000    0.000    0.000    0.000 
#
# Total GULP energy -595106.605122 kJ/mol
# GULP energy per Si atom -12398.054273 kJ/mol
# Density = 1.970749 g / cm^3
# Si number density = 19.752449 Si / 1000 Ang^3
#
#
#
# Elastic Constant Matrix: (Units=GPa)
#
#
# Indices 1 2 3 4 5 6 
#
# 1 113.4773 56.4013 19.7574 0.0000 0.0000 6.1830
# 2 56.4013 113.4773 19.7574 0.0000 0.0000 -6.1830
# 3 19.7574 19.7574 27.2415 0.0000 0.0000 0.0000
# 4 0.0000 0.0000 0.0000 21.3896 0.0000 0.0000
# 5 0.0000 0.0000 0.0000 0.0000 21.3896 0.0000
# 6 6.1830 -6.1830 0.0000 0.0000 0.0000 16.8749
#
#
#
# Elastic Compliance Matrix: (Units=1/GPa)
#
#
# Indices 1 2 3 4 5 6 
#
# 1 0.013056 -0.005975 -0.005136 0.000000 0.000000 -0.006973
# 2 -0.005975 0.013056 -0.005136 0.000000 0.000000 0.006973
# 3 -0.005136 -0.005136 0.044158 0.000000 0.000000 0.000000
# 4 0.000000 0.000000 0.000000 0.046752 0.000000 0.000000
# 5 0.000000 0.000000 0.000000 0.000000 0.046752 0.000000
# 6 -0.006973 0.006973 0.000000 0.000000 0.000000 0.064369
#
#
# Mechanical properties :
#
#
# Convention : Reuss Voigt Hill
#
# Bulk Modulus (GPa) = 26.47067 49.55872 38.01469
# Shear Modulus (GPa) = 18.29963 22.48280 20.39121
#
# Velocity S-wave (km/s) = 3.04706 3.37742 3.21649
# Velocity P-wave (km/s) = 5.08033 6.35246 5.75167
#
# Compressibility (1/GPa) = 0.03777766
#
# Stress axis : x y z
#
# Youngs Moduli (GPa) = 76.59180 76.59180 22.64576
#
# Poissons Ratio (x) = 0.45764 0.11630
# Poissons Ratio (y) = 0.45764 0.11630
# Poissons Ratio (z) = 0.39336 0.39336
#
# Static dielectric constant tensor:
#      x y z
#    x 3.713300 0.000000 0.000000 
#    y 0.000000 3.713300 0.000000 
#    z 0.000000 0.000000 3.370350 
# 
# 
# High freq. dielectric constant tensor:
#      x y z
#    x 1.768230 0.000000 0.000000 
#    y 0.000000 1.768230 0.000000 
#    z 0.000000 0.000000 1.750440 
# 
# From -- ./inp_files/1363.got.cif
#   From: 2010.03.12/outbox.cif.g09.slc.cpg/sg87_1_cif.got.tgz:1363.got - 2010.04.08 20:16:13.
