data_PCOD8303982
_publ_section_title
;
Structure prediction by ZEFSAII (Michael W. Deem and Ramdas Pophale) SiO2 
 PCOD8303982
Probable space group: I 4/M
;
_chemical_formula_sum "Si O2"
_cell_formula_units_Z 108
_cell_length_a 15.413252
_cell_length_b 15.413252
_cell_length_c 24.307891
_cell_angle_alpha 90.000000
_cell_angle_beta 90.000000
_cell_angle_gamma 90.000000
_cell_volume 5774.785246
_symmetry_space_group_name_H-M "I 4/M"
_symmetry_group_IT_number 87
_symmetry_cell_setting 'tetragonal'
loop_
_space_group_symop_operation_xyz
x,y,z
-y,x,z
-x,-y,z
y,-x,z
-x,-y,-z
y,-x,-z
x,y,-z
-y,x,-z
1/2+x,1/2+y,1/2+z
1/2-y,1/2+x,1/2+z
1/2-x,1/2-y,1/2+z
1/2+y,1/2-x,1/2+z
1/2-x,1/2-y,1/2-z
1/2+y,1/2-x,1/2-z
1/2+x,1/2+y,1/2-z
1/2-y,1/2+x,1/2-z
loop_
_atom_site_type_symbol
_atom_site_label
_atom_site_fract_x
_atom_site_fract_y
_atom_site_fract_z
Si Si1 0.917411 0.258580 0.597288
Si Si2 0.032356 0.639466 0.165477
Si Si3 0.566251 0.370771 0.000000
Si Si4 0.336365 0.199742 0.679441
Si Si5 0.000000 0.500000 0.750000
Si Si6 0.455435 0.090367 0.059466
Si Si7 0.137808 0.025409 0.687293
Si Si8 0.875200 0.218519 0.223298
O O1 0.903029 0.183285 0.552778
O O2 0.823293 0.287301 0.621850
O O3 0.971206 0.220610 0.648278
O O4 0.972179 0.338589 0.574401
O O5 0.053658 0.565472 0.210697
O O6 0.072518 0.613982 0.106816
O O7 0.084095 0.726816 0.174732
O O8 0.929881 0.656278 0.170549
O O9 0.615617 0.462569 0.000000
O O10 0.283000 0.160010 0.730021
O O11 0.341283 0.302089 0.693755
O O12 0.500000 0.000000 0.050046
O O13 0.413171 0.117538 0.000000
O O14 0.163006 0.045636 0.750578
O O15 0.068355 0.100087 0.674615
#
# Coordination Sequence:
#
# PCOD8303982 Si02
#       8
#    16  16   8  16   4  16  16  16
#     4  11  21  38  59  83 118 158 205 259 301 364
#     4  12  21  36  59  81 118 151 196 246 300 378
#     4  11  24  40  59  86 120 168 215 254 298 365
#     4  10  21  37  52  87 116 149 193 244 308 359
#     4  12  20  32  54  96 104 148 192 234 308 372
#     4  11  23  39  59  84 113 156 201 249 311 368
#     4  10  21  37  57  84 120 163 204 245 298 366
#     4  10  22  34  56  81 120 152 191 246 302 364
#
# _framework density 18.701993000000002
#
# number of rings (size 3 to 8) (size 9 to 14) (size 15 to 20)
#    0.000    1.259    4.444    1.778    2.074    5.926 
#    0.000    0.000    0.000    0.000    0.000    0.000 
#    0.000    0.000    0.000    4.593    0.000    0.000 
#
# Total GULP energy -668980.850019 kJ/mol
# GULP energy per Si atom -12388.534260 kJ/mol
# Density = 1.865943 g / cm^3
# Si number density = 18.701993 Si / 1000 Ang^3
#
#
#
# Elastic Constant Matrix: (Units=GPa)
#
#
# Indices 1 2 3 4 5 6 
#
# 1 44.7032 21.8712 34.2329 0.0000 0.0000 13.2422
# 2 21.8712 44.7032 34.2329 0.0000 0.0000 -13.2422
# 3 34.2329 34.2329 125.4363 0.0000 0.0000 0.0000
# 4 0.0000 0.0000 0.0000 27.3851 0.0000 0.0000
# 5 0.0000 0.0000 0.0000 0.0000 27.3851 0.0000
# 6 13.2422 -13.2422 0.0000 0.0000 0.0000 12.6089
#
#
#
# Elastic Compliance Matrix: (Units=1/GPa)
#
#
# Indices 1 2 3 4 5 6 
#
# 1 -0.089912 0.110794 -0.005699 0.000000 0.000000 0.210786
# 2 0.110794 -0.089912 -0.005699 0.000000 0.000000 -0.210786
# 3 -0.005699 -0.005699 0.011083 0.000000 0.000000 0.000000
# 4 0.000000 0.000000 0.000000 0.036516 0.000000 0.000000
# 5 0.000000 0.000000 0.000000 0.000000 0.036516 0.000000
# 6 0.210786 -0.210786 0.000000 0.000000 0.000000 -0.363435
#
#
# Mechanical properties :
#
#
# Convention : Reuss Voigt Hill
#
# Bulk Modulus (GPa) = 33.27725 43.94630 38.61177
# Shear Modulus (GPa) = -7.71699 21.77622 7.02961
#
# Velocity S-wave (km/s) = -2.03353 3.41600 1.94085
# Velocity P-wave (km/s) = 3.50976 6.25364 5.07082
#
# Compressibility (1/GPa) = 0.03005056
#
# Stress axis : x y z
#
# Youngs Moduli (GPa) = -11.12193 -11.12193 90.23077
#
# Poissons Ratio (x) = 1.23224 0.51421
# Poissons Ratio (y) = 1.23224 0.51421
# Poissons Ratio (z) = -0.06338 -0.06338
#
# Static dielectric constant tensor:
#      x y z
#    x 3.656930 0.000000 0.000000 
#    y 0.000000 3.656930 0.000000 
#    z 0.000000 0.000000 4.443970 
# 
# 
# High freq. dielectric constant tensor:
#      x y z
#    x 1.720180 0.000000 0.000000 
#    y 0.000000 1.720180 0.000000 
#    z 0.000000 0.000000 1.724230 
# 
# From -- ./inp_files/5933.got.cif
#   From: 2010.03.12/outbox.cif.g09.slc.cpg/sg87_3_cif.got.tgz:5933.got - 2010.04.08 20:16:13.
