data_PCOD8303015
_publ_section_title
;
Structure prediction by ZEFSAII (Michael W. Deem and Ramdas Pophale) SiO2 
 PCOD8303015
Probable space group: P 4/M
;
_chemical_formula_sum "Si O2"
_cell_formula_units_Z 48
_cell_length_a 8.233824
_cell_length_b 8.233824
_cell_length_c 32.051835
_cell_angle_alpha 90.000000
_cell_angle_beta 90.000000
_cell_angle_gamma 90.000000
_cell_volume 2172.981643
_symmetry_space_group_name_H-M "P 4/M"
_symmetry_group_IT_number 83
_symmetry_cell_setting 'tetragonal'
loop_
_space_group_symop_operation_xyz
x,y,z
-y,x,z
-x,-y,z
y,-x,z
-x,-y,-z
y,-x,-z
x,y,-z
-y,x,-z
loop_
_atom_site_type_symbol
_atom_site_label
_atom_site_fract_x
_atom_site_fract_y
_atom_site_fract_z
Si Si1 0.570518 0.242900 0.614920
Si Si2 0.500000 0.000000 0.227113
Si Si3 0.746453 0.390417 0.917324
Si Si4 0.756765 0.881302 0.000000
Si Si5 0.745213 0.913803 0.161520
Si Si6 0.244708 0.423950 0.707967
Si Si7 0.067371 0.257817 0.453504
O O1 0.695623 0.389375 0.608399
O O2 0.595401 0.170516 0.661464
O O3 0.604823 0.104052 0.580811
O O4 0.383029 0.113723 0.198894
O O5 0.613226 0.110641 0.256976
O O6 0.711455 0.581072 0.913599
O O7 0.833719 0.351288 0.960561
O O8 0.874759 0.343636 0.881698
O O9 0.926471 0.786013 0.000000
O O10 0.898489 0.795848 0.164599
O O11 0.391447 0.301257 0.714252
O O12 0.088652 0.331734 0.500000
O O13 0.887009 0.194418 0.447042
#
# Coordination Sequence:
#
# PCOD8303015 Si02
#       7
#     8   4   8   4   8   8   8
#     4   9  19  35  54  79 111 144 182 229 278 332
#     4  12  22  38  64  89 113 152 198 242 292 354
#     4  11  24  42  65  94 126 164 211 255 296 351
#     4  11  24  41  64  96 132 169 208 252 302 350
#     4  11  24  41  61  89 125 160 198 247 302 354
#     4   9  20  38  58  83 115 149 187 235 290 345
#     4   9  19  35  53  76 108 144 182 225 274 331
#
# _framework density 22.089466000000002
#
# number of rings (size 3 to 8) (size 9 to 14) (size 15 to 20)
#    0.000    1.917    0.000    5.000    0.000    8.667 
#    0.000    4.167    0.000    2.000    0.000    0.000 
#    0.000    0.000    0.000    0.000    0.000    0.000 
#
# Total GULP energy -595233.805127 kJ/mol
# GULP energy per Si atom -12400.704273 kJ/mol
# Density = 2.203919 g / cm^3
# Si number density = 22.089466 Si / 1000 Ang^3
#
#
#
# Elastic Constant Matrix: (Units=GPa)
#
#
# Indices 1 2 3 4 5 6 
#
# 1 70.1323 24.9663 54.2251 0.0000 0.0000 -4.4707
# 2 24.9663 70.1323 54.2251 0.0000 0.0000 4.4707
# 3 54.2251 54.2251 189.7417 0.0000 0.0000 0.0000
# 4 0.0000 0.0000 0.0000 11.6339 0.0000 0.0000
# 5 0.0000 0.0000 0.0000 0.0000 11.6339 0.0000
# 6 -4.4707 4.4707 0.0000 0.0000 0.0000 36.5164
#
#
#
# Elastic Compliance Matrix: (Units=1/GPa)
#
#
# Indices 1 2 3 4 5 6 
#
# 1 0.019145 -0.003546 -0.004458 0.000000 0.000000 0.002778
# 2 -0.003546 0.019145 -0.004458 0.000000 0.000000 -0.002778
# 3 -0.004458 -0.004458 0.007818 0.000000 0.000000 0.000000
# 4 0.000000 0.000000 0.000000 0.085956 0.000000 0.000000
# 5 0.000000 0.000000 0.000000 0.000000 0.085956 0.000000
# 6 0.002778 -0.002778 0.000000 0.000000 0.000000 0.028065
#
#
# Mechanical properties :
#
#
# Convention : Reuss Voigt Hill
#
# Bulk Modulus (GPa) = 47.20337 66.31549 56.75943
# Shear Modulus (GPa) = 17.98106 25.06280 21.52193
#
# Velocity S-wave (km/s) = 2.85618 3.37204 3.12478
# Velocity P-wave (km/s) = 5.68266 6.72662 6.22656
#
# Compressibility (1/GPa) = 0.02118493
#
# Stress axis : x y z
#
# Youngs Moduli (GPa) = 52.23314 52.23314 127.90347
#
# Poissons Ratio (x) = 0.18520 0.57020
# Poissons Ratio (y) = 0.18520 0.57020
# Poissons Ratio (z) = 0.23286 0.23286
#
# Static dielectric constant tensor:
#      x y z
#    x 3.870830 0.000000 0.000000 
#    y 0.000000 3.870830 0.000000 
#    z 0.000000 0.000000 4.102890 
# 
# 
# High freq. dielectric constant tensor:
#      x y z
#    x 1.866540 0.000000 0.000000 
#    y 0.000000 1.866540 0.000000 
#    z 0.000000 0.000000 1.881910 
# 
# From -- ./inp_files/3454.got.cif
#   From: 2010.03.12/outbox.cif.g09.slc.cpg/sg83_2_cif.got.tgz:3454.got - 2010.04.08 20:05:18.
