data_PCOD8303442
_publ_section_title
;
Structure prediction by ZEFSAII (Michael W. Deem and Ramdas Pophale) SiO2 
 PCOD8303442
Probable space group: P 4/N
;
_chemical_formula_sum "Si O2"
_cell_formula_units_Z 40
_cell_length_a 14.635526
_cell_length_b 14.635526
_cell_length_c 8.853813
_cell_angle_alpha 90.000000
_cell_angle_beta 90.000000
_cell_angle_gamma 90.000000
_cell_volume 1896.474538
_symmetry_space_group_name_H-M "P 4/N"
_symmetry_group_IT_number 85
_symmetry_cell_setting 'tetragonal'
loop_
_space_group_symop_operation_xyz
x,y,z
1/2-y,x,z
1/2-x,1/2-y,z
y,1/2-x,z
-x,-y,-z
1/2+y,-x,-z
1/2+x,1/2+y,-z
-y,1/2+x,-z
loop_
_atom_site_type_symbol
_atom_site_label
_atom_site_fract_x
_atom_site_fract_y
_atom_site_fract_z
Si Si1 0.109161 0.200676 0.773409
Si Si2 0.556692 0.076873 0.908494
Si Si3 0.746608 0.992172 0.935745
Si Si4 0.894614 0.708538 0.636581
Si Si5 0.543515 0.921259 0.402813
O O1 0.196458 0.134704 0.738822
O O2 0.044465 0.146307 0.654899
O O3 0.077574 0.197674 0.946499
O O4 0.662966 0.054037 0.880672
O O5 0.516934 0.094447 0.744305
O O6 0.553358 0.174887 0.990267
O O7 0.500000 0.000000 0.000000
O O8 0.798008 0.938935 0.801662
O O9 0.862656 0.811612 0.617879
O O10 0.961093 0.672172 0.504406
O O11 0.500000 0.000000 0.500000
#
# Coordination Sequence:
#
# PCOD8303442 Si02
#       5
#     8   8   8   8   8
#     4  11  21  38  70 105 135 179 238 301 365 428
#     4  12  25  45  71 103 138 194 243 301 360 434
#     4  12  24  45  72 100 142 186 252 299 365 439
#     4  11  24  41  66 105 144 181 236 312 373 432
#     4  12  24  40  64 102 149 185 227 286 379 441
#
# _framework density 21.091767000000001
#
# number of rings (size 3 to 8) (size 9 to 14) (size 15 to 20)
#    0.000    0.400    4.000    6.000    0.000    3.600 
#    0.000    0.000    0.000    0.000    0.000    0.000 
#    0.000    0.000    0.000    0.000    0.000    0.000 
#
# Total GULP energy -495575.993268 kJ/mol
# GULP energy per Si atom -12389.399832 kJ/mol
# Density = 2.104376 g / cm^3
# Si number density = 21.091767 Si / 1000 Ang^3
#
#
#
# Elastic Constant Matrix: (Units=GPa)
#
#
# Indices 1 2 3 4 5 6 
#
# 1 110.9632 62.0265 61.6413 0.0000 0.0000 -4.1348
# 2 62.0265 110.9632 61.6413 0.0000 0.0000 4.1348
# 3 61.6413 61.6413 169.9094 0.0000 0.0000 0.0000
# 4 0.0000 0.0000 0.0000 48.5441 0.0000 0.0000
# 5 0.0000 0.0000 0.0000 0.0000 48.5441 0.0000
# 6 -4.1348 4.1348 0.0000 0.0000 0.0000 30.6135
#
#
#
# Elastic Compliance Matrix: (Units=1/GPa)
#
#
# Indices 1 2 3 4 5 6 
#
# 1 0.014354 -0.006558 -0.002828 0.000000 0.000000 0.002824
# 2 -0.006558 0.014354 -0.002828 0.000000 0.000000 -0.002824
# 3 -0.002828 -0.002828 0.007938 0.000000 0.000000 0.000000
# 4 0.000000 0.000000 0.000000 0.020600 0.000000 0.000000
# 5 0.000000 0.000000 0.000000 0.000000 0.020600 0.000000
# 6 0.002824 -0.002824 0.000000 0.000000 0.000000 0.033428
#
#
# Mechanical properties :
#
#
# Convention : Reuss Voigt Hill
#
# Bulk Modulus (GPa) = 81.85476 84.71712 83.28594
# Shear Modulus (GPa) = 35.77166 39.30881 37.54024
#
# Velocity S-wave (km/s) = 4.12272 4.32175 4.22341
# Velocity P-wave (km/s) = 7.84574 8.07196 7.95965
#
# Compressibility (1/GPa) = 0.01221676
#
# Stress axis : x y z
#
# Youngs Moduli (GPa) = 69.66635 69.66635 125.98026
#
# Poissons Ratio (x) = 0.45685 0.35633
# Poissons Ratio (y) = 0.45685 0.35633
# Poissons Ratio (z) = 0.19705 0.19705
#
# Static dielectric constant tensor:
#      x y z
#    x 3.639050 0.000000 0.000000 
#    y 0.000000 3.639050 0.000000 
#    z 0.000000 0.000000 4.208610 
# 
# 
# High freq. dielectric constant tensor:
#      x y z
#    x 1.814350 0.000000 0.000000 
#    y 0.000000 1.814350 0.000000 
#    z 0.000000 0.000000 1.855610 
# 
# From -- ./inp_files/922.got.cif
#   From: 2010.03.12/outbox.cif.g09.slc.cpg/sg85_cif.got.tgz:922.got - 2010.04.08 20:10:46.
