data_PCOD8303316
_publ_section_title
;
Structure prediction by ZEFSAII (Michael W. Deem and Ramdas Pophale) SiO2 
 PCOD8303316
Probable space group: P 42/M
;
_chemical_formula_sum "Si O2"
_cell_formula_units_Z 40
_cell_length_a 8.699727
_cell_length_b 8.699727
_cell_length_c 23.166469
_cell_angle_alpha 90.000000
_cell_angle_beta 90.000000
_cell_angle_gamma 90.000000
_cell_volume 1753.359995
_symmetry_space_group_name_H-M "P 42/M"
_symmetry_group_IT_number 84
_symmetry_cell_setting 'tetragonal'
loop_
_space_group_symop_operation_xyz
x,y,z
-y,x,1/2+z
-x,-y,z
y,-x,1/2+z
-x,-y,-z
y,-x,1/2-z
x,y,-z
-y,x,1/2-z
loop_
_atom_site_type_symbol
_atom_site_label
_atom_site_fract_x
_atom_site_fract_y
_atom_site_fract_z
Si Si1 0.160039 0.060618 0.065662
Si Si2 0.833598 0.431671 0.137713
Si Si3 0.226822 0.115945 0.746670
Si Si4 0.231390 0.364182 0.565577
Si Si5 0.338671 0.268404 0.856648
O O1 0.299433 0.940534 0.071183
O O2 0.204075 0.210380 0.101098
O O3 0.131081 0.109816 0.000000
O O4 0.000000 0.000000 0.092657
O O5 0.839426 0.304136 0.187038
O O6 0.772947 0.350355 0.079385
O O7 0.707987 0.557403 0.157786
O O8 0.000000 0.500000 0.124827
O O9 0.339720 0.167407 0.798455
O O10 0.066550 0.205643 0.750499
O O11 0.260084 0.422793 0.500000
O O12 0.257127 0.498443 0.611674
#
# Coordination Sequence:
#
# PCOD8303316 Si02
#       5
#     8   8   8   8   8
#     4  10  22  42  72 107 140 185 244 300 355 426
#     4  12  26  46  68 107 141 188 245 297 374 440
#     4  11  26  47  74 102 137 186 241 303 367 434
#     4  11  26  47  72 105 149 197 240 296 369 441
#     4  12  25  42  73 101 146 187 237 304 360 451
#
# _framework density 22.813341000000001
#
# number of rings (size 3 to 8) (size 9 to 14) (size 15 to 20)
#    0.000    0.800    2.000    4.200    5.600    6.000 
#    0.000    0.000    0.000    0.000    0.000    0.000 
#    0.000    0.000    0.000    0.000    0.000    0.000 
#
# Total GULP energy -496236.045128 kJ/mol
# GULP energy per Si atom -12405.901128 kJ/mol
# Density = 2.276142 g / cm^3
# Si number density = 22.813341 Si / 1000 Ang^3
#
#
#
# Elastic Constant Matrix: (Units=GPa)
#
#
# Indices 1 2 3 4 5 6 
#
# 1 100.9653 25.1846 45.1972 0.0000 0.0000 0.1968
# 2 25.1846 100.9653 45.1972 0.0000 0.0000 -0.1968
# 3 45.1972 45.1972 92.8354 0.0000 0.0000 0.0000
# 4 0.0000 0.0000 0.0000 32.5651 0.0000 0.0000
# 5 0.0000 0.0000 0.0000 0.0000 32.5651 0.0000
# 6 0.1968 -0.1968 0.0000 0.0000 0.0000 38.7995
#
#
#
# Elastic Compliance Matrix: (Units=1/GPa)
#
#
# Indices 1 2 3 4 5 6 
#
# 1 0.012685 -0.000511 -0.005927 0.000000 0.000000 -0.000067
# 2 -0.000511 0.012685 -0.005927 0.000000 0.000000 0.000067
# 3 -0.005927 -0.005927 0.016543 0.000000 0.000000 0.000000
# 4 0.000000 0.000000 0.000000 0.030708 0.000000 0.000000
# 5 0.000000 0.000000 0.000000 0.000000 0.030708 0.000000
# 6 -0.000067 0.000067 0.000000 0.000000 0.000000 0.025774
#
#
# Mechanical properties :
#
#
# Convention : Reuss Voigt Hill
#
# Bulk Modulus (GPa) = 58.19656 58.43602 58.31629
# Shear Modulus (GPa) = 31.33596 32.73173 32.03385
#
# Velocity S-wave (km/s) = 3.71021 3.79194 3.75129
# Velocity P-wave (km/s) = 6.62717 6.69643 6.66189
#
# Compressibility (1/GPa) = 0.01718315
#
# Stress axis : x y z
#
# Youngs Moduli (GPa) = 78.83179 78.83179 60.44880
#
# Poissons Ratio (x) = 0.04029 0.35828
# Poissons Ratio (y) = 0.04029 0.35828
# Poissons Ratio (z) = 0.46724 0.46724
#
# Static dielectric constant tensor:
#      x y z
#    x 4.161310 0.000000 0.000000 
#    y 0.000000 4.161310 0.000000 
#    z 0.000000 0.000000 4.114130 
# 
# 
# High freq. dielectric constant tensor:
#      x y z
#    x 1.908220 0.000000 0.000000 
#    y 0.000000 1.908220 0.000000 
#    z 0.000000 0.000000 1.902550 
# 
# From -- ./inp_files/4795.got.cif
#   From: 2010.03.12/outbox.cif.g09.slc.cpg/sg84_3_cif.got.tgz:4795.got - 2010.04.08 20:07:29.
