data_PCOD8303201
_publ_section_title
;
Structure prediction by ZEFSAII (Michael W. Deem and Ramdas Pophale) SiO2 
 PCOD8303201
Probable space group: P 42/M
;
_chemical_formula_sum "Si O2"
_cell_formula_units_Z 48
_cell_length_a 11.103833
_cell_length_b 11.103833
_cell_length_c 20.163563
_cell_angle_alpha 90.000000
_cell_angle_beta 90.000000
_cell_angle_gamma 90.000000
_cell_volume 2486.068663
_symmetry_space_group_name_H-M "P 42/M"
_symmetry_group_IT_number 84
_symmetry_cell_setting 'tetragonal'
loop_
_space_group_symop_operation_xyz
x,y,z
-y,x,1/2+z
-x,-y,z
y,-x,1/2+z
-x,-y,-z
y,-x,1/2-z
x,y,-z
-y,x,1/2-z
loop_
_atom_site_type_symbol
_atom_site_label
_atom_site_fract_x
_atom_site_fract_y
_atom_site_fract_z
Si Si1 0.443895 0.266942 0.572826
Si Si2 0.220081 0.105267 0.426501
Si Si3 0.395158 0.917336 0.365290
Si Si4 0.417152 0.348056 0.717335
Si Si5 0.019884 0.138215 0.327776
Si Si6 0.791510 0.780127 0.777536
O O1 0.465143 0.331021 0.500000
O O2 0.307966 0.218934 0.573588
O O3 0.538725 0.155655 0.575476
O O4 0.456086 0.348994 0.639124
O O5 0.193670 0.058822 0.500000
O O6 0.091727 0.145971 0.396864
O O7 0.279530 0.994030 0.387297
O O8 0.346241 0.817666 0.314250
O O9 0.500000 0.000000 0.332182
O O10 0.343750 0.470021 0.732526
O O11 0.332922 0.233484 0.736128
O O12 0.099833 0.198135 0.271730
O O13 0.893545 0.212687 0.328866
O O14 0.000000 0.000000 0.309509
#
# Coordination Sequence:
#
# PCOD8303201 Si02
#       6
#     8   8   8   8   8   8
#     4  10  20  38  62  87 117 157 199 247 301 353
#     4  10  20  35  55  83 122 162 201 240 293 358
#     4  10  20  34  57  88 116 157 198 245 294 350
#     4  11  24  42  64  89 114 148 201 256 297 353
#     4  12  21  33  54  86 119 159 191 235 297 355
#     4  12  21  36  57  85 122 151 196 246 299 354
#
# _framework density 19.307593000000001
#
# number of rings (size 3 to 8) (size 9 to 14) (size 15 to 20)
#    0.000    1.167    6.667    0.500    2.333    2.333 
#    0.000    1.667    0.000    0.000    0.000    2.333 
#    0.000    0.000    0.000    0.000    0.000    0.000 
#
# Total GULP energy -594736.836865 kJ/mol
# GULP energy per Si atom -12390.350768 kJ/mol
# Density = 1.926365 g / cm^3
# Si number density = 19.307593 Si / 1000 Ang^3
#
#
#
# Elastic Constant Matrix: (Units=GPa)
#
#
# Indices 1 2 3 4 5 6 
#
# 1 75.5181 26.4181 34.6942 0.0000 0.0000 3.7714
# 2 26.4181 75.5181 34.6942 0.0000 0.0000 -3.7714
# 3 34.6942 34.6942 117.9337 0.0000 0.0000 0.0000
# 4 0.0000 0.0000 0.0000 21.3064 0.0000 0.0000
# 5 0.0000 0.0000 0.0000 0.0000 21.3064 0.0000
# 6 3.7714 -3.7714 0.0000 0.0000 0.0000 27.6560
#
#
#
# Elastic Compliance Matrix: (Units=1/GPa)
#
#
# Indices 1 2 3 4 5 6 
#
# 1 0.016534 -0.004268 -0.003609 0.000000 0.000000 -0.002837
# 2 -0.004268 0.016534 -0.003609 0.000000 0.000000 0.002837
# 3 -0.003609 -0.003609 0.010603 0.000000 0.000000 0.000000
# 4 0.000000 0.000000 0.000000 0.046934 0.000000 0.000000
# 5 0.000000 0.000000 0.000000 0.000000 0.046934 0.000000
# 6 -0.002837 0.002837 0.000000 0.000000 0.000000 0.036932
#
#
# Mechanical properties :
#
#
# Convention : Reuss Voigt Hill
#
# Bulk Modulus (GPa) = 48.30675 51.17587 49.74131
# Shear Modulus (GPa) = 24.46869 25.59799 25.03334
#
# Velocity S-wave (km/s) = 3.56379 3.64510 3.60468
# Velocity P-wave (km/s) = 6.48136 6.65423 6.56836
#
# Compressibility (1/GPa) = 0.02070104
#
# Stress axis : x y z
#
# Youngs Moduli (GPa) = 60.47994 60.47994 94.31730
#
# Poissons Ratio (x) = 0.25813 0.34035
# Poissons Ratio (y) = 0.25813 0.34035
# Poissons Ratio (z) = 0.21825 0.21825
#
# Static dielectric constant tensor:
#      x y z
#    x 3.534140 0.000000 0.000000 
#    y 0.000000 3.534140 0.000000 
#    z 0.000000 0.000000 3.647310 
# 
# 
# High freq. dielectric constant tensor:
#      x y z
#    x 1.740930 0.000000 0.000000 
#    y 0.000000 1.740930 0.000000 
#    z 0.000000 0.000000 1.744460 
# 
# From -- ./inp_files/4426.got.cif
#   From: 2010.03.12/outbox.cif.g09.slc.cpg/sg84_3_cif.got.tgz:4426.got - 2010.04.08 20:07:29.
