data_PCOD8303615
_publ_section_title
;
Structure prediction by ZEFSAII (Michael W. Deem and Ramdas Pophale) SiO2 
 PCOD8303615
Probable space group: P 42/N
;
_chemical_formula_sum "Si O2"
_cell_formula_units_Z 50
_cell_length_a 8.750749
_cell_length_b 8.750749
_cell_length_c 31.445786
_cell_angle_alpha 90.000000
_cell_angle_beta 90.000000
_cell_angle_gamma 90.000000
_cell_volume 2407.980184
_symmetry_space_group_name_H-M "P 42/N"
_symmetry_group_IT_number 86
_space_group.IT_coordinate_system_code '2'
_symmetry_cell_setting 'tetragonal'
loop_
_space_group_symop_operation_xyz
x,y,z
-y,1/2+x,1/2+z
1/2-x,1/2-y,z
1/2+y,-x,1/2+z
-x,-y,-z
y,1/2-x,1/2-z
1/2+x,1/2+y,-z
1/2-y,x,1/2-z
loop_
_atom_site_type_symbol
_atom_site_label
_atom_site_fract_x
_atom_site_fract_y
_atom_site_fract_z
Si Si1 0.915913 0.205466 0.202021
Si Si2 0.929885 0.779840 0.883582
Si Si3 0.750000 0.750000 0.411842
Si Si4 0.980899 0.440424 0.872587
Si Si5 0.012081 0.466934 0.777726
Si Si6 0.492741 0.458684 0.951304
Si Si7 0.750000 0.250000 0.920896
Si Si8 0.750000 0.750000 0.250000
O O1 0.750000 0.250000 0.183328
O O2 0.983032 0.351029 0.226855
O O3 0.020205 0.150158 0.162253
O O4 0.900730 0.077043 0.237517
O O5 0.750000 0.750000 0.884673
O O6 0.013757 0.614581 0.887951
O O7 0.980994 0.893988 0.921131
O O8 0.665945 0.625821 0.382517
O O9 0.621073 0.830999 0.440726
O O10 0.937967 0.429886 0.823052
O O11 0.825684 0.382721 0.893359
O O12 0.177779 0.385691 0.778349
O O13 0.623218 0.331434 0.948848
O O14 0.500000 0.500000 0.000000
#
# Coordination Sequence:
#
# PCOD8303615 Si02
#       8
#     8   8   4   8   8   8   4   2
#     4  11  26  43  62  97 133 178 229 276 331 390
#     4  11  25  45  70  95 135 182 224 273 339 407
#     4  10  25  44  68 105 138 172 224 281 346 400
#     4  10  23  42  67  96 135 182 224 275 332 401
#     4  11  25  39  64  91 133 178 233 270 327 382
#     4  11  26  45  74 101 136 172 220 281 341 414
#     4  10  22  44  66 100 132 174 224 268 344 396
#     4  12  22  40  56  92 132 176 224 288 324 376
#
# _framework density 20.764288000000001
#
# number of rings (size 3 to 8) (size 9 to 14) (size 15 to 20)
#    0.000    1.280    3.200    0.480   11.200    3.840 
#    0.000    3.200    0.000    0.000    0.000    0.000 
#    0.000    0.000    0.000    0.000    0.000    0.000 
#
# Total GULP energy -619836.906258 kJ/mol
# GULP energy per Si atom -12396.738125 kJ/mol
# Density = 2.071703 g / cm^3
# Si number density = 20.764288 Si / 1000 Ang^3
#
#
#
# Elastic Constant Matrix: (Units=GPa)
#
#
# Indices 1 2 3 4 5 6 
#
# 1 95.3541 28.7083 59.4507 0.0000 0.0000 4.1339
# 2 28.7083 95.3541 59.4507 0.0000 0.0000 -4.1339
# 3 59.4507 59.4507 150.6671 0.0000 0.0000 0.0000
# 4 0.0000 0.0000 0.0000 23.2418 0.0000 0.0000
# 5 0.0000 0.0000 0.0000 0.0000 23.2418 0.0000
# 6 4.1339 -4.1339 0.0000 0.0000 0.0000 35.9707
#
#
#
# Elastic Compliance Matrix: (Units=1/GPa)
#
#
# Indices 1 2 3 4 5 6 
#
# 1 0.014092 -0.001130 -0.005115 0.000000 0.000000 -0.001749
# 2 -0.001130 0.014092 -0.005115 0.000000 0.000000 0.001749
# 3 -0.005115 -0.005115 0.010674 0.000000 0.000000 0.000000
# 4 0.000000 0.000000 0.000000 0.043026 0.000000 0.000000
# 5 0.000000 0.000000 0.000000 0.000000 0.043026 0.000000
# 6 -0.001749 0.001749 0.000000 0.000000 0.000000 0.028203
#
#
# Mechanical properties :
#
#
# Convention : Reuss Voigt Hill
#
# Bulk Modulus (GPa) = 61.96017 70.73271 66.34644
# Shear Modulus (GPa) = 27.59227 29.40856 28.50042
#
# Velocity S-wave (km/s) = 3.64927 3.76747 3.70884
# Velocity P-wave (km/s) = 6.90368 7.28448 7.09663
#
# Compressibility (1/GPa) = 0.01613940
#
# Stress axis : x y z
#
# Youngs Moduli (GPa) = 70.96184 70.96184 93.68962
#
# Poissons Ratio (x) = 0.08016 0.47920
# Poissons Ratio (y) = 0.08016 0.47920
# Poissons Ratio (z) = 0.36295 0.36295
#
# Static dielectric constant tensor:
#      x y z
#    x 4.007710 0.000000 0.000000 
#    y 0.000000 4.007710 0.000000 
#    z 0.000000 0.000000 3.524010 
# 
# 
# High freq. dielectric constant tensor:
#      x y z
#    x 1.826140 0.000000 0.000000 
#    y 0.000000 1.826140 0.000000 
#    z 0.000000 0.000000 1.797990 
# 
# From -- ./inp_files/5288.got.cif
#   From: 2010.03.12/outbox.cif.g09.slc.cpg/sg86_3_cif.got.tgz:5288.got - 2010.04.08 20:12:58.
