data_PCOD8303037
_publ_section_title
;
Structure prediction by ZEFSAII (Michael W. Deem and Ramdas Pophale) SiO2 
 PCOD8303037
Probable space group: P 4/M
;
_chemical_formula_sum "Si O2"
_cell_formula_units_Z 36
_cell_length_a 11.171942
_cell_length_b 11.171942
_cell_length_c 15.300563
_cell_angle_alpha 90.000000
_cell_angle_beta 90.000000
_cell_angle_gamma 90.000000
_cell_volume 1909.698277
_symmetry_space_group_name_H-M "P 4/M"
_symmetry_group_IT_number 83
_symmetry_cell_setting 'tetragonal'
loop_
_space_group_symop_operation_xyz
x,y,z
-y,x,z
-x,-y,z
y,-x,z
-x,-y,-z
y,-x,-z
x,y,-z
-y,x,-z
loop_
_atom_site_type_symbol
_atom_site_label
_atom_site_fract_x
_atom_site_fract_y
_atom_site_fract_z
Si Si1 0.979911 0.195762 0.400907
Si Si2 0.981324 0.194178 0.100336
Si Si3 0.432932 0.312718 0.310552
Si Si4 0.375576 0.066442 0.751824
Si Si5 0.314895 0.565417 0.500000
O O1 0.974415 0.246125 0.500000
O O2 0.973280 0.302853 0.333133
O O3 0.105079 0.128955 0.384940
O O4 0.972083 0.310216 0.159908
O O5 0.105469 0.127933 0.121250
O O6 0.977541 0.235692 0.000000
O O7 0.571322 0.349681 0.297675
O O8 0.396627 0.209919 0.242824
O O9 0.410903 0.250277 0.407066
O O10 0.500000 0.000000 0.747390
O O11 0.350958 0.428894 0.500000
#
# Coordination Sequence:
#
# PCOD8303037 Si02
#       5
#     8   8   8   8   4
#     4   9  20  40  60  79 114 162 202 243 297 343
#     4   9  20  42  70  91 109 141 186 238 296 351
#     4   9  20  37  54  74 112 161 205 236 274 331
#     4  12  25  33  56  92 121 147 188 237 292 340
#     4   7  12  30  53  68  90 145 208 242 258 289
#
# _framework density 18.851147000000001
#
# number of rings (size 3 to 8) (size 9 to 14) (size 15 to 20)
#    0.000    2.556    0.000    4.000    7.778    2.667 
#    0.000    0.000    0.000    0.000    0.000    1.556 
#    0.000    0.000    0.000    0.000    0.000    0.000 
#
# Total GULP energy -446201.322109 kJ/mol
# GULP energy per Si atom -12394.481170 kJ/mol
# Density = 1.880824 g / cm^3
# Si number density = 18.851147 Si / 1000 Ang^3
#
#
#
# Elastic Constant Matrix: (Units=GPa)
#
#
# Indices 1 2 3 4 5 6 
#
# 1 101.7048 39.1555 65.2612 0.0000 0.0000 -2.1330
# 2 39.1555 101.7048 65.2612 0.0000 0.0000 2.1330
# 3 65.2612 65.2612 106.9713 0.0000 0.0000 0.0000
# 4 0.0000 0.0000 0.0000 28.1856 0.0000 0.0000
# 5 0.0000 0.0000 0.0000 0.0000 28.1856 0.0000
# 6 -2.1330 2.1330 0.0000 0.0000 0.0000 15.2889
#
#
#
# Elastic Compliance Matrix: (Units=1/GPa)
#
#
# Indices 1 2 3 4 5 6 
#
# 1 0.016236 0.000095 -0.009964 0.000000 0.000000 0.002252
# 2 0.000095 0.016236 -0.009964 0.000000 0.000000 -0.002252
# 3 -0.009964 -0.009964 0.021506 0.000000 0.000000 0.000000
# 4 0.000000 0.000000 0.000000 0.035479 0.000000 0.000000
# 5 0.000000 0.000000 0.000000 0.000000 0.035479 0.000000
# 6 0.002252 -0.002252 0.000000 0.000000 0.000000 0.066035
#
#
# Mechanical properties :
#
#
# Convention : Reuss Voigt Hill
#
# Bulk Modulus (GPa) = 69.86024 72.19300 71.02662
# Shear Modulus (GPa) = 21.23981 23.71221 22.47601
#
# Velocity S-wave (km/s) = 3.36029 3.55049 3.45670
# Velocity P-wave (km/s) = 7.22459 7.42882 7.32742
#
# Compressibility (1/GPa) = 0.01431429
#
# Stress axis : x y z
#
# Youngs Moduli (GPa) = 61.59043 61.59043 46.49965
#
# Poissons Ratio (x) = -0.00587 0.46330
# Poissons Ratio (y) = -0.00587 0.46330
# Poissons Ratio (z) = 0.61366 0.61366
#
# Static dielectric constant tensor:
#      x y z
#    x 3.329190 0.000000 0.000000 
#    y 0.000000 3.329190 0.000000 
#    z 0.000000 0.000000 3.447250 
# 
# 
# High freq. dielectric constant tensor:
#      x y z
#    x 1.726290 0.000000 0.000000 
#    y 0.000000 1.726290 0.000000 
#    z 0.000000 0.000000 1.720700 
# 
# From -- ./inp_files/2257.got.cif
#   From: 2010.03.12/outbox.cif.g09.slc.cpg/sg83_2_cif.got.tgz:2257.got - 2010.04.08 20:05:18.
