data_PCOD8303218
_publ_section_title
;
Structure prediction by ZEFSAII (Michael W. Deem and Ramdas Pophale) SiO2 
 PCOD8303218
Probable space group: P 42/M
;
_chemical_formula_sum "Si O2"
_cell_formula_units_Z 48
_cell_length_a 16.600349
_cell_length_b 16.600349
_cell_length_c 9.224933
_cell_angle_alpha 90.000000
_cell_angle_beta 90.000000
_cell_angle_gamma 90.000000
_cell_volume 2542.129426
_symmetry_space_group_name_H-M "P 42/M"
_symmetry_group_IT_number 84
_symmetry_cell_setting 'tetragonal'
loop_
_space_group_symop_operation_xyz
x,y,z
-y,x,1/2+z
-x,-y,z
y,-x,1/2+z
-x,-y,-z
y,-x,1/2-z
x,y,-z
-y,x,1/2-z
loop_
_atom_site_type_symbol
_atom_site_label
_atom_site_fract_x
_atom_site_fract_y
_atom_site_fract_z
Si Si1 0.207675 0.762917 0.835615
Si Si2 0.703096 0.513802 0.841332
Si Si3 0.921644 0.334208 0.333039
Si Si4 0.895828 0.663780 0.666369
Si Si5 0.650791 0.351337 0.838196
Si Si6 0.117171 0.504605 0.837010
O O1 0.130915 0.738624 0.737264
O O2 0.263602 0.837101 0.776428
O O3 0.259853 0.682203 0.831577
O O4 0.178552 0.781884 0.000000
O O5 0.647992 0.442344 0.774096
O O6 0.707652 0.592661 0.746365
O O7 0.789985 0.474286 0.852101
O O8 0.671395 0.538218 0.000000
O O9 0.893970 0.346974 0.500000
O O10 0.921336 0.421364 0.252554
O O11 0.013337 0.302702 0.326407
O O12 0.870516 0.643554 0.500000
O O13 0.891562 0.581969 0.759501
O O14 0.618004 0.354194 0.000000
O O15 0.079238 0.500510 0.000000
#
# Coordination Sequence:
#
# PCOD8303218 Si02
#       6
#     8   8   8   8   8   8
#     4  10  20  38  60  80 109 147 184 225 279 334
#     4  10  21  35  51  76 106 137 185 234 269 317
#     4  11  23  37  57  86 117 147 184 228 279 337
#     4  10  22  39  58  84 116 148 184 230 281 334
#     4  10  20  36  55  74 102 144 188 227 272 321
#     4  11  21  35  56  84 116 149 186 230 279 331
#
# _framework density 18.881807999999999
#
# number of rings (size 3 to 8) (size 9 to 14) (size 15 to 20)
#    0.000    1.667    3.333    1.500    0.000    6.333 
#    0.000    1.667    0.000    0.500    0.000    3.500 
#    0.000    0.000    0.000    0.000    0.000    0.000 
#
# Total GULP energy -594628.677135 kJ/mol
# GULP energy per Si atom -12388.097440 kJ/mol
# Density = 1.883883 g / cm^3
# Si number density = 18.881808 Si / 1000 Ang^3
#
#
#
# Elastic Constant Matrix: (Units=GPa)
#
#
# Indices 1 2 3 4 5 6 
#
# 1 88.8167 42.3973 43.2831 0.0000 0.0000 1.8252
# 2 42.3973 88.8167 43.2831 0.0000 0.0000 -1.8252
# 3 43.2831 43.2831 95.2905 0.0000 0.0000 0.0000
# 4 0.0000 0.0000 0.0000 -97.4234 0.0000 0.0000
# 5 0.0000 0.0000 0.0000 0.0000 -97.4234 0.0000
# 6 1.8252 -1.8252 0.0000 0.0000 0.0000 20.8038
#
#
#
# Elastic Compliance Matrix: (Units=1/GPa)
#
#
# Indices 1 2 3 4 5 6 
#
# 1 0.016287 -0.005405 -0.004943 0.000000 0.000000 -0.001903
# 2 -0.005405 0.016287 -0.004943 0.000000 0.000000 0.001903
# 3 -0.004943 -0.004943 0.014985 0.000000 0.000000 0.000000
# 4 0.000000 0.000000 0.000000 -0.010264 0.000000 0.000000
# 5 0.000000 0.000000 0.000000 0.000000 -0.010264 0.000000
# 6 -0.001903 0.001903 0.000000 0.000000 0.000000 0.048402
#
#
# Mechanical properties :
#
#
# Convention : Reuss Voigt Hill
#
# Bulk Modulus (GPa) = 58.90247 58.98343 58.94295
# Shear Modulus (GPa) = 44.77353 -25.21125 9.78114
#
# Velocity S-wave (km/s) = 4.87483 -3.65802 2.27847
# Velocity P-wave (km/s) = 7.93400 3.66941 6.18114
#
# Compressibility (1/GPa) = 0.01697722
#
# Stress axis : x y z
#
# Youngs Moduli (GPa) = 61.39771 61.39771 66.73522
#
# Poissons Ratio (x) = 0.33186 0.32987
# Poissons Ratio (y) = 0.33186 0.32987
# Poissons Ratio (z) = 0.30348 0.30348
#
# Static dielectric constant tensor:
#      x y z
#    x 3.383520 0.000000 0.000000 
#    y 0.000000 3.383520 0.000000 
#    z 0.000000 0.000000 3.562680 
# 
# 
# High freq. dielectric constant tensor:
#      x y z
#    x 1.725680 0.000000 0.000000 
#    y 0.000000 1.725680 0.000000 
#    z 0.000000 0.000000 1.732180 
# 
# From -- ./inp_files/1013.got.cif
#   From: 2010.03.12/outbox.cif.g09.slc.cpg/sg84_1_cif.got.tgz:1013.got - 2010.04.08 20:07:29.
