data_PCOD8303770
_publ_section_title
;
Structure prediction by ZEFSAII (Michael W. Deem and Ramdas Pophale) SiO2 
 PCOD8303770
Probable space group: I 4/M
;
_chemical_formula_sum "Si O2"
_cell_formula_units_Z 96
_cell_length_a 19.711921
_cell_length_b 19.711921
_cell_length_c 13.503752
_cell_angle_alpha 90.000000
_cell_angle_beta 90.000000
_cell_angle_gamma 90.000000
_cell_volume 5247.015575
_symmetry_space_group_name_H-M "I 4/M"
_symmetry_group_IT_number 87
_symmetry_cell_setting 'tetragonal'
loop_
_space_group_symop_operation_xyz
x,y,z
-y,x,z
-x,-y,z
y,-x,z
-x,-y,-z
y,-x,-z
x,y,-z
-y,x,-z
1/2+x,1/2+y,1/2+z
1/2-y,1/2+x,1/2+z
1/2-x,1/2-y,1/2+z
1/2+y,1/2-x,1/2+z
1/2-x,1/2-y,1/2-z
1/2+y,1/2-x,1/2-z
1/2+x,1/2+y,1/2-z
1/2-y,1/2+x,1/2-z
loop_
_atom_site_type_symbol
_atom_site_label
_atom_site_fract_x
_atom_site_fract_y
_atom_site_fract_z
Si Si1 0.609175 0.169427 0.109075
Si Si2 0.579298 0.577547 0.883730
Si Si3 0.060802 0.412664 0.736572
Si Si4 0.709047 0.036992 0.386818
Si Si5 0.727040 0.746191 0.389062
Si Si6 0.295229 0.644664 0.792465
O O1 0.622908 0.109752 0.185571
O O2 0.543579 0.215745 0.132242
O O3 0.673447 0.217154 0.114941
O O4 0.600592 0.136899 0.000000
O O5 0.500857 0.594939 0.856065
O O6 0.632606 0.626825 0.826684
O O7 0.590250 0.589385 0.000000
O O8 0.085656 0.487674 0.709497
O O9 0.057917 0.368922 0.636083
O O10 0.727318 0.056555 0.500000
O O11 0.759532 0.071907 0.308506
O O12 0.719037 0.716609 0.500000
O O13 0.673730 0.704839 0.320185
O O14 0.805007 0.744570 0.353683
#
# Coordination Sequence:
#
# PCOD8303770 Si02
#       6
#    16  16  16  16  16  16
#     4   9  18  32  49  69  96 132 172 210 253 305
#     4   9  19  35  56  86 116 139 175 228 279 324
#     4   9  17  30  46  66  95 130 170 212 250 293
#     4  10  19  30  47  73 100 129 169 211 253 307
#     4  10  21  36  53  77 108 140 173 212 260 316
#     4  11  21  34  55  79 105 141 172 212 265 324
#
# _framework density 18.296115
#
# number of rings (size 3 to 8) (size 9 to 14) (size 15 to 20)
#    0.000    2.333    1.667    2.000    2.333    0.667 
#    0.000    3.333    0.000    1.000    0.000    1.167 
#    0.000    0.000    0.000    0.000    0.000    0.000 
#
# Total GULP energy -594796.558231 kJ/mol
# GULP energy per Si atom -12391.594963 kJ/mol
# Density = 1.825447 g / cm^3
# Si number density = 18.296115 Si / 1000 Ang^3
#
#
#
# Elastic Constant Matrix: (Units=GPa)
#
#
# Indices 1 2 3 4 5 6 
#
# 1 53.6291 16.3862 26.3823 0.0000 0.0000 -2.9198
# 2 16.3862 53.6291 26.3823 0.0000 0.0000 2.9198
# 3 26.3823 26.3823 93.6241 0.0000 0.0000 0.0000
# 4 0.0000 0.0000 0.0000 24.4273 0.0000 0.0000
# 5 0.0000 0.0000 0.0000 0.0000 24.4273 0.0000
# 6 -2.9198 2.9198 0.0000 0.0000 0.0000 28.8752
#
#
#
# Elastic Compliance Matrix: (Units=1/GPa)
#
#
# Indices 1 2 3 4 5 6 
#
# 1 0.022708 -0.004575 -0.005110 0.000000 0.000000 0.002759
# 2 -0.004575 0.022708 -0.005110 0.000000 0.000000 -0.002759
# 3 -0.005110 -0.005110 0.013561 0.000000 0.000000 0.000000
# 4 0.000000 0.000000 0.000000 0.040938 0.000000 0.000000
# 5 0.000000 0.000000 0.000000 0.000000 0.040938 0.000000
# 6 0.002759 -0.002759 0.000000 0.000000 0.000000 0.035190
#
#
# Mechanical properties :
#
#
# Convention : Reuss Voigt Hill
#
# Bulk Modulus (GPa) = 34.02700 37.68708 35.85704
# Shear Modulus (GPa) = 23.20959 24.32806 23.76882
#
# Velocity S-wave (km/s) = 3.56554 3.65044 3.60824
# Velocity P-wave (km/s) = 5.96566 6.19764 6.08275
#
# Compressibility (1/GPa) = 0.02938842
#
# Stress axis : x y z
#
# Youngs Moduli (GPa) = 44.03659 44.03659 73.74196
#
# Poissons Ratio (x) = 0.20146 0.37681
# Poissons Ratio (y) = 0.20146 0.37681
# Poissons Ratio (z) = 0.22502 0.22502
#
# Static dielectric constant tensor:
#      x y z
#    x 3.368780 0.000000 0.000000 
#    y 0.000000 3.368780 0.000000 
#    z 0.000000 0.000000 3.308930 
# 
# 
# High freq. dielectric constant tensor:
#      x y z
#    x 1.709120 0.000000 0.000000 
#    y 0.000000 1.709120 0.000000 
#    z 0.000000 0.000000 1.682670 
# 
# From -- ./inp_files/2726.got.cif
#   From: 2010.03.12/outbox.cif.g09.slc.cpg/sg87_2_cif.got.tgz:2726.got - 2010.04.08 20:16:13.
