data_PCOD8303323
_publ_section_title
;
Structure prediction by ZEFSAII (Michael W. Deem and Ramdas Pophale) SiO2 
 PCOD8303323
Probable space group: P 42/M
;
_chemical_formula_sum "Si O2"
_cell_formula_units_Z 40
_cell_length_a 14.244317
_cell_length_b 14.244317
_cell_length_c 8.775216
_cell_angle_alpha 90.000000
_cell_angle_beta 90.000000
_cell_angle_gamma 90.000000
_cell_volume 1780.496300
_symmetry_space_group_name_H-M "P 42/M"
_symmetry_group_IT_number 84
_symmetry_cell_setting 'tetragonal'
loop_
_space_group_symop_operation_xyz
x,y,z
-y,x,1/2+z
-x,-y,z
y,-x,1/2+z
-x,-y,-z
y,-x,1/2-z
x,y,-z
-y,x,1/2-z
loop_
_atom_site_type_symbol
_atom_site_label
_atom_site_fract_x
_atom_site_fract_y
_atom_site_fract_z
Si Si1 0.230088 0.341907 0.827352
Si Si2 0.418897 0.604497 0.827057
Si Si3 0.971017 0.135897 0.179038
Si Si4 0.289328 0.138936 0.173398
Si Si5 0.500717 0.110689 0.174589
O O1 0.313740 0.347366 0.705692
O O2 0.218653 0.229217 0.820056
O O3 0.146692 0.410489 0.773833
O O4 0.256824 0.370721 0.000000
O O5 0.507003 0.627738 0.719207
O O6 0.452553 0.601655 0.000000
O O7 0.940369 0.241864 0.221075
O O8 0.064251 0.111278 0.273321
O O9 0.991818 0.128672 0.000000
O O10 0.398773 0.153474 0.226280
O O11 0.293782 0.101422 0.000000
O O12 0.500000 0.000000 0.197084
O O13 0.519908 0.139812 0.000000
#
# Coordination Sequence:
#
# PCOD8303323 Si02
#       5
#     8   8   8   8   8
#     4  11  23  39  61  89 126 169 214 268 325 390
#     4  11  21  35  57  85 119 157 203 256 315 377
#     4  11  23  41  67  97 131 169 215 271 333 397
#     4  10  23  42  64  95 133 174 221 275 334 398
#     4  10  23  43  66  93 130 176 224 277 336 398
#
# _framework density 22.465648000000002
#
# number of rings (size 3 to 8) (size 9 to 14) (size 15 to 20)
#    0.000    1.400    0.000    6.600    2.800    4.400 
#    0.000    0.000    0.000    0.000    0.000    0.000 
#    0.000    0.000    0.000    0.000    0.000    0.000 
#
# Total GULP energy -495646.156088 kJ/mol
# GULP energy per Si atom -12391.153902 kJ/mol
# Density = 2.241452 g / cm^3
# Si number density = 22.465648 Si / 1000 Ang^3
#
#
#
# Elastic Constant Matrix: (Units=GPa)
#
#
# Indices 1 2 3 4 5 6 
#
# 1 191.1975 -111.7354 22.3389 0.0000 0.0000 -25.5144
# 2 -111.7354 191.1975 22.3389 0.0000 0.0000 25.5144
# 3 22.3389 22.3389 96.1796 0.0000 0.0000 0.0000
# 4 0.0000 0.0000 0.0000 29.4721 0.0000 0.0000
# 5 0.0000 0.0000 0.0000 0.0000 29.4721 0.0000
# 6 -25.5144 25.5144 0.0000 0.0000 0.0000 51.7389
#
#
#
# Elastic Compliance Matrix: (Units=1/GPa)
#
#
# Indices 1 2 3 4 5 6 
#
# 1 0.009038 0.005437 -0.003362 0.000000 0.000000 0.001775
# 2 0.005437 0.009038 -0.003362 0.000000 0.000000 -0.001775
# 3 -0.003362 -0.003362 0.011959 0.000000 0.000000 0.000000
# 4 0.000000 0.000000 0.000000 0.033930 0.000000 0.000000
# 5 0.000000 0.000000 0.000000 0.000000 0.033930 0.000000
# 6 0.001775 -0.001775 0.000000 0.000000 0.000000 0.021079
#
#
# Mechanical properties :
#
#
# Convention : Reuss Voigt Hill
#
# Bulk Modulus (GPa) = 36.41550 38.27326 37.34438
# Shear Modulus (GPa) = 38.25547 58.51211 48.38379
#
# Velocity S-wave (km/s) = 4.13103 5.10898 4.64581
# Velocity P-wave (km/s) = 6.24488 7.20247 6.74070
#
# Compressibility (1/GPa) = 0.02746083
#
# Stress axis : x y z
#
# Youngs Moduli (GPa) = 110.65006 110.65006 83.61952
#
# Poissons Ratio (x) = -0.60165 0.28113
# Poissons Ratio (y) = -0.60165 0.28113
# Poissons Ratio (z) = 0.37200 0.37200
#
# Static dielectric constant tensor:
#      x y z
#    x 3.997720 0.000000 0.000000 
#    y 0.000000 3.997720 0.000000 
#    z 0.000000 0.000000 3.994610 
# 
# 
# High freq. dielectric constant tensor:
#      x y z
#    x 1.884160 0.000000 0.000000 
#    y 0.000000 1.884160 0.000000 
#    z 0.000000 0.000000 1.880070 
# 
# From -- ./inp_files/782.got.cif
#   From: 2010.03.12/outbox.cif.g09.slc.cpg/sg84_1_cif.got.tgz:782.got - 2010.04.08 20:07:29.
