data_PCOD8303807
_publ_section_title
;
Structure prediction by ZEFSAII (Michael W. Deem and Ramdas Pophale) SiO2 
 PCOD8303807
Probable space group: I 4/M
;
_chemical_formula_sum "Si O2"
_cell_formula_units_Z 80
_cell_length_a 15.610598
_cell_length_b 15.610598
_cell_length_c 18.764085
_cell_angle_alpha 90.000000
_cell_angle_beta 90.000000
_cell_angle_gamma 90.000000
_cell_volume 4572.634320
_symmetry_space_group_name_H-M "I 4/M"
_symmetry_group_IT_number 87
_symmetry_cell_setting 'tetragonal'
loop_
_space_group_symop_operation_xyz
x,y,z
-y,x,z
-x,-y,z
y,-x,z
-x,-y,-z
y,-x,-z
x,y,-z
-y,x,-z
1/2+x,1/2+y,1/2+z
1/2-y,1/2+x,1/2+z
1/2-x,1/2-y,1/2+z
1/2+y,1/2-x,1/2+z
1/2-x,1/2-y,1/2-z
1/2+y,1/2-x,1/2-z
1/2+x,1/2+y,1/2-z
1/2-y,1/2+x,1/2-z
loop_
_atom_site_type_symbol
_atom_site_label
_atom_site_fract_x
_atom_site_fract_y
_atom_site_fract_z
Si Si1 0.441208 0.878710 0.757841
Si Si2 0.234663 0.312797 0.317000
Si Si3 0.960844 0.214736 0.648974
Si Si4 0.356056 0.307035 0.918851
Si Si5 0.073435 0.882448 0.789830
O O1 0.531616 0.897905 0.718176
O O2 0.378565 0.841295 0.698665
O O3 0.451781 0.813156 0.824259
O O4 0.250000 0.250000 0.250000
O O5 0.210844 0.261025 0.387374
O O6 0.317680 0.369837 0.336451
O O7 0.898953 0.192192 0.582851
O O8 0.923600 0.149246 0.708247
O O9 0.057505 0.194583 0.627734
O O10 0.377683 0.283460 0.000000
O O11 0.973084 0.883483 0.807370
#
# Coordination Sequence:
#
# PCOD8303807 Si02
#       5
#    16  16  16  16  16
#     4  10  20  33  58  85 109 141 183 240 287 316
#     4  11  20  34  57  80 110 146 193 234 268 328
#     4  11  20  36  54  81 119 149 185 216 273 349
#     4  12  24  37  54  82 119 159 183 223 279 342
#     4  10  19  32  57  86 113 137 179 237 284 320
#
# _framework density 17.495384000000001
#
# number of rings (size 3 to 8) (size 9 to 14) (size 15 to 20)
#    0.000    1.200    8.000    0.600    2.800    0.400 
#    0.000    1.000    0.000    7.200    0.000    1.400 
#    0.000    0.000    0.000    0.000    0.000    0.000 
#
# Total GULP energy -495677.611990 kJ/mol
# GULP energy per Si atom -12391.940300 kJ/mol
# Density = 1.745556 g / cm^3
# Si number density = 17.495384 Si / 1000 Ang^3
#
#
#
# Elastic Constant Matrix: (Units=GPa)
#
#
# Indices 1 2 3 4 5 6 
#
# 1 112.5936 73.9888 26.3534 0.0000 0.0000 6.6195
# 2 73.9888 112.5936 26.3534 0.0000 0.0000 -6.6195
# 3 26.3534 26.3534 50.8988 0.0000 0.0000 0.0000
# 4 0.0000 0.0000 0.0000 16.3101 0.0000 0.0000
# 5 0.0000 0.0000 0.0000 0.0000 16.3101 0.0000
# 6 6.6195 -6.6195 0.0000 0.0000 0.0000 38.3063
#
#
#
# Elastic Compliance Matrix: (Units=1/GPa)
#
#
# Indices 1 2 3 4 5 6 
#
# 1 0.016907 -0.010629 -0.003250 0.000000 0.000000 -0.004758
# 2 -0.010629 0.016907 -0.003250 0.000000 0.000000 0.004758
# 3 -0.003250 -0.003250 0.023013 0.000000 0.000000 0.000000
# 4 0.000000 0.000000 0.000000 0.061312 0.000000 0.000000
# 5 0.000000 0.000000 0.000000 0.000000 0.061312 0.000000
# 6 -0.004758 0.004758 0.000000 0.000000 0.000000 0.027750
#
#
# Mechanical properties :
#
#
# Convention : Reuss Voigt Hill
#
# Bulk Modulus (GPa) = 44.31316 58.83080 51.57198
# Shear Modulus (GPa) = 20.08189 24.14463 22.11326
#
# Velocity S-wave (km/s) = 3.39165 3.71894 3.55906
# Velocity P-wave (km/s) = 6.38132 7.22082 6.81401
#
# Compressibility (1/GPa) = 0.02256666
#
# Stress axis : x y z
#
# Youngs Moduli (GPa) = 59.14881 59.14881 43.45434
#
# Poissons Ratio (x) = 0.62868 0.14124
# Poissons Ratio (y) = 0.62868 0.14124
# Poissons Ratio (z) = 0.19226 0.19226
#
# Static dielectric constant tensor:
#      x y z
#    x 3.576690 0.000000 0.000000 
#    y 0.000000 3.576690 0.000000 
#    z 0.000000 0.000000 2.778420 
# 
# 
# High freq. dielectric constant tensor:
#      x y z
#    x 1.697750 0.000000 0.000000 
#    y 0.000000 1.697750 0.000000 
#    z 0.000000 0.000000 1.610090 
# 
# From -- ./inp_files/3519.got.cif
#   From: 2010.03.12/outbox.cif.g09.slc.cpg/sg87_2_cif.got.tgz:3519.got - 2010.04.08 20:16:13.
