data_PCOD8303142
_publ_section_title
;
Structure prediction by ZEFSAII (Michael W. Deem and Ramdas Pophale) SiO2 
 PCOD8303142
Probable space group: P 42/M
;
_chemical_formula_sum "Si O2"
_cell_formula_units_Z 56
_cell_length_a 15.066207
_cell_length_b 15.066207
_cell_length_c 13.462414
_cell_angle_alpha 90.000000
_cell_angle_beta 90.000000
_cell_angle_gamma 90.000000
_cell_volume 3055.841342
_symmetry_space_group_name_H-M "P 42/M"
_symmetry_group_IT_number 84
_symmetry_cell_setting 'tetragonal'
loop_
_space_group_symop_operation_xyz
x,y,z
-y,x,1/2+z
-x,-y,z
y,-x,1/2+z
-x,-y,-z
y,-x,1/2-z
x,y,-z
-y,x,1/2-z
loop_
_atom_site_type_symbol
_atom_site_label
_atom_site_fract_x
_atom_site_fract_y
_atom_site_fract_z
Si Si1 0.104629 0.273242 0.713281
Si Si2 0.583210 0.615480 0.740906
Si Si3 0.048945 0.108861 0.611689
Si Si4 0.369112 0.743574 0.888494
Si Si5 0.228987 0.573420 0.610685
Si Si6 0.935976 0.858302 0.115410
Si Si7 0.600357 0.970312 0.885470
O O1 0.100120 0.198778 0.629196
O O2 0.200604 0.316861 0.695258
O O3 0.096281 0.227555 0.821807
O O4 0.025661 0.342575 0.693737
O O5 0.613080 0.520743 0.787909
O O6 0.639700 0.632721 0.641244
O O7 0.606943 0.693076 0.817936
O O8 0.054535 0.076128 0.500000
O O9 0.944392 0.125953 0.635483
O O10 0.104538 0.028730 0.663167
O O11 0.467898 0.781361 0.887753
O O12 0.329336 0.752838 0.000000
O O13 0.253945 0.605616 0.500000
O O14 0.133523 0.613172 0.641781
O O15 0.937341 0.828192 0.000000
O O16 0.500000 0.000000 0.871263
O O17 0.630011 0.988486 0.000000
#
# Coordination Sequence:
#
# PCOD8303142 Si02
#       7
#     8   8   8   8   8   8   8
#     4  12  20  30  54  81 105 138 178 221 263 315
#     4   9  19  35  54  78 107 139 175 215 264 321
#     4   9  18  34  53  75 105 140 176 216 268 314
#     4  10  20  34  52  77 106 137 172 218 267 316
#     4   9  18  34  55  77 103 134 172 216 267 317
#     4   9  20  36  51  72 109 146 174 214 263 317
#     4  10  19  33  52  77 104 132 170 217 267 313
#
# _framework density 18.325558999999998
#
# number of rings (size 3 to 8) (size 9 to 14) (size 15 to 20)
#    0.000    2.286    1.429    3.000    0.000    4.000 
#    0.000    5.000    0.000    1.286    0.000    0.000 
#    0.000    0.000    0.000    0.000    0.000    0.000 
#
# Total GULP energy -693777.661537 kJ/mol
# GULP energy per Si atom -12388.886813 kJ/mol
# Density = 1.828385 g / cm^3
# Si number density = 18.325559 Si / 1000 Ang^3
#
#
#
# Elastic Constant Matrix: (Units=GPa)
#
#
# Indices 1 2 3 4 5 6 
#
# 1 76.6584 31.8746 38.8618 0.0000 0.0000 -0.5512
# 2 31.8746 76.6584 38.8618 0.0000 0.0000 0.5512
# 3 38.8618 38.8618 100.1017 0.0000 0.0000 0.0000
# 4 0.0000 0.0000 0.0000 31.1957 0.0000 0.0000
# 5 0.0000 0.0000 0.0000 0.0000 31.1957 0.0000
# 6 -0.5512 0.5512 0.0000 0.0000 0.0000 20.3988
#
#
#
# Elastic Compliance Matrix: (Units=1/GPa)
#
#
# Indices 1 2 3 4 5 6 
#
# 1 0.017553 -0.004791 -0.004954 0.000000 0.000000 0.000604
# 2 -0.004791 0.017553 -0.004954 0.000000 0.000000 -0.000604
# 3 -0.004954 -0.004954 0.013837 0.000000 0.000000 0.000000
# 4 0.000000 0.000000 0.000000 0.032056 0.000000 0.000000
# 5 0.000000 0.000000 0.000000 0.000000 0.032056 0.000000
# 6 0.000604 -0.000604 0.000000 0.000000 0.000000 0.049055
#
#
# Mechanical properties :
#
#
# Convention : Reuss Voigt Hill
#
# Bulk Modulus (GPa) = 51.17032 52.51276 51.84154
# Shear Modulus (GPa) = 25.24949 26.14605 25.69777
#
# Velocity S-wave (km/s) = 3.71594 3.78134 3.74878
# Velocity P-wave (km/s) = 6.81135 6.91248 6.86210
#
# Compressibility (1/GPa) = 0.01954258
#
# Stress axis : x y z
#
# Youngs Moduli (GPa) = 56.97011 56.97011 72.27165
#
# Poissons Ratio (x) = 0.27296 0.35806
# Poissons Ratio (y) = 0.27296 0.35806
# Poissons Ratio (z) = 0.28225 0.28225
#
# Static dielectric constant tensor:
#      x y z
#    x 3.332710 0.000000 0.000000 
#    y 0.000000 3.332710 0.000000 
#    z 0.000000 0.000000 3.237970 
# 
# 
# High freq. dielectric constant tensor:
#      x y z
#    x 1.706520 0.000000 0.000000 
#    y 0.000000 1.706520 0.000000 
#    z 0.000000 0.000000 1.695360 
# 
# From -- ./inp_files/3102.got.cif
#   From: 2010.03.12/outbox.cif.g09.slc.cpg/sg84_2_cif.got.tgz:3102.got - 2010.04.08 20:07:29.
