data_PCOD8303846
_publ_section_title
;
Structure prediction by ZEFSAII (Michael W. Deem and Ramdas Pophale) SiO2 
 PCOD8303846
Probable space group: I 4/M
;
_chemical_formula_sum "Si O2"
_cell_formula_units_Z 64
_cell_length_a 21.436696
_cell_length_b 21.436696
_cell_length_c 7.591397
_cell_angle_alpha 90.000000
_cell_angle_beta 90.000000
_cell_angle_gamma 90.000000
_cell_volume 3488.489356
_symmetry_space_group_name_H-M "I 4/M"
_symmetry_group_IT_number 87
_symmetry_cell_setting 'tetragonal'
loop_
_space_group_symop_operation_xyz
x,y,z
-y,x,z
-x,-y,z
y,-x,z
-x,-y,-z
y,-x,-z
x,y,-z
-y,x,-z
1/2+x,1/2+y,1/2+z
1/2-y,1/2+x,1/2+z
1/2-x,1/2-y,1/2+z
1/2+y,1/2-x,1/2+z
1/2-x,1/2-y,1/2-z
1/2+y,1/2-x,1/2-z
1/2+x,1/2+y,1/2-z
1/2-y,1/2+x,1/2-z
loop_
_atom_site_type_symbol
_atom_site_label
_atom_site_fract_x
_atom_site_fract_y
_atom_site_fract_z
Si Si1 0.712038 0.311347 0.201705
Si Si2 0.518400 0.906454 0.196222
Si Si3 0.514367 0.686153 0.500000
Si Si4 0.271946 0.941723 0.296840
Si Si5 0.875478 0.145572 0.000000
O O1 0.750000 0.250000 0.250000
O O2 0.758966 0.368768 0.232519
O O3 0.652261 0.320016 0.327466
O O4 0.688426 0.308509 0.000000
O O5 0.459251 0.927924 0.310065
O O6 0.546772 0.842382 0.269050
O O7 0.493379 0.896352 0.000000
O O8 0.516349 0.727485 0.676466
O O9 0.449817 0.649330 0.500000
O O10 0.572002 0.638420 0.500000
O O11 0.261302 0.960943 0.500000
#
# Coordination Sequence:
#
# PCOD8303846 Si02
#       5
#    16  16   8  16   8
#     4  10  19  36  58  84 118 146 186 234 284 338
#     4  10  20  33  49  72 105 145 187 221 263 316
#     4  10  22  39  62  79 116 140 188 232 286 338
#     4   9  21  37  54  79 112 146 182 231 279 330
#     4  10  22  39  58  90 110 156 184 235 286 336
#
# _framework density 18.346049000000001
#
# number of rings (size 3 to 8) (size 9 to 14) (size 15 to 20)
#    0.000    2.250    1.250    1.500    3.500    3.250 
#    0.000    2.500    0.000    0.000    0.000    7.000 
#    0.000    0.000    0.000    0.000    0.000    0.000 
#
# Total GULP energy -396785.659168 kJ/mol
# GULP energy per Si atom -12399.551849 kJ/mol
# Density = 1.830429 g / cm^3
# Si number density = 18.346049 Si / 1000 Ang^3
#
#
#
# Elastic Constant Matrix: (Units=GPa)
#
#
# Indices 1 2 3 4 5 6 
#
# 1 125.6890 60.8775 48.0934 0.0000 0.0000 16.1267
# 2 60.8775 125.6890 48.0934 0.0000 0.0000 -16.1267
# 3 48.0934 48.0934 109.1387 0.0000 0.0000 0.0000
# 4 0.0000 0.0000 0.0000 21.6505 0.0000 0.0000
# 5 0.0000 0.0000 0.0000 0.0000 21.6505 0.0000
# 6 16.1267 -16.1267 0.0000 0.0000 0.0000 22.4715
#
#
#
# Elastic Compliance Matrix: (Units=1/GPa)
#
#
# Indices 1 2 3 4 5 6 
#
# 1 0.015468 -0.008533 -0.003056 0.000000 0.000000 -0.017224
# 2 -0.008533 0.015468 -0.003056 0.000000 0.000000 0.017224
# 3 -0.003056 -0.003056 0.011856 0.000000 0.000000 0.000000
# 4 0.000000 0.000000 0.000000 0.046188 0.000000 0.000000
# 5 0.000000 0.000000 0.000000 0.000000 0.046188 0.000000
# 6 -0.017224 0.017224 0.000000 0.000000 0.000000 0.069223
#
#
# Mechanical properties :
#
#
# Convention : Reuss Voigt Hill
#
# Bulk Modulus (GPa) = 74.06059 74.96059 74.51059
# Shear Modulus (GPa) = 20.99216 26.71799 23.85508
#
# Velocity S-wave (km/s) = 3.38632 3.82034 3.60986
# Velocity P-wave (km/s) = 7.46632 7.77225 7.62082
#
# Compressibility (1/GPa) = 0.01350246
#
# Stress axis : x y z
#
# Youngs Moduli (GPa) = 64.64786 64.64786 84.34355
#
# Poissons Ratio (x) = 0.55162 0.25778
# Poissons Ratio (y) = 0.55162 0.25778
# Poissons Ratio (z) = 0.19759 0.19759
#
# Static dielectric constant tensor:
#      x y z
#    x 3.263870 0.000000 0.000000 
#    y 0.000000 3.263870 0.000000 
#    z 0.000000 0.000000 3.692180 
# 
# 
# High freq. dielectric constant tensor:
#      x y z
#    x 1.700250 0.000000 0.000000 
#    y 0.000000 1.700250 0.000000 
#    z 0.000000 0.000000 1.729060 
# 
# From -- ./inp_files/980.got.cif
#   From: 2010.03.12/outbox.cif.g09.slc.cpg/sg87_1_cif.got.tgz:980.got - 2010.04.08 20:16:13.
