data_PCOD8303051
_publ_section_title
;
Structure prediction by ZEFSAII (Michael W. Deem and Ramdas Pophale) SiO2 
 PCOD8303051
Probable space group: P 42/M
;
_chemical_formula_sum "Si O2"
_cell_formula_units_Z 40
_cell_length_a 17.842338
_cell_length_b 17.842338
_cell_length_c 9.126700
_cell_angle_alpha 90.000000
_cell_angle_beta 90.000000
_cell_angle_gamma 90.000000
_cell_volume 2905.476049
_symmetry_space_group_name_H-M "P 42/M"
_symmetry_group_IT_number 84
_symmetry_cell_setting 'tetragonal'
loop_
_space_group_symop_operation_xyz
x,y,z
-y,x,1/2+z
-x,-y,z
y,-x,1/2+z
-x,-y,-z
y,-x,1/2-z
x,y,-z
-y,x,1/2-z
loop_
_atom_site_type_symbol
_atom_site_label
_atom_site_fract_x
_atom_site_fract_y
_atom_site_fract_z
Si Si1 0.510109 0.910634 0.162564
Si Si2 0.087684 0.187980 0.334115
Si Si3 0.918835 0.347891 0.172078
Si Si4 0.072668 0.351038 0.331461
Si Si5 0.087694 0.799308 0.670072
O O1 0.574360 0.880449 0.272106
O O2 0.426258 0.877578 0.198504
O O3 0.500000 0.000000 0.173723
O O4 0.535030 0.886528 0.000000
O O5 0.102454 0.160729 0.500000
O O6 0.118529 0.273522 0.312229
O O7 0.128463 0.133059 0.222997
O O8 0.999562 0.186296 0.297761
O O9 0.881944 0.274298 0.245151
O O10 0.005318 0.350114 0.216510
O O11 0.908409 0.342345 0.000000
O O12 0.040837 0.353895 0.500000
O O13 0.102843 0.786637 0.500000
#
# Coordination Sequence:
#
# PCOD8303051 Si02
#       5
#     8   8   8   8   8
#     4   8  13  23  38  54  74  97 116 137 174 223
#     4   9  18  31  43  55  71  93 126 163 195 228
#     4  10  17  24  37  56  75  93 117 150 183 218
#     4   8  15  27  40  54  74  97 117 143 183 227
#     4  10  20  32  43  54  71  96 125 159 200 237
#
# _framework density 13.767108
#
# number of rings (size 3 to 8) (size 9 to 14) (size 15 to 20)
#    0.000    3.000    0.000    4.800    0.000    8.000 
#    0.000    2.000    0.000    0.000    0.000    0.000 
#    0.000    0.000    0.000    0.000    0.000    1.000 
#
# Total GULP energy -495526.856707 kJ/mol
# GULP energy per Si atom -12388.171418 kJ/mol
# Density = 1.373577 g / cm^3
# Si number density = 13.767108 Si / 1000 Ang^3
#
#
#
# Elastic Constant Matrix: (Units=GPa)
#
#
# Indices 1 2 3 4 5 6 
#
# 1 61.1397 34.2153 40.3267 0.0000 0.0000 -0.4364
# 2 34.2153 61.1397 40.3267 0.0000 0.0000 0.4364
# 3 40.3267 40.3267 95.4046 0.0000 0.0000 0.0000
# 4 0.0000 0.0000 0.0000 17.8675 0.0000 0.0000
# 5 0.0000 0.0000 0.0000 0.0000 17.8675 0.0000
# 6 -0.4364 0.4364 0.0000 0.0000 0.0000 0.2365
#
#
#
# Elastic Compliance Matrix: (Units=1/GPa)
#
#
# Indices 1 2 3 4 5 6 
#
# 1 0.027914 -0.011591 -0.006900 0.000000 0.000000 0.072905
# 2 -0.011591 0.027914 -0.006900 0.000000 0.000000 -0.072905
# 3 -0.006900 -0.006900 0.016314 0.000000 0.000000 0.000000
# 4 0.000000 0.000000 0.000000 0.055968 0.000000 0.000000
# 5 0.000000 0.000000 0.000000 0.000000 0.055968 0.000000
# 6 0.072905 -0.072905 0.000000 0.000000 0.000000 4.498136
#
#
# Mechanical properties :
#
#
# Convention : Reuss Voigt Hill
#
# Bulk Modulus (GPa) = 46.81196 49.71348 48.26272
# Shear Modulus (GPa) = 1.05483 14.04864 7.55173
#
# Velocity S-wave (km/s) = 0.87627 3.19791 2.34462
# Velocity P-wave (km/s) = 5.92456 7.05863 6.51631
#
# Compressibility (1/GPa) = 0.02136206
#
# Stress axis : x y z
#
# Youngs Moduli (GPa) = 35.82490 35.82490 61.29546
#
# Poissons Ratio (x) = 0.41523 0.42291
# Poissons Ratio (y) = 0.41523 0.42291
# Poissons Ratio (z) = 0.24718 0.24718
#
# Static dielectric constant tensor:
#      x y z
#    x 2.737800 0.000000 0.000000 
#    y 0.000000 2.737800 0.000000 
#    z 0.000000 0.000000 2.697420 
# 
# 
# High freq. dielectric constant tensor:
#      x y z
#    x 1.491530 0.000000 0.000000 
#    y 0.000000 1.491530 0.000000 
#    z 0.000000 0.000000 1.532020 
# 
# From -- ./inp_files/879.got.cif
#   From: 2010.03.12/outbox.cif.g09.slc.cpg/sg84_1_cif.got.tgz:879.got - 2010.04.08 20:07:29.
