data_PCOD8303908
_publ_section_title
;
Structure prediction by ZEFSAII (Michael W. Deem and Ramdas Pophale) SiO2 
 PCOD8303908
Probable space group: I 4/M
;
_chemical_formula_sum "Si O2"
_cell_formula_units_Z 120
_cell_length_a 27.137182
_cell_length_b 27.137182
_cell_length_c 7.937175
_cell_angle_alpha 90.000000
_cell_angle_beta 90.000000
_cell_angle_gamma 90.000000
_cell_volume 5845.147171
_symmetry_space_group_name_H-M "I 4/M"
_symmetry_group_IT_number 87
_symmetry_cell_setting 'tetragonal'
loop_
_space_group_symop_operation_xyz
x,y,z
-y,x,z
-x,-y,z
y,-x,z
-x,-y,-z
y,-x,-z
x,y,-z
-y,x,-z
1/2+x,1/2+y,1/2+z
1/2-y,1/2+x,1/2+z
1/2-x,1/2-y,1/2+z
1/2+y,1/2-x,1/2+z
1/2-x,1/2-y,1/2-z
1/2+y,1/2-x,1/2-z
1/2+x,1/2+y,1/2-z
1/2-y,1/2+x,1/2-z
loop_
_atom_site_type_symbol
_atom_site_label
_atom_site_fract_x
_atom_site_fract_y
_atom_site_fract_z
Si Si1 0.252906 0.452478 0.691358
Si Si2 0.641654 0.784241 0.806789
Si Si3 0.148431 0.727265 0.690469
Si Si4 0.463749 0.182686 0.298816
Si Si5 0.926809 0.138761 0.803798
Si Si6 0.005948 0.424790 0.192141
Si Si7 0.823235 0.165660 0.302226
Si Si8 0.072547 0.036952 0.500000
O O1 0.259148 0.467249 0.500000
O O2 0.221984 0.401762 0.703415
O O3 0.222333 0.497102 0.775171
O O4 0.308005 0.445957 0.764775
O O5 0.679935 0.817447 0.705994
O O6 0.587868 0.806116 0.786578
O O7 0.642918 0.728278 0.737778
O O8 0.658409 0.784787 0.000000
O O9 0.130593 0.732844 0.500000
O O10 0.177879 0.776377 0.745270
O O11 0.458641 0.184184 0.500000
O O12 0.480692 0.128876 0.236772
O O13 0.867356 0.138150 0.794918
O O14 0.949213 0.099583 0.674484
O O15 0.941884 0.127945 0.000000
O O16 0.053449 0.460416 0.202436
O O17 0.988667 0.421051 0.000000
O O18 0.830994 0.156602 0.500000
O O19 0.021366 0.065824 0.500000
#
# Coordination Sequence:
#
# PCOD8303908 Si02
#       8
#    16  16  16  16  16  16  16   8
#     4   9  20  39  61  88 120 156 205 256 309 377
#     4  11  23  36  54  85 124 160 202 252 306 365
#     4  10  20  35  59  85 117 161 202 247 306 373
#     4  10  23  40  56  83 120 154 198 257 311 367
#     4  10  21  41  71  98 126 171 213 253 317 376
#     4  10  21  38  60  81 107 148 197 253 309 368
#     4   9  19  38  61  90 125 162 207 253 306 375
#     4  11  26  46  68  98 136 170 210 265 306 364
#
# _framework density 20.529852000000002
#
# number of rings (size 3 to 8) (size 9 to 14) (size 15 to 20)
#    0.000    2.067    0.667    2.000    2.800    4.800 
#    0.000    2.000    0.000    0.000    0.000    0.000 
#    0.000    0.000    0.000    0.000    0.000    0.000 
#
# Total GULP energy -743968.097691 kJ/mol
# GULP energy per Si atom -12399.468295 kJ/mol
# Density = 2.048313 g / cm^3
# Si number density = 20.529852 Si / 1000 Ang^3
#
#
#
# Elastic Constant Matrix: (Units=GPa)
#
#
# Indices 1 2 3 4 5 6 
#
# 1 117.3932 70.6514 31.1178 0.0000 0.0000 5.9474
# 2 70.6514 117.3932 31.1178 0.0000 0.0000 -5.9474
# 3 31.1178 31.1178 59.9881 0.0000 0.0000 0.0000
# 4 0.0000 0.0000 0.0000 22.8157 0.0000 0.0000
# 5 0.0000 0.0000 0.0000 0.0000 22.8157 0.0000
# 6 5.9474 -5.9474 0.0000 0.0000 0.0000 29.7539
#
#
#
# Elastic Compliance Matrix: (Units=1/GPa)
#
#
# Indices 1 2 3 4 5 6 
#
# 1 0.014480 -0.008060 -0.003330 0.000000 0.000000 -0.004506
# 2 -0.008060 0.014480 -0.003330 0.000000 0.000000 0.004506
# 3 -0.003330 -0.003330 0.020125 0.000000 0.000000 0.000000
# 4 0.000000 0.000000 0.000000 0.043830 0.000000 0.000000
# 5 0.000000 0.000000 0.000000 0.000000 0.043830 0.000000
# 6 -0.004506 0.004506 0.000000 0.000000 0.000000 0.035410
#
#
# Mechanical properties :
#
#
# Convention : Reuss Voigt Hill
#
# Bulk Modulus (GPa) = 50.90614 62.28317 56.59466
# Shear Modulus (GPa) = 24.02171 25.86954 24.94562
#
# Velocity S-wave (km/s) = 3.42436 3.55363 3.48960
# Velocity P-wave (km/s) = 6.36278 6.87324 6.62293
#
# Compressibility (1/GPa) = 0.01964400
#
# Stress axis : x y z
#
# Youngs Moduli (GPa) = 69.05884 69.05884 49.68924
#
# Poissons Ratio (x) = 0.55664 0.16548
# Poissons Ratio (y) = 0.55664 0.16548
# Poissons Ratio (z) = 0.22999 0.22999
#
# Static dielectric constant tensor:
#      x y z
#    x 3.762820 0.000000 0.000000 
#    y 0.000000 3.762820 0.000000 
#    z 0.000000 0.000000 3.600660 
# 
# 
# High freq. dielectric constant tensor:
#      x y z
#    x 1.801120 0.000000 0.000000 
#    y 0.000000 1.801120 0.000000 
#    z 0.000000 0.000000 1.797320 
# 
# From -- ./inp_files/1694.got.cif
#   From: 2010.03.12/outbox.cif.g09.slc.cpg/sg87_1_cif.got.tgz:1694.got - 2010.04.08 20:16:13.
