data_PCOD8303309
_publ_section_title
;
Structure prediction by ZEFSAII (Michael W. Deem and Ramdas Pophale) SiO2 
 PCOD8303309
Probable space group: P 42/M
;
_chemical_formula_sum "Si O2"
_cell_formula_units_Z 40
_cell_length_a 8.274387
_cell_length_b 8.274387
_cell_length_c 27.205301
_cell_angle_alpha 90.000000
_cell_angle_beta 90.000000
_cell_angle_gamma 90.000000
_cell_volume 1862.623998
_symmetry_space_group_name_H-M "P 42/M"
_symmetry_group_IT_number 84
_symmetry_cell_setting 'tetragonal'
loop_
_space_group_symop_operation_xyz
x,y,z
-y,x,1/2+z
-x,-y,z
y,-x,1/2+z
-x,-y,-z
y,-x,1/2-z
x,y,-z
-y,x,1/2-z
loop_
_atom_site_type_symbol
_atom_site_label
_atom_site_fract_x
_atom_site_fract_y
_atom_site_fract_z
Si Si1 0.213625 0.305204 0.632211
Si Si2 0.829214 0.421176 0.788669
Si Si3 0.896102 0.142750 0.623919
Si Si4 0.371547 0.291286 0.816513
Si Si5 0.319782 0.062024 0.556225
O O1 0.255492 0.196521 0.680966
O O2 0.267648 0.488931 0.642676
O O3 0.312315 0.229856 0.586539
O O4 0.023685 0.291943 0.617387
O O5 0.666318 0.524264 0.801859
O O6 0.824383 0.399241 0.730174
O O7 0.000000 0.500000 0.803171
O O8 0.758056 0.200347 0.660253
O O9 0.810925 0.071536 0.574791
O O10 0.000000 0.000000 0.648603
O O11 0.277597 0.099592 0.500000
O O12 0.500000 0.000000 0.562644
#
# Coordination Sequence:
#
# PCOD8303309 Si02
#       5
#     8   8   8   8   8
#     4  11  22  39  63  96 130 172 221 281 327 398
#     4  12  24  40  60  90 133 181 223 269 338 406
#     4  10  22  41  63  93 128 171 221 273 330 396
#     4  12  24  41  62  93 135 178 224 278 336 410
#     4  10  22  44  71  99 132 177 225 277 345 412
#
# _framework density 21.475079000000001
#
# number of rings (size 3 to 8) (size 9 to 14) (size 15 to 20)
#    0.000    1.000    2.000    6.600    0.000    3.600 
#    0.000    1.000    0.000   10.800    0.000    0.000 
#    0.000    0.000    0.000    0.000    0.000    0.000 
#
# Total GULP energy -495672.760958 kJ/mol
# GULP energy per Si atom -12391.819024 kJ/mol
# Density = 2.142620 g / cm^3
# Si number density = 21.475079 Si / 1000 Ang^3
#
#
#
# Elastic Constant Matrix: (Units=GPa)
#
#
# Indices 1 2 3 4 5 6 
#
# 1 94.9714 25.3997 51.1291 0.0000 0.0000 1.7728
# 2 25.3997 94.9714 51.1291 0.0000 0.0000 -1.7728
# 3 51.1291 51.1291 140.5249 0.0000 0.0000 0.0000
# 4 0.0000 0.0000 0.0000 34.6707 0.0000 0.0000
# 5 0.0000 0.0000 0.0000 0.0000 34.6707 0.0000
# 6 1.7728 -1.7728 0.0000 0.0000 0.0000 37.3908
#
#
#
# Elastic Compliance Matrix: (Units=1/GPa)
#
#
# Indices 1 2 3 4 5 6 
#
# 1 0.013216 -0.001192 -0.004375 0.000000 0.000000 -0.000683
# 2 -0.001192 0.013216 -0.004375 0.000000 0.000000 0.000683
# 3 -0.004375 -0.004375 0.010300 0.000000 0.000000 0.000000
# 4 0.000000 0.000000 0.000000 0.028843 0.000000 0.000000
# 5 0.000000 0.000000 0.000000 0.000000 0.028843 0.000000
# 6 -0.000683 0.000683 0.000000 0.000000 0.000000 0.026809
#
#
# Mechanical properties :
#
#
# Convention : Reuss Voigt Hill
#
# Bulk Modulus (GPa) = 59.35246 65.08706 62.21976
# Shear Modulus (GPa) = 34.07675 34.86710 34.47192
#
# Velocity S-wave (km/s) = 3.98779 4.03377 4.01085
# Velocity P-wave (km/s) = 6.99294 7.21589 7.10529
#
# Compressibility (1/GPa) = 0.01684850
#
# Stress axis : x y z
#
# Youngs Moduli (GPa) = 75.66370 75.66370 97.08949
#
# Poissons Ratio (x) = 0.09020 0.42476
# Poissons Ratio (y) = 0.09020 0.42476
# Poissons Ratio (z) = 0.33103 0.33103
#
# Static dielectric constant tensor:
#      x y z
#    x 4.112140 0.000000 0.000000 
#    y 0.000000 4.112140 0.000000 
#    z 0.000000 0.000000 3.731860 
# 
# 
# High freq. dielectric constant tensor:
#      x y z
#    x 1.853760 0.000000 0.000000 
#    y 0.000000 1.853760 0.000000 
#    z 0.000000 0.000000 1.814210 
# 
# From -- ./inp_files/5327.got.cif
#   From: 2010.03.12/outbox.cif.g09.slc.cpg/sg84_3_cif.got.tgz:5327.got - 2010.04.08 20:07:29.
