data_PCOD8303999
_publ_section_title
;
Structure prediction by ZEFSAII (Michael W. Deem and Ramdas Pophale) SiO2 
 PCOD8303999
Probable space group: I 4/M
;
_chemical_formula_sum "Si O2"
_cell_formula_units_Z 72
_cell_length_a 20.822992
_cell_length_b 20.822992
_cell_length_c 7.783854
_cell_angle_alpha 90.000000
_cell_angle_beta 90.000000
_cell_angle_gamma 90.000000
_cell_volume 3375.055710
_symmetry_space_group_name_H-M "I 4/M"
_symmetry_group_IT_number 87
_symmetry_cell_setting 'tetragonal'
loop_
_space_group_symop_operation_xyz
x,y,z
-y,x,z
-x,-y,z
y,-x,z
-x,-y,-z
y,-x,-z
x,y,-z
-y,x,-z
1/2+x,1/2+y,1/2+z
1/2-y,1/2+x,1/2+z
1/2-x,1/2-y,1/2+z
1/2+y,1/2-x,1/2+z
1/2-x,1/2-y,1/2-z
1/2+y,1/2-x,1/2-z
1/2+x,1/2+y,1/2-z
1/2-y,1/2+x,1/2-z
loop_
_atom_site_type_symbol
_atom_site_label
_atom_site_fract_x
_atom_site_fract_y
_atom_site_fract_z
Si Si1 0.088545 0.663048 0.796618
Si Si2 0.602199 0.473213 0.000000
Si Si3 0.683684 0.052677 0.304399
Si Si4 0.773988 0.819807 0.201519
Si Si5 0.081777 0.178836 0.195486
O O1 0.127518 0.599829 0.740049
O O2 0.126265 0.725793 0.724694
O O3 0.019775 0.658731 0.707705
O O4 0.079469 0.666658 0.000000
O O5 0.577749 0.545361 0.000000
O O6 0.642975 0.465768 0.174542
O O7 0.701907 0.069651 0.500000
O O8 0.746152 0.063982 0.188711
O O9 0.750000 0.750000 0.250000
O O10 0.846123 0.831132 0.269317
O O11 0.775037 0.825307 0.000000
O O12 0.073786 0.152328 0.000000
#
# Coordination Sequence:
#
# PCOD8303999 Si02
#       5
#    16   8  16  16  16
#     4  10  23  41  62  91 131 174 225 278 334 403
#     4  11  28  50  70  98 138 181 225 273 333 407
#     4  11  23  41  64  94 133 178 224 278 336 402
#     4  10  21  37  62  94 127 165 211 276 337 389
#     4  11  24  42  70 102 135 173 225 282 338 399
#
# _framework density 21.332979999999999
#
# number of rings (size 3 to 8) (size 9 to 14) (size 15 to 20)
#    0.000    1.444    3.333    0.667    4.667    4.000 
#    0.000    3.333    0.000    0.000    0.000    0.000 
#    0.000    0.000    0.000    0.000    0.000    0.000 
#
# Total GULP energy -446515.322446 kJ/mol
# GULP energy per Si atom -12403.203401 kJ/mol
# Density = 2.128443 g / cm^3
# Si number density = 21.332980 Si / 1000 Ang^3
#
#
#
# Elastic Constant Matrix: (Units=GPa)
#
#
# Indices 1 2 3 4 5 6 
#
# 1 123.3366 46.7330 19.5158 0.0000 0.0000 -6.4635
# 2 46.7330 123.3366 19.5158 0.0000 0.0000 6.4635
# 3 19.5158 19.5158 71.2766 0.0000 0.0000 0.0000
# 4 0.0000 0.0000 0.0000 25.7593 0.0000 0.0000
# 5 0.0000 0.0000 0.0000 0.0000 25.7593 0.0000
# 6 -6.4635 6.4635 0.0000 0.0000 0.0000 30.4465
#
#
#
# Elastic Compliance Matrix: (Units=1/GPa)
#
#
# Indices 1 2 3 4 5 6 
#
# 1 0.009907 -0.003633 -0.001718 0.000000 0.000000 0.002874
# 2 -0.003633 0.009907 -0.001718 0.000000 0.000000 -0.002874
# 3 -0.001718 -0.001718 0.014971 0.000000 0.000000 0.000000
# 4 0.000000 0.000000 0.000000 0.038821 0.000000 0.000000
# 5 0.000000 0.000000 0.000000 0.000000 0.038821 0.000000
# 6 0.002874 -0.002874 0.000000 0.000000 0.000000 0.034065
#
#
# Mechanical properties :
#
#
# Convention : Reuss Voigt Hill
#
# Bulk Modulus (GPa) = 48.43227 54.38657 51.40942
# Shear Modulus (GPa) = 29.84897 31.87201 30.86049
#
# Velocity S-wave (km/s) = 3.74464 3.86946 3.80756
# Velocity P-wave (km/s) = 6.43807 6.74634 6.59400
#
# Compressibility (1/GPa) = 0.02064739
#
# Stress axis : x y z
#
# Youngs Moduli (GPa) = 100.94136 100.94136 66.79764
#
# Poissons Ratio (x) = 0.36667 0.11475
# Poissons Ratio (y) = 0.36667 0.11475
# Poissons Ratio (z) = 0.17341 0.17341
#
# Static dielectric constant tensor:
#      x y z
#    x 3.955890 0.000000 0.000000 
#    y 0.000000 3.955890 0.000000 
#    z 0.000000 0.000000 3.727780 
# 
# 
# High freq. dielectric constant tensor:
#      x y z
#    x 1.839230 0.000000 0.000000 
#    y 0.000000 1.839230 0.000000 
#    z 0.000000 0.000000 1.833970 
# 
# From -- ./inp_files/1037.got.cif
#   From: 2010.03.12/outbox.cif.g09.slc.cpg/sg87_1_cif.got.tgz:1037.got - 2010.04.08 20:16:13.
