data_PCOD8303216
_publ_section_title
;
Structure prediction by ZEFSAII (Michael W. Deem and Ramdas Pophale) SiO2 
 PCOD8303216
Probable space group: P 42/M
;
_chemical_formula_sum "Si O2"
_cell_formula_units_Z 48
_cell_length_a 8.554207
_cell_length_b 8.554207
_cell_length_c 32.420449
_cell_angle_alpha 90.000000
_cell_angle_beta 90.000000
_cell_angle_gamma 90.000000
_cell_volume 2372.348764
_symmetry_space_group_name_H-M "P 42/M"
_symmetry_group_IT_number 84
_symmetry_cell_setting 'tetragonal'
loop_
_space_group_symop_operation_xyz
x,y,z
-y,x,1/2+z
-x,-y,z
y,-x,1/2+z
-x,-y,-z
y,-x,1/2-z
x,y,-z
-y,x,1/2-z
loop_
_atom_site_type_symbol
_atom_site_label
_atom_site_fract_x
_atom_site_fract_y
_atom_site_fract_z
Si Si1 0.743331 0.174256 0.674747
Si Si2 0.881729 0.255170 0.882985
Si Si3 0.334409 0.916257 0.454344
Si Si4 0.057756 0.330386 0.332235
Si Si5 0.442413 0.676320 0.606415
Si Si6 0.732559 0.608423 0.745334
O O1 0.670430 0.313004 0.646132
O O2 0.649388 0.151724 0.717225
O O3 0.919007 0.225171 0.685822
O O4 0.737311 0.006973 0.653446
O O5 0.755645 0.120763 0.873483
O O6 0.793108 0.417831 0.884089
O O7 0.973320 0.222954 0.926014
O O8 0.260294 0.897016 0.500000
O O9 0.352930 0.743469 0.434008
O O10 0.500000 0.000000 0.457882
O O11 0.193156 0.343030 0.298084
O O12 0.000000 0.500000 0.346259
O O13 0.500000 0.500000 0.598684
O O14 0.704395 0.424396 0.746083
#
# Coordination Sequence:
#
# PCOD8303216 Si02
#       6
#     8   8   8   8   8   8
#     4  11  23  39  59  82 119 156 205 252 304 373
#     4  10  22  39  61  86 122 164 199 254 307 376
#     4   8  16  34  60  93 124 157 200 248 311 374
#     4  12  24  40  58  87 114 158 208 258 308 361
#     4  10  20  35  62  91 119 162 200 250 309 367
#     4  11  25  41  60  85 116 156 198 253 309 360
#
# _framework density 20.233115000000002
#
# number of rings (size 3 to 8) (size 9 to 14) (size 15 to 20)
#    0.000    1.667    1.667    4.000    4.667    1.667 
#    0.000    0.000    0.000    8.500    0.000    0.000 
#    0.000    0.000    0.000    0.000    0.000    0.000 
#
# Total GULP energy -595142.885696 kJ/mol
# GULP energy per Si atom -12398.810119 kJ/mol
# Density = 2.018706 g / cm^3
# Si number density = 20.233115 Si / 1000 Ang^3
#
#
#
# Elastic Constant Matrix: (Units=GPa)
#
#
# Indices 1 2 3 4 5 6 
#
# 1 98.5230 38.3619 50.7471 0.0000 0.0000 2.7351
# 2 38.3619 98.5230 50.7471 0.0000 0.0000 -2.7351
# 3 50.7471 50.7471 125.0089 0.0000 0.0000 0.0000
# 4 0.0000 0.0000 0.0000 20.9476 0.0000 0.0000
# 5 0.0000 0.0000 0.0000 0.0000 20.9476 0.0000
# 6 2.7351 -2.7351 0.0000 0.0000 0.0000 35.3337
#
#
#
# Elastic Compliance Matrix: (Units=1/GPa)
#
#
# Indices 1 2 3 4 5 6 
#
# 1 0.013595 -0.003144 -0.004243 0.000000 0.000000 -0.001296
# 2 -0.003144 0.013595 -0.004243 0.000000 0.000000 0.001296
# 3 -0.004243 -0.004243 0.011444 0.000000 0.000000 0.000000
# 4 0.000000 0.000000 0.000000 0.047738 0.000000 0.000000
# 5 0.000000 0.000000 0.000000 0.000000 0.047738 0.000000
# 6 -0.001296 0.001296 0.000000 0.000000 0.000000 0.028502
#
#
# Mechanical properties :
#
#
# Convention : Reuss Voigt Hill
#
# Bulk Modulus (GPa) = 65.03734 66.86301 65.95018
# Shear Modulus (GPa) = 26.17826 27.59234 26.88530
#
# Velocity S-wave (km/s) = 3.60089 3.69687 3.64919
# Velocity P-wave (km/s) = 7.03579 7.16523 7.10080
#
# Compressibility (1/GPa) = 0.01537578
#
# Stress axis : x y z
#
# Youngs Moduli (GPa) = 73.55380 73.55380 87.38218
#
# Poissons Ratio (x) = 0.23128 0.37073
# Poissons Ratio (y) = 0.23128 0.37073
# Poissons Ratio (z) = 0.31206 0.31206
#
# Static dielectric constant tensor:
#      x y z
#    x 3.769960 0.000000 0.000000 
#    y 0.000000 3.769960 0.000000 
#    z 0.000000 0.000000 3.896370 
# 
# 
# High freq. dielectric constant tensor:
#      x y z
#    x 1.787940 0.000000 0.000000 
#    y 0.000000 1.787940 0.000000 
#    z 0.000000 0.000000 1.778460 
# 
# From -- ./inp_files/5731.got.cif
#   From: 2010.03.12/outbox.cif.g09.slc.cpg/sg84_3_cif.got.tgz:5731.got - 2010.04.08 20:07:29.
