data_PCOD8303498
_publ_section_title
;
Structure prediction by ZEFSAII (Michael W. Deem and Ramdas Pophale) SiO2 
 PCOD8303498
Probable space group: P 42/N
;
_chemical_formula_sum "Si O2"
_cell_formula_units_Z 42
_cell_length_a 13.874741
_cell_length_b 13.874741
_cell_length_c 8.980188
_cell_angle_alpha 90.000000
_cell_angle_beta 90.000000
_cell_angle_gamma 90.000000
_cell_volume 1728.761963
_symmetry_space_group_name_H-M "P 42/N"
_symmetry_group_IT_number 86
_space_group.IT_coordinate_system_code '2'
_symmetry_cell_setting 'tetragonal'
loop_
_space_group_symop_operation_xyz
x,y,z
-y,1/2+x,1/2+z
1/2-x,1/2-y,z
1/2+y,-x,1/2+z
-x,-y,-z
y,1/2-x,1/2-z
1/2+x,1/2+y,-z
1/2-y,x,1/2-z
loop_
_atom_site_type_symbol
_atom_site_label
_atom_site_fract_x
_atom_site_fract_y
_atom_site_fract_z
Si Si1 0.250000 0.250000 0.250000
Si Si2 0.436096 0.471503 0.327780
Si Si3 0.988189 0.903509 0.097087
Si Si4 0.918223 0.187204 0.396747
Si Si5 0.236408 0.913572 0.430182
Si Si6 0.410625 0.182646 0.433329
O O1 0.339605 0.263150 0.364577
O O2 0.484554 0.571700 0.267662
O O3 0.518159 0.411609 0.415678
O O4 0.338322 0.496959 0.416874
O O5 0.404073 0.406844 0.187634
O O6 0.873575 0.874741 0.082456
O O7 0.058492 0.817906 0.047999
O O8 0.000000 0.000000 0.000000
O O9 0.822977 0.176798 0.498710
O O10 0.887859 0.213113 0.227320
O O11 0.982808 0.274956 0.459091
#
# Coordination Sequence:
#
# PCOD8303498 Si02
#       6
#     2   8   8   8   8   8
#     4  12  16  32  68 104 142 172 248 300 358 452
#     4  10  20  42  67  97 140 190 236 301 371 442
#     4  10  20  42  66  91 142 188 236 300 373 426
#     4  11  22  41  71 104 146 186 254 302 371 451
#     4  11  23  43  69 107 135 199 246 302 372 452
#     4  10  19  34  66 102 133 182 238 301 358 428
#
# _framework density 24.294841999999999
#
# number of rings (size 3 to 8) (size 9 to 14) (size 15 to 20)
#    0.000    1.524    5.714    1.714    0.000    0.000 
#    3.429   14.286    0.000    0.000    0.000    0.000 
#    0.000    0.000    0.000    0.000    0.000    0.000 
#
# Total GULP energy -520323.351595 kJ/mol
# GULP energy per Si atom -12388.651228 kJ/mol
# Density = 2.423955 g / cm^3
# Si number density = 24.294842 Si / 1000 Ang^3
#
#
#
# Elastic Constant Matrix: (Units=GPa)
#
#
# Indices 1 2 3 4 5 6 
#
# 1 94.2957 23.9834 23.8217 0.0000 0.0000 7.4419
# 2 23.9834 94.2957 23.8217 0.0000 0.0000 -7.4419
# 3 23.8217 23.8217 43.2814 0.0000 0.0000 0.0000
# 4 0.0000 0.0000 0.0000 36.7134 0.0000 0.0000
# 5 0.0000 0.0000 0.0000 0.0000 36.7134 0.0000
# 6 7.4419 -7.4419 0.0000 0.0000 0.0000 47.9862
#
#
#
# Elastic Compliance Matrix: (Units=1/GPa)
#
#
# Indices 1 2 3 4 5 6 
#
# 1 0.012784 -0.001921 -0.005979 0.000000 0.000000 -0.002281
# 2 -0.001921 0.012784 -0.005979 0.000000 0.000000 0.002281
# 3 -0.005979 -0.005979 0.029686 0.000000 0.000000 0.000000
# 4 0.000000 0.000000 0.000000 0.027238 0.000000 0.000000
# 5 0.000000 0.000000 0.000000 0.000000 0.027238 0.000000
# 6 -0.002281 0.002281 0.000000 0.000000 0.000000 0.021547
#
#
# Mechanical properties :
#
#
# Convention : Reuss Voigt Hill
#
# Bulk Modulus (GPa) = 36.36836 41.68071 39.02454
# Shear Modulus (GPa) = 29.72659 34.96565 32.34612
#
# Velocity S-wave (km/s) = 3.50176 3.79782 3.65279
# Velocity P-wave (km/s) = 5.59927 6.03529 5.82136
#
# Compressibility (1/GPa) = 0.02749643
#
# Stress axis : x y z
#
# Youngs Moduli (GPa) = 78.22315 78.22315 33.68591
#
# Poissons Ratio (x) = 0.15027 0.20140
# Poissons Ratio (y) = 0.15027 0.20140
# Poissons Ratio (z) = 0.46768 0.46768
#
# Static dielectric constant tensor:
#      x y z
#    x 4.599940 0.000000 0.000000 
#    y 0.000000 4.599940 0.000000 
#    z 0.000000 0.000000 4.805970 
# 
# 
# High freq. dielectric constant tensor:
#      x y z
#    x 1.965990 0.000000 0.000000 
#    y 0.000000 1.965990 0.000000 
#    z 0.000000 0.000000 1.932000 
# 
# From -- ./inp_files/1178.got.cif
#   From: 2010.03.12/outbox.cif.g09.slc.cpg/sg86_1_cif.got.tgz:1178.got - 2010.04.08 20:12:58.
