data_PCOD8303398
_publ_section_title
;
Structure prediction by ZEFSAII (Michael W. Deem and Ramdas Pophale) SiO2 
 PCOD8303398
Probable space group: P 42/M
;
_chemical_formula_sum "Si O2"
_cell_formula_units_Z 18
_cell_length_a 5.138672
_cell_length_b 5.138672
_cell_length_c 26.253356
_cell_angle_alpha 90.000000
_cell_angle_beta 90.000000
_cell_angle_gamma 90.000000
_cell_volume 693.244804
_symmetry_space_group_name_H-M "P 42/M"
_symmetry_group_IT_number 84
_symmetry_cell_setting 'tetragonal'
loop_
_space_group_symop_operation_xyz
x,y,z
-y,x,1/2+z
-x,-y,z
y,-x,1/2+z
-x,-y,-z
y,-x,1/2-z
x,y,-z
-y,x,1/2-z
loop_
_atom_site_type_symbol
_atom_site_label
_atom_site_fract_x
_atom_site_fract_y
_atom_site_fract_z
Si Si1 0.326163 0.248340 0.334260
Si Si2 0.000000 0.500000 0.583090
Si Si3 0.752899 0.180498 0.500000
Si Si4 0.000000 0.000000 0.750000
O O1 0.500000 0.500000 0.324320
O O2 0.153521 0.208007 0.284056
O O3 0.135833 0.282280 0.382226
O O4 0.500000 0.000000 0.346832
O O5 0.228508 0.633434 0.549482
O O6 0.500000 0.000000 0.500000
O O7 0.000000 0.000000 0.500000
#
# Coordination Sequence:
#
# PCOD8303398 Si02
#       4
#     8   4   4   2
#     4  12  31  52  88 122 177 230 295 360 438 519
#     4  11  30  54  82 132 172 226 294 361 436 530
#     4  11  30  53  91 128 174 226 288 362 442 524
#     4  12  32  52  76 134 164 236 296 368 436 518
#
# _framework density 25.964856000000001
#
# number of rings (size 3 to 8) (size 9 to 14) (size 15 to 20)
#    0.000    0.444    0.000    2.667   24.889    1.778 
#    0.000    3.333    0.000    0.000    0.000    0.000 
#    0.000    0.000    0.000    0.000    0.000    0.000 
#
# Total GULP energy -223355.615567 kJ/mol
# GULP energy per Si atom -12408.645309 kJ/mol
# Density = 2.590576 g / cm^3
# Si number density = 25.964856 Si / 1000 Ang^3
#
#
#
# Elastic Constant Matrix: (Units=GPa)
#
#
# Indices 1 2 3 4 5 6 
#
# 1 183.5654 92.9053 93.1053 0.0000 0.0000 4.2161
# 2 92.9053 183.5654 93.1053 0.0000 0.0000 -4.2161
# 3 93.1053 93.1053 215.3033 0.0000 0.0000 0.0000
# 4 0.0000 0.0000 0.0000 19.0750 0.0000 0.0000
# 5 0.0000 0.0000 0.0000 0.0000 19.0750 0.0000
# 6 4.2161 -4.2161 0.0000 0.0000 0.0000 83.6152
#
#
#
# Elastic Compliance Matrix: (Units=1/GPa)
#
#
# Indices 1 2 3 4 5 6 
#
# 1 0.008093 -0.002989 -0.002207 0.000000 0.000000 -0.000559
# 2 -0.002989 0.008093 -0.002207 0.000000 0.000000 0.000559
# 3 -0.002207 -0.002207 0.006553 0.000000 0.000000 0.000000
# 4 0.000000 0.000000 0.000000 0.052425 0.000000 0.000000
# 5 0.000000 0.000000 0.000000 0.000000 0.052425 0.000000
# 6 -0.000559 0.000559 0.000000 0.000000 0.000000 0.012016
#
#
# Mechanical properties :
#
#
# Convention : Reuss Voigt Hill
#
# Bulk Modulus (GPa) = 126.06332 126.74065 126.40198
# Shear Modulus (GPa) = 31.83600 44.57424 38.20512
#
# Velocity S-wave (km/s) = 3.50540 4.14782 3.84007
# Velocity P-wave (km/s) = 8.06478 8.47688 8.27340
#
# Compressibility (1/GPa) = 0.00793252
#
# Stress axis : x y z
#
# Youngs Moduli (GPa) = 123.56637 123.56637 152.59427
#
# Poissons Ratio (x) = 0.36939 0.33676
# Poissons Ratio (y) = 0.36939 0.33676
# Poissons Ratio (z) = 0.27270 0.27270
#
# Static dielectric constant tensor:
#      x y z
#    x 5.315110 0.000000 0.000000 
#    y 0.000000 5.315110 0.000000 
#    z 0.000000 0.000000 5.086900 
# 
# 
# High freq. dielectric constant tensor:
#      x y z
#    x 2.053840 0.000000 0.000000 
#    y 0.000000 2.053840 0.000000 
#    z 0.000000 0.000000 2.057290 
# 
# From -- ./inp_files/4620.got.cif
#   From: 2010.03.12/outbox.cif.g09.slc.cpg/sg84_3_cif.got.tgz:4620.got - 2010.04.08 20:07:29.
