data_PCOD8303895
_publ_section_title
;
Structure prediction by ZEFSAII (Michael W. Deem and Ramdas Pophale) SiO2 
 PCOD8303895
Probable space group: I 4/M
;
_chemical_formula_sum "Si O2"
_cell_formula_units_Z 80
_cell_length_a 22.775125
_cell_length_b 22.775125
_cell_length_c 9.783451
_cell_angle_alpha 90.000000
_cell_angle_beta 90.000000
_cell_angle_gamma 90.000000
_cell_volume 5074.737853
_symmetry_space_group_name_H-M "I 4/M"
_symmetry_group_IT_number 87
_symmetry_cell_setting 'tetragonal'
loop_
_space_group_symop_operation_xyz
x,y,z
-y,x,z
-x,-y,z
y,-x,z
-x,-y,-z
y,-x,-z
x,y,-z
-y,x,-z
1/2+x,1/2+y,1/2+z
1/2-y,1/2+x,1/2+z
1/2-x,1/2-y,1/2+z
1/2+y,1/2-x,1/2+z
1/2-x,1/2-y,1/2-z
1/2+y,1/2-x,1/2-z
1/2+x,1/2+y,1/2-z
1/2-y,1/2+x,1/2-z
loop_
_atom_site_type_symbol
_atom_site_label
_atom_site_fract_x
_atom_site_fract_y
_atom_site_fract_z
Si Si1 0.998925 0.601593 0.000000
Si Si2 0.173267 0.500804 0.235960
Si Si3 0.617915 0.208124 0.654455
Si Si4 0.785699 0.204167 0.159657
Si Si5 0.776443 0.378780 0.840927
Si Si6 0.084786 0.506054 0.000000
O O1 0.981376 0.641850 0.125385
O O2 0.065955 0.575684 0.000000
O O3 0.966913 0.539961 0.000000
O O4 0.208007 0.439118 0.248818
O O5 0.216725 0.552092 0.186612
O O6 0.121765 0.491490 0.131458
O O7 0.595904 0.196322 0.500000
O O8 0.647156 0.272930 0.664603
O O9 0.664129 0.156995 0.695865
O O10 0.750000 0.250000 0.250000
O O11 0.775909 0.142376 0.238363
O O12 0.764850 0.201161 0.000000
O O13 0.759625 0.367602 0.000000
#
# Coordination Sequence:
#
# PCOD8303895 Si02
#       6
#     8  16  16  16  16   8
#     4  11  22  32  48  60  92 134 178 203 244 284
#     4  12  21  33  49  68  96 130 166 214 250 285
#     4   9  18  34  50  67  94 125 162 205 249 295
#     4   9  18  33  53  72  92 122 159 205 256 305
#     4  10  20  35  49  69  98 126 164 211 252 294
#     4  11  22  34  42  66  92 132 174 213 238 276
#
# _framework density 15.764360999999999
#
# number of rings (size 3 to 8) (size 9 to 14) (size 15 to 20)
#    0.000    1.800    2.000    5.400    1.400    1.600 
#    9.000    0.000    0.000    0.000    0.000    0.000 
#    0.000    0.800    0.000    6.200    0.000    1.600 
#
# Total GULP energy -495657.336449 kJ/mol
# GULP energy per Si atom -12391.433411 kJ/mol
# Density = 1.572848 g / cm^3
# Si number density = 15.764361 Si / 1000 Ang^3
#
#
#
# Elastic Constant Matrix: (Units=GPa)
#
#
# Indices 1 2 3 4 5 6 
#
# 1 58.4550 33.9876 29.8752 0.0000 0.0000 1.3883
# 2 33.9876 58.4550 29.8752 0.0000 0.0000 -1.3883
# 3 29.8752 29.8752 112.8855 0.0000 0.0000 0.0000
# 4 0.0000 0.0000 0.0000 -27.2038 0.0000 0.0000
# 5 0.0000 0.0000 0.0000 0.0000 -27.2038 0.0000
# 6 1.3883 -1.3883 0.0000 0.0000 0.0000 24.6068
#
#
#
# Elastic Compliance Matrix: (Units=1/GPa)
#
#
# Indices 1 2 3 4 5 6 
#
# 1 0.027092 -0.014042 -0.003454 0.000000 0.000000 -0.002321
# 2 -0.014042 0.027092 -0.003454 0.000000 0.000000 0.002321
# 3 -0.003454 -0.003454 0.010687 0.000000 0.000000 0.000000
# 4 0.000000 0.000000 0.000000 -0.036760 0.000000 0.000000
# 5 0.000000 0.000000 0.000000 0.000000 -0.036760 0.000000
# 6 -0.002321 0.002321 0.000000 0.000000 0.000000 0.040901
#
#
# Mechanical properties :
#
#
# Convention : Reuss Voigt Hill
#
# Bulk Modulus (GPa) = 43.53204 46.36350 44.94777
# Shear Modulus (GPa) = 61.11846 3.11033 32.11440
#
# Velocity S-wave (km/s) = 6.23331 1.40616 4.51838
# Velocity P-wave (km/s) = 8.91514 5.66662 7.46962
#
# Compressibility (1/GPa) = 0.02297158
#
# Stress axis : x y z
#
# Youngs Moduli (GPa) = 36.91137 36.91137 93.57564
#
# Poissons Ratio (x) = 0.51831 0.32318
# Poissons Ratio (y) = 0.51831 0.32318
# Poissons Ratio (z) = 0.12748 0.12748
#
# Static dielectric constant tensor:
#      x y z
#    x 3.051970 0.000000 0.000000 
#    y 0.000000 3.051970 0.000000 
#    z 0.000000 0.000000 3.298710 
# 
# 
# High freq. dielectric constant tensor:
#      x y z
#    x 1.578150 0.000000 0.000000 
#    y 0.000000 1.578150 0.000000 
#    z 0.000000 0.000000 1.623020 
# 
# From -- ./inp_files/1265.got.cif
#   From: 2010.03.12/outbox.cif.g09.slc.cpg/sg87_1_cif.got.tgz:1265.got - 2010.04.08 20:16:13.
