data_PCOD8303338
_publ_section_title
;
Structure prediction by ZEFSAII (Michael W. Deem and Ramdas Pophale) SiO2 
 PCOD8303338
Probable space group: P 42/M
;
_chemical_formula_sum "Si O2"
_cell_formula_units_Z 18
_cell_length_a 5.169264
_cell_length_b 5.169264
_cell_length_c 26.280464
_cell_angle_alpha 90.000000
_cell_angle_beta 90.000000
_cell_angle_gamma 90.000000
_cell_volume 702.247908
_symmetry_space_group_name_H-M "P 42/M"
_symmetry_group_IT_number 84
_symmetry_cell_setting 'tetragonal'
loop_
_space_group_symop_operation_xyz
x,y,z
-y,x,1/2+z
-x,-y,z
y,-x,1/2+z
-x,-y,-z
y,-x,1/2-z
x,y,-z
-y,x,1/2-z
loop_
_atom_site_type_symbol
_atom_site_label
_atom_site_fract_x
_atom_site_fract_y
_atom_site_fract_z
Si Si1 0.500000 0.500000 0.250000
Si Si2 0.260827 0.665506 0.389976
Si Si3 0.500000 0.000000 0.685077
Si Si4 0.170800 0.750850 0.500000
O O1 0.754567 0.413443 0.218722
O O2 0.500000 0.500000 0.369063
O O3 0.259038 0.914289 0.352244
O O4 0.334027 0.753367 0.447771
O O5 0.000000 0.500000 0.386710
O O6 0.000000 0.500000 0.500000
O O7 0.000000 0.000000 0.500000
#
# Coordination Sequence:
#
# PCOD8303338 Si02
#       4
#     2   8   4   4
#     4  12  32  52  80 114 152 204 272 348 392 466
#     4  11  27  50  81 118 159 207 255 318 390 478
#     4  12  30  55  82 114 156 207 272 332 408 464
#     4  10  25  45  75 117 162 200 252 309 383 471
#
# _framework density 25.631972000000001
#
# number of rings (size 3 to 8) (size 9 to 14) (size 15 to 20)
#    0.000    0.889    2.222    0.667   15.556    5.333 
#    0.000    0.000    0.000    0.000    0.000    0.000 
#    0.000    0.000    0.000    0.000    0.000    0.000 
#
# Total GULP energy -223025.160241 kJ/mol
# GULP energy per Si atom -12390.286680 kJ/mol
# Density = 2.557363 g / cm^3
# Si number density = 25.631972 Si / 1000 Ang^3
#
#
#
# Elastic Constant Matrix: (Units=GPa)
#
#
# Indices 1 2 3 4 5 6 
#
# 1 159.4798 54.1150 66.5377 0.0000 0.0000 4.2922
# 2 54.1150 159.4798 66.5377 0.0000 0.0000 -4.2922
# 3 66.5377 66.5377 203.5948 0.0000 0.0000 0.0000
# 4 0.0000 0.0000 0.0000 193.6102 0.0000 0.0000
# 5 0.0000 0.0000 0.0000 0.0000 193.6102 0.0000
# 6 4.2922 -4.2922 0.0000 0.0000 0.0000 34.5486
#
#
#
# Elastic Compliance Matrix: (Units=1/GPa)
#
#
# Indices 1 2 3 4 5 6 
#
# 1 0.007733 -0.001855 -0.001921 0.000000 0.000000 -0.001191
# 2 -0.001855 0.007733 -0.001921 0.000000 0.000000 0.001191
# 3 -0.001921 -0.001921 0.006168 0.000000 0.000000 0.000000
# 4 0.000000 0.000000 0.000000 0.005165 0.000000 0.000000
# 5 0.000000 0.000000 0.000000 0.000000 0.005165 0.000000
# 6 -0.001191 0.001191 0.000000 0.000000 0.000000 0.029241
#
#
# Mechanical properties :
#
#
# Convention : Reuss Voigt Hill
#
# Bulk Modulus (GPa) = 97.65645 99.65947 98.65796
# Shear Modulus (GPa) = 65.77870 106.71139 86.24505
#
# Velocity S-wave (km/s) = 5.07134 6.45930 5.80694
# Velocity P-wave (km/s) = 8.51313 9.72601 9.13972
#
# Compressibility (1/GPa) = 0.01023998
#
# Stress axis : x y z
#
# Youngs Moduli (GPa) = 129.31047 129.31047 162.13993
#
# Poissons Ratio (x) = 0.23981 0.31151
# Poissons Ratio (y) = 0.23981 0.31151
# Poissons Ratio (z) = 0.24844 0.24844
#
# Static dielectric constant tensor:
#      x y z
#    x 4.543670 0.000000 0.000000 
#    y 0.000000 4.543670 0.000000 
#    z 0.000000 0.000000 5.656010 
# 
# 
# High freq. dielectric constant tensor:
#      x y z
#    x 2.015020 0.000000 0.000000 
#    y 0.000000 2.015020 0.000000 
#    z 0.000000 0.000000 2.057600 
# 
# From -- ./inp_files/5142.got.cif
#   From: 2010.03.12/outbox.cif.g09.slc.cpg/sg84_3_cif.got.tgz:5142.got - 2010.04.08 20:07:29.
