data_PCOD8303121
_publ_section_title
;
Structure prediction by ZEFSAII (Michael W. Deem and Ramdas Pophale) SiO2 
 PCOD8303121
Probable space group: P 42/M
;
_chemical_formula_sum "Si O2"
_cell_formula_units_Z 38
_cell_length_a 12.447412
_cell_length_b 12.447412
_cell_length_c 13.640197
_cell_angle_alpha 90.000000
_cell_angle_beta 90.000000
_cell_angle_gamma 90.000000
_cell_volume 2113.385736
_symmetry_space_group_name_H-M "P 42/M"
_symmetry_group_IT_number 84
_symmetry_cell_setting 'tetragonal'
loop_
_space_group_symop_operation_xyz
x,y,z
-y,x,1/2+z
-x,-y,z
y,-x,1/2+z
-x,-y,-z
y,-x,1/2-z
x,y,-z
-y,x,1/2-z
loop_
_atom_site_type_symbol
_atom_site_label
_atom_site_fract_x
_atom_site_fract_y
_atom_site_fract_z
Si Si1 0.119308 0.105236 0.707081
Si Si2 0.697815 0.753977 0.207078
Si Si3 0.500000 0.500000 0.250000
Si Si4 0.056140 0.205772 0.500000
Si Si5 0.462592 0.725830 0.198256
Si Si6 0.844879 0.561092 0.500000
Si Si7 0.319101 0.153431 0.000000
O O1 0.230074 0.159220 0.738097
O O2 0.093991 0.139735 0.595345
O O3 0.023182 0.137480 0.782214
O O4 0.574206 0.772092 0.243657
O O5 0.744406 0.634818 0.225907
O O6 0.696262 0.768784 0.091329
O O7 0.478950 0.599609 0.178024
O O8 0.083073 0.332670 0.500000
O O9 0.927998 0.218444 0.500000
O O10 0.427994 0.774023 0.095928
O O11 0.900397 0.441107 0.500000
#
# Coordination Sequence:
#
# PCOD8303121 Si02
#       7
#     8   8   2   4   8   4   4
#     4  11  24  39  59  84 116 151 191 238 289 336
#     4  10  19  38  55  87 116 154 186 238 285 342
#     4   8  16  30  48  80 120 154 184 230 280 344
#     4  12  21  38  60  87 111 150 198 245 280 342
#     4   9  18  32  56  81 120 149 188 231 289 340
#     4  10  19  31  55  88 111 146 193 241 286 335
#     4  10  21  35  60  84 117 149 196 237 289 341
#
# _framework density 17.980627999999999
#
# number of rings (size 3 to 8) (size 9 to 14) (size 15 to 20)
#    0.000    1.895    4.211    0.316    0.000    2.947 
#    0.000    8.421    0.000    0.000    0.000    2.947 
#    0.000    0.000    0.000    0.000    0.000    0.000 
#
# Total GULP energy -470780.505657 kJ/mol
# GULP energy per Si atom -12388.960675 kJ/mol
# Density = 1.793970 g / cm^3
# Si number density = 17.980628 Si / 1000 Ang^3
#
#
#
# Elastic Constant Matrix: (Units=GPa)
#
#
# Indices 1 2 3 4 5 6 
#
# 1 71.2107 32.7756 30.1097 0.0000 0.0000 4.6667
# 2 32.7756 71.2107 30.1097 0.0000 0.0000 -4.6667
# 3 30.1097 30.1097 100.0963 0.0000 0.0000 0.0000
# 4 0.0000 0.0000 0.0000 24.6611 0.0000 0.0000
# 5 0.0000 0.0000 0.0000 0.0000 24.6611 0.0000
# 6 4.6667 -4.6667 0.0000 0.0000 0.0000 25.8080
#
#
#
# Elastic Compliance Matrix: (Units=1/GPa)
#
#
# Indices 1 2 3 4 5 6 
#
# 1 0.019429 -0.007784 -0.003503 0.000000 0.000000 -0.004921
# 2 -0.007784 0.019429 -0.003503 0.000000 0.000000 0.004921
# 3 -0.003503 -0.003503 0.012098 0.000000 0.000000 0.000000
# 4 0.000000 0.000000 0.000000 0.040550 0.000000 0.000000
# 5 0.000000 0.000000 0.000000 0.000000 0.040550 0.000000
# 6 -0.004921 0.004921 0.000000 0.000000 0.000000 0.040527
#
#
# Mechanical properties :
#
#
# Convention : Reuss Voigt Hill
#
# Bulk Modulus (GPa) = 46.78050 47.61195 47.19623
# Shear Modulus (GPa) = 23.89061 24.99425 24.44243
#
# Velocity S-wave (km/s) = 3.64907 3.73240 3.69097
# Velocity P-wave (km/s) = 6.62027 6.71651 6.66856
#
# Compressibility (1/GPa) = 0.02137643
#
# Stress axis : x y z
#
# Youngs Moduli (GPa) = 51.46944 51.46944 82.65958
#
# Poissons Ratio (x) = 0.40063 0.28955
# Poissons Ratio (y) = 0.40063 0.28955
# Poissons Ratio (z) = 0.18030 0.18030
#
# Static dielectric constant tensor:
#      x y z
#    x 3.526260 0.000000 0.000000 
#    y 0.000000 3.526260 0.000000 
#    z 0.000000 0.000000 3.063780 
# 
# 
# High freq. dielectric constant tensor:
#      x y z
#    x 1.702340 0.000000 0.000000 
#    y 0.000000 1.702340 0.000000 
#    z 0.000000 0.000000 1.681270 
# 
# From -- ./inp_files/2983.got.cif
#   From: 2010.03.12/outbox.cif.g09.slc.cpg/sg84_2_cif.got.tgz:2983.got - 2010.04.08 20:07:29.
