data_PCOD8303433
_publ_section_title
;
Structure prediction by ZEFSAII (Michael W. Deem and Ramdas Pophale) SiO2 
 PCOD8303433
Probable space group: P 4/N
;
_chemical_formula_sum "Si O2"
_cell_formula_units_Z 40
_cell_length_a 18.754773
_cell_length_b 18.754773
_cell_length_c 5.190434
_cell_angle_alpha 90.000000
_cell_angle_beta 90.000000
_cell_angle_gamma 90.000000
_cell_volume 1825.691094
_symmetry_space_group_name_H-M "P 4/N"
_symmetry_group_IT_number 85
_symmetry_cell_setting 'tetragonal'
loop_
_space_group_symop_operation_xyz
x,y,z
1/2-y,x,z
1/2-x,1/2-y,z
y,1/2-x,z
-x,-y,-z
1/2+y,-x,-z
1/2+x,1/2+y,-z
-y,1/2+x,-z
loop_
_atom_site_type_symbol
_atom_site_label
_atom_site_fract_x
_atom_site_fract_y
_atom_site_fract_z
Si Si1 0.513242 0.152640 0.247892
Si Si2 0.877149 0.573371 0.769958
Si Si3 0.761676 0.014842 0.251754
Si Si4 0.738239 0.867588 0.466595
Si Si5 0.482139 0.608614 0.272274
O O1 0.427044 0.144219 0.254535
O O2 0.538624 0.190218 0.508559
O O3 0.547354 0.074872 0.225048
O O4 0.537895 0.199213 0.007018
O O5 0.792126 0.593227 0.730492
O O6 0.903029 0.519355 0.547114
O O7 0.893415 0.540819 0.046855
O O8 0.741787 0.929966 0.254515
O O9 0.686206 0.056394 0.264163
O O10 0.673264 0.812016 0.437090
#
# Coordination Sequence:
#
# PCOD8303433 Si02
#       5
#     8   8   8   8   8
#     4  12  23  42  67  91 128 167 216 276 325 373
#     4  11  22  40  63  95 125 168 225 259 320 380
#     4  11  24  41  63  95 127 169 220 260 324 394
#     4  10  21  40  61  91 136 180 213 254 306 386
#     4  11  24  41  65  94 127 166 215 276 325 375
#
# _framework density 21.909513
#
# number of rings (size 3 to 8) (size 9 to 14) (size 15 to 20)
#    0.000    1.000    2.000    6.000    2.800    0.000 
#    0.000    0.000    0.000    3.600    0.000    0.000 
#    0.000    0.000    0.000    0.000    0.000    0.000 
#
# Total GULP energy -495585.943039 kJ/mol
# GULP energy per Si atom -12389.648576 kJ/mol
# Density = 2.185965 g / cm^3
# Si number density = 21.909513 Si / 1000 Ang^3
#
#
#
# Elastic Constant Matrix: (Units=GPa)
#
#
# Indices 1 2 3 4 5 6 
#
# 1 50.3342 12.0881 15.8499 0.0000 0.0000 -0.6570
# 2 12.0881 50.3342 15.8499 0.0000 0.0000 0.6570
# 3 15.8499 15.8499 106.3646 0.0000 0.0000 0.0000
# 4 0.0000 0.0000 0.0000 26.2677 0.0000 0.0000
# 5 0.0000 0.0000 0.0000 0.0000 26.2677 0.0000
# 6 -0.6570 0.6570 0.0000 0.0000 0.0000 29.4542
#
#
#
# Elastic Compliance Matrix: (Units=1/GPa)
#
#
# Indices 1 2 3 4 5 6 
#
# 1 0.021749 -0.004418 -0.002583 0.000000 0.000000 0.000584
# 2 -0.004418 0.021749 -0.002583 0.000000 0.000000 -0.000584
# 3 -0.002583 -0.002583 0.010171 0.000000 0.000000 0.000000
# 4 0.000000 0.000000 0.000000 0.038070 0.000000 0.000000
# 5 0.000000 0.000000 0.000000 0.000000 0.038070 0.000000
# 6 0.000584 -0.000584 0.000000 0.000000 0.000000 0.033977
#
#
# Mechanical properties :
#
#
# Convention : Reuss Voigt Hill
#
# Bulk Modulus (GPa) = 28.98245 32.73432 30.85839
# Shear Modulus (GPa) = 25.71324 27.28092 26.49708
#
# Velocity S-wave (km/s) = 3.42952 3.53252 3.48140
# Velocity P-wave (km/s) = 5.37951 5.62240 5.50229
#
# Compressibility (1/GPa) = 0.03450364
#
# Stress axis : x y z
#
# Youngs Moduli (GPa) = 45.97918 45.97918 98.31560
#
# Poissons Ratio (x) = 0.20311 0.25391
# Poissons Ratio (y) = 0.20311 0.25391
# Poissons Ratio (z) = 0.11875 0.11875
#
# Static dielectric constant tensor:
#      x y z
#    x 4.081670 0.000000 0.000000 
#    y 0.000000 4.081670 0.000000 
#    z 0.000000 0.000000 3.860930 
# 
# 
# High freq. dielectric constant tensor:
#      x y z
#    x 1.853220 0.000000 0.000000 
#    y 0.000000 1.853220 0.000000 
#    z 0.000000 0.000000 1.868260 
# 
# From -- ./inp_files/338.got.cif
#   From: 2010.03.12/outbox.cif.g09.slc.cpg/sg85_cif.got.tgz:338.got - 2010.04.08 20:10:46.
