data_PCOD8303011
_publ_section_title
;
Structure prediction by ZEFSAII (Michael W. Deem and Ramdas Pophale) SiO2 
 PCOD8303011
Probable space group: P 4/M
;
_chemical_formula_sum "Si O2"
_cell_formula_units_Z 40
_cell_length_a 8.078644
_cell_length_b 8.078644
_cell_length_c 27.542939
_cell_angle_alpha 90.000000
_cell_angle_beta 90.000000
_cell_angle_gamma 90.000000
_cell_volume 1797.575836
_symmetry_space_group_name_H-M "P 4/M"
_symmetry_group_IT_number 83
_symmetry_cell_setting 'tetragonal'
loop_
_space_group_symop_operation_xyz
x,y,z
-y,x,z
-x,-y,z
y,-x,z
-x,-y,-z
y,-x,-z
x,y,-z
-y,x,-z
loop_
_atom_site_type_symbol
_atom_site_label
_atom_site_fract_x
_atom_site_fract_y
_atom_site_fract_z
Si Si1 0.392444 0.247108 0.500000
Si Si2 0.413500 0.240474 0.310967
Si Si3 0.500000 0.000000 0.767200
Si Si4 0.257662 0.908184 0.948871
Si Si5 0.745276 0.898577 0.404003
Si Si6 0.087356 0.259848 0.844386
O O1 0.586016 0.286094 0.500000
O O2 0.350325 0.136497 0.453631
O O3 0.604528 0.292298 0.308019
O O4 0.382300 0.115308 0.266246
O O5 0.380031 0.144901 0.360833
O O6 0.610345 0.120372 0.801377
O O7 0.349962 0.878650 0.897188
O O8 0.205980 0.097960 0.949128
O O9 0.358371 0.872548 0.000000
O O10 0.909036 0.787898 0.400762
O O11 0.206309 0.103767 0.839324
#
# Coordination Sequence:
#
# PCOD8303011 Si02
#       6
#     4   8   4   8   8   8
#     4  11  24  41  64  96 132 167 200 234 278 334
#     4  11  24  41  60  82 111 150 194 237 288 348
#     4  12  22  36  55  79 108 142 184 238 290 336
#     4   7  10  20  41  68  98 133 172 215 267 329
#     4  11  24  42  65  94 124 155 195 242 288 334
#     4   9  18  32  51  76 105 139 180 226 279 338
#
# _framework density 22.252189000000001
#
# number of rings (size 3 to 8) (size 9 to 14) (size 15 to 20)
#    0.000    2.100    0.000    6.000    0.000    5.600 
#    0.000    2.500    0.000    0.000    0.000    0.000 
#    0.000    0.000    0.000   24.400    0.000    1.600 
#
# Total GULP energy -495643.401548 kJ/mol
# GULP energy per Si atom -12391.085039 kJ/mol
# Density = 2.220154 g / cm^3
# Si number density = 22.252189 Si / 1000 Ang^3
#
#
#
# Elastic Constant Matrix: (Units=GPa)
#
#
# Indices 1 2 3 4 5 6 
#
# 1 55.6168 4.9650 37.1839 0.0000 0.0000 5.2853
# 2 4.9650 55.6168 37.1839 0.0000 0.0000 -5.2853
# 3 37.1839 37.1839 224.4751 0.0000 0.0000 0.0000
# 4 0.0000 0.0000 0.0000 1.5729 0.0000 0.0000
# 5 0.0000 0.0000 0.0000 0.0000 1.5729 0.0000
# 6 5.2853 -5.2853 0.0000 0.0000 0.0000 26.6098
#
#
#
# Elastic Compliance Matrix: (Units=1/GPa)
#
#
# Indices 1 2 3 4 5 6 
#
# 1 0.020658 0.000062 -0.003432 0.000000 0.000000 -0.004091
# 2 0.000062 0.020658 -0.003432 0.000000 0.000000 0.004091
# 3 -0.003432 -0.003432 0.005592 0.000000 0.000000 0.000000
# 4 0.000000 0.000000 0.000000 0.635774 0.000000 0.000000
# 5 0.000000 0.000000 0.000000 0.000000 0.635774 0.000000
# 6 -0.004091 0.004091 0.000000 0.000000 0.000000 0.039205
#
#
# Mechanical properties :
#
#
# Convention : Reuss Voigt Hill
#
# Bulk Modulus (GPa) = 30.02755 54.93049 42.47902
# Shear Modulus (GPa) = 3.61699 23.04285 13.32992
#
# Velocity S-wave (km/s) = 1.27632 3.22146 2.45018
# Velocity P-wave (km/s) = 3.96175 6.21097 5.20920
#
# Compressibility (1/GPa) = 0.03330275
#
# Stress axis : x y z
#
# Youngs Moduli (GPa) = 48.40718 48.40718 178.82973
#
# Poissons Ratio (x) = -0.00299 0.61378
# Poissons Ratio (y) = -0.00299 0.61378
# Poissons Ratio (z) = 0.16614 0.16614
#
# Static dielectric constant tensor:
#      x y z
#    x 3.702070 0.000000 0.000000 
#    y 0.000000 3.702070 0.000000 
#    z 0.000000 0.000000 4.609870 
# 
# 
# High freq. dielectric constant tensor:
#      x y z
#    x 1.851560 0.000000 0.000000 
#    y 0.000000 1.851560 0.000000 
#    z 0.000000 0.000000 1.908370 
# 
# From -- ./inp_files/3289.got.cif
#   From: 2010.03.12/outbox.cif.g09.slc.cpg/sg83_2_cif.got.tgz:3289.got - 2010.04.08 20:05:18.
