data_PCOD8303605
_publ_section_title
;
Structure prediction by ZEFSAII (Michael W. Deem and Ramdas Pophale) SiO2 
 PCOD8303605
Probable space group: P 42/N
;
_chemical_formula_sum "Si O2"
_cell_formula_units_Z 38
_cell_length_a 8.490340
_cell_length_b 8.490340
_cell_length_c 23.616547
_cell_angle_alpha 90.000000
_cell_angle_beta 90.000000
_cell_angle_gamma 90.000000
_cell_volume 1702.419415
_symmetry_space_group_name_H-M "P 42/N"
_symmetry_group_IT_number 86
_space_group.IT_coordinate_system_code '2'
_symmetry_cell_setting 'tetragonal'
loop_
_space_group_symop_operation_xyz
x,y,z
-y,1/2+x,1/2+z
1/2-x,1/2-y,z
1/2+y,-x,1/2+z
-x,-y,-z
y,1/2-x,1/2-z
1/2+x,1/2+y,-z
1/2-y,x,1/2-z
loop_
_atom_site_type_symbol
_atom_site_label
_atom_site_fract_x
_atom_site_fract_y
_atom_site_fract_z
Si Si1 0.578955 0.311595 0.555814
Si Si2 0.926255 0.801092 0.331118
Si Si3 0.750000 0.250000 0.736581
Si Si4 0.577657 0.684833 0.557581
Si Si5 0.489386 0.654587 0.678599
Si Si6 0.250000 0.250000 0.250000
O O1 0.750000 0.250000 0.571800
O O2 0.455689 0.251147 0.603484
O O3 0.586312 0.498234 0.556859
O O4 0.527153 0.248660 0.494159
O O5 0.750000 0.750000 0.310219
O O6 0.082909 0.737544 0.297659
O O7 0.908708 0.987185 0.326753
O O8 0.769075 0.103336 0.779116
O O9 0.750000 0.750000 0.549435
O O10 0.502678 0.739917 0.617287
O O11 0.660118 0.631183 0.707484
#
# Coordination Sequence:
#
# PCOD8303605 Si02
#       6
#     8   8   4   8   8   2
#     4  10  22  43  68 100 138 178 235 298 364 428
#     4  11  25  45  70 101 143 190 236 302 366 439
#     4  12  26  42  66 104 136 186 238 290 368 442
#     4  10  22  42  67  97 133 180 231 294 364 435
#     4  11  25  42  67  98 136 179 235 298 361 436
#     4  12  20  44  68  92 132 184 224 296 366 428
#
# _framework density 22.321176000000001
#
# number of rings (size 3 to 8) (size 9 to 14) (size 15 to 20)
#    0.000    1.263    4.211    0.632    4.421    0.842 
#    3.789    0.000    0.000    0.000    0.000    0.000 
#    0.000    0.000    0.000    0.000    0.000    0.000 
#
# Total GULP energy -470818.382542 kJ/mol
# GULP energy per Si atom -12389.957435 kJ/mol
# Density = 2.227037 g / cm^3
# Si number density = 22.321176 Si / 1000 Ang^3
#
#
#
# Elastic Constant Matrix: (Units=GPa)
#
#
# Indices 1 2 3 4 5 6 
#
# 1 91.3834 26.6095 49.4827 0.0000 0.0000 5.1118
# 2 26.6095 91.3834 49.4827 0.0000 0.0000 -5.1118
# 3 49.4827 49.4827 184.2959 0.0000 0.0000 0.0000
# 4 0.0000 0.0000 0.0000 17.7362 0.0000 0.0000
# 5 0.0000 0.0000 0.0000 0.0000 17.7362 0.0000
# 6 5.1118 -5.1118 0.0000 0.0000 0.0000 32.3344
#
#
#
# Elastic Compliance Matrix: (Units=1/GPa)
#
#
# Indices 1 2 3 4 5 6 
#
# 1 0.013386 -0.002447 -0.002937 0.000000 0.000000 -0.002503
# 2 -0.002447 0.013386 -0.002937 0.000000 0.000000 0.002503
# 3 -0.002937 -0.002937 0.007003 0.000000 0.000000 0.000000
# 4 0.000000 0.000000 0.000000 0.056382 0.000000 0.000000
# 5 0.000000 0.000000 0.000000 0.000000 0.056382 0.000000
# 6 -0.002503 0.002503 0.000000 0.000000 0.000000 0.031718
#
#
# Mechanical properties :
#
#
# Convention : Reuss Voigt Hill
#
# Bulk Modulus (GPa) = 58.36936 68.69031 63.52984
# Shear Modulus (GPa) = 24.92397 29.66056 27.29227
#
# Velocity S-wave (km/s) = 3.34519 3.64924 3.50052
# Velocity P-wave (km/s) = 6.41303 6.97111 6.69788
#
# Compressibility (1/GPa) = 0.01713228
#
# Stress axis : x y z
#
# Youngs Moduli (GPa) = 74.70553 74.70553 142.79269
#
# Poissons Ratio (x) = 0.18284 0.41937
# Poissons Ratio (y) = 0.18284 0.41937
# Poissons Ratio (z) = 0.21940 0.21940
#
# Static dielectric constant tensor:
#      x y z
#    x 3.855230 0.000000 0.000000 
#    y 0.000000 3.855230 0.000000 
#    z 0.000000 0.000000 4.690320 
# 
# 
# High freq. dielectric constant tensor:
#      x y z
#    x 1.867750 0.000000 0.000000 
#    y 0.000000 1.867750 0.000000 
#    z 0.000000 0.000000 1.904910 
# 
# From -- ./inp_files/4552.got.cif
#   From: 2010.03.12/outbox.cif.g09.slc.cpg/sg86_3_cif.got.tgz:4552.got - 2010.04.08 20:12:58.
