data_PCOD8303007
_publ_section_title
;
Structure prediction by ZEFSAII (Michael W. Deem and Ramdas Pophale) SiO2 
 PCOD8303007
Probable space group: P 4/M
;
_chemical_formula_sum "Si O2"
_cell_formula_units_Z 24
_cell_length_a 8.057938
_cell_length_b 8.057938
_cell_length_c 16.714146
_cell_angle_alpha 90.000000
_cell_angle_beta 90.000000
_cell_angle_gamma 90.000000
_cell_volume 1085.255597
_symmetry_space_group_name_H-M "P 4/M"
_symmetry_group_IT_number 83
_symmetry_cell_setting 'tetragonal'
loop_
_space_group_symop_operation_xyz
x,y,z
-y,x,z
-x,-y,z
y,-x,z
-x,-y,-z
y,-x,-z
x,y,-z
-y,x,-z
loop_
_atom_site_type_symbol
_atom_site_label
_atom_site_fract_x
_atom_site_fract_y
_atom_site_fract_z
Si Si1 0.403756 0.241314 0.000000
Si Si2 0.000000 0.500000 0.714849
Si Si3 0.241548 0.413764 0.588759
Si Si4 0.087967 0.738950 0.845039
O O1 0.596069 0.289322 0.000000
O O2 0.366054 0.126902 0.923906
O O3 0.892273 0.621740 0.657757
O O4 0.882923 0.382450 0.769496
O O5 0.395580 0.293561 0.599724
O O6 0.164402 0.388049 0.500000
O O7 0.895945 0.791584 0.842828
#
# Coordination Sequence:
#
# PCOD8303007 Si02
#       4
#     4   4   8   8
#     4  11  24  43  66  89 112 146 194 239 280 335
#     4  12  21  35  58  86 116 150 194 239 283 340
#     4   9  19  36  57  82 113 150 192 238 288 338
#     4  11  24  40  59  85 119 156 191 234 290 345
#
# _framework density 22.114605000000001
#
# number of rings (size 3 to 8) (size 9 to 14) (size 15 to 20)
#    0.000    1.500    0.000    6.500    0.000    3.333 
#    0.000    3.333    0.000    0.000    0.000   14.000 
#    0.000    0.000    0.000    0.000    0.000    0.000 
#
# Total GULP energy -297606.551939 kJ/mol
# GULP energy per Si atom -12400.272997 kJ/mol
# Density = 2.206427 g / cm^3
# Si number density = 22.114605 Si / 1000 Ang^3
#
#
#
# Elastic Constant Matrix: (Units=GPa)
#
#
# Indices 1 2 3 4 5 6 
#
# 1 78.2537 12.1655 45.1850 0.0000 0.0000 -6.7812
# 2 12.1655 78.2537 45.1850 0.0000 0.0000 6.7812
# 3 45.1850 45.1850 186.2184 0.0000 0.0000 0.0000
# 4 0.0000 0.0000 0.0000 23.0979 0.0000 0.0000
# 5 0.0000 0.0000 0.0000 0.0000 23.0979 0.0000
# 6 -6.7812 6.7812 0.0000 0.0000 0.0000 29.7971
#
#
#
# Elastic Compliance Matrix: (Units=1/GPa)
#
#
# Indices 1 2 3 4 5 6 
#
# 1 0.015236 -0.000636 -0.003543 0.000000 0.000000 0.003612
# 2 -0.000636 0.015236 -0.003543 0.000000 0.000000 -0.003612
# 3 -0.003543 -0.003543 0.007089 0.000000 0.000000 0.000000
# 4 0.000000 0.000000 0.000000 0.043294 0.000000 0.000000
# 5 0.000000 0.000000 0.000000 0.000000 0.043294 0.000000
# 6 0.003612 -0.003612 0.000000 0.000000 0.000000 0.035204
#
#
# Mechanical properties :
#
#
# Convention : Reuss Voigt Hill
#
# Bulk Modulus (GPa) = 45.20960 60.86632 53.03796
# Shear Modulus (GPa) = 27.44678 31.21128 29.32903
#
# Velocity S-wave (km/s) = 3.52677 3.76086 3.64569
# Velocity P-wave (km/s) = 6.08866 6.81481 6.46195
#
# Compressibility (1/GPa) = 0.02211920
#
# Stress axis : x y z
#
# Youngs Moduli (GPa) = 65.63196 65.63196 141.05795
#
# Poissons Ratio (x) = 0.04175 0.49973
# Poissons Ratio (y) = 0.04175 0.49973
# Poissons Ratio (z) = 0.23252 0.23252
#
# Static dielectric constant tensor:
#      x y z
#    x 3.825190 0.000000 0.000000 
#    y 0.000000 3.825190 0.000000 
#    z 0.000000 0.000000 4.181510 
# 
# 
# High freq. dielectric constant tensor:
#      x y z
#    x 1.861690 0.000000 0.000000 
#    y 0.000000 1.861690 0.000000 
#    z 0.000000 0.000000 1.890110 
# 
# From -- ./inp_files/2151.got.cif
#   From: 2010.03.12/outbox.cif.g09.slc.cpg/sg83_2_cif.got.tgz:2151.got - 2010.04.08 20:05:18.
