data_PCOD8303264
_publ_section_title
;
Structure prediction by ZEFSAII (Michael W. Deem and Ramdas Pophale) SiO2 
 PCOD8303264
Probable space group: P 42/M
;
_chemical_formula_sum "Si O2"
_cell_formula_units_Z 32
_cell_length_a 13.961616
_cell_length_b 13.961616
_cell_length_c 8.396687
_cell_angle_alpha 90.000000
_cell_angle_beta 90.000000
_cell_angle_gamma 90.000000
_cell_volume 1636.738667
_symmetry_space_group_name_H-M "P 42/M"
_symmetry_group_IT_number 84
_symmetry_cell_setting 'tetragonal'
loop_
_space_group_symop_operation_xyz
x,y,z
-y,x,1/2+z
-x,-y,z
y,-x,1/2+z
-x,-y,-z
y,-x,1/2-z
x,y,-z
-y,x,1/2-z
loop_
_atom_site_type_symbol
_atom_site_label
_atom_site_fract_x
_atom_site_fract_y
_atom_site_fract_z
Si Si1 0.143715 0.528000 0.814450
Si Si2 0.645163 0.473282 0.688472
Si Si3 0.030469 0.359984 0.685749
Si Si4 0.856272 0.014000 0.814676
O O1 0.250189 0.545729 0.755249
O O2 0.110618 0.419087 0.781770
O O3 0.075472 0.600609 0.719805
O O4 0.135946 0.550492 0.000000
O O5 0.577475 0.390848 0.758734
O O6 0.644371 0.466160 0.500000
O O7 0.053377 0.370337 0.500000
O O8 0.037617 0.250574 0.743090
O O9 0.922476 0.105977 0.782748
O O10 0.858434 0.987573 0.000000
#
# Coordination Sequence:
#
# PCOD8303264 Si02
#       4
#     8   8   8   8
#     4  11  22  37  58  84 112 147 186 229 278 332
#     4  11  22  39  60  84 114 147 184 229 276 330
#     4  10  21  38  57  81 112 148 187 233 280 327
#     4  10  21  36  57  81 110 144 181 225 274 325
#
# _framework density 19.551075000000001
#
# number of rings (size 3 to 8) (size 9 to 14) (size 15 to 20)
#    0.000    1.500    0.000    9.000    0.000    6.000 
#    0.000    5.000    0.000    0.000    0.000    0.000 
#    0.000    0.000    0.000    0.000    0.000    0.000 
#
# Total GULP energy -396958.378998 kJ/mol
# GULP energy per Si atom -12404.949344 kJ/mol
# Density = 1.950658 g / cm^3
# Si number density = 19.551075 Si / 1000 Ang^3
#
#
#
# Elastic Constant Matrix: (Units=GPa)
#
#
# Indices 1 2 3 4 5 6 
#
# 1 58.1483 -35.7425 8.0438 0.0000 0.0000 -1.0137
# 2 -35.7425 58.1483 8.0438 0.0000 0.0000 1.0137
# 3 8.0438 8.0438 60.7710 0.0000 0.0000 0.0000
# 4 0.0000 0.0000 0.0000 17.6083 0.0000 0.0000
# 5 0.0000 0.0000 0.0000 0.0000 17.6083 0.0000
# 6 -1.0137 1.0137 0.0000 0.0000 0.0000 12.4057
#
#
#
# Elastic Compliance Matrix: (Units=1/GPa)
#
#
# Indices 1 2 3 4 5 6 
#
# 1 0.029994 0.019324 -0.006528 0.000000 0.000000 0.000872
# 2 0.019324 0.029994 -0.006528 0.000000 0.000000 -0.000872
# 3 -0.006528 -0.006528 0.018183 0.000000 0.000000 0.000000
# 4 0.000000 0.000000 0.000000 0.056791 0.000000 0.000000
# 5 0.000000 0.000000 0.000000 0.000000 0.056791 0.000000
# 6 0.000872 -0.000872 0.000000 0.000000 0.000000 0.080751
#
#
# Mechanical properties :
#
#
# Convention : Reuss Voigt Hill
#
# Bulk Modulus (GPa) = 11.02431 15.30639 13.16535
# Shear Modulus (GPa) = 17.22931 22.63930 19.93430
#
# Velocity S-wave (km/s) = 2.97180 3.40657 3.19658
# Velocity P-wave (km/s) = 4.17450 4.82896 4.51361
#
# Compressibility (1/GPa) = 0.09070862
#
# Stress axis : x y z
#
# Youngs Moduli (GPa) = 33.34006 33.34006 54.99549
#
# Poissons Ratio (x) = -0.64428 0.35900
# Poissons Ratio (y) = -0.64428 0.35900
# Poissons Ratio (z) = 0.21764 0.21764
#
# Static dielectric constant tensor:
#      x y z
#    x 3.584330 0.000000 0.000000 
#    y 0.000000 3.584330 0.000000 
#    z 0.000000 0.000000 3.693340 
# 
# 
# High freq. dielectric constant tensor:
#      x y z
#    x 1.762010 0.000000 0.000000 
#    y 0.000000 1.762010 0.000000 
#    z 0.000000 0.000000 1.779100 
# 
# From -- ./inp_files/604.got.cif
#   From: 2010.03.12/outbox.cif.g09.slc.cpg/sg84_1_cif.got.tgz:604.got - 2010.04.08 20:07:29.
