data_PCOD8303540
_publ_section_title
;
Structure prediction by ZEFSAII (Michael W. Deem and Ramdas Pophale) SiO2 
 PCOD8303540
Probable space group: P 42/N
;
_chemical_formula_sum "Si O2"
_cell_formula_units_Z 48
_cell_length_a 17.737353
_cell_length_b 17.737353
_cell_length_c 7.796091
_cell_angle_alpha 90.000000
_cell_angle_beta 90.000000
_cell_angle_gamma 90.000000
_cell_volume 2452.756968
_symmetry_space_group_name_H-M "P 42/N"
_symmetry_group_IT_number 86
_space_group.IT_coordinate_system_code '2'
_symmetry_cell_setting 'tetragonal'
loop_
_space_group_symop_operation_xyz
x,y,z
-y,1/2+x,1/2+z
1/2-x,1/2-y,z
1/2+y,-x,1/2+z
-x,-y,-z
y,1/2-x,1/2-z
1/2+x,1/2+y,-z
1/2-y,x,1/2-z
loop_
_atom_site_type_symbol
_atom_site_label
_atom_site_fract_x
_atom_site_fract_y
_atom_site_fract_z
Si Si1 0.627052 0.711827 0.994167
Si Si2 0.873415 0.208670 0.112001
Si Si3 0.250000 0.250000 0.250000
Si Si4 0.581740 0.455565 0.178473
Si Si5 0.750000 0.250000 0.364056
Si Si6 0.951997 0.590159 0.645061
Si Si7 0.998064 0.323540 0.016921
Si Si8 0.750000 0.750000 0.250000
O O1 0.687584 0.701301 0.147026
O O2 0.672633 0.759481 0.853240
O O3 0.597182 0.633915 0.916867
O O4 0.556408 0.761616 0.055921
O O5 0.816755 0.205885 0.955206
O O6 0.920080 0.132660 0.133937
O O7 0.818835 0.211423 0.271861
O O8 0.925710 0.281445 0.092664
O O9 0.494418 0.478172 0.191674
O O10 0.622095 0.476183 0.358421
O O11 0.620120 0.498581 0.016782
O O12 0.965347 0.634619 0.820981
#
# Coordination Sequence:
#
# PCOD8303540 Si02
#       8
#     8   8   2   8   4   8   8   2
#     4  11  21  40  64  91 125 167 212 264 320 384
#     4  11  21  40  63  91 124 166 212 263 318 381
#     4  10  20  38  64  86 120 162 208 258 316 374
#     4  11  24  43  63  94 132 168 212 269 322 386
#     4  10  22  38  64  90 124 162 212 270 314 372
#     4  11  24  42  64  94 131 169 213 267 325 388
#     4  12  23  41  67  94 126 170 220 260 326 393
#     4  10  24  38  64  98 128 162 220 274 318 384
#
# _framework density 19.569815999999999
#
# number of rings (size 3 to 8) (size 9 to 14) (size 15 to 20)
#    0.000    1.000    5.000    2.500    0.000    0.000 
#    0.000    0.000    0.000    0.000    0.000    0.000 
#    0.000    0.000    0.000    0.000    0.000    0.000 
#
# Total GULP energy -594770.286470 kJ/mol
# GULP energy per Si atom -12391.047635 kJ/mol
# Density = 1.952527 g / cm^3
# Si number density = 19.569816 Si / 1000 Ang^3
#
#
#
# Elastic Constant Matrix: (Units=GPa)
#
#
# Indices 1 2 3 4 5 6 
#
# 1 92.5042 20.5603 45.6639 0.0000 0.0000 1.5678
# 2 20.5603 92.5042 45.6639 0.0000 0.0000 -1.5678
# 3 45.6639 45.6639 125.9542 0.0000 0.0000 0.0000
# 4 0.0000 0.0000 0.0000 30.6003 0.0000 0.0000
# 5 0.0000 0.0000 0.0000 0.0000 30.6003 0.0000
# 6 1.5678 -1.5678 0.0000 0.0000 0.0000 33.4414
#
#
#
# Elastic Compliance Matrix: (Units=1/GPa)
#
#
# Indices 1 2 3 4 5 6 
#
# 1 0.013218 -0.000711 -0.004534 0.000000 0.000000 -0.000653
# 2 -0.000711 0.013218 -0.004534 0.000000 0.000000 0.000653
# 3 -0.004534 -0.004534 0.011227 0.000000 0.000000 0.000000
# 4 0.000000 0.000000 0.000000 0.032679 0.000000 0.000000
# 5 0.000000 0.000000 0.000000 0.000000 0.032679 0.000000
# 6 -0.000653 0.000653 0.000000 0.000000 0.000000 0.029964
#
#
# Mechanical properties :
#
#
# Convention : Reuss Voigt Hill
#
# Bulk Modulus (GPa) = 55.23647 59.41541 57.32594
# Shear Modulus (GPa) = 31.53003 32.20002 31.86503
#
# Velocity S-wave (km/s) = 4.01828 4.06074 4.03957
# Velocity P-wave (km/s) = 7.05800 7.23967 7.14941
#
# Compressibility (1/GPa) = 0.01810398
#
# Stress axis : x y z
#
# Youngs Moduli (GPa) = 75.65629 75.65629 89.06924
#
# Poissons Ratio (x) = 0.05375 0.40387
# Poissons Ratio (y) = 0.05375 0.40387
# Poissons Ratio (z) = 0.34305 0.34305
#
# Static dielectric constant tensor:
#      x y z
#    x 3.528490 0.000000 0.000000 
#    y 0.000000 3.528490 0.000000 
#    z 0.000000 0.000000 3.656370 
# 
# 
# High freq. dielectric constant tensor:
#      x y z
#    x 1.769700 0.000000 0.000000 
#    y 0.000000 1.769700 0.000000 
#    z 0.000000 0.000000 1.767530 
# 
# From -- ./inp_files/1373.got.cif
#   From: 2010.03.12/outbox.cif.g09.slc.cpg/sg86_1_cif.got.tgz:1373.got - 2010.04.08 20:12:58.
