data_PCOD8303647
_publ_section_title
;
Structure prediction by ZEFSAII (Michael W. Deem and Ramdas Pophale) SiO2 
 PCOD8303647
Probable space group: P 42/N
;
_chemical_formula_sum "Si O2"
_cell_formula_units_Z 48
_cell_length_a 9.320401
_cell_length_b 9.320401
_cell_length_c 27.573734
_cell_angle_alpha 90.000000
_cell_angle_beta 90.000000
_cell_angle_gamma 90.000000
_cell_volume 2395.326820
_symmetry_space_group_name_H-M "P 42/N"
_symmetry_group_IT_number 86
_space_group.IT_coordinate_system_code '2'
_symmetry_cell_setting 'tetragonal'
loop_
_space_group_symop_operation_xyz
x,y,z
-y,1/2+x,1/2+z
1/2-x,1/2-y,z
1/2+y,-x,1/2+z
-x,-y,-z
y,1/2-x,1/2-z
1/2+x,1/2+y,-z
1/2-y,x,1/2-z
loop_
_atom_site_type_symbol
_atom_site_label
_atom_site_fract_x
_atom_site_fract_y
_atom_site_fract_z
Si Si1 0.229157 0.910959 0.636489
Si Si2 0.893643 0.335312 0.042524
Si Si3 0.897528 0.669755 0.046455
Si Si4 0.919243 0.234681 0.146218
Si Si5 0.930785 0.996111 0.803313
Si Si6 0.539772 0.599027 0.700154
O O1 0.250000 0.750000 0.615278
O O2 0.337942 0.932005 0.681430
O O3 0.074694 0.936570 0.659135
O O4 0.240689 0.023324 0.592628
O O5 0.750000 0.250000 0.029113
O O6 0.861725 0.502260 0.051939
O O7 0.961978 0.276042 0.091906
O O8 0.005810 0.306026 0.000477
O O9 0.750000 0.750000 0.037966
O O10 0.750000 0.250000 0.155946
O O11 0.973248 0.072991 0.153974
O O12 0.011774 0.319074 0.185912
O O13 0.009230 0.964483 0.752189
O O14 0.769640 0.932595 0.798706
#
# Coordination Sequence:
#
# PCOD8303647 Si02
#       6
#     8   8   8   8   8   8
#     4  10  24  43  63  93 131 170 206 266 326 380
#     4  10  24  46  66  97 130 167 209 265 320 383
#     4  11  24  44  70  96 129 165 212 263 322 386
#     4  11  24  40  65  94 130 167 211 268 313 375
#     4  11  24  38  66  93 127 174 217 263 318 377
#     4  11  22  41  62  93 129 168 221 261 316 380
#
# _framework density 20.039019
#
# number of rings (size 3 to 8) (size 9 to 14) (size 15 to 20)
#    0.000    1.333    3.333    1.000    7.000    2.000 
#    3.000    0.000    0.000    0.000    0.000    0.000 
#    0.000    0.000    0.000    0.000    0.000    0.000 
#
# Total GULP energy -595200.045898 kJ/mol
# GULP energy per Si atom -12400.000956 kJ/mol
# Density = 1.999341 g / cm^3
# Si number density = 20.039019 Si / 1000 Ang^3
#
#
#
# Elastic Constant Matrix: (Units=GPa)
#
#
# Indices 1 2 3 4 5 6 
#
# 1 73.9911 32.1499 30.2522 0.0000 0.0000 1.2811
# 2 32.1499 73.9911 30.2522 0.0000 0.0000 -1.2811
# 3 30.2522 30.2522 106.8449 0.0000 0.0000 0.0000
# 4 0.0000 0.0000 0.0000 26.2544 0.0000 0.0000
# 5 0.0000 0.0000 0.0000 0.0000 26.2544 0.0000
# 6 1.2811 -1.2811 0.0000 0.0000 0.0000 33.5257
#
#
#
# Elastic Compliance Matrix: (Units=1/GPa)
#
#
# Indices 1 2 3 4 5 6 
#
# 1 0.017595 -0.006361 -0.003181 0.000000 0.000000 -0.000915
# 2 -0.006361 0.017595 -0.003181 0.000000 0.000000 0.000915
# 3 -0.003181 -0.003181 0.011161 0.000000 0.000000 0.000000
# 4 0.000000 0.000000 0.000000 0.038089 0.000000 0.000000
# 5 0.000000 0.000000 0.000000 0.000000 0.038089 0.000000
# 6 -0.000915 0.000915 0.000000 0.000000 0.000000 0.029898
#
#
# Mechanical properties :
#
#
# Convention : Reuss Voigt Hill
#
# Bulk Modulus (GPa) = 47.83291 48.90397 48.36844
# Shear Modulus (GPa) = 27.05030 28.01843 27.53436
#
# Velocity S-wave (km/s) = 3.67806 3.74330 3.71082
# Velocity P-wave (km/s) = 6.47759 6.56814 6.52302
#
# Compressibility (1/GPa) = 0.02090611
#
# Stress axis : x y z
#
# Youngs Moduli (GPa) = 56.83325 56.83325 89.60000
#
# Poissons Ratio (x) = 0.36149 0.28502
# Poissons Ratio (y) = 0.36149 0.28502
# Poissons Ratio (z) = 0.18079 0.18079
#
# Static dielectric constant tensor:
#      x y z
#    x 3.624290 0.000000 0.000000 
#    y 0.000000 3.624290 0.000000 
#    z 0.000000 0.000000 3.645270 
# 
# 
# High freq. dielectric constant tensor:
#      x y z
#    x 1.784190 0.000000 0.000000 
#    y 0.000000 1.784190 0.000000 
#    z 0.000000 0.000000 1.793400 
# 
# From -- ./inp_files/5121.got.cif
#   From: 2010.03.12/outbox.cif.g09.slc.cpg/sg86_3_cif.got.tgz:5121.got - 2010.04.08 20:12:58.
