data_PCOD8303738
_publ_section_title
;
Structure prediction by ZEFSAII (Michael W. Deem and Ramdas Pophale) SiO2 
 PCOD8303738
Probable space group: I 4/M
;
_chemical_formula_sum "Si O2"
_cell_formula_units_Z 64
_cell_length_a 20.435509
_cell_length_b 20.435509
_cell_length_c 8.684607
_cell_angle_alpha 90.000000
_cell_angle_beta 90.000000
_cell_angle_gamma 90.000000
_cell_volume 3626.778973
_symmetry_space_group_name_H-M "I 4/M"
_symmetry_group_IT_number 87
_symmetry_cell_setting 'tetragonal'
loop_
_space_group_symop_operation_xyz
x,y,z
-y,x,z
-x,-y,z
y,-x,z
-x,-y,-z
y,-x,-z
x,y,-z
-y,x,-z
1/2+x,1/2+y,1/2+z
1/2-y,1/2+x,1/2+z
1/2-x,1/2-y,1/2+z
1/2+y,1/2-x,1/2+z
1/2-x,1/2-y,1/2-z
1/2+y,1/2-x,1/2-z
1/2+x,1/2+y,1/2-z
1/2-y,1/2+x,1/2-z
loop_
_atom_site_type_symbol
_atom_site_label
_atom_site_fract_x
_atom_site_fract_y
_atom_site_fract_z
Si Si1 0.400327 0.649283 0.318540
Si Si2 0.469609 0.336379 0.825313
Si Si3 0.967624 0.408144 0.180312
Si Si4 0.937955 0.274539 0.674224
O O1 0.398317 0.655320 0.500000
O O2 0.472000 0.623786 0.261498
O O3 0.345204 0.598822 0.262012
O O4 0.386754 0.721158 0.244095
O O5 0.489581 0.259183 0.822009
O O6 0.463518 0.362028 0.000000
O O7 0.035267 0.416854 0.272647
O O8 0.936242 0.338741 0.221715
O O9 0.981908 0.412468 0.000000
O O10 0.917469 0.292206 0.500000
#
# Coordination Sequence:
#
# PCOD8303738 Si02
#       4
#    16  16  16  16
#     4  10  18  29  47  72 100 132 174 214 251 294
#     4   9  18  31  47  68 100 137 172 209 252 297
#     4  11  21  35  57  82 107 129 162 203 253 303
#     4   9  19  34  51  72 103 136 168 205 255 301
#
# _framework density 17.646512000000001
#
# number of rings (size 3 to 8) (size 9 to 14) (size 15 to 20)
#    1.500    0.750    0.000    6.000    0.000    0.500 
#    0.000    2.500    0.000    1.500    0.000    0.000 
#    0.000    0.000    0.000    0.000    0.000    0.000 
#
# Total GULP energy -396518.143382 kJ/mol
# GULP energy per Si atom -12391.191981 kJ/mol
# Density = 1.760635 g / cm^3
# Si number density = 17.646512 Si / 1000 Ang^3
#
#
#
# Elastic Constant Matrix: (Units=GPa)
#
#
# Indices 1 2 3 4 5 6 
#
# 1 28.5466 -22.1165 6.5787 0.0000 0.0000 -1.4397
# 2 -22.1165 28.5466 6.5787 0.0000 0.0000 1.4397
# 3 6.5787 6.5787 128.1006 0.0000 0.0000 0.0000
# 4 0.0000 0.0000 0.0000 27.8075 0.0000 0.0000
# 5 0.0000 0.0000 0.0000 0.0000 27.8075 0.0000
# 6 -1.4397 1.4397 0.0000 0.0000 0.0000 5.8637
#
#
#
# Elastic Compliance Matrix: (Units=1/GPa)
#
#
# Indices 1 2 3 4 5 6 
#
# 1 0.096899 0.076881 -0.008925 0.000000 0.000000 0.004915
# 2 0.076881 0.096899 -0.008925 0.000000 0.000000 -0.004915
# 3 -0.008925 -0.008925 0.008723 0.000000 0.000000 0.000000
# 4 0.000000 0.000000 0.000000 0.035961 0.000000 0.000000
# 5 0.000000 0.000000 0.000000 0.000000 0.035961 0.000000
# 6 0.004915 -0.004915 0.000000 0.000000 0.000000 0.172955
#
#
# Mechanical properties :
#
#
# Convention : Reuss Voigt Hill
#
# Bulk Modulus (GPa) = 3.11930 18.58618 10.85274
# Shear Modulus (GPa) = 11.46274 25.23929 18.35101
#
# Velocity S-wave (km/s) = 2.55144 3.78599 3.22828
# Velocity P-wave (km/s) = 3.23285 5.44675 4.47875
#
# Compressibility (1/GPa) = 0.32058511
#
# Stress axis : x y z
#
# Youngs Moduli (GPa) = 10.32004 10.32004 114.63915
#
# Poissons Ratio (x) = -0.79342 1.02311
# Poissons Ratio (y) = -0.79342 1.02311
# Poissons Ratio (z) = 0.09210 0.09210
#
# Static dielectric constant tensor:
#      x y z
#    x 2.985660 0.000000 0.000000 
#    y 0.000000 2.985660 0.000000 
#    z 0.000000 0.000000 3.315020 
# 
# 
# High freq. dielectric constant tensor:
#      x y z
#    x 1.651330 0.000000 0.000000 
#    y 0.000000 1.651330 0.000000 
#    z 0.000000 0.000000 1.705100 
# 
# From -- ./inp_files/950.got.cif
#   From: 2010.03.12/outbox.cif.g09.slc.cpg/sg87_1_cif.got.tgz:950.got - 2010.04.08 20:16:13.
