data_PCOD8303521
_publ_section_title
;
Structure prediction by ZEFSAII (Michael W. Deem and Ramdas Pophale) SiO2 
 PCOD8303521
Probable space group: P 42/N
;
_chemical_formula_sum "Si O2"
_cell_formula_units_Z 44
_cell_length_a 8.258968
_cell_length_b 8.258968
_cell_length_c 31.144273
_cell_angle_alpha 90.000000
_cell_angle_beta 90.000000
_cell_angle_gamma 90.000000
_cell_volume 2124.368066
_symmetry_space_group_name_H-M "P 42/N"
_symmetry_group_IT_number 86
_space_group.IT_coordinate_system_code '2'
_symmetry_cell_setting 'tetragonal'
loop_
_space_group_symop_operation_xyz
x,y,z
-y,1/2+x,1/2+z
1/2-x,1/2-y,z
1/2+y,-x,1/2+z
-x,-y,-z
y,1/2-x,1/2-z
1/2+x,1/2+y,-z
1/2-y,x,1/2-z
loop_
_atom_site_type_symbol
_atom_site_label
_atom_site_fract_x
_atom_site_fract_y
_atom_site_fract_z
Si Si1 0.988837 0.647089 0.246695
Si Si2 0.828243 0.484800 0.926755
Si Si3 0.750000 0.750000 0.513759
Si Si4 0.486609 0.334976 0.942788
Si Si5 0.991401 0.497537 0.159895
Si Si6 0.750000 0.250000 0.688433
Si Si7 0.750000 0.750000 0.374426
O O1 0.832104 0.555122 0.265742
O O2 0.064687 0.545930 0.206351
O O3 0.123019 0.649982 0.283275
O O4 0.863997 0.641156 0.955531
O O5 0.637890 0.452548 0.935146
O O6 0.946688 0.347575 0.943999
O O7 0.868143 0.511543 0.876183
O O8 0.857462 0.622215 0.485780
O O9 0.364330 0.363680 0.903620
O O10 0.890088 0.330981 0.159393
O O11 0.859481 0.638080 0.154656
#
# Coordination Sequence:
#
# PCOD8303521 Si02
#       7
#     8   8   4   8   8   4   4
#     4   9  18  35  58  80 105 146 186 216 260 324
#     4  10  21  36  56  83 110 141 180 231 280 312
#     4  11  20  36  56  80 112 146 182 220 270 332
#     4   9  20  37  56  79 107 144 185 221 268 329
#     4  10  20  36  55  82 110 139 183 226 269 325
#     4  10  20  34  56  82 108 140 176 226 278 320
#     4   9  18  34  59  78 101 142 185 224 261 312
#
# _framework density 20.712040999999999
#
# number of rings (size 3 to 8) (size 9 to 14) (size 15 to 20)
#    0.000    2.364    0.000    3.273    0.000    4.364 
#    0.000    9.091    0.000    4.909    0.000    0.000 
#    0.000    0.000    0.000    0.000    0.000    0.000 
#
# Total GULP energy -545292.997611 kJ/mol
# GULP energy per Si atom -12393.022673 kJ/mol
# Density = 2.066490 g / cm^3
# Si number density = 20.712041 Si / 1000 Ang^3
#
#
#
# Elastic Constant Matrix: (Units=GPa)
#
#
# Indices 1 2 3 4 5 6 
#
# 1 73.5386 10.3581 35.6890 0.0000 0.0000 -0.5659
# 2 10.3581 73.5386 35.6890 0.0000 0.0000 0.5659
# 3 35.6890 35.6890 97.1586 0.0000 0.0000 0.0000
# 4 0.0000 0.0000 0.0000 17.3047 0.0000 0.0000
# 5 0.0000 0.0000 0.0000 0.0000 17.3047 0.0000
# 6 -0.5659 0.5659 0.0000 0.0000 0.0000 18.3794
#
#
#
# Elastic Compliance Matrix: (Units=1/GPa)
#
#
# Indices 1 2 3 4 5 6 
#
# 1 0.016587 0.000751 -0.006369 0.000000 0.000000 0.000488
# 2 0.000751 0.016587 -0.006369 0.000000 0.000000 -0.000488
# 3 -0.006369 -0.006369 0.014971 0.000000 0.000000 0.000000
# 4 0.000000 0.000000 0.000000 0.057788 0.000000 0.000000
# 5 0.000000 0.000000 0.000000 0.000000 0.057788 0.000000
# 6 0.000488 -0.000488 0.000000 0.000000 0.000000 0.054439
#
#
# Mechanical properties :
#
#
# Convention : Reuss Voigt Hill
#
# Bulk Modulus (GPa) = 41.36988 45.30089 43.33539
# Shear Modulus (GPa) = 19.98478 21.43107 20.70792
#
# Velocity S-wave (km/s) = 3.10963 3.22019 3.16539
# Velocity P-wave (km/s) = 5.73675 5.97875 5.85900
#
# Compressibility (1/GPa) = 0.02417218
#
# Stress axis : x y z
#
# Youngs Moduli (GPa) = 60.28794 60.28794 66.79494
#
# Poissons Ratio (x) = -0.04526 0.42539
# Poissons Ratio (y) = -0.04526 0.42539
# Poissons Ratio (z) = 0.38395 0.38395
#
# Static dielectric constant tensor:
#      x y z
#    x 3.678580 0.000000 0.000000 
#    y 0.000000 3.678580 0.000000 
#    z 0.000000 0.000000 3.798640 
# 
# 
# High freq. dielectric constant tensor:
#      x y z
#    x 1.798300 0.000000 0.000000 
#    y 0.000000 1.798300 0.000000 
#    z 0.000000 0.000000 1.815510 
# 
# From -- ./inp_files/5067.got.cif
#   From: 2010.03.12/outbox.cif.g09.slc.cpg/sg86_3_cif.got.tgz:5067.got - 2010.04.08 20:12:58.
