data_PCOD8303005
_publ_section_title
;
Structure prediction by ZEFSAII (Michael W. Deem and Ramdas Pophale) SiO2 
 PCOD8303005
Probable space group: P 4/M
;
_chemical_formula_sum "Si O2"
_cell_formula_units_Z 48
_cell_length_a 8.045335
_cell_length_b 8.045335
_cell_length_c 32.606861
_cell_angle_alpha 90.000000
_cell_angle_beta 90.000000
_cell_angle_gamma 90.000000
_cell_volume 2110.557832
_symmetry_space_group_name_H-M "P 4/M"
_symmetry_group_IT_number 83
_symmetry_cell_setting 'tetragonal'
loop_
_space_group_symop_operation_xyz
x,y,z
-y,x,z
-x,-y,z
y,-x,z
-x,-y,-z
y,-x,-z
x,y,-z
-y,x,-z
loop_
_atom_site_type_symbol
_atom_site_label
_atom_site_fract_x
_atom_site_fract_y
_atom_site_fract_z
Si Si1 0.421915 0.762793 0.214666
Si Si2 0.238403 0.588589 0.000000
Si Si3 0.500000 0.000000 0.853587
Si Si4 0.262745 0.083021 0.078066
Si Si5 0.086365 0.259357 0.290421
Si Si6 0.755938 0.603696 0.368262
Si Si7 0.753211 0.606090 0.543190
O O1 0.295092 0.611439 0.213994
O O2 0.392396 0.870194 0.255442
O O3 0.391427 0.876414 0.174754
O O4 0.291830 0.397648 0.000000
O O5 0.123475 0.622778 0.960773
O O6 0.625975 0.891384 0.881379
O O7 0.107838 0.206482 0.077430
O O8 0.109921 0.345510 0.334469
O O9 0.896869 0.207606 0.285737
O O10 0.589378 0.711632 0.363062
O O11 0.842874 0.640947 0.413080
O O12 0.587053 0.712127 0.542876
O O13 0.852576 0.646877 0.500000
#
# Coordination Sequence:
#
# PCOD8303005 Si02
#       7
#     8   4   4   8   8   8   8
#     4  11  24  42  65  91 118 152 195 243 296 354
#     4  11  24  43  68  97 130 170 216 265 310 351
#     4  12  24  43  66  94 130 164 199 246 298 356
#     4  11  24  42  67  98 132 171 211 251 299 355
#     4  11  24  40  57  78 108 148 194 244 298 354
#     4   9  17  30  52  82 110 138 179 231 287 350
#     4   7  10  19  39  70 106 138 169 214 275 340
#
# _framework density 22.742804
#
# number of rings (size 3 to 8) (size 9 to 14) (size 15 to 20)
#    0.000    1.917    0.000    6.000    0.000    5.000 
#    0.000    3.333    0.000    1.000    0.000    5.833 
#    0.000    0.000    0.000    0.000    0.000    0.000 
#
# Total GULP energy -594951.790188 kJ/mol
# GULP energy per Si atom -12394.828962 kJ/mol
# Density = 2.269104 g / cm^3
# Si number density = 22.742804 Si / 1000 Ang^3
#
#
#
# Elastic Constant Matrix: (Units=GPa)
#
#
# Indices 1 2 3 4 5 6 
#
# 1 78.2081 27.4586 52.5739 0.0000 0.0000 -4.9499
# 2 27.4586 78.2081 52.5739 0.0000 0.0000 4.9499
# 3 52.5739 52.5739 228.0752 0.0000 0.0000 0.0000
# 4 0.0000 0.0000 0.0000 -1.9681 0.0000 0.0000
# 5 0.0000 0.0000 0.0000 0.0000 -1.9681 0.0000
# 6 -4.9499 4.9499 0.0000 0.0000 0.0000 30.9978
#
#
#
# Elastic Compliance Matrix: (Units=1/GPa)
#
#
# Indices 1 2 3 4 5 6 
#
# 1 0.016309 -0.004029 -0.002831 0.000000 0.000000 0.003248
# 2 -0.004029 0.016309 -0.002831 0.000000 0.000000 -0.003248
# 3 -0.002831 -0.002831 0.005690 0.000000 0.000000 0.000000
# 4 0.000000 0.000000 0.000000 -0.508105 0.000000 0.000000
# 5 0.000000 0.000000 0.000000 0.000000 -0.508105 0.000000
# 6 0.003248 -0.003248 0.000000 0.000000 0.000000 0.033298
#
#
# Mechanical properties :
#
#
# Convention : Reuss Voigt Hill
#
# Bulk Modulus (GPa) = 52.83297 72.18934 62.51115
# Shear Modulus (GPa) = -5.44120 22.20467 8.38173
#
# Velocity S-wave (km/s) = -1.54845 3.12803 1.92183
# Velocity P-wave (km/s) = 4.48153 6.69751 5.69828
#
# Compressibility (1/GPa) = 0.01892758
#
# Stress axis : x y z
#
# Youngs Moduli (GPa) = 61.31440 61.31440 175.75950
#
# Poissons Ratio (x) = 0.24702 0.49754
# Poissons Ratio (y) = 0.24702 0.49754
# Poissons Ratio (z) = 0.17357 0.17357
#
# Static dielectric constant tensor:
#      x y z
#    x 3.845440 0.000000 0.000000 
#    y 0.000000 3.845440 0.000000 
#    z 0.000000 0.000000 4.546250 
# 
# 
# High freq. dielectric constant tensor:
#      x y z
#    x 1.882580 0.000000 0.000000 
#    y 0.000000 1.882580 0.000000 
#    z 0.000000 0.000000 1.920900 
# 
# From -- ./inp_files/3452.got.cif
#   From: 2010.03.12/outbox.cif.g09.slc.cpg/sg83_2_cif.got.tgz:3452.got - 2010.04.08 20:05:18.
