data_PCOD8303591
_publ_section_title
;
Structure prediction by ZEFSAII (Michael W. Deem and Ramdas Pophale) SiO2 
 PCOD8303591
Probable space group: P 42/N
;
_chemical_formula_sum "Si O2"
_cell_formula_units_Z 40
_cell_length_a 7.713049
_cell_length_b 7.713049
_cell_length_c 27.928381
_cell_angle_alpha 90.000000
_cell_angle_beta 90.000000
_cell_angle_gamma 90.000000
_cell_volume 1661.490802
_symmetry_space_group_name_H-M "P 42/N"
_symmetry_group_IT_number 86
_space_group.IT_coordinate_system_code '2'
_symmetry_cell_setting 'tetragonal'
loop_
_space_group_symop_operation_xyz
x,y,z
-y,1/2+x,1/2+z
1/2-x,1/2-y,z
1/2+y,-x,1/2+z
-x,-y,-z
y,1/2-x,1/2-z
1/2+x,1/2+y,-z
1/2-y,x,1/2-z
loop_
_atom_site_type_symbol
_atom_site_label
_atom_site_fract_x
_atom_site_fract_y
_atom_site_fract_z
Si Si1 0.250000 0.750000 0.145411
Si Si2 0.488899 0.003494 0.693260
Si Si3 0.250000 0.250000 0.250000
Si Si4 0.598554 0.990880 0.929000
Si Si5 0.429375 0.657026 0.906730
Si Si6 0.747994 0.942854 0.026208
Si Si7 0.750000 0.750000 0.250000
O O1 0.098201 0.814098 0.179765
O O2 0.305306 0.915715 0.114420
O O3 0.627624 0.881409 0.720341
O O4 0.582462 0.073534 0.646146
O O5 0.415833 0.171538 0.721335
O O6 0.400304 0.051420 0.932742
O O7 0.592158 0.783781 0.916288
O O8 0.696500 0.046121 0.977972
O O9 0.250000 0.750000 0.918083
O O10 0.428208 0.507235 0.948562
O O11 0.750000 0.750000 0.007402
#
# Coordination Sequence:
#
# PCOD8303591 Si02
#       7
#     4   8   2   8   8   8   2
#     4  12  26  44  72 102 148 190 244 298 370 450
#     4  12  28  49  79 107 147 185 245 309 390 457
#     4  12  28  52  84 108 146 192 244 324 396 468
#     4  10  24  39  63 102 142 192 245 291 356 428
#     4  10  24  42  70  99 141 188 247 300 360 443
#     4  10  22  39  63  94 145 189 246 293 351 416
#     4  12  32  48  80 116 142 184 244 320 396 468
#
# _framework density 24.074767000000001
#
# number of rings (size 3 to 8) (size 9 to 14) (size 15 to 20)
#    0.000    1.200    0.000    3.600   19.600    0.800 
#    0.000    0.000    0.000    0.000    0.000    0.000 
#    0.000    0.000    0.000    0.000    0.000    0.000 
#
# Total GULP energy -495727.178182 kJ/mol
# GULP energy per Si atom -12393.179455 kJ/mol
# Density = 2.401997 g / cm^3
# Si number density = 24.074767 Si / 1000 Ang^3
#
#
#
# Elastic Constant Matrix: (Units=GPa)
#
#
# Indices 1 2 3 4 5 6 
#
# 1 96.6762 30.9414 38.9608 0.0000 0.0000 -9.7720
# 2 30.9414 96.6762 38.9608 0.0000 0.0000 9.7720
# 3 38.9608 38.9608 119.9190 0.0000 0.0000 0.0000
# 4 0.0000 0.0000 0.0000 59.4074 0.0000 0.0000
# 5 0.0000 0.0000 0.0000 0.0000 59.4074 0.0000
# 6 -9.7720 9.7720 0.0000 0.0000 0.0000 39.0805
#
#
#
# Elastic Compliance Matrix: (Units=1/GPa)
#
#
# Indices 1 2 3 4 5 6 
#
# 1 0.013105 -0.003330 -0.003176 0.000000 0.000000 0.004109
# 2 -0.003330 0.013105 -0.003176 0.000000 0.000000 -0.004109
# 3 -0.003176 -0.003176 0.010403 0.000000 0.000000 0.000000
# 4 0.000000 0.000000 0.000000 0.016833 0.000000 0.000000
# 5 0.000000 0.000000 0.000000 0.000000 0.016833 0.000000
# 6 0.004109 -0.004109 0.000000 0.000000 0.000000 0.027643
#
#
# Mechanical properties :
#
#
# Convention : Reuss Voigt Hill
#
# Bulk Modulus (GPa) = 57.97339 58.99972 58.48655
# Shear Modulus (GPa) = 40.63929 45.20630 42.92279
#
# Velocity S-wave (km/s) = 4.11304 4.33800 4.22702
# Velocity P-wave (km/s) = 6.83293 7.04635 6.94046
#
# Compressibility (1/GPa) = 0.01724929
#
# Stress axis : x y z
#
# Youngs Moduli (GPa) = 76.30838 76.30838 96.13007
#
# Poissons Ratio (x) = 0.25408 0.30529
# Poissons Ratio (y) = 0.25408 0.30529
# Poissons Ratio (z) = 0.24234 0.24234
#
# Static dielectric constant tensor:
#      x y z
#    x 4.592750 0.000000 0.000000 
#    y 0.000000 4.592750 0.000000 
#    z 0.000000 0.000000 4.182580 
# 
# 
# High freq. dielectric constant tensor:
#      x y z
#    x 1.964720 0.000000 0.000000 
#    y 0.000000 1.964720 0.000000 
#    z 0.000000 0.000000 1.955730 
# 
# From -- ./inp_files/4884.got.cif
#   From: 2010.03.12/outbox.cif.g09.slc.cpg/sg86_3_cif.got.tgz:4884.got - 2010.04.08 20:12:58.
