data_PCOD8303971
_publ_section_title
;
Structure prediction by ZEFSAII (Michael W. Deem and Ramdas Pophale) SiO2 
 PCOD8303971
Probable space group: I 4/M
;
_chemical_formula_sum "Si O2"
_cell_formula_units_Z 120
_cell_length_a 28.187167
_cell_length_b 28.187167
_cell_length_c 8.148641
_cell_angle_alpha 90.000000
_cell_angle_beta 90.000000
_cell_angle_gamma 90.000000
_cell_volume 6474.228778
_symmetry_space_group_name_H-M "I 4/M"
_symmetry_group_IT_number 87
_symmetry_cell_setting 'tetragonal'
loop_
_space_group_symop_operation_xyz
x,y,z
-y,x,z
-x,-y,z
y,-x,z
-x,-y,-z
y,-x,-z
x,y,-z
-y,x,-z
1/2+x,1/2+y,1/2+z
1/2-y,1/2+x,1/2+z
1/2-x,1/2-y,1/2+z
1/2+y,1/2-x,1/2+z
1/2-x,1/2-y,1/2-z
1/2+y,1/2-x,1/2-z
1/2+x,1/2+y,1/2-z
1/2-y,1/2+x,1/2-z
loop_
_atom_site_type_symbol
_atom_site_label
_atom_site_fract_x
_atom_site_fract_y
_atom_site_fract_z
Si Si1 0.180786 0.806975 0.687792
Si Si2 0.297405 0.156112 0.309652
Si Si3 0.473335 0.426052 0.000000
Si Si4 0.254377 0.534865 0.687012
Si Si5 0.732055 0.135156 0.310757
Si Si6 0.985210 0.862739 0.193979
Si Si7 0.086994 0.834679 0.182333
Si Si8 0.940579 0.261609 0.314395
O O1 0.192845 0.800348 0.500000
O O2 0.172131 0.754346 0.761286
O O3 0.226312 0.832274 0.769899
O O4 0.133981 0.840387 0.706532
O O5 0.302751 0.169573 0.500000
O O6 0.338697 0.181792 0.209299
O O7 0.302490 0.098929 0.281952
O O8 0.528369 0.440099 0.000000
O O9 0.461476 0.397228 0.830099
O O10 0.248022 0.521185 0.500000
O O11 0.230810 0.585372 0.718971
O O12 0.310126 0.534360 0.734620
O O13 0.223558 0.495387 0.788137
O O14 0.742556 0.124898 0.500000
O O15 0.041945 0.867165 0.228810
O O16 0.974371 0.875968 0.000000
O O17 0.068132 0.781040 0.188848
O O18 0.104170 0.846688 0.000000
O O19 0.932453 0.242840 0.500000
#
# Coordination Sequence:
#
# PCOD8303971 Si02
#       8
#    16  16   8  16  16  16  16  16
#     4   9  19  32  46  69 102 142 180 211 248 300
#     4   9  18  33  50  70 101 140 176 210 250 302
#     4  11  26  42  58  78  96 128 170 216 284 345
#     4  10  21  36  54  78 104 132 168 215 270 312
#     4  11  22  32  47  74 107 140 172 210 256 306
#     4   9  21  39  59  80 102 130 169 221 277 334
#     4   9  17  29  49  76  97 124 167 210 254 306
#     4   9  17  31  53  74  96 130 171 211 249 296
#
# _framework density 18.535025999999998
#
# number of rings (size 3 to 8) (size 9 to 14) (size 15 to 20)
#    0.000    2.467    0.000    3.600    5.600    5.333 
#    0.000    3.333    0.000    0.000    0.000    0.000 
#    0.000    0.533    0.000    5.600    0.000    2.400 
#
# Total GULP energy -743407.452236 kJ/mol
# GULP energy per Si atom -12390.124204 kJ/mol
# Density = 1.849284 g / cm^3
# Si number density = 18.535026 Si / 1000 Ang^3
#
#
#
# Elastic Constant Matrix: (Units=GPa)
#
#
# Indices 1 2 3 4 5 6 
#
# 1 76.3804 30.3633 14.8708 0.0000 0.0000 0.7229
# 2 30.3633 76.3804 14.8708 0.0000 0.0000 -0.7229
# 3 14.8708 14.8708 51.9162 0.0000 0.0000 0.0000
# 4 0.0000 0.0000 0.0000 20.5545 0.0000 0.0000
# 5 0.0000 0.0000 0.0000 0.0000 20.5545 0.0000
# 6 0.7229 -0.7229 0.0000 0.0000 0.0000 21.0148
#
#
#
# Elastic Compliance Matrix: (Units=1/GPa)
#
#
# Indices 1 2 3 4 5 6 
#
# 1 0.015968 -0.005787 -0.002916 0.000000 0.000000 -0.000748
# 2 -0.005787 0.015968 -0.002916 0.000000 0.000000 0.000748
# 3 -0.002916 -0.002916 0.020932 0.000000 0.000000 0.000000
# 4 0.000000 0.000000 0.000000 0.048651 0.000000 0.000000
# 5 0.000000 0.000000 0.000000 0.000000 0.048651 0.000000
# 6 -0.000748 0.000748 0.000000 0.000000 0.000000 0.047637
#
#
# Mechanical properties :
#
#
# Convention : Reuss Voigt Hill
#
# Bulk Modulus (GPa) = 33.75042 36.09855 34.92448
# Shear Modulus (GPa) = 21.65237 22.06293 21.85765
#
# Velocity S-wave (km/s) = 3.42158 3.45387 3.43776
# Velocity P-wave (km/s) = 5.81878 5.95179 5.88566
#
# Compressibility (1/GPa) = 0.02962926
#
# Stress axis : x y z
#
# Youngs Moduli (GPa) = 62.62657 62.62657 47.77285
#
# Poissons Ratio (x) = 0.36241 0.13931
# Poissons Ratio (y) = 0.36241 0.13931
# Poissons Ratio (z) = 0.18263 0.18263
#
# Static dielectric constant tensor:
#      x y z
#    x 3.287300 0.000000 0.000000 
#    y 0.000000 3.287300 0.000000 
#    z 0.000000 0.000000 3.353330 
# 
# 
# High freq. dielectric constant tensor:
#      x y z
#    x 1.690950 0.000000 0.000000 
#    y 0.000000 1.690950 0.000000 
#    z 0.000000 0.000000 1.722700 
# 
# From -- ./inp_files/1658.got.cif
#   From: 2010.03.12/outbox.cif.g09.slc.cpg/sg87_1_cif.got.tgz:1658.got - 2010.04.08 20:16:13.
