data_PCOD8303167
_publ_section_title
;
Structure prediction by ZEFSAII (Michael W. Deem and Ramdas Pophale) SiO2 
 PCOD8303167
Probable space group: P 42/M
;
_chemical_formula_sum "Si O2"
_cell_formula_units_Z 58
_cell_length_a 18.090244
_cell_length_b 18.090244
_cell_length_c 8.830989
_cell_angle_alpha 90.000000
_cell_angle_beta 90.000000
_cell_angle_gamma 90.000000
_cell_volume 2890.002331
_symmetry_space_group_name_H-M "P 42/M"
_symmetry_group_IT_number 84
_symmetry_cell_setting 'tetragonal'
loop_
_space_group_symop_operation_xyz
x,y,z
-y,x,1/2+z
-x,-y,z
y,-x,1/2+z
-x,-y,-z
y,-x,1/2-z
x,y,-z
-y,x,1/2-z
loop_
_atom_site_type_symbol
_atom_site_label
_atom_site_fract_x
_atom_site_fract_y
_atom_site_fract_z
Si Si1 0.735799 0.632863 0.830032
Si Si2 0.639367 0.413072 0.167061
Si Si3 0.289046 0.118797 0.818974
Si Si4 0.960594 0.682178 0.818799
Si Si5 0.440648 0.868867 0.823060
Si Si6 0.193587 0.575864 0.823417
Si Si7 0.500000 0.500000 0.750000
Si Si8 0.172780 0.225683 0.830988
O O1 0.650891 0.620678 0.785812
O O2 0.788346 0.592039 0.711979
O O3 0.757630 0.718559 0.827236
O O4 0.747156 0.600032 0.000000
O O5 0.720237 0.447342 0.207923
O O6 0.574019 0.474575 0.160915
O O7 0.645320 0.377588 0.000000
O O8 0.343746 0.177202 0.742028
O O9 0.206550 0.148211 0.770779
O O10 0.297507 0.037835 0.753230
O O11 0.299374 0.119024 0.000000
O O12 0.934311 0.601357 0.765298
O O13 0.900053 0.740799 0.749696
O O14 0.965119 0.682160 0.000000
O O15 0.524217 0.864994 0.763924
O O16 0.438282 0.886306 0.000000
O O17 0.174986 0.573359 0.000000
O O18 0.144891 0.213065 0.000000
#
# Coordination Sequence:
#
# PCOD8303167 Si02
#       8
#     8   8   8   8   8   8   2   8
#     4  10  19  36  61  84 111 152 195 246 303 355
#     4  11  24  40  57  81 110 151 205 255 304 360
#     4  11  21  38  62  92 120 153 195 241 291 351
#     4  10  21  39  61  90 122 158 193 237 293 350
#     4  11  22  37  57  85 118 156 198 246 295 354
#     4  11  23  39  59  85 116 155 199 251 303 361
#     4  12  26  40  56  78 118 160 200 262 318 356
#     4   8  17  35  60  86 117 152 188 230 286 344
#
# _framework density 20.069189000000001
#
# number of rings (size 3 to 8) (size 9 to 14) (size 15 to 20)
#    0.000    1.655    1.379    4.759    0.000    3.310 
#    0.000    4.828    0.000    0.414    0.000    2.897 
#    0.000    0.000    0.000    0.000    0.000    0.000 
#
# Total GULP energy -718676.322689 kJ/mol
# GULP energy per Si atom -12390.971081 kJ/mol
# Density = 2.002351 g / cm^3
# Si number density = 20.069189 Si / 1000 Ang^3
#
#
#
# Elastic Constant Matrix: (Units=GPa)
#
#
# Indices 1 2 3 4 5 6 
#
# 1 100.0696 32.5960 25.4684 0.0000 0.0000 1.5944
# 2 32.5960 100.0696 25.4684 0.0000 0.0000 -1.5944
# 3 25.4684 25.4684 73.6307 0.0000 0.0000 0.0000
# 4 0.0000 0.0000 0.0000 26.0051 0.0000 0.0000
# 5 0.0000 0.0000 0.0000 0.0000 26.0051 0.0000
# 6 1.5944 -1.5944 0.0000 0.0000 0.0000 13.2695
#
#
#
# Elastic Compliance Matrix: (Units=1/GPa)
#
#
# Indices 1 2 3 4 5 6 
#
# 1 0.011799 -0.003107 -0.003007 0.000000 0.000000 -0.001791
# 2 -0.003107 0.011799 -0.003007 0.000000 0.000000 0.001791
# 3 -0.003007 -0.003007 0.015661 0.000000 0.000000 0.000000
# 4 0.000000 0.000000 0.000000 0.038454 0.000000 0.000000
# 5 0.000000 0.000000 0.000000 0.000000 0.038454 0.000000
# 6 -0.001791 0.001791 0.000000 0.000000 0.000000 0.075791
#
#
# Mechanical properties :
#
#
# Convention : Reuss Voigt Hill
#
# Bulk Modulus (GPa) = 47.57552 48.98172 48.27862
# Shear Modulus (GPa) = 23.01987 25.73840 24.37914
#
# Velocity S-wave (km/s) = 3.39045 3.58506 3.48911
# Velocity P-wave (km/s) = 6.25173 6.44952 6.35139
#
# Compressibility (1/GPa) = 0.02101922
#
# Stress axis : x y z
#
# Youngs Moduli (GPa) = 84.75521 84.75521 63.85217
#
# Poissons Ratio (x) = 0.26330 0.19197
# Poissons Ratio (y) = 0.26330 0.19197
# Poissons Ratio (z) = 0.25482 0.25482
#
# Static dielectric constant tensor:
#      x y z
#    x 3.674390 0.000000 0.000000 
#    y 0.000000 3.674390 0.000000 
#    z 0.000000 0.000000 3.531860 
# 
# 
# High freq. dielectric constant tensor:
#      x y z
#    x 1.776320 0.000000 0.000000 
#    y 0.000000 1.776320 0.000000 
#    z 0.000000 0.000000 1.776540 
# 
# From -- ./inp_files/1138.got.cif
#   From: 2010.03.12/outbox.cif.g09.slc.cpg/sg84_1_cif.got.tgz:1138.got - 2010.04.08 20:07:29.
