data_PCOD8303644
_publ_section_title
;
Structure prediction by ZEFSAII (Michael W. Deem and Ramdas Pophale) SiO2 
 PCOD8303644
Probable space group: P 42/N
;
_chemical_formula_sum "Si O2"
_cell_formula_units_Z 24
_cell_length_a 9.042002
_cell_length_b 9.042002
_cell_length_c 11.801589
_cell_angle_alpha 90.000000
_cell_angle_beta 90.000000
_cell_angle_gamma 90.000000
_cell_volume 964.871955
_symmetry_space_group_name_H-M "P 42/N"
_symmetry_group_IT_number 86
_space_group.IT_coordinate_system_code '2'
_symmetry_cell_setting 'tetragonal'
loop_
_space_group_symop_operation_xyz
x,y,z
-y,1/2+x,1/2+z
1/2-x,1/2-y,z
1/2+y,-x,1/2+z
-x,-y,-z
y,1/2-x,1/2-z
1/2+x,1/2+y,-z
1/2-y,x,1/2-z
loop_
_atom_site_type_symbol
_atom_site_label
_atom_site_fract_x
_atom_site_fract_y
_atom_site_fract_z
Si Si1 0.978235 0.976106 0.834823
Si Si2 0.654198 0.975943 0.900720
Si Si3 0.255089 0.955518 0.513908
O O1 0.810606 0.921161 0.855957
O O2 0.006854 0.962393 0.701660
O O3 0.001899 0.143886 0.877852
O O4 0.080469 0.861925 0.906863
O O5 0.678297 0.138989 0.959158
O O6 0.592597 0.855568 0.987984
#
# Coordination Sequence:
#
# PCOD8303644 Si02
#       3
#     8   8   8
#     4  11  22  45  71 102 136 187 224 287 349 417
#     4  11  22  45  71 102 136 187 224 287 349 417
#     4  10  24  42  66 102 134 176 236 278 338 410
#
# _framework density 24.873767999999998
#
# number of rings (size 3 to 8) (size 9 to 14) (size 15 to 20)
#    0.000    1.333    3.333    2.000    0.000    0.000 
#   36.000    0.000    0.000    0.000    0.000    0.000 
#    0.000    0.000    0.000    0.000    0.000    0.000 
#
# Total GULP energy -297530.442018 kJ/mol
# GULP energy per Si atom -12397.101751 kJ/mol
# Density = 2.481715 g / cm^3
# Si number density = 24.873768 Si / 1000 Ang^3
#
#
#
# Elastic Constant Matrix: (Units=GPa)
#
#
# Indices 1 2 3 4 5 6 
#
# 1 84.9445 -12.9815 17.0257 0.0000 0.0000 -8.2115
# 2 -12.9815 84.9445 17.0257 0.0000 0.0000 8.2115
# 3 17.0257 17.0257 104.0662 0.0000 0.0000 0.0000
# 4 0.0000 0.0000 0.0000 34.8677 0.0000 0.0000
# 5 0.0000 0.0000 0.0000 0.0000 34.8677 0.0000
# 6 -8.2115 8.2115 0.0000 0.0000 0.0000 35.3854
#
#
#
# Elastic Compliance Matrix: (Units=1/GPa)
#
#
# Indices 1 2 3 4 5 6 
#
# 1 0.012844 0.002218 -0.002464 0.000000 0.000000 0.002466
# 2 0.002218 0.012844 -0.002464 0.000000 0.000000 -0.002466
# 3 -0.002464 -0.002464 0.010416 0.000000 0.000000 0.000000
# 4 0.000000 0.000000 0.000000 0.028680 0.000000 0.000000
# 5 0.000000 0.000000 0.000000 0.000000 0.028680 0.000000
# 6 0.002466 -0.002466 0.000000 0.000000 0.000000 0.029405
#
#
# Mechanical properties :
#
#
# Convention : Reuss Voigt Hill
#
# Bulk Modulus (GPa) = 32.59153 35.12164 33.85659
# Shear Modulus (GPa) = 36.09720 37.88320 36.99020
#
# Velocity S-wave (km/s) = 3.81362 3.90682 3.86050
# Velocity P-wave (km/s) = 5.70287 5.87381 5.78897
#
# Compressibility (1/GPa) = 0.03068282
#
# Stress axis : x y z
#
# Youngs Moduli (GPa) = 77.85930 77.85930 96.00999
#
# Poissons Ratio (x) = -0.17272 0.23659
# Poissons Ratio (y) = -0.17272 0.23659
# Poissons Ratio (z) = 0.19186 0.19186
#
# Static dielectric constant tensor:
#      x y z
#    x 4.468080 0.000000 0.000000 
#    y 0.000000 4.468080 0.000000 
#    z 0.000000 0.000000 4.495750 
# 
# 
# High freq. dielectric constant tensor:
#      x y z
#    x 1.995070 0.000000 0.000000 
#    y 0.000000 1.995070 0.000000 
#    z 0.000000 0.000000 1.977180 
# 
# From -- ./inp_files/2610.got.cif
#   From: 2010.03.12/outbox.cif.g09.slc.cpg/sg86_2_cif.got.tgz:2610.got - 2010.04.08 20:12:58.
