data_PCOD8303718
_publ_section_title
;
Structure prediction by ZEFSAII (Michael W. Deem and Ramdas Pophale) SiO2 
 PCOD8303718
Probable space group: P 42/N
;
_chemical_formula_sum "Si O2"
_cell_formula_units_Z 40
_cell_length_a 18.860107
_cell_length_b 18.860107
_cell_length_c 4.978815
_cell_angle_alpha 90.000000
_cell_angle_beta 90.000000
_cell_angle_gamma 90.000000
_cell_volume 1770.982599
_symmetry_space_group_name_H-M "P 42/N"
_symmetry_group_IT_number 86
_space_group.IT_coordinate_system_code '2'
_symmetry_cell_setting 'tetragonal'
loop_
_space_group_symop_operation_xyz
x,y,z
-y,1/2+x,1/2+z
1/2-x,1/2-y,z
1/2+y,-x,1/2+z
-x,-y,-z
y,1/2-x,1/2-z
1/2+x,1/2+y,-z
1/2-y,x,1/2-z
loop_
_atom_site_type_symbol
_atom_site_label
_atom_site_fract_x
_atom_site_fract_y
_atom_site_fract_z
Si Si1 0.049054 0.012898 0.248512
Si Si2 0.920383 0.250255 0.584953
Si Si3 0.118141 0.152495 0.055383
Si Si4 0.261518 0.082209 0.956090
Si Si5 0.159398 0.894421 0.378914
O O1 0.073073 0.093340 0.211117
O O2 0.117359 0.963243 0.274611
O O3 0.000000 0.000000 0.500000
O O4 0.000000 0.000000 0.000000
O O5 0.895803 0.169516 0.604320
O O6 0.872762 0.285118 0.351870
O O7 0.000421 0.251132 0.471904
O O8 0.911626 0.297367 0.851506
O O9 0.128461 0.207837 0.296944
O O10 0.187162 0.121413 0.908376
O O11 0.078187 0.191346 0.812470
#
# Coordination Sequence:
#
# PCOD8303718 Si02
#       5
#     8   8   8   8   8
#     4  12  25  45  73 107 141 189 255 300 363 429
#     4  12  26  47  71 107 146 191 245 301 369 440
#     4  12  26  46  73 105 146 196 239 310 370 446
#     4  12  27  47  73 105 149 189 248 304 373 443
#     4  12  26  45  74 102 149 191 237 305 364 439
#
# _framework density 22.586331999999999
#
# number of rings (size 3 to 8) (size 9 to 14) (size 15 to 20)
#    0.000    0.000    2.000    8.400    2.800    4.800 
#    0.000    0.000    0.000    0.000    0.000    0.000 
#    0.000    0.000    0.000    0.000    0.000    0.000 
#
# Total GULP energy -495923.706083 kJ/mol
# GULP energy per Si atom -12398.092652 kJ/mol
# Density = 2.253492 g / cm^3
# Si number density = 22.586332 Si / 1000 Ang^3
#
#
#
# Elastic Constant Matrix: (Units=GPa)
#
#
# Indices 1 2 3 4 5 6 
#
# 1 101.3227 35.6600 41.0869 0.0000 0.0000 4.9995
# 2 35.6600 101.3227 41.0869 0.0000 0.0000 -4.9995
# 3 41.0869 41.0869 158.6327 0.0000 0.0000 0.0000
# 4 0.0000 0.0000 0.0000 40.7793 0.0000 0.0000
# 5 0.0000 0.0000 0.0000 0.0000 40.7793 0.0000
# 6 4.9995 -4.9995 0.0000 0.0000 0.0000 31.9346
#
#
#
# Elastic Compliance Matrix: (Units=1/GPa)
#
#
# Indices 1 2 3 4 5 6 
#
# 1 0.012122 -0.003479 -0.002239 0.000000 0.000000 -0.002442
# 2 -0.003479 0.012122 -0.002239 0.000000 0.000000 0.002442
# 3 -0.002239 -0.002239 0.007464 0.000000 0.000000 0.000000
# 4 0.000000 0.000000 0.000000 0.024522 0.000000 0.000000
# 5 0.000000 0.000000 0.000000 0.000000 0.024522 0.000000
# 6 -0.002442 0.002442 0.000000 0.000000 0.000000 0.032079
#
#
# Mechanical properties :
#
#
# Convention : Reuss Voigt Hill
#
# Bulk Modulus (GPa) = 63.31022 66.32729 64.81875
# Shear Modulus (GPa) = 37.31097 38.92827 38.11962
#
# Velocity S-wave (km/s) = 4.06880 4.15605 4.11266
# Velocity P-wave (km/s) = 7.08270 7.24294 7.16327
#
# Compressibility (1/GPa) = 0.01579524
#
# Stress axis : x y z
#
# Youngs Moduli (GPa) = 82.49328 82.49328 133.98532
#
# Poissons Ratio (x) = 0.28700 0.29994
# Poissons Ratio (y) = 0.28700 0.29994
# Poissons Ratio (z) = 0.18467 0.18467
#
# Static dielectric constant tensor:
#      x y z
#    x 4.276680 0.000000 0.000000 
#    y 0.000000 4.276680 0.000000 
#    z 0.000000 0.000000 4.226850 
# 
# 
# High freq. dielectric constant tensor:
#      x y z
#    x 1.902430 0.000000 0.000000 
#    y 0.000000 1.902430 0.000000 
#    z 0.000000 0.000000 1.909670 
# 
# From -- ./inp_files/307.got.cif
#   From: 2010.03.12/outbox.cif.g09.slc.cpg/sg86_1_cif.got.tgz:307.got - 2010.04.08 20:12:58.
