data_PCOD8303040
_publ_section_title
;
Structure prediction by ZEFSAII (Michael W. Deem and Ramdas Pophale) SiO2 
 PCOD8303040
Probable space group: P 4/M
;
_chemical_formula_sum "Si O2"
_cell_formula_units_Z 64
_cell_length_a 20.283895
_cell_length_b 20.283895
_cell_length_c 9.285866
_cell_angle_alpha 90.000000
_cell_angle_beta 90.000000
_cell_angle_gamma 90.000000
_cell_volume 3820.543244
_symmetry_space_group_name_H-M "P 4/M"
_symmetry_group_IT_number 83
_symmetry_cell_setting 'tetragonal'
loop_
_space_group_symop_operation_xyz
x,y,z
-y,x,z
-x,-y,z
y,-x,z
-x,-y,-z
y,-x,-z
x,y,-z
-y,x,-z
loop_
_atom_site_type_symbol
_atom_site_label
_atom_site_fract_x
_atom_site_fract_y
_atom_site_fract_z
Si Si1 0.073741 0.926279 0.328625
Si Si2 0.324668 0.820966 0.328886
Si Si3 0.424567 0.424544 0.167795
Si Si4 0.820985 0.324649 0.328888
Si Si5 0.672299 0.327717 0.330018
Si Si6 0.073488 0.426339 0.671408
Si Si7 0.926527 0.426323 0.671408
Si Si8 0.177738 0.177756 0.671605
O O1 0.076173 0.923845 0.500000
O O2 0.125742 0.874292 0.261908
O O3 0.000012 0.907737 0.275894
O O4 0.325658 0.824451 0.500000
O O5 0.344325 0.747054 0.281087
O O6 0.376142 0.873122 0.261258
O O7 0.251413 0.839939 0.274294
O O8 0.500014 0.408300 0.208502
O O9 0.377325 0.377283 0.255786
O O10 0.412535 0.412509 0.000000
O O11 0.824474 0.325647 0.500000
O O12 0.747076 0.344313 0.281088
O O13 0.873148 0.376115 0.261254
O O14 0.839950 0.251390 0.274308
O O15 0.664334 0.335682 0.500000
O O16 0.076726 0.424634 0.500000
O O17 0.090066 0.500009 0.726278
O O18 0.000010 0.405785 0.722374
O O19 0.923288 0.424617 0.500000
O O20 0.175346 0.175373 0.500000
#
# Coordination Sequence:
#
# PCOD8303040 Si02
#       8
#     8   8   8   8   8   8   8   8
#     4   8  13  19  25  35  53  81 125 176 209 229
#     4   8  14  23  33  49  74  99 125 160 198 236
#     4   9  19  35  50  63  83 110 137 167 202 240
#     4   8  14  23  33  49  74  99 125 160 198 236
#     4   9  17  28  43  64  87 109 134 168 210 250
#     4   8  13  20  29  42  63  93 125 152 181 222
#     4   8  13  20  29  42  63  93 125 152 181 222
#     4   8  13  20  28  38  56  84 115 149 193 237
#
# _framework density 16.751545
#
# number of rings (size 3 to 8) (size 9 to 14) (size 15 to 20)
#    0.000    3.750    0.000    3.000    0.000    2.500 
#    0.000    8.125    0.000    0.000    0.000    0.000 
#    0.000    1.000    0.000    5.500    0.000    6.500 
#
# Total GULP energy -793007.149073 kJ/mol
# GULP energy per Si atom -12390.736704 kJ/mol
# Density = 1.671342 g / cm^3
# Si number density = 16.751545 Si / 1000 Ang^3
#
#
#
# Elastic Constant Matrix: (Units=GPa)
#
#
# Indices 1 2 3 4 5 6 
#
# 1 153.7811 124.0953 19.3584 0.0000 0.0000 -0.0002
# 2 124.0953 153.7811 19.3584 0.0000 0.0000 0.0002
# 3 19.3584 19.3584 9.6994 0.0000 0.0000 0.0000
# 4 0.0000 0.0000 0.0000 3.5494 0.0000 0.0000
# 5 0.0000 0.0000 0.0000 0.0000 3.5494 0.0000
# 6 -0.0002 0.0002 0.0000 0.0000 0.0000 44.9530
#
#
#
# Elastic Compliance Matrix: (Units=1/GPa)
#
#
# Indices 1 2 3 4 5 6 
#
# 1 0.019336 -0.014351 -0.009949 0.000000 0.000000 0.000000
# 2 -0.014351 0.019336 -0.009949 0.000000 0.000000 0.000000
# 3 -0.009949 -0.009949 0.142814 0.000000 0.000000 0.000000
# 4 0.000000 0.000000 0.000000 0.281737 0.000000 0.000000
# 5 0.000000 0.000000 0.000000 0.000000 0.281737 0.000000
# 6 0.000000 0.000000 0.000000 0.000000 0.000000 0.022245
#
#
# Mechanical properties :
#
#
# Convention : Reuss Voigt Hill
#
# Bulk Modulus (GPa) = 8.85058 71.43177 40.14118
# Shear Modulus (GPa) = 5.72498 20.70699 13.21599
#
# Velocity S-wave (km/s) = 1.85068 3.51967 2.81186
# Velocity P-wave (km/s) = 3.14032 7.69753 5.87850
#
# Compressibility (1/GPa) = 0.11298689
#
# Stress axis : x y z
#
# Youngs Moduli (GPa) = 51.71826 51.71826 7.00212
#
# Poissons Ratio (x) = 0.74219 0.06967
# Poissons Ratio (y) = 0.74219 0.06967
# Poissons Ratio (z) = 0.51456 0.51456
#
# Static dielectric constant tensor:
#      x y z
#    x 3.494940 0.000000 0.000000 
#    y 0.000000 3.494940 0.000000 
#    z 0.000000 0.000000 2.336920 
# 
# 
# High freq. dielectric constant tensor:
#      x y z
#    x 1.655330 0.000000 0.000000 
#    y 0.000000 1.655330 0.000000 
#    z 0.000000 0.000000 1.556980 
# 
# From -- ./inp_files/1304.got.cif
#   From: 2010.03.12/outbox.cif.g09.slc.cpg/sg83_1_cif.got.tgz:1304.got - 2010.04.08 20:05:18.
