data_PCOD8303360
_publ_section_title
;
Structure prediction by ZEFSAII (Michael W. Deem and Ramdas Pophale) SiO2 
 PCOD8303360
Probable space group: P 42/M
;
_chemical_formula_sum "Si O2"
_cell_formula_units_Z 48
_cell_length_a 9.005846
_cell_length_b 9.005846
_cell_length_c 29.739235
_cell_angle_alpha 90.000000
_cell_angle_beta 90.000000
_cell_angle_gamma 90.000000
_cell_volume 2412.008452
_symmetry_space_group_name_H-M "P 42/M"
_symmetry_group_IT_number 84
_symmetry_cell_setting 'tetragonal'
loop_
_space_group_symop_operation_xyz
x,y,z
-y,x,1/2+z
-x,-y,z
y,-x,1/2+z
-x,-y,-z
y,-x,1/2-z
x,y,-z
-y,x,1/2-z
loop_
_atom_site_type_symbol
_atom_site_label
_atom_site_fract_x
_atom_site_fract_y
_atom_site_fract_z
Si Si1 0.542055 0.664445 0.140868
Si Si2 0.155706 0.244739 0.644686
Si Si3 0.666268 0.956305 0.292148
Si Si4 0.228463 0.587736 0.548341
Si Si5 0.849240 0.246245 0.698881
Si Si6 0.729226 0.075325 0.951191
O O1 0.500000 0.500000 0.157245
O O2 0.413678 0.787286 0.145644
O O3 0.597397 0.654122 0.088984
O O4 0.676625 0.718750 0.171216
O O5 0.282109 0.148125 0.667502
O O6 0.136258 0.185345 0.593075
O O7 0.000034 0.233685 0.670543
O O8 0.661373 0.873405 0.244406
O O9 0.500000 0.000000 0.304988
O O10 0.786575 0.086476 0.287554
O O11 0.309040 0.615339 0.500000
O O12 0.151558 0.429272 0.547428
O O13 0.101282 0.711276 0.555446
O O14 0.809399 0.106419 0.000000
#
# Coordination Sequence:
#
# PCOD8303360 Si02
#       6
#     8   8   8   8   8   8
#     4  11  22  37  58  92 128 160 197 252 315 364
#     4  11  21  39  64  88 119 162 206 255 298 369
#     4  12  26  43  61  88 118 155 202 256 310 370
#     4   8  14  27  51  84 122 157 196 245 299 362
#     4  12  24  42  63  86 118 159 205 249 307 372
#     4   8  14  28  55  87 115 153 203 251 299 358
#
# _framework density 19.900426
#
# number of rings (size 3 to 8) (size 9 to 14) (size 15 to 20)
#    0.000    1.667    3.333    4.000    0.000    0.333 
#    0.000    0.000    0.000    3.500    0.000    0.000 
#    0.000    0.000    0.000    0.000    0.000    0.000 
#
# Total GULP energy -594957.824885 kJ/mol
# GULP energy per Si atom -12394.954685 kJ/mol
# Density = 1.985513 g / cm^3
# Si number density = 19.900426 Si / 1000 Ang^3
#
#
#
# Elastic Constant Matrix: (Units=GPa)
#
#
# Indices 1 2 3 4 5 6 
#
# 1 55.5583 14.0881 44.4306 0.0000 0.0000 -5.5498
# 2 14.0881 55.5583 44.4306 0.0000 0.0000 5.5498
# 3 44.4306 44.4306 171.3358 0.0000 0.0000 0.0000
# 4 0.0000 0.0000 0.0000 19.3402 0.0000 0.0000
# 5 0.0000 0.0000 0.0000 0.0000 19.3402 0.0000
# 6 -5.5498 5.5498 0.0000 0.0000 0.0000 33.3987
#
#
#
# Elastic Compliance Matrix: (Units=1/GPa)
#
#
# Indices 1 2 3 4 5 6 
#
# 1 0.023347 -0.001889 -0.005564 0.000000 0.000000 0.004193
# 2 -0.001889 0.023347 -0.005564 0.000000 0.000000 -0.004193
# 3 -0.005564 -0.005564 0.008722 0.000000 0.000000 0.000000
# 4 0.000000 0.000000 0.000000 0.051706 0.000000 0.000000
# 5 0.000000 0.000000 0.000000 0.000000 0.051706 0.000000
# 6 0.004193 -0.004193 0.000000 0.000000 0.000000 0.031335
#
#
# Mechanical properties :
#
#
# Convention : Reuss Voigt Hill
#
# Bulk Modulus (GPa) = 34.03629 54.26120 44.14875
# Shear Modulus (GPa) = 22.12468 26.38271 24.25370
#
# Velocity S-wave (km/s) = 3.33794 3.64502 3.49485
# Velocity P-wave (km/s) = 5.65652 6.71121 6.20631
#
# Compressibility (1/GPa) = 0.02938040
#
# Stress axis : x y z
#
# Youngs Moduli (GPa) = 42.83217 42.83217 114.64723
#
# Poissons Ratio (x) = 0.08091 0.63795
# Poissons Ratio (y) = 0.08091 0.63795
# Poissons Ratio (z) = 0.23834 0.23834
#
# Static dielectric constant tensor:
#      x y z
#    x 3.359480 0.000000 0.000000 
#    y 0.000000 3.359480 0.000000 
#    z 0.000000 0.000000 4.353000 
# 
# 
# High freq. dielectric constant tensor:
#      x y z
#    x 1.749900 0.000000 0.000000 
#    y 0.000000 1.749900 0.000000 
#    z 0.000000 0.000000 1.802830 
# 
# From -- ./inp_files/5774.got.cif
#   From: 2010.03.12/outbox.cif.g09.slc.cpg/sg84_3_cif.got.tgz:5774.got - 2010.04.08 20:07:29.
