data_PCOD8303514
_publ_section_title
;
Structure prediction by ZEFSAII (Michael W. Deem and Ramdas Pophale) SiO2 
 PCOD8303514
Probable space group: P 42/N
;
_chemical_formula_sum "Si O2"
_cell_formula_units_Z 52
_cell_length_a 17.297236
_cell_length_b 17.297236
_cell_length_c 9.329491
_cell_angle_alpha 90.000000
_cell_angle_beta 90.000000
_cell_angle_gamma 90.000000
_cell_volume 2791.331212
_symmetry_space_group_name_H-M "P 42/N"
_symmetry_group_IT_number 86
_space_group.IT_coordinate_system_code '2'
_symmetry_cell_setting 'tetragonal'
loop_
_space_group_symop_operation_xyz
x,y,z
-y,1/2+x,1/2+z
1/2-x,1/2-y,z
1/2+y,-x,1/2+z
-x,-y,-z
y,1/2-x,1/2-z
1/2+x,1/2+y,-z
1/2-y,x,1/2-z
loop_
_atom_site_type_symbol
_atom_site_label
_atom_site_fract_x
_atom_site_fract_y
_atom_site_fract_z
Si Si1 0.750000 0.250000 0.000000
Si Si2 0.285507 0.370936 0.585428
Si Si3 0.110125 0.836208 0.091856
Si Si4 0.713933 0.476627 0.580461
Si Si5 0.286067 0.523373 0.080460
Si Si6 0.129064 0.285507 0.585428
Si Si7 0.389875 0.663792 0.408143
O O1 0.816736 0.220543 0.894640
O O2 0.720543 0.183264 0.105361
O O3 0.309155 0.440569 0.481931
O O4 0.198405 0.344236 0.552668
O O5 0.344236 0.301594 0.552668
O O6 0.292822 0.397598 0.750000
O O7 0.143073 0.919205 0.038267
O O8 0.072207 0.843719 0.250000
O O9 0.048891 0.797602 0.983515
O O10 0.724074 0.480652 0.750000
O O11 0.643073 0.419205 0.538267
O O12 0.309155 0.440569 0.018069
O O13 0.202398 0.548891 0.016485
#
# Coordination Sequence:
#
# PCOD8303514 Si02
#       7
#     4   8   8   8   8   8   8
#     4   8  14  24  44  70  94 128 176 214 238 280
#     4   9  19  37  59  78  96 125 166 209 255 306
#     4   9  17  29  46  70 103 138 168 202 246 295
#     4  10  20  32  50  78 106 134 170 208 248 294
#     4  10  20  32  50  78 106 134 170 208 248 294
#     4   9  19  37  59  78  96 125 166 209 255 306
#     4   9  17  29  46  70 103 138 168 202 246 295
#
# _framework density 18.629104999999999
#
# number of rings (size 3 to 8) (size 9 to 14) (size 15 to 20)
#    0.000    2.769    0.000    2.308    0.000    9.846 
#    0.000    3.077    0.000    0.000    0.000    0.000 
#    0.000    0.000    0.000    0.000    0.000    0.000 
#
# Total GULP energy -644491.412252 kJ/mol
# GULP energy per Si atom -12394.065620 kJ/mol
# Density = 1.858670 g / cm^3
# Si number density = 18.629105 Si / 1000 Ang^3
#
#
#
# Elastic Constant Matrix: (Units=GPa)
#
#
# Indices 1 2 3 4 5 6 
#
# 1 41.8299 -24.7398 6.5407 0.0000 0.0000 -2.3854
# 2 -24.7398 41.8299 6.5407 0.0000 0.0000 2.3854
# 3 6.5407 6.5407 65.0773 0.0000 0.0000 0.0000
# 4 0.0000 0.0000 0.0000 27.2135 0.0000 0.0000
# 5 0.0000 0.0000 0.0000 0.0000 27.2135 0.0000
# 6 -2.3854 2.3854 0.0000 0.0000 0.0000 14.8573
#
#
#
# Elastic Compliance Matrix: (Units=1/GPa)
#
#
# Indices 1 2 3 4 5 6 
#
# 1 0.039293 0.024097 -0.006371 0.000000 0.000000 0.002440
# 2 0.024097 0.039293 -0.006371 0.000000 0.000000 -0.002440
# 3 -0.006371 -0.006371 0.016647 0.000000 0.000000 0.000000
# 4 0.000000 0.000000 0.000000 0.036747 0.000000 0.000000
# 5 0.000000 0.000000 0.000000 0.000000 0.036747 0.000000
# 6 0.002440 -0.002440 0.000000 0.000000 0.000000 0.068090
#
#
# Mechanical properties :
#
#
# Convention : Reuss Voigt Hill
#
# Bulk Modulus (GPa) = 8.47870 13.93557 11.20713
# Shear Modulus (GPa) = 19.72991 24.54989 22.13990
#
# Velocity S-wave (km/s) = 3.25790 3.63412 3.45114
# Velocity P-wave (km/s) = 4.32586 5.01058 4.68076
#
# Compressibility (1/GPa) = 0.11794264
#
# Stress axis : x y z
#
# Youngs Moduli (GPa) = 25.44961 25.44961 60.07084
#
# Poissons Ratio (x) = -0.61325 0.38272
# Poissons Ratio (y) = -0.61325 0.38272
# Poissons Ratio (z) = 0.16214 0.16214
#
# Static dielectric constant tensor:
#      x y z
#    x 3.293850 0.000000 0.000000 
#    y 0.000000 3.293850 0.000000 
#    z 0.000000 0.000000 3.262630 
# 
# 
# High freq. dielectric constant tensor:
#      x y z
#    x 1.706940 0.000000 0.000000 
#    y 0.000000 1.706940 0.000000 
#    z 0.000000 0.000000 1.720350 
# 
# From -- ./inp_files/1396.got.cif
#   From: 2010.03.12/outbox.cif.g09.slc.cpg/sg86_1_cif.got.tgz:1396.got - 2010.04.08 20:12:58.
