data_PCOD8303479
_publ_section_title
;
Structure prediction by ZEFSAII (Michael W. Deem and Ramdas Pophale) SiO2 
 PCOD8303479
Probable space group: P 42/N
;
_chemical_formula_sum "Si O2"
_cell_formula_units_Z 48
_cell_length_a 12.013009
_cell_length_b 12.013009
_cell_length_c 18.290676
_cell_angle_alpha 90.000000
_cell_angle_beta 90.000000
_cell_angle_gamma 90.000000
_cell_volume 2639.571081
_symmetry_space_group_name_H-M "P 42/N"
_symmetry_group_IT_number 86
_space_group.IT_coordinate_system_code '2'
_symmetry_cell_setting 'tetragonal'
loop_
_space_group_symop_operation_xyz
x,y,z
-y,1/2+x,1/2+z
1/2-x,1/2-y,z
1/2+y,-x,1/2+z
-x,-y,-z
y,1/2-x,1/2-z
1/2+x,1/2+y,-z
1/2-y,x,1/2-z
loop_
_atom_site_type_symbol
_atom_site_label
_atom_site_fract_x
_atom_site_fract_y
_atom_site_fract_z
Si Si1 0.599528 0.048986 0.807330
Si Si2 0.858876 0.482271 0.641785
Si Si3 0.891448 0.083585 0.651791
Si Si4 0.676279 0.484419 0.891073
Si Si5 0.376441 0.771761 0.460640
Si Si6 0.790481 0.375244 0.299341
O O1 0.586008 0.028094 0.721173
O O2 0.721986 0.009968 0.833711
O O3 0.563148 0.176863 0.821664
O O4 0.512736 0.980864 0.854707
O O5 0.726495 0.479845 0.651080
O O6 0.892387 0.380933 0.589026
O O7 0.904404 0.599837 0.609235
O O8 0.911034 0.162977 0.583553
O O9 0.914104 0.156126 0.723759
O O10 0.604289 0.377302 0.865165
O O11 0.720004 0.461315 0.972213
O O12 0.250000 0.750000 0.487880
O O13 0.750000 0.250000 0.285961
#
# Coordination Sequence:
#
# PCOD8303479 Si02
#       6
#     8   8   8   8   8   8
#     4  11  20  34  58  85 112 152 188 236 280 340
#     4  11  19  35  59  85 115 149 186 237 287 335
#     4  11  20  35  58  84 113 148 191 231 289 335
#     4  11  22  35  57  87 116 146 191 233 289 336
#     4  10  21  37  58  84 114 154 194 238 275 334
#     4  10  17  34  56  78 107 144 192 228 260 334
#
# _framework density 18.184773
#
# number of rings (size 3 to 8) (size 9 to 14) (size 15 to 20)
#    0.000    1.333    6.667    2.500    0.000    1.333 
#    0.000    1.667    0.000    5.500    0.000    0.000 
#    0.000    0.000    0.000    0.000    0.000    0.000 
#
# Total GULP energy -594997.889782 kJ/mol
# GULP energy per Si atom -12395.789370 kJ/mol
# Density = 1.814338 g / cm^3
# Si number density = 18.184773 Si / 1000 Ang^3
#
#
#
# Elastic Constant Matrix: (Units=GPa)
#
#
# Indices 1 2 3 4 5 6 
#
# 1 86.9821 57.5154 27.4371 0.0000 0.0000 -5.2685
# 2 57.5154 86.9821 27.4371 0.0000 0.0000 5.2685
# 3 27.4371 27.4371 87.4388 0.0000 0.0000 0.0000
# 4 0.0000 0.0000 0.0000 20.5255 0.0000 0.0000
# 5 0.0000 0.0000 0.0000 0.0000 20.5255 0.0000
# 6 -5.2685 5.2685 0.0000 0.0000 0.0000 27.0149
#
#
#
# Elastic Compliance Matrix: (Units=1/GPa)
#
#
# Indices 1 2 3 4 5 6 
#
# 1 0.022169 -0.014312 -0.002465 0.000000 0.000000 0.007115
# 2 -0.014312 0.022169 -0.002465 0.000000 0.000000 -0.007115
# 3 -0.002465 -0.002465 0.012984 0.000000 0.000000 0.000000
# 4 0.000000 0.000000 0.000000 0.048720 0.000000 0.000000
# 5 0.000000 0.000000 0.000000 0.000000 0.048720 0.000000
# 6 0.007115 -0.007115 0.000000 0.000000 0.000000 0.039792
#
#
# Mechanical properties :
#
#
# Convention : Reuss Voigt Hill
#
# Bulk Modulus (GPa) = 53.09010 54.02026 53.55518
# Shear Modulus (GPa) = 20.89280 23.54739 22.22009
#
# Velocity S-wave (km/s) = 3.39325 3.60237 3.49937
# Velocity P-wave (km/s) = 6.67910 6.86102 6.77067
#
# Compressibility (1/GPa) = 0.01883590
#
# Stress axis : x y z
#
# Youngs Moduli (GPa) = 45.10850 45.10850 77.01934
#
# Poissons Ratio (x) = 0.64559 0.18988
# Poissons Ratio (y) = 0.64559 0.18988
# Poissons Ratio (z) = 0.11121 0.11121
#
# Static dielectric constant tensor:
#      x y z
#    x 3.483680 0.000000 0.000000 
#    y 0.000000 3.483680 0.000000 
#    z 0.000000 0.000000 3.346120 
# 
# 
# High freq. dielectric constant tensor:
#      x y z
#    x 1.692140 0.000000 0.000000 
#    y 0.000000 1.692140 0.000000 
#    z 0.000000 0.000000 1.709190 
# 
# From -- ./inp_files/3547.got.cif
#   From: 2010.03.12/outbox.cif.g09.slc.cpg/sg86_2_cif.got.tgz:3547.got - 2010.04.08 20:12:58.
