data_PCOD8303888
_publ_section_title
;
Structure prediction by ZEFSAII (Michael W. Deem and Ramdas Pophale) SiO2 
 PCOD8303888
Probable space group: I 4/M
;
_chemical_formula_sum "Si O2"
_cell_formula_units_Z 64
_cell_length_a 19.730492
_cell_length_b 19.730492
_cell_length_c 8.991476
_cell_angle_alpha 90.000000
_cell_angle_beta 90.000000
_cell_angle_gamma 90.000000
_cell_volume 3500.312503
_symmetry_space_group_name_H-M "I 4/M"
_symmetry_group_IT_number 87
_symmetry_cell_setting 'tetragonal'
loop_
_space_group_symop_operation_xyz
x,y,z
-y,x,z
-x,-y,z
y,-x,z
-x,-y,-z
y,-x,-z
x,y,-z
-y,x,-z
1/2+x,1/2+y,1/2+z
1/2-y,1/2+x,1/2+z
1/2-x,1/2-y,1/2+z
1/2+y,1/2-x,1/2+z
1/2-x,1/2-y,1/2-z
1/2+y,1/2-x,1/2-z
1/2+x,1/2+y,1/2-z
1/2-y,1/2+x,1/2-z
loop_
_atom_site_type_symbol
_atom_site_label
_atom_site_fract_x
_atom_site_fract_y
_atom_site_fract_z
Si Si1 0.334134 0.805566 0.173292
Si Si2 0.411196 0.564078 0.826571
Si Si3 0.681265 0.330306 0.325636
Si Si4 0.562940 0.076896 0.823256
O O1 0.353319 0.736796 0.258416
O O2 0.260163 0.832625 0.220485
O O3 0.388372 0.861620 0.219133
O O4 0.336655 0.788830 0.000000
O O5 0.406868 0.484997 0.784105
O O6 0.353586 0.602422 0.735875
O O7 0.397482 0.574456 0.000000
O O8 0.671077 0.328404 0.500000
O O9 0.489902 0.093504 0.753798
O O10 0.557255 0.065752 0.000000
#
# Coordination Sequence:
#
# PCOD8303888 Si02
#       4
#    16  16  16  16
#     4   9  20  37  53  73 104 139 172 208 254 309
#     4   9  19  36  55  75 103 139 175 209 250 305
#     4  10  20  34  54  79 105 133 170 216 258 299
#     4  10  20  35  54  76 104 135 171 213 256 305
#
# _framework density 18.284082000000001
#
# number of rings (size 3 to 8) (size 9 to 14) (size 15 to 20)
#    0.000    2.500    0.000    3.000    0.000    6.000 
#    0.000    6.250    0.000    0.000    0.000    0.000 
#    0.000    0.000    0.000    0.000    0.000    0.000 
#
# Total GULP energy -396871.071709 kJ/mol
# GULP energy per Si atom -12402.220991 kJ/mol
# Density = 1.824247 g / cm^3
# Si number density = 18.284082 Si / 1000 Ang^3
#
#
#
# Elastic Constant Matrix: (Units=GPa)
#
#
# Indices 1 2 3 4 5 6 
#
# 1 28.6315 0.7112 11.6898 0.0000 0.0000 -0.3467
# 2 0.7112 28.6315 11.6898 0.0000 0.0000 0.3467
# 3 11.6898 11.6898 51.0208 0.0000 0.0000 0.0000
# 4 0.0000 0.0000 0.0000 32.0651 0.0000 0.0000
# 5 0.0000 0.0000 0.0000 0.0000 32.0651 0.0000
# 6 -0.3467 0.3467 0.0000 0.0000 0.0000 40.4312
#
#
#
# Elastic Compliance Matrix: (Units=1/GPa)
#
#
# Indices 1 2 3 4 5 6 
#
# 1 0.038758 0.002934 -0.009552 0.000000 0.000000 0.000307
# 2 0.002934 0.038758 -0.009552 0.000000 0.000000 -0.000307
# 3 -0.009552 -0.009552 0.023977 0.000000 0.000000 0.000000
# 4 0.000000 0.000000 0.000000 0.031187 0.000000 0.000000
# 5 0.000000 0.000000 0.000000 0.000000 0.031187 0.000000
# 6 0.000307 -0.000307 0.000000 0.000000 0.000000 0.024739
#
#
# Mechanical properties :
#
#
# Convention : Reuss Voigt Hill
#
# Bulk Modulus (GPa) = 14.46126 17.38506 15.92316
# Shear Modulus (GPa) = 20.49216 26.52511 23.50864
#
# Velocity S-wave (km/s) = 3.35141 3.81297 3.58962
# Velocity P-wave (km/s) = 4.78564 5.37716 5.09000
#
# Compressibility (1/GPa) = 0.06915028
#
# Stress axis : x y z
#
# Youngs Moduli (GPa) = 25.80145 25.80145 41.70657
#
# Poissons Ratio (x) = -0.07569 0.39839
# Poissons Ratio (y) = -0.07569 0.39839
# Poissons Ratio (z) = 0.24646 0.24646
#
# Static dielectric constant tensor:
#      x y z
#    x 3.373400 0.000000 0.000000 
#    y 0.000000 3.373400 0.000000 
#    z 0.000000 0.000000 3.346800 
# 
# 
# High freq. dielectric constant tensor:
#      x y z
#    x 1.709700 0.000000 0.000000 
#    y 0.000000 1.709700 0.000000 
#    z 0.000000 0.000000 1.712840 
# 
# From -- ./inp_files/911.got.cif
#   From: 2010.03.12/outbox.cif.g09.slc.cpg/sg87_1_cif.got.tgz:911.got - 2010.04.08 20:16:13.
