data_PCOD8303610
_publ_section_title
;
Structure prediction by ZEFSAII (Michael W. Deem and Ramdas Pophale) SiO2 
 PCOD8303610
Probable space group: P 42/N
;
_chemical_formula_sum "Si O2"
_cell_formula_units_Z 54
_cell_length_a 14.406022
_cell_length_b 14.406022
_cell_length_c 11.770761
_cell_angle_alpha 90.000000
_cell_angle_beta 90.000000
_cell_angle_gamma 90.000000
_cell_volume 2442.826873
_symmetry_space_group_name_H-M "P 42/N"
_symmetry_group_IT_number 86
_space_group.IT_coordinate_system_code '2'
_symmetry_cell_setting 'tetragonal'
loop_
_space_group_symop_operation_xyz
x,y,z
-y,1/2+x,1/2+z
1/2-x,1/2-y,z
1/2+y,-x,1/2+z
-x,-y,-z
y,1/2-x,1/2-z
1/2+x,1/2+y,-z
1/2-y,x,1/2-z
loop_
_atom_site_type_symbol
_atom_site_label
_atom_site_fract_x
_atom_site_fract_y
_atom_site_fract_z
Si Si1 0.250000 0.250000 0.750000
Si Si2 0.486466 0.523435 0.127924
Si Si3 0.281907 0.052492 0.662025
Si Si4 0.585038 0.281990 0.634454
Si Si5 0.561142 0.220262 0.397050
Si Si6 0.750000 0.250000 0.286322
Si Si7 0.984266 0.909524 0.657710
Si Si8 0.026432 0.635398 0.988556
O O1 0.242634 0.157404 0.671689
O O2 0.556768 0.608590 0.139780
O O3 0.379711 0.547802 0.158303
O O4 0.505318 0.438116 0.212433
O O5 0.500000 0.500000 0.000000
O O6 0.283712 0.004051 0.785104
O O7 0.231295 0.996357 0.557545
O O8 0.552456 0.215371 0.532768
O O9 0.662900 0.232558 0.707014
O O10 0.628354 0.378901 0.586123
O O11 0.664402 0.251226 0.370345
O O12 0.489802 0.297703 0.348628
O O13 0.060586 0.966229 0.587615
O O14 0.886680 0.942662 0.600661
#
# Coordination Sequence:
#
# PCOD8303610 Si02
#       8
#     2   8   8   8   8   4   8   8
#     4  12  32  44  76  96 146 196 264 308 344 426
#     4  12  28  45  69 103 146 188 237 302 367 426
#     4  12  26  47  71 106 144 188 249 301 358 435
#     4  11  23  40  71 102 151 175 236 297 371 432
#     4  11  26  40  68 105 135 188 231 298 364 430
#     4  12  22  40  66 106 144 176 232 284 376 440
#     4  10  22  44  67  97 141 187 235 280 367 425
#     4  10  22  42  75 100 136 190 231 291 356 428
#
# _framework density 22.105537000000002
#
# number of rings (size 3 to 8) (size 9 to 14) (size 15 to 20)
#    0.000    0.889    2.963    3.111   12.444    1.185 
#    0.000    0.000    0.000    2.222    0.000    0.000 
#    0.000    0.000    0.000    0.000    0.000    0.000 
#
# Total GULP energy -669084.258816 kJ/mol
# GULP energy per Si atom -12390.449237 kJ/mol
# Density = 2.205522 g / cm^3
# Si number density = 22.105537 Si / 1000 Ang^3
#
#
#
# Elastic Constant Matrix: (Units=GPa)
#
#
# Indices 1 2 3 4 5 6 
#
# 1 67.3759 25.4678 21.5905 0.0000 0.0000 5.3703
# 2 25.4678 67.3759 21.5905 0.0000 0.0000 -5.3703
# 3 21.5905 21.5905 133.0768 0.0000 0.0000 0.0000
# 4 0.0000 0.0000 0.0000 77.4528 0.0000 0.0000
# 5 0.0000 0.0000 0.0000 0.0000 77.4528 0.0000
# 6 5.3703 -5.3703 0.0000 0.0000 0.0000 27.7899
#
#
#
# Elastic Compliance Matrix: (Units=1/GPa)
#
#
# Indices 1 2 3 4 5 6 
#
# 1 0.018377 -0.006728 -0.001890 0.000000 0.000000 -0.004851
# 2 -0.006728 0.018377 -0.001890 0.000000 0.000000 0.004851
# 3 -0.001890 -0.001890 0.008128 0.000000 0.000000 0.000000
# 4 0.000000 0.000000 0.000000 0.012911 0.000000 0.000000
# 5 0.000000 0.000000 0.000000 0.000000 0.012911 0.000000
# 6 -0.004851 0.004851 0.000000 0.000000 0.000000 0.037859
#
#
# Mechanical properties :
#
#
# Convention : Reuss Voigt Hill
#
# Bulk Modulus (GPa) = 41.89864 45.01404 43.45634
# Shear Modulus (GPa) = 36.35424 49.81775 43.08599
#
# Velocity S-wave (km/s) = 4.05974 4.75239 4.41966
# Velocity P-wave (km/s) = 6.40081 7.10782 6.76356
#
# Compressibility (1/GPa) = 0.02386713
#
# Stress axis : x y z
#
# Youngs Moduli (GPa) = 54.41445 54.41445 123.03513
#
# Poissons Ratio (x) = 0.36608 0.23255
# Poissons Ratio (y) = 0.36608 0.23255
# Poissons Ratio (z) = 0.10285 0.10285
#
# Static dielectric constant tensor:
#      x y z
#    x 3.915090 0.000000 0.000000 
#    y 0.000000 3.915090 0.000000 
#    z 0.000000 0.000000 4.457670 
# 
# 
# High freq. dielectric constant tensor:
#      x y z
#    x 1.860320 0.000000 0.000000 
#    y 0.000000 1.860320 0.000000 
#    z 0.000000 0.000000 1.888100 
# 
# From -- ./inp_files/2404.got.cif
#   From: 2010.03.12/outbox.cif.g09.slc.cpg/sg86_2_cif.got.tgz:2404.got - 2010.04.08 20:12:58.
