data_PCOD8303217
_publ_section_title
;
Structure prediction by ZEFSAII (Michael W. Deem and Ramdas Pophale) SiO2 
 PCOD8303217
Probable space group: P 42/M
;
_chemical_formula_sum "Si O2"
_cell_formula_units_Z 58
_cell_length_a 17.912001
_cell_length_b 17.912001
_cell_length_c 9.039344
_cell_angle_alpha 90.000000
_cell_angle_beta 90.000000
_cell_angle_gamma 90.000000
_cell_volume 2900.181139
_symmetry_space_group_name_H-M "P 42/M"
_symmetry_group_IT_number 84
_symmetry_cell_setting 'tetragonal'
loop_
_space_group_symop_operation_xyz
x,y,z
-y,x,1/2+z
-x,-y,z
y,-x,1/2+z
-x,-y,-z
y,-x,1/2-z
x,y,-z
-y,x,1/2-z
loop_
_atom_site_type_symbol
_atom_site_label
_atom_site_fract_x
_atom_site_fract_y
_atom_site_fract_z
Si Si1 0.354506 0.421901 0.333659
Si Si2 0.648837 0.741729 0.332255
Si Si3 0.693746 0.963419 0.322580
Si Si4 0.830292 0.226785 0.676130
Si Si5 0.120947 0.548639 0.163966
Si Si6 0.117996 0.273207 0.671122
Si Si7 0.807338 0.572029 0.332278
Si Si8 0.500000 0.500000 0.750000
O O1 0.329651 0.409957 0.500000
O O2 0.379192 0.339856 0.276304
O O3 0.275221 0.445545 0.258724
O O4 0.423153 0.480820 0.334155
O O5 0.683187 0.741139 0.500000
O O6 0.708648 0.771643 0.215580
O O7 0.577381 0.794292 0.331836
O O8 0.701916 0.958932 0.500000
O O9 0.755846 0.910600 0.247903
O O10 0.611420 0.934885 0.272198
O O11 0.703442 0.045501 0.261843
O O12 0.837370 0.217986 0.500000
O O13 0.800411 0.150441 0.749753
O O14 0.124218 0.472063 0.255231
O O15 0.094652 0.527425 0.000000
O O16 0.098230 0.256417 0.500000
O O17 0.178281 0.339741 0.683324
O O18 0.810652 0.544631 0.500000
#
# Coordination Sequence:
#
# PCOD8303217 Si02
#       8
#     8   8   8   8   8   8   8   2
#     4  10  20  36  52  72 105 149 197 250 307 356
#     4   9  17  35  57  75 107 153 196 243 302 355
#     4  10  22  40  61  88 121 156 192 237 290 344
#     4  11  21  36  61  92 119 150 193 238 283 344
#     4   9  19  34  54  80 113 151 190 239 296 350
#     4  11  22  39  62  88 119 156 195 238 289 346
#     4  10  21  36  56  78 111 154 195 245 302 355
#     4  12  22  32  52  78 108 148 206 260 308 362
#
# _framework density 19.998750999999999
#
# number of rings (size 3 to 8) (size 9 to 14) (size 15 to 20)
#    0.000    1.931    1.379    3.931    0.000    4.414 
#    0.000    4.828    0.000    0.414    0.000    2.897 
#    0.000    0.000    0.000    0.000    0.000    0.000 
#
# Total GULP energy -718637.370968 kJ/mol
# GULP energy per Si atom -12390.299499 kJ/mol
# Density = 1.995323 g / cm^3
# Si number density = 19.998751 Si / 1000 Ang^3
#
#
#
# Elastic Constant Matrix: (Units=GPa)
#
#
# Indices 1 2 3 4 5 6 
#
# 1 86.9360 18.5316 25.0445 0.0000 0.0000 -0.0717
# 2 18.5316 86.9360 25.0445 0.0000 0.0000 0.0717
# 3 25.0445 25.0445 88.0683 0.0000 0.0000 0.0000
# 4 0.0000 0.0000 0.0000 27.9162 0.0000 0.0000
# 5 0.0000 0.0000 0.0000 0.0000 27.9162 0.0000
# 6 -0.0717 0.0717 0.0000 0.0000 0.0000 18.3409
#
#
#
# Elastic Compliance Matrix: (Units=1/GPa)
#
#
# Indices 1 2 3 4 5 6 
#
# 1 0.012791 -0.001828 -0.003117 0.000000 0.000000 0.000057
# 2 -0.001828 0.012791 -0.003117 0.000000 0.000000 -0.000057
# 3 -0.003117 -0.003117 0.013128 0.000000 0.000000 0.000000
# 4 0.000000 0.000000 0.000000 0.035821 0.000000 0.000000
# 5 0.000000 0.000000 0.000000 0.000000 0.035821 0.000000
# 6 0.000057 -0.000057 0.000000 0.000000 0.000000 0.054523
#
#
# Mechanical properties :
#
#
# Convention : Reuss Voigt Hill
#
# Bulk Modulus (GPa) = 44.28189 44.35348 44.31769
# Shear Modulus (GPa) = 26.52109 27.72266 27.12187
#
# Velocity S-wave (km/s) = 3.64557 3.72724 3.68663
# Velocity P-wave (km/s) = 6.31748 6.38352 6.35059
#
# Compressibility (1/GPa) = 0.02258260
#
# Stress axis : x y z
#
# Youngs Moduli (GPa) = 78.18256 78.18256 76.17405
#
# Poissons Ratio (x) = 0.14296 0.23746
# Poissons Ratio (y) = 0.14296 0.23746
# Poissons Ratio (z) = 0.24372 0.24372
#
# Static dielectric constant tensor:
#      x y z
#    x 3.560610 0.000000 0.000000 
#    y 0.000000 3.560610 0.000000 
#    z 0.000000 0.000000 3.535920 
# 
# 
# High freq. dielectric constant tensor:
#      x y z
#    x 1.774450 0.000000 0.000000 
#    y 0.000000 1.774450 0.000000 
#    z 0.000000 0.000000 1.765800 
# 
# From -- ./inp_files/1159.got.cif
#   From: 2010.03.12/outbox.cif.g09.slc.cpg/sg84_1_cif.got.tgz:1159.got - 2010.04.08 20:07:29.
