data_PCOD8303975
_publ_section_title
;
Structure prediction by ZEFSAII (Michael W. Deem and Ramdas Pophale) SiO2 
 PCOD8303975
Probable space group: I 4/M
;
_chemical_formula_sum "Si O2"
_cell_formula_units_Z 112
_cell_length_a 15.133009
_cell_length_b 15.133009
_cell_length_c 25.660946
_cell_angle_alpha 90.000000
_cell_angle_beta 90.000000
_cell_angle_gamma 90.000000
_cell_volume 5876.560931
_symmetry_space_group_name_H-M "I 4/M"
_symmetry_group_IT_number 87
_symmetry_cell_setting 'tetragonal'
loop_
_space_group_symop_operation_xyz
x,y,z
-y,x,z
-x,-y,z
y,-x,z
-x,-y,-z
y,-x,-z
x,y,-z
-y,x,-z
1/2+x,1/2+y,1/2+z
1/2-y,1/2+x,1/2+z
1/2-x,1/2-y,1/2+z
1/2+y,1/2-x,1/2+z
1/2-x,1/2-y,1/2-z
1/2+y,1/2-x,1/2-z
1/2+x,1/2+y,1/2-z
1/2-y,1/2+x,1/2-z
loop_
_atom_site_type_symbol
_atom_site_label
_atom_site_fract_x
_atom_site_fract_y
_atom_site_fract_z
Si Si1 0.703166 0.271838 0.196100
Si Si2 0.233722 0.446337 0.500000
Si Si3 0.033439 0.731871 0.748328
Si Si4 0.532139 0.642271 0.671270
Si Si5 0.474589 0.906142 0.587654
Si Si6 0.142170 0.221128 0.000000
Si Si7 0.106404 0.351755 0.681895
Si Si8 0.378240 0.216463 0.610488
O O1 0.750000 0.250000 0.250000
O O2 0.598515 0.283646 0.207967
O O3 0.751206 0.358039 0.171783
O O4 0.716457 0.193600 0.155264
O O5 0.168399 0.439643 0.548825
O O6 0.290586 0.536130 0.500000
O O7 0.306122 0.370290 0.500000
O O8 0.090133 0.683957 0.792881
O O9 0.964339 0.799777 0.775503
O O10 0.978654 0.656094 0.718853
O O11 0.433455 0.605112 0.670040
O O12 0.553612 0.702146 0.620956
O O13 0.396861 0.923858 0.628711
O O14 0.565004 0.872809 0.614599
O O15 0.500000 0.000000 0.560818
O O16 0.166333 0.274561 0.052979
#
# Coordination Sequence:
#
# PCOD8303975 Si02
#       8
#    16   8  16  16  16   8  16  16
#     4  10  21  36  56  77 113 149 191 239 296 351
#     4  10  23  43  58  86 108 154 184 247 283 348
#     4  11  21  35  52  80 111 148 191 235 289 344
#     4  11  22  35  55  80 116 158 196 243 288 348
#     4  11  23  38  59  82 112 146 190 238 293 344
#     4  10  24  37  64  80 120 150 204 243 294 336
#     4  11  22  33  55  79 107 146 180 238 280 345
#     4  11  22  40  56  86 113 156 199 250 290 353
#
# _framework density 19.058765000000001
#
# number of rings (size 3 to 8) (size 9 to 14) (size 15 to 20)
#    0.000    1.286    1.429    6.214    6.000    0.143 
#    0.000    0.000    0.000    0.000    0.000    0.000 
#    0.000    0.000    0.000    0.000    0.000   77.286 
#
# Total GULP energy -694144.214184 kJ/mol
# GULP energy per Si atom -12395.432396 kJ/mol
# Density = 1.901539 g / cm^3
# Si number density = 19.058765 Si / 1000 Ang^3
#
#
#
# Elastic Constant Matrix: (Units=GPa)
#
#
# Indices 1 2 3 4 5 6 
#
# 1 75.3446 24.1807 34.6156 0.0000 0.0000 3.2268
# 2 24.1807 75.3446 34.6156 0.0000 0.0000 -3.2268
# 3 34.6156 34.6156 110.5624 0.0000 0.0000 0.0000
# 4 0.0000 0.0000 0.0000 25.1581 0.0000 0.0000
# 5 0.0000 0.0000 0.0000 0.0000 25.1581 0.0000
# 6 3.2268 -3.2268 0.0000 0.0000 0.0000 30.7231
#
#
#
# Elastic Compliance Matrix: (Units=1/GPa)
#
#
# Indices 1 2 3 4 5 6 
#
# 1 0.016326 -0.003481 -0.004022 0.000000 0.000000 -0.002080
# 2 -0.003481 0.016326 -0.004022 0.000000 0.000000 0.002080
# 3 -0.004022 -0.004022 0.011563 0.000000 0.000000 0.000000
# 4 0.000000 0.000000 0.000000 0.039749 0.000000 0.000000
# 5 0.000000 0.000000 0.000000 0.000000 0.039749 0.000000
# 6 -0.002080 0.002080 0.000000 0.000000 0.000000 0.032986
#
#
# Mechanical properties :
#
#
# Convention : Reuss Voigt Hill
#
# Bulk Modulus (GPa) = 47.24399 49.78613 48.51506
# Shear Modulus (GPa) = 26.76616 27.39718 27.08167
#
# Velocity S-wave (km/s) = 3.75160 3.79556 3.77365
# Velocity P-wave (km/s) = 6.60367 6.73703 6.67068
#
# Compressibility (1/GPa) = 0.02116671
#
# Stress axis : x y z
#
# Youngs Moduli (GPa) = 61.25078 61.25078 86.48332
#
# Poissons Ratio (x) = 0.21322 0.34781
# Poissons Ratio (y) = 0.21322 0.34781
# Poissons Ratio (z) = 0.24633 0.24633
#
# Static dielectric constant tensor:
#      x y z
#    x 3.628300 0.000000 0.000000 
#    y 0.000000 3.628300 0.000000 
#    z 0.000000 0.000000 3.535560 
# 
# 
# High freq. dielectric constant tensor:
#      x y z
#    x 1.737660 0.000000 0.000000 
#    y 0.000000 1.737660 0.000000 
#    z 0.000000 0.000000 1.733000 
# 
# From -- ./inp_files/6313.got.cif
#   From: 2010.03.12/outbox.cif.g09.slc.cpg/sg87_4_cif.got.tgz:6313.got - 2010.04.08 20:16:13.
