data_PCOD8303635
_publ_section_title
;
Structure prediction by ZEFSAII (Michael W. Deem and Ramdas Pophale) SiO2 
 PCOD8303635
Probable space group: P 42/N
;
_chemical_formula_sum "Si O2"
_cell_formula_units_Z 36
_cell_length_a 12.014081
_cell_length_b 12.014081
_cell_length_c 11.428470
_cell_angle_alpha 90.000000
_cell_angle_beta 90.000000
_cell_angle_gamma 90.000000
_cell_volume 1649.564129
_symmetry_space_group_name_H-M "P 42/N"
_symmetry_group_IT_number 86
_space_group.IT_coordinate_system_code '2'
_symmetry_cell_setting 'tetragonal'
loop_
_space_group_symop_operation_xyz
x,y,z
-y,1/2+x,1/2+z
1/2-x,1/2-y,z
1/2+y,-x,1/2+z
-x,-y,-z
y,1/2-x,1/2-z
1/2+x,1/2+y,-z
1/2-y,x,1/2-z
loop_
_atom_site_type_symbol
_atom_site_label
_atom_site_fract_x
_atom_site_fract_y
_atom_site_fract_z
Si Si1 0.713371 0.459033 0.006116
Si Si2 0.911978 0.674836 0.722797
Si Si3 0.515439 0.408435 0.666926
Si Si4 0.959939 0.317444 0.759364
Si Si5 0.750000 0.250000 0.377012
O O1 0.684467 0.554475 0.913413
O O2 0.846112 0.461412 0.042867
O O3 0.683380 0.337556 0.956370
O O4 0.640020 0.474031 0.124435
O O5 0.798008 0.604699 0.724870
O O6 0.005834 0.613209 0.799999
O O7 0.504949 0.312707 0.767515
O O8 0.395903 0.468034 0.656926
O O9 0.830893 0.324538 0.796470
#
# Coordination Sequence:
#
# PCOD8303635 Si02
#       5
#     8   8   8   8   4
#     4  10  23  44  67 101 128 185 216 274 350 378
#     4  11  24  45  67 103 138 174 226 278 336 407
#     4  10  24  46  67  99 136 176 225 277 328 401
#     4  10  24  43  67 100 133 176 223 277 327 410
#     4  12  20  42  70 100 136 164 234 280 334 404
#
# _framework density 21.823948999999999
#
# number of rings (size 3 to 8) (size 9 to 14) (size 15 to 20)
#    1.333    0.222    2.222    2.000    0.000    4.889 
#   12.000    0.000    0.000    0.000    0.000    0.000 
#    0.000    0.000    0.000    0.000    0.000    0.000 
#
# Total GULP energy -446103.885687 kJ/mol
# GULP energy per Si atom -12391.774602 kJ/mol
# Density = 2.177428 g / cm^3
# Si number density = 21.823949 Si / 1000 Ang^3
#
#
#
# Elastic Constant Matrix: (Units=GPa)
#
#
# Indices 1 2 3 4 5 6 
#
# 1 91.6570 20.9589 24.8148 0.0000 0.0000 -5.7572
# 2 20.9589 91.6570 24.8148 0.0000 0.0000 5.7572
# 3 24.8148 24.8148 85.6446 0.0000 0.0000 0.0000
# 4 0.0000 0.0000 0.0000 28.7571 0.0000 0.0000
# 5 0.0000 0.0000 0.0000 0.0000 28.7571 0.0000
# 6 -5.7572 5.7572 0.0000 0.0000 0.0000 28.5193
#
#
#
# Elastic Compliance Matrix: (Units=1/GPa)
#
#
# Indices 1 2 3 4 5 6 
#
# 1 0.012403 -0.002223 -0.002949 0.000000 0.000000 0.002952
# 2 -0.002223 0.012403 -0.002949 0.000000 0.000000 -0.002952
# 3 -0.002949 -0.002949 0.013385 0.000000 0.000000 0.000000
# 4 0.000000 0.000000 0.000000 0.034774 0.000000 0.000000
# 5 0.000000 0.000000 0.000000 0.000000 0.034774 0.000000
# 6 0.002952 -0.002952 0.000000 0.000000 0.000000 0.036256
#
#
# Mechanical properties :
#
#
# Convention : Reuss Voigt Hill
#
# Bulk Modulus (GPa) = 45.56501 45.57061 45.56781
# Shear Modulus (GPa) = 29.84122 30.43141 30.13631
#
# Velocity S-wave (km/s) = 3.70180 3.73822 3.72005
# Velocity P-wave (km/s) = 6.26058 6.28958 6.27509
#
# Compressibility (1/GPa) = 0.02194666
#
# Stress axis : x y z
#
# Youngs Moduli (GPa) = 80.62879 80.62879 74.70881
#
# Poissons Ratio (x) = 0.17924 0.22035
# Poissons Ratio (y) = 0.17924 0.22035
# Poissons Ratio (z) = 0.23781 0.23781
#
# Static dielectric constant tensor:
#      x y z
#    x 3.818250 0.000000 0.000000 
#    y 0.000000 3.818250 0.000000 
#    z 0.000000 0.000000 3.762540 
# 
# 
# High freq. dielectric constant tensor:
#      x y z
#    x 1.855160 0.000000 0.000000 
#    y 0.000000 1.855160 0.000000 
#    z 0.000000 0.000000 1.848320 
# 
# From -- ./inp_files/2041.got.cif
#   From: 2010.03.12/outbox.cif.g09.slc.cpg/sg86_2_cif.got.tgz:2041.got - 2010.04.08 20:12:58.
