data_PCOD8303385
_publ_section_title
;
Structure prediction by ZEFSAII (Michael W. Deem and Ramdas Pophale) SiO2 
 PCOD8303385
Probable space group: P 42/M
;
_chemical_formula_sum "Si O2"
_cell_formula_units_Z 24
_cell_length_a 8.750949
_cell_length_b 8.750949
_cell_length_c 13.428383
_cell_angle_alpha 90.000000
_cell_angle_beta 90.000000
_cell_angle_gamma 90.000000
_cell_volume 1028.333597
_symmetry_space_group_name_H-M "P 42/M"
_symmetry_group_IT_number 84
_symmetry_cell_setting 'tetragonal'
loop_
_space_group_symop_operation_xyz
x,y,z
-y,x,1/2+z
-x,-y,z
y,-x,1/2+z
-x,-y,-z
y,-x,1/2-z
x,y,-z
-y,x,1/2-z
loop_
_atom_site_type_symbol
_atom_site_label
_atom_site_fract_x
_atom_site_fract_y
_atom_site_fract_z
Si Si1 0.330333 0.934983 0.500000
Si Si2 0.221846 0.045655 0.292361
Si Si3 0.334745 0.573278 0.500000
Si Si4 0.551337 0.729604 0.214953
O O1 0.342615 0.754440 0.500000
O O2 0.500000 0.000000 0.500000
O O3 0.232453 0.990756 0.405535
O O4 0.385950 0.112481 0.259427
O O5 0.092967 0.177524 0.281765
O O6 0.500000 0.500000 0.500000
O O7 0.247602 0.512812 0.598333
O O8 0.681289 0.597065 0.222450
#
# Coordination Sequence:
#
# PCOD8303385 Si02
#       4
#     4   8   4   8
#     4  12  26  46  76 103 148 201 247 300 385 440
#     4  11  26  45  69 106 148 196 247 301 370 445
#     4  12  22  43  71 108 138 190 238 310 369 432
#     4  11  23  40  70 105 146 187 251 313 364 434
#
# _framework density 23.338733000000001
#
# number of rings (size 3 to 8) (size 9 to 14) (size 15 to 20)
#    0.000    0.667    6.667    2.000    0.000    4.000 
#    0.000    0.000    0.000    4.000    0.000    0.000 
#    0.000    0.000    0.000    0.000    0.000    0.000 
#
# Total GULP energy -297677.889588 kJ/mol
# GULP energy per Si atom -12403.245400 kJ/mol
# Density = 2.328561 g / cm^3
# Si number density = 23.338733 Si / 1000 Ang^3
#
#
#
# Elastic Constant Matrix: (Units=GPa)
#
#
# Indices 1 2 3 4 5 6 
#
# 1 63.4991 35.4534 43.7286 0.0000 0.0000 -4.6008
# 2 35.4534 63.4991 43.7286 0.0000 0.0000 4.6008
# 3 43.7286 43.7286 192.4131 0.0000 0.0000 0.0000
# 4 0.0000 0.0000 0.0000 31.4426 0.0000 0.0000
# 5 0.0000 0.0000 0.0000 0.0000 31.4426 0.0000
# 6 -4.6008 4.6008 0.0000 0.0000 0.0000 63.0927
#
#
#
# Elastic Compliance Matrix: (Units=1/GPa)
#
#
# Indices 1 2 3 4 5 6 
#
# 1 0.024588 -0.011942 -0.002874 0.000000 0.000000 0.002664
# 2 -0.011942 0.024588 -0.002874 0.000000 0.000000 -0.002664
# 3 -0.002874 -0.002874 0.006503 0.000000 0.000000 0.000000
# 4 0.000000 0.000000 0.000000 0.031804 0.000000 0.000000
# 5 0.000000 0.000000 0.000000 0.000000 0.031804 0.000000
# 6 0.002664 -0.002664 0.000000 0.000000 0.000000 0.016238
#
#
# Mechanical properties :
#
#
# Convention : Reuss Voigt Hill
#
# Bulk Modulus (GPa) = 49.26235 62.80362 56.03298
# Shear Modulus (GPa) = 28.14173 38.29562 33.21867
#
# Velocity S-wave (km/s) = 3.47622 4.05515 3.77679
# Velocity P-wave (km/s) = 6.10455 6.99240 6.56351
#
# Compressibility (1/GPa) = 0.02029948
#
# Stress axis : x y z
#
# Youngs Moduli (GPa) = 40.67026 40.67026 153.76443
#
# Poissons Ratio (x) = 0.48569 0.44191
# Poissons Ratio (y) = 0.48569 0.44191
# Poissons Ratio (z) = 0.11689 0.11689
#
# Static dielectric constant tensor:
#      x y z
#    x 4.220080 0.000000 0.000000 
#    y 0.000000 4.220080 0.000000 
#    z 0.000000 0.000000 4.581780 
# 
# 
# High freq. dielectric constant tensor:
#      x y z
#    x 1.922520 0.000000 0.000000 
#    y 0.000000 1.922520 0.000000 
#    z 0.000000 0.000000 1.931570 
# 
# From -- ./inp_files/2642.got.cif
#   From: 2010.03.12/outbox.cif.g09.slc.cpg/sg84_2_cif.got.tgz:2642.got - 2010.04.08 20:07:29.
