data_PCOD8303078
_publ_section_title
;
Structure prediction by ZEFSAII (Michael W. Deem and Ramdas Pophale) SiO2 
 PCOD8303078
Probable space group: P 42/M
;
_chemical_formula_sum "Si O2"
_cell_formula_units_Z 56
_cell_length_a 12.673922
_cell_length_b 12.673922
_cell_length_c 20.502747
_cell_angle_alpha 90.000000
_cell_angle_beta 90.000000
_cell_angle_gamma 90.000000
_cell_volume 3293.321373
_symmetry_space_group_name_H-M "P 42/M"
_symmetry_group_IT_number 84
_symmetry_cell_setting 'tetragonal'
loop_
_space_group_symop_operation_xyz
x,y,z
-y,x,1/2+z
-x,-y,z
y,-x,1/2+z
-x,-y,-z
y,-x,1/2-z
x,y,-z
-y,x,1/2-z
loop_
_atom_site_type_symbol
_atom_site_label
_atom_site_fract_x
_atom_site_fract_y
_atom_site_fract_z
Si Si1 0.860101 0.747218 0.696773
Si Si2 0.383691 0.469173 0.575168
Si Si3 0.272469 0.593899 0.677787
Si Si4 0.908820 0.427484 0.858529
Si Si5 0.752789 0.283129 0.925595
Si Si6 0.429664 0.762103 0.721572
Si Si7 0.711457 0.913050 0.236208
O O1 0.817619 0.749719 0.622471
O O2 0.835667 0.633766 0.727896
O O3 0.807011 0.839944 0.738933
O O4 0.986934 0.760369 0.698030
O O5 0.500000 0.500000 0.602825
O O6 0.377375 0.499738 0.500000
O O7 0.290762 0.536655 0.609029
O O8 0.360406 0.346060 0.587637
O O9 0.351795 0.689879 0.681448
O O10 0.302966 0.514170 0.736062
O O11 0.152499 0.636135 0.686520
O O12 0.858093 0.351620 0.912935
O O13 0.823303 0.509124 0.833725
O O14 0.951990 0.357287 0.798136
O O15 0.000000 0.500000 0.890121
O O16 0.753857 0.241517 0.000000
#
# Coordination Sequence:
#
# PCOD8303078 Si02
#       7
#     8   8   8   8   8   8   8
#     4  10  18  36  53  77 103 131 169 222 272 313
#     4  10  20  33  48  68 105 147 177 207 239 296
#     4  10  20  30  46  76 102 137 170 205 250 312
#     4  10  18  32  52  75 103 136 167 221 265 304
#     4  10  21  35  50  75 108 143 180 210 252 321
#     4  10  19  29  48  75 106 130 166 212 259 300
#     4   9  20  32  53  78 102 128 167 223 275 308
#
# _framework density 17.004111000000002
#
# number of rings (size 3 to 8) (size 9 to 14) (size 15 to 20)
#    0.000    2.143    2.857    1.714    2.000    0.571 
#    0.000    0.714    0.000    1.714    0.000    8.000 
#    0.000    0.000    0.000    0.000    0.000    0.000 
#
# Total GULP energy -694219.838331 kJ/mol
# GULP energy per Si atom -12396.782827 kJ/mol
# Density = 1.696541 g / cm^3
# Si number density = 17.004111 Si / 1000 Ang^3
#
#
#
# Elastic Constant Matrix: (Units=GPa)
#
#
# Indices 1 2 3 4 5 6 
#
# 1 77.5894 28.8241 35.8988 0.0000 0.0000 1.8539
# 2 28.8241 77.5894 35.8988 0.0000 0.0000 -1.8539
# 3 35.8988 35.8988 77.0967 0.0000 0.0000 0.0000
# 4 0.0000 0.0000 0.0000 19.3771 0.0000 0.0000
# 5 0.0000 0.0000 0.0000 0.0000 19.3771 0.0000
# 6 1.8539 -1.8539 0.0000 0.0000 0.0000 20.6236
#
#
#
# Elastic Compliance Matrix: (Units=1/GPa)
#
#
# Indices 1 2 3 4 5 6 
#
# 1 0.017175 -0.003473 -0.006380 0.000000 0.000000 -0.001856
# 2 -0.003473 0.017175 -0.006380 0.000000 0.000000 0.001856
# 3 -0.006380 -0.006380 0.018912 0.000000 0.000000 0.000000
# 4 0.000000 0.000000 0.000000 0.051607 0.000000 0.000000
# 5 0.000000 0.000000 0.000000 0.000000 0.051607 0.000000
# 6 -0.001856 0.001856 0.000000 0.000000 0.000000 0.048822
#
#
# Mechanical properties :
#
#
# Convention : Reuss Voigt Hill
#
# Bulk Modulus (GPa) = 48.08647 48.16875 48.12761
# Shear Modulus (GPa) = 20.43352 20.65249 20.54301
#
# Velocity S-wave (km/s) = 3.47029 3.48883 3.47957
# Velocity P-wave (km/s) = 6.66318 6.67971 6.67145
#
# Compressibility (1/GPa) = 0.02079587
#
# Stress axis : x y z
#
# Youngs Moduli (GPa) = 58.22503 58.22503 52.87561
#
# Poissons Ratio (x) = 0.20220 0.33735
# Poissons Ratio (y) = 0.20220 0.33735
# Poissons Ratio (z) = 0.37148 0.37148
#
# Static dielectric constant tensor:
#      x y z
#    x 3.218540 0.000000 0.000000 
#    y 0.000000 3.218540 0.000000 
#    z 0.000000 0.000000 2.979940 
# 
# 
# High freq. dielectric constant tensor:
#      x y z
#    x 1.652260 0.000000 0.000000 
#    y 0.000000 1.652260 0.000000 
#    z 0.000000 0.000000 1.632460 
# 
# From -- ./inp_files/4483.got.cif
#   From: 2010.03.12/outbox.cif.g09.slc.cpg/sg84_3_cif.got.tgz:4483.got - 2010.04.08 20:07:29.
