data_PCOD8303077
_publ_section_title
;
Structure prediction by ZEFSAII (Michael W. Deem and Ramdas Pophale) SiO2 
 PCOD8303077
Probable space group: P 42/M
;
_chemical_formula_sum "Si O2"
_cell_formula_units_Z 32
_cell_length_a 9.514219
_cell_length_b 9.514219
_cell_length_c 18.366058
_cell_angle_alpha 90.000000
_cell_angle_beta 90.000000
_cell_angle_gamma 90.000000
_cell_volume 1662.502240
_symmetry_space_group_name_H-M "P 42/M"
_symmetry_group_IT_number 84
_symmetry_cell_setting 'tetragonal'
loop_
_space_group_symop_operation_xyz
x,y,z
-y,x,1/2+z
-x,-y,z
y,-x,1/2+z
-x,-y,-z
y,-x,1/2-z
x,y,-z
-y,x,1/2-z
loop_
_atom_site_type_symbol
_atom_site_label
_atom_site_fract_x
_atom_site_fract_y
_atom_site_fract_z
Si Si1 0.589502 0.860981 0.917197
Si Si2 0.416128 0.301707 0.222375
Si Si3 0.114993 0.819348 0.223107
Si Si4 0.841708 0.046065 0.078771
O O1 0.550022 0.732755 0.862545
O O2 0.500000 0.000000 0.899905
O O3 0.751107 0.906506 0.903811
O O4 0.564077 0.808318 0.000000
O O5 0.321132 0.441435 0.231058
O O6 0.332569 0.166832 0.251799
O O7 0.174389 0.837853 0.141272
O O8 0.945272 0.824655 0.225924
O O9 0.792948 0.108730 0.000000
O O10 0.000000 0.000000 0.074778
#
# Coordination Sequence:
#
# PCOD8303077 Si02
#       4
#     8   8   8   8
#     4  10  20  37  61  84 108 150 199 238 280 338
#     4  11  24  38  54  84 120 150 186 234 291 341
#     4  11  19  34  57  85 111 146 197 234 283 343
#     4  10  18  31  53  84 114 139 182 241 283 327
#
# _framework density 19.248093000000001
#
# number of rings (size 3 to 8) (size 9 to 14) (size 15 to 20)
#    0.000    1.500    5.000    1.500    0.000    0.000 
#    0.000    3.750    0.000    0.000    0.000    8.750 
#    0.000    0.000    0.000    0.000    0.000    0.000 
#
# Total GULP energy -396624.537295 kJ/mol
# GULP energy per Si atom -12394.516790 kJ/mol
# Density = 1.920428 g / cm^3
# Si number density = 19.248093 Si / 1000 Ang^3
#
#
#
# Elastic Constant Matrix: (Units=GPa)
#
#
# Indices 1 2 3 4 5 6 
#
# 1 77.5266 26.1003 36.4025 0.0000 0.0000 11.3858
# 2 26.1003 77.5266 36.4025 0.0000 0.0000 -11.3858
# 3 36.4025 36.4025 164.4217 0.0000 0.0000 0.0000
# 4 0.0000 0.0000 0.0000 40.6811 0.0000 0.0000
# 5 0.0000 0.0000 0.0000 0.0000 40.6811 0.0000
# 6 11.3858 -11.3858 0.0000 0.0000 0.0000 30.8956
#
#
#
# Elastic Compliance Matrix: (Units=1/GPa)
#
#
# Indices 1 2 3 4 5 6 
#
# 1 0.017332 -0.005905 -0.002530 0.000000 0.000000 -0.008563
# 2 -0.005905 0.017332 -0.002530 0.000000 0.000000 0.008563
# 3 -0.002530 -0.002530 0.007202 0.000000 0.000000 0.000000
# 4 0.000000 0.000000 0.000000 0.024581 0.000000 0.000000
# 5 0.000000 0.000000 0.000000 0.000000 0.024581 0.000000
# 6 -0.008563 0.008563 0.000000 0.000000 0.000000 0.038679
#
#
# Mechanical properties :
#
#
# Convention : Reuss Voigt Hill
#
# Bulk Modulus (GPa) = 50.15762 57.47618 53.81690
# Shear Modulus (GPa) = 31.58877 37.15621 34.37249
#
# Velocity S-wave (km/s) = 4.05549 4.39838 4.23041
# Velocity P-wave (km/s) = 6.93141 7.46457 7.20293
#
# Compressibility (1/GPa) = 0.01993715
#
# Stress axis : x y z
#
# Youngs Moduli (GPa) = 57.69551 57.69551 138.84642
#
# Poissons Ratio (x) = 0.34068 0.35128
# Poissons Ratio (y) = 0.34068 0.35128
# Poissons Ratio (z) = 0.14597 0.14597
#
# Static dielectric constant tensor:
#      x y z
#    x 3.475480 0.000000 0.000000 
#    y 0.000000 3.475480 0.000000 
#    z 0.000000 0.000000 4.557140 
# 
# 
# High freq. dielectric constant tensor:
#      x y z
#    x 1.730920 0.000000 0.000000 
#    y 0.000000 1.730920 0.000000 
#    z 0.000000 0.000000 1.764270 
# 
# From -- ./inp_files/4100.got.cif
#   From: 2010.03.12/outbox.cif.g09.slc.cpg/sg84_3_cif.got.tgz:4100.got - 2010.04.08 20:07:29.
