data_PCOD8303555
_publ_section_title
;
Structure prediction by ZEFSAII (Michael W. Deem and Ramdas Pophale) SiO2 
 PCOD8303555
Probable space group: P 42/N
;
_chemical_formula_sum "Si O2"
_cell_formula_units_Z 60
_cell_length_a 13.917898
_cell_length_b 13.917898
_cell_length_c 14.422385
_cell_angle_alpha 90.000000
_cell_angle_beta 90.000000
_cell_angle_gamma 90.000000
_cell_volume 2793.729691
_symmetry_space_group_name_H-M "P 42/N"
_symmetry_group_IT_number 86
_space_group.IT_coordinate_system_code '2'
_symmetry_cell_setting 'tetragonal'
loop_
_space_group_symop_operation_xyz
x,y,z
-y,1/2+x,1/2+z
1/2-x,1/2-y,z
1/2+y,-x,1/2+z
-x,-y,-z
y,1/2-x,1/2-z
1/2+x,1/2+y,-z
1/2-y,x,1/2-z
loop_
_atom_site_type_symbol
_atom_site_label
_atom_site_fract_x
_atom_site_fract_y
_atom_site_fract_z
Si Si1 0.416941 0.378691 0.555984
Si Si2 0.862011 0.576555 0.545244
Si Si3 0.523907 0.963948 0.361573
Si Si4 0.157643 0.873786 0.772341
Si Si5 0.916562 0.279856 0.086782
Si Si6 0.894714 0.409753 0.927766
Si Si7 0.750000 0.750000 0.989919
Si Si8 0.137768 0.561293 0.791106
O O1 0.483475 0.366039 0.463483
O O2 0.398651 0.490363 0.577136
O O3 0.315752 0.322348 0.550426
O O4 0.472954 0.333170 0.643077
O O5 0.919650 0.577934 0.448837
O O6 0.765601 0.512661 0.544305
O O7 0.824151 0.684051 0.569392
O O8 0.936350 0.537626 0.620075
O O9 0.598743 0.025141 0.305110
O O10 0.479890 0.876712 0.303035
O O11 0.140023 0.800271 0.856148
O O12 0.107666 0.847326 0.673692
O O13 0.271447 0.874904 0.761515
O O14 0.939142 0.369512 0.155982
O O15 0.857219 0.327452 0.000464
#
# Coordination Sequence:
#
# PCOD8303555 Si02
#       8
#     8   8   8   8   8   8   4   8
#     4  10  22  38  63  93 129 174 211 267 339 410
#     4  10  22  40  62  89 130 174 210 273 338 400
#     4  10  22  40  62  91 132 171 211 266 349 407
#     4  11  22  39  66  98 126 170 229 280 326 406
#     4  10  22  41  62  89 127 173 226 272 325 403
#     4  10  20  42  66  89 131 183 214 267 354 400
#     4  12  22  38  65  99 124 162 228 272 328 411
#     4  11  22  39  62  94 127 164 223 276 329 399
#
# _framework density 21.476666999999999
#
# number of rings (size 3 to 8) (size 9 to 14) (size 15 to 20)
#    0.000    1.600    2.667    2.000    0.000    1.067 
#    0.000   11.333    0.000    3.200    0.000    0.000 
#    0.000    0.000    0.000    0.000    0.000    0.000 
#
# Total GULP energy -743555.161531 kJ/mol
# GULP energy per Si atom -12392.586026 kJ/mol
# Density = 2.142778 g / cm^3
# Si number density = 21.476667 Si / 1000 Ang^3
#
#
#
# Elastic Constant Matrix: (Units=GPa)
#
#
# Indices 1 2 3 4 5 6 
#
# 1 84.3516 32.1510 19.2039 0.0000 0.0000 12.8375
# 2 32.1510 84.3516 19.2039 0.0000 0.0000 -12.8375
# 3 19.2039 19.2039 89.6658 0.0000 0.0000 0.0000
# 4 0.0000 0.0000 0.0000 27.0607 0.0000 0.0000
# 5 0.0000 0.0000 0.0000 0.0000 27.0607 0.0000
# 6 12.8375 -12.8375 0.0000 0.0000 0.0000 43.7905
#
#
#
# Elastic Compliance Matrix: (Units=1/GPa)
#
#
# Indices 1 2 3 4 5 6 
#
# 1 0.015810 -0.006574 -0.001978 0.000000 0.000000 -0.006562
# 2 -0.006574 0.015810 -0.001978 0.000000 0.000000 0.006562
# 3 -0.001978 -0.001978 0.012000 0.000000 0.000000 0.000000
# 4 0.000000 0.000000 0.000000 0.036954 0.000000 0.000000
# 5 0.000000 0.000000 0.000000 0.000000 0.036954 0.000000
# 6 -0.006562 0.006562 0.000000 0.000000 0.000000 0.026684
#
#
# Mechanical properties :
#
#
# Convention : Reuss Voigt Hill
#
# Bulk Modulus (GPa) = 44.32830 44.38742 44.35786
# Shear Modulus (GPa) = 28.93652 32.10304 30.51978
#
# Velocity S-wave (km/s) = 3.67460 3.87044 3.77379
# Velocity P-wave (km/s) = 6.22002 6.37859 6.29980
#
# Compressibility (1/GPa) = 0.02255895
#
# Stress axis : x y z
#
# Youngs Moduli (GPa) = 63.25093 63.25093 83.33482
#
# Poissons Ratio (x) = 0.41584 0.16484
# Poissons Ratio (y) = 0.41584 0.16484
# Poissons Ratio (z) = 0.12511 0.12511
#
# Static dielectric constant tensor:
#      x y z
#    x 3.954330 0.000000 0.000000 
#    y 0.000000 3.954330 0.000000 
#    z 0.000000 0.000000 3.852710 
# 
# 
# High freq. dielectric constant tensor:
#      x y z
#    x 1.842460 0.000000 0.000000 
#    y 0.000000 1.842460 0.000000 
#    z 0.000000 0.000000 1.830850 
# 
# From -- ./inp_files/3080.got.cif
#   From: 2010.03.12/outbox.cif.g09.slc.cpg/sg86_2_cif.got.tgz:3080.got - 2010.04.08 20:12:58.
