data_PCOD8303211
_publ_section_title
;
Structure prediction by ZEFSAII (Michael W. Deem and Ramdas Pophale) SiO2 
 PCOD8303211
Probable space group: P 42/M
;
_chemical_formula_sum "Si O2"
_cell_formula_units_Z 56
_cell_length_a 14.493917
_cell_length_b 14.493917
_cell_length_c 13.466524
_cell_angle_alpha 90.000000
_cell_angle_beta 90.000000
_cell_angle_gamma 90.000000
_cell_volume 2828.961580
_symmetry_space_group_name_H-M "P 42/M"
_symmetry_group_IT_number 84
_symmetry_cell_setting 'tetragonal'
loop_
_space_group_symop_operation_xyz
x,y,z
-y,x,1/2+z
-x,-y,z
y,-x,1/2+z
-x,-y,-z
y,-x,1/2-z
x,y,-z
-y,x,1/2-z
loop_
_atom_site_type_symbol
_atom_site_label
_atom_site_fract_x
_atom_site_fract_y
_atom_site_fract_z
Si Si1 0.743020 0.127660 0.113799
Si Si2 0.006063 0.856932 0.732787
Si Si3 0.431235 0.807385 0.795365
Si Si4 0.612151 0.589521 0.233130
Si Si5 0.143088 0.714366 0.798059
Si Si6 0.231719 0.619362 0.385194
Si Si7 0.480268 0.105191 0.385914
O O1 0.644928 0.118660 0.169884
O O2 0.782863 0.226240 0.143167
O O3 0.813884 0.044802 0.137493
O O4 0.719585 0.123779 0.000000
O O5 0.047762 0.771993 0.794259
O O6 0.928755 0.912325 0.798097
O O7 0.391751 0.702606 0.799888
O O8 0.520221 0.815850 0.866364
O O9 0.456208 0.829147 0.681145
O O10 0.611205 0.480672 0.201866
O O11 0.613737 0.658571 0.138955
O O12 0.180596 0.692743 0.686744
O O13 0.125974 0.625709 0.864261
O O14 0.218314 0.648517 0.500000
O O15 0.503865 0.126662 0.500000
O O16 0.500000 0.000000 0.357967
#
# Coordination Sequence:
#
# PCOD8303211 Si02
#       7
#     8   8   8   8   8   8   8
#     4  11  21  36  59  86 114 152 193 234 294 356
#     4   9  20  39  61  83 112 148 184 234 299 357
#     4  10  20  36  56  84 120 160 195 251 290 346
#     4   9  18  35  55  78 118 159 200 242 292 335
#     4  10  20  38  58  83 118 150 190 243 294 343
#     4  10  20  35  57  85 121 161 205 244 287 345
#     4  10  21  37  58  84 113 152 197 241 296 355
#
# _framework density 19.795248999999998
#
# number of rings (size 3 to 8) (size 9 to 14) (size 15 to 20)
#    0.000    2.143    1.429    1.714    0.000    1.143 
#    0.000   12.857    0.000    8.143    0.000    0.000 
#    0.000    0.000    0.000    0.000    0.000    0.000 
#
# Total GULP energy -694041.202075 kJ/mol
# GULP energy per Si atom -12393.592894 kJ/mol
# Density = 1.975019 g / cm^3
# Si number density = 19.795249 Si / 1000 Ang^3
#
#
#
# Elastic Constant Matrix: (Units=GPa)
#
#
# Indices 1 2 3 4 5 6 
#
# 1 98.6252 42.8487 35.5445 0.0000 0.0000 -0.3328
# 2 42.8487 98.6252 35.5445 0.0000 0.0000 0.3328
# 3 35.5445 35.5445 87.0007 0.0000 0.0000 0.0000
# 4 0.0000 0.0000 0.0000 17.5661 0.0000 0.0000
# 5 0.0000 0.0000 0.0000 0.0000 17.5661 0.0000
# 6 -0.3328 0.3328 0.0000 0.0000 0.0000 29.7259
#
#
#
# Elastic Compliance Matrix: (Units=1/GPa)
#
#
# Indices 1 2 3 4 5 6 
#
# 1 0.013413 -0.004518 -0.003634 0.000000 0.000000 0.000201
# 2 -0.004518 0.013413 -0.003634 0.000000 0.000000 -0.000201
# 3 -0.003634 -0.003634 0.014463 0.000000 0.000000 0.000000
# 4 0.000000 0.000000 0.000000 0.056928 0.000000 0.000000
# 5 0.000000 0.000000 0.000000 0.000000 0.056928 0.000000
# 6 0.000201 -0.000201 0.000000 0.000000 0.000000 0.033645
#
#
# Mechanical properties :
#
#
# Convention : Reuss Voigt Hill
#
# Bulk Modulus (GPa) = 56.44349 56.90294 56.67322
# Shear Modulus (GPa) = 22.90771 24.32586 23.61678
#
# Velocity S-wave (km/s) = 3.40550 3.50933 3.45781
# Velocity P-wave (km/s) = 6.63618 6.72523 6.68085
#
# Compressibility (1/GPa) = 0.01771683
#
# Stress axis : x y z
#
# Youngs Moduli (GPa) = 74.55594 74.55594 69.14002
#
# Poissons Ratio (x) = 0.33687 0.25124
# Poissons Ratio (y) = 0.33687 0.25124
# Poissons Ratio (z) = 0.27092 0.27092
#
# Static dielectric constant tensor:
#      x y z
#    x 3.885890 0.000000 0.000000 
#    y 0.000000 3.885890 0.000000 
#    z 0.000000 0.000000 3.168060 
# 
# 
# High freq. dielectric constant tensor:
#      x y z
#    x 1.785680 0.000000 0.000000 
#    y 0.000000 1.785680 0.000000 
#    z 0.000000 0.000000 1.728350 
# 
# From -- ./inp_files/2256.got.cif
#   From: 2010.03.12/outbox.cif.g09.slc.cpg/sg84_2_cif.got.tgz:2256.got - 2010.04.08 20:07:29.
