data_PCOD8303191
_publ_section_title
;
Structure prediction by ZEFSAII (Michael W. Deem and Ramdas Pophale) SiO2 
 PCOD8303191
Probable space group: P 42/M
;
_chemical_formula_sum "Si O2"
_cell_formula_units_Z 40
_cell_length_a 15.232828
_cell_length_b 15.232828
_cell_length_c 8.717506
_cell_angle_alpha 90.000000
_cell_angle_beta 90.000000
_cell_angle_gamma 90.000000
_cell_volume 2022.801801
_symmetry_space_group_name_H-M "P 42/M"
_symmetry_group_IT_number 84
_symmetry_cell_setting 'tetragonal'
loop_
_space_group_symop_operation_xyz
x,y,z
-y,x,1/2+z
-x,-y,z
y,-x,1/2+z
-x,-y,-z
y,-x,1/2-z
x,y,-z
-y,x,1/2-z
loop_
_atom_site_type_symbol
_atom_site_label
_atom_site_fract_x
_atom_site_fract_y
_atom_site_fract_z
Si Si1 0.721773 0.379119 0.318952
Si Si2 0.747620 0.576587 0.681061
Si Si3 0.930287 0.106166 0.321971
Si Si4 0.053713 0.415661 0.317834
Si Si5 0.700754 0.900204 0.180503
O O1 0.719324 0.365209 0.500000
O O2 0.646347 0.319532 0.248454
O O3 0.709812 0.480851 0.273864
O O4 0.816672 0.350483 0.251280
O O5 0.750141 0.588254 0.500000
O O6 0.846832 0.589135 0.748976
O O7 0.917150 0.082182 0.500000
O O8 0.886683 0.034012 0.212973
O O9 0.886304 0.197860 0.277657
O O10 0.062261 0.419362 0.500000
O O11 0.000000 0.500000 0.258397
O O12 0.994469 0.333948 0.257324
O O13 0.685148 0.902708 0.000000
#
# Coordination Sequence:
#
# PCOD8303191 Si02
#       5
#     8   8   8   8   8
#     4  10  21  38  57  80 112 144 180 226 279 328
#     4  10  21  36  59  86 108 141 184 227 272 323
#     4  10  20  34  51  73 105 142 179 215 261 316
#     4   9  15  30  56  81 104 131 173 221 261 308
#     4   9  18  32  52  78 106 138 174 220 272 321
#
# _framework density 19.774552
#
# number of rings (size 3 to 8) (size 9 to 14) (size 15 to 20)
#    0.000    2.400    2.000    1.200    2.800    1.200 
#    0.000    3.000    0.000    1.800    0.000    0.000 
#    0.000    0.000    0.000    0.000    0.000    0.000 
#
# Total GULP energy -495746.280039 kJ/mol
# GULP energy per Si atom -12393.657001 kJ/mol
# Density = 1.972954 g / cm^3
# Si number density = 19.774552 Si / 1000 Ang^3
#
#
#
# Elastic Constant Matrix: (Units=GPa)
#
#
# Indices 1 2 3 4 5 6 
#
# 1 118.9713 88.7428 17.3492 0.0000 0.0000 13.9732
# 2 88.7428 118.9713 17.3492 0.0000 0.0000 -13.9732
# 3 17.3492 17.3492 15.8529 0.0000 0.0000 0.0000
# 4 0.0000 0.0000 0.0000 23.5000 0.0000 0.0000
# 5 0.0000 0.0000 0.0000 0.0000 23.5000 0.0000
# 6 13.9732 -13.9732 0.0000 0.0000 0.0000 35.7101
#
#
#
# Elastic Compliance Matrix: (Units=1/GPa)
#
#
# Indices 1 2 3 4 5 6 
#
# 1 0.028861 -0.022970 -0.006447 0.000000 0.000000 -0.020281
# 2 -0.022970 0.028861 -0.006447 0.000000 0.000000 0.020281
# 3 -0.006447 -0.006447 0.077192 0.000000 0.000000 0.000000
# 4 0.000000 0.000000 0.000000 0.042553 0.000000 0.000000
# 5 0.000000 0.000000 0.000000 0.000000 0.042553 0.000000
# 6 -0.020281 0.020281 0.000000 0.000000 0.000000 0.043875
#
#
# Mechanical properties :
#
#
# Convention : Reuss Voigt Hill
#
# Bulk Modulus (GPa) = 15.82661 55.63089 35.72875
# Shear Modulus (GPa) = 14.01787 25.23231 19.62509
#
# Velocity S-wave (km/s) = 2.66538 3.57599 3.15372
# Velocity P-wave (km/s) = 4.18249 6.72636 5.60076
#
# Compressibility (1/GPa) = 0.06318471
#
# Stress axis : x y z
#
# Youngs Moduli (GPa) = 34.64828 34.64828 12.95477
#
# Poissons Ratio (x) = 0.79588 0.08352
# Poissons Ratio (y) = 0.79588 0.08352
# Poissons Ratio (z) = 0.22339 0.22339
#
# Static dielectric constant tensor:
#      x y z
#    x 3.783940 0.000000 0.000000 
#    y 0.000000 3.783940 0.000000 
#    z 0.000000 0.000000 3.081780 
# 
# 
# High freq. dielectric constant tensor:
#      x y z
#    x 1.781030 0.000000 0.000000 
#    y 0.000000 1.781030 0.000000 
#    z 0.000000 0.000000 1.718260 
# 
# From -- ./inp_files/741.got.cif
#   From: 2010.03.12/outbox.cif.g09.slc.cpg/sg84_1_cif.got.tgz:741.got - 2010.04.08 20:07:29.
