data_PCOD8303606
_publ_section_title
;
Structure prediction by ZEFSAII (Michael W. Deem and Ramdas Pophale) SiO2 
 PCOD8303606
Probable space group: P 42/N
;
_chemical_formula_sum "Si O2"
_cell_formula_units_Z 32
_cell_length_a 8.188231
_cell_length_b 8.188231
_cell_length_c 21.348768
_cell_angle_alpha 90.000000
_cell_angle_beta 90.000000
_cell_angle_gamma 90.000000
_cell_volume 1431.373557
_symmetry_space_group_name_H-M "P 42/N"
_symmetry_group_IT_number 86
_space_group.IT_coordinate_system_code '2'
_symmetry_cell_setting 'tetragonal'
loop_
_space_group_symop_operation_xyz
x,y,z
-y,1/2+x,1/2+z
1/2-x,1/2-y,z
1/2+y,-x,1/2+z
-x,-y,-z
y,1/2-x,1/2-z
1/2+x,1/2+y,-z
1/2-y,x,1/2-z
loop_
_atom_site_type_symbol
_atom_site_label
_atom_site_fract_x
_atom_site_fract_y
_atom_site_fract_z
Si Si1 0.250000 0.250000 0.144531
Si Si2 0.023420 0.539899 0.704203
Si Si3 0.935498 0.803383 0.325133
Si Si4 0.750000 0.250000 0.870958
Si Si5 0.487897 0.458217 0.427888
O O1 0.322192 0.387582 0.191493
O O2 0.395391 0.186420 0.098683
O O3 0.061967 0.512816 0.777756
O O4 0.963050 0.366378 0.676313
O O5 0.192946 0.597799 0.671932
O O6 0.750000 0.750000 0.307487
O O7 0.951779 0.877577 0.393842
O O8 0.806190 0.393683 0.916017
O O9 0.500000 0.500000 0.500000
#
# Coordination Sequence:
#
# PCOD8303606 Si02
#       5
#     4   8   8   4   8
#     4  10  28  45  68 106 144 187 228 316 362 413
#     4  11  22  44  71 105 137 176 237 295 372 415
#     4  12  22  42  74 103 129 188 238 286 350 438
#     4  10  22  42  68 100 148 176 230 310 342 426
#     4  11  26  44  68 101 144 193 241 287 354 428
#
# _framework density 22.356151000000001
#
# number of rings (size 3 to 8) (size 9 to 14) (size 15 to 20)
#    0.000    1.000    5.000    0.000    1.750   10.000 
#    0.000    5.000    0.000    0.000    0.000    0.000 
#    0.000    0.000    0.000    0.000    0.000    0.000 
#
# Total GULP energy -396787.140534 kJ/mol
# GULP energy per Si atom -12399.598142 kJ/mol
# Density = 2.230527 g / cm^3
# Si number density = 22.356151 Si / 1000 Ang^3
#
#
#
# Elastic Constant Matrix: (Units=GPa)
#
#
# Indices 1 2 3 4 5 6 
#
# 1 97.9165 27.4579 54.9144 0.0000 0.0000 -3.3031
# 2 27.4579 97.9165 54.9144 0.0000 0.0000 3.3031
# 3 54.9144 54.9144 177.1231 0.0000 0.0000 0.0000
# 4 0.0000 0.0000 0.0000 26.0252 0.0000 0.0000
# 5 0.0000 0.0000 0.0000 0.0000 26.0252 0.0000
# 6 -3.3031 3.3031 0.0000 0.0000 0.0000 32.4251
#
#
#
# Elastic Compliance Matrix: (Units=1/GPa)
#
#
# Indices 1 2 3 4 5 6 
#
# 1 0.012640 -0.001690 -0.003395 0.000000 0.000000 0.001460
# 2 -0.001690 0.012640 -0.003395 0.000000 0.000000 -0.001460
# 3 -0.003395 -0.003395 0.007751 0.000000 0.000000 0.000000
# 4 0.000000 0.000000 0.000000 0.038424 0.000000 0.000000
# 5 0.000000 0.000000 0.000000 0.000000 0.038424 0.000000
# 6 0.001460 -0.001460 0.000000 0.000000 0.000000 0.031138
#
#
# Mechanical properties :
#
#
# Convention : Reuss Voigt Hill
#
# Bulk Modulus (GPa) = 62.22240 71.94773 67.08507
# Shear Modulus (GPa) = 30.61229 32.60639 31.60934
#
# Velocity S-wave (km/s) = 3.70442 3.82317 3.76426
# Velocity P-wave (km/s) = 6.79630 7.19314 6.99753
#
# Compressibility (1/GPa) = 0.01607138
#
# Stress axis : x y z
#
# Youngs Moduli (GPa) = 79.11497 79.11497 129.01772
#
# Poissons Ratio (x) = 0.13369 0.43800
# Poissons Ratio (y) = 0.13369 0.43800
# Poissons Ratio (z) = 0.26859 0.26859
#
# Static dielectric constant tensor:
#      x y z
#    x 4.218430 0.000000 0.000000 
#    y 0.000000 4.218430 0.000000 
#    z 0.000000 0.000000 3.716030 
# 
# 
# High freq. dielectric constant tensor:
#      x y z
#    x 1.889650 0.000000 0.000000 
#    y 0.000000 1.889650 0.000000 
#    z 0.000000 0.000000 1.860290 
# 
# From -- ./inp_files/3889.got.cif
#   From: 2010.03.12/outbox.cif.g09.slc.cpg/sg86_2_cif.got.tgz:3889.got - 2010.04.08 20:12:58.
