data_PCOD8303259
_publ_section_title
;
Structure prediction by ZEFSAII (Michael W. Deem and Ramdas Pophale) SiO2 
 PCOD8303259
Probable space group: P 42/M
;
_chemical_formula_sum "Si O2"
_cell_formula_units_Z 40
_cell_length_a 12.160363
_cell_length_b 12.160363
_cell_length_c 13.326054
_cell_angle_alpha 90.000000
_cell_angle_beta 90.000000
_cell_angle_gamma 90.000000
_cell_volume 1970.582617
_symmetry_space_group_name_H-M "P 42/M"
_symmetry_group_IT_number 84
_symmetry_cell_setting 'tetragonal'
loop_
_space_group_symop_operation_xyz
x,y,z
-y,x,1/2+z
-x,-y,z
y,-x,1/2+z
-x,-y,-z
y,-x,1/2-z
x,y,-z
-y,x,1/2-z
loop_
_atom_site_type_symbol
_atom_site_label
_atom_site_fract_x
_atom_site_fract_y
_atom_site_fract_z
Si Si1 0.750479 0.022167 0.798770
Si Si2 0.362601 0.390580 0.742341
Si Si3 0.954166 0.119802 0.114788
Si Si4 0.324649 0.195427 0.113766
Si Si5 0.422810 0.836566 0.113431
O O1 0.825243 0.108677 0.860877
O O2 0.629572 0.074773 0.809808
O O3 0.788029 0.013770 0.682801
O O4 0.756444 0.899519 0.845713
O O5 0.359098 0.513453 0.789901
O O6 0.311337 0.306726 0.822838
O O7 0.287938 0.389133 0.642890
O O8 0.974425 0.153887 0.000000
O O9 0.000000 0.000000 0.142434
O O10 0.447142 0.147684 0.121281
O O11 0.292147 0.223778 0.000000
O O12 0.382599 0.859059 0.000000
#
# Coordination Sequence:
#
# PCOD8303259 Si02
#       5
#     8   8   8   8   8
#     4  12  20  38  57  82 112 148 188 231 280 336
#     4   9  19  36  57  83 115 148 188 238 287 337
#     4  11  23  38  55  80 108 140 183 229 280 331
#     4  10  21  35  57  86 114 147 190 235 283 338
#     4  10  21  36  56  84 115 151 189 231 283 339
#
# _framework density 20.298566999999998
#
# number of rings (size 3 to 8) (size 9 to 14) (size 15 to 20)
#    0.000    1.600    2.000    3.600    0.000    2.400 
#    0.000    4.000    0.000    4.800    0.000    0.000 
#    0.000    0.000    0.000    0.000    0.000    0.000 
#
# Total GULP energy -496005.486187 kJ/mol
# GULP energy per Si atom -12400.137155 kJ/mol
# Density = 2.025237 g / cm^3
# Si number density = 20.298567 Si / 1000 Ang^3
#
#
#
# Elastic Constant Matrix: (Units=GPa)
#
#
# Indices 1 2 3 4 5 6 
#
# 1 58.4745 17.6645 40.2679 0.0000 0.0000 -5.4280
# 2 17.6645 58.4745 40.2679 0.0000 0.0000 5.4280
# 3 40.2679 40.2679 138.0395 0.0000 0.0000 0.0000
# 4 0.0000 0.0000 0.0000 30.4167 0.0000 0.0000
# 5 0.0000 0.0000 0.0000 0.0000 30.4167 0.0000
# 6 -5.4280 5.4280 0.0000 0.0000 0.0000 38.0552
#
#
#
# Elastic Compliance Matrix: (Units=1/GPa)
#
#
# Indices 1 2 3 4 5 6 
#
# 1 0.022233 -0.003238 -0.005541 0.000000 0.000000 0.003633
# 2 -0.003238 0.022233 -0.005541 0.000000 0.000000 -0.003633
# 3 -0.005541 -0.005541 0.010477 0.000000 0.000000 0.000000
# 4 0.000000 0.000000 0.000000 0.032877 0.000000 0.000000
# 5 0.000000 0.000000 0.000000 0.000000 0.032877 0.000000
# 6 0.003633 -0.003633 0.000000 0.000000 0.000000 0.027314
#
#
# Mechanical properties :
#
#
# Convention : Reuss Voigt Hill
#
# Bulk Modulus (GPa) = 38.01890 50.15435 44.08663
# Shear Modulus (GPa) = 26.96629 30.23027 28.59828
#
# Velocity S-wave (km/s) = 3.64879 3.86331 3.75758
# Velocity P-wave (km/s) = 6.04335 6.68297 6.37119
#
# Compressibility (1/GPa) = 0.02630270
#
# Stress axis : x y z
#
# Youngs Moduli (GPa) = 44.97906 44.97906 95.44614
#
# Poissons Ratio (x) = 0.14563 0.52887
# Poissons Ratio (y) = 0.14563 0.52887
# Poissons Ratio (z) = 0.24923 0.24923
#
# Static dielectric constant tensor:
#      x y z
#    x 3.729540 0.000000 0.000000 
#    y 0.000000 3.729540 0.000000 
#    z 0.000000 0.000000 3.542000 
# 
# 
# High freq. dielectric constant tensor:
#      x y z
#    x 1.795060 0.000000 0.000000 
#    y 0.000000 1.795060 0.000000 
#    z 0.000000 0.000000 1.777250 
# 
# From -- ./inp_files/2896.got.cif
#   From: 2010.03.12/outbox.cif.g09.slc.cpg/sg84_2_cif.got.tgz:2896.got - 2010.04.08 20:07:29.
