data_PCOD8303505
_publ_section_title
;
Structure prediction by ZEFSAII (Michael W. Deem and Ramdas Pophale) SiO2 
 PCOD8303505
Probable space group: P 42/N
;
_chemical_formula_sum "Si O2"
_cell_formula_units_Z 54
_cell_length_a 14.794538
_cell_length_b 14.794538
_cell_length_c 11.877704
_cell_angle_alpha 90.000000
_cell_angle_beta 90.000000
_cell_angle_gamma 90.000000
_cell_volume 2599.772308
_symmetry_space_group_name_H-M "P 42/N"
_symmetry_group_IT_number 86
_space_group.IT_coordinate_system_code '2'
_symmetry_cell_setting 'tetragonal'
loop_
_space_group_symop_operation_xyz
x,y,z
-y,1/2+x,1/2+z
1/2-x,1/2-y,z
1/2+y,-x,1/2+z
-x,-y,-z
y,1/2-x,1/2-z
1/2+x,1/2+y,-z
1/2-y,x,1/2-z
loop_
_atom_site_type_symbol
_atom_site_label
_atom_site_fract_x
_atom_site_fract_y
_atom_site_fract_z
Si Si1 0.465429 0.078714 0.576269
Si Si2 0.436874 0.742050 0.431054
Si Si3 0.750000 0.250000 0.951094
Si Si4 0.547094 0.482233 0.319178
Si Si5 0.738885 0.421261 0.318487
Si Si6 0.735889 0.895300 0.433624
Si Si7 0.888806 0.581040 0.972117
Si Si8 0.250000 0.250000 0.750000
O O1 0.543316 0.152288 0.563838
O O2 0.459826 0.039563 0.704255
O O3 0.369292 0.122061 0.534921
O O4 0.500000 0.000000 0.500000
O O5 0.336068 0.720649 0.474427
O O6 0.440079 0.711466 0.300443
O O7 0.515211 0.694825 0.503616
O O8 0.668761 0.280379 0.870831
O O9 0.629914 0.411412 0.303974
O O10 0.452795 0.432151 0.353271
O O11 0.572375 0.544877 0.423002
O O12 0.760948 0.499578 0.406288
O O13 0.809846 0.867625 0.531519
O O14 0.764568 0.838703 0.324176
#
# Coordination Sequence:
#
# PCOD8303505 Si02
#       8
#     8   8   4   8   8   8   8   2
#     4  11  23  40  57  86 125 165 206 261 315 379
#     4  11  22  36  59  85 120 158 204 258 308 376
#     4  12  22  36  54  84 122 168 206 240 314 376
#     4   9  19  37  59  83 120 156 198 254 317 378
#     4  10  20  36  54  83 119 155 201 251 301 377
#     4  11  21  36  62  90 119 153 206 262 327 377
#     4  10  19  36  61  91 117 156 202 258 324 382
#     4  12  20  36  64 100 118 152 200 280 336 362
#
# _framework density 20.771049000000001
#
# number of rings (size 3 to 8) (size 9 to 14) (size 15 to 20)
#    0.000    1.481    1.481    6.667    0.000    0.000 
#    0.000    1.481    0.000    0.000    0.000    2.074 
#    0.000    0.000    0.000    0.000    0.000    0.000 
#
# Total GULP energy -669209.911180 kJ/mol
# GULP energy per Si atom -12392.776133 kJ/mol
# Density = 2.072377 g / cm^3
# Si number density = 20.771049 Si / 1000 Ang^3
#
#
#
# Elastic Constant Matrix: (Units=GPa)
#
#
# Indices 1 2 3 4 5 6 
#
# 1 91.7733 4.1832 21.3767 0.0000 0.0000 3.2932
# 2 4.1832 91.7733 21.3767 0.0000 0.0000 -3.2932
# 3 21.3767 21.3767 50.5653 0.0000 0.0000 0.0000
# 4 0.0000 0.0000 0.0000 29.6475 0.0000 0.0000
# 5 0.0000 0.0000 0.0000 0.0000 29.6475 0.0000
# 6 3.2932 -3.2932 0.0000 0.0000 0.0000 27.5039
#
#
#
# Elastic Compliance Matrix: (Units=1/GPa)
#
#
# Indices 1 2 3 4 5 6 
#
# 1 0.012180 0.000660 -0.005428 0.000000 0.000000 -0.001379
# 2 0.000660 0.012180 -0.005428 0.000000 0.000000 0.001379
# 3 -0.005428 -0.005428 0.024366 0.000000 0.000000 0.000000
# 4 0.000000 0.000000 0.000000 0.033730 0.000000 0.000000
# 5 0.000000 0.000000 0.000000 0.000000 0.033730 0.000000
# 6 -0.001379 0.001379 0.000000 0.000000 0.000000 0.036689
#
#
# Mechanical properties :
#
#
# Convention : Reuss Voigt Hill
#
# Bulk Modulus (GPa) = 35.29427 36.44280 35.86853
# Shear Modulus (GPa) = 27.36545 29.83812 28.60178
#
# Velocity S-wave (km/s) = 3.63365 3.79426 3.71482
# Velocity P-wave (km/s) = 5.88502 6.06451 5.97544
#
# Compressibility (1/GPa) = 0.02833321
#
# Stress axis : x y z
#
# Youngs Moduli (GPa) = 82.10036 82.10036 41.04092
#
# Poissons Ratio (x) = -0.05416 0.22278
# Poissons Ratio (y) = -0.05416 0.22278
# Poissons Ratio (z) = 0.44565 0.44565
#
# Static dielectric constant tensor:
#      x y z
#    x 3.980290 0.000000 0.000000 
#    y 0.000000 3.980290 0.000000 
#    z 0.000000 0.000000 3.647470 
# 
# 
# High freq. dielectric constant tensor:
#      x y z
#    x 1.813700 0.000000 0.000000 
#    y 0.000000 1.813700 0.000000 
#    z 0.000000 0.000000 1.780560 
# 
# From -- ./inp_files/2410.got.cif
#   From: 2010.03.12/outbox.cif.g09.slc.cpg/sg86_2_cif.got.tgz:2410.got - 2010.04.08 20:12:58.
