data_PCOD8303329
_publ_section_title
;
Structure prediction by ZEFSAII (Michael W. Deem and Ramdas Pophale) SiO2 
 PCOD8303329
Probable space group: P 42/M
;
_chemical_formula_sum "Si O2"
_cell_formula_units_Z 40
_cell_length_a 14.129003
_cell_length_b 14.129003
_cell_length_c 9.387660
_cell_angle_alpha 90.000000
_cell_angle_beta 90.000000
_cell_angle_gamma 90.000000
_cell_volume 1874.046604
_symmetry_space_group_name_H-M "P 42/M"
_symmetry_group_IT_number 84
_symmetry_cell_setting 'tetragonal'
loop_
_space_group_symop_operation_xyz
x,y,z
-y,x,1/2+z
-x,-y,z
y,-x,1/2+z
-x,-y,-z
y,-x,1/2-z
x,y,-z
-y,x,1/2-z
loop_
_atom_site_type_symbol
_atom_site_label
_atom_site_fract_x
_atom_site_fract_y
_atom_site_fract_z
Si Si1 0.860499 0.243996 0.732171
Si Si2 0.630538 0.545962 0.674706
Si Si3 0.996925 0.608848 0.165538
Si Si4 0.858758 0.914991 0.500000
Si Si5 0.651147 0.216882 0.336950
Si Si6 0.924144 0.109285 0.500000
O O1 0.755115 0.263431 0.675514
O O2 0.918214 0.174469 0.634875
O O3 0.919868 0.340752 0.745590
O O4 0.854812 0.185738 0.875603
O O5 0.616066 0.443731 0.747301
O O6 0.619988 0.543503 0.500000
O O7 0.733680 0.582032 0.722229
O O8 0.894331 0.652877 0.200833
O O9 0.000000 0.500000 0.210868
O O10 0.022185 0.622023 0.000000
O O11 0.970029 0.927370 0.500000
O O12 0.838688 0.029475 0.500000
O O13 0.614924 0.231605 0.500000
#
# Coordination Sequence:
#
# PCOD8303329 Si02
#       6
#     8   8   8   4   8   4
#     4  12  23  40  64  91 131 176 227 279 344 411
#     4  11  24  45  74 105 138 174 225 285 346 413
#     4  10  23  44  68  96 132 178 230 284 344 418
#     4  11  22  36  63  90 126 165 229 274 334 414
#     4  11  24  43  68  98 140 182 227 288 348 410
#     4  11  22  38  59  92 128 169 211 286 342 392
#
# _framework density 21.344186000000001
#
# number of rings (size 3 to 8) (size 9 to 14) (size 15 to 20)
#    0.000    1.000    2.000    6.000    4.200    1.600 
#    1.800    0.500    0.000    0.000    0.000    0.000 
#    0.000    0.000    0.000    0.000    0.000    0.000 
#
# Total GULP energy -495716.459101 kJ/mol
# GULP energy per Si atom -12392.911478 kJ/mol
# Density = 2.129561 g / cm^3
# Si number density = 21.344186 Si / 1000 Ang^3
#
#
#
# Elastic Constant Matrix: (Units=GPa)
#
#
# Indices 1 2 3 4 5 6 
#
# 1 80.6766 17.6757 21.9005 0.0000 0.0000 3.1867
# 2 17.6757 80.6766 21.9005 0.0000 0.0000 -3.1867
# 3 21.9005 21.9005 131.9588 0.0000 0.0000 0.0000
# 4 0.0000 0.0000 0.0000 39.8861 0.0000 0.0000
# 5 0.0000 0.0000 0.0000 0.0000 39.8861 0.0000
# 6 3.1867 -3.1867 0.0000 0.0000 0.0000 37.3337
#
#
#
# Elastic Compliance Matrix: (Units=1/GPa)
#
#
# Indices 1 2 3 4 5 6 
#
# 1 0.013495 -0.002516 -0.001822 0.000000 0.000000 -0.001367
# 2 -0.002516 0.013495 -0.001822 0.000000 0.000000 0.001367
# 3 -0.001822 -0.001822 0.008183 0.000000 0.000000 0.000000
# 4 0.000000 0.000000 0.000000 0.025071 0.000000 0.000000
# 5 0.000000 0.000000 0.000000 0.000000 0.025071 0.000000
# 6 -0.001367 0.001367 0.000000 0.000000 0.000000 0.027019
#
#
# Mechanical properties :
#
#
# Convention : Reuss Voigt Hill
#
# Bulk Modulus (GPa) = 43.75898 46.25171 45.00535
# Shear Modulus (GPa) = 37.80073 38.87686 38.33880
#
# Velocity S-wave (km/s) = 4.21290 4.27245 4.24278
# Velocity P-wave (km/s) = 6.64912 6.78638 6.71810
#
# Compressibility (1/GPa) = 0.02285245
#
# Stress axis : x y z
#
# Youngs Moduli (GPa) = 74.10133 74.10133 122.20545
#
# Poissons Ratio (x) = 0.18644 0.22267
# Poissons Ratio (y) = 0.18644 0.22267
# Poissons Ratio (z) = 0.13502 0.13502
#
# Static dielectric constant tensor:
#      x y z
#    x 3.837430 0.000000 0.000000 
#    y 0.000000 3.837430 0.000000 
#    z 0.000000 0.000000 3.866700 
# 
# 
# High freq. dielectric constant tensor:
#      x y z
#    x 1.840830 0.000000 0.000000 
#    y 0.000000 1.840830 0.000000 
#    z 0.000000 0.000000 1.836450 
# 
# From -- ./inp_files/843.got.cif
#   From: 2010.03.12/outbox.cif.g09.slc.cpg/sg84_1_cif.got.tgz:843.got - 2010.04.08 20:07:29.
