data_PCOD8303022
_publ_section_title
;
Structure prediction by ZEFSAII (Michael W. Deem and Ramdas Pophale) SiO2 
 PCOD8303022
Probable space group: P 4/M
;
_chemical_formula_sum "Si O2"
_cell_formula_units_Z 40
_cell_length_a 15.775964
_cell_length_b 15.775964
_cell_length_c 7.677118
_cell_angle_alpha 90.000000
_cell_angle_beta 90.000000
_cell_angle_gamma 90.000000
_cell_volume 1910.689113
_symmetry_space_group_name_H-M "P 4/M"
_symmetry_group_IT_number 83
_symmetry_cell_setting 'tetragonal'
loop_
_space_group_symop_operation_xyz
x,y,z
-y,x,z
-x,-y,z
y,-x,z
-x,-y,-z
y,-x,-z
x,y,-z
-y,x,-z
loop_
_atom_site_type_symbol
_atom_site_label
_atom_site_fract_x
_atom_site_fract_y
_atom_site_fract_z
Si Si1 0.407402 0.104661 0.500000
Si Si2 0.217968 0.658263 0.804373
Si Si3 0.376061 0.557217 0.295895
Si Si4 0.942779 0.876062 0.704104
Si Si5 0.092605 0.395346 0.500000
Si Si6 0.282032 0.841737 0.195626
O O1 0.369385 0.144443 0.674461
O O2 0.507366 0.118909 0.500000
O O3 0.381145 0.007363 0.500000
O O4 0.295836 0.592653 0.806081
O O5 0.250004 0.749999 0.743204
O O6 0.180355 0.661676 0.000000
O O7 0.389292 0.459329 0.243912
O O8 0.358320 0.565905 0.500000
O O9 0.934089 0.858315 0.500000
O O10 0.907341 0.795842 0.806088
O O11 0.040668 0.889291 0.756082
O O12 0.130604 0.355551 0.325538
O O13 0.319647 0.838327 0.000000
#
# Coordination Sequence:
#
# PCOD8303022 Si02
#       6
#     4   8   8   8   4   8
#     4  11  27  48  70  91 124 178 224 269 321 370
#     4  11  25  41  66  99 129 166 212 265 325 385
#     4   9  19  36  62  95 129 168 209 256 321 390
#     4   9  19  36  62  95 129 168 209 256 321 390
#     4  11  27  48  70  91 124 178 224 269 321 370
#     4  11  25  41  66  99 129 166 212 265 325 385
#
# _framework density 20.934856
#
# number of rings (size 3 to 8) (size 9 to 14) (size 15 to 20)
#    0.000    1.800    2.000    1.800    5.600    3.200 
#    0.000    4.000    0.000    0.000    0.000    0.000 
#    0.000    0.000    0.000    0.000    0.000    0.000 
#
# Total GULP energy -496169.528288 kJ/mol
# GULP energy per Si atom -12404.238207 kJ/mol
# Density = 2.088721 g / cm^3
# Si number density = 20.934856 Si / 1000 Ang^3
#
#
#
# Elastic Constant Matrix: (Units=GPa)
#
#
# Indices 1 2 3 4 5 6 
#
# 1 81.8423 47.2285 59.8438 0.0000 0.0000 0.4650
# 2 47.2285 81.8423 59.8438 0.0000 0.0000 -0.4650
# 3 59.8438 59.8438 120.5796 0.0000 0.0000 0.0000
# 4 0.0000 0.0000 0.0000 9.4243 0.0000 0.0000
# 5 0.0000 0.0000 0.0000 0.0000 9.4243 0.0000
# 6 0.4650 -0.4650 0.0000 0.0000 0.0000 32.5868
#
#
#
# Elastic Compliance Matrix: (Units=1/GPa)
#
#
# Indices 1 2 3 4 5 6 
#
# 1 0.021627 -0.007274 -0.007124 0.000000 0.000000 -0.000412
# 2 -0.007274 0.021627 -0.007124 0.000000 0.000000 0.000412
# 3 -0.007124 -0.007124 0.015364 0.000000 0.000000 0.000000
# 4 0.000000 0.000000 0.000000 0.106109 0.000000 0.000000
# 5 0.000000 0.000000 0.000000 0.000000 0.106109 0.000000
# 6 -0.000412 0.000412 0.000000 0.000000 0.000000 0.030699
#
#
# Mechanical properties :
#
#
# Convention : Reuss Voigt Hill
#
# Bulk Modulus (GPa) = 64.19899 68.67738 66.43818
# Shear Modulus (GPa) = 14.29507 18.11027 16.20267
#
# Velocity S-wave (km/s) = 2.61595 2.94441 2.78503
# Velocity P-wave (km/s) = 6.31323 6.66603 6.49203
#
# Compressibility (1/GPa) = 0.01557657
#
# Stress axis : x y z
#
# Youngs Moduli (GPa) = 46.23772 46.23772 65.08632
#
# Poissons Ratio (x) = 0.33633 0.46365
# Poissons Ratio (y) = 0.33633 0.46365
# Poissons Ratio (z) = 0.32938 0.32938
#
# Static dielectric constant tensor:
#      x y z
#    x 3.826120 0.000000 0.000000 
#    y 0.000000 3.826120 0.000000 
#    z 0.000000 0.000000 3.672900 
# 
# 
# High freq. dielectric constant tensor:
#      x y z
#    x 1.821660 0.000000 0.000000 
#    y 0.000000 1.821660 0.000000 
#    z 0.000000 0.000000 1.821370 
# 
# From -- ./inp_files/743.got.cif
#   From: 2010.03.12/outbox.cif.g09.slc.cpg/sg83_1_cif.got.tgz:743.got - 2010.04.08 20:05:18.
