data_PCOD8303064
_publ_section_title
;
Structure prediction by ZEFSAII (Michael W. Deem and Ramdas Pophale) SiO2 
 PCOD8303064
Probable space group: P 42/M
;
_chemical_formula_sum "Si O2"
_cell_formula_units_Z 40
_cell_length_a 17.163065
_cell_length_b 17.163065
_cell_length_c 8.881481
_cell_angle_alpha 90.000000
_cell_angle_beta 90.000000
_cell_angle_gamma 90.000000
_cell_volume 2616.224965
_symmetry_space_group_name_H-M "P 42/M"
_symmetry_group_IT_number 84
_symmetry_cell_setting 'tetragonal'
loop_
_space_group_symop_operation_xyz
x,y,z
-y,x,1/2+z
-x,-y,z
y,-x,1/2+z
-x,-y,-z
y,-x,1/2-z
x,y,-z
-y,x,1/2-z
loop_
_atom_site_type_symbol
_atom_site_label
_atom_site_fract_x
_atom_site_fract_y
_atom_site_fract_z
Si Si1 0.843259 0.387270 0.831524
Si Si2 0.295708 0.890176 0.177058
Si Si3 0.743457 0.955748 0.669450
Si Si4 0.197021 0.760074 0.678422
Si Si5 0.914832 0.525114 0.676072
O O1 0.929440 0.347483 0.835488
O O2 0.787683 0.329228 0.734138
O O3 0.849805 0.472142 0.757428
O O4 0.809020 0.395428 0.000000
O O5 0.266001 0.812672 0.257495
O O6 0.386113 0.898019 0.218184
O O7 0.248201 0.964061 0.240219
O O8 0.281306 0.884736 0.000000
O O9 0.776529 0.966232 0.500000
O O10 0.790545 0.886422 0.755345
O O11 0.195480 0.763726 0.500000
O O12 0.907263 0.509312 0.500000
O O13 0.000000 0.500000 0.733181
#
# Coordination Sequence:
#
# PCOD8303064 Si02
#       5
#     8   8   8   8   8
#     4   9  18  30  45  63  90 122 153 188 230 276
#     4  11  20  30  48  72  97 124 159 195 229 280
#     4   9  18  31  46  66  89 120 155 191 233 272
#     4  10  19  32  47  64  91 125 160 194 234 278
#     4  10  18  28  44  68  96 124 152 184 231 282
#
# _framework density 15.289205000000001
#
# number of rings (size 3 to 8) (size 9 to 14) (size 15 to 20)
#    1.200    1.000    2.000    3.000    0.000    2.000 
#    0.000    0.000    0.000    0.600    0.000    4.200 
#    0.000    0.800    0.000    8.400    0.000    3.600 
#
# Total GULP energy -495674.646693 kJ/mol
# GULP energy per Si atom -12391.866167 kJ/mol
# Density = 1.525441 g / cm^3
# Si number density = 15.289205 Si / 1000 Ang^3
#
#
#
# Elastic Constant Matrix: (Units=GPa)
#
#
# Indices 1 2 3 4 5 6 
#
# 1 64.9051 46.8144 48.8523 0.0000 0.0000 -7.7969
# 2 46.8144 64.9051 48.8523 0.0000 0.0000 7.7969
# 3 48.8523 48.8523 120.8439 0.0000 0.0000 0.0000
# 4 0.0000 0.0000 0.0000 25.2924 0.0000 0.0000
# 5 0.0000 0.0000 0.0000 0.0000 25.2924 0.0000
# 6 -7.7969 7.7969 0.0000 0.0000 0.0000 17.0172
#
#
#
# Elastic Compliance Matrix: (Units=1/GPa)
#
#
# Indices 1 2 3 4 5 6 
#
# 1 0.052602 -0.038756 -0.005598 0.000000 0.000000 0.041858
# 2 -0.038756 0.052602 -0.005598 0.000000 0.000000 -0.041858
# 3 -0.005598 -0.005598 0.012801 0.000000 0.000000 0.000000
# 4 0.000000 0.000000 0.000000 0.039538 0.000000 0.000000
# 5 0.000000 0.000000 0.000000 0.000000 0.039538 0.000000
# 6 0.041858 -0.041858 0.000000 0.000000 0.000000 0.097122
#
#
# Mechanical properties :
#
#
# Convention : Reuss Voigt Hill
#
# Bulk Modulus (GPa) = 55.23815 59.96579 57.60197
# Shear Modulus (GPa) = 12.49567 20.59606 16.54587
#
# Velocity S-wave (km/s) = 2.86193 3.67427 3.29324
# Velocity P-wave (km/s) = 6.86499 7.57010 7.22615
#
# Compressibility (1/GPa) = 0.01810343
#
# Stress axis : x y z
#
# Youngs Moduli (GPa) = 19.01058 19.01058 78.11987
#
# Poissons Ratio (x) = 0.73677 0.43728
# Poissons Ratio (y) = 0.73677 0.43728
# Poissons Ratio (z) = 0.10641 0.10641
#
# Static dielectric constant tensor:
#      x y z
#    x 2.666980 0.000000 0.000000 
#    y 0.000000 2.666980 0.000000 
#    z 0.000000 0.000000 2.980660 
# 
# 
# High freq. dielectric constant tensor:
#      x y z
#    x 1.553680 0.000000 0.000000 
#    y 0.000000 1.553680 0.000000 
#    z 0.000000 0.000000 1.604990 
# 
# From -- ./inp_files/898.got.cif
#   From: 2010.03.12/outbox.cif.g09.slc.cpg/sg84_1_cif.got.tgz:898.got - 2010.04.08 20:07:29.
