data_PCOD8303780
_publ_section_title
;
Structure prediction by ZEFSAII (Michael W. Deem and Ramdas Pophale) SiO2 
 PCOD8303780
Probable space group: I 4/M
;
_chemical_formula_sum "Si O2"
_cell_formula_units_Z 96
_cell_length_a 24.119838
_cell_length_b 24.119838
_cell_length_c 9.104633
_cell_angle_alpha 90.000000
_cell_angle_beta 90.000000
_cell_angle_gamma 90.000000
_cell_volume 5296.771249
_symmetry_space_group_name_H-M "I 4/M"
_symmetry_group_IT_number 87
_symmetry_cell_setting 'tetragonal'
loop_
_space_group_symop_operation_xyz
x,y,z
-y,x,z
-x,-y,z
y,-x,z
-x,-y,-z
y,-x,-z
x,y,-z
-y,x,-z
1/2+x,1/2+y,1/2+z
1/2-y,1/2+x,1/2+z
1/2-x,1/2-y,1/2+z
1/2+y,1/2-x,1/2+z
1/2-x,1/2-y,1/2-z
1/2+y,1/2-x,1/2-z
1/2+x,1/2+y,1/2-z
1/2-y,1/2+x,1/2-z
loop_
_atom_site_type_symbol
_atom_site_label
_atom_site_fract_x
_atom_site_fract_y
_atom_site_fract_z
Si Si1 0.555475 0.140841 0.165186
Si Si2 0.848126 0.274697 0.670609
Si Si3 0.936471 0.938925 0.674804
Si Si4 0.648504 0.055282 0.831537
Si Si5 0.350382 0.650704 0.172723
Si Si6 0.638576 0.775340 0.172455
O O1 0.594664 0.193204 0.193724
O O2 0.589397 0.084510 0.190028
O O3 0.507819 0.142175 0.284901
O O4 0.531002 0.142903 0.000000
O O5 0.830628 0.273326 0.500000
O O6 0.857537 0.213080 0.734824
O O7 0.798344 0.305077 0.755521
O O8 0.935090 0.936386 0.500000
O O9 0.891533 0.895741 0.742419
O O10 0.998530 0.922290 0.728199
O O11 0.694735 0.084256 0.732924
O O12 0.667648 0.059181 0.000000
O O13 0.288958 0.630097 0.211872
O O14 0.360130 0.652440 0.000000
O O15 0.643245 0.785358 0.000000
#
# Coordination Sequence:
#
# PCOD8303780 Si02
#       6
#    16  16  16  16  16  16
#     4   9  19  34  51  72  98 131 167 204 249 297
#     4   9  18  33  50  71 102 134 163 202 251 294
#     4   8  14  25  41  63  93 126 158 196 242 287
#     4  10  21  36  53  73 100 133 166 206 254 298
#     4   9  17  28  46  72  98 129 168 204 242 292
#     4  10  19  31  49  73 100 131 167 205 247 295
#
# _framework density 18.124248000000001
#
# number of rings (size 3 to 8) (size 9 to 14) (size 15 to 20)
#    0.000    2.833    0.000    3.000    0.000    5.000 
#    0.000    7.500    0.000    0.000    0.000    0.000 
#    0.000    0.000    0.000   18.000    0.000   16.667 
#
# Total GULP energy -595103.484786 kJ/mol
# GULP energy per Si atom -12397.989266 kJ/mol
# Density = 1.808300 g / cm^3
# Si number density = 18.124248 Si / 1000 Ang^3
#
#
#
# Elastic Constant Matrix: (Units=GPa)
#
#
# Indices 1 2 3 4 5 6 
#
# 1 106.4493 63.3707 40.7077 0.0000 0.0000 -1.2171
# 2 63.3707 106.4493 40.7077 0.0000 0.0000 1.2171
# 3 40.7077 40.7077 53.1005 0.0000 0.0000 0.0000
# 4 0.0000 0.0000 0.0000 19.9771 0.0000 0.0000
# 5 0.0000 0.0000 0.0000 0.0000 19.9771 0.0000
# 6 -1.2171 1.2171 0.0000 0.0000 0.0000 23.2184
#
#
#
# Elastic Compliance Matrix: (Units=1/GPa)
#
#
# Indices 1 2 3 4 5 6 
#
# 1 0.016296 -0.006986 -0.007138 0.000000 0.000000 0.001220
# 2 -0.006986 0.016296 -0.007138 0.000000 0.000000 -0.001220
# 3 -0.007138 -0.007138 0.029776 0.000000 0.000000 0.000000
# 4 0.000000 0.000000 0.000000 0.050057 0.000000 0.000000
# 5 0.000000 0.000000 0.000000 0.000000 0.050057 0.000000
# 6 0.001220 -0.001220 0.000000 0.000000 0.000000 0.043197
#
#
# Mechanical properties :
#
#
# Convention : Reuss Voigt Hill
#
# Bulk Modulus (GPa) = 50.38685 61.73017 56.05851
# Shear Modulus (GPa) = 19.62181 20.71535 20.16858
#
# Velocity S-wave (km/s) = 3.29390 3.38444 3.33948
# Velocity P-wave (km/s) = 6.50596 7.02894 6.77250
#
# Compressibility (1/GPa) = 0.01984645
#
# Stress axis : x y z
#
# Youngs Moduli (GPa) = 61.36308 61.36308 33.58433
#
# Poissons Ratio (x) = 0.42868 0.23971
# Poissons Ratio (y) = 0.42868 0.23971
# Poissons Ratio (z) = 0.43798 0.43798
#
# Static dielectric constant tensor:
#      x y z
#    x 3.485200 0.000000 0.000000 
#    y 0.000000 3.485200 0.000000 
#    z 0.000000 0.000000 3.045660 
# 
# 
# High freq. dielectric constant tensor:
#      x y z
#    x 1.706180 0.000000 0.000000 
#    y 0.000000 1.706180 0.000000 
#    z 0.000000 0.000000 1.668540 
# 
# From -- ./inp_files/1314.got.cif
#   From: 2010.03.12/outbox.cif.g09.slc.cpg/sg87_1_cif.got.tgz:1314.got - 2010.04.08 20:16:13.
