data_PCOD8303317
_publ_section_title
;
Structure prediction by ZEFSAII (Michael W. Deem and Ramdas Pophale) SiO2 
 PCOD8303317
Probable space group: P 42/M
;
_chemical_formula_sum "Si O2"
_cell_formula_units_Z 40
_cell_length_a 8.331277
_cell_length_b 8.331277
_cell_length_c 25.871410
_cell_angle_alpha 90.000000
_cell_angle_beta 90.000000
_cell_angle_gamma 90.000000
_cell_volume 1795.739133
_symmetry_space_group_name_H-M "P 42/M"
_symmetry_group_IT_number 84
_symmetry_cell_setting 'tetragonal'
loop_
_space_group_symop_operation_xyz
x,y,z
-y,x,1/2+z
-x,-y,z
y,-x,1/2+z
-x,-y,-z
y,-x,1/2-z
x,y,-z
-y,x,1/2-z
loop_
_atom_site_type_symbol
_atom_site_label
_atom_site_fract_x
_atom_site_fract_y
_atom_site_fract_z
Si Si1 0.833915 0.061607 0.610637
Si Si2 0.574367 0.833582 0.138588
Si Si3 0.253981 0.510497 0.000000
Si Si4 0.500000 0.500000 0.410459
Si Si5 0.009216 0.758361 0.000000
Si Si6 0.000000 0.500000 0.162136
Si Si7 0.753470 0.477930 0.249950
O O1 0.819286 0.249319 0.616863
O O2 0.862569 0.019100 0.550892
O O3 0.665270 0.980384 0.629477
O O4 0.000000 0.000000 0.638888
O O5 0.485075 0.664996 0.123372
O O6 0.578581 0.856276 0.200729
O O7 0.500000 0.000000 0.115439
O O8 0.347501 0.480326 0.947066
O O9 0.109112 0.390322 0.000000
O O10 0.191774 0.693236 0.000000
O O11 0.848476 0.523758 0.198744
O O12 0.636101 0.338108 0.231841
#
# Coordination Sequence:
#
# PCOD8303317 Si02
#       7
#     8   8   4   4   4   4   8
#     4  12  29  48  73 108 145 191 239 301 367 435
#     4  12  27  45  72 107 144 191 245 293 359 437
#     4  10  22  42  74 103 137 191 241 302 361 435
#     4  11  24  46  71 102 146 188 243 303 360 420
#     4  11  23  46  73 103 144 183 245 293 370 440
#     4  12  26  47  74 104 148 191 240 300 366 430
#     4  11  24  44  71 102 139 187 239 292 352 427
#
# _framework density 22.274951000000001
#
# number of rings (size 3 to 8) (size 9 to 14) (size 15 to 20)
#    0.000    0.600    5.000    2.700    5.600    0.000 
#    0.000    2.500    0.000    0.000    0.000    0.000 
#    0.000    0.000    0.000    0.000    0.000    0.000 
#
# Total GULP energy -495729.822020 kJ/mol
# GULP energy per Si atom -12393.245551 kJ/mol
# Density = 2.222425 g / cm^3
# Si number density = 22.274951 Si / 1000 Ang^3
#
#
#
# Elastic Constant Matrix: (Units=GPa)
#
#
# Indices 1 2 3 4 5 6 
#
# 1 119.7426 24.3939 25.0604 0.0000 0.0000 -5.2736
# 2 24.3939 119.7426 25.0604 0.0000 0.0000 5.2736
# 3 25.0604 25.0604 114.3431 0.0000 0.0000 0.0000
# 4 0.0000 0.0000 0.0000 36.7230 0.0000 0.0000
# 5 0.0000 0.0000 0.0000 0.0000 36.7230 0.0000
# 6 -5.2736 5.2736 0.0000 0.0000 0.0000 19.4552
#
#
#
# Elastic Compliance Matrix: (Units=1/GPa)
#
#
# Indices 1 2 3 4 5 6 
#
# 1 0.009161 -0.001651 -0.001646 0.000000 0.000000 0.002931
# 2 -0.001651 0.009161 -0.001646 0.000000 0.000000 -0.002931
# 3 -0.001646 -0.001646 0.009467 0.000000 0.000000 0.000000
# 4 0.000000 0.000000 0.000000 0.027231 0.000000 0.000000
# 5 0.000000 0.000000 0.000000 0.000000 0.027231 0.000000
# 6 0.002931 -0.002931 0.000000 0.000000 0.000000 0.052989
#
#
# Mechanical properties :
#
#
# Convention : Reuss Voigt Hill
#
# Bulk Modulus (GPa) = 55.85481 55.87307 55.86394
# Shear Modulus (GPa) = 33.09201 37.20114 35.14657
#
# Velocity S-wave (km/s) = 3.85855 4.09111 3.97653
# Velocity P-wave (km/s) = 6.70677 6.88869 6.79834
#
# Compressibility (1/GPa) = 0.01790356
#
# Stress axis : x y z
#
# Youngs Moduli (GPa) = 109.15689 109.15689 105.62882
#
# Poissons Ratio (x) = 0.18021 0.17387
# Poissons Ratio (y) = 0.18021 0.17387
# Poissons Ratio (z) = 0.17967 0.17967
#
# Static dielectric constant tensor:
#      x y z
#    x 4.374970 0.000000 0.000000 
#    y 0.000000 4.374970 0.000000 
#    z 0.000000 0.000000 4.696330 
# 
# 
# High freq. dielectric constant tensor:
#      x y z
#    x 1.882710 0.000000 0.000000 
#    y 0.000000 1.882710 0.000000 
#    z 0.000000 0.000000 1.879340 
# 
# From -- ./inp_files/5419.got.cif
#   From: 2010.03.12/outbox.cif.g09.slc.cpg/sg84_3_cif.got.tgz:5419.got - 2010.04.08 20:07:29.
