data_PCOD8303703
_publ_section_title
;
Structure prediction by ZEFSAII (Michael W. Deem and Ramdas Pophale) SiO2 
 PCOD8303703
Probable space group: P 42/N
;
_chemical_formula_sum "Si O2"
_cell_formula_units_Z 56
_cell_length_a 13.564089
_cell_length_b 13.564089
_cell_length_c 12.345878
_cell_angle_alpha 90.000000
_cell_angle_beta 90.000000
_cell_angle_gamma 90.000000
_cell_volume 2271.450319
_symmetry_space_group_name_H-M "P 42/N"
_symmetry_group_IT_number 86
_space_group.IT_coordinate_system_code '2'
_symmetry_cell_setting 'tetragonal'
loop_
_space_group_symop_operation_xyz
x,y,z
-y,1/2+x,1/2+z
1/2-x,1/2-y,z
1/2+y,-x,1/2+z
-x,-y,-z
y,1/2-x,1/2-z
1/2+x,1/2+y,-z
1/2-y,x,1/2-z
loop_
_atom_site_type_symbol
_atom_site_label
_atom_site_fract_x
_atom_site_fract_y
_atom_site_fract_z
Si Si1 0.213244 0.143565 0.507544
Si Si2 0.619867 0.138149 0.821647
Si Si3 0.672656 0.865446 0.709034
Si Si4 0.339386 0.979403 0.964717
Si Si5 0.519619 0.015476 0.225921
Si Si6 0.178959 0.535271 0.594936
Si Si7 0.839152 0.322013 0.593031
O O1 0.250000 0.250000 0.543983
O O2 0.262001 0.105163 0.394910
O O3 0.094693 0.146468 0.512272
O O4 0.257477 0.064491 0.590712
O O5 0.617661 0.253042 0.849710
O O6 0.684840 0.132677 0.711919
O O7 0.509627 0.097321 0.797528
O O8 0.663542 0.076180 0.920859
O O9 0.752321 0.865874 0.809084
O O10 0.583514 0.933142 0.744767
O O11 0.427150 0.942530 0.882993
O O12 0.237280 0.944329 0.907908
O O13 0.584059 0.018957 0.332590
O O14 0.147050 0.581320 0.480563
O O15 0.750000 0.250000 0.556349
#
# Coordination Sequence:
#
# PCOD8303703 Si02
#       7
#     8   8   8   8   8   8   8
#     4  12  28  51  78 112 159 210 275 333 407 487
#     4  12  27  49  79 113 157 212 268 327 409 487
#     4  11  25  46  77 119 151 206 271 337 402 479
#     4  12  28  51  83 116 162 217 270 339 411 496
#     4  12  28  51  83 115 161 209 273 339 415 485
#     4  12  29  50  79 117 159 208 272 334 411 492
#     4  12  29  51  80 122 166 212 269 344 415 491
#
# _framework density 24.653852000000001
#
# number of rings (size 3 to 8) (size 9 to 14) (size 15 to 20)
#    0.000    0.143    5.714    2.143    8.000    2.286 
#    0.000    0.000    0.000    0.000    0.000    0.000 
#    0.000    0.000    0.000    0.000    0.000    0.000 
#
# Total GULP energy -693938.498791 kJ/mol
# GULP energy per Si atom -12391.758907 kJ/mol
# Density = 2.459774 g / cm^3
# Si number density = 24.653852 Si / 1000 Ang^3
#
#
#
# Elastic Constant Matrix: (Units=GPa)
#
#
# Indices 1 2 3 4 5 6 
#
# 1 103.8887 31.7431 40.8430 0.0000 0.0000 -8.6922
# 2 31.7431 103.8887 40.8430 0.0000 0.0000 8.6922
# 3 40.8430 40.8430 139.6581 0.0000 0.0000 0.0000
# 4 0.0000 0.0000 0.0000 36.9281 0.0000 0.0000
# 5 0.0000 0.0000 0.0000 0.0000 36.9281 0.0000
# 6 -8.6922 8.6922 0.0000 0.0000 0.0000 41.0055
#
#
#
# Elastic Compliance Matrix: (Units=1/GPa)
#
#
# Indices 1 2 3 4 5 6 
#
# 1 0.011778 -0.002829 -0.002617 0.000000 0.000000 0.003096
# 2 -0.002829 0.011778 -0.002617 0.000000 0.000000 -0.003096
# 3 -0.002617 -0.002617 0.008691 0.000000 0.000000 0.000000
# 4 0.000000 0.000000 0.000000 0.027080 0.000000 0.000000
# 5 0.000000 0.000000 0.000000 0.000000 0.027080 0.000000
# 6 0.003096 -0.003096 0.000000 0.000000 0.000000 0.025700
#
#
# Mechanical properties :
#
#
# Convention : Reuss Voigt Hill
#
# Bulk Modulus (GPa) = 62.03204 63.81039 62.92122
# Shear Modulus (GPa) = 37.42341 38.57279 37.99810
#
# Velocity S-wave (km/s) = 3.90032 3.95976 3.93015
# Velocity P-wave (km/s) = 6.74531 6.84434 6.79500
#
# Compressibility (1/GPa) = 0.01612070
#
# Stress axis : x y z
#
# Youngs Moduli (GPa) = 84.90371 84.90371 115.05988
#
# Poissons Ratio (x) = 0.24019 0.30113
# Poissons Ratio (y) = 0.24019 0.30113
# Poissons Ratio (z) = 0.22221 0.22221
#
# Static dielectric constant tensor:
#      x y z
#    x 4.557630 0.000000 0.000000 
#    y 0.000000 4.557630 0.000000 
#    z 0.000000 0.000000 4.634310 
# 
# 
# High freq. dielectric constant tensor:
#      x y z
#    x 1.982950 0.000000 0.000000 
#    y 0.000000 1.982950 0.000000 
#    z 0.000000 0.000000 1.990680 
# 
# From -- ./inp_files/2388.got.cif
#   From: 2010.03.12/outbox.cif.g09.slc.cpg/sg86_2_cif.got.tgz:2388.got - 2010.04.08 20:12:58.
