data_PCOD8303126
_publ_section_title
;
Structure prediction by ZEFSAII (Michael W. Deem and Ramdas Pophale) SiO2 
 PCOD8303126
Probable space group: P 42/M
;
_chemical_formula_sum "Si O2"
_cell_formula_units_Z 64
_cell_length_a 20.294334
_cell_length_b 20.294334
_cell_length_c 9.207159
_cell_angle_alpha 90.000000
_cell_angle_beta 90.000000
_cell_angle_gamma 90.000000
_cell_volume 3792.060437
_symmetry_space_group_name_H-M "P 42/M"
_symmetry_group_IT_number 84
_symmetry_cell_setting 'tetragonal'
loop_
_space_group_symop_operation_xyz
x,y,z
-y,x,1/2+z
-x,-y,z
y,-x,1/2+z
-x,-y,-z
y,-x,1/2-z
x,y,-z
-y,x,1/2-z
loop_
_atom_site_type_symbol
_atom_site_label
_atom_site_fract_x
_atom_site_fract_y
_atom_site_fract_z
Si Si1 0.316804 0.210089 0.835196
Si Si2 0.996602 0.746167 0.164063
Si Si3 0.415207 0.861783 0.167745
Si Si4 0.401816 0.998319 0.664479
Si Si5 0.879495 0.790100 0.339423
Si Si6 0.124191 0.562643 0.666989
Si Si7 0.888147 0.194725 0.334127
Si Si8 0.238441 0.307401 0.659410
O O1 0.382563 0.174891 0.769932
O O2 0.258440 0.157759 0.823862
O O3 0.299219 0.279182 0.754741
O O4 0.330429 0.230802 0.000000
O O5 0.927744 0.743768 0.248367
O O6 0.025051 0.672654 0.162887
O O7 0.043872 0.793927 0.252193
O O8 0.987490 0.772407 0.000000
O O9 0.491658 0.840627 0.179199
O O10 0.370505 0.800748 0.227774
O O11 0.404230 0.928049 0.257688
O O12 0.394596 0.875497 0.000000
O O13 0.428557 0.990550 0.500000
O O14 0.443093 0.054887 0.746561
O O15 0.907567 0.806932 0.500000
O O16 0.867541 0.856159 0.247142
O O17 0.811519 0.752475 0.356308
O O18 0.106702 0.580283 0.500000
O O19 0.902375 0.175592 0.500000
O O20 0.266140 0.326565 0.500000
#
# Coordination Sequence:
#
# PCOD8303126 Si02
#       8
#     8   8   8   8   8   8   8   8
#     4   9  18  31  48  69  92 121 157 197 238 279
#     4  11  21  32  48  70  95 124 159 198 237 284
#     4  10  20  34  50  68  95 132 168 197 232 283
#     4  11  22  32  45  68  99 131 165 200 235 273
#     4  10  19  32  50  70  92 119 154 198 245 289
#     4  10  20  34  50  68  95 132 168 197 232 283
#     4  10  19  32  50  70  92 119 154 198 245 289
#     4   9  18  31  48  69  92 121 157 197 238 279
#
# _framework density 16.877367
#
# number of rings (size 3 to 8) (size 9 to 14) (size 15 to 20)
#    0.000    2.000    2.500    1.875    0.000    5.000 
#    0.000    0.000    0.000    0.375    0.000    2.625 
#    0.000    0.500    0.000    6.250    0.000    0.000 
#
# Total GULP energy -793324.642559 kJ/mol
# GULP energy per Si atom -12395.697540 kJ/mol
# Density = 1.683895 g / cm^3
# Si number density = 16.877367 Si / 1000 Ang^3
#
#
#
# Elastic Constant Matrix: (Units=GPa)
#
#
# Indices 1 2 3 4 5 6 
#
# 1 56.5341 30.0893 30.6951 0.0000 0.0000 0.1409
# 2 30.0893 56.5341 30.6951 0.0000 0.0000 -0.1409
# 3 30.6951 30.6951 103.7823 0.0000 0.0000 0.0000
# 4 0.0000 0.0000 0.0000 21.2425 0.0000 0.0000
# 5 0.0000 0.0000 0.0000 0.0000 21.2425 0.0000
# 6 0.1409 -0.1409 0.0000 0.0000 0.0000 21.8287
#
#
#
# Elastic Compliance Matrix: (Units=1/GPa)
#
#
# Indices 1 2 3 4 5 6 
#
# 1 0.026211 -0.011606 -0.004320 0.000000 0.000000 -0.000244
# 2 -0.011606 0.026211 -0.004320 0.000000 0.000000 0.000244
# 3 -0.004320 -0.004320 0.012191 0.000000 0.000000 0.000000
# 4 0.000000 0.000000 0.000000 0.047075 0.000000 0.000000
# 5 0.000000 0.000000 0.000000 0.000000 0.047075 0.000000
# 6 -0.000244 0.000244 0.000000 0.000000 0.000000 0.045814
#
#
# Mechanical properties :
#
#
# Convention : Reuss Voigt Hill
#
# Bulk Modulus (GPa) = 41.45439 44.42329 42.93884
# Shear Modulus (GPa) = 19.75420 21.22081 20.48750
#
# Velocity S-wave (km/s) = 3.42490 3.54976 3.48789
# Velocity P-wave (km/s) = 6.34471 6.57111 6.45890
#
# Compressibility (1/GPa) = 0.02412290
#
# Stress axis : x y z
#
# Youngs Moduli (GPa) = 38.15130 38.15130 82.02861
#
# Poissons Ratio (x) = 0.44277 0.35435
# Poissons Ratio (y) = 0.44277 0.35435
# Poissons Ratio (z) = 0.16481 0.16481
#
# Static dielectric constant tensor:
#      x y z
#    x 3.037640 0.000000 0.000000 
#    y 0.000000 3.037640 0.000000 
#    z 0.000000 0.000000 3.405000 
# 
# 
# High freq. dielectric constant tensor:
#      x y z
#    x 1.624400 0.000000 0.000000 
#    y 0.000000 1.624400 0.000000 
#    z 0.000000 0.000000 1.660130 
# 
# From -- ./inp_files/1388.got.cif
#   From: 2010.03.12/outbox.cif.g09.slc.cpg/sg84_1_cif.got.tgz:1388.got - 2010.04.08 20:07:29.
