data_PCOD8303471
_publ_section_title
;
Structure prediction by ZEFSAII (Michael W. Deem and Ramdas Pophale) SiO2 
 PCOD8303471
Probable space group: P 42/N
;
_chemical_formula_sum "Si O2"
_cell_formula_units_Z 54
_cell_length_a 11.257309
_cell_length_b 11.257309
_cell_length_c 21.898826
_cell_angle_alpha 90.000000
_cell_angle_beta 90.000000
_cell_angle_gamma 90.000000
_cell_volume 2775.172652
_symmetry_space_group_name_H-M "P 42/N"
_symmetry_group_IT_number 86
_space_group.IT_coordinate_system_code '2'
_symmetry_cell_setting 'tetragonal'
loop_
_space_group_symop_operation_xyz
x,y,z
-y,1/2+x,1/2+z
1/2-x,1/2-y,z
1/2+y,-x,1/2+z
-x,-y,-z
y,1/2-x,1/2-z
1/2+x,1/2+y,-z
1/2-y,x,1/2-z
loop_
_atom_site_type_symbol
_atom_site_label
_atom_site_fract_x
_atom_site_fract_y
_atom_site_fract_z
Si Si1 0.472933 0.099556 0.269239
Si Si2 0.504998 0.670677 0.534666
Si Si3 0.291356 0.882914 0.156253
Si Si4 0.750000 0.750000 0.937996
Si Si5 0.435179 0.089714 0.808121
Si Si6 0.927299 0.085250 0.585857
Si Si7 0.750000 0.750000 0.250000
Si Si8 0.749564 0.955742 0.656917
O O1 0.534384 0.211201 0.300953
O O2 0.413320 0.151268 0.206497
O O3 0.377138 0.029331 0.310549
O O4 0.568999 0.000411 0.249759
O O5 0.427286 0.732118 0.587235
O O6 0.630314 0.738370 0.521604
O O7 0.536468 0.540926 0.558355
O O8 0.427515 0.674476 0.471978
O O9 0.250000 0.750000 0.161940
O O10 0.427493 0.883353 0.177435
O O11 0.860873 0.766600 0.894875
O O12 0.359410 0.206145 0.791910
O O13 0.373102 0.028177 0.866541
O O14 0.800422 0.074586 0.622122
#
# Coordination Sequence:
#
# PCOD8303471 Si02
#       8
#     8   8   8   4   8   8   2   8
#     4  11  18  33  56  89 124 147 185 251 317 364
#     4   9  17  32  51  78 112 150 192 239 282 351
#     4  11  21  35  57  85 121 155 191 243 308 356
#     4  10  16  26  50  88 109 149 192 236 304 342
#     4  10  22  38  57  86 111 158 197 238 290 358
#     4   8  18  33  52  79 111 149 189 234 291 341
#     4  12  24  42  60  72 114 160 212 224 266 364
#     4  10  17  27  52  86 121 142 178 244 307 364
#
# _framework density 19.458248000000001
#
# number of rings (size 3 to 8) (size 9 to 14) (size 15 to 20)
#    0.000    2.074    2.963    2.667    0.000    0.593 
#    0.000    0.000    3.259    0.889    0.000    0.000 
#    0.000    0.000    0.000    0.000    0.000    0.000 
#
# Total GULP energy -669004.924214 kJ/mol
# GULP energy per Si atom -12388.980078 kJ/mol
# Density = 1.941396 g / cm^3
# Si number density = 19.458248 Si / 1000 Ang^3
#
#
#
# Elastic Constant Matrix: (Units=GPa)
#
#
# Indices 1 2 3 4 5 6 
#
# 1 82.1243 33.6150 46.8893 0.0000 0.0000 3.0212
# 2 33.6150 82.1243 46.8893 0.0000 0.0000 -3.0212
# 3 46.8893 46.8893 119.1739 0.0000 0.0000 0.0000
# 4 0.0000 0.0000 0.0000 38.9767 0.0000 0.0000
# 5 0.0000 0.0000 0.0000 0.0000 38.9767 0.0000
# 6 3.0212 -3.0212 0.0000 0.0000 0.0000 28.6416
#
#
#
# Elastic Compliance Matrix: (Units=1/GPa)
#
#
# Indices 1 2 3 4 5 6 
#
# 1 0.016786 -0.004103 -0.004990 0.000000 0.000000 -0.002203
# 2 -0.004103 0.016786 -0.004990 0.000000 0.000000 0.002203
# 3 -0.004990 -0.004990 0.012318 0.000000 0.000000 0.000000
# 4 0.000000 0.000000 0.000000 0.025656 0.000000 0.000000
# 5 0.000000 0.000000 0.000000 0.000000 0.025656 0.000000
# 6 -0.002203 0.002203 0.000000 0.000000 0.000000 0.035379
#
#
# Mechanical properties :
#
#
# Convention : Reuss Voigt Hill
#
# Bulk Modulus (GPa) = 56.42167 59.80110 58.11138
# Shear Modulus (GPa) = 30.00163 31.72091 30.86127
#
# Velocity S-wave (km/s) = 3.93089 4.04196 3.98681
# Velocity P-wave (km/s) = 7.04711 7.25141 7.14999
#
# Compressibility (1/GPa) = 0.01772369
#
# Stress axis : x y z
#
# Youngs Moduli (GPa) = 59.57225 59.57225 81.18146
#
# Poissons Ratio (x) = 0.24441 0.40513
# Poissons Ratio (y) = 0.24441 0.40513
# Poissons Ratio (z) = 0.29729 0.29729
#
# Static dielectric constant tensor:
#      x y z
#    x 3.983030 0.000000 0.000000 
#    y 0.000000 3.983030 0.000000 
#    z 0.000000 0.000000 4.041820 
# 
# 
# High freq. dielectric constant tensor:
#      x y z
#    x 1.736540 0.000000 0.000000 
#    y 0.000000 1.736540 0.000000 
#    z 0.000000 0.000000 1.760530 
# 
# From -- ./inp_files/4235.got.cif
#   From: 2010.03.12/outbox.cif.g09.slc.cpg/sg86_3_cif.got.tgz:4235.got - 2010.04.08 20:12:58.
