data_PCOD8303608
_publ_section_title
;
Structure prediction by ZEFSAII (Michael W. Deem and Ramdas Pophale) SiO2 
 PCOD8303608
Probable space group: P 42/N
;
_chemical_formula_sum "Si O2"
_cell_formula_units_Z 50
_cell_length_a 14.120954
_cell_length_b 14.120954
_cell_length_c 12.150090
_cell_angle_alpha 90.000000
_cell_angle_beta 90.000000
_cell_angle_gamma 90.000000
_cell_volume 2422.744250
_symmetry_space_group_name_H-M "P 42/N"
_symmetry_group_IT_number 86
_space_group.IT_coordinate_system_code '2'
_symmetry_cell_setting 'tetragonal'
loop_
_space_group_symop_operation_xyz
x,y,z
-y,1/2+x,1/2+z
1/2-x,1/2-y,z
1/2+y,-x,1/2+z
-x,-y,-z
y,1/2-x,1/2-z
1/2+x,1/2+y,-z
1/2-y,x,1/2-z
loop_
_atom_site_type_symbol
_atom_site_label
_atom_site_fract_x
_atom_site_fract_y
_atom_site_fract_z
Si Si1 0.281069 0.995539 0.025903
Si Si2 0.230638 0.461885 0.610048
Si Si3 0.412379 0.990117 0.213915
Si Si4 0.250000 0.250000 0.250000
Si Si5 0.374860 0.122774 0.405478
Si Si6 0.569299 0.613626 0.322236
Si Si7 0.687267 0.336664 0.369638
O O1 0.348178 0.043043 0.121201
O O2 0.174019 0.032281 0.043942
O O3 0.293198 0.880989 0.033779
O O4 0.309505 0.027586 0.904903
O O5 0.196110 0.416461 0.496700
O O6 0.148990 0.445643 0.698792
O O7 0.321245 0.403681 0.651070
O O8 0.250806 0.573754 0.589621
O O9 0.411871 0.035668 0.333337
O O10 0.517657 0.990365 0.164363
O O11 0.374212 0.881548 0.228331
O O12 0.321474 0.194636 0.327240
O O13 0.750000 0.250000 0.324747
#
# Coordination Sequence:
#
# PCOD8303608 Si02
#       7
#     8   8   8   2   8   8   8
#     4  10  22  42  70  93 133 173 224 273 340 395
#     4  11  26  41  69  97 138 173 228 269 344 404
#     4   9  23  41  68  93 133 173 219 272 346 390
#     4  12  20  36  64  98 128 160 228 264 342 380
#     4  12  23  40  67 104 130 172 221 293 326 402
#     4  11  23  45  65  96 134 185 213 273 340 413
#     4   9  22  48  61  98 130 177 224 270 332 412
#
# _framework density 20.637754999999999
#
# number of rings (size 3 to 8) (size 9 to 14) (size 15 to 20)
#    0.960    0.640    1.600    2.400    2.240    2.240 
#    8.640    0.000    0.000    0.000    0.000    0.000 
#    0.000    0.000    0.000    0.000    0.000    0.000 
#
# Total GULP energy -619750.085412 kJ/mol
# GULP energy per Si atom -12395.001708 kJ/mol
# Density = 2.059078 g / cm^3
# Si number density = 20.637755 Si / 1000 Ang^3
#
#
#
# Elastic Constant Matrix: (Units=GPa)
#
#
# Indices 1 2 3 4 5 6 
#
# 1 77.7745 32.9971 12.2264 0.0000 0.0000 -1.2171
# 2 32.9971 77.7745 12.2264 0.0000 0.0000 1.2171
# 3 12.2264 12.2264 62.4572 0.0000 0.0000 0.0000
# 4 0.0000 0.0000 0.0000 24.1311 0.0000 0.0000
# 5 0.0000 0.0000 0.0000 0.0000 24.1311 0.0000
# 6 -1.2171 1.2171 0.0000 0.0000 0.0000 36.0167
#
#
#
# Elastic Compliance Matrix: (Units=1/GPa)
#
#
# Indices 1 2 3 4 5 6 
#
# 1 0.015905 -0.006469 -0.001847 0.000000 0.000000 0.000756
# 2 -0.006469 0.015905 -0.001847 0.000000 0.000000 -0.000756
# 3 -0.001847 -0.001847 0.016734 0.000000 0.000000 0.000000
# 4 0.000000 0.000000 0.000000 0.041440 0.000000 0.000000
# 5 0.000000 0.000000 0.000000 0.000000 0.041440 0.000000
# 6 0.000756 -0.000756 0.000000 0.000000 0.000000 0.027816
#
#
# Mechanical properties :
#
#
# Convention : Reuss Voigt Hill
#
# Bulk Modulus (GPa) = 35.44008 36.98955 36.21482
# Shear Modulus (GPa) = 26.45896 27.55954 27.00925
#
# Velocity S-wave (km/s) = 3.58448 3.65827 3.62156
# Velocity P-wave (km/s) = 5.86012 5.98382 5.92229
#
# Compressibility (1/GPa) = 0.02821664
#
# Stress axis : x y z
#
# Youngs Moduli (GPa) = 62.87502 62.87502 59.75824
#
# Poissons Ratio (x) = 0.40675 0.11037
# Poissons Ratio (y) = 0.40675 0.11037
# Poissons Ratio (z) = 0.11613 0.11613
#
# Static dielectric constant tensor:
#      x y z
#    x 3.759350 0.000000 0.000000 
#    y 0.000000 3.759350 0.000000 
#    z 0.000000 0.000000 3.473350 
# 
# 
# High freq. dielectric constant tensor:
#      x y z
#    x 1.810530 0.000000 0.000000 
#    y 0.000000 1.810530 0.000000 
#    z 0.000000 0.000000 1.791920 
# 
# From -- ./inp_files/2322.got.cif
#   From: 2010.03.12/outbox.cif.g09.slc.cpg/sg86_2_cif.got.tgz:2322.got - 2010.04.08 20:12:58.
