data_PCOD8303569
_publ_section_title
;
Structure prediction by ZEFSAII (Michael W. Deem and Ramdas Pophale) SiO2 
 PCOD8303569
Probable space group: P 42/N
;
_chemical_formula_sum "Si O2"
_cell_formula_units_Z 42
_cell_length_a 20.611743
_cell_length_b 20.611743
_cell_length_c 5.256409
_cell_angle_alpha 90.000000
_cell_angle_beta 90.000000
_cell_angle_gamma 90.000000
_cell_volume 2233.153560
_symmetry_space_group_name_H-M "P 42/N"
_symmetry_group_IT_number 86
_space_group.IT_coordinate_system_code '2'
_symmetry_cell_setting 'tetragonal'
loop_
_space_group_symop_operation_xyz
x,y,z
-y,1/2+x,1/2+z
1/2-x,1/2-y,z
1/2+y,-x,1/2+z
-x,-y,-z
y,1/2-x,1/2-z
1/2+x,1/2+y,-z
1/2-y,x,1/2-z
loop_
_atom_site_type_symbol
_atom_site_label
_atom_site_fract_x
_atom_site_fract_y
_atom_site_fract_z
Si Si1 0.217888 0.898614 0.029029
Si Si2 0.647211 0.529636 0.977365
Si Si3 0.075941 0.992507 0.527655
Si Si4 0.837246 0.716935 0.639141
Si Si5 0.860945 0.353963 0.958033
Si Si6 0.250000 0.250000 0.750000
O O1 0.201334 0.974223 0.991366
O O2 0.295039 0.894178 0.030700
O O3 0.188396 0.870350 0.288677
O O4 0.192157 0.857863 0.788499
O O5 0.600890 0.514026 0.745062
O O6 0.682200 0.595116 0.894335
O O7 0.605780 0.535517 0.239767
O O8 0.093501 0.917725 0.578659
O O9 0.000000 0.000000 0.500000
O O10 0.775569 0.665476 0.652445
O O11 0.818954 0.758189 0.391821
#
# Coordination Sequence:
#
# PCOD8303569 Si02
#       6
#     8   8   8   8   8   2
#     4  10  21  37  56  81 113 143 186 234 281 336
#     4  10  22  38  59  85 114 149 192 233 277 340
#     4  10  22  40  59  81 116 151 188 233 282 337
#     4   9  20  36  57  85 118 150 191 238 289 336
#     4  10  21  37  56  83 111 144 184 234 282 335
#     4   8  18  36  56  78 124 144 182 244 278 340
#
# _framework density 18.807483000000001
#
# number of rings (size 3 to 8) (size 9 to 14) (size 15 to 20)
#    0.000    2.476    0.000    1.714    5.333    3.810 
#    0.000    0.000    0.000    0.000    0.000    0.000 
#    0.000    0.000    0.000    0.000    0.000    0.000 
#
# Total GULP energy -520308.352386 kJ/mol
# GULP energy per Si atom -12388.294104 kJ/mol
# Density = 1.876468 g / cm^3
# Si number density = 18.807483 Si / 1000 Ang^3
#
#
#
# Elastic Constant Matrix: (Units=GPa)
#
#
# Indices 1 2 3 4 5 6 
#
# 1 113.7040 47.3367 16.9581 0.0000 0.0000 -12.7080
# 2 47.3367 113.7040 16.9581 0.0000 0.0000 12.7080
# 3 16.9581 16.9581 100.9617 0.0000 0.0000 0.0000
# 4 0.0000 0.0000 0.0000 11.6652 0.0000 0.0000
# 5 0.0000 0.0000 0.0000 0.0000 11.6652 0.0000
# 6 -12.7080 12.7080 0.0000 0.0000 0.0000 15.4613
#
#
#
# Elastic Compliance Matrix: (Units=1/GPa)
#
#
# Indices 1 2 3 4 5 6 
#
# 1 0.014213 -0.007776 -0.001081 0.000000 0.000000 0.018073
# 2 -0.007776 0.014213 -0.001081 0.000000 0.000000 -0.018073
# 3 -0.001081 -0.001081 0.010268 0.000000 0.000000 0.000000
# 4 0.000000 0.000000 0.000000 0.085725 0.000000 0.000000
# 5 0.000000 0.000000 0.000000 0.000000 0.085725 0.000000
# 6 0.018073 -0.018073 0.000000 0.000000 0.000000 0.094387
#
#
# Mechanical properties :
#
#
# Convention : Reuss Voigt Hill
#
# Bulk Modulus (GPa) = 53.14165 54.54171 53.84168
# Shear Modulus (GPa) = 15.12035 24.23281 19.67658
#
# Velocity S-wave (km/s) = 2.83848 3.59342 3.23803
# Velocity P-wave (km/s) = 6.24977 6.80293 6.53220
#
# Compressibility (1/GPa) = 0.01881763
#
# Stress axis : x y z
#
# Youngs Moduli (GPa) = 70.35740 70.35740 97.39022
#
# Poissons Ratio (x) = 0.54709 0.10530
# Poissons Ratio (y) = 0.54709 0.10530
# Poissons Ratio (z) = 0.07607 0.07607
#
# Static dielectric constant tensor:
#      x y z
#    x 3.495470 0.000000 0.000000 
#    y 0.000000 3.495470 0.000000 
#    z 0.000000 0.000000 4.102430 
# 
# 
# High freq. dielectric constant tensor:
#      x y z
#    x 1.719680 0.000000 0.000000 
#    y 0.000000 1.719680 0.000000 
#    z 0.000000 0.000000 1.758820 
# 
# From -- ./inp_files/390.got.cif
#   From: 2010.03.12/outbox.cif.g09.slc.cpg/sg86_1_cif.got.tgz:390.got - 2010.04.08 20:12:58.
