data_PCOD8303864
_publ_section_title
;
Structure prediction by ZEFSAII (Michael W. Deem and Ramdas Pophale) SiO2 
 PCOD8303864
Probable space group: I 4/M
;
_chemical_formula_sum "Si O2"
_cell_formula_units_Z 96
_cell_length_a 23.505361
_cell_length_b 23.505361
_cell_length_c 9.918399
_cell_angle_alpha 90.000000
_cell_angle_beta 90.000000
_cell_angle_gamma 90.000000
_cell_volume 5479.935242
_symmetry_space_group_name_H-M "I 4/M"
_symmetry_group_IT_number 87
_symmetry_cell_setting 'tetragonal'
loop_
_space_group_symop_operation_xyz
x,y,z
-y,x,z
-x,-y,z
y,-x,z
-x,-y,-z
y,-x,-z
x,y,-z
-y,x,-z
1/2+x,1/2+y,1/2+z
1/2-y,1/2+x,1/2+z
1/2-x,1/2-y,1/2+z
1/2+y,1/2-x,1/2+z
1/2-x,1/2-y,1/2-z
1/2+y,1/2-x,1/2-z
1/2+x,1/2+y,1/2-z
1/2-y,1/2+x,1/2-z
loop_
_atom_site_type_symbol
_atom_site_label
_atom_site_fract_x
_atom_site_fract_y
_atom_site_fract_z
Si Si1 0.705823 0.365574 0.656108
Si Si2 0.437826 0.145698 0.230750
Si Si3 0.567321 0.035837 0.500000
Si Si4 0.304718 0.821617 0.344578
Si Si5 0.755337 0.011693 0.841851
Si Si6 0.614146 0.278953 0.343422
Si Si7 0.459841 0.090762 0.500000
O O1 0.722995 0.354577 0.500000
O O2 0.750316 0.330586 0.747898
O O3 0.703411 0.433645 0.685069
O O4 0.643190 0.340091 0.686875
O O5 0.470613 0.104001 0.134063
O O6 0.378663 0.158904 0.159258
O O7 0.477819 0.199996 0.252656
O O8 0.427064 0.116897 0.374235
O O9 0.529739 0.095299 0.500000
O O10 0.535838 0.976376 0.500000
O O11 0.285504 0.809851 0.500000
O O12 0.344716 0.770910 0.285698
O O13 0.780783 0.951271 0.788954
O O14 0.739190 0.009337 0.000000
O O15 0.609350 0.266462 0.500000
#
# Coordination Sequence:
#
# PCOD8303864 Si02
#       7
#    16  16   8  16  16  16   8
#     4   9  18  34  53  76 102 131 168 209 251 302
#     4  11  21  35  52  71 100 135 177 222 259 301
#     4  11  24  36  48  70  97 137 183 224 265 293
#     4  10  20  32  50  74 102 137 163 209 263 300
#     4   9  18  32  52  76  99 130 165 208 256 303
#     4   9  18  31  53  77  99 132 169 202 253 318
#     4  11  24  36  50  66  97 143 181 222 259 299
#
# _framework density 17.518456
#
# number of rings (size 3 to 8) (size 9 to 14) (size 15 to 20)
#    0.000    2.167    1.667    1.500    5.833    1.333 
#    0.000    0.000    1.833    0.500    0.000    3.500 
#    0.000    0.000    0.000    4.333    0.000    4.167 
#
# Total GULP energy -594627.637871 kJ/mol
# GULP energy per Si atom -12388.075789 kJ/mol
# Density = 1.747858 g / cm^3
# Si number density = 17.518456 Si / 1000 Ang^3
#
#
#
# Elastic Constant Matrix: (Units=GPa)
#
#
# Indices 1 2 3 4 5 6 
#
# 1 91.1404 47.1572 16.2562 0.0000 0.0000 8.1638
# 2 47.1572 91.1404 16.2562 0.0000 0.0000 -8.1638
# 3 16.2562 16.2562 67.3303 0.0000 0.0000 0.0000
# 4 0.0000 0.0000 0.0000 14.4933 0.0000 0.0000
# 5 0.0000 0.0000 0.0000 0.0000 14.4933 0.0000
# 6 8.1638 -8.1638 0.0000 0.0000 0.0000 18.4066
#
#
#
# Elastic Compliance Matrix: (Units=1/GPa)
#
#
# Indices 1 2 3 4 5 6 
#
# 1 0.017442 -0.009776 -0.001851 0.000000 0.000000 -0.012071
# 2 -0.009776 0.017442 -0.001851 0.000000 0.000000 0.012071
# 3 -0.001851 -0.001851 0.015746 0.000000 0.000000 0.000000
# 4 0.000000 0.000000 0.000000 0.068998 0.000000 0.000000
# 5 0.000000 0.000000 0.000000 0.000000 0.068998 0.000000
# 6 -0.012071 0.012071 0.000000 0.000000 0.000000 0.065036
#
#
# Mechanical properties :
#
#
# Convention : Reuss Voigt Hill
#
# Bulk Modulus (GPa) = 42.23991 45.43892 43.83941
# Shear Modulus (GPa) = 17.33062 20.80805 19.06933
#
# Velocity S-wave (km/s) = 3.14869 3.45016 3.30286
# Velocity P-wave (km/s) = 6.11416 6.47035 6.29478
#
# Compressibility (1/GPa) = 0.02367429
#
# Stress axis : x y z
#
# Youngs Moduli (GPa) = 57.33441 57.33441 63.50861
#
# Poissons Ratio (x) = 0.56048 0.11755
# Poissons Ratio (y) = 0.56048 0.11755
# Poissons Ratio (z) = 0.10612 0.10612
#
# Static dielectric constant tensor:
#      x y z
#    x 3.323250 0.000000 0.000000 
#    y 0.000000 3.323250 0.000000 
#    z 0.000000 0.000000 3.038260 
# 
# 
# High freq. dielectric constant tensor:
#      x y z
#    x 1.669450 0.000000 0.000000 
#    y 0.000000 1.669450 0.000000 
#    z 0.000000 0.000000 1.660320 
# 
# From -- ./inp_files/1487.got.cif
#   From: 2010.03.12/outbox.cif.g09.slc.cpg/sg87_1_cif.got.tgz:1487.got - 2010.04.08 20:16:13.
