data_PCOD8303090
_publ_section_title
;
Structure prediction by ZEFSAII (Michael W. Deem and Ramdas Pophale) SiO2 
 PCOD8303090
Probable space group: P 42/M
;
_chemical_formula_sum "Si O2"
_cell_formula_units_Z 56
_cell_length_a 21.894991
_cell_length_b 21.894991
_cell_length_c 9.089345
_cell_angle_alpha 90.000000
_cell_angle_beta 90.000000
_cell_angle_gamma 90.000000
_cell_volume 4357.346834
_symmetry_space_group_name_H-M "P 42/M"
_symmetry_group_IT_number 84
_symmetry_cell_setting 'tetragonal'
loop_
_space_group_symop_operation_xyz
x,y,z
-y,x,1/2+z
-x,-y,z
y,-x,1/2+z
-x,-y,-z
y,-x,1/2-z
x,y,-z
-y,x,1/2-z
loop_
_atom_site_type_symbol
_atom_site_label
_atom_site_fract_x
_atom_site_fract_y
_atom_site_fract_z
Si Si1 0.928956 0.615854 0.837955
Si Si2 0.750373 0.059355 0.672501
Si Si3 0.138087 0.854995 0.334099
Si Si4 0.073011 0.499496 0.664519
Si Si5 0.066116 0.738335 0.331193
Si Si6 0.616020 0.927175 0.663362
Si Si7 0.946582 0.066495 0.170437
O O1 0.915902 0.683958 0.776202
O O2 0.901417 0.563879 0.732427
O O3 0.001006 0.607234 0.848623
O O4 0.899810 0.607742 0.000000
O O5 0.748915 0.042066 0.500000
O O6 0.795602 0.116672 0.703875
O O7 0.766661 0.996118 0.757844
O O8 0.119825 0.876686 0.500000
O O9 0.126285 0.782325 0.324109
O O10 0.093989 0.875566 0.202760
O O11 0.098575 0.504288 0.500000
O O12 0.100207 0.556647 0.755208
O O13 0.000000 0.500000 0.665153
O O14 0.049015 0.724350 0.500000
O O15 0.088498 0.676929 0.253094
O O16 0.620722 0.898476 0.500000
O O17 0.014488 0.081225 0.224024
O O18 0.945851 0.047626 0.000000
#
# Coordination Sequence:
#
# PCOD8303090 Si02
#       7
#     8   8   8   8   8   8   8
#     4   8  14  24  37  52  69  90 112 132 159 199
#     4   9  18  31  43  53  69  92 115 140 173 214
#     4  10  20  32  43  55  70  89 113 141 175 213
#     4   9  15  22  35  55  75  91 107 130 160 194
#     4  10  19  29  41  56  72  88 111 144 178 210
#     4   9  16  26  39  53  71  93 113 132 159 200
#     4  11  21  32  44  55  66  80 102 136 177 219
#
# _framework density 12.851858
#
# number of rings (size 3 to 8) (size 9 to 14) (size 15 to 20)
#    0.000    2.571    0.000    4.714    0.000    9.143 
#    0.000    0.000    0.000    0.000    0.000    0.000 
#    0.000    0.000    0.000    0.000    0.000    0.000 
#
# Total GULP energy -693734.860797 kJ/mol
# GULP energy per Si atom -12388.122514 kJ/mol
# Density = 1.282261 g / cm^3
# Si number density = 12.851858 Si / 1000 Ang^3
#
#
#
# Elastic Constant Matrix: (Units=GPa)
#
#
# Indices 1 2 3 4 5 6 
#
# 1 75.8465 10.3452 31.0019 0.0000 0.0000 2.6249
# 2 10.3452 75.8465 31.0019 0.0000 0.0000 -2.6249
# 3 31.0019 31.0019 87.5214 0.0000 0.0000 0.0000
# 4 0.0000 0.0000 0.0000 15.8554 0.0000 0.0000
# 5 0.0000 0.0000 0.0000 0.0000 15.8554 0.0000
# 6 2.6249 -2.6249 0.0000 0.0000 0.0000 5.5664
#
#
#
# Elastic Compliance Matrix: (Units=1/GPa)
#
#
# Indices 1 2 3 4 5 6 
#
# 1 0.015718 -0.000149 -0.005515 0.000000 0.000000 -0.007482
# 2 -0.000149 0.015718 -0.005515 0.000000 0.000000 0.007482
# 3 -0.005515 -0.005515 0.015333 0.000000 0.000000 0.000000
# 4 0.000000 0.000000 0.000000 0.063070 0.000000 0.000000
# 5 0.000000 0.000000 0.000000 0.000000 0.063070 0.000000
# 6 -0.007482 0.007482 0.000000 0.000000 0.000000 0.186705
#
#
# Mechanical properties :
#
#
# Convention : Reuss Voigt Hill
#
# Bulk Modulus (GPa) = 40.96414 42.65693 41.81053
# Shear Modulus (GPa) = 12.81694 18.57979 15.69837
#
# Velocity S-wave (km/s) = 3.16141 3.80635 3.49877
# Velocity P-wave (km/s) = 6.72824 7.25128 6.99465
#
# Compressibility (1/GPa) = 0.02441160
#
# Stress axis : x y z
#
# Youngs Moduli (GPa) = 63.62155 63.62155 65.21951
#
# Poissons Ratio (x) = 0.00945 0.35969
# Poissons Ratio (y) = 0.00945 0.35969
# Poissons Ratio (z) = 0.35087 0.35087
#
# Static dielectric constant tensor:
#      x y z
#    x 2.462700 0.000000 0.000000 
#    y 0.000000 2.462700 0.000000 
#    z 0.000000 0.000000 2.825460 
# 
# 
# High freq. dielectric constant tensor:
#      x y z
#    x 1.450090 0.000000 0.000000 
#    y 0.000000 1.450090 0.000000 
#    z 0.000000 0.000000 1.506350 
# 
# From -- ./inp_files/1315.got.cif
#   From: 2010.03.12/outbox.cif.g09.slc.cpg/sg84_1_cif.got.tgz:1315.got - 2010.04.08 20:07:29.
