data_PCOD8303128
_publ_section_title
;
Structure prediction by ZEFSAII (Michael W. Deem and Ramdas Pophale) SiO2 
 PCOD8303128
Probable space group: P 42/M
;
_chemical_formula_sum "Si O2"
_cell_formula_units_Z 64
_cell_length_a 20.377342
_cell_length_b 20.377342
_cell_length_c 9.059955
_cell_angle_alpha 90.000000
_cell_angle_beta 90.000000
_cell_angle_gamma 90.000000
_cell_volume 3762.020081
_symmetry_space_group_name_H-M "P 42/M"
_symmetry_group_IT_number 84
_symmetry_cell_setting 'tetragonal'
loop_
_space_group_symop_operation_xyz
x,y,z
-y,x,1/2+z
-x,-y,z
y,-x,1/2+z
-x,-y,-z
y,-x,1/2-z
x,y,-z
-y,x,1/2-z
loop_
_atom_site_type_symbol
_atom_site_label
_atom_site_fract_x
_atom_site_fract_y
_atom_site_fract_z
Si Si1 0.863043 0.564721 0.171111
Si Si2 0.314146 0.237697 0.164685
Si Si3 0.250780 0.000533 0.335600
Si Si4 0.416069 0.147592 0.329086
Si Si5 0.600588 0.997502 0.663991
Si Si6 0.117126 0.199815 0.331236
Si Si7 0.786082 0.878520 0.162580
Si Si8 0.786236 0.679035 0.329025
O O1 0.833259 0.492191 0.187327
O O2 0.939084 0.563220 0.234417
O O3 0.814557 0.612682 0.258312
O O4 0.865579 0.587156 0.000000
O O5 0.375828 0.204263 0.245957
O O6 0.256850 0.185719 0.150304
O O7 0.282950 0.299510 0.253243
O O8 0.335847 0.260450 0.000000
O O9 0.220444 0.997747 0.500000
O O10 0.325229 0.977068 0.339372
O O11 0.209826 0.956435 0.223844
O O12 0.250794 0.073758 0.274004
O O13 0.392907 0.147147 0.500000
O O14 0.405881 0.074041 0.257101
O O15 0.572034 0.985805 0.500000
O O16 0.116319 0.177371 0.500000
O O17 0.144420 0.140361 0.233272
O O18 0.158954 0.265481 0.308765
O O19 0.796749 0.909540 0.000000
O O20 0.771180 0.665841 0.500000
#
# Coordination Sequence:
#
# PCOD8303128 Si02
#       8
#     8   8   8   8   8   8   8   8
#     4  10  19  32  50  72 101 137 173 205 242 290
#     4  10  20  33  50  70  96 127 165 209 251 291
#     4  11  19  30  51  72  95 126 161 203 246 295
#     4  10  19  32  50  72 101 137 173 205 242 290
#     4   9  17  29  46  69  98 134 172 203 234 282
#     4  10  20  33  49  70  94 122 159 204 252 298
#     4  10  20  33  49  70  94 122 159 204 252 298
#     4  10  20  33  50  70  96 127 165 209 251 291
#
# _framework density 17.012138
#
# number of rings (size 3 to 8) (size 9 to 14) (size 15 to 20)
#    0.000    2.000    2.500    2.250    0.000    4.000 
#    0.000    0.625    0.000    1.875    0.000    2.625 
#    0.000    0.500    0.000    5.250    0.000    2.250 
#
# Total GULP energy -793231.036327 kJ/mol
# GULP energy per Si atom -12394.234943 kJ/mol
# Density = 1.697342 g / cm^3
# Si number density = 17.012138 Si / 1000 Ang^3
#
#
#
# Elastic Constant Matrix: (Units=GPa)
#
#
# Indices 1 2 3 4 5 6 
#
# 1 58.9372 32.8095 38.0663 0.0000 0.0000 0.5654
# 2 32.8095 58.9372 38.0663 0.0000 0.0000 -0.5654
# 3 38.0663 38.0663 100.3664 0.0000 0.0000 0.0000
# 4 0.0000 0.0000 0.0000 24.4983 0.0000 0.0000
# 5 0.0000 0.0000 0.0000 0.0000 24.4983 0.0000
# 6 0.5654 -0.5654 0.0000 0.0000 0.0000 23.7192
#
#
#
# Elastic Compliance Matrix: (Units=1/GPa)
#
#
# Indices 1 2 3 4 5 6 
#
# 1 0.027109 -0.011204 -0.006033 0.000000 0.000000 -0.000913
# 2 -0.011204 0.027109 -0.006033 0.000000 0.000000 0.000913
# 3 -0.006033 -0.006033 0.014539 0.000000 0.000000 0.000000
# 4 0.000000 0.000000 0.000000 0.040819 0.000000 0.000000
# 5 0.000000 0.000000 0.000000 0.000000 0.040819 0.000000
# 6 -0.000913 0.000913 0.000000 0.000000 0.000000 0.042203
#
#
# Mechanical properties :
#
#
# Convention : Reuss Voigt Hill
#
# Bulk Modulus (GPa) = 45.00400 48.45837 46.73118
# Shear Modulus (GPa) = 20.28033 21.82972 21.05502
#
# Velocity S-wave (km/s) = 3.45644 3.58604 3.52184
# Velocity P-wave (km/s) = 6.51466 6.75964 6.63828
#
# Compressibility (1/GPa) = 0.02222025
#
# Stress axis : x y z
#
# Youngs Moduli (GPa) = 36.88777 36.88777 68.77848
#
# Poissons Ratio (x) = 0.41328 0.41491
# Poissons Ratio (y) = 0.41328 0.41491
# Poissons Ratio (z) = 0.22253 0.22253
#
# Static dielectric constant tensor:
#      x y z
#    x 2.991020 0.000000 0.000000 
#    y 0.000000 2.991020 0.000000 
#    z 0.000000 0.000000 3.273110 
# 
# 
# High freq. dielectric constant tensor:
#      x y z
#    x 1.632820 0.000000 0.000000 
#    y 0.000000 1.632820 0.000000 
#    z 0.000000 0.000000 1.653990 
# 
# From -- ./inp_files/1389.got.cif
#   From: 2010.03.12/outbox.cif.g09.slc.cpg/sg84_1_cif.got.tgz:1389.got - 2010.04.08 20:07:29.
