data_PCOD8303964
_publ_section_title
;
Structure prediction by ZEFSAII (Michael W. Deem and Ramdas Pophale) SiO2 
 PCOD8303964
Probable space group: I 4/M
;
_chemical_formula_sum "Si O2"
_cell_formula_units_Z 96
_cell_length_a 24.049082
_cell_length_b 24.049082
_cell_length_c 8.639335
_cell_angle_alpha 90.000000
_cell_angle_beta 90.000000
_cell_angle_gamma 90.000000
_cell_volume 4996.631493
_symmetry_space_group_name_H-M "I 4/M"
_symmetry_group_IT_number 87
_symmetry_cell_setting 'tetragonal'
loop_
_space_group_symop_operation_xyz
x,y,z
-y,x,z
-x,-y,z
y,-x,z
-x,-y,-z
y,-x,-z
x,y,-z
-y,x,-z
1/2+x,1/2+y,1/2+z
1/2-y,1/2+x,1/2+z
1/2-x,1/2-y,1/2+z
1/2+y,1/2-x,1/2+z
1/2-x,1/2-y,1/2-z
1/2+y,1/2-x,1/2-z
1/2+x,1/2+y,1/2-z
1/2-y,1/2+x,1/2-z
loop_
_atom_site_type_symbol
_atom_site_label
_atom_site_fract_x
_atom_site_fract_y
_atom_site_fract_z
Si Si1 0.858703 0.233695 0.824473
Si Si2 0.648078 0.150717 0.181323
Si Si3 0.447598 0.639486 0.324143
Si Si4 0.140293 0.936547 0.320910
Si Si5 0.559686 0.060382 0.815112
Si Si6 0.773234 0.142199 0.183965
O O1 0.871116 0.287259 0.721048
O O2 0.912079 0.195112 0.806556
O O3 0.803909 0.199832 0.768321
O O4 0.850387 0.253651 0.000000
O O5 0.605138 0.104827 0.247175
O O6 0.710297 0.142266 0.246962
O O7 0.649909 0.143540 0.000000
O O8 0.468542 0.631998 0.500000
O O9 0.410762 0.586569 0.278907
O O10 0.498139 0.644464 0.206498
O O11 0.129698 0.923791 0.500000
O O12 0.197955 0.909490 0.267122
O O13 0.500254 0.077801 0.744770
O O14 0.555301 0.059596 0.000000
O O15 0.778061 0.133938 0.000000
#
# Coordination Sequence:
#
# PCOD8303964 Si02
#       6
#    16  16  16  16  16  16
#     4   9  19  34  55  80 108 143 182 219 264 319
#     4  10  21  35  56  83 110 140 180 223 267 322
#     4  10  21  39  58  78 109 150 185 220 274 336
#     4  11  22  36  56  84 111 140 184 236 274 311
#     4  10  21  38  57  78 104 138 174 218 269 318
#     4   9  19  37  55  77 112 151 181 213 267 331
#
# _framework density 19.212944
#
# number of rings (size 3 to 8) (size 9 to 14) (size 15 to 20)
#    0.000    2.167    0.000    4.500    0.000    7.000 
#    0.000    6.667    0.000    0.000    0.000    0.000 
#    0.000    0.000    0.000    0.000    0.000    0.000 
#
# Total GULP energy -595287.231194 kJ/mol
# GULP energy per Si atom -12401.817317 kJ/mol
# Density = 1.916921 g / cm^3
# Si number density = 19.212944 Si / 1000 Ang^3
#
#
#
# Elastic Constant Matrix: (Units=GPa)
#
#
# Indices 1 2 3 4 5 6 
#
# 1 113.8971 77.1645 22.3543 0.0000 0.0000 -2.1309
# 2 77.1645 113.8971 22.3543 0.0000 0.0000 2.1309
# 3 22.3543 22.3543 43.6702 0.0000 0.0000 0.0000
# 4 0.0000 0.0000 0.0000 25.5798 0.0000 0.0000
# 5 0.0000 0.0000 0.0000 0.0000 25.5798 0.0000
# 6 -2.1309 2.1309 0.0000 0.0000 0.0000 23.5303
#
#
#
# Elastic Compliance Matrix: (Units=1/GPa)
#
#
# Indices 1 2 3 4 5 6 
#
# 1 0.016730 -0.010783 -0.003044 0.000000 0.000000 0.002492
# 2 -0.010783 0.016730 -0.003044 0.000000 0.000000 -0.002492
# 3 -0.003044 -0.003044 0.026015 0.000000 0.000000 0.000000
# 4 0.000000 0.000000 0.000000 0.039093 0.000000 0.000000
# 5 0.000000 0.000000 0.000000 0.000000 0.039093 0.000000
# 6 0.002492 -0.002492 0.000000 0.000000 0.000000 0.042950
#
#
# Mechanical properties :
#
#
# Convention : Reuss Voigt Hill
#
# Bulk Modulus (GPa) = 38.86171 57.24562 48.05367
# Shear Modulus (GPa) = 22.42860 24.91073 23.66967
#
# Velocity S-wave (km/s) = 3.42039 3.60468 3.51374
# Velocity P-wave (km/s) = 5.98911 6.86914 6.44416
#
# Compressibility (1/GPa) = 0.02573227
#
# Stress axis : x y z
#
# Youngs Moduli (GPa) = 59.77462 59.77462 38.43930
#
# Poissons Ratio (x) = 0.64457 0.11700
# Poissons Ratio (y) = 0.64457 0.11700
# Poissons Ratio (z) = 0.18194 0.18194
#
# Static dielectric constant tensor:
#      x y z
#    x 3.573210 0.000000 0.000000 
#    y 0.000000 3.573210 0.000000 
#    z 0.000000 0.000000 3.409100 
# 
# 
# High freq. dielectric constant tensor:
#      x y z
#    x 1.748860 0.000000 0.000000 
#    y 0.000000 1.748860 0.000000 
#    z 0.000000 0.000000 1.743980 
# 
# From -- ./inp_files/1369.got.cif
#   From: 2010.03.12/outbox.cif.g09.slc.cpg/sg87_1_cif.got.tgz:1369.got - 2010.04.08 20:16:13.
