data_PCOD8303882
_publ_section_title
;
Structure prediction by ZEFSAII (Michael W. Deem and Ramdas Pophale) SiO2 
 PCOD8303882
Probable space group: I 4/M
;
_chemical_formula_sum "Si O2"
_cell_formula_units_Z 96
_cell_length_a 23.854314
_cell_length_b 23.854314
_cell_length_c 8.942669
_cell_angle_alpha 90.000000
_cell_angle_beta 90.000000
_cell_angle_gamma 90.000000
_cell_volume 5088.631706
_symmetry_space_group_name_H-M "I 4/M"
_symmetry_group_IT_number 87
_symmetry_cell_setting 'tetragonal'
loop_
_space_group_symop_operation_xyz
x,y,z
-y,x,z
-x,-y,z
y,-x,z
-x,-y,-z
y,-x,-z
x,y,-z
-y,x,-z
1/2+x,1/2+y,1/2+z
1/2-y,1/2+x,1/2+z
1/2-x,1/2-y,1/2+z
1/2+y,1/2-x,1/2+z
1/2-x,1/2-y,1/2-z
1/2+y,1/2-x,1/2-z
1/2+x,1/2+y,1/2-z
1/2-y,1/2+x,1/2-z
loop_
_atom_site_type_symbol
_atom_site_label
_atom_site_fract_x
_atom_site_fract_y
_atom_site_fract_z
Si Si1 0.075646 0.769962 0.676865
Si Si2 0.856725 0.566475 0.823684
Si Si3 0.952510 0.649138 0.174855
Si Si4 0.425795 0.447071 0.165878
Si Si5 0.861178 0.861231 0.827502
Si Si6 0.777787 0.041550 0.823722
O O1 0.073626 0.775624 0.500000
O O2 0.082709 0.705797 0.729789
O O3 0.131336 0.802373 0.738473
O O4 0.016432 0.794506 0.740652
O O5 0.898716 0.614720 0.767054
O O6 0.875357 0.507479 0.754134
O O7 0.858817 0.559941 0.000000
O O8 0.942802 0.713967 0.215742
O O9 0.961234 0.640887 0.000000
O O10 0.487339 0.423220 0.185512
O O11 0.389735 0.421256 0.298749
O O12 0.402884 0.430504 0.000000
O O13 0.904393 0.813789 0.766863
O O14 0.847435 0.851212 0.000000
O O15 0.787402 0.032406 0.000000
#
# Coordination Sequence:
#
# PCOD8303882 Si02
#       6
#    16  16  16  16  16  16
#     4  10  20  34  52  73 100 133 169 210 253 298
#     4   9  19  35  55  80 106 133 166 202 244 297
#     4   9  18  35  57  78 105 137 165 200 247 297
#     4   9  18  31  45  63  89 121 158 203 256 307
#     4  11  21  31  46  69  95 126 169 212 249 295
#     4   9  19  35  53  73  99 134 172 209 251 297
#
# _framework density 18.865582
#
# number of rings (size 3 to 8) (size 9 to 14) (size 15 to 20)
#    0.000    2.500    0.000    2.500    0.000    6.333 
#    0.000    3.333    0.000    0.000    0.000    0.000 
#    0.000    0.000    0.000    0.000    0.000    0.000 
#
# Total GULP energy -594902.145907 kJ/mol
# GULP energy per Si atom -12393.794706 kJ/mol
# Density = 1.882264 g / cm^3
# Si number density = 18.865582 Si / 1000 Ang^3
#
#
#
# Elastic Constant Matrix: (Units=GPa)
#
#
# Indices 1 2 3 4 5 6 
#
# 1 73.5401 55.3985 21.3995 0.0000 0.0000 0.9179
# 2 55.3985 73.5401 21.3995 0.0000 0.0000 -0.9179
# 3 21.3995 21.3995 39.0702 0.0000 0.0000 0.0000
# 4 0.0000 0.0000 0.0000 25.0806 0.0000 0.0000
# 5 0.0000 0.0000 0.0000 0.0000 25.0806 0.0000
# 6 0.9179 -0.9179 0.0000 0.0000 0.0000 39.8958
#
#
#
# Elastic Compliance Matrix: (Units=1/GPa)
#
#
# Indices 1 2 3 4 5 6 
#
# 1 0.032365 -0.022886 -0.005192 0.000000 0.000000 -0.001271
# 2 -0.022886 0.032365 -0.005192 0.000000 0.000000 0.001271
# 3 -0.005192 -0.005192 0.031282 0.000000 0.000000 0.000000
# 4 0.000000 0.000000 0.000000 0.039871 0.000000 0.000000
# 5 0.000000 0.000000 0.000000 0.000000 0.039871 0.000000
# 6 -0.001271 0.001271 0.000000 0.000000 0.000000 0.025124
#
#
# Mechanical properties :
#
#
# Convention : Reuss Voigt Hill
#
# Bulk Modulus (GPa) = 33.92944 42.50506 38.21725
# Shear Modulus (GPa) = 18.03482 23.87491 20.95486
#
# Velocity S-wave (km/s) = 3.09522 3.56128 3.33640
# Velocity P-wave (km/s) = 5.54957 6.28408 5.92821
#
# Compressibility (1/GPa) = 0.02947293
#
# Stress axis : x y z
#
# Youngs Moduli (GPa) = 30.89787 30.89787 31.96697
#
# Poissons Ratio (x) = 0.70712 0.16597
# Poissons Ratio (y) = 0.70712 0.16597
# Poissons Ratio (z) = 0.16042 0.16042
#
# Static dielectric constant tensor:
#      x y z
#    x 3.602910 0.000000 0.000000 
#    y 0.000000 3.602910 0.000000 
#    z 0.000000 0.000000 3.357160 
# 
# 
# High freq. dielectric constant tensor:
#      x y z
#    x 1.727710 0.000000 0.000000 
#    y 0.000000 1.727710 0.000000 
#    z 0.000000 0.000000 1.724570 
# 
# From -- ./inp_files/1320.got.cif
#   From: 2010.03.12/outbox.cif.g09.slc.cpg/sg87_1_cif.got.tgz:1320.got - 2010.04.08 20:16:13.
