data_PCOD8303155
_publ_section_title
;
Structure prediction by ZEFSAII (Michael W. Deem and Ramdas Pophale) SiO2 
 PCOD8303155
Probable space group: P 42/M
;
_chemical_formula_sum "Si O2"
_cell_formula_units_Z 48
_cell_length_a 13.634595
_cell_length_b 13.634595
_cell_length_c 12.818234
_cell_angle_alpha 90.000000
_cell_angle_beta 90.000000
_cell_angle_gamma 90.000000
_cell_volume 2382.937655
_symmetry_space_group_name_H-M "P 42/M"
_symmetry_group_IT_number 84
_symmetry_cell_setting 'tetragonal'
loop_
_space_group_symop_operation_xyz
x,y,z
-y,x,1/2+z
-x,-y,z
y,-x,1/2+z
-x,-y,-z
y,-x,1/2-z
x,y,-z
-y,x,1/2-z
loop_
_atom_site_type_symbol
_atom_site_label
_atom_site_fract_x
_atom_site_fract_y
_atom_site_fract_z
Si Si1 0.293882 0.488244 0.614883
Si Si2 0.426180 0.138762 0.621053
Si Si3 0.338673 0.309734 0.747911
Si Si4 0.090965 0.441343 0.689709
Si Si5 0.129189 0.229235 0.262634
Si Si6 0.219053 0.047882 0.379657
O O1 0.337209 0.468959 0.500000
O O2 0.340496 0.417994 0.700939
O O3 0.314330 0.600161 0.645963
O O4 0.178131 0.470042 0.612991
O O5 0.458666 0.142834 0.500000
O O6 0.387906 0.244030 0.658255
O O7 0.519577 0.107362 0.690602
O O8 0.335524 0.063904 0.637490
O O9 0.231440 0.271746 0.782387
O O10 0.076308 0.323238 0.682944
O O11 0.000000 0.500000 0.641733
O O12 0.153646 0.139139 0.339044
O O13 0.054475 0.189000 0.175152
O O14 0.192668 0.037095 0.500000
#
# Coordination Sequence:
#
# PCOD8303155 Si02
#       6
#     8   8   8   8   8   8
#     4  10  21  38  59  84 118 158 195 235 296 354
#     4   9  17  32  58  89 118 152 189 228 285 347
#     4   9  20  37  58  85 120 154 193 246 285 342
#     4  10  19  34  59  91 120 147 188 247 295 341
#     4  10  21  38  59  84 121 150 195 249 289 344
#     4  10  21  38  61  83 111 157 198 236 293 355
#
# _framework density 20.143203
#
# number of rings (size 3 to 8) (size 9 to 14) (size 15 to 20)
#    0.000    2.333    1.667    0.500    0.000    6.667 
#    0.000   10.000    0.000    0.000    0.000    0.000 
#    0.000    0.000    0.000    0.000    0.000    0.000 
#
# Total GULP energy -594914.571160 kJ/mol
# GULP energy per Si atom -12394.053566 kJ/mol
# Density = 2.009736 g / cm^3
# Si number density = 20.143203 Si / 1000 Ang^3
#
#
#
# Elastic Constant Matrix: (Units=GPa)
#
#
# Indices 1 2 3 4 5 6 
#
# 1 93.6989 26.4876 35.7313 0.0000 0.0000 -3.0595
# 2 26.4876 93.6989 35.7313 0.0000 0.0000 3.0595
# 3 35.7313 35.7313 99.2966 0.0000 0.0000 0.0000
# 4 0.0000 0.0000 0.0000 13.1953 0.0000 0.0000
# 5 0.0000 0.0000 0.0000 0.0000 13.1953 0.0000
# 6 -3.0595 3.0595 0.0000 0.0000 0.0000 27.5224
#
#
#
# Elastic Compliance Matrix: (Units=1/GPa)
#
#
# Indices 1 2 3 4 5 6 
#
# 1 0.012808 -0.002223 -0.003809 0.000000 0.000000 0.001671
# 2 -0.002223 0.012808 -0.003809 0.000000 0.000000 -0.001671
# 3 -0.003809 -0.003809 0.012812 0.000000 0.000000 0.000000
# 4 0.000000 0.000000 0.000000 0.075785 0.000000 0.000000
# 5 0.000000 0.000000 0.000000 0.000000 0.075785 0.000000
# 6 0.001671 -0.001671 0.000000 0.000000 0.000000 0.036706
#
#
# Mechanical properties :
#
#
# Convention : Reuss Voigt Hill
#
# Bulk Modulus (GPa) = 53.34330 53.62165 53.48247
# Shear Modulus (GPa) = 19.79153 23.36553 21.57853
#
# Velocity S-wave (km/s) = 3.13795 3.40953 3.27656
# Velocity P-wave (km/s) = 6.29829 6.49445 6.39712
#
# Compressibility (1/GPa) = 0.01874650
#
# Stress axis : x y z
#
# Youngs Moduli (GPa) = 78.07680 78.07680 78.05087
#
# Poissons Ratio (x) = 0.17354 0.29730
# Poissons Ratio (y) = 0.17354 0.29730
# Poissons Ratio (z) = 0.29740 0.29740
#
# Static dielectric constant tensor:
#      x y z
#    x 3.765240 0.000000 0.000000 
#    y 0.000000 3.765240 0.000000 
#    z 0.000000 0.000000 3.318790 
# 
# 
# High freq. dielectric constant tensor:
#      x y z
#    x 1.788230 0.000000 0.000000 
#    y 0.000000 1.788230 0.000000 
#    z 0.000000 0.000000 1.760480 
# 
# From -- ./inp_files/2153.got.cif
#   From: 2010.03.12/outbox.cif.g09.slc.cpg/sg84_2_cif.got.tgz:2153.got - 2010.04.08 20:07:29.
