data_PCOD8303136
_publ_section_title
;
Structure prediction by ZEFSAII (Michael W. Deem and Ramdas Pophale) SiO2 
 PCOD8303136
Probable space group: P 42/M
;
_chemical_formula_sum "Si O2"
_cell_formula_units_Z 48
_cell_length_a 14.454527
_cell_length_b 14.454527
_cell_length_c 13.417123
_cell_angle_alpha 90.000000
_cell_angle_beta 90.000000
_cell_angle_gamma 90.000000
_cell_volume 2803.284466
_symmetry_space_group_name_H-M "P 42/M"
_symmetry_group_IT_number 84
_symmetry_cell_setting 'tetragonal'
loop_
_space_group_symop_operation_xyz
x,y,z
-y,x,1/2+z
-x,-y,z
y,-x,1/2+z
-x,-y,-z
y,-x,1/2-z
x,y,-z
-y,x,1/2-z
loop_
_atom_site_type_symbol
_atom_site_label
_atom_site_fract_x
_atom_site_fract_y
_atom_site_fract_z
Si Si1 0.000000 0.500000 0.758598
Si Si2 0.122875 0.192978 0.500000
Si Si3 0.998753 0.307302 0.808388
Si Si4 0.166750 0.504884 0.381733
Si Si5 0.303270 0.184021 0.186593
Si Si6 0.988623 0.818110 0.000000
Si Si7 0.299691 0.823831 0.814548
Si Si8 0.795205 0.907307 0.000000
O O1 0.977763 0.584970 0.832201
O O2 0.923831 0.468802 0.679411
O O3 0.123085 0.082211 0.500000
O O4 0.182102 0.232246 0.408372
O O5 0.016633 0.226938 0.500000
O O6 0.071179 0.282441 0.721614
O O7 0.893038 0.300460 0.773515
O O8 0.017744 0.245914 0.903710
O O9 0.149640 0.501868 0.500000
O O10 0.225498 0.596427 0.349709
O O11 0.202904 0.405287 0.344781
O O12 0.249257 0.272600 0.229524
O O13 0.249145 0.140438 0.094913
O O14 0.905446 0.891275 0.000000
#
# Coordination Sequence:
#
# PCOD8303136 Si02
#       8
#     4   4   8   8   8   4   8   4
#     4   8  19  31  50  80 110 134 172 250 294 324
#     4  12  23  35  55  78 111 155 199 232 270 323
#     4  10  20  34  52  76 108 143 188 227 286 334
#     4  10  19  32  57  88 105 137 191 238 289 333
#     4  11  21  36  56  82 115 144 183 243 286 330
#     4  12  23  35  50  76 114 164 192 215 263 356
#     4  11  21  36  56  82 115 144 183 243 286 330
#     4  12  23  35  55  78 111 155 199 232 270 323
#
# _framework density 17.122771
#
# number of rings (size 3 to 8) (size 9 to 14) (size 15 to 20)
#    0.000    1.333    6.667    0.500    0.000    0.333 
#    0.000    0.000    0.000    1.500    0.000    1.167 
#    0.000    0.000    0.000    0.000    0.000    0.000 
#
# Total GULP energy -594669.756452 kJ/mol
# GULP energy per Si atom -12388.953259 kJ/mol
# Density = 1.708380 g / cm^3
# Si number density = 17.122771 Si / 1000 Ang^3
#
#
#
# Elastic Constant Matrix: (Units=GPa)
#
#
# Indices 1 2 3 4 5 6 
#
# 1 90.9589 17.3665 27.7399 0.0000 0.0000 1.1487
# 2 17.3665 90.9589 27.7399 0.0000 0.0000 -1.1487
# 3 27.7399 27.7399 57.0179 0.0000 0.0000 0.0000
# 4 0.0000 0.0000 0.0000 183.9660 0.0000 0.0000
# 5 0.0000 0.0000 0.0000 0.0000 183.9660 0.0000
# 6 1.1487 -1.1487 0.0000 0.0000 0.0000 14.3875
#
#
#
# Elastic Compliance Matrix: (Units=1/GPa)
#
#
# Indices 1 2 3 4 5 6 
#
# 1 0.012959 -0.000664 -0.005982 0.000000 0.000000 -0.001088
# 2 -0.000664 0.012959 -0.005982 0.000000 0.000000 0.001088
# 3 -0.005982 -0.005982 0.023359 0.000000 0.000000 0.000000
# 4 0.000000 0.000000 0.000000 0.005436 0.000000 0.000000
# 5 0.000000 0.000000 0.000000 0.000000 0.005436 0.000000
# 6 -0.001088 0.001088 0.000000 0.000000 0.000000 0.069679
#
#
# Mechanical properties :
#
#
# Convention : Reuss Voigt Hill
#
# Bulk Modulus (GPa) = 41.62850 42.73647 42.18248
# Shear Modulus (GPa) = 30.65839 87.53653 59.09746
#
# Velocity S-wave (km/s) = 4.23603 7.15778 5.88123
# Velocity P-wave (km/s) = 6.94908 9.66048 8.41471
#
# Compressibility (1/GPa) = 0.02402201
#
# Stress axis : x y z
#
# Youngs Moduli (GPa) = 77.16848 77.16848 42.81072
#
# Poissons Ratio (x) = 0.05121 0.25608
# Poissons Ratio (y) = 0.05121 0.25608
# Poissons Ratio (z) = 0.46160 0.46160
#
# Static dielectric constant tensor:
#      x y z
#    x 3.271080 0.000000 0.000000 
#    y 0.000000 3.271080 0.000000 
#    z 0.000000 0.000000 3.327130 
# 
# 
# High freq. dielectric constant tensor:
#      x y z
#    x 1.650110 0.000000 0.000000 
#    y 0.000000 1.650110 0.000000 
#    z 0.000000 0.000000 1.665350 
# 
# From -- ./inp_files/2225.got.cif
#   From: 2010.03.12/outbox.cif.g09.slc.cpg/sg84_2_cif.got.tgz:2225.got - 2010.04.08 20:07:29.
