data_PCOD8303118
_publ_section_title
;
Structure prediction by ZEFSAII (Michael W. Deem and Ramdas Pophale) SiO2 
 PCOD8303118
Probable space group: P 42/M
;
_chemical_formula_sum "Si O2"
_cell_formula_units_Z 40
_cell_length_a 14.367453
_cell_length_b 14.367453
_cell_length_c 9.044436
_cell_angle_alpha 90.000000
_cell_angle_beta 90.000000
_cell_angle_gamma 90.000000
_cell_volume 1866.985995
_symmetry_space_group_name_H-M "P 42/M"
_symmetry_group_IT_number 84
_symmetry_cell_setting 'tetragonal'
loop_
_space_group_symop_operation_xyz
x,y,z
-y,x,1/2+z
-x,-y,z
y,-x,1/2+z
-x,-y,-z
y,-x,1/2-z
x,y,-z
-y,x,1/2-z
loop_
_atom_site_type_symbol
_atom_site_label
_atom_site_fract_x
_atom_site_fract_y
_atom_site_fract_z
Si Si1 0.835558 0.303617 0.825251
Si Si2 0.378182 0.471322 0.335915
Si Si3 0.891062 0.504580 0.836953
Si Si4 0.956581 0.129977 0.175902
Si Si5 0.793604 0.651209 0.664851
O O1 0.853479 0.407798 0.759911
O O2 0.920955 0.234035 0.788100
O O3 0.740967 0.255975 0.760478
O O4 0.823676 0.313574 0.000000
O O5 0.387154 0.556487 0.222186
O O6 0.410239 0.501166 0.500000
O O7 0.274274 0.436869 0.339309
O O8 0.876206 0.604176 0.756334
O O9 0.000000 0.500000 0.849610
O O10 0.846066 0.512066 0.000000
O O11 0.055815 0.116883 0.256163
O O12 0.965661 0.112927 0.000000
O O13 0.828102 0.677976 0.500000
#
# Coordination Sequence:
#
# PCOD8303118 Si02
#       5
#     8   8   8   8   8
#     4   9  20  38  59  84 119 159 193 238 302 355
#     4  10  19  31  51  77 107 142 183 230 281 334
#     4  10  22  40  62  87 117 154 197 246 299 355
#     4  10  20  36  59  85 116 150 190 241 296 351
#     4  10  21  37  56  79 111 152 192 233 287 348
#
# _framework density 21.424907000000001
#
# number of rings (size 3 to 8) (size 9 to 14) (size 15 to 20)
#    0.000    2.200    0.000    3.600    2.800    3.600 
#    0.000    4.000    0.000    0.000    0.000    0.000 
#    0.000    0.000    0.000    0.000    0.000    0.000 
#
# Total GULP energy -495552.070909 kJ/mol
# GULP energy per Si atom -12388.801773 kJ/mol
# Density = 2.137614 g / cm^3
# Si number density = 21.424907 Si / 1000 Ang^3
#
#
#
# Elastic Constant Matrix: (Units=GPa)
#
#
# Indices 1 2 3 4 5 6 
#
# 1 73.4721 16.2468 13.8209 0.0000 0.0000 8.5341
# 2 16.2468 73.4721 13.8209 0.0000 0.0000 -8.5341
# 3 13.8209 13.8209 73.4587 0.0000 0.0000 0.0000
# 4 0.0000 0.0000 0.0000 8.2956 0.0000 0.0000
# 5 0.0000 0.0000 0.0000 0.0000 8.2956 0.0000
# 6 8.5341 -8.5341 0.0000 0.0000 0.0000 36.1839
#
#
#
# Elastic Compliance Matrix: (Units=1/GPa)
#
#
# Indices 1 2 3 4 5 6 
#
# 1 0.015314 -0.003483 -0.002226 0.000000 0.000000 -0.004433
# 2 -0.003483 0.015314 -0.002226 0.000000 0.000000 0.004433
# 3 -0.002226 -0.002226 0.014451 0.000000 0.000000 0.000000
# 4 0.000000 0.000000 0.000000 0.120545 0.000000 0.000000
# 5 0.000000 0.000000 0.000000 0.000000 0.120545 0.000000
# 6 -0.004433 0.004433 0.000000 0.000000 0.000000 0.029728
#
#
# Mechanical properties :
#
#
# Convention : Reuss Voigt Hill
#
# Bulk Modulus (GPa) = 34.23494 34.24223 34.23858
# Shear Modulus (GPa) = 14.64109 22.32266 18.48188
#
# Velocity S-wave (km/s) = 2.61697 3.23135 2.94025
# Velocity P-wave (km/s) = 5.01449 5.47168 5.24807
#
# Compressibility (1/GPa) = 0.02920993
#
# Stress axis : x y z
#
# Youngs Moduli (GPa) = 65.29789 65.29789 69.20058
#
# Poissons Ratio (x) = 0.22741 0.15405
# Poissons Ratio (y) = 0.22741 0.15405
# Poissons Ratio (z) = 0.14536 0.14536
#
# Static dielectric constant tensor:
#      x y z
#    x 3.892300 0.000000 0.000000 
#    y 0.000000 3.892300 0.000000 
#    z 0.000000 0.000000 3.919120 
# 
# 
# High freq. dielectric constant tensor:
#      x y z
#    x 1.843110 0.000000 0.000000 
#    y 0.000000 1.843110 0.000000 
#    z 0.000000 0.000000 1.810770 
# 
# From -- ./inp_files/798.got.cif
#   From: 2010.03.12/outbox.cif.g09.slc.cpg/sg84_1_cif.got.tgz:798.got - 2010.04.08 20:07:29.
