data_PCOD8303369
_publ_section_title
;
Structure prediction by ZEFSAII (Michael W. Deem and Ramdas Pophale) SiO2 
 PCOD8303369
Probable space group: P 42/M
;
_chemical_formula_sum "Si O2"
_cell_formula_units_Z 24
_cell_length_a 9.131509
_cell_length_b 9.131509
_cell_length_c 13.124556
_cell_angle_alpha 90.000000
_cell_angle_beta 90.000000
_cell_angle_gamma 90.000000
_cell_volume 1094.383970
_symmetry_space_group_name_H-M "P 42/M"
_symmetry_group_IT_number 84
_symmetry_cell_setting 'tetragonal'
loop_
_space_group_symop_operation_xyz
x,y,z
-y,x,1/2+z
-x,-y,z
y,-x,1/2+z
-x,-y,-z
y,-x,1/2-z
x,y,-z
-y,x,1/2-z
loop_
_atom_site_type_symbol
_atom_site_label
_atom_site_fract_x
_atom_site_fract_y
_atom_site_fract_z
Si Si1 0.836526 0.432452 0.000000
Si Si2 0.209885 0.906722 0.717756
Si Si3 0.976209 0.828675 0.000000
Si Si4 0.541556 0.286544 0.288514
O O1 0.744133 0.476260 0.900284
O O2 0.000000 0.500000 0.000000
O O3 0.867106 0.256952 0.000000
O O4 0.212942 0.877615 0.596854
O O5 0.369506 0.854291 0.756508
O O6 0.079715 0.812207 0.767012
O O7 0.000000 0.000000 0.000000
O O8 0.416857 0.335573 0.208250
#
# Coordination Sequence:
#
# PCOD8303369 Si02
#       4
#     4   8   4   8
#     4  12  24  47  73  98 145 199 235 297 384 424
#     4  11  22  38  67 102 138 181 241 299 357 418
#     4  12  22  40  67 107 133 181 233 296 365 422
#     4  11  26  44  67 105 142 195 245 291 367 445
#
# _framework density 21.930147000000002
#
# number of rings (size 3 to 8) (size 9 to 14) (size 15 to 20)
#    0.000    0.667    6.667    2.000    0.000    2.667 
#    0.000    3.333    0.000    4.000    0.000    0.000 
#    0.000    0.000    0.000    0.000    0.000    0.000 
#
# Total GULP energy -297370.490466 kJ/mol
# GULP energy per Si atom -12390.437103 kJ/mol
# Density = 2.188023 g / cm^3
# Si number density = 21.930147 Si / 1000 Ang^3
#
#
#
# Elastic Constant Matrix: (Units=GPa)
#
#
# Indices 1 2 3 4 5 6 
#
# 1 104.7969 58.1489 45.7046 0.0000 0.0000 -8.9486
# 2 58.1489 104.7969 45.7046 0.0000 0.0000 8.9486
# 3 45.7046 45.7046 117.1245 0.0000 0.0000 0.0000
# 4 0.0000 0.0000 0.0000 30.4366 0.0000 0.0000
# 5 0.0000 0.0000 0.0000 0.0000 30.4366 0.0000
# 6 -8.9486 8.9486 0.0000 0.0000 0.0000 66.5214
#
#
#
# Elastic Compliance Matrix: (Units=1/GPa)
#
#
# Indices 1 2 3 4 5 6 
#
# 1 0.015230 -0.007373 -0.003066 0.000000 0.000000 0.003041
# 2 -0.007373 0.015230 -0.003066 0.000000 0.000000 -0.003041
# 3 -0.003066 -0.003066 0.010931 0.000000 0.000000 0.000000
# 4 0.000000 0.000000 0.000000 0.032855 0.000000 0.000000
# 5 0.000000 0.000000 0.000000 0.000000 0.032855 0.000000
# 6 0.003041 -0.003041 0.000000 0.000000 0.000000 0.015851
#
#
# Mechanical properties :
#
#
# Convention : Reuss Voigt Hill
#
# Bulk Modulus (GPa) = 69.53713 69.53714 69.53714
# Shear Modulus (GPa) = 32.30873 37.28960 34.79917
#
# Velocity S-wave (km/s) = 3.84247 4.12804 3.98781
# Velocity P-wave (km/s) = 7.17380 7.38229 7.27879
#
# Compressibility (1/GPa) = 0.01438081
#
# Stress axis : x y z
#
# Youngs Moduli (GPa) = 65.65830 65.65830 91.48523
#
# Poissons Ratio (x) = 0.48413 0.28049
# Poissons Ratio (y) = 0.48413 0.28049
# Poissons Ratio (z) = 0.20131 0.20131
#
# Static dielectric constant tensor:
#      x y z
#    x 4.345320 0.000000 0.000000 
#    y 0.000000 4.345320 0.000000 
#    z 0.000000 0.000000 3.469160 
# 
# 
# High freq. dielectric constant tensor:
#      x y z
#    x 1.866860 0.000000 0.000000 
#    y 0.000000 1.866860 0.000000 
#    z 0.000000 0.000000 1.848630 
# 
# From -- ./inp_files/2630.got.cif
#   From: 2010.03.12/outbox.cif.g09.slc.cpg/sg84_2_cif.got.tgz:2630.got - 2010.04.08 20:07:29.
