data_PCOD8303285
_publ_section_title
;
Structure prediction by ZEFSAII (Michael W. Deem and Ramdas Pophale) SiO2 
 PCOD8303285
Probable space group: P 42/M
;
_chemical_formula_sum "Si O2"
_cell_formula_units_Z 40
_cell_length_a 14.619138
_cell_length_b 14.619138
_cell_length_c 9.600360
_cell_angle_alpha 90.000000
_cell_angle_beta 90.000000
_cell_angle_gamma 90.000000
_cell_volume 2051.781219
_symmetry_space_group_name_H-M "P 42/M"
_symmetry_group_IT_number 84
_symmetry_cell_setting 'tetragonal'
loop_
_space_group_symop_operation_xyz
x,y,z
-y,x,1/2+z
-x,-y,z
y,-x,1/2+z
-x,-y,-z
y,-x,1/2-z
x,y,-z
-y,x,1/2-z
loop_
_atom_site_type_symbol
_atom_site_label
_atom_site_fract_x
_atom_site_fract_y
_atom_site_fract_z
Si Si1 0.074952 0.321128 0.160433
Si Si2 0.051662 0.114641 0.835272
Si Si3 0.221930 0.464295 0.250781
Si Si4 0.413584 0.065338 0.155673
Si Si5 0.472422 0.644511 0.500000
Si Si6 0.648626 0.522059 0.500000
O O1 0.097443 0.214104 0.172918
O O2 0.158862 0.375670 0.227441
O O3 0.980414 0.339601 0.242539
O O4 0.061612 0.351468 0.000000
O O5 0.954632 0.115487 0.752671
O O6 0.040202 0.086972 0.000000
O O7 0.161924 0.554819 0.280655
O O8 0.288065 0.483155 0.126000
O O9 0.290450 0.444642 0.374020
O O10 0.500000 0.000000 0.145747
O O11 0.372375 0.079661 0.000000
O O12 0.554138 0.574098 0.500000
O O13 0.376927 0.586774 0.500000
#
# Coordination Sequence:
#
# PCOD8303285 Si02
#       6
#     8   8   8   8   4   4
#     4  10  22  39  61  92 126 159 201 254 308 364
#     4  10  21  41  62  88 122 163 200 239 300 367
#     4  11  21  41  62  91 123 158 210 259 308 365
#     4   9  19  35  59  86 121 158 193 246 309 361
#     4  11  24  42  67  84 124 171 208 261 317 367
#     4  11  24  44  61  90 122 167 216 257 315 375
#
# _framework density 19.495253999999999
#
# number of rings (size 3 to 8) (size 9 to 14) (size 15 to 20)
#    0.000    1.800    2.000    2.400    2.800    4.400 
#    7.200    0.000    0.000    0.000    0.000    0.000 
#    0.000    0.000    0.000    0.000    0.000    0.000 
#
# Total GULP energy -495750.740778 kJ/mol
# GULP energy per Si atom -12393.768519 kJ/mol
# Density = 1.945088 g / cm^3
# Si number density = 19.495254 Si / 1000 Ang^3
#
#
#
# Elastic Constant Matrix: (Units=GPa)
#
#
# Indices 1 2 3 4 5 6 
#
# 1 96.9869 29.0727 51.0945 0.0000 0.0000 -7.3197
# 2 29.0727 96.9869 51.0945 0.0000 0.0000 7.3197
# 3 51.0945 51.0945 176.7277 0.0000 0.0000 0.0000
# 4 0.0000 0.0000 0.0000 43.8663 0.0000 0.0000
# 5 0.0000 0.0000 0.0000 0.0000 43.8663 0.0000
# 6 -7.3197 7.3197 0.0000 0.0000 0.0000 19.5368
#
#
#
# Elastic Compliance Matrix: (Units=1/GPa)
#
#
# Indices 1 2 3 4 5 6 
#
# 1 0.013190 -0.002829 -0.002996 0.000000 0.000000 0.006001
# 2 -0.002829 0.013190 -0.002996 0.000000 0.000000 -0.006001
# 3 -0.002996 -0.002996 0.007391 0.000000 0.000000 0.000000
# 4 0.000000 0.000000 0.000000 0.022797 0.000000 0.000000
# 5 0.000000 0.000000 0.000000 0.000000 0.022797 0.000000
# 6 0.006001 -0.006001 0.000000 0.000000 0.000000 0.055682
#
#
# Mechanical properties :
#
#
# Convention : Reuss Voigt Hill
#
# Bulk Modulus (GPa) = 61.99429 70.35831 66.17630
# Shear Modulus (GPa) = 31.63334 37.41653 34.52494
#
# Velocity S-wave (km/s) = 4.03254 4.38569 4.21282
# Velocity P-wave (km/s) = 7.31783 7.86219 7.59489
#
# Compressibility (1/GPa) = 0.01613052
#
# Stress axis : x y z
#
# Youngs Moduli (GPa) = 75.81742 75.81742 135.30837
#
# Poissons Ratio (x) = 0.21445 0.40532
# Poissons Ratio (y) = 0.21445 0.40532
# Poissons Ratio (z) = 0.22711 0.22711
#
# Static dielectric constant tensor:
#      x y z
#    x 3.576420 0.000000 0.000000 
#    y 0.000000 3.576420 0.000000 
#    z 0.000000 0.000000 3.993120 
# 
# 
# High freq. dielectric constant tensor:
#      x y z
#    x 1.752260 0.000000 0.000000 
#    y 0.000000 1.752260 0.000000 
#    z 0.000000 0.000000 1.781400 
# 
# From -- ./inp_files/816.got.cif
#   From: 2010.03.12/outbox.cif.g09.slc.cpg/sg84_1_cif.got.tgz:816.got - 2010.04.08 20:07:29.
