data_PCOD8303347
_publ_section_title
;
Structure prediction by ZEFSAII (Michael W. Deem and Ramdas Pophale) SiO2 
 PCOD8303347
Probable space group: P 42/M
;
_chemical_formula_sum "Si O2"
_cell_formula_units_Z 56
_cell_length_a 11.943086
_cell_length_b 11.943086
_cell_length_c 22.145509
_cell_angle_alpha 90.000000
_cell_angle_beta 90.000000
_cell_angle_gamma 90.000000
_cell_volume 3158.775682
_symmetry_space_group_name_H-M "P 42/M"
_symmetry_group_IT_number 84
_symmetry_cell_setting 'tetragonal'
loop_
_space_group_symop_operation_xyz
x,y,z
-y,x,1/2+z
-x,-y,z
y,-x,1/2+z
-x,-y,-z
y,-x,1/2-z
x,y,-z
-y,x,1/2-z
loop_
_atom_site_type_symbol
_atom_site_label
_atom_site_fract_x
_atom_site_fract_y
_atom_site_fract_z
Si Si1 0.128802 0.126566 0.679511
Si Si2 0.616261 0.368199 0.253120
Si Si3 0.872254 0.497437 0.070504
Si Si4 0.311391 0.274073 0.366766
Si Si5 0.729583 0.683833 0.873809
Si Si6 0.501195 0.370089 0.928488
Si Si7 0.128415 0.130420 0.819257
O O1 0.192657 0.210265 0.633965
O O2 0.154709 0.155059 0.749262
O O3 0.999101 0.143781 0.665630
O O4 0.166633 0.999037 0.666175
O O5 0.493783 0.360236 0.222563
O O6 0.707149 0.341213 0.202910
O O7 0.622008 0.284537 0.309536
O O8 0.807865 0.401227 0.105009
O O9 0.814231 0.615401 0.084244
O O10 0.000000 0.500000 0.093002
O O11 0.864608 0.471655 0.000000
O O12 0.305816 0.390222 0.403127
O O13 0.609843 0.694638 0.906642
O O14 0.784288 0.804726 0.862070
O O15 0.500000 0.500000 0.906088
O O16 0.507154 0.365684 0.000000
#
# Coordination Sequence:
#
# PCOD8303347 Si02
#       7
#     8   8   8   8   8   8   8
#     4   9  19  36  57  82 114 151 187 225 278 342
#     4  11  20  32  50  83 118 150 176 219 288 350
#     4  11  24  38  55  83 115 148 193 248 290 327
#     4  12  20  35  58  83 115 148 187 232 284 345
#     4  12  20  35  58  83 115 148 187 232 284 345
#     4  11  22  37  57  81 111 153 190 222 275 340
#     4   9  19  36  57  82 114 151 187 225 278 342
#
# _framework density 17.728387000000001
#
# number of rings (size 3 to 8) (size 9 to 14) (size 15 to 20)
#    0.000    1.286    5.714    2.571    0.000    0.000 
#    0.000    0.714    0.000    4.286    0.000   10.000 
#    0.000    0.000    0.000    0.000    0.000    0.000 
#
# Total GULP energy -694425.712590 kJ/mol
# GULP energy per Si atom -12400.459153 kJ/mol
# Density = 1.768804 g / cm^3
# Si number density = 17.728387 Si / 1000 Ang^3
#
#
#
# Elastic Constant Matrix: (Units=GPa)
#
#
# Indices 1 2 3 4 5 6 
#
# 1 105.6099 53.6330 27.5562 0.0000 0.0000 -0.0188
# 2 53.6330 105.6099 27.5562 0.0000 0.0000 0.0188
# 3 27.5562 27.5562 51.9937 0.0000 0.0000 0.0000
# 4 0.0000 0.0000 0.0000 23.7698 0.0000 0.0000
# 5 0.0000 0.0000 0.0000 0.0000 23.7698 0.0000
# 6 -0.0188 0.0188 0.0000 0.0000 0.0000 33.9524
#
#
#
# Elastic Compliance Matrix: (Units=1/GPa)
#
#
# Indices 1 2 3 4 5 6 
#
# 1 0.013465 -0.005775 -0.004076 0.000000 0.000000 0.000011
# 2 -0.005775 0.013465 -0.004076 0.000000 0.000000 -0.000011
# 3 -0.004076 -0.004076 0.023553 0.000000 0.000000 0.000000
# 4 0.000000 0.000000 0.000000 0.042070 0.000000 0.000000
# 5 0.000000 0.000000 0.000000 0.000000 0.042070 0.000000
# 6 0.000011 -0.000011 0.000000 0.000000 0.000000 0.029453
#
#
# Mechanical properties :
#
#
# Convention : Reuss Voigt Hill
#
# Bulk Modulus (GPa) = 44.18756 53.41158 48.79957
# Shear Modulus (GPa) = 25.06617 26.59629 25.83123
#
# Velocity S-wave (km/s) = 3.76427 3.87746 3.82128
# Velocity P-wave (km/s) = 6.62358 7.08797 6.85971
#
# Compressibility (1/GPa) = 0.02263081
#
# Stress axis : x y z
#
# Youngs Moduli (GPa) = 74.26761 74.26761 42.45680
#
# Poissons Ratio (x) = 0.42886 0.17304
# Poissons Ratio (y) = 0.42886 0.17304
# Poissons Ratio (z) = 0.30270 0.30270
#
# Static dielectric constant tensor:
#      x y z
#    x 3.295710 0.000000 0.000000 
#    y 0.000000 3.295710 0.000000 
#    z 0.000000 0.000000 3.201280 
# 
# 
# High freq. dielectric constant tensor:
#      x y z
#    x 1.682230 0.000000 0.000000 
#    y 0.000000 1.682230 0.000000 
#    z 0.000000 0.000000 1.680050 
# 
# From -- ./inp_files/5026.got.cif
#   From: 2010.03.12/outbox.cif.g09.slc.cpg/sg84_3_cif.got.tgz:5026.got - 2010.04.08 20:07:29.
