data_PCOD8303404
_publ_section_title
;
Structure prediction by ZEFSAII (Michael W. Deem and Ramdas Pophale) SiO2 
 PCOD8303404
Probable space group: P 42/M
;
_chemical_formula_sum "Si O2"
_cell_formula_units_Z 40
_cell_length_a 19.625339
_cell_length_b 19.625339
_cell_length_c 7.827371
_cell_angle_alpha 90.000000
_cell_angle_beta 90.000000
_cell_angle_gamma 90.000000
_cell_volume 3014.742709
_symmetry_space_group_name_H-M "P 42/M"
_symmetry_group_IT_number 84
_symmetry_cell_setting 'tetragonal'
loop_
_space_group_symop_operation_xyz
x,y,z
-y,x,1/2+z
-x,-y,z
y,-x,1/2+z
-x,-y,-z
y,-x,1/2-z
x,y,-z
-y,x,1/2-z
loop_
_atom_site_type_symbol
_atom_site_label
_atom_site_fract_x
_atom_site_fract_y
_atom_site_fract_z
Si Si1 0.833939 0.416404 0.191604
Si Si2 0.921361 0.579907 0.500000
Si Si3 0.424284 0.677978 0.301646
Si Si4 0.686165 0.426420 0.805232
Si Si5 0.167252 0.421867 0.188078
Si Si6 0.924524 0.417134 0.500000
O O1 0.758289 0.397010 0.264277
O O2 0.838527 0.497345 0.184190
O O3 0.888475 0.387893 0.328508
O O4 0.848454 0.386580 0.000000
O O5 0.883124 0.608453 0.331441
O O6 0.920832 0.498510 0.500000
O O7 0.997874 0.608748 0.500000
O O8 0.420257 0.658749 0.500000
O O9 0.500299 0.666050 0.223006
O O10 0.373476 0.627857 0.205283
O O11 0.400623 0.755339 0.267535
O O12 0.702801 0.445038 0.000000
O O13 0.146906 0.393247 0.000000
#
# Coordination Sequence:
#
# PCOD8303404 Si02
#       6
#     8   4   8   8   8   4
#     4   8  15  27  38  50  71  92 111 141 179 220
#     4   9  16  24  38  58  71  87 113 135 173 226
#     4   9  18  29  39  52  68  91 123 156 195 233
#     4   9  18  29  39  52  68  91 123 156 195 233
#     4   8  15  27  38  50  71  92 111 141 179 220
#     4   9  16  24  38  58  71  87 113 135 173 226
#
# _framework density 13.268131
#
# number of rings (size 3 to 8) (size 9 to 14) (size 15 to 20)
#    0.000    3.400    0.000    2.400    2.800    2.000 
#    0.000    6.000    0.000    0.000    0.000    0.000 
#    0.000    0.000    0.000    0.000    0.000    0.000 
#
# Total GULP energy -495599.411627 kJ/mol
# GULP energy per Si atom -12389.985291 kJ/mol
# Density = 1.323793 g / cm^3
# Si number density = 13.268131 Si / 1000 Ang^3
#
#
#
# Elastic Constant Matrix: (Units=GPa)
#
#
# Indices 1 2 3 4 5 6 
#
# 1 61.8780 28.5419 33.0983 0.0000 0.0000 -0.1863
# 2 28.5419 61.8780 33.0983 0.0000 0.0000 0.1863
# 3 33.0983 33.0983 75.6984 0.0000 0.0000 0.0000
# 4 0.0000 0.0000 0.0000 15.3730 0.0000 0.0000
# 5 0.0000 0.0000 0.0000 0.0000 15.3730 0.0000
# 6 -0.1863 0.1863 0.0000 0.0000 0.0000 -0.1839
#
#
#
# Elastic Compliance Matrix: (Units=1/GPa)
#
#
# Indices 1 2 3 4 5 6 
#
# 1 0.022964 -0.006698 -0.007112 0.000000 0.000000 -0.030046
# 2 -0.006698 0.022964 -0.007112 0.000000 0.000000 0.030046
# 3 -0.007112 -0.007112 0.019430 0.000000 0.000000 0.000000
# 4 0.000000 0.000000 0.000000 0.065049 0.000000 0.000000
# 5 0.000000 0.000000 0.000000 0.000000 0.065049 0.000000
# 6 -0.030046 0.030046 0.000000 0.000000 0.000000 -5.376899
#
#
# Mechanical properties :
#
#
# Convention : Reuss Voigt Hill
#
# Bulk Modulus (GPa) = 42.52877 43.21460 42.87169
# Shear Modulus (GPa) = -0.97432 13.09348 6.05958
#
# Velocity S-wave (km/s) = -0.85786 3.14480 2.13938
# Velocity P-wave (km/s) = 5.58047 6.76959 6.20359
#
# Compressibility (1/GPa) = 0.02351349
#
# Stress axis : x y z
#
# Youngs Moduli (GPa) = 43.54627 43.54627 51.46707
#
# Poissons Ratio (x) = 0.29166 0.36605
# Poissons Ratio (y) = 0.29166 0.36605
# Poissons Ratio (z) = 0.30972 0.30972
#
# Static dielectric constant tensor:
#      x y z
#    x 2.424250 0.000000 0.000000 
#    y 0.000000 2.424250 0.000000 
#    z 0.000000 0.000000 2.889630 
# 
# 
# High freq. dielectric constant tensor:
#      x y z
#    x 1.461720 0.000000 0.000000 
#    y 0.000000 1.461720 0.000000 
#    z 0.000000 0.000000 1.519280 
# 
# From -- ./inp_files/929.got.cif
#   From: 2010.03.12/outbox.cif.g09.slc.cpg/sg84_1_cif.got.tgz:929.got - 2010.04.08 20:07:29.
