data_PCOD8303634
_publ_section_title
;
Structure prediction by ZEFSAII (Michael W. Deem and Ramdas Pophale) SiO2 
 PCOD8303634
Probable space group: P 42/N
;
_chemical_formula_sum "Si O2"
_cell_formula_units_Z 64
_cell_length_a 23.375754
_cell_length_b 23.375754
_cell_length_c 5.194872
_cell_angle_alpha 90.000000
_cell_angle_beta 90.000000
_cell_angle_gamma 90.000000
_cell_volume 2838.612478
_symmetry_space_group_name_H-M "P 42/N"
_symmetry_group_IT_number 86
_space_group.IT_coordinate_system_code '2'
_symmetry_cell_setting 'tetragonal'
loop_
_space_group_symop_operation_xyz
x,y,z
-y,1/2+x,1/2+z
1/2-x,1/2-y,z
1/2+y,-x,1/2+z
-x,-y,-z
y,1/2-x,1/2-z
1/2+x,1/2+y,-z
1/2-y,x,1/2-z
loop_
_atom_site_type_symbol
_atom_site_label
_atom_site_fract_x
_atom_site_fract_y
_atom_site_fract_z
Si Si1 0.485419 0.399983 0.860039
Si Si2 0.301612 0.873873 0.989834
Si Si3 0.770929 0.116167 0.515169
Si Si4 0.831689 0.603814 0.114425
Si Si5 0.393508 0.424017 0.217811
Si Si6 0.300980 0.406640 0.857134
Si Si7 0.095540 0.554767 0.129169
Si Si8 0.346740 0.514075 0.571973
O O1 0.449003 0.341719 0.810382
O O2 0.511072 0.428205 0.595286
O O3 0.434954 0.441395 0.976723
O O4 0.528715 0.389083 0.093701
O O5 0.277849 0.875247 0.277507
O O6 0.330547 0.812855 0.946665
O O7 0.348088 0.924257 0.977890
O O8 0.253918 0.884551 0.774147
O O9 0.801897 0.055608 0.570939
O O10 0.858645 0.665207 0.193233
O O11 0.764056 0.611429 0.091472
O O12 0.866659 0.583200 0.860562
O O13 0.389499 0.480405 0.385875
O O14 0.328963 0.408209 0.137439
O O15 0.309923 0.470432 0.744112
O O16 0.055282 0.607664 0.214444
#
# Coordination Sequence:
#
# PCOD8303634 Si02
#       8
#     8   8   8   8   8   8   8   8
#     4  11  23  43  70  99 138 183 227 281 334 417
#     4  11  25  43  66 102 131 186 233 286 345 415
#     4  11  25  44  68  96 141 177 236 288 350 405
#     4  10  23  46  67 108 134 187 229 289 343 422
#     4  10  23  44  66 106 136 178 235 277 353 416
#     4  10  24  44  72  97 143 178 236 281 357 412
#     4  11  25  42  67 101 143 179 237 281 340 415
#     4  10  26  42  65 102 136 182 226 293 346 412
#
# _framework density 22.546229
#
# number of rings (size 3 to 8) (size 9 to 14) (size 15 to 20)
#    0.000    1.500    1.250    1.500    7.000    8.750 
#    0.000    0.000    0.000    0.000    0.000    0.000 
#    0.000    0.000    0.000    0.000    0.000    0.000 
#
# Total GULP energy -792892.403914 kJ/mol
# GULP energy per Si atom -12388.943811 kJ/mol
# Density = 2.249491 g / cm^3
# Si number density = 22.546229 Si / 1000 Ang^3
#
#
#
# Elastic Constant Matrix: (Units=GPa)
#
#
# Indices 1 2 3 4 5 6 
#
# 1 105.1201 42.5272 20.8459 0.0000 0.0000 5.7730
# 2 42.5272 105.1201 20.8459 0.0000 0.0000 -5.7730
# 3 20.8459 20.8459 96.1295 0.0000 0.0000 0.0000
# 4 0.0000 0.0000 0.0000 25.2583 0.0000 0.0000
# 5 0.0000 0.0000 0.0000 0.0000 25.2583 0.0000
# 6 5.7730 -5.7730 0.0000 0.0000 0.0000 19.2930
#
#
#
# Elastic Compliance Matrix: (Units=1/GPa)
#
#
# Indices 1 2 3 4 5 6 
#
# 1 0.012062 -0.004847 -0.001565 0.000000 0.000000 -0.005060
# 2 -0.004847 0.012062 -0.001565 0.000000 0.000000 0.005060
# 3 -0.001565 -0.001565 0.011081 0.000000 0.000000 0.000000
# 4 0.000000 0.000000 0.000000 0.039591 0.000000 0.000000
# 5 0.000000 0.000000 0.000000 0.000000 0.039591 0.000000
# 6 -0.005060 0.005060 0.000000 0.000000 0.000000 0.054860
#
#
# Mechanical properties :
#
#
# Convention : Reuss Voigt Hill
#
# Bulk Modulus (GPa) = 51.94143 52.75641 52.34892
# Shear Modulus (GPa) = 26.09354 28.77196 27.43275
#
# Velocity S-wave (km/s) = 3.40565 3.57617 3.49195
# Velocity P-wave (km/s) = 6.20906 6.36412 6.28707
#
# Compressibility (1/GPa) = 0.01925245
#
# Stress axis : x y z
#
# Youngs Moduli (GPa) = 82.90401 82.90401 90.24315
#
# Poissons Ratio (x) = 0.40187 0.14119
# Poissons Ratio (y) = 0.40187 0.14119
# Poissons Ratio (z) = 0.12970 0.12970
#
# Static dielectric constant tensor:
#      x y z
#    x 4.022150 0.000000 0.000000 
#    y 0.000000 4.022150 0.000000 
#    z 0.000000 0.000000 4.138560 
# 
# 
# High freq. dielectric constant tensor:
#      x y z
#    x 1.887830 0.000000 0.000000 
#    y 0.000000 1.887830 0.000000 
#    z 0.000000 0.000000 1.892490 
# 
# From -- ./inp_files/552.got.cif
#   From: 2010.03.12/outbox.cif.g09.slc.cpg/sg86_1_cif.got.tgz:552.got - 2010.04.08 20:12:58.
