data_PCOD8303357
_publ_section_title
;
Structure prediction by ZEFSAII (Michael W. Deem and Ramdas Pophale) SiO2 
 PCOD8303357
Probable space group: P 42/M
;
_chemical_formula_sum "Si O2"
_cell_formula_units_Z 26
_cell_length_a 8.958781
_cell_length_b 8.958781
_cell_length_c 15.374229
_cell_angle_alpha 90.000000
_cell_angle_beta 90.000000
_cell_angle_gamma 90.000000
_cell_volume 1233.931884
_symmetry_space_group_name_H-M "P 42/M"
_symmetry_group_IT_number 84
_symmetry_cell_setting 'tetragonal'
loop_
_space_group_symop_operation_xyz
x,y,z
-y,x,1/2+z
-x,-y,z
y,-x,1/2+z
-x,-y,-z
y,-x,1/2-z
x,y,-z
-y,x,1/2-z
loop_
_atom_site_type_symbol
_atom_site_label
_atom_site_fract_x
_atom_site_fract_y
_atom_site_fract_z
Si Si1 0.291955 0.745601 0.321578
Si Si2 0.115845 0.185189 0.500000
Si Si3 0.339965 0.959188 0.832945
Si Si4 0.500000 0.500000 0.750000
Si Si5 0.876466 0.763723 0.000000
O O1 0.356472 0.863342 0.253678
O O2 0.378548 0.588055 0.309401
O O3 0.322474 0.806250 0.418217
O O4 0.113232 0.742298 0.308248
O O5 0.142868 0.268822 0.408801
O O6 0.940126 0.151821 0.500000
O O7 0.240362 0.055631 0.500000
O O8 0.500000 0.000000 0.871210
#
# Coordination Sequence:
#
# PCOD8303357 Si02
#       5
#     8   4   8   2   4
#     4  11  23  41  65  90 127 167 212 262 316 373
#     4   9  19  36  63  97 122 157 211 268 315 360
#     4  11  21  38  64  92 125 166 213 260 313 376
#     4  12  24  42  60  88 132 174 204 250 324 392
#     4   9  20  39  62  93 126 158 213 270 309 365
#
# _framework density 21.070857
#
# number of rings (size 3 to 8) (size 9 to 14) (size 15 to 20)
#    0.000    1.538    3.077    2.308    0.000    3.692 
#    0.000    2.308    0.000    0.000    0.000    0.000 
#    0.000    0.000    0.000    0.000    0.000    0.000 
#
# Total GULP energy -322265.760149 kJ/mol
# GULP energy per Si atom -12394.836929 kJ/mol
# Density = 2.102290 g / cm^3
# Si number density = 21.070857 Si / 1000 Ang^3
#
#
#
# Elastic Constant Matrix: (Units=GPa)
#
#
# Indices 1 2 3 4 5 6 
#
# 1 86.1650 17.4809 49.0409 0.0000 0.0000 6.2075
# 2 17.4809 86.1650 49.0409 0.0000 0.0000 -6.2075
# 3 49.0409 49.0409 174.0484 0.0000 0.0000 0.0000
# 4 0.0000 0.0000 0.0000 -5.4833 0.0000 0.0000
# 5 0.0000 0.0000 0.0000 0.0000 -5.4833 0.0000
# 6 6.2075 -6.2075 0.0000 0.0000 0.0000 22.0238
#
#
#
# Elastic Compliance Matrix: (Units=1/GPa)
#
#
# Indices 1 2 3 4 5 6 
#
# 1 0.014249 -0.001092 -0.003707 0.000000 0.000000 -0.004324
# 2 -0.001092 0.014249 -0.003707 0.000000 0.000000 0.004324
# 3 -0.003707 -0.003707 0.007835 0.000000 0.000000 0.000000
# 4 0.000000 0.000000 0.000000 -0.182371 0.000000 0.000000
# 5 0.000000 0.000000 0.000000 0.000000 -0.182371 0.000000
# 6 -0.004324 0.004324 0.000000 0.000000 0.000000 0.047843
#
#
# Mechanical properties :
#
#
# Convention : Reuss Voigt Hill
#
# Bulk Modulus (GPa) = 51.76241 64.16708 57.96475
# Shear Modulus (GPa) = -19.44647 17.59916 -0.92366
#
# Velocity S-wave (km/s) = -3.04124 2.89318 -0.66280
# Velocity P-wave (km/s) = 3.50529 6.45599 5.19456
#
# Compressibility (1/GPa) = 0.01931904
#
# Stress axis : x y z
#
# Youngs Moduli (GPa) = 70.18240 70.18240 127.64030
#
# Poissons Ratio (x) = 0.07667 0.47316
# Poissons Ratio (y) = 0.07667 0.47316
# Poissons Ratio (z) = 0.26016 0.26016
#
# Static dielectric constant tensor:
#      x y z
#    x 3.794260 0.000000 0.000000 
#    y 0.000000 3.794260 0.000000 
#    z 0.000000 0.000000 3.809260 
# 
# 
# High freq. dielectric constant tensor:
#      x y z
#    x 1.817920 0.000000 0.000000 
#    y 0.000000 1.817920 0.000000 
#    z 0.000000 0.000000 1.830390 
# 
# From -- ./inp_files/3497.got.cif
#   From: 2010.03.12/outbox.cif.g09.slc.cpg/sg84_2_cif.got.tgz:3497.got - 2010.04.08 20:07:29.
