data_PCOD8303453
_publ_section_title
;
Structure prediction by ZEFSAII (Michael W. Deem and Ramdas Pophale) SiO2 
 PCOD8303453
Probable space group: P 4/N
;
_chemical_formula_sum "Si O2"
_cell_formula_units_Z 26
_cell_length_a 11.706355
_cell_length_b 11.706355
_cell_length_c 8.595353
_cell_angle_alpha 90.000000
_cell_angle_beta 90.000000
_cell_angle_gamma 90.000000
_cell_volume 1177.896408
_symmetry_space_group_name_H-M "P 4/N"
_symmetry_group_IT_number 85
_symmetry_cell_setting 'tetragonal'
loop_
_space_group_symop_operation_xyz
x,y,z
1/2-y,x,z
1/2-x,1/2-y,z
y,1/2-x,z
-x,-y,-z
1/2+y,-x,-z
1/2+x,1/2+y,-z
-y,1/2+x,-z
loop_
_atom_site_type_symbol
_atom_site_label
_atom_site_fract_x
_atom_site_fract_y
_atom_site_fract_z
Si Si1 0.958763 0.995852 0.324496
Si Si2 0.320776 0.083815 0.151613
Si Si3 0.250000 0.750000 0.000000
Si Si4 0.518721 0.274695 0.828272
O O1 0.036053 0.892149 0.262965
O O2 0.824072 0.970572 0.289088
O O3 0.000000 0.000000 0.500000
O O4 0.979887 0.116905 0.237594
O O5 0.398095 0.191229 0.205072
O O6 0.310797 0.068171 0.966023
O O7 0.360993 0.767283 0.105166
#
# Coordination Sequence:
#
# PCOD8303453 Si02
#       4
#     8   8   2   8
#     4  12  29  44  70 108 150 187 235 307 382 436
#     4  11  23  45  74 102 135 186 244 293 344 438
#     4  12  24  40  82 100 136 188 242 312 340 436
#     4  12  24  46  71 104 140 188 250 292 365 440
#
# _framework density 22.073250000000002
#
# number of rings (size 3 to 8) (size 9 to 14) (size 15 to 20)
#    0.000    0.308    6.154    2.769    4.308    0.615 
#    0.000    0.000    0.000    0.000    0.000    0.000 
#    0.000    0.000    0.000    0.000    0.000    0.000 
#
# Total GULP energy -322177.857603 kJ/mol
# GULP energy per Si atom -12391.456062 kJ/mol
# Density = 2.202301 g / cm^3
# Si number density = 22.073250 Si / 1000 Ang^3
#
#
#
# Elastic Constant Matrix: (Units=GPa)
#
#
# Indices 1 2 3 4 5 6 
#
# 1 103.9737 30.5598 42.8103 0.0000 0.0000 -5.2695
# 2 30.5598 103.9737 42.8103 0.0000 0.0000 5.2695
# 3 42.8103 42.8103 122.1066 0.0000 0.0000 0.0000
# 4 0.0000 0.0000 0.0000 33.5979 0.0000 0.0000
# 5 0.0000 0.0000 0.0000 0.0000 33.5979 0.0000
# 6 -5.2695 5.2695 0.0000 0.0000 0.0000 31.2530
#
#
#
# Elastic Compliance Matrix: (Units=1/GPa)
#
#
# Indices 1 2 3 4 5 6 
#
# 1 0.011764 -0.002196 -0.003355 0.000000 0.000000 0.002354
# 2 -0.002196 0.011764 -0.003355 0.000000 0.000000 -0.002354
# 3 -0.003355 -0.003355 0.010542 0.000000 0.000000 0.000000
# 4 0.000000 0.000000 0.000000 0.029764 0.000000 0.000000
# 5 0.000000 0.000000 0.000000 0.000000 0.029764 0.000000
# 6 0.002354 -0.002354 0.000000 0.000000 0.000000 0.032791
#
#
# Mechanical properties :
#
#
# Convention : Reuss Voigt Hill
#
# Bulk Modulus (GPa) = 61.50191 62.49054 61.99623
# Shear Modulus (GPa) = 33.41877 33.94798 33.68338
#
# Velocity S-wave (km/s) = 3.89523 3.92595 3.91062
# Velocity P-wave (km/s) = 6.93928 6.99448 6.96693
#
# Compressibility (1/GPa) = 0.01625966
#
# Stress axis : x y z
#
# Youngs Moduli (GPa) = 85.00769 85.00769 94.86095
#
# Poissons Ratio (x) = 0.18665 0.31821
# Poissons Ratio (y) = 0.18665 0.31821
# Poissons Ratio (z) = 0.28516 0.28516
#
# Static dielectric constant tensor:
#      x y z
#    x 4.278390 0.000000 0.000000 
#    y 0.000000 4.278390 0.000000 
#    z 0.000000 0.000000 3.707470 
# 
# 
# High freq. dielectric constant tensor:
#      x y z
#    x 1.880240 0.000000 0.000000 
#    y 0.000000 1.880240 0.000000 
#    z 0.000000 0.000000 1.843480 
# 
# From -- ./inp_files/685.got.cif
#   From: 2010.03.12/outbox.cif.g09.slc.cpg/sg85_cif.got.tgz:685.got - 2010.04.08 20:10:46.
