data_PCOD8303470
_publ_section_title
;
Structure prediction by ZEFSAII (Michael W. Deem and Ramdas Pophale) SiO2 
 PCOD8303470
Probable space group: P 4/N
;
_chemical_formula_sum "Si O2"
_cell_formula_units_Z 40
_cell_length_a 14.880434
_cell_length_b 14.880434
_cell_length_c 7.380679
_cell_angle_alpha 90.000000
_cell_angle_beta 90.000000
_cell_angle_gamma 90.000000
_cell_volume 1634.283941
_symmetry_space_group_name_H-M "P 4/N"
_symmetry_group_IT_number 85
_symmetry_cell_setting 'tetragonal'
loop_
_space_group_symop_operation_xyz
x,y,z
1/2-y,x,z
1/2-x,1/2-y,z
y,1/2-x,z
-x,-y,-z
1/2+y,-x,-z
1/2+x,1/2+y,-z
-y,1/2+x,-z
loop_
_atom_site_type_symbol
_atom_site_label
_atom_site_fract_x
_atom_site_fract_y
_atom_site_fract_z
Si Si1 0.882954 0.696802 0.004030
Si Si2 0.949397 0.410114 0.061441
Si Si3 0.120287 0.309873 0.570079
Si Si4 0.338068 0.565194 0.411425
Si Si5 0.687806 0.161309 0.761007
O O1 0.865237 0.799136 0.944494
O O2 0.895298 0.686866 0.217324
O O3 0.973613 0.664785 0.910848
O O4 0.909903 0.420119 0.268846
O O5 0.872073 0.370280 0.931750
O O6 0.000000 0.500000 0.000000
O O7 0.132855 0.206606 0.510401
O O8 0.036613 0.353450 0.469971
O O9 0.323401 0.626120 0.586227
O O10 0.250394 0.577487 0.285831
O O11 0.750000 0.250000 0.801200
#
# Coordination Sequence:
#
# PCOD8303470 Si02
#       5
#     8   8   8   8   8
#     4   9  20  43  72 103 146 192 239 310 387 455
#     4  12  31  46  75 117 153 198 260 328 390 470
#     4   9  20  41  72 104 141 192 247 315 391 460
#     4  12  26  46  77 104 149 196 260 310 393 467
#     4  12  28  52  74 108 152 208 258 316 393 469
#
# _framework density 24.475553999999999
#
# number of rings (size 3 to 8) (size 9 to 14) (size 15 to 20)
#    0.000    1.200    4.000    1.200    8.400    4.800 
#    0.000    2.000    0.000    0.000    0.000    0.000 
#    0.000    0.000    0.000    0.000    0.000    0.000 
#
# Total GULP energy -495580.697114 kJ/mol
# GULP energy per Si atom -12389.517428 kJ/mol
# Density = 2.441985 g / cm^3
# Si number density = 24.475554 Si / 1000 Ang^3
#
#
#
# Elastic Constant Matrix: (Units=GPa)
#
#
# Indices 1 2 3 4 5 6 
#
# 1 83.5802 34.9058 31.4842 0.0000 0.0000 -10.3502
# 2 34.9058 83.5802 31.4842 0.0000 0.0000 10.3502
# 3 31.4842 31.4842 115.5099 0.0000 0.0000 0.0000
# 4 0.0000 0.0000 0.0000 13.4345 0.0000 0.0000
# 5 0.0000 0.0000 0.0000 0.0000 13.4345 0.0000
# 6 -10.3502 10.3502 0.0000 0.0000 0.0000 31.2198
#
#
#
# Elastic Compliance Matrix: (Units=1/GPa)
#
#
# Indices 1 2 3 4 5 6 
#
# 1 0.016893 -0.007024 -0.002690 0.000000 0.000000 0.007929
# 2 -0.007024 0.016893 -0.002690 0.000000 0.000000 -0.007929
# 3 -0.002690 -0.002690 0.010124 0.000000 0.000000 0.000000
# 4 0.000000 0.000000 0.000000 0.074435 0.000000 0.000000
# 5 0.000000 0.000000 0.000000 0.000000 0.074435 0.000000
# 6 0.007929 -0.007929 0.000000 0.000000 0.000000 0.037288
#
#
# Mechanical properties :
#
#
# Convention : Reuss Voigt Hill
#
# Bulk Modulus (GPa) = 52.34982 53.15765 52.75374
# Shear Modulus (GPa) = 19.13924 23.93752 21.53838
#
# Velocity S-wave (km/s) = 2.79941 3.13072 2.96969
# Velocity P-wave (km/s) = 5.64659 5.90206 5.77574
#
# Compressibility (1/GPa) = 0.01910226
#
# Stress axis : x y z
#
# Youngs Moduli (GPa) = 59.19578 59.19578 98.77789
#
# Poissons Ratio (x) = 0.41577 0.26572
# Poissons Ratio (y) = 0.41577 0.26572
# Poissons Ratio (z) = 0.15924 0.15924
#
# Static dielectric constant tensor:
#      x y z
#    x 4.558020 0.000000 0.000000 
#    y 0.000000 4.558020 0.000000 
#    z 0.000000 0.000000 4.672940 
# 
# 
# High freq. dielectric constant tensor:
#      x y z
#    x 1.970630 0.000000 0.000000 
#    y 0.000000 1.970630 0.000000 
#    z 0.000000 0.000000 1.995280 
# 
# From -- ./inp_files/911.got.cif
#   From: 2010.03.12/outbox.cif.g09.slc.cpg/sg85_cif.got.tgz:911.got - 2010.04.08 20:10:46.
