data_PCOD8303176
_publ_section_title
;
Structure prediction by ZEFSAII (Michael W. Deem and Ramdas Pophale) SiO2 
 PCOD8303176
Probable space group: P 42/M
;
_chemical_formula_sum "Si O2"
_cell_formula_units_Z 40
_cell_length_a 17.686896
_cell_length_b 17.686896
_cell_length_c 9.242067
_cell_angle_alpha 90.000000
_cell_angle_beta 90.000000
_cell_angle_gamma 90.000000
_cell_volume 2891.161533
_symmetry_space_group_name_H-M "P 42/M"
_symmetry_group_IT_number 84
_symmetry_cell_setting 'tetragonal'
loop_
_space_group_symop_operation_xyz
x,y,z
-y,x,1/2+z
-x,-y,z
y,-x,1/2+z
-x,-y,-z
y,-x,1/2-z
x,y,-z
-y,x,1/2-z
loop_
_atom_site_type_symbol
_atom_site_label
_atom_site_fract_x
_atom_site_fract_y
_atom_site_fract_z
Si Si1 0.492546 0.090196 0.838520
Si Si2 0.656846 0.083222 0.830084
Si Si3 0.643492 0.927965 0.334373
Si Si4 0.083974 0.809882 0.837251
Si Si5 0.906656 0.801002 0.831822
O O1 0.575832 0.124869 0.801766
O O2 0.427876 0.120345 0.727563
O O3 0.500000 0.000000 0.827491
O O4 0.468229 0.114236 0.000000
O O5 0.726592 0.125291 0.751355
O O6 0.651498 0.000107 0.765991
O O7 0.673749 0.077889 0.000000
O O8 0.627044 0.951668 0.500000
O O9 0.723630 0.884233 0.324552
O O10 0.125588 0.862953 0.723637
O O11 0.995153 0.812464 0.800906
O O12 0.097986 0.840016 0.000000
O O13 0.890221 0.789551 0.000000
#
# Coordination Sequence:
#
# PCOD8303176 Si02
#       5
#     8   8   8   8   8
#     4   8  14  23  36  55  75  95 116 138 175 223
#     4   9  16  26  39  54  74  96 116 145 185 225
#     4   9  16  25  38  56  75  94 118 148 181 220
#     4   9  19  32  41  53  73  95 123 160 200 233
#     4  10  20  31  43  57  70  92 128 163 196 232
#
# _framework density 13.83527
#
# number of rings (size 3 to 8) (size 9 to 14) (size 15 to 20)
#    0.000    3.000    0.000    4.200    0.000    9.600 
#    0.000    2.000    0.000    0.000    0.000    0.000 
#    0.000    0.000    0.000    0.000    0.000    1.000 
#
# Total GULP energy -495539.246834 kJ/mol
# GULP energy per Si atom -12388.481171 kJ/mol
# Density = 1.380378 g / cm^3
# Si number density = 13.835270 Si / 1000 Ang^3
#
#
#
# Elastic Constant Matrix: (Units=GPa)
#
#
# Indices 1 2 3 4 5 6 
#
# 1 55.7649 30.1214 44.4209 0.0000 0.0000 0.8402
# 2 30.1214 55.7649 44.4209 0.0000 0.0000 -0.8402
# 3 44.4209 44.4209 101.8809 0.0000 0.0000 0.0000
# 4 0.0000 0.0000 0.0000 21.9254 0.0000 0.0000
# 5 0.0000 0.0000 0.0000 0.0000 21.9254 0.0000
# 6 0.8402 -0.8402 0.0000 0.0000 0.0000 0.2533
#
#
#
# Elastic Compliance Matrix: (Units=1/GPa)
#
#
# Indices 1 2 3 4 5 6 
#
# 1 0.035518 -0.014309 -0.009247 0.000000 0.000000 -0.165279
# 2 -0.014309 0.035518 -0.009247 0.000000 0.000000 0.165279
# 3 -0.009247 -0.009247 0.017879 0.000000 0.000000 0.000000
# 4 0.000000 0.000000 0.000000 0.045609 0.000000 0.000000
# 5 0.000000 0.000000 0.000000 0.000000 0.045609 0.000000
# 6 -0.165279 0.165279 0.000000 0.000000 0.000000 5.044189
#
#
# Mechanical properties :
#
#
# Convention : Reuss Voigt Hill
#
# Bulk Modulus (GPa) = 42.90411 50.14853 46.52632
# Shear Modulus (GPa) = 0.94381 15.11734 8.03057
#
# Velocity S-wave (km/s) = 0.82683 3.30914 2.41185
# Velocity P-wave (km/s) = 5.65593 7.13625 6.43877
#
# Compressibility (1/GPa) = 0.02330779
#
# Stress axis : x y z
#
# Youngs Moduli (GPa) = 28.15474 28.15474 55.93145
#
# Poissons Ratio (x) = 0.40288 0.51721
# Poissons Ratio (y) = 0.40288 0.51721
# Poissons Ratio (z) = 0.26035 0.26035
#
# Static dielectric constant tensor:
#      x y z
#    x 2.829600 0.000000 0.000000 
#    y 0.000000 2.829600 0.000000 
#    z 0.000000 0.000000 2.910660 
# 
# 
# High freq. dielectric constant tensor:
#      x y z
#    x 1.491710 0.000000 0.000000 
#    y 0.000000 1.491710 0.000000 
#    z 0.000000 0.000000 1.546550 
# 
# From -- ./inp_files/886.got.cif
#   From: 2010.03.12/outbox.cif.g09.slc.cpg/sg84_1_cif.got.tgz:886.got - 2010.04.08 20:07:29.
