data_PCOD8303283
_publ_section_title
;
Structure prediction by ZEFSAII (Michael W. Deem and Ramdas Pophale) SiO2 
 PCOD8303283
Probable space group: P 42/M
;
_chemical_formula_sum "Si O2"
_cell_formula_units_Z 48
_cell_length_a 9.355915
_cell_length_b 9.355915
_cell_length_c 27.075432
_cell_angle_alpha 90.000000
_cell_angle_beta 90.000000
_cell_angle_gamma 90.000000
_cell_volume 2369.997728
_symmetry_space_group_name_H-M "P 42/M"
_symmetry_group_IT_number 84
_symmetry_cell_setting 'tetragonal'
loop_
_space_group_symop_operation_xyz
x,y,z
-y,x,1/2+z
-x,-y,z
y,-x,1/2+z
-x,-y,-z
y,-x,1/2-z
x,y,-z
-y,x,1/2-z
loop_
_atom_site_type_symbol
_atom_site_label
_atom_site_fract_x
_atom_site_fract_y
_atom_site_fract_z
Si Si1 0.864408 0.409776 0.796624
Si Si2 0.066153 0.850334 0.053042
Si Si3 0.421695 0.647689 0.640111
Si Si4 0.137393 0.900923 0.843713
Si Si5 0.399654 0.869115 0.443633
Si Si6 0.617382 0.893215 0.182485
O O1 0.724407 0.488841 0.816784
O O2 0.878457 0.243912 0.812201
O O3 0.850329 0.420632 0.738050
O O4 0.000000 0.500000 0.816106
O O5 0.176670 0.853924 0.099426
O O6 0.927553 0.757690 0.067634
O O7 0.135208 0.795489 0.000000
O O8 0.000000 0.000000 0.041563
O O9 0.500000 0.500000 0.630463
O O10 0.435998 0.734168 0.589599
O O11 0.253644 0.630123 0.652251
O O12 0.244366 0.007972 0.817483
O O13 0.000000 0.000000 0.846450
O O14 0.420588 0.820268 0.500000
O O15 0.500000 0.000000 0.429059
O O16 0.500000 0.000000 0.159012
#
# Coordination Sequence:
#
# PCOD8303283 Si02
#       6
#     8   8   8   8   8   8
#     4  11  25  41  63  89 124 171 220 268 329 394
#     4   9  17  32  58  88 119 156 197 253 318 377
#     4  12  25  41  66  91 129 175 216 267 335 402
#     4  11  22  38  63  92 125 160 215 269 319 375
#     4  10  21  40  66  98 129 164 216 272 323 386
#     4  11  27  42  60  90 127 170 217 273 321 395
#
# _framework density 20.253183
#
# number of rings (size 3 to 8) (size 9 to 14) (size 15 to 20)
#    0.000    1.333    0.000    6.500    9.333    0.333 
#    0.000    0.000    0.000    4.000    0.000    0.000 
#    0.000    0.000    0.000    0.000    0.000    0.000 
#
# Total GULP energy -594819.196612 kJ/mol
# GULP energy per Si atom -12392.066596 kJ/mol
# Density = 2.020709 g / cm^3
# Si number density = 20.253183 Si / 1000 Ang^3
#
#
#
# Elastic Constant Matrix: (Units=GPa)
#
#
# Indices 1 2 3 4 5 6 
#
# 1 132.3670 64.1367 45.3204 0.0000 0.0000 -4.8628
# 2 64.1367 132.3670 45.3204 0.0000 0.0000 4.8628
# 3 45.3204 45.3204 100.7489 0.0000 0.0000 0.0000
# 4 0.0000 0.0000 0.0000 22.3374 0.0000 0.0000
# 5 0.0000 0.0000 0.0000 0.0000 22.3374 0.0000
# 6 -4.8628 4.8628 0.0000 0.0000 0.0000 39.2532
#
#
#
# Elastic Compliance Matrix: (Units=1/GPa)
#
#
# Indices 1 2 3 4 5 6 
#
# 1 0.010671 -0.004249 -0.002889 0.000000 0.000000 0.001848
# 2 -0.004249 0.010671 -0.002889 0.000000 0.000000 -0.001848
# 3 -0.002889 -0.002889 0.012524 0.000000 0.000000 0.000000
# 4 0.000000 0.000000 0.000000 0.044768 0.000000 0.000000
# 5 0.000000 0.000000 0.000000 0.000000 0.044768 0.000000
# 6 0.001848 -0.001848 0.000000 0.000000 0.000000 0.025934
#
#
# Mechanical properties :
#
#
# Convention : Reuss Voigt Hill
#
# Bulk Modulus (GPa) = 72.39598 75.00419 73.70009
# Shear Modulus (GPa) = 28.73696 30.83262 29.78479
#
# Velocity S-wave (km/s) = 3.77090 3.90597 3.83903
# Velocity P-wave (km/s) = 7.40153 7.57996 7.49128
#
# Compressibility (1/GPa) = 0.01381292
#
# Stress axis : x y z
#
# Youngs Moduli (GPa) = 93.71597 93.71597 79.84405
#
# Poissons Ratio (x) = 0.39822 0.23063
# Poissons Ratio (y) = 0.39822 0.23063
# Poissons Ratio (z) = 0.27070 0.27070
#
# Static dielectric constant tensor:
#      x y z
#    x 3.688550 0.000000 0.000000 
#    y 0.000000 3.688550 0.000000 
#    z 0.000000 0.000000 3.999530 
# 
# 
# High freq. dielectric constant tensor:
#      x y z
#    x 1.791180 0.000000 0.000000 
#    y 0.000000 1.791180 0.000000 
#    z 0.000000 0.000000 1.804180 
# 
# From -- ./inp_files/5803.got.cif
#   From: 2010.03.12/outbox.cif.g09.slc.cpg/sg84_3_cif.got.tgz:5803.got - 2010.04.08 20:07:29.
