data_PCOD8303361
_publ_section_title
;
Structure prediction by ZEFSAII (Michael W. Deem and Ramdas Pophale) SiO2 
 PCOD8303361
Probable space group: P 42/M
;
_chemical_formula_sum "Si O2"
_cell_formula_units_Z 48
_cell_length_a 9.272894
_cell_length_b 9.272894
_cell_length_c 28.281016
_cell_angle_alpha 90.000000
_cell_angle_beta 90.000000
_cell_angle_gamma 90.000000
_cell_volume 2431.787368
_symmetry_space_group_name_H-M "P 42/M"
_symmetry_group_IT_number 84
_symmetry_cell_setting 'tetragonal'
loop_
_space_group_symop_operation_xyz
x,y,z
-y,x,1/2+z
-x,-y,z
y,-x,1/2+z
-x,-y,-z
y,-x,1/2-z
x,y,-z
-y,x,1/2-z
loop_
_atom_site_type_symbol
_atom_site_label
_atom_site_fract_x
_atom_site_fract_y
_atom_site_fract_z
Si Si1 0.210560 0.923910 0.765603
Si Si2 0.919958 0.855924 0.553618
Si Si3 0.422030 0.352345 0.364900
Si Si4 0.563753 0.297925 0.730893
Si Si5 0.141281 0.585247 0.946971
Si Si6 0.349960 0.917580 0.862403
O O1 0.350707 0.846731 0.743590
O O2 0.243164 0.964002 0.819943
O O3 0.071018 0.819613 0.763146
O O4 0.962989 0.811339 0.500000
O O5 0.752866 0.893445 0.557677
O O6 0.962177 0.724870 0.588225
O O7 0.000000 0.000000 0.569920
O O8 0.500000 0.500000 0.373302
O O9 0.485915 0.272349 0.318995
O O10 0.462707 0.263851 0.411222
O O11 0.252507 0.376337 0.358650
O O12 0.438660 0.330407 0.770231
O O13 0.000000 0.500000 0.932410
O O14 0.191911 0.545409 0.000000
O O15 0.500000 0.000000 0.858379
#
# Coordination Sequence:
#
# PCOD8303361 Si02
#       6
#     8   8   8   8   8   8
#     4  11  27  42  58  90 123 161 202 258 308 364
#     4   9  20  40  65  90 122 160 203 254 310 375
#     4  11  22  38  60  91 116 160 204 243 301 364
#     4  11  21  40  63  86 120 160 203 250 289 371
#     4   9  20  39  60  89 122 153 198 251 304 362
#     4  11  25  40  62  89 123 163 204 258 309 366
#
# _framework density 19.738568999999998
#
# number of rings (size 3 to 8) (size 9 to 14) (size 15 to 20)
#    0.000    1.667    3.333    0.000    7.000    4.667 
#    0.000    0.000    0.000    0.000    0.000    0.000 
#    0.000    0.000    0.000    0.000    0.000    0.000 
#
# Total GULP energy -595291.740099 kJ/mol
# GULP energy per Si atom -12401.911252 kJ/mol
# Density = 1.969364 g / cm^3
# Si number density = 19.738569 Si / 1000 Ang^3
#
#
#
# Elastic Constant Matrix: (Units=GPa)
#
#
# Indices 1 2 3 4 5 6 
#
# 1 78.4839 42.8005 65.4150 0.0000 0.0000 4.3416
# 2 42.8005 78.4839 65.4150 0.0000 0.0000 -4.3416
# 3 65.4150 65.4150 130.6048 0.0000 0.0000 0.0000
# 4 0.0000 0.0000 0.0000 60.7963 0.0000 0.0000
# 5 0.0000 0.0000 0.0000 0.0000 60.7963 0.0000
# 6 4.3416 -4.3416 0.0000 0.0000 0.0000 45.5574
#
#
#
# Elastic Compliance Matrix: (Units=1/GPa)
#
#
# Indices 1 2 3 4 5 6 
#
# 1 0.023312 -0.005377 -0.008983 0.000000 0.000000 -0.002734
# 2 -0.005377 0.023312 -0.008983 0.000000 0.000000 0.002734
# 3 -0.008983 -0.008983 0.016655 0.000000 0.000000 0.000000
# 4 0.000000 0.000000 0.000000 0.016448 0.000000 0.000000
# 5 0.000000 0.000000 0.000000 0.000000 0.016448 0.000000
# 6 -0.002734 0.002734 0.000000 0.000000 0.000000 0.022471
#
#
# Mechanical properties :
#
#
# Convention : Reuss Voigt Hill
#
# Bulk Modulus (GPa) = 60.26512 70.53707 65.40109
# Shear Modulus (GPa) = 29.26274 41.02612 35.14443
#
# Velocity S-wave (km/s) = 3.85452 4.56398 4.22417
# Velocity P-wave (km/s) = 7.09984 7.97411 7.54964
#
# Compressibility (1/GPa) = 0.01659335
#
# Stress axis : x y z
#
# Youngs Moduli (GPa) = 42.89574 42.89574 60.04132
#
# Poissons Ratio (x) = 0.23066 0.53935
# Poissons Ratio (y) = 0.23066 0.53935
# Poissons Ratio (z) = 0.38533 0.38533
#
# Static dielectric constant tensor:
#      x y z
#    x 3.575370 0.000000 0.000000 
#    y 0.000000 3.575370 0.000000 
#    z 0.000000 0.000000 3.907730 
# 
# 
# High freq. dielectric constant tensor:
#      x y z
#    x 1.768450 0.000000 0.000000 
#    y 0.000000 1.768450 0.000000 
#    z 0.000000 0.000000 1.777920 
# 
# From -- ./inp_files/5809.got.cif
#   From: 2010.03.12/outbox.cif.g09.slc.cpg/sg84_3_cif.got.tgz:5809.got - 2010.04.08 20:07:29.
