data_PCOD8303652
_publ_section_title
;
Structure prediction by ZEFSAII (Michael W. Deem and Ramdas Pophale) SiO2 
 PCOD8303652
Probable space group: P 42/N
;
_chemical_formula_sum "Si O2"
_cell_formula_units_Z 48
_cell_length_a 8.894117
_cell_length_b 8.894117
_cell_length_c 28.916806
_cell_angle_alpha 90.000000
_cell_angle_beta 90.000000
_cell_angle_gamma 90.000000
_cell_volume 2287.473111
_symmetry_space_group_name_H-M "P 42/N"
_symmetry_group_IT_number 86
_space_group.IT_coordinate_system_code '2'
_symmetry_cell_setting 'tetragonal'
loop_
_space_group_symop_operation_xyz
x,y,z
-y,1/2+x,1/2+z
1/2-x,1/2-y,z
1/2+y,-x,1/2+z
-x,-y,-z
y,1/2-x,1/2-z
1/2+x,1/2+y,-z
1/2-y,x,1/2-z
loop_
_atom_site_type_symbol
_atom_site_label
_atom_site_fract_x
_atom_site_fract_y
_atom_site_fract_z
Si Si1 0.250000 0.250000 0.588911
Si Si2 0.417517 0.269594 0.383431
Si Si3 0.002712 0.957343 0.447130
Si Si4 0.006031 0.443478 0.637261
Si Si5 0.445902 0.322462 0.276774
Si Si6 0.250000 0.750000 0.905993
Si Si7 0.953998 0.636359 0.260522
O O1 0.144354 0.144938 0.558237
O O2 0.347192 0.141152 0.620434
O O3 0.250000 0.250000 0.403907
O O4 0.503352 0.395503 0.413854
O O5 0.402263 0.319601 0.330282
O O6 0.503706 0.109809 0.385503
O O7 0.151398 0.859483 0.437835
O O8 0.000000 0.000000 0.500000
O O9 0.854178 0.352978 0.626175
O O10 0.022578 0.453917 0.692033
O O11 0.437801 0.165806 0.249993
O O12 0.609616 0.398456 0.271282
O O13 0.813087 0.568011 0.232020
#
# Coordination Sequence:
#
# PCOD8303652 Si02
#       7
#     4   8   8   8   8   4   8
#     4  10  26  46  67 102 140 174 227 286 352 422
#     4  12  23  42  72 102 135 181 237 292 347 425
#     4  11  27  47  75 103 138 181 233 294 365 426
#     4  11  23  45  67 100 141 187 234 288 350 430
#     4  11  22  41  61  96 133 171 227 283 332 409
#     4  10  24  44  76  96 134 190 226 288 372 424
#     4  11  25  39  60  93 140 183 226 274 339 415
#
# _framework density 20.983854000000001
#
# number of rings (size 3 to 8) (size 9 to 14) (size 15 to 20)
#    0.000    1.000    5.000    1.000    8.167    2.667 
#    0.000    3.333    0.000    0.000    0.000    0.000 
#    0.000    0.000    0.000    0.000    0.000    0.000 
#
# Total GULP energy -595137.333102 kJ/mol
# GULP energy per Si atom -12398.694440 kJ/mol
# Density = 2.093609 g / cm^3
# Si number density = 20.983854 Si / 1000 Ang^3
#
#
#
# Elastic Constant Matrix: (Units=GPa)
#
#
# Indices 1 2 3 4 5 6 
#
# 1 123.3356 60.0878 49.9087 0.0000 0.0000 -0.8000
# 2 60.0878 123.3356 49.9087 0.0000 0.0000 0.8000
# 3 49.9087 49.9087 109.8063 0.0000 0.0000 0.0000
# 4 0.0000 0.0000 0.0000 22.9794 0.0000 0.0000
# 5 0.0000 0.0000 0.0000 0.0000 22.9794 0.0000
# 6 -0.8000 0.8000 0.0000 0.0000 0.0000 29.5932
#
#
#
# Elastic Compliance Matrix: (Units=1/GPa)
#
#
# Indices 1 2 3 4 5 6 
#
# 1 0.011533 -0.004289 -0.003292 0.000000 0.000000 0.000428
# 2 -0.004289 0.011533 -0.003292 0.000000 0.000000 -0.000428
# 3 -0.003292 -0.003292 0.012100 0.000000 0.000000 0.000000
# 4 0.000000 0.000000 0.000000 0.043517 0.000000 0.000000
# 5 0.000000 0.000000 0.000000 0.000000 0.043517 0.000000
# 6 0.000428 -0.000428 0.000000 0.000000 0.000000 0.033815
#
#
# Mechanical properties :
#
#
# Convention : Reuss Voigt Hill
#
# Bulk Modulus (GPa) = 74.52900 75.14310 74.83605
# Shear Modulus (GPa) = 27.43727 28.21522 27.82625
#
# Velocity S-wave (km/s) = 3.61992 3.67088 3.64549
# Velocity P-wave (km/s) = 7.28465 7.33859 7.31167
#
# Compressibility (1/GPa) = 0.01341760
#
# Stress axis : x y z
#
# Youngs Moduli (GPa) = 86.71094 86.71094 82.64645
#
# Poissons Ratio (x) = 0.37191 0.27210
# Poissons Ratio (y) = 0.37191 0.27210
# Poissons Ratio (z) = 0.28548 0.28548
#
# Static dielectric constant tensor:
#      x y z
#    x 4.114470 0.000000 0.000000 
#    y 0.000000 4.114470 0.000000 
#    z 0.000000 0.000000 3.546230 
# 
# 
# High freq. dielectric constant tensor:
#      x y z
#    x 1.834440 0.000000 0.000000 
#    y 0.000000 1.834440 0.000000 
#    z 0.000000 0.000000 1.804390 
# 
# From -- ./inp_files/5228.got.cif
#   From: 2010.03.12/outbox.cif.g09.slc.cpg/sg86_3_cif.got.tgz:5228.got - 2010.04.08 20:12:58.
