data_PCOD8303368
_publ_section_title
;
Structure prediction by ZEFSAII (Michael W. Deem and Ramdas Pophale) SiO2 
 PCOD8303368
Probable space group: P 42/M
;
_chemical_formula_sum "Si O2"
_cell_formula_units_Z 56
_cell_length_a 18.781508
_cell_length_b 18.781508
_cell_length_c 8.987262
_cell_angle_alpha 90.000000
_cell_angle_beta 90.000000
_cell_angle_gamma 90.000000
_cell_volume 3170.212118
_symmetry_space_group_name_H-M "P 42/M"
_symmetry_group_IT_number 84
_symmetry_cell_setting 'tetragonal'
loop_
_space_group_symop_operation_xyz
x,y,z
-y,x,1/2+z
-x,-y,z
y,-x,1/2+z
-x,-y,-z
y,-x,1/2-z
x,y,-z
-y,x,1/2-z
loop_
_atom_site_type_symbol
_atom_site_label
_atom_site_fract_x
_atom_site_fract_y
_atom_site_fract_z
Si Si1 0.544991 0.935145 0.324977
Si Si2 0.396005 0.268215 0.835395
Si Si3 0.677337 0.250673 0.322553
Si Si4 0.915326 0.064856 0.820585
Si Si5 0.114053 0.672880 0.336606
Si Si6 0.177304 0.819231 0.677069
Si Si7 0.212513 0.477564 0.824858
O O1 0.549477 0.941231 0.500000
O O2 0.626590 0.937793 0.268017
O O3 0.503908 0.864637 0.273313
O O4 0.500000 0.000000 0.256545
O O5 0.332060 0.314754 0.762999
O O6 0.366096 0.189055 0.844050
O O7 0.468035 0.271886 0.738295
O O8 0.415650 0.295932 0.000000
O O9 0.680466 0.254069 0.500000
O O10 0.741957 0.199294 0.270689
O O11 0.602210 0.221831 0.261320
O O12 0.848391 0.112758 0.770748
O O13 0.986354 0.097534 0.746304
O O14 0.921736 0.061653 0.000000
O O15 0.079266 0.675274 0.500000
O O16 0.125559 0.753290 0.278604
O O17 0.173940 0.833958 0.500000
O O18 0.221211 0.477236 0.000000
#
# Coordination Sequence:
#
# PCOD8303368 Si02
#       7
#     8   8   8   8   8   8   8
#     4   9  17  28  41  62  96 127 155 195 235 283
#     4   8  14  27  46  66  88 120 159 195 232 278
#     4   8  15  29  50  71  95 129 165 198 238 293
#     4  11  22  38  58  77  99 129 164 203 246 297
#     4   8  15  28  47  66  88 122 159 193 231 280
#     4   9  17  33  53  74  99 125 161 206 245 289
#     4   9  16  28  46  67  91 123 159 194 237 288
#
# _framework density 17.664432000000001
#
# number of rings (size 3 to 8) (size 9 to 14) (size 15 to 20)
#    0.000    3.143    0.000    3.429    0.000    0.857 
#    2.571    3.571    0.000    0.429    0.000    3.000 
#    0.000    0.000    0.000    0.000    0.000    0.000 
#
# Total GULP energy -693925.660726 kJ/mol
# GULP energy per Si atom -12391.529656 kJ/mol
# Density = 1.762423 g / cm^3
# Si number density = 17.664432 Si / 1000 Ang^3
#
#
#
# Elastic Constant Matrix: (Units=GPa)
#
#
# Indices 1 2 3 4 5 6 
#
# 1 84.1199 40.5411 29.4547 0.0000 0.0000 4.9983
# 2 40.5411 84.1199 29.4547 0.0000 0.0000 -4.9983
# 3 29.4547 29.4547 44.1324 0.0000 0.0000 0.0000
# 4 0.0000 0.0000 0.0000 22.8010 0.0000 0.0000
# 5 0.0000 0.0000 0.0000 0.0000 22.8010 0.0000
# 6 4.9983 -4.9983 0.0000 0.0000 0.0000 21.6988
#
#
#
# Elastic Compliance Matrix: (Units=1/GPa)
#
#
# Indices 1 2 3 4 5 6 
#
# 1 0.017972 -0.006255 -0.007820 0.000000 0.000000 -0.005581
# 2 -0.006255 0.017972 -0.007820 0.000000 0.000000 0.005581
# 3 -0.007820 -0.007820 0.033098 0.000000 0.000000 0.000000
# 4 0.000000 0.000000 0.000000 0.043858 0.000000 0.000000
# 5 0.000000 0.000000 0.000000 0.000000 0.043858 0.000000
# 6 -0.005581 0.005581 0.000000 0.000000 0.000000 0.048657
#
#
# Mechanical properties :
#
#
# Convention : Reuss Voigt Hill
#
# Bulk Modulus (GPa) = 39.60203 45.69702 42.64952
# Shear Modulus (GPa) = 19.40823 20.98826 20.19825
#
# Velocity S-wave (km/s) = 3.31829 3.45072 3.38515
# Velocity P-wave (km/s) = 6.09501 6.46547 6.28297
#
# Compressibility (1/GPa) = 0.02525123
#
# Stress axis : x y z
#
# Youngs Moduli (GPa) = 55.64144 55.64144 30.21342
#
# Poissons Ratio (x) = 0.34803 0.23628
# Poissons Ratio (y) = 0.34803 0.23628
# Poissons Ratio (z) = 0.43513 0.43513
#
# Static dielectric constant tensor:
#      x y z
#    x 3.407810 0.000000 0.000000 
#    y 0.000000 3.407810 0.000000 
#    z 0.000000 0.000000 3.159980 
# 
# 
# High freq. dielectric constant tensor:
#      x y z
#    x 1.671210 0.000000 0.000000 
#    y 0.000000 1.671210 0.000000 
#    z 0.000000 0.000000 1.661230 
# 
# From -- ./inp_files/1311.got.cif
#   From: 2010.03.12/outbox.cif.g09.slc.cpg/sg84_1_cif.got.tgz:1311.got - 2010.04.08 20:07:29.
