data_PCOD8303916
_publ_section_title
;
Structure prediction by ZEFSAII (Michael W. Deem and Ramdas Pophale) SiO2 
 PCOD8303916
Probable space group: I 4/M
;
_chemical_formula_sum "Si O2"
_cell_formula_units_Z 48
_cell_length_a 10.811084
_cell_length_b 10.811084
_cell_length_c 20.502171
_cell_angle_alpha 90.000000
_cell_angle_beta 90.000000
_cell_angle_gamma 90.000000
_cell_volume 2396.284259
_symmetry_space_group_name_H-M "I 4/M"
_symmetry_group_IT_number 87
_symmetry_cell_setting 'tetragonal'
loop_
_space_group_symop_operation_xyz
x,y,z
-y,x,z
-x,-y,z
y,-x,z
-x,-y,-z
y,-x,-z
x,y,-z
-y,x,-z
1/2+x,1/2+y,1/2+z
1/2-y,1/2+x,1/2+z
1/2-x,1/2-y,1/2+z
1/2+y,1/2-x,1/2+z
1/2-x,1/2-y,1/2-z
1/2+y,1/2-x,1/2-z
1/2+x,1/2+y,1/2-z
1/2-y,1/2+x,1/2-z
loop_
_atom_site_type_symbol
_atom_site_label
_atom_site_fract_x
_atom_site_fract_y
_atom_site_fract_z
Si Si1 0.521247 0.858792 0.577116
Si Si2 0.805765 0.210055 0.143354
Si Si3 0.337948 0.604398 0.775966
O O1 0.517297 0.862334 0.500000
O O2 0.418814 0.758354 0.599692
O O3 0.655378 0.805506 0.598994
O O4 0.500000 0.000000 0.603726
O O5 0.772242 0.327931 0.187734
O O6 0.834270 0.104074 0.196817
O O7 0.331015 0.463953 0.799448
#
# Coordination Sequence:
#
# PCOD8303916 Si02
#       3
#    16  16  16
#     4  11  24  41  61  87 121 162 209 250 297 364
#     4  11  21  38  58  88 118 160 198 247 307 355
#     4  10  20  36  57  85 120 152 196 252 297 364
#
# _framework density 20.031013999999999
#
# number of rings (size 3 to 8) (size 9 to 14) (size 15 to 20)
#    0.000    1.333    3.333    3.000    0.000    0.667 
#    0.000    1.667    0.000    0.000    0.000   14.000 
#    0.000    0.000    0.000    0.000    0.000    0.000 
#
# Total GULP energy -297392.049437 kJ/mol
# GULP energy per Si atom -12391.335393 kJ/mol
# Density = 1.998542 g / cm^3
# Si number density = 20.031014 Si / 1000 Ang^3
#
#
#
# Elastic Constant Matrix: (Units=GPa)
#
#
# Indices 1 2 3 4 5 6 
#
# 1 44.3603 26.5156 18.3904 0.0000 0.0000 4.1099
# 2 26.5156 44.3603 18.3904 0.0000 0.0000 -4.1099
# 3 18.3904 18.3904 75.9944 0.0000 0.0000 0.0000
# 4 0.0000 0.0000 0.0000 25.0246 0.0000 0.0000
# 5 0.0000 0.0000 0.0000 0.0000 25.0246 0.0000
# 6 4.1099 -4.1099 0.0000 0.0000 0.0000 32.8182
#
#
#
# Elastic Compliance Matrix: (Units=1/GPa)
#
#
# Indices 1 2 3 4 5 6 
#
# 1 0.037803 -0.021667 -0.003905 0.000000 0.000000 -0.007448
# 2 -0.021667 0.037803 -0.003905 0.000000 0.000000 0.007448
# 3 -0.003905 -0.003905 0.015049 0.000000 0.000000 0.000000
# 4 0.000000 0.000000 0.000000 0.039961 0.000000 0.000000
# 5 0.000000 0.000000 0.000000 0.000000 0.039961 0.000000
# 6 -0.007448 0.007448 0.000000 0.000000 0.000000 0.032336
#
#
# Mechanical properties :
#
#
# Convention : Reuss Voigt Hill
#
# Bulk Modulus (GPa) = 31.54494 32.36752 31.95623
# Shear Modulus (GPa) = 18.35323 23.33470 20.84397
#
# Velocity S-wave (km/s) = 3.03023 3.41681 3.22931
# Velocity P-wave (km/s) = 5.29389 5.63559 5.46741
#
# Compressibility (1/GPa) = 0.03170081
#
# Stress axis : x y z
#
# Youngs Moduli (GPa) = 26.45322 26.45322 66.45074
#
# Poissons Ratio (x) = 0.57316 0.25947
# Poissons Ratio (y) = 0.57316 0.25947
# Poissons Ratio (z) = 0.10329 0.10329
#
# Static dielectric constant tensor:
#      x y z
#    x 3.630710 0.000000 0.000000 
#    y 0.000000 3.630710 0.000000 
#    z 0.000000 0.000000 3.495980 
# 
# 
# High freq. dielectric constant tensor:
#      x y z
#    x 1.784370 0.000000 0.000000 
#    y 0.000000 1.784370 0.000000 
#    z 0.000000 0.000000 1.773230 
# 
# From -- ./inp_files/4065.got.cif
#   From: 2010.03.12/outbox.cif.g09.slc.cpg/sg87_3_cif.got.tgz:4065.got - 2010.04.08 20:16:13.
