data_PCOD8303519
_publ_section_title
;
Structure prediction by ZEFSAII (Michael W. Deem and Ramdas Pophale) SiO2 
 PCOD8303519
Probable space group: P 42/N
;
_chemical_formula_sum "Si O2"
_cell_formula_units_Z 56
_cell_length_a 12.099655
_cell_length_b 12.099655
_cell_length_c 19.184706
_cell_angle_alpha 90.000000
_cell_angle_beta 90.000000
_cell_angle_gamma 90.000000
_cell_volume 2808.672635
_symmetry_space_group_name_H-M "P 42/N"
_symmetry_group_IT_number 86
_space_group.IT_coordinate_system_code '2'
_symmetry_cell_setting 'tetragonal'
loop_
_space_group_symop_operation_xyz
x,y,z
-y,1/2+x,1/2+z
1/2-x,1/2-y,z
1/2+y,-x,1/2+z
-x,-y,-z
y,1/2-x,1/2-z
1/2+x,1/2+y,-z
1/2-y,x,1/2-z
loop_
_atom_site_type_symbol
_atom_site_label
_atom_site_fract_x
_atom_site_fract_y
_atom_site_fract_z
Si Si1 0.310134 0.423005 0.896449
Si Si2 0.090249 0.526220 0.443793
Si Si3 0.879956 0.240788 0.941644
Si Si4 0.868759 0.711272 0.554215
Si Si5 0.429015 0.988892 0.069147
Si Si6 0.086865 0.450164 0.820588
Si Si7 0.018928 0.203729 0.816470
O O1 0.379765 0.539378 0.892840
O O2 0.183664 0.439836 0.877374
O O3 0.361776 0.335232 0.843573
O O4 0.315578 0.368777 0.972620
O O5 0.197158 0.575105 0.484080
O O6 0.112540 0.407173 0.406157
O O7 0.000000 0.500000 0.500000
O O8 0.750000 0.250000 0.944292
O O9 0.926217 0.358937 0.924521
O O10 0.926265 0.171656 0.874978
O O11 0.750000 0.750000 0.579974
O O12 0.958710 0.806629 0.569455
O O13 0.495243 0.026202 0.139336
O O14 0.500000 0.000000 0.000000
O O15 0.033391 0.332808 0.797712
O O16 0.134752 0.512898 0.752908
#
# Coordination Sequence:
#
# PCOD8303519 Si02
#       7
#     8   8   8   8   8   8   8
#     4  11  20  33  58  90 123 154 197 246 304 369
#     4  10  20  34  55  89 113 157 194 245 299 358
#     4  11  22  37  59  88 122 160 200 249 315 365
#     4  11  20  37  61  86 117 155 205 249 304 370
#     4  11  23  35  58  88 123 157 194 256 308 363
#     4  11  22  35  57  92 126 157 196 252 316 360
#     4  11  21  35  59  88 125 161 199 247 306 376
#
# _framework density 19.938241999999999
#
# number of rings (size 3 to 8) (size 9 to 14) (size 15 to 20)
#    0.000    1.143    5.714    3.857    0.000    0.000 
#    0.000    0.000    6.286    0.000    0.000    0.000 
#    0.000    0.000    0.000    0.000    0.000    0.000 
#
# Total GULP energy -693803.573819 kJ/mol
# GULP energy per Si atom -12389.349532 kJ/mol
# Density = 1.989286 g / cm^3
# Si number density = 19.938242 Si / 1000 Ang^3
#
#
#
# Elastic Constant Matrix: (Units=GPa)
#
#
# Indices 1 2 3 4 5 6 
#
# 1 92.7485 21.3767 21.0794 0.0000 0.0000 -2.7086
# 2 21.3767 92.7485 21.0794 0.0000 0.0000 2.7086
# 3 21.0794 21.0794 69.8222 0.0000 0.0000 0.0000
# 4 0.0000 0.0000 0.0000 29.2403 0.0000 0.0000
# 5 0.0000 0.0000 0.0000 0.0000 29.2403 0.0000
# 6 -2.7086 2.7086 0.0000 0.0000 0.0000 27.7252
#
#
#
# Elastic Compliance Matrix: (Units=1/GPa)
#
#
# Indices 1 2 3 4 5 6 
#
# 1 0.011989 -0.002127 -0.002977 0.000000 0.000000 0.001379
# 2 -0.002127 0.011989 -0.002977 0.000000 0.000000 -0.001379
# 3 -0.002977 -0.002977 0.016120 0.000000 0.000000 0.000000
# 4 0.000000 0.000000 0.000000 0.034199 0.000000 0.000000
# 5 0.000000 0.000000 0.000000 0.000000 0.034199 0.000000
# 6 0.001379 -0.001379 0.000000 0.000000 0.000000 0.036338
#
#
# Mechanical properties :
#
#
# Convention : Reuss Voigt Hill
#
# Bulk Modulus (GPa) = 41.78052 42.48782 42.13417
# Shear Modulus (GPa) = 29.59003 30.02673 29.80838
#
# Velocity S-wave (km/s) = 3.85656 3.88491 3.87076
# Velocity P-wave (km/s) = 6.38993 6.44045 6.41524
#
# Compressibility (1/GPa) = 0.02393460
#
# Stress axis : x y z
#
# Youngs Moduli (GPa) = 83.40983 83.40983 62.03531
#
# Poissons Ratio (x) = 0.17740 0.18470
# Poissons Ratio (y) = 0.17740 0.18470
# Poissons Ratio (z) = 0.24834 0.24834
#
# Static dielectric constant tensor:
#      x y z
#    x 3.703620 0.000000 0.000000 
#    y 0.000000 3.703620 0.000000 
#    z 0.000000 0.000000 3.455500 
# 
# 
# High freq. dielectric constant tensor:
#      x y z
#    x 1.777370 0.000000 0.000000 
#    y 0.000000 1.777370 0.000000 
#    z 0.000000 0.000000 1.743430 
# 
# From -- ./inp_files/4657.got.cif
#   From: 2010.03.12/outbox.cif.g09.slc.cpg/sg86_3_cif.got.tgz:4657.got - 2010.04.08 20:12:58.
