data_PCOD8303491
_publ_section_title
;
Structure prediction by ZEFSAII (Michael W. Deem and Ramdas Pophale) SiO2 
 PCOD8303491
Probable space group: P 42/N
;
_chemical_formula_sum "Si O2"
_cell_formula_units_Z 42
_cell_length_a 11.225058
_cell_length_b 11.225058
_cell_length_c 20.031641
_cell_angle_alpha 90.000000
_cell_angle_beta 90.000000
_cell_angle_gamma 90.000000
_cell_volume 2524.025369
_symmetry_space_group_name_H-M "P 42/N"
_symmetry_group_IT_number 86
_space_group.IT_coordinate_system_code '2'
_symmetry_cell_setting 'tetragonal'
loop_
_space_group_symop_operation_xyz
x,y,z
-y,1/2+x,1/2+z
1/2-x,1/2-y,z
1/2+y,-x,1/2+z
-x,-y,-z
y,1/2-x,1/2-z
1/2+x,1/2+y,-z
1/2-y,x,1/2-z
loop_
_atom_site_type_symbol
_atom_site_label
_atom_site_fract_x
_atom_site_fract_y
_atom_site_fract_z
Si Si1 0.750000 0.750000 0.750000
Si Si2 0.027992 0.466325 0.925124
Si Si3 0.797731 0.126170 0.352372
Si Si4 0.737025 0.887559 0.152305
Si Si5 0.398048 0.028160 0.719235
Si Si6 0.399885 0.045181 0.195498
O O1 0.853365 0.800850 0.702425
O O2 0.170238 0.453111 0.909942
O O3 0.962932 0.338688 0.911530
O O4 0.971954 0.565090 0.874421
O O5 0.000000 0.500000 0.000000
O O6 0.750000 0.250000 0.382850
O O7 0.912210 0.157283 0.305590
O O8 0.698177 0.062370 0.308654
O O9 0.750000 0.750000 0.134754
O O10 0.869863 0.938516 0.165908
O O11 0.650338 0.900619 0.216144
O O12 0.511708 0.949807 0.740784
#
# Coordination Sequence:
#
# PCOD8303491 Si02
#       6
#     2   8   8   8   8   8
#     4  12  20  40  44  72 108 144 196 182 272 328
#     4   9  20  35  49  74 105 140 172 202 266 308
#     4  10  19  31  52  79 105 136 165 214 270 305
#     4  11  14  27  56  85 102 122 159 235 268 306
#     4  11  15  30  54  87 106 115 172 227 291 290
#     4   9  21  31  56  72 105 142 161 226 245 328
#
# _framework density 16.640084999999999
#
# number of rings (size 3 to 8) (size 9 to 14) (size 15 to 20)
#    1.143    0.762    5.714    1.143    0.000    0.000 
#    1.714    0.000    4.190    1.143    0.000    0.000 
#    0.000    0.000    0.000    0.000    0.000    0.000 
#
# Total GULP energy -520303.190396 kJ/mol
# GULP energy per Si atom -12388.171200 kJ/mol
# Density = 1.660221 g / cm^3
# Si number density = 16.640085 Si / 1000 Ang^3
#
#
#
# Elastic Constant Matrix: (Units=GPa)
#
#
# Indices 1 2 3 4 5 6 
#
# 1 78.3546 43.2891 35.3025 0.0000 0.0000 4.7418
# 2 43.2891 78.3546 35.3025 0.0000 0.0000 -4.7418
# 3 35.3025 35.3025 86.5345 0.0000 0.0000 0.0000
# 4 0.0000 0.0000 0.0000 15.8104 0.0000 0.0000
# 5 0.0000 0.0000 0.0000 0.0000 15.8104 0.0000
# 6 4.7418 -4.7418 0.0000 0.0000 0.0000 36.7089
#
#
#
# Elastic Compliance Matrix: (Units=1/GPa)
#
#
# Indices 1 2 3 4 5 6 
#
# 1 0.020161 -0.009390 -0.004394 0.000000 0.000000 -0.003817
# 2 -0.009390 0.020161 -0.004394 0.000000 0.000000 0.003817
# 3 -0.004394 -0.004394 0.015141 0.000000 0.000000 0.000000
# 4 0.000000 0.000000 0.000000 0.063249 0.000000 0.000000
# 5 0.000000 0.000000 0.000000 0.000000 0.063249 0.000000
# 6 -0.003817 0.003817 0.000000 0.000000 0.000000 0.028228
#
#
# Mechanical properties :
#
#
# Convention : Reuss Voigt Hill
#
# Bulk Modulus (GPa) = 52.33682 52.33687 52.33685
# Shear Modulus (GPa) = 19.76952 22.28924 21.02938
#
# Velocity S-wave (km/s) = 3.45057 3.66388 3.55882
# Velocity P-wave (km/s) = 6.88446 7.02988 6.95755
#
# Compressibility (1/GPa) = 0.01910701
#
# Stress axis : x y z
#
# Youngs Moduli (GPa) = 49.60110 49.60110 66.04405
#
# Poissons Ratio (x) = 0.46573 0.29021
# Poissons Ratio (y) = 0.46573 0.29021
# Poissons Ratio (z) = 0.21796 0.21796
#
# Static dielectric constant tensor:
#      x y z
#    x 3.129970 0.000000 0.000000 
#    y 0.000000 3.129970 0.000000 
#    z 0.000000 0.000000 2.720050 
# 
# 
# High freq. dielectric constant tensor:
#      x y z
#    x 1.637240 0.000000 0.000000 
#    y 0.000000 1.637240 0.000000 
#    z 0.000000 0.000000 1.593090 
# 
# From -- ./inp_files/4084.got.cif
#   From: 2010.03.12/outbox.cif.g09.slc.cpg/sg86_3_cif.got.tgz:4084.got - 2010.04.08 20:12:58.
