data_PCOD8303828
_publ_section_title
;
Structure prediction by ZEFSAII (Michael W. Deem and Ramdas Pophale) SiO2 
 PCOD8303828
Probable space group: I 4/M
;
_chemical_formula_sum "Si O2"
_cell_formula_units_Z 88
_cell_length_a 12.588072
_cell_length_b 12.588072
_cell_length_c 28.584374
_cell_angle_alpha 90.000000
_cell_angle_beta 90.000000
_cell_angle_gamma 90.000000
_cell_volume 4529.467232
_symmetry_space_group_name_H-M "I 4/M"
_symmetry_group_IT_number 87
_symmetry_cell_setting 'tetragonal'
loop_
_space_group_symop_operation_xyz
x,y,z
-y,x,z
-x,-y,z
y,-x,z
-x,-y,-z
y,-x,-z
x,y,-z
-y,x,-z
1/2+x,1/2+y,1/2+z
1/2-y,1/2+x,1/2+z
1/2-x,1/2-y,1/2+z
1/2+y,1/2-x,1/2+z
1/2-x,1/2-y,1/2-z
1/2+y,1/2-x,1/2-z
1/2+x,1/2+y,1/2-z
1/2-y,1/2+x,1/2-z
loop_
_atom_site_type_symbol
_atom_site_label
_atom_site_fract_x
_atom_site_fract_y
_atom_site_fract_z
Si Si1 0.489388 0.872687 0.949571
Si Si2 0.382673 0.631429 0.754138
Si Si3 0.777457 0.735939 0.177990
Si Si4 0.403257 0.646075 0.500000
Si Si5 0.053446 0.387840 0.866825
Si Si6 0.288493 0.144063 0.912235
O O1 0.406060 0.856158 0.907625
O O2 0.601771 0.819512 0.936666
O O3 0.500000 0.000000 0.952598
O O4 0.449946 0.828073 0.000000
O O5 0.351615 0.508329 0.753453
O O6 0.331181 0.680515 0.800810
O O7 0.337835 0.694243 0.709339
O O8 0.882798 0.661658 0.176540
O O9 0.747446 0.770231 0.125741
O O10 0.353595 0.529934 0.500000
O O11 0.363977 0.701525 0.452729
O O12 0.000000 0.500000 0.851476
O O13 0.967178 0.303939 0.885146
#
# Coordination Sequence:
#
# PCOD8303828 Si02
#       6
#    16  16  16   8  16  16
#     4   8  15  30  51  78 113 153 184 232 275 320
#     4  10  24  43  63  85 117 152 191 241 308 373
#     4  11  22  39  64  89 115 152 197 248 300 354
#     4  11  22  32  47  80 124 163 195 232 282 346
#     4   9  20  33  58  87 117 154 197 247 292 340
#     4  10  19  34  55  80 119 153 198 233 284 351
#
# _framework density 19.428334
#
# number of rings (size 3 to 8) (size 9 to 14) (size 15 to 20)
#    0.000    2.636    0.909    2.182    6.364    0.000 
#    1.636    1.818    0.000    0.000    0.000    0.000 
#    0.000    2.909    0.000    0.000    0.000    0.000 
#
# Total GULP energy -545312.284951 kJ/mol
# GULP energy per Si atom -12393.461022 kJ/mol
# Density = 1.938411 g / cm^3
# Si number density = 19.428334 Si / 1000 Ang^3
#
#
#
# Elastic Constant Matrix: (Units=GPa)
#
#
# Indices 1 2 3 4 5 6 
#
# 1 58.0470 23.8359 28.4147 0.0000 0.0000 -0.4052
# 2 23.8359 58.0470 28.4147 0.0000 0.0000 0.4052
# 3 28.4147 28.4147 83.1798 0.0000 0.0000 0.0000
# 4 0.0000 0.0000 0.0000 22.6603 0.0000 0.0000
# 5 0.0000 0.0000 0.0000 0.0000 22.6603 0.0000
# 6 -0.4052 0.4052 0.0000 0.0000 0.0000 25.1082
#
#
#
# Elastic Compliance Matrix: (Units=1/GPa)
#
#
# Indices 1 2 3 4 5 6 
#
# 1 0.022625 -0.006617 -0.005468 0.000000 0.000000 0.000472
# 2 -0.006617 0.022625 -0.005468 0.000000 0.000000 -0.000472
# 3 -0.005468 -0.005468 0.015758 0.000000 0.000000 0.000000
# 4 0.000000 0.000000 0.000000 0.044130 0.000000 0.000000
# 5 0.000000 0.000000 0.000000 0.000000 0.044130 0.000000
# 6 0.000472 -0.000472 0.000000 0.000000 0.000000 0.039843
#
#
# Mechanical properties :
#
#
# Convention : Reuss Voigt Hill
#
# Bulk Modulus (GPa) = 38.60951 40.06714 39.33833
# Shear Modulus (GPa) = 21.47298 21.99300 21.73299
#
# Velocity S-wave (km/s) = 3.32812 3.36818 3.34821
# Velocity P-wave (km/s) = 5.88935 5.98281 5.93626
#
# Compressibility (1/GPa) = 0.02590035
#
# Stress axis : x y z
#
# Youngs Moduli (GPa) = 44.19967 44.19966 63.45917
#
# Poissons Ratio (x) = 0.29246 0.34702
# Poissons Ratio (y) = 0.29246 0.34702
# Poissons Ratio (z) = 0.24170 0.24170
#
# Static dielectric constant tensor:
#      x y z
#    x 3.379160 0.000000 0.000000 
#    y 0.000000 3.379160 0.000000 
#    z 0.000000 0.000000 3.859310 
# 
# 
# High freq. dielectric constant tensor:
#      x y z
#    x 1.741770 0.000000 0.000000 
#    y 0.000000 1.741770 0.000000 
#    z 0.000000 0.000000 1.764330 
# 
# From -- ./inp_files/6573.got.cif
#   From: 2010.03.12/outbox.cif.g09.slc.cpg/sg87_4_cif.got.tgz:6573.got - 2010.04.08 20:16:13.
