data_PCOD8303354
_publ_section_title
;
Structure prediction by ZEFSAII (Michael W. Deem and Ramdas Pophale) SiO2 
 PCOD8303354
Probable space group: P 42/M
;
_chemical_formula_sum "Si O2"
_cell_formula_units_Z 40
_cell_length_a 11.546478
_cell_length_b 11.546478
_cell_length_c 14.119322
_cell_angle_alpha 90.000000
_cell_angle_beta 90.000000
_cell_angle_gamma 90.000000
_cell_volume 1882.404306
_symmetry_space_group_name_H-M "P 42/M"
_symmetry_group_IT_number 84
_symmetry_cell_setting 'tetragonal'
loop_
_space_group_symop_operation_xyz
x,y,z
-y,x,1/2+z
-x,-y,z
y,-x,1/2+z
-x,-y,-z
y,-x,1/2-z
x,y,-z
-y,x,1/2-z
loop_
_atom_site_type_symbol
_atom_site_label
_atom_site_fract_x
_atom_site_fract_y
_atom_site_fract_z
Si Si1 0.427910 0.616319 0.393996
Si Si2 0.823074 0.039616 0.232747
Si Si3 0.506802 0.243278 0.783180
Si Si4 0.257827 0.771261 0.106461
Si Si5 0.937556 0.392136 0.826450
O O1 0.500000 0.500000 0.398086
O O2 0.418170 0.670633 0.500000
O O3 0.302115 0.584832 0.353558
O O4 0.493269 0.701514 0.322380
O O5 0.798861 0.105468 0.134158
O O6 0.914643 0.120511 0.290603
O O7 0.705558 0.029997 0.294326
O O8 0.635196 0.251404 0.824577
O O9 0.455352 0.115075 0.767634
O O10 0.162776 0.669168 0.112637
O O11 0.304565 0.777452 0.000000
O O12 0.000000 0.500000 0.882366
#
# Coordination Sequence:
#
# PCOD8303354 Si02
#       5
#     8   8   8   8   8
#     4  11  21  36  59  88 125 172 214 245 300 389
#     4   9  20  42  68  88 120 170 219 272 331 383
#     4  12  20  38  60  91 131 168 208 262 322 376
#     4  11  23  40  67  97 131 170 217 271 331 395
#     4  11  22  39  66  92 126 170 210 270 334 387
#
# _framework density 21.249420000000001
#
# number of rings (size 3 to 8) (size 9 to 14) (size 15 to 20)
#    0.000    1.200    6.000    0.600    0.000    2.800 
#    0.000   11.000    0.000    0.000    0.000    0.000 
#    0.000    0.000    0.000    0.000    0.000    0.000 
#
# Total GULP energy -495719.509675 kJ/mol
# GULP energy per Si atom -12392.987742 kJ/mol
# Density = 2.120106 g / cm^3
# Si number density = 21.249420 Si / 1000 Ang^3
#
#
#
# Elastic Constant Matrix: (Units=GPa)
#
#
# Indices 1 2 3 4 5 6 
#
# 1 98.9054 27.6321 31.9072 0.0000 0.0000 3.4873
# 2 27.6321 98.9054 31.9072 0.0000 0.0000 -3.4873
# 3 31.9072 31.9072 131.5798 0.0000 0.0000 0.0000
# 4 0.0000 0.0000 0.0000 19.0150 0.0000 0.0000
# 5 0.0000 0.0000 0.0000 0.0000 19.0150 0.0000
# 6 3.4873 -3.4873 0.0000 0.0000 0.0000 39.7069
#
#
#
# Elastic Compliance Matrix: (Units=1/GPa)
#
#
# Indices 1 2 3 4 5 6 
#
# 1 0.011578 -0.002574 -0.002183 0.000000 0.000000 -0.001243
# 2 -0.002574 0.011578 -0.002183 0.000000 0.000000 0.001243
# 3 -0.002183 -0.002183 0.008659 0.000000 0.000000 0.000000
# 4 0.000000 0.000000 0.000000 0.052590 0.000000 0.000000
# 5 0.000000 0.000000 0.000000 0.000000 0.052590 0.000000
# 6 -0.001243 0.001243 0.000000 0.000000 0.000000 0.025403
#
#
# Mechanical properties :
#
#
# Convention : Reuss Voigt Hill
#
# Bulk Modulus (GPa) = 55.76272 56.92039 56.34156
# Shear Modulus (GPa) = 27.43373 31.41031 29.42202
#
# Velocity S-wave (km/s) = 3.59699 3.84887 3.72506
# Velocity P-wave (km/s) = 6.59925 6.82618 6.71367
#
# Compressibility (1/GPa) = 0.01793313
#
# Stress axis : x y z
#
# Youngs Moduli (GPa) = 86.37059 86.37059 115.48862
#
# Poissons Ratio (x) = 0.22233 0.25216
# Poissons Ratio (y) = 0.22233 0.25216
# Poissons Ratio (z) = 0.18858 0.18858
#
# Static dielectric constant tensor:
#      x y z
#    x 4.124060 0.000000 0.000000 
#    y 0.000000 4.124060 0.000000 
#    z 0.000000 0.000000 3.698230 
# 
# 
# High freq. dielectric constant tensor:
#      x y z
#    x 1.845590 0.000000 0.000000 
#    y 0.000000 1.845590 0.000000 
#    z 0.000000 0.000000 1.790190 
# 
# From -- ./inp_files/2878.got.cif
#   From: 2010.03.12/outbox.cif.g09.slc.cpg/sg84_2_cif.got.tgz:2878.got - 2010.04.08 20:07:29.
