data_PCOD8303483
_publ_section_title
;
Structure prediction by ZEFSAII (Michael W. Deem and Ramdas Pophale) SiO2 
 PCOD8303483
Probable space group: P 42/N
;
_chemical_formula_sum "Si O2"
_cell_formula_units_Z 64
_cell_length_a 11.251971
_cell_length_b 11.251971
_cell_length_c 25.070551
_cell_angle_alpha 90.000000
_cell_angle_beta 90.000000
_cell_angle_gamma 90.000000
_cell_volume 3174.103525
_symmetry_space_group_name_H-M "P 42/N"
_symmetry_group_IT_number 86
_space_group.IT_coordinate_system_code '2'
_symmetry_cell_setting 'tetragonal'
loop_
_space_group_symop_operation_xyz
x,y,z
-y,1/2+x,1/2+z
1/2-x,1/2-y,z
1/2+y,-x,1/2+z
-x,-y,-z
y,1/2-x,1/2-z
1/2+x,1/2+y,-z
1/2-y,x,1/2-z
loop_
_atom_site_type_symbol
_atom_site_label
_atom_site_fract_x
_atom_site_fract_y
_atom_site_fract_z
Si Si1 0.563728 0.298831 0.136411
Si Si2 0.563510 0.946022 0.243591
Si Si3 0.405062 0.342613 0.232037
Si Si4 0.106423 0.580038 0.479672
Si Si5 0.425959 0.702446 0.343415
Si Si6 0.559175 0.735315 0.447270
Si Si7 0.390056 0.266644 0.830263
Si Si8 0.560644 0.751381 0.052851
O O1 0.444649 0.307418 0.172010
O O2 0.536786 0.355400 0.078964
O O3 0.606560 0.163045 0.129456
O O4 0.670079 0.366619 0.166887
O O5 0.604035 0.919188 0.304704
O O6 0.559220 0.822485 0.213251
O O7 0.433427 0.002361 0.242317
O O8 0.655613 0.033121 0.213780
O O9 0.401656 0.225908 0.269816
O O10 0.217822 0.559042 0.519929
O O11 0.000000 0.500000 0.500000
O O12 0.063175 0.719639 0.476635
O O13 0.536487 0.717180 0.384087
O O14 0.651642 0.840474 0.456409
O O15 0.620361 0.612694 0.467806
O O16 0.250000 0.250000 0.840768
O O17 0.465796 0.247384 0.884091
#
# Coordination Sequence:
#
# PCOD8303483 Si02
#       8
#     8   8   8   8   8   8   8   8
#     4  10  21  39  63  85 116 157 216 258 301 374
#     4  12  21  35  59  93 124 157 200 246 324 392
#     4  11  25  43  59  79 119 172 215 254 293 361
#     4   9  20  34  58  86 111 156 211 250 309 366
#     4  10  19  36  62  92 115 156 197 254 318 381
#     4   9  17  32  55  82 119 151 194 249 305 375
#     4  12  21  32  60  99 131 153 189 262 340 386
#     4  10  18  32  54  86 126 155 192 254 316 370
#
# _framework density 20.163174000000001
#
# number of rings (size 3 to 8) (size 9 to 14) (size 15 to 20)
#    0.000    1.625    5.000    0.750    5.250    0.000 
#    0.000    5.625    0.000    4.500    0.000    0.000 
#    0.000    0.000    0.000    0.000    0.000    0.000 
#
# Total GULP energy -793101.317809 kJ/mol
# GULP energy per Si atom -12392.208091 kJ/mol
# Density = 2.011728 g / cm^3
# Si number density = 20.163174 Si / 1000 Ang^3
#
#
#
# Elastic Constant Matrix: (Units=GPa)
#
#
# Indices 1 2 3 4 5 6 
#
# 1 83.9793 38.5856 46.5715 0.0000 0.0000 -8.1931
# 2 38.5856 83.9793 46.5715 0.0000 0.0000 8.1931
# 3 46.5715 46.5715 115.5287 0.0000 0.0000 0.0000
# 4 0.0000 0.0000 0.0000 18.7677 0.0000 0.0000
# 5 0.0000 0.0000 0.0000 0.0000 18.7677 0.0000
# 6 -8.1931 8.1931 0.0000 0.0000 0.0000 34.1055
#
#
#
# Elastic Compliance Matrix: (Units=1/GPa)
#
#
# Indices 1 2 3 4 5 6 
#
# 1 0.017942 -0.006179 -0.004742 0.000000 0.000000 0.005795
# 2 -0.006179 0.017942 -0.004742 0.000000 0.000000 -0.005795
# 3 -0.004742 -0.004742 0.012479 0.000000 0.000000 0.000000
# 4 0.000000 0.000000 0.000000 0.053283 0.000000 0.000000
# 5 0.000000 0.000000 0.000000 0.000000 0.053283 0.000000
# 6 0.005795 -0.005795 0.000000 0.000000 0.000000 0.032105
#
#
# Mechanical properties :
#
#
# Convention : Reuss Voigt Hill
#
# Bulk Modulus (GPa) = 58.69589 60.77160 59.73374
# Shear Modulus (GPa) = 22.31772 24.44543 23.38158
#
# Velocity S-wave (km/s) = 3.33055 3.48570 3.40901
# Velocity P-wave (km/s) = 6.63052 6.81216 6.72195
#
# Compressibility (1/GPa) = 0.01703697
#
# Stress axis : x y z
#
# Youngs Moduli (GPa) = 55.73594 55.73594 80.13675
#
# Poissons Ratio (x) = 0.34442 0.37997
# Poissons Ratio (y) = 0.34442 0.37997
# Poissons Ratio (z) = 0.26428 0.26428
#
# Static dielectric constant tensor:
#      x y z
#    x 3.977220 0.000000 0.000000 
#    y 0.000000 3.977220 0.000000 
#    z 0.000000 0.000000 3.634140 
# 
# 
# High freq. dielectric constant tensor:
#      x y z
#    x 1.780560 0.000000 0.000000 
#    y 0.000000 1.780560 0.000000 
#    z 0.000000 0.000000 1.770140 
# 
# From -- ./inp_files/4701.got.cif
#   From: 2010.03.12/outbox.cif.g09.slc.cpg/sg86_3_cif.got.tgz:4701.got - 2010.04.08 20:12:58.
