data_PCOD8303456
_publ_section_title
;
Structure prediction by ZEFSAII (Michael W. Deem and Ramdas Pophale) SiO2 
 PCOD8303456
Probable space group: P 4/N
;
_chemical_formula_sum "Si O2"
_cell_formula_units_Z 42
_cell_length_a 9.100622
_cell_length_b 9.100622
_cell_length_c 26.400106
_cell_angle_alpha 90.000000
_cell_angle_beta 90.000000
_cell_angle_gamma 90.000000
_cell_volume 2186.491648
_symmetry_space_group_name_H-M "P 4/N"
_symmetry_group_IT_number 85
_symmetry_cell_setting 'tetragonal'
loop_
_space_group_symop_operation_xyz
x,y,z
1/2-y,x,z
1/2-x,1/2-y,z
y,1/2-x,z
-x,-y,-z
1/2+y,-x,-z
1/2+x,1/2+y,-z
-y,1/2+x,-z
loop_
_atom_site_type_symbol
_atom_site_label
_atom_site_fract_x
_atom_site_fract_y
_atom_site_fract_z
Si Si1 0.027441 0.165099 0.682994
Si Si2 0.609255 0.557150 0.869232
Si Si3 0.588317 0.930286 0.045721
Si Si4 0.017441 0.190751 0.566666
Si Si5 0.250000 0.750000 0.500000
Si Si6 0.962123 0.640827 0.752942
O O1 0.167369 0.063674 0.695227
O O2 0.975413 0.161877 0.624906
O O3 0.901656 0.101714 0.718933
O O4 0.781054 0.549294 0.882400
O O5 0.508893 0.449416 0.901560
O O6 0.600005 0.506289 0.811091
O O7 0.545421 0.761052 0.042323
O O8 0.500000 0.000000 0.000000
O O9 0.145182 0.074391 0.554239
O O10 0.871017 0.165631 0.533945
O O11 0.943542 0.812022 0.740190
#
# Coordination Sequence:
#
# PCOD8303456 Si02
#       6
#     8   8   8   8   2   8
#     4   9  19  35  53  74 105 143 178 216 265 321
#     4   9  19  37  58  80 109 143 178 220 270 320
#     4  11  24  39  56  81 111 143 182 227 271 319
#     4   9  20  37  53  76 110 141 175 223 274 323
#     4  12  20  32  60  84 100 140 188 224 268 330
#     4   9  19  35  55  81 111 140 175 222 269 315
#
# _framework density 19.208853000000001
#
# number of rings (size 3 to 8) (size 9 to 14) (size 15 to 20)
#    0.000    2.476    0.000    4.000    0.000    9.524 
#    0.000    5.714    0.000    2.286    0.000    0.000 
#    0.000    0.000    0.000    0.000    0.000    0.000 
#
# Total GULP energy -520572.077166 kJ/mol
# GULP energy per Si atom -12394.573266 kJ/mol
# Density = 1.916513 g / cm^3
# Si number density = 19.208853 Si / 1000 Ang^3
#
#
#
# Elastic Constant Matrix: (Units=GPa)
#
#
# Indices 1 2 3 4 5 6 
#
# 1 79.8729 49.1198 56.4081 0.0000 0.0000 -0.8453
# 2 49.1198 79.8729 56.4081 0.0000 0.0000 0.8453
# 3 56.4081 56.4081 93.7108 0.0000 0.0000 0.0000
# 4 0.0000 0.0000 0.0000 37.8960 0.0000 0.0000
# 5 0.0000 0.0000 0.0000 0.0000 37.8960 0.0000
# 6 -0.8453 0.8453 0.0000 0.0000 0.0000 35.5883
#
#
#
# Elastic Compliance Matrix: (Units=1/GPa)
#
#
# Indices 1 2 3 4 5 6 
#
# 1 0.024465 -0.008094 -0.009854 0.000000 0.000000 0.000773
# 2 -0.008094 0.024465 -0.009854 0.000000 0.000000 -0.000773
# 3 -0.009854 -0.009854 0.022534 0.000000 0.000000 0.000000
# 4 0.000000 0.000000 0.000000 0.026388 0.000000 0.000000
# 5 0.000000 0.000000 0.000000 0.000000 0.026388 0.000000
# 6 0.000773 -0.000773 0.000000 0.000000 0.000000 0.028136
#
#
# Mechanical properties :
#
#
# Convention : Reuss Voigt Hill
#
# Bulk Modulus (GPa) = 63.05510 64.14763 63.60137
# Shear Modulus (GPa) = 23.44460 28.37742 25.91101
#
# Velocity S-wave (km/s) = 3.49737 3.84775 3.67674
# Velocity P-wave (km/s) = 7.01471 7.29435 7.15590
#
# Compressibility (1/GPa) = 0.01585914
#
# Stress axis : x y z
#
# Youngs Moduli (GPa) = 40.87444 40.87444 44.37654
#
# Poissons Ratio (x) = 0.33085 0.43730
# Poissons Ratio (y) = 0.33085 0.43730
# Poissons Ratio (z) = 0.40279 0.40279
#
# Static dielectric constant tensor:
#      x y z
#    x 3.432320 0.000000 0.000000 
#    y 0.000000 3.432320 0.000000 
#    z 0.000000 0.000000 3.445130 
# 
# 
# High freq. dielectric constant tensor:
#      x y z
#    x 1.745320 0.000000 0.000000 
#    y 0.000000 1.745320 0.000000 
#    z 0.000000 0.000000 1.748790 
# 
# From -- ./inp_files/2377.got.cif
#   From: 2010.03.12/outbox.cif.g09.slc.cpg/sg85_cif.got.tgz:2377.got - 2010.04.08 20:10:46.
