data_PCOD8303585
_publ_section_title
;
Structure prediction by ZEFSAII (Michael W. Deem and Ramdas Pophale) SiO2 
 PCOD8303585
Probable space group: P 42/N
;
_chemical_formula_sum "Si O2"
_cell_formula_units_Z 32
_cell_length_a 9.564296
_cell_length_b 9.564296
_cell_length_c 17.310839
_cell_angle_alpha 90.000000
_cell_angle_beta 90.000000
_cell_angle_gamma 90.000000
_cell_volume 1583.522119
_symmetry_space_group_name_H-M "P 42/N"
_symmetry_group_IT_number 86
_space_group.IT_coordinate_system_code '2'
_symmetry_cell_setting 'tetragonal'
loop_
_space_group_symop_operation_xyz
x,y,z
-y,1/2+x,1/2+z
1/2-x,1/2-y,z
1/2+y,-x,1/2+z
-x,-y,-z
y,1/2-x,1/2-z
1/2+x,1/2+y,-z
1/2-y,x,1/2-z
loop_
_atom_site_type_symbol
_atom_site_label
_atom_site_fract_x
_atom_site_fract_y
_atom_site_fract_z
Si Si1 0.111288 0.155926 0.937813
Si Si2 0.093845 0.866005 0.766471
Si Si3 0.386035 0.664398 0.940303
Si Si4 0.575564 0.379760 0.787029
O O1 0.250000 0.250000 0.924611
O O2 0.006561 0.154496 0.864913
O O3 0.155324 0.997071 0.954895
O O4 0.019410 0.213276 0.009090
O O5 0.067356 0.806087 0.852145
O O6 0.246675 0.938724 0.768937
O O7 0.088870 0.742309 0.702405
O O8 0.983955 0.984565 0.743299
O O9 0.250000 0.750000 0.965041
#
# Coordination Sequence:
#
# PCOD8303585 Si02
#       4
#     8   8   8   8
#     4  10  24  41  63  94 121 166 210 256 309 367
#     4  10  22  40  59  93 123 161 205 257 312 367
#     4  10  21  43  60  87 128 159 207 258 302 377
#     4  10  22  39  61  90 123 155 209 253 311 368
#
# _framework density 20.208119
#
# number of rings (size 3 to 8) (size 9 to 14) (size 15 to 20)
#    0.000    2.000    2.500    0.000   10.500    1.500 
#   13.500    0.000    0.000    0.000    0.000    0.000 
#    0.000    0.000    0.000    0.000    0.000    0.000 
#
# Total GULP energy -396578.232223 kJ/mol
# GULP energy per Si atom -12393.069757 kJ/mol
# Density = 2.016212 g / cm^3
# Si number density = 20.208119 Si / 1000 Ang^3
#
#
#
# Elastic Constant Matrix: (Units=GPa)
#
#
# Indices 1 2 3 4 5 6 
#
# 1 137.7174 84.7367 48.2315 0.0000 0.0000 9.4886
# 2 84.7367 137.7174 48.2315 0.0000 0.0000 -9.4886
# 3 48.2315 48.2315 91.6993 0.0000 0.0000 0.0000
# 4 0.0000 0.0000 0.0000 29.4879 0.0000 0.0000
# 5 0.0000 0.0000 0.0000 0.0000 29.4879 0.0000
# 6 9.4886 -9.4886 0.0000 0.0000 0.0000 38.0749
#
#
#
# Elastic Compliance Matrix: (Units=1/GPa)
#
#
# Indices 1 2 3 4 5 6 
#
# 1 0.013274 -0.007451 -0.003063 0.000000 0.000000 -0.005165
# 2 -0.007451 0.013274 -0.003063 0.000000 0.000000 0.005165
# 3 -0.003063 -0.003063 0.014127 0.000000 0.000000 0.000000
# 4 0.000000 0.000000 0.000000 0.033912 0.000000 0.000000
# 5 0.000000 0.000000 0.000000 0.000000 0.033912 0.000000
# 6 -0.005165 0.005165 0.000000 0.000000 0.000000 0.028838
#
#
# Mechanical properties :
#
#
# Convention : Reuss Voigt Hill
#
# Bulk Modulus (GPa) = 73.95186 81.05926 77.50556
# Shear Modulus (GPa) = 29.58594 31.80576 30.69585
#
# Velocity S-wave (km/s) = 3.83046 3.97156 3.90165
# Velocity P-wave (km/s) = 7.49918 7.82498 7.66381
#
# Compressibility (1/GPa) = 0.01352231
#
# Stress axis : x y z
#
# Youngs Moduli (GPa) = 75.33430 75.33430 70.78465
#
# Poissons Ratio (x) = 0.56129 0.21682
# Poissons Ratio (y) = 0.56129 0.21682
# Poissons Ratio (z) = 0.23075 0.23075
#
# Static dielectric constant tensor:
#      x y z
#    x 3.800390 0.000000 0.000000 
#    y 0.000000 3.800390 0.000000 
#    z 0.000000 0.000000 3.520120 
# 
# 
# High freq. dielectric constant tensor:
#      x y z
#    x 1.793030 0.000000 0.000000 
#    y 0.000000 1.793030 0.000000 
#    z 0.000000 0.000000 1.773370 
# 
# From -- ./inp_files/3835.got.cif
#   From: 2010.03.12/outbox.cif.g09.slc.cpg/sg86_2_cif.got.tgz:3835.got - 2010.04.08 20:12:58.
