data_PCOD8303929
_publ_section_title
;
Structure prediction by ZEFSAII (Michael W. Deem and Ramdas Pophale) SiO2 
 PCOD8303929
Probable space group: I 4/M
;
_chemical_formula_sum "Si O2"
_cell_formula_units_Z 96
_cell_length_a 23.841913
_cell_length_b 23.841913
_cell_length_c 8.784941
_cell_angle_alpha 90.000000
_cell_angle_beta 90.000000
_cell_angle_gamma 90.000000
_cell_volume 4993.683886
_symmetry_space_group_name_H-M "I 4/M"
_symmetry_group_IT_number 87
_symmetry_cell_setting 'tetragonal'
loop_
_space_group_symop_operation_xyz
x,y,z
-y,x,z
-x,-y,z
y,-x,z
-x,-y,-z
y,-x,-z
x,y,-z
-y,x,-z
1/2+x,1/2+y,1/2+z
1/2-y,1/2+x,1/2+z
1/2-x,1/2-y,1/2+z
1/2+y,1/2-x,1/2+z
1/2-x,1/2-y,1/2-z
1/2+y,1/2-x,1/2-z
1/2+x,1/2+y,1/2-z
1/2-y,1/2+x,1/2-z
loop_
_atom_site_type_symbol
_atom_site_label
_atom_site_fract_x
_atom_site_fract_y
_atom_site_fract_z
Si Si1 0.794998 0.952202 0.178875
Si Si2 0.729336 0.665648 0.820939
Si Si3 0.510966 0.916747 0.681485
Si Si4 0.456795 0.206494 0.319680
Si Si5 0.237650 0.665023 0.320120
Si Si6 0.589046 0.520803 0.824546
O O1 0.773777 0.896762 0.260284
O O2 0.858834 0.966637 0.217146
O O3 0.755291 0.002163 0.238916
O O4 0.789030 0.943576 0.000000
O O5 0.678945 0.702128 0.751537
O O6 0.788953 0.691697 0.770472
O O7 0.722122 0.665281 0.000000
O O8 0.505817 0.922124 0.500000
O O9 0.453894 0.937043 0.760613
O O10 0.521158 0.853496 0.737558
O O11 0.453786 0.206284 0.500000
O O12 0.394701 0.217748 0.254029
O O13 0.245367 0.663600 0.500000
O O14 0.541138 0.566279 0.788355
O O15 0.607514 0.525438 0.000000
#
# Coordination Sequence:
#
# PCOD8303929 Si02
#       6
#    16  16  16  16  16  16
#     4  11  23  37  57  85 117 151 190 234 278 334
#     4  10  21  37  59  86 114 148 189 234 287 340
#     4  10  20  37  59  83 113 149 188 232 281 334
#     4   9  21  38  57  83 114 148 187 232 280 330
#     4   9  19  39  62  82 111 150 190 234 285 339
#     4   9  20  40  62  84 115 150 185 233 288 338
#
# _framework density 19.224284000000001
#
# number of rings (size 3 to 8) (size 9 to 14) (size 15 to 20)
#    0.000    2.333    0.000    2.500    4.667    1.333 
#    0.000    5.833    0.000    0.000    0.000    0.000 
#    0.000    0.000    0.000    0.000    0.000    0.000 
#
# Total GULP energy -595321.938816 kJ/mol
# GULP energy per Si atom -12402.540392 kJ/mol
# Density = 1.918053 g / cm^3
# Si number density = 19.224284 Si / 1000 Ang^3
#
#
#
# Elastic Constant Matrix: (Units=GPa)
#
#
# Indices 1 2 3 4 5 6 
#
# 1 120.2126 45.2996 8.6738 0.0000 0.0000 1.4534
# 2 45.2996 120.2126 8.6738 0.0000 0.0000 -1.4534
# 3 8.6738 8.6738 17.6993 0.0000 0.0000 0.0000
# 4 0.0000 0.0000 0.0000 27.9386 0.0000 0.0000
# 5 0.0000 0.0000 0.0000 0.0000 27.9386 0.0000
# 6 1.4534 -1.4534 0.0000 0.0000 0.0000 24.2680
#
#
#
# Elastic Compliance Matrix: (Units=1/GPa)
#
#
# Indices 1 2 3 4 5 6 
#
# 1 0.009874 -0.003505 -0.003121 0.000000 0.000000 -0.000801
# 2 -0.003505 0.009874 -0.003121 0.000000 0.000000 0.000801
# 3 -0.003121 -0.003121 0.059559 0.000000 0.000000 0.000000
# 4 0.000000 0.000000 0.000000 0.035793 0.000000 0.000000
# 5 0.000000 0.000000 0.000000 0.000000 0.035793 0.000000
# 6 -0.000801 0.000801 0.000000 0.000000 0.000000 0.041303
#
#
# Mechanical properties :
#
#
# Convention : Reuss Voigt Hill
#
# Bulk Modulus (GPa) = 16.71914 42.60211 29.66063
# Shear Modulus (GPa) = 21.58629 29.06086 25.32358
#
# Velocity S-wave (km/s) = 3.35455 3.89224 3.63336
# Velocity P-wave (km/s) = 4.87030 6.51215 5.75013
#
# Compressibility (1/GPa) = 0.05981167
#
# Stress axis : x y z
#
# Youngs Moduli (GPa) = 101.27148 101.27148 16.79020
#
# Poissons Ratio (x) = 0.35500 0.05241
# Poissons Ratio (y) = 0.35500 0.05241
# Poissons Ratio (z) = 0.31609 0.31609
#
# Static dielectric constant tensor:
#      x y z
#    x 3.666840 0.000000 0.000000 
#    y 0.000000 3.666840 0.000000 
#    z 0.000000 0.000000 3.335780 
# 
# 
# High freq. dielectric constant tensor:
#      x y z
#    x 1.756720 0.000000 0.000000 
#    y 0.000000 1.756720 0.000000 
#    z 0.000000 0.000000 1.735390 
# 
# From -- ./inp_files/1431.got.cif
#   From: 2010.03.12/outbox.cif.g09.slc.cpg/sg87_1_cif.got.tgz:1431.got - 2010.04.08 20:16:13.
