data_PCOD8303558
_publ_section_title
;
Structure prediction by ZEFSAII (Michael W. Deem and Ramdas Pophale) SiO2 
 PCOD8303558
Probable space group: P 42/N
;
_chemical_formula_sum "Si O2"
_cell_formula_units_Z 40
_cell_length_a 17.173351
_cell_length_b 17.173351
_cell_length_c 6.594995
_cell_angle_alpha 90.000000
_cell_angle_beta 90.000000
_cell_angle_gamma 90.000000
_cell_volume 1945.022204
_symmetry_space_group_name_H-M "P 42/N"
_symmetry_group_IT_number 86
_space_group.IT_coordinate_system_code '2'
_symmetry_cell_setting 'tetragonal'
loop_
_space_group_symop_operation_xyz
x,y,z
-y,1/2+x,1/2+z
1/2-x,1/2-y,z
1/2+y,-x,1/2+z
-x,-y,-z
y,1/2-x,1/2-z
1/2+x,1/2+y,-z
1/2-y,x,1/2-z
loop_
_atom_site_type_symbol
_atom_site_label
_atom_site_fract_x
_atom_site_fract_y
_atom_site_fract_z
Si Si1 0.655903 0.420644 0.451637
Si Si2 0.104412 0.526519 0.354176
Si Si3 0.365957 0.430087 0.281674
Si Si4 0.211972 0.445971 0.073840
Si Si5 0.684702 0.067531 0.252332
O O1 0.596672 0.436037 0.266516
O O2 0.659122 0.500267 0.574614
O O3 0.739702 0.396966 0.361976
O O4 0.629769 0.349004 0.593674
O O5 0.051316 0.447912 0.334850
O O6 0.188324 0.508671 0.248804
O O7 0.116701 0.549987 0.586330
O O8 0.298927 0.415409 0.114760
O O9 0.375520 0.351143 0.416129
O O10 0.208238 0.486556 0.854784
#
# Coordination Sequence:
#
# PCOD8303558 Si02
#       5
#     8   8   8   8   8
#     4  11  23  42  68  94 131 173 223 270 326 389
#     4   9  22  40  63  98 119 177 214 266 322 390
#     4  10  20  44  66  96 133 168 217 270 326 389
#     4   9  22  40  63  98 130 165 211 269 317 391
#     4  11  24  42  65  95 133 169 220 277 329 380
#
# _framework density 20.565317
#
# number of rings (size 3 to 8) (size 9 to 14) (size 15 to 20)
#    1.200    0.800    2.000    0.600    2.800    2.800 
#    0.000    3.000    0.000    2.400    0.000    0.000 
#    0.000    0.000    0.000    0.000    0.000    0.000 
#
# Total GULP energy -495819.029526 kJ/mol
# GULP energy per Si atom -12395.475738 kJ/mol
# Density = 2.051851 g / cm^3
# Si number density = 20.565317 Si / 1000 Ang^3
#
#
#
# Elastic Constant Matrix: (Units=GPa)
#
#
# Indices 1 2 3 4 5 6 
#
# 1 109.8942 41.1648 43.1486 0.0000 0.0000 3.8932
# 2 41.1648 109.8942 43.1486 0.0000 0.0000 -3.8932
# 3 43.1486 43.1486 105.7701 0.0000 0.0000 0.0000
# 4 0.0000 0.0000 0.0000 28.8801 0.0000 0.0000
# 5 0.0000 0.0000 0.0000 0.0000 28.8801 0.0000
# 6 3.8932 -3.8932 0.0000 0.0000 0.0000 21.8023
#
#
#
# Elastic Compliance Matrix: (Units=1/GPa)
#
#
# Indices 1 2 3 4 5 6 
#
# 1 0.011741 -0.003109 -0.003521 0.000000 0.000000 -0.002652
# 2 -0.003109 0.011741 -0.003521 0.000000 0.000000 0.002652
# 3 -0.003521 -0.003521 0.012327 0.000000 0.000000 0.000000
# 4 0.000000 0.000000 0.000000 0.034626 0.000000 0.000000
# 5 0.000000 0.000000 0.000000 0.000000 0.034626 0.000000
# 6 -0.002652 0.002652 0.000000 0.000000 0.000000 0.046814
#
#
# Mechanical properties :
#
#
# Convention : Reuss Voigt Hill
#
# Bulk Modulus (GPa) = 64.49268 64.49804 64.49536
# Shear Modulus (GPa) = 28.19336 29.11895 28.65616
#
# Velocity S-wave (km/s) = 3.70661 3.76696 3.73691
# Velocity P-wave (km/s) = 7.05313 7.09582 7.07450
#
# Compressibility (1/GPa) = 0.01550563
#
# Stress axis : x y z
#
# Youngs Moduli (GPa) = 85.17253 85.17253 81.12014
#
# Poissons Ratio (x) = 0.26483 0.28564
# Poissons Ratio (y) = 0.26483 0.28564
# Poissons Ratio (z) = 0.29991 0.29991
#
# Static dielectric constant tensor:
#      x y z
#    x 3.500760 0.000000 0.000000 
#    y 0.000000 3.500760 0.000000 
#    z 0.000000 0.000000 3.618580 
# 
# 
# High freq. dielectric constant tensor:
#      x y z
#    x 1.792090 0.000000 0.000000 
#    y 0.000000 1.792090 0.000000 
#    z 0.000000 0.000000 1.804000 
# 
# From -- ./inp_files/301.got.cif
#   From: 2010.03.12/outbox.cif.g09.slc.cpg/sg86_1_cif.got.tgz:301.got - 2010.04.08 20:12:58.
