data_PCOD8303853
_publ_section_title
;
Structure prediction by ZEFSAII (Michael W. Deem and Ramdas Pophale) SiO2 
 PCOD8303853
Probable space group: I 4/M
;
_chemical_formula_sum "Si O2"
_cell_formula_units_Z 96
_cell_length_a 16.163503
_cell_length_b 16.163503
_cell_length_c 20.501840
_cell_angle_alpha 90.000000
_cell_angle_beta 90.000000
_cell_angle_gamma 90.000000
_cell_volume 5356.286715
_symmetry_space_group_name_H-M "I 4/M"
_symmetry_group_IT_number 87
_symmetry_cell_setting 'tetragonal'
loop_
_space_group_symop_operation_xyz
x,y,z
-y,x,z
-x,-y,z
y,-x,z
-x,-y,-z
y,-x,-z
x,y,-z
-y,x,-z
1/2+x,1/2+y,1/2+z
1/2-y,1/2+x,1/2+z
1/2-x,1/2-y,1/2+z
1/2+y,1/2-x,1/2+z
1/2-x,1/2-y,1/2-z
1/2+y,1/2-x,1/2-z
1/2+x,1/2+y,1/2-z
1/2-y,1/2+x,1/2-z
loop_
_atom_site_type_symbol
_atom_site_label
_atom_site_fract_x
_atom_site_fract_y
_atom_site_fract_z
Si Si1 0.801420 0.149121 0.573196
Si Si2 0.733895 0.533482 0.108780
Si Si3 0.565566 0.225613 0.751751
Si Si4 0.405889 0.176657 0.683135
Si Si5 0.059890 0.577647 0.426248
Si Si6 0.785912 0.238799 0.822423
O O1 0.763407 0.156657 0.500000
O O2 0.891273 0.192479 0.569469
O O3 0.739732 0.190634 0.625924
O O4 0.810922 0.052267 0.591266
O O5 0.717246 0.559847 0.183989
O O6 0.832529 0.523039 0.094486
O O7 0.472618 0.215389 0.729894
O O8 0.608746 0.139830 0.772133
O O9 0.615478 0.264982 0.690120
O O10 0.446358 0.136112 0.619655
O O11 0.347514 0.248479 0.653242
O O12 0.091267 0.584134 0.500000
O O13 0.000000 0.500000 0.417617
O O14 0.750000 0.250000 0.750000
#
# Coordination Sequence:
#
# PCOD8303853 Si02
#       6
#    16  16  16  16  16  16
#     4  12  23  38  60  85 119 157 200 241 297 359
#     4  11  23  39  59  81 117 160 194 241 289 355
#     4  10  21  35  58  81 115 147 201 242 293 345
#     4  10  21  33  56  82 108 147 192 243 290 351
#     4  10  21  36  52  80 118 151 183 233 298 355
#     4  10  19  39  56  81 111 156 197 241 290 348
#
# _framework density 17.922863
#
# number of rings (size 3 to 8) (size 9 to 14) (size 15 to 20)
#    0.000    1.500    5.000    3.500    7.000    0.333 
#    0.000    0.833    0.000    0.500    0.000    0.000 
#    0.000    0.000    0.000    3.000    0.000    0.000 
#
# Total GULP energy -594774.785874 kJ/mol
# GULP energy per Si atom -12391.141372 kJ/mol
# Density = 1.788207 g / cm^3
# Si number density = 17.922863 Si / 1000 Ang^3
#
#
#
# Elastic Constant Matrix: (Units=GPa)
#
#
# Indices 1 2 3 4 5 6 
#
# 1 59.3811 24.2418 28.1959 0.0000 0.0000 -1.2668
# 2 24.2418 59.3811 28.1959 0.0000 0.0000 1.2668
# 3 28.1959 28.1959 112.6736 0.0000 0.0000 0.0000
# 4 0.0000 0.0000 0.0000 22.7078 0.0000 0.0000
# 5 0.0000 0.0000 0.0000 0.0000 22.7078 0.0000
# 6 -1.2668 1.2668 0.0000 0.0000 0.0000 25.3885
#
#
#
# Elastic Compliance Matrix: (Units=1/GPa)
#
#
# Indices 1 2 3 4 5 6 
#
# 1 0.021474 -0.007087 -0.003600 0.000000 0.000000 0.001425
# 2 -0.007087 0.021474 -0.003600 0.000000 0.000000 -0.001425
# 3 -0.003600 -0.003600 0.010677 0.000000 0.000000 0.000000
# 4 0.000000 0.000000 0.000000 0.044038 0.000000 0.000000
# 5 0.000000 0.000000 0.000000 0.000000 0.044038 0.000000
# 6 0.001425 -0.001425 0.000000 0.000000 0.000000 0.039530
#
#
# Mechanical properties :
#
#
# Convention : Reuss Voigt Hill
#
# Bulk Modulus (GPa) = 39.92159 43.63367 41.77763
# Shear Modulus (GPa) = 22.91956 24.21430 23.56693
#
# Velocity S-wave (km/s) = 3.57990 3.67962 3.63010
# Velocity P-wave (km/s) = 6.27774 6.51544 6.39769
#
# Compressibility (1/GPa) = 0.02504910
#
# Stress axis : x y z
#
# Youngs Moduli (GPa) = 46.56898 46.56898 93.65942
#
# Poissons Ratio (x) = 0.33005 0.33718
# Poissons Ratio (y) = 0.33005 0.33718
# Poissons Ratio (z) = 0.16765 0.16765
#
# Static dielectric constant tensor:
#      x y z
#    x 3.492610 0.000000 0.000000 
#    y 0.000000 3.492610 0.000000 
#    z 0.000000 0.000000 3.601730 
# 
# 
# High freq. dielectric constant tensor:
#      x y z
#    x 1.679580 0.000000 0.000000 
#    y 0.000000 1.679580 0.000000 
#    z 0.000000 0.000000 1.704120 
# 
# From -- ./inp_files/5296.got.cif
#   From: 2010.03.12/outbox.cif.g09.slc.cpg/sg87_3_cif.got.tgz:5296.got - 2010.04.08 20:16:13.
