data_PCOD8303706
_publ_section_title
;
Structure prediction by ZEFSAII (Michael W. Deem and Ramdas Pophale) SiO2 
 PCOD8303706
Probable space group: P 42/N
;
_chemical_formula_sum "Si O2"
_cell_formula_units_Z 34
_cell_length_a 10.325726
_cell_length_b 10.325726
_cell_length_c 12.720568
_cell_angle_alpha 90.000000
_cell_angle_beta 90.000000
_cell_angle_gamma 90.000000
_cell_volume 1356.274814
_symmetry_space_group_name_H-M "P 42/N"
_symmetry_group_IT_number 86
_space_group.IT_coordinate_system_code '2'
_symmetry_cell_setting 'tetragonal'
loop_
_space_group_symop_operation_xyz
x,y,z
-y,1/2+x,1/2+z
1/2-x,1/2-y,z
1/2+y,-x,1/2+z
-x,-y,-z
y,1/2-x,1/2-z
1/2+x,1/2+y,-z
1/2-y,x,1/2-z
loop_
_atom_site_type_symbol
_atom_site_label
_atom_site_fract_x
_atom_site_fract_y
_atom_site_fract_z
Si Si1 0.447411 0.139105 0.104932
Si Si2 0.687594 0.005829 0.426625
Si Si3 0.750000 0.750000 0.750000
Si Si4 0.490639 0.206960 0.501760
Si Si5 0.295422 0.894003 0.789355
O O1 0.375125 0.247894 0.174786
O O2 0.552861 0.079541 0.184097
O O3 0.533207 0.197050 0.009023
O O4 0.342355 0.037081 0.058287
O O5 0.575150 0.114644 0.426719
O O6 0.740855 0.010245 0.307569
O O7 0.641926 0.863418 0.463607
O O8 0.570152 0.214924 0.608666
O O9 0.250000 0.750000 0.756898
#
# Coordination Sequence:
#
# PCOD8303706 Si02
#       5
#     8   8   2   8   8
#     4  12  25  49  75 107 147 197 249 314 379 462
#     4  11  26  47  73 107 148 187 254 315 366 460
#     4  12  24  48  80 106 140 204 256 296 400 454
#     4  11  25  49  72 107 145 193 251 313 381 456
#     4  12  28  44  75 106 152 200 247 313 391 451
#
# _framework density 25.068666
#
# number of rings (size 3 to 8) (size 9 to 14) (size 15 to 20)
#    0.000    0.471    4.706    2.118    9.882    1.882 
#    0.000    0.000    0.000    0.000    0.000    0.000 
#    0.000    0.000    0.000    0.000    0.000    0.000 
#
# Total GULP energy -421519.388327 kJ/mol
# GULP energy per Si atom -12397.629068 kJ/mol
# Density = 2.501161 g / cm^3
# Si number density = 25.068666 Si / 1000 Ang^3
#
#
#
# Elastic Constant Matrix: (Units=GPa)
#
#
# Indices 1 2 3 4 5 6 
#
# 1 71.7870 14.2280 29.8788 0.0000 0.0000 6.9444
# 2 14.2280 71.7870 29.8788 0.0000 0.0000 -6.9444
# 3 29.8788 29.8788 137.5730 0.0000 0.0000 0.0000
# 4 0.0000 0.0000 0.0000 34.4395 0.0000 0.0000
# 5 0.0000 0.0000 0.0000 0.0000 34.4395 0.0000
# 6 6.9444 -6.9444 0.0000 0.0000 0.0000 35.7648
#
#
#
# Elastic Compliance Matrix: (Units=1/GPa)
#
#
# Indices 1 2 3 4 5 6 
#
# 1 0.015960 -0.002268 -0.002974 0.000000 0.000000 -0.003539
# 2 -0.002268 0.015960 -0.002974 0.000000 0.000000 0.003539
# 3 -0.002974 -0.002974 0.008561 0.000000 0.000000 0.000000
# 4 0.000000 0.000000 0.000000 0.029036 0.000000 0.000000
# 5 0.000000 0.000000 0.000000 0.000000 0.029036 0.000000
# 6 -0.003539 0.003539 0.000000 0.000000 0.000000 0.029335
#
#
# Mechanical properties :
#
#
# Convention : Reuss Voigt Hill
#
# Bulk Modulus (GPa) = 41.58093 47.67980 44.63036
# Shear Modulus (GPa) = 32.82257 34.73953 33.78105
#
# Velocity S-wave (km/s) = 3.62236 3.72664 3.67487
# Velocity P-wave (km/s) = 5.84107 6.13010 5.98733
#
# Compressibility (1/GPa) = 0.02404949
#
# Stress axis : x y z
#
# Youngs Moduli (GPa) = 62.65809 62.65809 116.81512
#
# Poissons Ratio (x) = 0.14210 0.34737
# Poissons Ratio (y) = 0.14210 0.34737
# Poissons Ratio (z) = 0.18632 0.18632
#
# Static dielectric constant tensor:
#      x y z
#    x 4.363290 0.000000 0.000000 
#    y 0.000000 4.363290 0.000000 
#    z 0.000000 0.000000 4.633600 
# 
# 
# High freq. dielectric constant tensor:
#      x y z
#    x 1.988290 0.000000 0.000000 
#    y 0.000000 1.988290 0.000000 
#    z 0.000000 0.000000 2.021420 
# 
# From -- ./inp_files/1949.got.cif
#   From: 2010.03.12/outbox.cif.g09.slc.cpg/sg86_1_cif.got.tgz:1949.got - 2010.04.08 20:12:58.
