data_PCOD8303927
_publ_section_title
;
Structure prediction by ZEFSAII (Michael W. Deem and Ramdas Pophale) SiO2 
 PCOD8303927
Probable space group: I 4/M
;
_chemical_formula_sum "Si O2"
_cell_formula_units_Z 112
_cell_length_a 15.641574
_cell_length_b 15.641574
_cell_length_c 25.044547
_cell_angle_alpha 90.000000
_cell_angle_beta 90.000000
_cell_angle_gamma 90.000000
_cell_volume 6127.369747
_symmetry_space_group_name_H-M "I 4/M"
_symmetry_group_IT_number 87
_symmetry_cell_setting 'tetragonal'
loop_
_space_group_symop_operation_xyz
x,y,z
-y,x,z
-x,-y,z
y,-x,z
-x,-y,-z
y,-x,-z
x,y,-z
-y,x,-z
1/2+x,1/2+y,1/2+z
1/2-y,1/2+x,1/2+z
1/2-x,1/2-y,1/2+z
1/2+y,1/2-x,1/2+z
1/2-x,1/2-y,1/2-z
1/2+y,1/2-x,1/2-z
1/2+x,1/2+y,1/2-z
1/2-y,1/2+x,1/2-z
loop_
_atom_site_type_symbol
_atom_site_label
_atom_site_fract_x
_atom_site_fract_y
_atom_site_fract_z
Si Si1 0.146440 0.369962 0.813392
Si Si2 0.112717 0.083857 0.559191
Si Si3 0.616419 0.564112 0.563542
Si Si4 0.017327 0.594854 0.876043
Si Si5 0.812530 0.791430 0.638451
Si Si6 0.790209 0.636186 0.437491
Si Si7 0.672339 0.068113 0.298638
O O1 0.224090 0.307038 0.829894
O O2 0.099825 0.333469 0.761600
O O3 0.182040 0.465718 0.802996
O O4 0.074185 0.366386 0.859289
O O5 0.147796 0.109598 0.500000
O O6 0.166836 0.120388 0.608372
O O7 0.017208 0.118170 0.565013
O O8 0.533339 0.614223 0.584472
O O9 0.619300 0.563162 0.500000
O O10 0.698977 0.609531 0.586927
O O11 0.058435 0.645401 0.925379
O O12 0.084405 0.596728 0.827085
O O13 0.000000 0.500000 0.896955
O O14 0.811321 0.723681 0.590853
O O15 0.886518 0.757463 0.677933
O O16 0.789513 0.653215 0.500000
#
# Coordination Sequence:
#
# PCOD8303927 Si02
#       7
#    16  16  16  16  16  16  16
#     4  11  20  36  60  80 107 145 188 235 282 348
#     4   9  18  35  57  78 108 151 187 217 264 333
#     4   8  15  29  49  68  90 131 180 215 255 314
#     4   9  20  35  56  81 103 146 195 226 277 342
#     4  11  22  33  52  88 113 137 184 235 285 331
#     4  10  21  35  51  76 117 149 176 230 281 327
#     4  10  20  37  58  78 109 144 182 233 290 342
#
# _framework density 18.278641
#
# number of rings (size 3 to 8) (size 9 to 14) (size 15 to 20)
#    0.000    2.286    1.429    2.571    2.000    0.286 
#    0.000    0.714    0.000    0.857    0.000    0.000 
#    0.000    0.000    0.000    0.000    0.000    0.000 
#
# Total GULP energy -694123.499984 kJ/mol
# GULP energy per Si atom -12395.062500 kJ/mol
# Density = 1.823704 g / cm^3
# Si number density = 18.278641 Si / 1000 Ang^3
#
#
#
# Elastic Constant Matrix: (Units=GPa)
#
#
# Indices 1 2 3 4 5 6 
#
# 1 48.0130 15.6620 23.4129 0.0000 0.0000 0.0688
# 2 15.6620 48.0130 23.4129 0.0000 0.0000 -0.0688
# 3 23.4129 23.4129 59.1871 0.0000 0.0000 0.0000
# 4 0.0000 0.0000 0.0000 21.6767 0.0000 0.0000
# 5 0.0000 0.0000 0.0000 0.0000 21.6767 0.0000
# 6 0.0688 -0.0688 0.0000 0.0000 0.0000 31.9908
#
#
#
# Elastic Compliance Matrix: (Units=1/GPa)
#
#
# Indices 1 2 3 4 5 6 
#
# 1 0.026529 -0.004382 -0.008761 0.000000 0.000000 -0.000067
# 2 -0.004382 0.026529 -0.008761 0.000000 0.000000 0.000067
# 3 -0.008761 -0.008761 0.023827 0.000000 0.000000 0.000000
# 4 0.000000 0.000000 0.000000 0.046133 0.000000 0.000000
# 5 0.000000 0.000000 0.000000 0.000000 0.046133 0.000000
# 6 -0.000067 0.000067 0.000000 0.000000 0.000000 0.031259
#
#
# Mechanical properties :
#
#
# Convention : Reuss Voigt Hill
#
# Bulk Modulus (GPa) = 30.23172 31.13210 30.68191
# Shear Modulus (GPa) = 19.58914 21.25052 20.41983
#
# Velocity S-wave (km/s) = 3.27723 3.41337 3.34599
# Velocity P-wave (km/s) = 5.55838 5.70997 5.63468
#
# Compressibility (1/GPa) = 0.03307783
#
# Stress axis : x y z
#
# Youngs Moduli (GPa) = 37.69412 37.69412 41.96945
#
# Poissons Ratio (x) = 0.16517 0.36769
# Poissons Ratio (y) = 0.16517 0.36769
# Poissons Ratio (z) = 0.33024 0.33024
#
# Static dielectric constant tensor:
#      x y z
#    x 3.444740 0.000000 0.000000 
#    y 0.000000 3.444740 0.000000 
#    z 0.000000 0.000000 3.154190 
# 
# 
# High freq. dielectric constant tensor:
#      x y z
#    x 1.709950 0.000000 0.000000 
#    y 0.000000 1.709950 0.000000 
#    z 0.000000 0.000000 1.690790 
# 
# From -- ./inp_files/5890.got.cif
#   From: 2010.03.12/outbox.cif.g09.slc.cpg/sg87_3_cif.got.tgz:5890.got - 2010.04.08 20:16:13.
