data_PCOD8303439
_publ_section_title
;
Structure prediction by ZEFSAII (Michael W. Deem and Ramdas Pophale) SiO2 
 PCOD8303439
Probable space group: P 4/N
;
_chemical_formula_sum "Si O2"
_cell_formula_units_Z 58
_cell_length_a 18.791142
_cell_length_b 18.791142
_cell_length_c 8.014067
_cell_angle_alpha 90.000000
_cell_angle_beta 90.000000
_cell_angle_gamma 90.000000
_cell_volume 2829.823298
_symmetry_space_group_name_H-M "P 4/N"
_symmetry_group_IT_number 85
_symmetry_cell_setting 'tetragonal'
loop_
_space_group_symop_operation_xyz
x,y,z
1/2-y,x,z
1/2-x,1/2-y,z
y,1/2-x,z
-x,-y,-z
1/2+y,-x,-z
1/2+x,1/2+y,-z
-y,1/2+x,-z
loop_
_atom_site_type_symbol
_atom_site_label
_atom_site_fract_x
_atom_site_fract_y
_atom_site_fract_z
Si Si1 0.750000 0.250000 0.500000
Si Si2 0.736998 0.126079 0.763479
Si Si3 0.999328 0.147980 0.376406
Si Si4 0.206106 0.356105 0.264684
Si Si5 0.374811 0.625505 0.036791
Si Si6 0.019769 0.547105 0.155856
Si Si7 0.788408 0.641682 0.123935
Si Si8 0.985430 0.870514 0.253043
O O1 0.730287 0.183803 0.617341
O O2 0.707873 0.051354 0.699457
O O3 0.818609 0.113638 0.816112
O O4 0.692871 0.150040 0.926876
O O5 0.993536 0.074118 0.277420
O O6 0.079569 0.176044 0.372536
O O7 0.977539 0.136215 0.567743
O O8 0.158676 0.287840 0.311163
O O9 0.201027 0.375001 0.070414
O O10 0.452958 0.637301 0.114769
O O11 0.380040 0.556532 0.912945
O O12 0.945015 0.558843 0.249201
O O13 0.000000 0.500000 0.000000
O O14 0.839324 0.707644 0.170464
O O15 0.808180 0.571559 0.226529
#
# Coordination Sequence:
#
# PCOD8303439 Si02
#       8
#     2   8   8   8   8   8   8   8
#     4  12  24  42  64  88 120 154 192 264 324 358
#     4  11  23  41  63  87 117 153 201 252 306 368
#     4  11  23  37  58  90 122 155 196 249 308 363
#     4   9  19  37  59  83 115 156 198 239 291 357
#     4  10  22  40  62  86 113 158 204 244 298 367
#     4   9  20  38  59  82 115 154 197 243 293 356
#     4   9  19  37  60  84 114 156 202 244 292 363
#     4  11  22  38  59  89 124 157 197 249 306 363
#
# _framework density 20.495978999999998
#
# number of rings (size 3 to 8) (size 9 to 14) (size 15 to 20)
#    0.000    1.931    0.000    5.379    0.000    6.621 
#    0.000    6.897    0.000    0.000    0.000    0.000 
#    0.000    0.000    0.000    0.000    0.000    0.000 
#
# Total GULP energy -719194.458740 kJ/mol
# GULP energy per Si atom -12399.904461 kJ/mol
# Density = 2.044933 g / cm^3
# Si number density = 20.495979 Si / 1000 Ang^3
#
#
#
# Elastic Constant Matrix: (Units=GPa)
#
#
# Indices 1 2 3 4 5 6 
#
# 1 100.1127 36.8814 36.8475 0.0000 0.0000 7.0454
# 2 36.8814 100.1127 36.8475 0.0000 0.0000 -7.0454
# 3 36.8475 36.8475 98.3668 0.0000 0.0000 0.0000
# 4 0.0000 0.0000 0.0000 31.7983 0.0000 0.0000
# 5 0.0000 0.0000 0.0000 0.0000 31.7983 0.0000
# 6 7.0454 -7.0454 0.0000 0.0000 0.0000 22.8872
#
#
#
# Elastic Compliance Matrix: (Units=1/GPa)
#
#
# Indices 1 2 3 4 5 6 
#
# 1 0.013061 -0.003919 -0.003424 0.000000 0.000000 -0.005227
# 2 -0.003919 0.013061 -0.003424 0.000000 0.000000 0.005227
# 3 -0.003424 -0.003424 0.012732 0.000000 0.000000 0.000000
# 4 0.000000 0.000000 0.000000 0.031448 0.000000 0.000000
# 5 0.000000 0.000000 0.000000 0.000000 0.031448 0.000000
# 6 -0.005227 0.005227 0.000000 0.000000 0.000000 0.046911
#
#
# Mechanical properties :
#
#
# Convention : Reuss Voigt Hill
#
# Bulk Modulus (GPa) = 57.74567 57.74945 57.74756
# Shear Modulus (GPa) = 28.41422 29.83115 29.12268
#
# Velocity S-wave (km/s) = 3.72739 3.81919 3.77357
# Velocity P-wave (km/s) = 6.83812 6.90547 6.87187
#
# Compressibility (1/GPa) = 0.01731732
#
# Stress axis : x y z
#
# Youngs Moduli (GPa) = 76.56533 76.56533 78.54496
#
# Poissons Ratio (x) = 0.30006 0.26897
# Poissons Ratio (y) = 0.30006 0.26897
# Poissons Ratio (z) = 0.26219 0.26219
#
# Static dielectric constant tensor:
#      x y z
#    x 3.771800 0.000000 0.000000 
#    y 0.000000 3.771800 0.000000 
#    z 0.000000 0.000000 3.766360 
# 
# 
# High freq. dielectric constant tensor:
#      x y z
#    x 1.798770 0.000000 0.000000 
#    y 0.000000 1.798770 0.000000 
#    z 0.000000 0.000000 1.804550 
# 
# From -- ./inp_files/1218.got.cif
#   From: 2010.03.12/outbox.cif.g09.slc.cpg/sg85_cif.got.tgz:1218.got - 2010.04.08 20:10:46.
