data_PCOD8303751
_publ_section_title
;
Structure prediction by ZEFSAII (Michael W. Deem and Ramdas Pophale) SiO2 
 PCOD8303751
Probable space group: I 4/M
;
_chemical_formula_sum "Si O2"
_cell_formula_units_Z 96
_cell_length_a 16.369597
_cell_length_b 16.369597
_cell_length_c 18.483751
_cell_angle_alpha 90.000000
_cell_angle_beta 90.000000
_cell_angle_gamma 90.000000
_cell_volume 4952.974418
_symmetry_space_group_name_H-M "I 4/M"
_symmetry_group_IT_number 87
_symmetry_cell_setting 'tetragonal'
loop_
_space_group_symop_operation_xyz
x,y,z
-y,x,z
-x,-y,z
y,-x,z
-x,-y,-z
y,-x,-z
x,y,-z
-y,x,-z
1/2+x,1/2+y,1/2+z
1/2-y,1/2+x,1/2+z
1/2-x,1/2-y,1/2+z
1/2+y,1/2-x,1/2+z
1/2-x,1/2-y,1/2-z
1/2+y,1/2-x,1/2-z
1/2+x,1/2+y,1/2-z
1/2-y,1/2+x,1/2-z
loop_
_atom_site_type_symbol
_atom_site_label
_atom_site_fract_x
_atom_site_fract_y
_atom_site_fract_z
Si Si1 0.697501 0.478633 0.082196
Si Si2 0.588645 0.088764 0.774910
Si Si3 0.664523 0.901158 0.579323
Si Si4 0.238507 0.796065 0.582936
Si Si5 0.877425 0.950230 0.720312
Si Si6 0.259348 0.164267 0.211962
O O1 0.790091 0.511917 0.082930
O O2 0.704037 0.384546 0.109721
O O3 0.642224 0.537099 0.134337
O O4 0.661816 0.484519 0.000000
O O5 0.497919 0.113867 0.754156
O O6 0.601210 0.092631 0.861732
O O7 0.644888 0.149761 0.733310
O O8 0.625160 0.887184 0.500000
O O9 0.732172 0.833314 0.596562
O O10 0.265380 0.802734 0.500000
O O11 0.318185 0.762067 0.625808
O O12 0.802670 0.908053 0.763964
O O13 0.955489 0.895170 0.742063
O O14 0.250000 0.250000 0.250000
#
# Coordination Sequence:
#
# PCOD8303751 Si02
#       6
#    16  16  16  16  16  16
#     4  10  18  33  58  89 128 161 192 244 311 381
#     4  11  24  40  59  90 122 157 206 256 298 365
#     4  10  19  36  59  85 117 156 197 246 306 363
#     4  10  21  36  60  93 120 156 208 255 305 372
#     4  11  24  37  54  89 127 161 206 253 302 372
#     4  12  22  37  65  85 118 163 205 246 310 367
#
# _framework density 19.382292
#
# number of rings (size 3 to 8) (size 9 to 14) (size 15 to 20)
#    0.000    1.333    3.333    3.000    2.333    2.000 
#    0.000    3.333    0.000    1.000    0.000    1.167 
#    0.000    0.000    0.000    0.000    0.000    0.000 
#
# Total GULP energy -594663.795157 kJ/mol
# GULP energy per Si atom -12388.829066 kJ/mol
# Density = 1.933818 g / cm^3
# Si number density = 19.382292 Si / 1000 Ang^3
#
#
#
# Elastic Constant Matrix: (Units=GPa)
#
#
# Indices 1 2 3 4 5 6 
#
# 1 98.0025 4.6303 52.5426 0.0000 0.0000 3.5326
# 2 4.6303 98.0025 52.5426 0.0000 0.0000 -3.5326
# 3 52.5426 52.5426 130.7382 0.0000 0.0000 0.0000
# 4 0.0000 0.0000 0.0000 33.5783 0.0000 0.0000
# 5 0.0000 0.0000 0.0000 0.0000 33.5783 0.0000
# 6 3.5326 -3.5326 0.0000 0.0000 0.0000 33.7611
#
#
#
# Elastic Compliance Matrix: (Units=1/GPa)
#
#
# Indices 1 2 3 4 5 6 
#
# 1 0.013676 0.002881 -0.006654 0.000000 0.000000 -0.001130
# 2 0.002881 0.013676 -0.006654 0.000000 0.000000 0.001130
# 3 -0.006654 -0.006654 0.012997 0.000000 0.000000 0.000000
# 4 0.000000 0.000000 0.000000 0.029781 0.000000 0.000000
# 5 0.000000 0.000000 0.000000 0.000000 0.029781 0.000000
# 6 -0.001130 0.001130 0.000000 0.000000 0.000000 0.029856
#
#
# Mechanical properties :
#
#
# Convention : Reuss Voigt Hill
#
# Bulk Modulus (GPa) = 51.29686 60.68601 55.99143
# Shear Modulus (GPa) = 31.82288 34.65208 33.23748
#
# Velocity S-wave (km/s) = 4.05637 4.23285 4.14555
# Velocity P-wave (km/s) = 6.96148 7.43420 7.20172
#
# Compressibility (1/GPa) = 0.01949437
#
# Stress axis : x y z
#
# Youngs Moduli (GPa) = 73.12185 73.12186 76.94012
#
# Poissons Ratio (x) = -0.21063 0.51195
# Poissons Ratio (y) = -0.21063 0.51195
# Poissons Ratio (z) = 0.48654 0.48654
#
# Static dielectric constant tensor:
#      x y z
#    x 3.517260 0.000000 0.000000 
#    y 0.000000 3.517260 0.000000 
#    z 0.000000 0.000000 4.143040 
# 
# 
# High freq. dielectric constant tensor:
#      x y z
#    x 1.748290 0.000000 0.000000 
#    y 0.000000 1.748290 0.000000 
#    z 0.000000 0.000000 1.748630 
# 
# From -- ./inp_files/5259.got.cif
#   From: 2010.03.12/outbox.cif.g09.slc.cpg/sg87_3_cif.got.tgz:5259.got - 2010.04.08 20:16:13.
