data_PCOD8303355
_publ_section_title
;
Structure prediction by ZEFSAII (Michael W. Deem and Ramdas Pophale) SiO2 
 PCOD8303355
Probable space group: P 42/M
;
_chemical_formula_sum "Si O2"
_cell_formula_units_Z 48
_cell_length_a 9.044902
_cell_length_b 9.044902
_cell_length_c 29.617119
_cell_angle_alpha 90.000000
_cell_angle_beta 90.000000
_cell_angle_gamma 90.000000
_cell_volume 2422.983975
_symmetry_space_group_name_H-M "P 42/M"
_symmetry_group_IT_number 84
_symmetry_cell_setting 'tetragonal'
loop_
_space_group_symop_operation_xyz
x,y,z
-y,x,1/2+z
-x,-y,z
y,-x,1/2+z
-x,-y,-z
y,-x,1/2-z
x,y,-z
-y,x,1/2-z
loop_
_atom_site_type_symbol
_atom_site_label
_atom_site_fract_x
_atom_site_fract_y
_atom_site_fract_z
Si Si1 0.164373 0.453930 0.842317
Si Si2 0.097213 0.275429 0.500000
Si Si3 0.775752 0.416384 0.500000
Si Si4 0.834314 0.048069 0.906604
Si Si5 0.347249 0.743573 0.848893
Si Si6 0.579795 0.271170 0.248282
Si Si7 0.755863 0.345526 0.402348
O O1 0.293002 0.575682 0.845172
O O2 0.159168 0.397617 0.790301
O O3 0.215567 0.329605 0.877076
O O4 0.000000 0.500000 0.857063
O O5 0.218835 0.405268 0.500000
O O6 0.119547 0.170616 0.456541
O O7 0.937477 0.348137 0.500000
O O8 0.694163 0.363533 0.453893
O O9 0.788913 0.169267 0.870172
O O10 0.708997 0.923606 0.903563
O O11 0.000000 0.000000 0.895025
O O12 0.373988 0.807861 0.798533
O O13 0.496332 0.749690 0.878026
O O14 0.410756 0.317429 0.241537
#
# Coordination Sequence:
#
# PCOD8303355 Si02
#       7
#     8   4   4   8   8   8   8
#     4  11  23  39  59  85 123 154 192 252 313 357
#     4   9  17  34  57  86 115 159 198 246 296 361
#     4   9  18  34  59  87 114 152 210 252 287 357
#     4  11  22  36  59  90 125 153 196 250 310 361
#     4  11  21  38  62  87 114 158 204 244 295 364
#     4   9  18  36  60  83 107 147 202 242 282 355
#     4  11  21  39  62  86 117 159 205 249 294 364
#
# _framework density 19.810282999999998
#
# number of rings (size 3 to 8) (size 9 to 14) (size 15 to 20)
#    0.000    1.667    3.333    2.250    0.000    1.333 
#    0.000    2.917    0.000    0.000    0.000    0.000 
#    0.000    0.000    0.000    0.000    0.000    0.000 
#
# Total GULP energy -595113.007169 kJ/mol
# GULP energy per Si atom -12398.187649 kJ/mol
# Density = 1.976519 g / cm^3
# Si number density = 19.810283 Si / 1000 Ang^3
#
#
#
# Elastic Constant Matrix: (Units=GPa)
#
#
# Indices 1 2 3 4 5 6 
#
# 1 63.9128 5.0893 41.9813 0.0000 0.0000 -4.1937
# 2 5.0893 63.9128 41.9813 0.0000 0.0000 4.1937
# 3 41.9813 41.9813 179.4535 0.0000 0.0000 0.0000
# 4 0.0000 0.0000 0.0000 28.2000 0.0000 0.0000
# 5 0.0000 0.0000 0.0000 0.0000 28.2000 0.0000
# 6 -4.1937 4.1937 0.0000 0.0000 0.0000 32.7655
#
#
#
# Elastic Compliance Matrix: (Units=1/GPa)
#
#
# Indices 1 2 3 4 5 6 
#
# 1 0.018788 0.001472 -0.004739 0.000000 0.000000 0.002216
# 2 0.001472 0.018788 -0.004739 0.000000 0.000000 -0.002216
# 3 -0.004739 -0.004739 0.007790 0.000000 0.000000 0.000000
# 4 0.000000 0.000000 0.000000 0.035461 0.000000 0.000000
# 5 0.000000 0.000000 0.000000 0.000000 0.035461 0.000000
# 6 0.002216 -0.002216 0.000000 0.000000 0.000000 0.031087
#
#
# Mechanical properties :
#
#
# Convention : Reuss Voigt Hill
#
# Bulk Modulus (GPa) = 34.07061 53.93144 44.00102
# Shear Modulus (GPa) = 28.87288 32.38156 30.62722
#
# Velocity S-wave (km/s) = 3.82182 4.04738 3.93622
# Velocity P-wave (km/s) = 6.05895 7.00891 6.55117
#
# Compressibility (1/GPa) = 0.02935081
#
# Stress axis : x y z
#
# Youngs Moduli (GPa) = 53.22632 53.22632 128.37013
#
# Poissons Ratio (x) = -0.07833 0.60841
# Poissons Ratio (y) = -0.07833 0.60841
# Poissons Ratio (z) = 0.25226 0.25226
#
# Static dielectric constant tensor:
#      x y z
#    x 3.362850 0.000000 0.000000 
#    y 0.000000 3.362850 0.000000 
#    z 0.000000 0.000000 4.095350 
# 
# 
# High freq. dielectric constant tensor:
#      x y z
#    x 1.753250 0.000000 0.000000 
#    y 0.000000 1.753250 0.000000 
#    z 0.000000 0.000000 1.794860 
# 
# From -- ./inp_files/5861.got.cif
#   From: 2010.03.12/outbox.cif.g09.slc.cpg/sg84_3_cif.got.tgz:5861.got - 2010.04.08 20:07:29.
