data_PCOD8303632
_publ_section_title
;
Structure prediction by ZEFSAII (Michael W. Deem and Ramdas Pophale) SiO2 
 PCOD8303632
Probable space group: P 42/N
;
_chemical_formula_sum "Si O2"
_cell_formula_units_Z 30
_cell_length_a 11.182315
_cell_length_b 11.182315
_cell_length_c 10.652841
_cell_angle_alpha 90.000000
_cell_angle_beta 90.000000
_cell_angle_gamma 90.000000
_cell_volume 1332.075648
_symmetry_space_group_name_H-M "P 42/N"
_symmetry_group_IT_number 86
_space_group.IT_coordinate_system_code '2'
_symmetry_cell_setting 'tetragonal'
loop_
_space_group_symop_operation_xyz
x,y,z
-y,1/2+x,1/2+z
1/2-x,1/2-y,z
1/2+y,-x,1/2+z
-x,-y,-z
y,1/2-x,1/2-z
1/2+x,1/2+y,-z
1/2-y,x,1/2-z
loop_
_atom_site_type_symbol
_atom_site_label
_atom_site_fract_x
_atom_site_fract_y
_atom_site_fract_z
Si Si1 0.609941 0.862671 0.947527
Si Si2 0.031219 0.877187 0.339889
Si Si3 0.250000 0.750000 0.949581
Si Si4 0.017829 0.865950 0.051246
Si Si5 0.250000 0.250000 0.250000
O O1 0.511895 0.946896 0.883955
O O2 0.709415 0.858334 0.839249
O O3 0.567837 0.727812 0.979992
O O4 0.669225 0.924314 0.069764
O O5 0.151723 0.803046 0.356472
O O6 0.985931 0.868647 0.198078
O O7 0.152721 0.816303 0.036521
O O8 0.000000 0.000000 0.000000
#
# Coordination Sequence:
#
# PCOD8303632 Si02
#       5
#     8   8   4   8   2
#     4  10  25  40  65  98 132 182 221 290 341 425
#     4  10  23  44  64  98 138 171 240 283 347 422
#     4  10  24  42  70 100 136 190 230 296 358 430
#     4  11  24  42  70 102 135 189 230 291 361 424
#     4  12  24  44  66  96 140 176 224 278 376 412
#
# _framework density 22.521242999999998
#
# number of rings (size 3 to 8) (size 9 to 14) (size 15 to 20)
#    0.000    1.600    0.000    2.400   11.200    0.000 
#    0.000    0.000    0.000    0.000    0.000    0.000 
#    0.000    0.000    0.000    0.000    0.000    0.000 
#
# Total GULP energy -371928.662159 kJ/mol
# GULP energy per Si atom -12397.622072 kJ/mol
# Density = 2.246998 g / cm^3
# Si number density = 22.521243 Si / 1000 Ang^3
#
#
#
# Elastic Constant Matrix: (Units=GPa)
#
#
# Indices 1 2 3 4 5 6 
#
# 1 87.4613 19.7369 35.8948 0.0000 0.0000 3.2689
# 2 19.7369 87.4613 35.8948 0.0000 0.0000 -3.2689
# 3 35.8948 35.8948 173.3391 0.0000 0.0000 0.0000
# 4 0.0000 0.0000 0.0000 25.8264 0.0000 0.0000
# 5 0.0000 0.0000 0.0000 0.0000 25.8264 0.0000
# 6 3.2689 -3.2689 0.0000 0.0000 0.0000 24.3092
#
#
#
# Elastic Compliance Matrix: (Units=1/GPa)
#
#
# Indices 1 2 3 4 5 6 
#
# 1 0.012895 -0.002065 -0.002243 0.000000 0.000000 -0.002012
# 2 -0.002065 0.012895 -0.002243 0.000000 0.000000 0.002012
# 3 -0.002243 -0.002243 0.006698 0.000000 0.000000 0.000000
# 4 0.000000 0.000000 0.000000 0.038720 0.000000 0.000000
# 5 0.000000 0.000000 0.000000 0.000000 0.038720 0.000000
# 6 -0.002012 0.002012 0.000000 0.000000 0.000000 0.041678
#
#
# Mechanical properties :
#
#
# Convention : Reuss Voigt Hill
#
# Bulk Modulus (GPa) = 51.57883 59.03496 55.30689
# Shear Modulus (GPa) = 29.21084 32.30807 30.75946
#
# Velocity S-wave (km/s) = 3.60534 3.79167 3.69968
# Velocity P-wave (km/s) = 6.34692 6.74084 6.54684
#
# Compressibility (1/GPa) = 0.01938780
#
# Stress axis : x y z
#
# Youngs Moduli (GPa) = 77.54830 77.54830 149.30077
#
# Poissons Ratio (x) = 0.16012 0.33484
# Poissons Ratio (y) = 0.16012 0.33484
# Poissons Ratio (z) = 0.17392 0.17392
#
# Static dielectric constant tensor:
#      x y z
#    x 4.131450 0.000000 0.000000 
#    y 0.000000 4.131450 0.000000 
#    z 0.000000 0.000000 4.048260 
# 
# 
# High freq. dielectric constant tensor:
#      x y z
#    x 1.888740 0.000000 0.000000 
#    y 0.000000 1.888740 0.000000 
#    z 0.000000 0.000000 1.896750 
# 
# From -- ./inp_files/1849.got.cif
#   From: 2010.03.12/outbox.cif.g09.slc.cpg/sg86_1_cif.got.tgz:1849.got - 2010.04.08 20:12:58.
