data_PCOD8303125
_publ_section_title
;
Structure prediction by ZEFSAII (Michael W. Deem and Ramdas Pophale) SiO2 
 PCOD8303125
Probable space group: P 42/M
;
_chemical_formula_sum "Si O2"
_cell_formula_units_Z 56
_cell_length_a 11.306294
_cell_length_b 11.306294
_cell_length_c 24.905152
_cell_angle_alpha 90.000000
_cell_angle_beta 90.000000
_cell_angle_gamma 90.000000
_cell_volume 3183.682464
_symmetry_space_group_name_H-M "P 42/M"
_symmetry_group_IT_number 84
_symmetry_cell_setting 'tetragonal'
loop_
_space_group_symop_operation_xyz
x,y,z
-y,x,1/2+z
-x,-y,z
y,-x,1/2+z
-x,-y,-z
y,-x,1/2-z
x,y,-z
-y,x,1/2-z
loop_
_atom_site_type_symbol
_atom_site_label
_atom_site_fract_x
_atom_site_fract_y
_atom_site_fract_z
Si Si1 0.729496 0.855824 0.712437
Si Si2 0.625082 0.751130 0.392508
Si Si3 0.644485 0.135388 0.500000
Si Si4 0.132984 0.505255 0.283059
Si Si5 0.497031 0.633233 0.144867
Si Si6 0.119944 0.284242 0.788555
Si Si7 0.867145 0.363211 0.000000
Si Si8 0.245845 0.356076 0.890839
O O1 0.700708 0.782508 0.659565
O O2 0.633057 0.844313 0.758928
O O3 0.845710 0.803523 0.740382
O O4 0.750768 0.988892 0.693746
O O5 0.627284 0.609518 0.397670
O O6 0.684710 0.804085 0.446139
O O7 0.491370 0.799371 0.384801
O O8 0.503773 0.143262 0.500000
O O9 0.696467 0.199383 0.447180
O O10 0.685436 0.999897 0.500000
O O11 0.251144 0.476697 0.317574
O O12 0.128229 0.417288 0.232902
O O13 0.000000 0.500000 0.311684
O O14 0.500000 0.500000 0.174016
O O15 0.613175 0.652357 0.109622
O O16 0.198356 0.275771 0.842143
#
# Coordination Sequence:
#
# PCOD8303125 Si02
#       8
#     8   8   4   8   8   8   4   8
#     4  11  21  33  51  74 103 136 174 216 259 313
#     4  10  19  32  49  76 107 138 175 212 266 319
#     4   9  18  31  49  71 103 145 180 214 259 316
#     4  10  20  34  51  76 109 143 175 211 261 327
#     4  10  20  33  52  82 107 139 171 220 269 322
#     4  11  21  33  51  74 103 136 174 216 259 313
#     4   9  18  31  49  71 103 145 180 214 259 316
#     4  10  19  32  49  76 107 138 175 212 266 319
#
# _framework density 17.589694000000001
#
# number of rings (size 3 to 8) (size 9 to 14) (size 15 to 20)
#    0.000    1.857    4.286    0.857    0.000    2.000 
#    2.571    2.857    0.000    0.000    0.000    5.000 
#    0.000    6.857    0.000    0.000    0.000    0.000 
#
# Total GULP energy -693957.292528 kJ/mol
# GULP energy per Si atom -12392.094509 kJ/mol
# Density = 1.754966 g / cm^3
# Si number density = 17.589694 Si / 1000 Ang^3
#
#
#
# Elastic Constant Matrix: (Units=GPa)
#
#
# Indices 1 2 3 4 5 6 
#
# 1 92.8225 13.5522 38.8109 0.0000 0.0000 -0.3289
# 2 13.5522 92.8225 38.8109 0.0000 0.0000 0.3289
# 3 38.8109 38.8109 111.5483 0.0000 0.0000 0.0000
# 4 0.0000 0.0000 0.0000 15.5940 0.0000 0.0000
# 5 0.0000 0.0000 0.0000 0.0000 15.5940 0.0000
# 6 -0.3289 0.3289 0.0000 0.0000 0.0000 15.2428
#
#
#
# Elastic Compliance Matrix: (Units=1/GPa)
#
#
# Indices 1 2 3 4 5 6 
#
# 1 0.012608 -0.000009 -0.004384 0.000000 0.000000 0.000272
# 2 -0.000009 0.012608 -0.004384 0.000000 0.000000 -0.000272
# 3 -0.004384 -0.004384 0.012015 0.000000 0.000000 0.000000
# 4 0.000000 0.000000 0.000000 0.064127 0.000000 0.000000
# 5 0.000000 0.000000 0.000000 0.000000 0.064127 0.000000
# 6 0.000272 -0.000272 0.000000 0.000000 0.000000 0.065617
#
#
# Mechanical properties :
#
#
# Convention : Reuss Voigt Hill
#
# Bulk Modulus (GPa) = 50.81482 53.28238 52.04860
# Shear Modulus (GPa) = 19.59125 23.02076 21.30601
#
# Velocity S-wave (km/s) = 3.34097 3.62161 3.48412
# Velocity P-wave (km/s) = 6.62076 6.91706 6.77053
#
# Compressibility (1/GPa) = 0.01967930
#
# Stress axis : x y z
#
# Youngs Moduli (GPa) = 79.31195 79.31195 83.22796
#
# Poissons Ratio (x) = 0.00070 0.36485
# Poissons Ratio (y) = 0.00070 0.36485
# Poissons Ratio (z) = 0.34768 0.34768
#
# Static dielectric constant tensor:
#      x y z
#    x 3.277820 0.000000 0.000000 
#    y 0.000000 3.277820 0.000000 
#    z 0.000000 0.000000 3.141810 
# 
# 
# High freq. dielectric constant tensor:
#      x y z
#    x 1.668650 0.000000 0.000000 
#    y 0.000000 1.668650 0.000000 
#    z 0.000000 0.000000 1.661230 
# 
# From -- ./inp_files/5055.got.cif
#   From: 2010.03.12/outbox.cif.g09.slc.cpg/sg84_3_cif.got.tgz:5055.got - 2010.04.08 20:07:29.
