data_PCOD8303811
_publ_section_title
;
Structure prediction by ZEFSAII (Michael W. Deem and Ramdas Pophale) SiO2 
 PCOD8303811
Probable space group: I 4/M
;
_chemical_formula_sum "Si O2"
_cell_formula_units_Z 72
_cell_length_a 23.291299
_cell_length_b 23.291299
_cell_length_c 8.051113
_cell_angle_alpha 90.000000
_cell_angle_beta 90.000000
_cell_angle_gamma 90.000000
_cell_volume 4367.604889
_symmetry_space_group_name_H-M "I 4/M"
_symmetry_group_IT_number 87
_symmetry_cell_setting 'tetragonal'
loop_
_space_group_symop_operation_xyz
x,y,z
-y,x,z
-x,-y,z
y,-x,z
-x,-y,-z
y,-x,-z
x,y,-z
-y,x,-z
1/2+x,1/2+y,1/2+z
1/2-y,1/2+x,1/2+z
1/2-x,1/2-y,1/2+z
1/2+y,1/2-x,1/2+z
1/2-x,1/2-y,1/2-z
1/2+y,1/2-x,1/2-z
1/2+x,1/2+y,1/2-z
1/2-y,1/2+x,1/2-z
loop_
_atom_site_type_symbol
_atom_site_label
_atom_site_fract_x
_atom_site_fract_y
_atom_site_fract_z
Si Si1 0.092924 0.990329 0.500000
Si Si2 0.115812 0.216633 0.695087
Si Si3 0.003729 0.172108 0.185381
Si Si4 0.300767 0.789957 0.306934
Si Si5 0.116483 0.796000 0.310012
O O1 0.126186 0.984742 0.328038
O O2 0.063046 0.051119 0.500000
O O3 0.103488 0.210109 0.500000
O O4 0.145568 0.278555 0.733225
O O5 0.156733 0.163165 0.751057
O O6 0.056051 0.217456 0.795658
O O7 0.941650 0.201289 0.203962
O O8 0.006761 0.144975 0.000000
O O9 0.313022 0.782267 0.500000
O O10 0.250000 0.750000 0.250000
O O11 0.357714 0.768640 0.210479
O O12 0.099412 0.806920 0.500000
#
# Coordination Sequence:
#
# PCOD8303811 Si02
#       5
#     8  16  16  16  16
#     4  11  24  40  52  66  96 132 174 223 258 290
#     4   9  18  33  50  69  98 131 161 204 256 300
#     4  12  23  34  53  74  96 132 173 213 256 304
#     4   9  17  29  48  72  97 125 158 200 252 307
#     4  10  19  33  51  70  99 130 162 208 257 301
#
# _framework density 16.485008000000001
#
# number of rings (size 3 to 8) (size 9 to 14) (size 15 to 20)
#    0.000    1.889    2.222    4.000    0.000    8.000 
#    0.000    1.111    0.000    0.000    0.000    0.000 
#    0.000    0.889    0.000    9.333    0.000    4.000 
#
# Total GULP energy -446074.706623 kJ/mol
# GULP energy per Si atom -12390.964073 kJ/mol
# Density = 1.644749 g / cm^3
# Si number density = 16.485008 Si / 1000 Ang^3
#
#
#
# Elastic Constant Matrix: (Units=GPa)
#
#
# Indices 1 2 3 4 5 6 
#
# 1 54.5400 23.8898 18.9078 0.0000 0.0000 -0.4237
# 2 23.8898 54.5400 18.9078 0.0000 0.0000 0.4237
# 3 18.9078 18.9078 82.4077 0.0000 0.0000 0.0000
# 4 0.0000 0.0000 0.0000 18.9075 0.0000 0.0000
# 5 0.0000 0.0000 0.0000 0.0000 18.9075 0.0000
# 6 -0.4237 0.4237 0.0000 0.0000 0.0000 29.8144
#
#
#
# Elastic Compliance Matrix: (Units=1/GPa)
#
#
# Indices 1 2 3 4 5 6 
#
# 1 0.023488 -0.009151 -0.003289 0.000000 0.000000 0.000464
# 2 -0.009151 0.023488 -0.003289 0.000000 0.000000 -0.000464
# 3 -0.003289 -0.003289 0.013644 0.000000 0.000000 0.000000
# 4 0.000000 0.000000 0.000000 0.052889 0.000000 0.000000
# 5 0.000000 0.000000 0.000000 0.000000 0.052889 0.000000
# 6 0.000464 -0.000464 0.000000 0.000000 0.000000 0.033554
#
#
# Mechanical properties :
#
#
# Convention : Reuss Voigt Hill
#
# Bulk Modulus (GPa) = 34.29431 34.98871 34.64151
# Shear Modulus (GPa) = 20.73556 22.17802 21.45679
#
# Velocity S-wave (km/s) = 3.55046 3.67187 3.61168
# Velocity P-wave (km/s) = 6.13646 6.26478 6.20095
#
# Compressibility (1/GPa) = 0.02915935
#
# Stress axis : x y z
#
# Youngs Moduli (GPa) = 42.57554 42.57554 73.29114
#
# Poissons Ratio (x) = 0.38963 0.24108
# Poissons Ratio (y) = 0.38963 0.24108
# Poissons Ratio (z) = 0.14005 0.14005
#
# Static dielectric constant tensor:
#      x y z
#    x 3.328150 0.000000 0.000000 
#    y 0.000000 3.328150 0.000000 
#    z 0.000000 0.000000 3.343970 
# 
# 
# High freq. dielectric constant tensor:
#      x y z
#    x 1.611250 0.000000 0.000000 
#    y 0.000000 1.611250 0.000000 
#    z 0.000000 0.000000 1.646900 
# 
# From -- ./inp_files/1176.got.cif
#   From: 2010.03.12/outbox.cif.g09.slc.cpg/sg87_1_cif.got.tgz:1176.got - 2010.04.08 20:16:13.
