data_PCOD8303319
_publ_section_title
;
Structure prediction by ZEFSAII (Michael W. Deem and Ramdas Pophale) SiO2 
 PCOD8303319
Probable space group: P 42/M
;
_chemical_formula_sum "Si O2"
_cell_formula_units_Z 48
_cell_length_a 8.969310
_cell_length_b 8.969310
_cell_length_c 27.406958
_cell_angle_alpha 90.000000
_cell_angle_beta 90.000000
_cell_angle_gamma 90.000000
_cell_volume 2204.849260
_symmetry_space_group_name_H-M "P 42/M"
_symmetry_group_IT_number 84
_symmetry_cell_setting 'tetragonal'
loop_
_space_group_symop_operation_xyz
x,y,z
-y,x,1/2+z
-x,-y,z
y,-x,1/2+z
-x,-y,-z
y,-x,1/2-z
x,y,-z
-y,x,1/2-z
loop_
_atom_site_type_symbol
_atom_site_label
_atom_site_fract_x
_atom_site_fract_y
_atom_site_fract_z
Si Si1 0.174911 0.268460 0.693092
Si Si2 0.922831 0.848363 0.944751
Si Si3 0.787882 0.827018 0.198942
Si Si4 0.673271 0.973169 0.642472
Si Si5 0.427644 0.156312 0.944855
Si Si6 0.468841 0.326188 0.148992
O O1 0.233491 0.205498 0.744342
O O2 0.219964 0.440458 0.686577
O O3 0.998192 0.248183 0.686289
O O4 0.277357 0.197845 0.649754
O O5 0.975660 0.708752 0.912433
O O6 0.747611 0.867524 0.939698
O O7 0.972159 0.813579 0.000000
O O8 0.000000 0.000000 0.925932
O O9 0.954661 0.785428 0.182725
O O10 0.698546 0.710889 0.165034
O O11 0.500000 0.000000 0.654209
O O12 0.489273 0.281613 0.907884
O O13 0.500000 0.000000 0.930376
O O14 0.471255 0.204526 0.000000
O O15 0.500000 0.500000 0.156156
#
# Coordination Sequence:
#
# PCOD8303319 Si02
#       6
#     8   8   8   8   8   8
#     4  12  27  43  73  97 134 184 231 284 339 412
#     4  10  22  43  72 102 135 176 225 282 339 408
#     4  12  25  46  69  97 134 181 236 279 342 409
#     4  12  26  43  67 103 139 176 226 286 342 405
#     4  10  22  44  72 101 134 178 228 277 340 417
#     4  12  28  45  67 104 142 179 220 289 351 410
#
# _framework density 21.770195000000001
#
# number of rings (size 3 to 8) (size 9 to 14) (size 15 to 20)
#    0.000    0.667    3.333    4.000    7.000    0.667 
#    0.000    0.000    0.000    0.000    0.000    0.000 
#    0.000    0.000    0.000    0.000    0.000    0.000 
#
# Total GULP energy -595264.685001 kJ/mol
# GULP energy per Si atom -12401.347604 kJ/mol
# Density = 2.172065 g / cm^3
# Si number density = 21.770195 Si / 1000 Ang^3
#
#
#
# Elastic Constant Matrix: (Units=GPa)
#
#
# Indices 1 2 3 4 5 6 
#
# 1 92.1445 18.6803 37.3411 0.0000 0.0000 -1.9813
# 2 18.6803 92.1445 37.3411 0.0000 0.0000 1.9813
# 3 37.3411 37.3411 114.0882 0.0000 0.0000 0.0000
# 4 0.0000 0.0000 0.0000 32.4762 0.0000 0.0000
# 5 0.0000 0.0000 0.0000 0.0000 32.4762 0.0000
# 6 -1.9813 1.9813 0.0000 0.0000 0.0000 33.8738
#
#
#
# Elastic Compliance Matrix: (Units=1/GPa)
#
#
# Indices 1 2 3 4 5 6 
#
# 1 0.012616 -0.001039 -0.003789 0.000000 0.000000 0.000799
# 2 -0.001039 0.012616 -0.003789 0.000000 0.000000 -0.000799
# 3 -0.003789 -0.003789 0.011245 0.000000 0.000000 0.000000
# 4 0.000000 0.000000 0.000000 0.030792 0.000000 0.000000
# 5 0.000000 0.000000 0.000000 0.000000 0.030792 0.000000
# 6 0.000799 -0.000799 0.000000 0.000000 0.000000 0.029615
#
#
# Mechanical properties :
#
#
# Convention : Reuss Voigt Hill
#
# Bulk Modulus (GPa) = 51.96821 53.90023 52.93422
# Shear Modulus (GPa) = 33.04160 33.43288 33.23724
#
# Velocity S-wave (km/s) = 3.90005 3.92308 3.91158
# Velocity P-wave (km/s) = 6.64858 6.73299 6.69092
#
# Compressibility (1/GPa) = 0.01924253
#
# Stress axis : x y z
#
# Youngs Moduli (GPa) = 79.26530 79.26530 88.92492
#
# Poissons Ratio (x) = 0.08238 0.33694
# Poissons Ratio (y) = 0.08238 0.33694
# Poissons Ratio (z) = 0.30034 0.30034
#
# Static dielectric constant tensor:
#      x y z
#    x 3.827600 0.000000 0.000000 
#    y 0.000000 3.827600 0.000000 
#    z 0.000000 0.000000 4.036200 
# 
# 
# High freq. dielectric constant tensor:
#      x y z
#    x 1.858170 0.000000 0.000000 
#    y 0.000000 1.858170 0.000000 
#    z 0.000000 0.000000 1.864040 
# 
# From -- ./inp_files/5772.got.cif
#   From: 2010.03.12/outbox.cif.g09.slc.cpg/sg84_3_cif.got.tgz:5772.got - 2010.04.08 20:07:29.
