data_PCOD8303510
_publ_section_title
;
Structure prediction by ZEFSAII (Michael W. Deem and Ramdas Pophale) SiO2 
 PCOD8303510
Probable space group: P 42/N
;
_chemical_formula_sum "Si O2"
_cell_formula_units_Z 56
_cell_length_a 11.699007
_cell_length_b 11.699007
_cell_length_c 21.658648
_cell_angle_alpha 90.000000
_cell_angle_beta 90.000000
_cell_angle_gamma 90.000000
_cell_volume 2964.349081
_symmetry_space_group_name_H-M "P 42/N"
_symmetry_group_IT_number 86
_space_group.IT_coordinate_system_code '2'
_symmetry_cell_setting 'tetragonal'
loop_
_space_group_symop_operation_xyz
x,y,z
-y,1/2+x,1/2+z
1/2-x,1/2-y,z
1/2+y,-x,1/2+z
-x,-y,-z
y,1/2-x,1/2-z
1/2+x,1/2+y,-z
1/2-y,x,1/2-z
loop_
_atom_site_type_symbol
_atom_site_label
_atom_site_fract_x
_atom_site_fract_y
_atom_site_fract_z
Si Si1 0.604698 0.360868 0.664250
Si Si2 0.950579 0.567692 0.751540
Si Si3 0.983211 0.683188 0.531333
Si Si4 0.408235 0.921381 0.970083
Si Si5 0.614995 0.739007 0.658371
Si Si6 0.976543 0.160002 0.018853
Si Si7 0.389596 0.629682 0.845336
O O1 0.554268 0.417974 0.726391
O O2 0.565568 0.425652 0.602615
O O3 0.563504 0.230568 0.657610
O O4 0.739848 0.369193 0.669516
O O5 0.923568 0.680360 0.713549
O O6 0.885675 0.581496 0.817131
O O7 0.923027 0.460438 0.710162
O O8 0.959706 0.736481 0.598056
O O9 0.867390 0.613266 0.509453
O O10 0.031149 0.782804 0.487131
O O11 0.085930 0.590727 0.532459
O O12 0.436396 0.790588 0.990422
O O13 0.500000 0.000000 0.000000
O O14 0.750000 0.750000 0.643766
O O15 0.948579 0.114416 0.088100
#
# Coordination Sequence:
#
# PCOD8303510 Si02
#       7
#     8   8   8   8   8   8   8
#     4  10  21  37  60  86 119 161 201 247 311 378
#     4  12  20  37  60  94 120 152 201 261 321 366
#     4  11  23  38  64  92 123 170 208 258 323 385
#     4  11  23  39  62  93 128 163 210 266 320 381
#     4  12  22  35  61  96 128 150 198 271 324 369
#     4  10  22  41  62  90 121 168 215 259 312 382
#     4  10  19  38  64  83 118 160 204 250 304 382
#
# _framework density 18.891162999999999
#
# number of rings (size 3 to 8) (size 9 to 14) (size 15 to 20)
#    0.000    1.143    5.714    1.286    4.000    0.000 
#    0.000    4.286    0.000    0.429    0.000    0.000 
#    0.000    0.000    0.000    0.000    0.000    0.000 
#
# Total GULP energy -693906.491760 kJ/mol
# GULP energy per Si atom -12391.187353 kJ/mol
# Density = 1.884817 g / cm^3
# Si number density = 18.891163 Si / 1000 Ang^3
#
#
#
# Elastic Constant Matrix: (Units=GPa)
#
#
# Indices 1 2 3 4 5 6 
#
# 1 85.8637 41.5752 38.4678 0.0000 0.0000 -3.1762
# 2 41.5752 85.8637 38.4678 0.0000 0.0000 3.1762
# 3 38.4678 38.4678 93.0316 0.0000 0.0000 0.0000
# 4 0.0000 0.0000 0.0000 193.7353 0.0000 0.0000
# 5 0.0000 0.0000 0.0000 0.0000 193.7353 0.0000
# 6 -3.1762 3.1762 0.0000 0.0000 0.0000 33.2053
#
#
#
# Elastic Compliance Matrix: (Units=1/GPa)
#
#
# Indices 1 2 3 4 5 6 
#
# 1 0.016675 -0.006218 -0.004324 0.000000 0.000000 0.002190
# 2 -0.006218 0.016675 -0.004324 0.000000 0.000000 -0.002190
# 3 -0.004324 -0.004324 0.014325 0.000000 0.000000 0.000000
# 4 0.000000 0.000000 0.000000 0.005162 0.000000 0.000000
# 5 0.000000 0.000000 0.000000 0.000000 0.005162 0.000000
# 6 0.002190 -0.002190 0.000000 0.000000 0.000000 0.030535
#
#
# Mechanical properties :
#
#
# Convention : Reuss Voigt Hill
#
# Bulk Modulus (GPa) = 55.73042 55.75337 55.74190
# Shear Modulus (GPa) = 40.24247 93.88505 67.06376
#
# Velocity S-wave (km/s) = 4.62045 7.05732 5.96466
# Velocity P-wave (km/s) = 7.61771 9.79718 8.77537
#
# Compressibility (1/GPa) = 0.01794352
#
# Stress axis : x y z
#
# Youngs Moduli (GPa) = 59.96883 59.96883 69.80835
#
# Poissons Ratio (x) = 0.37289 0.30185
# Poissons Ratio (y) = 0.37289 0.30185
# Poissons Ratio (z) = 0.25931 0.25931
#
# Static dielectric constant tensor:
#      x y z
#    x 4.851520 0.000000 0.000000 
#    y 0.000000 4.851520 0.000000 
#    z 0.000000 0.000000 3.571910 
# 
# 
# High freq. dielectric constant tensor:
#      x y z
#    x 1.730570 0.000000 0.000000 
#    y 0.000000 1.730570 0.000000 
#    z 0.000000 0.000000 1.730480 
# 
# From -- ./inp_files/4211.got.cif
#   From: 2010.03.12/outbox.cif.g09.slc.cpg/sg86_3_cif.got.tgz:4211.got - 2010.04.08 20:12:58.
