data_PCOD8303667
_publ_section_title
;
Structure prediction by ZEFSAII (Michael W. Deem and Ramdas Pophale) SiO2 
 PCOD8303667
Probable space group: P 42/N
;
_chemical_formula_sum "Si O2"
_cell_formula_units_Z 56
_cell_length_a 11.318287
_cell_length_b 11.318287
_cell_length_c 20.662385
_cell_angle_alpha 90.000000
_cell_angle_beta 90.000000
_cell_angle_gamma 90.000000
_cell_volume 2646.926329
_symmetry_space_group_name_H-M "P 42/N"
_symmetry_group_IT_number 86
_space_group.IT_coordinate_system_code '2'
_symmetry_cell_setting 'tetragonal'
loop_
_space_group_symop_operation_xyz
x,y,z
-y,1/2+x,1/2+z
1/2-x,1/2-y,z
1/2+y,-x,1/2+z
-x,-y,-z
y,1/2-x,1/2-z
1/2+x,1/2+y,-z
1/2-y,x,1/2-z
loop_
_atom_site_type_symbol
_atom_site_label
_atom_site_fract_x
_atom_site_fract_y
_atom_site_fract_z
Si Si1 0.497559 0.904861 0.081321
Si Si2 0.071701 0.408221 0.163940
Si Si3 0.630827 0.309271 0.885188
Si Si4 0.824403 0.980200 0.801346
Si Si5 0.099483 0.180195 0.092779
Si Si6 0.701469 0.952211 0.990867
Si Si7 0.852606 0.340687 0.534691
O O1 0.477904 0.781661 0.117594
O O2 0.599287 0.878813 0.028384
O O3 0.528917 0.004354 0.134861
O O4 0.370023 0.948727 0.051434
O O5 0.184819 0.484692 0.185057
O O6 0.109149 0.322218 0.103325
O O7 0.015907 0.341403 0.224528
O O8 0.750000 0.250000 0.860498
O O9 0.604733 0.414071 0.835496
O O10 0.639015 0.356218 0.957894
O O11 0.880905 0.863758 0.833563
O O12 0.966900 0.151544 0.069631
O O13 0.203814 0.130638 0.046939
O O14 0.775723 0.022099 0.046351
O O15 0.750000 0.250000 0.557421
#
# Coordination Sequence:
#
# PCOD8303667 Si02
#       7
#     8   8   8   8   8   8   8
#     4  11  23  41  65  92 133 172 220 266 336 405
#     4  12  24  41  61 100 133 167 220 276 327 397
#     4  11  20  41  64  89 122 176 219 256 324 411
#     4  12  24  39  65  92 129 174 218 267 331 388
#     4  12  24  37  65 100 135 166 215 277 341 391
#     4  11  22  38  64  99 131 172 212 269 341 398
#     4  11  21  40  62  94 135 165 212 272 327 399
#
# _framework density 21.156613
#
# number of rings (size 3 to 8) (size 9 to 14) (size 15 to 20)
#    0.000    0.571    8.571    1.714    2.000    0.000 
#    0.000    5.000    0.000    0.000    0.000    0.000 
#    0.000    0.000    0.000    0.000    0.000    0.000 
#
# Total GULP energy -693872.509746 kJ/mol
# GULP energy per Si atom -12390.580531 kJ/mol
# Density = 2.110846 g / cm^3
# Si number density = 21.156613 Si / 1000 Ang^3
#
#
#
# Elastic Constant Matrix: (Units=GPa)
#
#
# Indices 1 2 3 4 5 6 
#
# 1 75.8021 9.0537 17.7689 0.0000 0.0000 -10.4130
# 2 9.0537 75.8021 17.7689 0.0000 0.0000 10.4130
# 3 17.7689 17.7689 73.7905 0.0000 0.0000 0.0000
# 4 0.0000 0.0000 0.0000 27.2833 0.0000 0.0000
# 5 0.0000 0.0000 0.0000 0.0000 27.2833 0.0000
# 6 -10.4130 10.4130 0.0000 0.0000 0.0000 26.6435
#
#
#
# Elastic Compliance Matrix: (Units=1/GPa)
#
#
# Indices 1 2 3 4 5 6 
#
# 1 0.015084 -0.001978 -0.003156 0.000000 0.000000 0.006668
# 2 -0.001978 0.015084 -0.003156 0.000000 0.000000 -0.006668
# 3 -0.003156 -0.003156 0.015072 0.000000 0.000000 0.000000
# 4 0.000000 0.000000 0.000000 0.036652 0.000000 0.000000
# 5 0.000000 0.000000 0.000000 0.000000 0.036652 0.000000
# 6 0.006668 -0.006668 0.000000 0.000000 0.000000 0.042745
#
#
# Mechanical properties :
#
#
# Convention : Reuss Voigt Hill
#
# Bulk Modulus (GPa) = 34.89118 34.95307 34.92212
# Shear Modulus (GPa) = 26.67750 28.29558 27.48654
#
# Velocity S-wave (km/s) = 3.55484 3.66106 3.60834
# Velocity P-wave (km/s) = 5.77727 5.86755 5.82259
#
# Compressibility (1/GPa) = 0.02866054
#
# Stress axis : x y z
#
# Youngs Moduli (GPa) = 66.29391 66.29391 66.34892
#
# Poissons Ratio (x) = 0.13112 0.20940
# Poissons Ratio (y) = 0.13112 0.20940
# Poissons Ratio (z) = 0.20923 0.20923
#
# Static dielectric constant tensor:
#      x y z
#    x 3.947060 0.000000 0.000000 
#    y 0.000000 3.947060 0.000000 
#    z 0.000000 0.000000 3.643320 
# 
# 
# High freq. dielectric constant tensor:
#      x y z
#    x 1.827520 0.000000 0.000000 
#    y 0.000000 1.827520 0.000000 
#    z 0.000000 0.000000 1.801400 
# 
# From -- ./inp_files/4194.got.cif
#   From: 2010.03.12/outbox.cif.g09.slc.cpg/sg86_3_cif.got.tgz:4194.got - 2010.04.08 20:12:58.
