data_PCOD8303367
_publ_section_title
;
Structure prediction by ZEFSAII (Michael W. Deem and Ramdas Pophale) SiO2 
 PCOD8303367
Probable space group: P 42/M
;
_chemical_formula_sum "Si O2"
_cell_formula_units_Z 32
_cell_length_a 9.667006
_cell_length_b 9.667006
_cell_length_c 17.235566
_cell_angle_alpha 90.000000
_cell_angle_beta 90.000000
_cell_angle_gamma 90.000000
_cell_volume 1610.680965
_symmetry_space_group_name_H-M "P 42/M"
_symmetry_group_IT_number 84
_symmetry_cell_setting 'tetragonal'
loop_
_space_group_symop_operation_xyz
x,y,z
-y,x,1/2+z
-x,-y,z
y,-x,1/2+z
-x,-y,-z
y,-x,1/2-z
x,y,-z
-y,x,1/2-z
loop_
_atom_site_type_symbol
_atom_site_label
_atom_site_fract_x
_atom_site_fract_y
_atom_site_fract_z
Si Si1 0.283509 0.673105 0.344745
Si Si2 0.278225 0.349301 0.328577
Si Si3 0.337426 0.996900 0.913619
Si Si4 0.508898 0.841174 0.412404
O O1 0.312776 0.508204 0.351330
O O2 0.335670 0.734679 0.263478
O O3 0.123725 0.708870 0.359531
O O4 0.362910 0.760811 0.410549
O O5 0.396668 0.246183 0.355054
O O6 0.140494 0.292475 0.368966
O O7 0.500000 0.000000 0.923961
O O8 0.269716 0.001928 0.000000
O O9 0.566954 0.839123 0.500000
O O10 0.500000 0.000000 0.382862
#
# Coordination Sequence:
#
# PCOD8303367 Si02
#       4
#     8   8   8   8
#     4  11  22  37  64  95 123 161 204 256 312 373
#     4  11  22  37  64  95 123 161 204 256 312 373
#     4   9  20  38  61  89 122 161 205 251 307 369
#     4  11  25  41  61  89 126 167 208 257 310 359
#
# _framework density 19.867374000000002
#
# number of rings (size 3 to 8) (size 9 to 14) (size 15 to 20)
#    0.000    1.500    2.500    2.250    3.500    4.000 
#    0.000    1.250    0.000    4.500    0.000    0.000 
#    0.000    0.000    0.000    0.000    0.000    0.000 
#
# Total GULP energy -396755.661594 kJ/mol
# GULP energy per Si atom -12398.614425 kJ/mol
# Density = 1.982215 g / cm^3
# Si number density = 19.867374 Si / 1000 Ang^3
#
#
#
# Elastic Constant Matrix: (Units=GPa)
#
#
# Indices 1 2 3 4 5 6 
#
# 1 111.0904 36.2596 33.2440 0.0000 0.0000 2.3870
# 2 36.2596 111.0904 33.2440 0.0000 0.0000 -2.3870
# 3 33.2440 33.2440 82.5849 0.0000 0.0000 0.0000
# 4 0.0000 0.0000 0.0000 21.8468 0.0000 0.0000
# 5 0.0000 0.0000 0.0000 0.0000 21.8468 0.0000
# 6 2.3870 -2.3870 0.0000 0.0000 0.0000 1.4939
#
#
#
# Elastic Compliance Matrix: (Units=1/GPa)
#
#
# Indices 1 2 3 4 5 6 
#
# 1 0.011587 -0.003294 -0.003338 0.000000 0.000000 -0.023778
# 2 -0.003294 0.011587 -0.003338 0.000000 0.000000 0.023778
# 3 -0.003338 -0.003338 0.014796 0.000000 0.000000 0.000000
# 4 0.000000 0.000000 0.000000 0.045773 0.000000 0.000000
# 5 0.000000 0.000000 0.000000 0.000000 0.045773 0.000000
# 6 -0.023778 0.023778 0.000000 0.000000 0.000000 0.745400
#
#
# Mechanical properties :
#
#
# Convention : Reuss Voigt Hill
#
# Bulk Modulus (GPa) = 55.46586 56.69562 56.08074
# Shear Modulus (GPa) = 5.55021 22.50537 14.02779
#
# Velocity S-wave (km/s) = 1.67323 3.36933 2.66008
# Velocity P-wave (km/s) = 5.63131 6.61328 6.14195
#
# Compressibility (1/GPa) = 0.01802911
#
# Stress axis : x y z
#
# Youngs Moduli (GPa) = 86.30618 86.30618 67.58440
#
# Poissons Ratio (x) = 0.28428 0.22561
# Poissons Ratio (y) = 0.28428 0.22561
# Poissons Ratio (z) = 0.28811 0.28811
#
# Static dielectric constant tensor:
#      x y z
#    x 3.659000 0.000000 0.000000 
#    y 0.000000 3.659000 0.000000 
#    z 0.000000 0.000000 3.612480 
# 
# 
# High freq. dielectric constant tensor:
#      x y z
#    x 1.764950 0.000000 0.000000 
#    y 0.000000 1.764950 0.000000 
#    z 0.000000 0.000000 1.786490 
# 
# From -- ./inp_files/4112.got.cif
#   From: 2010.03.12/outbox.cif.g09.slc.cpg/sg84_3_cif.got.tgz:4112.got - 2010.04.08 20:07:29.
