data_PCOD8303139
_publ_section_title
;
Structure prediction by ZEFSAII (Michael W. Deem and Ramdas Pophale) SiO2 
 PCOD8303139
Probable space group: P 42/M
;
_chemical_formula_sum "Si O2"
_cell_formula_units_Z 64
_cell_length_a 20.250942
_cell_length_b 20.250942
_cell_length_c 9.036487
_cell_angle_alpha 90.000000
_cell_angle_beta 90.000000
_cell_angle_gamma 90.000000
_cell_volume 3705.869209
_symmetry_space_group_name_H-M "P 42/M"
_symmetry_group_IT_number 84
_symmetry_cell_setting 'tetragonal'
loop_
_space_group_symop_operation_xyz
x,y,z
-y,x,1/2+z
-x,-y,z
y,-x,1/2+z
-x,-y,-z
y,-x,1/2-z
x,y,-z
-y,x,1/2-z
loop_
_atom_site_type_symbol
_atom_site_label
_atom_site_fract_x
_atom_site_fract_y
_atom_site_fract_z
Si Si1 0.852401 0.577706 0.176464
Si Si2 0.316280 0.213060 0.168695
Si Si3 0.253019 0.002462 0.334439
Si Si4 0.444250 0.131404 0.176266
Si Si5 0.598174 0.996606 0.666532
Si Si6 0.117570 0.215134 0.337779
Si Si7 0.807052 0.883519 0.167537
Si Si8 0.764876 0.686172 0.335426
O O1 0.834459 0.507338 0.248160
O O2 0.798165 0.628735 0.238345
O O3 0.927784 0.595185 0.225190
O O4 0.845739 0.576375 0.000000
O O5 0.382112 0.176140 0.227334
O O6 0.257859 0.160588 0.182149
O O7 0.299885 0.280604 0.258947
O O8 0.326373 0.235282 0.000000
O O9 0.224186 0.004364 0.500000
O O10 0.255059 0.928405 0.274031
O O11 0.327112 0.029278 0.332484
O O12 0.207041 0.043630 0.225840
O O13 0.441450 0.054998 0.231806
O O14 0.450964 0.129632 0.000000
O O15 0.569089 0.993151 0.500000
O O16 0.085126 0.205724 0.500000
O O17 0.133562 0.144266 0.266888
O O18 0.184398 0.254816 0.352848
O O19 0.831816 0.887756 0.000000
O O20 0.746095 0.659531 0.500000
#
# Coordination Sequence:
#
# PCOD8303139 Si02
#       8
#     8   8   8   8   8   8   8   8
#     4  11  22  36  51  71 103 142 176 209 253 301
#     4   9  19  34  51  71  99 131 165 207 255 298
#     4  11  20  32  51  73  98 128 165 208 251 302
#     4  11  22  35  51  74 103 138 176 213 252 297
#     4  10  21  34  48  69 100 139 177 209 247 296
#     4  10  20  33  50  73  97 124 161 207 257 304
#     4  10  19  33  51  72  96 125 162 206 257 304
#     4  10  20  33  52  75  98 127 168 213 252 294
#
# _framework density 17.269902999999999
#
# number of rings (size 3 to 8) (size 9 to 14) (size 15 to 20)
#    0.000    1.750    2.500    2.625    0.000    5.500 
#    0.000    0.000    0.000    0.375    0.000    2.625 
#    0.000    0.500    0.000    5.250    0.000    2.250 
#
# Total GULP energy -793372.559499 kJ/mol
# GULP energy per Si atom -12396.446242 kJ/mol
# Density = 1.723060 g / cm^3
# Si number density = 17.269903 Si / 1000 Ang^3
#
#
#
# Elastic Constant Matrix: (Units=GPa)
#
#
# Indices 1 2 3 4 5 6 
#
# 1 58.4514 30.9693 36.0798 0.0000 0.0000 -0.2292
# 2 30.9693 58.4514 36.0798 0.0000 0.0000 0.2292
# 3 36.0798 36.0798 100.1489 0.0000 0.0000 0.0000
# 4 0.0000 0.0000 0.0000 27.7497 0.0000 0.0000
# 5 0.0000 0.0000 0.0000 0.0000 27.7497 0.0000
# 6 -0.2292 0.2292 0.0000 0.0000 0.0000 22.5097
#
#
#
# Elastic Compliance Matrix: (Units=1/GPa)
#
#
# Indices 1 2 3 4 5 6 
#
# 1 0.026080 -0.010313 -0.005680 0.000000 0.000000 0.000371
# 2 -0.010313 0.026080 -0.005680 0.000000 0.000000 -0.000371
# 3 -0.005680 -0.005680 0.014078 0.000000 0.000000 0.000000
# 4 0.000000 0.000000 0.000000 0.036036 0.000000 0.000000
# 5 0.000000 0.000000 0.000000 0.000000 0.036036 0.000000
# 6 0.000371 -0.000371 0.000000 0.000000 0.000000 0.044433
#
#
# Mechanical properties :
#
#
# Convention : Reuss Voigt Hill
#
# Bulk Modulus (GPa) = 43.68578 47.03439 45.36008
# Shear Modulus (GPa) = 21.39298 23.19668 22.29483
#
# Velocity S-wave (km/s) = 3.52340 3.66892 3.59690
# Velocity P-wave (km/s) = 6.47327 6.72622 6.60096
#
# Compressibility (1/GPa) = 0.02289075
#
# Stress axis : x y z
#
# Youngs Moduli (GPa) = 38.34326 38.34326 71.03370
#
# Poissons Ratio (x) = 0.39545 0.40348
# Poissons Ratio (y) = 0.39545 0.40348
# Poissons Ratio (z) = 0.21780 0.21780
#
# Static dielectric constant tensor:
#      x y z
#    x 3.058280 0.000000 0.000000 
#    y 0.000000 3.058280 0.000000 
#    z 0.000000 0.000000 3.455780 
# 
# 
# High freq. dielectric constant tensor:
#      x y z
#    x 1.640900 0.000000 0.000000 
#    y 0.000000 1.640900 0.000000 
#    z 0.000000 0.000000 1.682870 
# 
# From -- ./inp_files/1407.got.cif
#   From: 2010.03.12/outbox.cif.g09.slc.cpg/sg84_1_cif.got.tgz:1407.got - 2010.04.08 20:07:29.
