data_PCOD8303450
_publ_section_title
;
Structure prediction by ZEFSAII (Michael W. Deem and Ramdas Pophale) SiO2 
 PCOD8303450
Probable space group: P 4/N
;
_chemical_formula_sum "Si O2"
_cell_formula_units_Z 64
_cell_length_a 20.610688
_cell_length_b 20.610688
_cell_length_c 8.427030
_cell_angle_alpha 90.000000
_cell_angle_beta 90.000000
_cell_angle_gamma 90.000000
_cell_volume 3579.806219
_symmetry_space_group_name_H-M "P 4/N"
_symmetry_group_IT_number 85
_symmetry_cell_setting 'tetragonal'
loop_
_space_group_symop_operation_xyz
x,y,z
1/2-y,x,z
1/2-x,1/2-y,z
y,1/2-x,z
-x,-y,-z
1/2+y,-x,-z
1/2+x,1/2+y,-z
-y,1/2+x,-z
loop_
_atom_site_type_symbol
_atom_site_label
_atom_site_fract_x
_atom_site_fract_y
_atom_site_fract_z
Si Si1 0.892815 0.317978 0.832566
Si Si2 0.914395 0.017885 0.279374
Si Si3 0.580380 0.018934 0.236620
Si Si4 0.619337 0.988149 0.587217
Si Si5 0.080155 0.812982 0.015265
Si Si6 0.383994 0.479242 0.368449
Si Si7 0.847708 0.280475 0.504777
Si Si8 0.028349 0.748877 0.705375
O O1 0.961417 0.356630 0.840008
O O2 0.842587 0.352646 0.950599
O O3 0.869715 0.324735 0.651323
O O4 0.899899 0.242001 0.861130
O O5 0.957710 0.081961 0.310476
O O6 0.884893 0.994585 0.444986
O O7 0.956500 0.963227 0.187972
O O8 0.533931 0.079776 0.266045
O O9 0.613263 0.999828 0.400959
O O10 0.632743 0.035550 0.100633
O O11 0.590745 0.918812 0.645603
O O12 0.695627 0.990986 0.611413
O O13 0.039667 0.775348 0.881527
O O14 0.311428 0.478443 0.298682
O O15 0.821629 0.211421 0.571321
O O16 0.903893 0.272908 0.374599
#
# Coordination Sequence:
#
# PCOD8303450 Si02
#       8
#     8   8   8   8   8   8   8   8
#     4  12  24  37  51  76 115 150 186 222 274 326
#     4   9  17  38  60  78 101 145 191 233 273 318
#     4   9  20  37  58  80 110 137 184 237 280 320
#     4   9  18  37  60  83 102 137 190 232 272 323
#     4  12  26  35  48  82 115 151 182 224 284 334
#     4   9  19  34  62  84 100 141 189 234 274 319
#     4  11  23  36  56  72 100 154 199 224 258 315
#     4  12  21  37  56  81 111 142 186 228 273 332
#
# _framework density 17.878063999999998
#
# number of rings (size 3 to 8) (size 9 to 14) (size 15 to 20)
#    0.000    1.625    3.750    3.000    5.250    0.750 
#    2.250    0.000    0.000    0.375    0.000    0.000 
#    0.000    0.500    0.000    0.000    0.000    0.000 
#
# Total GULP energy -793280.473035 kJ/mol
# GULP energy per Si atom -12395.007391 kJ/mol
# Density = 1.783737 g / cm^3
# Si number density = 17.878064 Si / 1000 Ang^3
#
#
#
# Elastic Constant Matrix: (Units=GPa)
#
#
# Indices 1 2 3 4 5 6 
#
# 1 88.3203 44.7644 30.2885 0.0000 0.0000 -1.1959
# 2 44.7644 88.3203 30.2885 0.0000 0.0000 1.1959
# 3 30.2885 30.2885 64.0768 0.0000 0.0000 0.0000
# 4 0.0000 0.0000 0.0000 29.7558 0.0000 0.0000
# 5 0.0000 0.0000 0.0000 0.0000 29.7558 0.0000
# 6 -1.1959 1.1959 0.0000 0.0000 0.0000 24.5321
#
#
#
# Elastic Compliance Matrix: (Units=1/GPa)
#
#
# Indices 1 2 3 4 5 6 
#
# 1 0.016297 -0.006723 -0.004525 0.000000 0.000000 0.001122
# 2 -0.006723 0.016297 -0.004525 0.000000 0.000000 -0.001122
# 3 -0.004525 -0.004525 0.019885 0.000000 0.000000 0.000000
# 4 0.000000 0.000000 0.000000 0.033607 0.000000 0.000000
# 5 0.000000 0.000000 0.000000 0.000000 0.033607 0.000000
# 6 0.001122 -0.001122 0.000000 0.000000 0.000000 0.040872
#
#
# Mechanical properties :
#
#
# Convention : Reuss Voigt Hill
#
# Bulk Modulus (GPa) = 47.77734 50.15558 48.96646
# Shear Modulus (GPa) = 25.11416 25.83379 25.47397
#
# Velocity S-wave (km/s) = 3.75206 3.80544 3.77884
# Velocity P-wave (km/s) = 6.74927 6.88648 6.81822
#
# Compressibility (1/GPa) = 0.02093043
#
# Stress axis : x y z
#
# Youngs Moduli (GPa) = 61.36001 61.36001 50.29019
#
# Poissons Ratio (x) = 0.41254 0.22759
# Poissons Ratio (y) = 0.41254 0.22759
# Poissons Ratio (z) = 0.27768 0.27768
#
# Static dielectric constant tensor:
#      x y z
#    x 3.349240 0.000000 0.000000 
#    y 0.000000 3.349240 0.000000 
#    z 0.000000 0.000000 3.222720 
# 
# 
# High freq. dielectric constant tensor:
#      x y z
#    x 1.678100 0.000000 0.000000 
#    y 0.000000 1.678100 0.000000 
#    z 0.000000 0.000000 1.690010 
# 
# From -- ./inp_files/1312.got.cif
#   From: 2010.03.12/outbox.cif.g09.slc.cpg/sg85_cif.got.tgz:1312.got - 2010.04.08 20:10:46.
