data_PCOD8303830
_publ_section_title
;
Structure prediction by ZEFSAII (Michael W. Deem and Ramdas Pophale) SiO2 
 PCOD8303830
Probable space group: I 4/M
;
_chemical_formula_sum "Si O2"
_cell_formula_units_Z 56
_cell_length_a 19.576364
_cell_length_b 19.576364
_cell_length_c 7.883962
_cell_angle_alpha 90.000000
_cell_angle_beta 90.000000
_cell_angle_gamma 90.000000
_cell_volume 3021.402510
_symmetry_space_group_name_H-M "I 4/M"
_symmetry_group_IT_number 87
_symmetry_cell_setting 'tetragonal'
loop_
_space_group_symop_operation_xyz
x,y,z
-y,x,z
-x,-y,z
y,-x,z
-x,-y,-z
y,-x,-z
x,y,-z
-y,x,-z
1/2+x,1/2+y,1/2+z
1/2-y,1/2+x,1/2+z
1/2-x,1/2-y,1/2+z
1/2+y,1/2-x,1/2+z
1/2-x,1/2-y,1/2-z
1/2+y,1/2-x,1/2-z
1/2+x,1/2+y,1/2-z
1/2-y,1/2+x,1/2-z
loop_
_atom_site_type_symbol
_atom_site_label
_atom_site_fract_x
_atom_site_fract_y
_atom_site_fract_z
Si Si1 0.139047 0.257341 0.804938
Si Si2 0.610488 0.486200 0.500000
Si Si3 0.648191 0.258929 0.198453
Si Si4 0.504014 0.709577 0.191712
O O1 0.189308 0.316493 0.734178
O O2 0.175553 0.183313 0.785613
O O3 0.067832 0.262107 0.700789
O O4 0.120585 0.269307 0.000000
O O5 0.575741 0.558862 0.500000
O O6 0.651896 0.478040 0.326901
O O7 0.567756 0.255084 0.241870
O O8 0.662150 0.266011 0.000000
O O9 0.498796 0.679680 0.000000
#
# Coordination Sequence:
#
# PCOD8303830 Si02
#       4
#    16   8  16  16
#     4  10  19  34  56  82 110 142 187 235 279 333
#     4  11  24  38  54  80 112 151 192 226 270 337
#     4   9  20  35  54  81 111 144 184 233 284 333
#     4  11  22  37  56  80 113 149 185 230 283 333
#
# _framework density 18.534438999999999
#
# number of rings (size 3 to 8) (size 9 to 14) (size 15 to 20)
#    0.000    1.857    1.429    2.571    2.000    4.571 
#    0.000    1.429    0.000    0.857    0.000    6.000 
#    0.000    0.000    0.000    0.000    0.000    0.000 
#
# Total GULP energy -347120.429570 kJ/mol
# GULP energy per Si atom -12397.158199 kJ/mol
# Density = 1.849225 g / cm^3
# Si number density = 18.534439 Si / 1000 Ang^3
#
#
#
# Elastic Constant Matrix: (Units=GPa)
#
#
# Indices 1 2 3 4 5 6 
#
# 1 109.8889 36.1870 13.9597 0.0000 0.0000 1.9984
# 2 36.1870 109.8889 13.9597 0.0000 0.0000 -1.9984
# 3 13.9597 13.9597 68.7731 0.0000 0.0000 0.0000
# 4 0.0000 0.0000 0.0000 13.8198 0.0000 0.0000
# 5 0.0000 0.0000 0.0000 0.0000 13.8198 0.0000
# 6 1.9984 -1.9984 0.0000 0.0000 0.0000 38.7680
#
#
#
# Elastic Compliance Matrix: (Units=1/GPa)
#
#
# Indices 1 2 3 4 5 6 
#
# 1 0.010364 -0.003242 -0.001446 0.000000 0.000000 -0.000701
# 2 -0.003242 0.010364 -0.001446 0.000000 0.000000 0.000701
# 3 -0.001446 -0.001446 0.015127 0.000000 0.000000 0.000000
# 4 0.000000 0.000000 0.000000 0.072360 0.000000 0.000000
# 5 0.000000 0.000000 0.000000 0.000000 0.072360 0.000000
# 6 -0.000701 0.000701 0.000000 0.000000 0.000000 0.025867
#
#
# Mechanical properties :
#
#
# Convention : Reuss Voigt Hill
#
# Bulk Modulus (GPa) = 42.39268 46.30705 44.34986
# Shear Modulus (GPa) = 22.06805 28.24449 25.15627
#
# Velocity S-wave (km/s) = 3.45432 3.90794 3.68811
# Velocity P-wave (km/s) = 6.23152 6.73804 6.48973
#
# Compressibility (1/GPa) = 0.02358898
#
# Stress axis : x y z
#
# Youngs Moduli (GPa) = 96.48658 96.48658 66.10503
#
# Poissons Ratio (x) = 0.31282 0.09556
# Poissons Ratio (y) = 0.31282 0.09556
# Poissons Ratio (z) = 0.13949 0.13949
#
# Static dielectric constant tensor:
#      x y z
#    x 3.502720 0.000000 0.000000 
#    y 0.000000 3.502720 0.000000 
#    z 0.000000 0.000000 3.463850 
# 
# 
# High freq. dielectric constant tensor:
#      x y z
#    x 1.706440 0.000000 0.000000 
#    y 0.000000 1.706440 0.000000 
#    z 0.000000 0.000000 1.730660 
# 
# From -- ./inp_files/732.got.cif
#   From: 2010.03.12/outbox.cif.g09.slc.cpg/sg87_1_cif.got.tgz:732.got - 2010.04.08 20:16:13.
