data_PCOD8303358
_publ_section_title
;
Structure prediction by ZEFSAII (Michael W. Deem and Ramdas Pophale) SiO2 
 PCOD8303358
Probable space group: P 42/M
;
_chemical_formula_sum "Si O2"
_cell_formula_units_Z 24
_cell_length_a 9.320920
_cell_length_b 9.320920
_cell_length_c 12.962339
_cell_angle_alpha 90.000000
_cell_angle_beta 90.000000
_cell_angle_gamma 90.000000
_cell_volume 1126.162175
_symmetry_space_group_name_H-M "P 42/M"
_symmetry_group_IT_number 84
_symmetry_cell_setting 'tetragonal'
loop_
_space_group_symop_operation_xyz
x,y,z
-y,x,1/2+z
-x,-y,z
y,-x,1/2+z
-x,-y,-z
y,-x,1/2-z
x,y,-z
-y,x,1/2-z
loop_
_atom_site_type_symbol
_atom_site_label
_atom_site_fract_x
_atom_site_fract_y
_atom_site_fract_z
Si Si1 0.580063 0.294466 0.714128
Si Si2 0.116886 0.173142 0.707942
Si Si3 0.420139 0.847033 0.500000
Si Si4 0.037760 0.837058 0.000000
O O1 0.436945 0.320778 0.781381
O O2 0.666860 0.162023 0.762412
O O3 0.539200 0.251964 0.597483
O O4 0.194963 0.132826 0.601021
O O5 0.942556 0.166872 0.704007
O O6 0.500000 0.000000 0.500000
O O7 0.252669 0.889918 0.500000
O O8 0.000000 0.000000 0.000000
#
# Coordination Sequence:
#
# PCOD8303358 Si02
#       4
#     8   8   4   4
#     4  11  26  43  64  98 134 172 222 275 326 400
#     4  11  21  38  65  97 131 171 225 279 331 393
#     4  12  24  44  73  93 130 190 221 260 352 408
#     4  12  20  37  65  99 127 170 219 279 335 389
#
# _framework density 21.311318
#
# number of rings (size 3 to 8) (size 9 to 14) (size 15 to 20)
#    0.000    0.667    6.667    2.000    0.000    4.000 
#    0.000    0.000    0.000    6.000    0.000    0.000 
#    0.000    0.000    0.000    0.000    0.000    0.000 
#
# Total GULP energy -297576.853899 kJ/mol
# GULP energy per Si atom -12399.035579 kJ/mol
# Density = 2.126281 g / cm^3
# Si number density = 21.311318 Si / 1000 Ang^3
#
#
#
# Elastic Constant Matrix: (Units=GPa)
#
#
# Indices 1 2 3 4 5 6 
#
# 1 96.4356 31.4073 31.1868 0.0000 0.0000 -16.0070
# 2 31.4073 96.4356 31.1868 0.0000 0.0000 16.0070
# 3 31.1868 31.1868 140.5999 0.0000 0.0000 0.0000
# 4 0.0000 0.0000 0.0000 26.1302 0.0000 0.0000
# 5 0.0000 0.0000 0.0000 0.0000 26.1302 0.0000
# 6 -16.0070 16.0070 0.0000 0.0000 0.0000 45.4054
#
#
#
# Elastic Compliance Matrix: (Units=1/GPa)
#
#
# Indices 1 2 3 4 5 6 
#
# 1 0.013689 -0.004918 -0.001946 0.000000 0.000000 0.006560
# 2 -0.004918 0.013689 -0.001946 0.000000 0.000000 -0.006560
# 3 -0.001946 -0.001946 0.007975 0.000000 0.000000 0.000000
# 4 0.000000 0.000000 0.000000 0.038270 0.000000 0.000000
# 5 0.000000 0.000000 0.000000 0.000000 0.038270 0.000000
# 6 0.006560 -0.006560 0.000000 0.000000 0.000000 0.026649
#
#
# Mechanical properties :
#
#
# Convention : Reuss Voigt Hill
#
# Bulk Modulus (GPa) = 56.38313 57.89256 57.13784
# Shear Modulus (GPa) = 30.85027 35.51250 33.18138
#
# Velocity S-wave (km/s) = 3.80886 4.08655 3.95014
# Velocity P-wave (km/s) = 6.77182 7.03496 6.90464
#
# Compressibility (1/GPa) = 0.01773580
#
# Stress axis : x y z
#
# Youngs Moduli (GPa) = 73.04952 73.04952 125.38402
#
# Poissons Ratio (x) = 0.35926 0.24395
# Poissons Ratio (y) = 0.35926 0.24395
# Poissons Ratio (z) = 0.14212 0.14212
#
# Static dielectric constant tensor:
#      x y z
#    x 4.047490 0.000000 0.000000 
#    y 0.000000 4.047490 0.000000 
#    z 0.000000 0.000000 4.897200 
# 
# 
# High freq. dielectric constant tensor:
#      x y z
#    x 1.832560 0.000000 0.000000 
#    y 0.000000 1.832560 0.000000 
#    z 0.000000 0.000000 1.834370 
# 
# From -- ./inp_files/2619.got.cif
#   From: 2010.03.12/outbox.cif.g09.slc.cpg/sg84_2_cif.got.tgz:2619.got - 2010.04.08 20:07:29.
