data_PCOD8303977
_publ_section_title
;
Structure prediction by ZEFSAII (Michael W. Deem and Ramdas Pophale) SiO2 
 PCOD8303977
Probable space group: I 4/M
;
_chemical_formula_sum "Si O2"
_cell_formula_units_Z 64
_cell_length_a 19.441116
_cell_length_b 19.441116
_cell_length_c 8.670568
_cell_angle_alpha 90.000000
_cell_angle_beta 90.000000
_cell_angle_gamma 90.000000
_cell_volume 3277.101794
_symmetry_space_group_name_H-M "I 4/M"
_symmetry_group_IT_number 87
_symmetry_cell_setting 'tetragonal'
loop_
_space_group_symop_operation_xyz
x,y,z
-y,x,z
-x,-y,z
y,-x,z
-x,-y,-z
y,-x,-z
x,y,-z
-y,x,-z
1/2+x,1/2+y,1/2+z
1/2-y,1/2+x,1/2+z
1/2-x,1/2-y,1/2+z
1/2+y,1/2-x,1/2+z
1/2-x,1/2-y,1/2-z
1/2+y,1/2-x,1/2-z
1/2+x,1/2+y,1/2-z
1/2-y,1/2+x,1/2-z
loop_
_atom_site_type_symbol
_atom_site_label
_atom_site_fract_x
_atom_site_fract_y
_atom_site_fract_z
Si Si1 0.408319 0.435857 0.677521
Si Si2 0.945787 0.587510 0.819021
Si Si3 0.185738 0.660568 0.178829
Si Si4 0.801301 0.838538 0.321808
O O1 0.483436 0.405916 0.714415
O O2 0.389434 0.421819 0.500000
O O3 0.353647 0.399682 0.787273
O O4 0.906053 0.519009 0.765463
O O5 0.901013 0.653961 0.777833
O O6 0.959251 0.584432 0.000000
O O7 0.150224 0.732754 0.222216
O O8 0.266282 0.663009 0.221160
O O9 0.172579 0.645654 0.000000
O O10 0.779917 0.839882 0.500000
#
# Coordination Sequence:
#
# PCOD8303977 Si02
#       4
#    16  16  16  16
#     4   9  19  36  56  78 107 144 183 221 265 322
#     4  11  22  38  59  83 112 145 183 226 274 326
#     4  10  21  38  57  79 110 146 183 224 271 325
#     4  10  21  36  56  82 110 141 180 227 275 324
#
# _framework density 19.529453
#
# number of rings (size 3 to 8) (size 9 to 14) (size 15 to 20)
#    0.000    2.000    0.000    5.250    0.000    6.000 
#    0.000    6.250    0.000    0.000    0.000    0.000 
#    0.000    0.000    0.000    0.000    0.000    0.000 
#
# Total GULP energy -396972.205615 kJ/mol
# GULP energy per Si atom -12405.381425 kJ/mol
# Density = 1.948500 g / cm^3
# Si number density = 19.529453 Si / 1000 Ang^3
#
#
#
# Elastic Constant Matrix: (Units=GPa)
#
#
# Indices 1 2 3 4 5 6 
#
# 1 21.5301 -3.3307 1.8022 0.0000 0.0000 0.8330
# 2 -3.3307 21.5301 1.8022 0.0000 0.0000 -0.8330
# 3 1.8022 1.8022 56.4133 0.0000 0.0000 0.0000
# 4 0.0000 0.0000 0.0000 34.5055 0.0000 0.0000
# 5 0.0000 0.0000 0.0000 0.0000 34.5055 0.0000
# 6 0.8330 -0.8330 0.0000 0.0000 0.0000 39.6873
#
#
#
# Elastic Compliance Matrix: (Units=1/GPa)
#
#
# Indices 1 2 3 4 5 6 
#
# 1 0.047789 0.007508 -0.001767 0.000000 0.000000 -0.000845
# 2 0.007508 0.047789 -0.001767 0.000000 0.000000 0.000845
# 3 -0.001767 -0.001767 0.017839 0.000000 0.000000 0.000000
# 4 0.000000 0.000000 0.000000 0.028981 0.000000 0.000000
# 5 0.000000 0.000000 0.000000 0.000000 0.028981 0.000000
# 6 -0.000845 0.000845 0.000000 0.000000 0.000000 0.025232
#
#
# Mechanical properties :
#
#
# Convention : Reuss Voigt Hill
#
# Bulk Modulus (GPa) = 8.23952 11.11344 9.67648
# Shear Modulus (GPa) = 21.82298 28.35297 25.08797
#
# Velocity S-wave (km/s) = 3.34644 3.81439 3.58805
# Velocity P-wave (km/s) = 4.37718 5.01023 4.70437
#
# Compressibility (1/GPa) = 0.12136625
#
# Stress axis : x y z
#
# Youngs Moduli (GPa) = 20.92548 20.92548 56.05640
#
# Poissons Ratio (x) = -0.15711 0.09902
# Poissons Ratio (y) = -0.15711 0.09902
# Poissons Ratio (z) = 0.03697 0.03697
#
# Static dielectric constant tensor:
#      x y z
#    x 3.477260 0.000000 0.000000 
#    y 0.000000 3.477260 0.000000 
#    z 0.000000 0.000000 3.538400 
# 
# 
# High freq. dielectric constant tensor:
#      x y z
#    x 1.758380 0.000000 0.000000 
#    y 0.000000 1.758380 0.000000 
#    z 0.000000 0.000000 1.768390 
# 
# From -- ./inp_files/923.got.cif
#   From: 2010.03.12/outbox.cif.g09.slc.cpg/sg87_1_cif.got.tgz:923.got - 2010.04.08 20:16:13.
