data_PCOD8303231
_publ_section_title
;
Structure prediction by ZEFSAII (Michael W. Deem and Ramdas Pophale) SiO2 
 PCOD8303231
Probable space group: P 42/M
;
_chemical_formula_sum "Si O2"
_cell_formula_units_Z 40
_cell_length_a 15.639837
_cell_length_b 15.639837
_cell_length_c 8.527649
_cell_angle_alpha 90.000000
_cell_angle_beta 90.000000
_cell_angle_gamma 90.000000
_cell_volume 2085.901332
_symmetry_space_group_name_H-M "P 42/M"
_symmetry_group_IT_number 84
_symmetry_cell_setting 'tetragonal'
loop_
_space_group_symop_operation_xyz
x,y,z
-y,x,1/2+z
-x,-y,z
y,-x,1/2+z
-x,-y,-z
y,-x,1/2-z
x,y,-z
-y,x,1/2-z
loop_
_atom_site_type_symbol
_atom_site_label
_atom_site_fract_x
_atom_site_fract_y
_atom_site_fract_z
Si Si1 0.375692 0.529086 0.181892
Si Si2 0.432032 0.924759 0.672702
Si Si3 0.306384 0.063716 0.313586
Si Si4 0.875942 0.964775 0.816002
Si Si5 0.194905 0.558009 0.318164
O O1 0.443705 0.603362 0.220406
O O2 0.282506 0.563069 0.223806
O O3 0.381099 0.506360 0.000000
O O4 0.419597 0.883506 0.500000
O O5 0.466343 0.851653 0.789114
O O6 0.500000 0.000000 0.660307
O O7 0.344137 0.969448 0.731197
O O8 0.303906 0.075213 0.500000
O O9 0.213653 0.073363 0.239068
O O10 0.364120 0.137609 0.240633
O O11 0.947872 0.894589 0.777066
O O12 0.875750 0.983726 0.000000
O O13 0.214259 0.568055 0.500000
#
# Coordination Sequence:
#
# PCOD8303231 Si02
#       5
#     8   8   8   8   8
#     4  11  22  40  62  84 113 150 192 234 285 341
#     4   8  16  32  54  79 111 150 185 225 280 333
#     4  10  20  37  59  85 117 151 191 237 286 336
#     4  11  22  39  61  84 113 151 193 234 286 343
#     4  11  21  35  57  87 119 151 190 234 285 339
#
# _framework density 19.176362999999998
#
# number of rings (size 3 to 8) (size 9 to 14) (size 15 to 20)
#    0.000    1.800    0.000    8.400    0.000    4.400 
#    3.600    0.000    0.000    0.000    0.000    0.000 
#    0.000    0.000    0.000    0.000    0.000    0.000 
#
# Total GULP energy -496011.035411 kJ/mol
# GULP energy per Si atom -12400.275885 kJ/mol
# Density = 1.913272 g / cm^3
# Si number density = 19.176363 Si / 1000 Ang^3
#
#
#
# Elastic Constant Matrix: (Units=GPa)
#
#
# Indices 1 2 3 4 5 6 
#
# 1 93.9046 30.9626 21.0076 0.0000 0.0000 0.2456
# 2 30.9626 93.9046 21.0076 0.0000 0.0000 -0.2456
# 3 21.0076 21.0076 98.1965 0.0000 0.0000 0.0000
# 4 0.0000 0.0000 0.0000 29.5399 0.0000 0.0000
# 5 0.0000 0.0000 0.0000 0.0000 29.5399 0.0000
# 6 0.2456 -0.2456 0.0000 0.0000 0.0000 14.2107
#
#
#
# Elastic Compliance Matrix: (Units=1/GPa)
#
#
# Indices 1 2 3 4 5 6 
#
# 1 0.012260 -0.003630 -0.001846 0.000000 0.000000 -0.000275
# 2 -0.003630 0.012260 -0.001846 0.000000 0.000000 0.000275
# 3 -0.001846 -0.001846 0.010974 0.000000 0.000000 0.000000
# 4 0.000000 0.000000 0.000000 0.033853 0.000000 0.000000
# 5 0.000000 0.000000 0.000000 0.000000 0.033853 0.000000
# 6 -0.000275 0.000275 0.000000 0.000000 0.000000 0.070379
#
#
# Mechanical properties :
#
#
# Convention : Reuss Voigt Hill
#
# Bulk Modulus (GPa) = 47.96566 47.99570 47.98068
# Shear Modulus (GPa) = 25.61851 28.85995 27.23923
#
# Velocity S-wave (km/s) = 3.65902 3.88361 3.77299
# Velocity P-wave (km/s) = 6.55122 6.72256 6.63744
#
# Compressibility (1/GPa) = 0.02084825
#
# Stress axis : x y z
#
# Youngs Moduli (GPa) = 81.56771 81.56771 91.12785
#
# Poissons Ratio (x) = 0.29609 0.16824
# Poissons Ratio (y) = 0.29609 0.16824
# Poissons Ratio (z) = 0.15059 0.15059
#
# Static dielectric constant tensor:
#      x y z
#    x 3.590110 0.000000 0.000000 
#    y 0.000000 3.590110 0.000000 
#    z 0.000000 0.000000 3.575160 
# 
# 
# High freq. dielectric constant tensor:
#      x y z
#    x 1.737330 0.000000 0.000000 
#    y 0.000000 1.737330 0.000000 
#    z 0.000000 0.000000 1.758140 
# 
# From -- ./inp_files/791.got.cif
#   From: 2010.03.12/outbox.cif.g09.slc.cpg/sg84_1_cif.got.tgz:791.got - 2010.04.08 20:07:29.
