data_PCOD8303083
_publ_section_title
;
Structure prediction by ZEFSAII (Michael W. Deem and Ramdas Pophale) SiO2 
 PCOD8303083
Probable space group: P 42/M
;
_chemical_formula_sum "Si O2"
_cell_formula_units_Z 48
_cell_length_a 8.125484
_cell_length_b 8.125484
_cell_length_c 31.866762
_cell_angle_alpha 90.000000
_cell_angle_beta 90.000000
_cell_angle_gamma 90.000000
_cell_volume 2103.954850
_symmetry_space_group_name_H-M "P 42/M"
_symmetry_group_IT_number 84
_symmetry_cell_setting 'tetragonal'
loop_
_space_group_symop_operation_xyz
x,y,z
-y,x,1/2+z
-x,-y,z
y,-x,1/2+z
-x,-y,-z
y,-x,1/2-z
x,y,-z
-y,x,1/2-z
loop_
_atom_site_type_symbol
_atom_site_label
_atom_site_fract_x
_atom_site_fract_y
_atom_site_fract_z
Si Si1 0.799097 0.827848 0.185261
Si Si2 0.470906 0.329506 0.326101
Si Si3 0.309833 0.321001 0.951781
Si Si4 0.669013 0.344256 0.917659
Si Si5 0.918905 0.327816 0.771230
Si Si6 0.989416 0.301881 0.602645
O O1 0.762242 0.645081 0.167574
O O2 0.676975 0.886706 0.221776
O O3 0.975542 0.822175 0.209080
O O4 0.787032 0.958052 0.147358
O O5 0.500000 0.500000 0.302237
O O6 0.386664 0.373877 0.370082
O O7 0.330408 0.247833 0.297696
O O8 0.505549 0.327774 0.945377
O O9 0.230325 0.497710 0.936538
O O10 0.243473 0.160887 0.927018
O O11 0.265040 0.293987 0.000000
O O12 0.761006 0.165174 0.917026
O O13 0.000000 0.500000 0.781712
O O14 0.000000 0.500000 0.608223
#
# Coordination Sequence:
#
# PCOD8303083 Si02
#       6
#     8   8   8   8   8   8
#     4  11  23  43  56  83 132 159 222 272 324 391
#     4  11  21  38  63  87 118 161 216 260 329 393
#     4  10  19  34  55  93 134 160 204 277 341 401
#     4  10  18  33  55  88 117 163 208 258 333 397
#     4  10  26  39  60  91 118 175 220 277 328 388
#     4  10  20  34  60  85 123 173 210 262 331 404
#
# _framework density 22.814178999999999
#
# number of rings (size 3 to 8) (size 9 to 14) (size 15 to 20)
#    0.000    1.667    3.333    2.500    7.000    4.000 
#    0.000    0.000    0.000    0.000    0.000    3.500 
#    0.000   13.333    0.000    0.000    0.000    0.000 
#
# Total GULP energy -594627.511748 kJ/mol
# GULP energy per Si atom -12388.073161 kJ/mol
# Density = 2.276225 g / cm^3
# Si number density = 22.814179 Si / 1000 Ang^3
#
#
#
# Elastic Constant Matrix: (Units=GPa)
#
#
# Indices 1 2 3 4 5 6 
#
# 1 115.6440 10.3105 42.4352 0.0000 0.0000 -1.9061
# 2 10.3105 115.6440 42.4352 0.0000 0.0000 1.9061
# 3 42.4352 42.4352 152.8109 0.0000 0.0000 0.0000
# 4 0.0000 0.0000 0.0000 0.4045 0.0000 0.0000
# 5 0.0000 0.0000 0.0000 0.0000 0.4045 0.0000
# 6 -1.9061 1.9061 0.0000 0.0000 0.0000 13.3229
#
#
#
# Elastic Compliance Matrix: (Units=1/GPa)
#
#
# Indices 1 2 3 4 5 6 
#
# 1 0.009655 0.000112 -0.002712 0.000000 0.000000 0.001365
# 2 0.000112 0.009655 -0.002712 0.000000 0.000000 -0.001365
# 3 -0.002712 -0.002712 0.008050 0.000000 0.000000 0.000000
# 4 0.000000 0.000000 0.000000 2.472147 0.000000 0.000000
# 5 0.000000 0.000000 0.000000 0.000000 2.472147 0.000000
# 6 0.001365 -0.001365 0.000000 0.000000 0.000000 0.075449
#
#
# Mechanical properties :
#
#
# Convention : Reuss Voigt Hill
#
# Bulk Modulus (GPa) = 59.75403 63.82896 61.79149
# Shear Modulus (GPa) = 0.98750 22.08759 11.53754
#
# Velocity S-wave (km/s) = 0.65862 3.11489 2.25126
# Velocity P-wave (km/s) = 5.17946 6.40119 5.82246
#
# Compressibility (1/GPa) = 0.01673527
#
# Stress axis : x y z
#
# Youngs Moduli (GPa) = 103.57320 103.57320 124.21735
#
# Poissons Ratio (x) = -0.01159 0.33691
# Poissons Ratio (y) = -0.01159 0.33691
# Poissons Ratio (z) = 0.28092 0.28092
#
# Static dielectric constant tensor:
#      x y z
#    x 4.381150 0.000000 0.000000 
#    y 0.000000 4.381150 0.000000 
#    z 0.000000 0.000000 3.895990 
# 
# 
# High freq. dielectric constant tensor:
#      x y z
#    x 1.884650 0.000000 0.000000 
#    y 0.000000 1.884650 0.000000 
#    z 0.000000 0.000000 1.895180 
# 
# From -- ./inp_files/5790.got.cif
#   From: 2010.03.12/outbox.cif.g09.slc.cpg/sg84_3_cif.got.tgz:5790.got - 2010.04.08 20:07:29.
