data_PCOD8303465
_publ_section_title
;
Structure prediction by ZEFSAII (Michael W. Deem and Ramdas Pophale) SiO2 
 PCOD8303465
Probable space group: P 4/N
;
_chemical_formula_sum "Si O2"
_cell_formula_units_Z 40
_cell_length_a 15.889747
_cell_length_b 15.889747
_cell_length_c 6.341762
_cell_angle_alpha 90.000000
_cell_angle_beta 90.000000
_cell_angle_gamma 90.000000
_cell_volume 1601.193816
_symmetry_space_group_name_H-M "P 4/N"
_symmetry_group_IT_number 85
_symmetry_cell_setting 'tetragonal'
loop_
_space_group_symop_operation_xyz
x,y,z
1/2-y,x,z
1/2-x,1/2-y,z
y,1/2-x,z
-x,-y,-z
1/2+y,-x,-z
1/2+x,1/2+y,-z
-y,1/2+x,-z
loop_
_atom_site_type_symbol
_atom_site_label
_atom_site_fract_x
_atom_site_fract_y
_atom_site_fract_z
Si Si1 0.607677 0.993433 0.614233
Si Si2 0.378284 0.286516 0.128512
Si Si3 0.861470 0.027639 0.570641
Si Si4 0.031405 0.229935 0.730779
Si Si5 0.381361 0.775612 0.964316
O O1 0.682891 0.968709 0.778245
O O2 0.527087 0.936619 0.675051
O O3 0.584547 0.092793 0.613154
O O4 0.638317 0.978015 0.373588
O O5 0.307152 0.352598 0.204445
O O6 0.385599 0.278192 0.875384
O O7 0.796778 0.962574 0.460514
O O8 0.815413 0.085598 0.743764
O O9 0.955096 0.261106 0.871811
O O10 0.337752 0.685484 0.923030
#
# Coordination Sequence:
#
# PCOD8303465 Si02
#       5
#     8   8   8   8   8
#     4  11  24  46  71 105 147 190 250 307 374 454
#     4  11  25  46  72 106 148 197 258 317 373 447
#     4  11  26  45  72 110 145 196 248 309 379 458
#     4  12  24  42  74 103 146 192 243 303 379 445
#     4  11  25  45  70 106 146 192 245 306 375 454
#
# _framework density 24.981359999999999
#
# number of rings (size 3 to 8) (size 9 to 14) (size 15 to 20)
#    0.000    0.800    2.000    4.800    5.600    0.000 
#    0.000    9.000    0.000    0.000    0.000    0.000 
#    0.000    0.000    0.000    0.000    0.000    0.000 
#
# Total GULP energy -495592.927882 kJ/mol
# GULP energy per Si atom -12389.823197 kJ/mol
# Density = 2.492450 g / cm^3
# Si number density = 24.981360 Si / 1000 Ang^3
#
#
#
# Elastic Constant Matrix: (Units=GPa)
#
#
# Indices 1 2 3 4 5 6 
#
# 1 93.5723 43.0904 44.4239 0.0000 0.0000 10.6158
# 2 43.0904 93.5723 44.4239 0.0000 0.0000 -10.6158
# 3 44.4239 44.4239 97.7316 0.0000 0.0000 0.0000
# 4 0.0000 0.0000 0.0000 47.7649 0.0000 0.0000
# 5 0.0000 0.0000 0.0000 0.0000 47.7649 0.0000
# 6 10.6158 -10.6158 0.0000 0.0000 0.0000 45.0647
#
#
#
# Elastic Compliance Matrix: (Units=1/GPa)
#
#
# Indices 1 2 3 4 5 6 
#
# 1 0.016187 -0.005800 -0.004721 0.000000 0.000000 -0.005180
# 2 -0.005800 0.016187 -0.004721 0.000000 0.000000 0.005180
# 3 -0.004721 -0.004721 0.014524 0.000000 0.000000 0.000000
# 4 0.000000 0.000000 0.000000 0.020936 0.000000 0.000000
# 5 0.000000 0.000000 0.000000 0.000000 0.020936 0.000000
# 6 -0.005180 0.005180 0.000000 0.000000 0.000000 0.024631
#
#
# Mechanical properties :
#
#
# Convention : Reuss Voigt Hill
#
# Bulk Modulus (GPa) = 60.92912 60.97254 60.95083
# Shear Modulus (GPa) = 33.47673 38.31478 35.89576
#
# Velocity S-wave (km/s) = 3.66467 3.92054 3.79476
# Velocity P-wave (km/s) = 6.50762 6.70480 6.60695
#
# Compressibility (1/GPa) = 0.01641251
#
# Stress axis : x y z
#
# Youngs Moduli (GPa) = 61.77760 61.77760 68.85051
#
# Poissons Ratio (x) = 0.35833 0.32506
# Poissons Ratio (y) = 0.35833 0.32506
# Poissons Ratio (z) = 0.29167 0.29167
#
# Static dielectric constant tensor:
#      x y z
#    x 4.663170 0.000000 0.000000 
#    y 0.000000 4.663170 0.000000 
#    z 0.000000 0.000000 4.443970 
# 
# 
# High freq. dielectric constant tensor:
#      x y z
#    x 2.006150 0.000000 0.000000 
#    y 0.000000 2.006150 0.000000 
#    z 0.000000 0.000000 1.980570 
# 
# From -- ./inp_files/327.got.cif
#   From: 2010.03.12/outbox.cif.g09.slc.cpg/sg85_cif.got.tgz:327.got - 2010.04.08 20:10:46.
