data_PCOD8303473
_publ_section_title
;
Structure prediction by ZEFSAII (Michael W. Deem and Ramdas Pophale) SiO2 
 PCOD8303473
Probable space group: P 42/N
;
_chemical_formula_sum "Si O2"
_cell_formula_units_Z 60
_cell_length_a 13.761206
_cell_length_b 13.761206
_cell_length_c 14.356237
_cell_angle_alpha 90.000000
_cell_angle_beta 90.000000
_cell_angle_gamma 90.000000
_cell_volume 2718.651950
_symmetry_space_group_name_H-M "P 42/N"
_symmetry_group_IT_number 86
_space_group.IT_coordinate_system_code '2'
_symmetry_cell_setting 'tetragonal'
loop_
_space_group_symop_operation_xyz
x,y,z
-y,1/2+x,1/2+z
1/2-x,1/2-y,z
1/2+y,-x,1/2+z
-x,-y,-z
y,1/2-x,1/2-z
1/2+x,1/2+y,-z
1/2-y,x,1/2-z
loop_
_atom_site_type_symbol
_atom_site_label
_atom_site_fract_x
_atom_site_fract_y
_atom_site_fract_z
Si Si1 0.250000 0.750000 0.881782
Si Si2 0.165667 0.904242 0.739533
Si Si3 0.242569 0.397743 0.780982
Si Si4 0.639116 0.442186 0.954671
Si Si5 0.383952 0.772374 0.044592
Si Si6 0.090005 0.242165 0.034026
Si Si7 0.606860 0.737114 0.490259
Si Si8 0.002277 0.921712 0.866897
O O1 0.197838 0.827338 0.817129
O O2 0.329232 0.804244 0.949247
O O3 0.160564 0.861990 0.634597
O O4 0.055553 0.932926 0.767776
O O5 0.239260 0.994962 0.741384
O O6 0.343704 0.337103 0.782382
O O7 0.198834 0.402330 0.885095
O O8 0.661133 0.332330 0.925305
O O9 0.578426 0.494475 0.872981
O O10 0.740468 0.500322 0.968379
O O11 0.580668 0.438721 0.051581
O O12 0.500137 0.769862 0.031902
O O13 0.047294 0.186090 0.124854
O O14 0.161298 0.165572 0.983960
O O15 0.154628 0.339164 0.053555
#
# Coordination Sequence:
#
# PCOD8303473 Si02
#       8
#     4   8   8   8   8   8   8   8
#     4  12  24  44  58  84 114 170 230 258 296 368
#     4  12  23  37  63  90 124 165 211 257 317 381
#     4  11  21  32  53  97 140 154 189 257 329 393
#     4   9  17  33  57  85 123 158 210 248 309 383
#     4  11  22  38  59  86 120 167 205 267 317 378
#     4   9  17  31  53  87 128 162 205 247 311 371
#     4  10  16  29  53  87 125 170 197 249 315 380
#     4   9  17  32  55  87 123 163 201 250 303 389
#
# _framework density 22.069759999999999
#
# number of rings (size 3 to 8) (size 9 to 14) (size 15 to 20)
#    0.000    1.733    4.000    4.400    1.867    0.000 
#    0.000    0.000    0.000    8.800    0.000    0.000 
#    0.000    5.067    0.000    0.000    0.000    0.000 
#
# Total GULP energy -743567.882107 kJ/mol
# GULP energy per Si atom -12392.798035 kJ/mol
# Density = 2.201953 g / cm^3
# Si number density = 22.069760 Si / 1000 Ang^3
#
#
#
# Elastic Constant Matrix: (Units=GPa)
#
#
# Indices 1 2 3 4 5 6 
#
# 1 62.1097 4.1895 10.0109 0.0000 0.0000 1.4614
# 2 4.1895 62.1097 10.0109 0.0000 0.0000 -1.4614
# 3 10.0109 10.0109 74.7238 0.0000 0.0000 0.0000
# 4 0.0000 0.0000 0.0000 25.8315 0.0000 0.0000
# 5 0.0000 0.0000 0.0000 0.0000 25.8315 0.0000
# 6 1.4614 -1.4614 0.0000 0.0000 0.0000 36.5929
#
#
#
# Elastic Compliance Matrix: (Units=1/GPa)
#
#
# Indices 1 2 3 4 5 6 
#
# 1 0.016510 -0.000790 -0.002106 0.000000 0.000000 -0.000691
# 2 -0.000790 0.016510 -0.002106 0.000000 0.000000 0.000691
# 3 -0.002106 -0.002106 0.013947 0.000000 0.000000 0.000000
# 4 0.000000 0.000000 0.000000 0.038712 0.000000 0.000000
# 5 0.000000 0.000000 0.000000 0.000000 0.038712 0.000000
# 6 -0.000691 0.000691 0.000000 0.000000 0.000000 0.027383
#
#
# Mechanical properties :
#
#
# Convention : Reuss Voigt Hill
#
# Bulk Modulus (GPa) = 27.05526 27.48511 27.27019
# Shear Modulus (GPa) = 28.71931 29.29996 29.00964
#
# Velocity S-wave (km/s) = 3.61126 3.64759 3.62947
# Velocity P-wave (km/s) = 5.44737 5.49733 5.47241
#
# Compressibility (1/GPa) = 0.03696139
#
# Stress axis : x y z
#
# Youngs Moduli (GPa) = 60.57097 60.57097 71.70059
#
# Poissons Ratio (x) = 0.04788 0.15100
# Poissons Ratio (y) = 0.04788 0.15100
# Poissons Ratio (z) = 0.12756 0.12756
#
# Static dielectric constant tensor:
#      x y z
#    x 4.170710 0.000000 0.000000 
#    y 0.000000 4.170710 0.000000 
#    z 0.000000 0.000000 3.585440 
# 
# 
# High freq. dielectric constant tensor:
#      x y z
#    x 1.863030 0.000000 0.000000 
#    y 0.000000 1.863030 0.000000 
#    z 0.000000 0.000000 1.829280 
# 
# From -- ./inp_files/3088.got.cif
#   From: 2010.03.12/outbox.cif.g09.slc.cpg/sg86_2_cif.got.tgz:3088.got - 2010.04.08 20:12:58.
