data_PCOD8303238
_publ_section_title
;
Structure prediction by ZEFSAII (Michael W. Deem and Ramdas Pophale) SiO2 
 PCOD8303238
Probable space group: P 42/M
;
_chemical_formula_sum "Si O2"
_cell_formula_units_Z 40
_cell_length_a 14.963665
_cell_length_b 14.963665
_cell_length_c 8.733993
_cell_angle_alpha 90.000000
_cell_angle_beta 90.000000
_cell_angle_gamma 90.000000
_cell_volume 1955.639467
_symmetry_space_group_name_H-M "P 42/M"
_symmetry_group_IT_number 84
_symmetry_cell_setting 'tetragonal'
loop_
_space_group_symop_operation_xyz
x,y,z
-y,x,1/2+z
-x,-y,z
y,-x,1/2+z
-x,-y,-z
y,-x,1/2-z
x,y,-z
-y,x,1/2-z
loop_
_atom_site_type_symbol
_atom_site_label
_atom_site_fract_x
_atom_site_fract_y
_atom_site_fract_z
Si Si1 0.724507 0.610337 0.320915
Si Si2 0.424838 0.252527 0.318957
Si Si3 0.950136 0.408046 0.179036
Si Si4 0.111834 0.929243 0.320326
Si Si5 0.903788 0.707795 0.678441
O O1 0.710614 0.596920 0.500000
O O2 0.656003 0.685517 0.259149
O O3 0.704656 0.516738 0.239966
O O4 0.825487 0.638529 0.281089
O O5 0.428298 0.249762 0.500000
O O6 0.411772 0.151266 0.258043
O O7 0.000000 0.500000 0.214601
O O8 0.000778 0.331006 0.271640
O O9 0.953524 0.384290 0.000000
O O10 0.093544 0.920480 0.500000
O O11 0.203290 0.881198 0.273623
O O12 0.032775 0.881377 0.227907
O O13 0.905588 0.731677 0.500000
#
# Coordination Sequence:
#
# PCOD8303238 Si02
#       5
#     8   8   8   8   8
#     4  10  23  41  61  88 123 160 202 256 314 367
#     4  10  22  41  63  89 120 159 204 252 311 373
#     4  10  20  37  62  88 116 156 201 249 307 364
#     4  11  23  41  62  87 122 163 207 251 301 362
#     4  11  23  38  59  90 124 160 203 253 309 371
#
# _framework density 20.453669000000001
#
# number of rings (size 3 to 8) (size 9 to 14) (size 15 to 20)
#    0.000    1.600    2.000    3.000    2.800    3.200 
#    0.000    2.000    0.000    0.000    0.000    0.000 
#    0.000    0.000    0.000    0.000    0.000    0.000 
#
# Total GULP energy -496184.312209 kJ/mol
# GULP energy per Si atom -12404.607805 kJ/mol
# Density = 2.040712 g / cm^3
# Si number density = 20.453669 Si / 1000 Ang^3
#
#
#
# Elastic Constant Matrix: (Units=GPa)
#
#
# Indices 1 2 3 4 5 6 
#
# 1 105.1134 45.5658 19.2699 0.0000 0.0000 -6.9511
# 2 45.5658 105.1134 19.2699 0.0000 0.0000 6.9511
# 3 19.2699 19.2699 44.0068 0.0000 0.0000 0.0000
# 4 0.0000 0.0000 0.0000 33.5268 0.0000 0.0000
# 5 0.0000 0.0000 0.0000 0.0000 33.5268 0.0000
# 6 -6.9511 6.9511 0.0000 0.0000 0.0000 32.8657
#
#
#
# Elastic Compliance Matrix: (Units=1/GPa)
#
#
# Indices 1 2 3 4 5 6 
#
# 1 0.012570 -0.005096 -0.003273 0.000000 0.000000 0.003736
# 2 -0.005096 0.012570 -0.003273 0.000000 0.000000 -0.003736
# 3 -0.003273 -0.003273 0.025590 0.000000 0.000000 0.000000
# 4 0.000000 0.000000 0.000000 0.029827 0.000000 0.000000
# 5 0.000000 0.000000 0.000000 0.000000 0.029827 0.000000
# 6 0.003736 -0.003736 0.000000 0.000000 0.000000 0.032007
#
#
# Mechanical properties :
#
#
# Convention : Reuss Voigt Hill
#
# Bulk Modulus (GPa) = 36.43421 46.93831 41.68626
# Shear Modulus (GPa) = 28.60063 31.32574 29.96318
#
# Velocity S-wave (km/s) = 3.74346 3.91774 3.83159
# Velocity P-wave (km/s) = 6.04453 6.59268 6.32454
#
# Compressibility (1/GPa) = 0.02744673
#
# Stress axis : x y z
#
# Youngs Moduli (GPa) = 79.55693 79.55693 39.07810
#
# Poissons Ratio (x) = 0.40542 0.12789
# Poissons Ratio (y) = 0.40542 0.12789
# Poissons Ratio (z) = 0.26036 0.26036
#
# Static dielectric constant tensor:
#      x y z
#    x 3.797240 0.000000 0.000000 
#    y 0.000000 3.797240 0.000000 
#    z 0.000000 0.000000 3.535000 
# 
# 
# High freq. dielectric constant tensor:
#      x y z
#    x 1.804030 0.000000 0.000000 
#    y 0.000000 1.804030 0.000000 
#    z 0.000000 0.000000 1.789880 
# 
# From -- ./inp_files/744.got.cif
#   From: 2010.03.12/outbox.cif.g09.slc.cpg/sg84_1_cif.got.tgz:744.got - 2010.04.08 20:07:29.
