data_PCOD8303245
_publ_section_title
;
Structure prediction by ZEFSAII (Michael W. Deem and Ramdas Pophale) SiO2 
 PCOD8303245
Probable space group: P 42/M
;
_chemical_formula_sum "Si O2"
_cell_formula_units_Z 52
_cell_length_a 16.949357
_cell_length_b 16.949357
_cell_length_c 9.622930
_cell_angle_alpha 90.000000
_cell_angle_beta 90.000000
_cell_angle_gamma 90.000000
_cell_volume 2764.482093
_symmetry_space_group_name_H-M "P 42/M"
_symmetry_group_IT_number 84
_symmetry_cell_setting 'tetragonal'
loop_
_space_group_symop_operation_xyz
x,y,z
-y,x,1/2+z
-x,-y,z
y,-x,1/2+z
-x,-y,-z
y,-x,1/2-z
x,y,-z
-y,x,1/2-z
loop_
_atom_site_type_symbol
_atom_site_label
_atom_site_fract_x
_atom_site_fract_y
_atom_site_fract_z
Si Si1 0.208953 0.631295 0.340647
Si Si2 0.542645 0.168588 0.155211
Si Si3 0.785846 0.996861 0.841922
Si Si4 0.316507 0.769717 0.658959
Si Si5 0.126123 0.165815 0.156221
Si Si6 0.659084 0.937993 0.655516
Si Si7 0.500000 0.000000 0.262256
O O1 0.180334 0.648714 0.500000
O O2 0.218529 0.537673 0.317822
O O3 0.290970 0.678205 0.313160
O O4 0.144990 0.664164 0.233516
O O5 0.607941 0.204660 0.254888
O O6 0.526677 0.074929 0.170142
O O7 0.573073 0.182906 0.000000
O O8 0.846600 0.057277 0.769595
O O9 0.818554 0.909408 0.835519
O O10 0.707461 0.001427 0.746887
O O11 0.767782 0.022962 0.000000
O O12 0.340981 0.781785 0.500000
O O13 0.241957 0.823357 0.698238
O O14 0.091453 0.174079 0.000000
O O15 0.693975 0.928871 0.500000
O O16 0.571037 0.971541 0.640597
#
# Coordination Sequence:
#
# PCOD8303245 Si02
#       7
#     8   8   8   8   8   8   4
#     4   9  19  38  58  78 112 154 187 224 281 340
#     4  10  21  35  57  87 115 147 193 240 282 341
#     4  11  23  39  57  78 108 145 188 237 289 337
#     4  10  20  38  60  81 114 153 188 228 288 348
#     4  10  22  39  57  78 106 146 190 234 283 340
#     4  11  21  34  55  81 111 147 188 232 278 340
#     4  10  22  36  52  82 122 156 180 226 298 350
#
# _framework density 18.810032
#
# number of rings (size 3 to 8) (size 9 to 14) (size 15 to 20)
#    0.000    1.846    1.538    2.308    0.000   10.154 
#    0.000    1.538    0.000    0.462    0.000    3.231 
#    0.000    0.000    0.000    0.000    0.000    0.000 
#
# Total GULP energy -644642.490136 kJ/mol
# GULP energy per Si atom -12396.970964 kJ/mol
# Density = 1.876722 g / cm^3
# Si number density = 18.810032 Si / 1000 Ang^3
#
#
#
# Elastic Constant Matrix: (Units=GPa)
#
#
# Indices 1 2 3 4 5 6 
#
# 1 94.3567 43.5933 53.9939 0.0000 0.0000 -1.9994
# 2 43.5933 94.3567 53.9939 0.0000 0.0000 1.9994
# 3 53.9939 53.9939 135.8143 0.0000 0.0000 0.0000
# 4 0.0000 0.0000 0.0000 26.3713 0.0000 0.0000
# 5 0.0000 0.0000 0.0000 0.0000 26.3713 0.0000
# 6 -1.9994 1.9994 0.0000 0.0000 0.0000 27.4747
#
#
#
# Elastic Compliance Matrix: (Units=1/GPa)
#
#
# Indices 1 2 3 4 5 6 
#
# 1 0.015169 -0.004644 -0.004184 0.000000 0.000000 0.001442
# 2 -0.004644 0.015169 -0.004184 0.000000 0.000000 -0.001442
# 3 -0.004184 -0.004184 0.010690 0.000000 0.000000 0.000000
# 4 0.000000 0.000000 0.000000 0.037920 0.000000 0.000000
# 5 0.000000 0.000000 0.000000 0.000000 0.037920 0.000000
# 6 0.001442 -0.001442 0.000000 0.000000 0.000000 0.036607
#
#
# Mechanical properties :
#
#
# Convention : Reuss Voigt Hill
#
# Bulk Modulus (GPa) = 66.65651 69.74331 68.19991
# Shear Modulus (GPa) = 27.10043 27.57326 27.33684
#
# Velocity S-wave (km/s) = 3.79983 3.83284 3.81637
# Velocity P-wave (km/s) = 7.40035 7.53297 7.46696
#
# Compressibility (1/GPa) = 0.01500229
#
# Stress axis : x y z
#
# Youngs Moduli (GPa) = 65.92604 65.92604 93.54773
#
# Poissons Ratio (x) = 0.30618 0.39140
# Poissons Ratio (y) = 0.30618 0.39140
# Poissons Ratio (z) = 0.27583 0.27583
#
# Static dielectric constant tensor:
#      x y z
#    x 3.440440 0.000000 0.000000 
#    y 0.000000 3.440440 0.000000 
#    z 0.000000 0.000000 3.503510 
# 
# 
# High freq. dielectric constant tensor:
#      x y z
#    x 1.719150 0.000000 0.000000 
#    y 0.000000 1.719150 0.000000 
#    z 0.000000 0.000000 1.737600 
# 
# From -- ./inp_files/1097.got.cif
#   From: 2010.03.12/outbox.cif.g09.slc.cpg/sg84_1_cif.got.tgz:1097.got - 2010.04.08 20:07:29.
