data_PCOD8303405
_publ_section_title
;
Structure prediction by ZEFSAII (Michael W. Deem and Ramdas Pophale) SiO2 
 PCOD8303405
Probable space group: P 42/M
;
_chemical_formula_sum "Si O2"
_cell_formula_units_Z 32
_cell_length_a 9.520258
_cell_length_b 9.520258
_cell_length_c 18.249355
_cell_angle_alpha 90.000000
_cell_angle_beta 90.000000
_cell_angle_gamma 90.000000
_cell_volume 1654.035991
_symmetry_space_group_name_H-M "P 42/M"
_symmetry_group_IT_number 84
_symmetry_cell_setting 'tetragonal'
loop_
_space_group_symop_operation_xyz
x,y,z
-y,x,1/2+z
-x,-y,z
y,-x,1/2+z
-x,-y,-z
y,-x,1/2-z
x,y,-z
-y,x,1/2-z
loop_
_atom_site_type_symbol
_atom_site_label
_atom_site_fract_x
_atom_site_fract_y
_atom_site_fract_z
Si Si1 0.553024 0.708808 0.776247
Si Si2 0.158308 0.995957 0.414768
Si Si3 0.285594 0.330283 0.084131
Si Si4 0.865110 0.416878 0.142092
O O1 0.656807 0.605606 0.731061
O O2 0.591648 0.724999 0.861760
O O3 0.572771 0.852830 0.730646
O O4 0.149092 0.027057 0.500000
O O5 0.231907 0.847594 0.398167
O O6 0.253603 0.121563 0.381009
O O7 0.000000 0.000000 0.381117
O O8 0.260846 0.495906 0.102379
O O9 0.334306 0.314202 0.000000
O O10 0.000000 0.500000 0.113735
#
# Coordination Sequence:
#
# PCOD8303405 Si02
#       4
#     8   8   8   8
#     4   9  18  34  51  71  99 124 160 212 250 287
#     4   9  17  31  49  74 104 130 163 208 249 294
#     4   9  17  32  53  73  97 133 169 203 246 300
#     4   9  17  32  52  74  95 132 170 204 245 300
#
# _framework density 19.346616000000001
#
# number of rings (size 3 to 8) (size 9 to 14) (size 15 to 20)
#    0.000    3.000    0.000    0.750    0.000    3.000 
#   13.500   11.250    0.000    0.750    0.000    0.000 
#    0.000    0.000    0.000    0.000    0.000    0.000 
#
# Total GULP energy -396483.757659 kJ/mol
# GULP energy per Si atom -12390.117427 kJ/mol
# Density = 1.930258 g / cm^3
# Si number density = 19.346616 Si / 1000 Ang^3
#
#
#
# Elastic Constant Matrix: (Units=GPa)
#
#
# Indices 1 2 3 4 5 6 
#
# 1 65.3930 4.9457 15.3261 0.0000 0.0000 -0.4810
# 2 4.9457 65.3930 15.3261 0.0000 0.0000 0.4810
# 3 15.3261 15.3261 102.7349 0.0000 0.0000 0.0000
# 4 0.0000 0.0000 0.0000 28.0312 0.0000 0.0000
# 5 0.0000 0.0000 0.0000 0.0000 28.0312 0.0000
# 6 -0.4810 0.4810 0.0000 0.0000 0.0000 15.4551
#
#
#
# Elastic Compliance Matrix: (Units=1/GPa)
#
#
# Indices 1 2 3 4 5 6 
#
# 1 0.015878 -0.000673 -0.002268 0.000000 0.000000 0.000515
# 2 -0.000673 0.015878 -0.002268 0.000000 0.000000 -0.000515
# 3 -0.002268 -0.002268 0.010411 0.000000 0.000000 0.000000
# 4 0.000000 0.000000 0.000000 0.035675 0.000000 0.000000
# 5 0.000000 0.000000 0.000000 0.000000 0.035675 0.000000
# 6 0.000515 -0.000515 0.000000 0.000000 0.000000 0.064736
#
#
# Mechanical properties :
#
#
# Convention : Reuss Voigt Hill
#
# Bulk Modulus (GPa) = 31.49809 33.85745 32.67777
# Shear Modulus (GPa) = 25.09354 27.49837 26.29596
#
# Velocity S-wave (km/s) = 3.60537 3.77417 3.69074
# Velocity P-wave (km/s) = 5.80067 6.04408 5.92363
#
# Compressibility (1/GPa) = 0.03174796
#
# Stress axis : x y z
#
# Youngs Moduli (GPa) = 62.97834 62.97834 96.05607
#
# Poissons Ratio (x) = 0.04239 0.21789
# Poissons Ratio (y) = 0.04239 0.21789
# Poissons Ratio (z) = 0.14286 0.14286
#
# Static dielectric constant tensor:
#      x y z
#    x 3.542900 0.000000 0.000000 
#    y 0.000000 3.542900 0.000000 
#    z 0.000000 0.000000 3.422080 
# 
# 
# High freq. dielectric constant tensor:
#      x y z
#    x 1.734830 0.000000 0.000000 
#    y 0.000000 1.734830 0.000000 
#    z 0.000000 0.000000 1.745460 
# 
# From -- ./inp_files/4091.got.cif
#   From: 2010.03.12/outbox.cif.g09.slc.cpg/sg84_3_cif.got.tgz:4091.got - 2010.04.08 20:07:29.
