data_PCOD8303699
_publ_section_title
;
Structure prediction by ZEFSAII (Michael W. Deem and Ramdas Pophale) SiO2 
 PCOD8303699
Probable space group: P 42/N
;
_chemical_formula_sum "Si O2"
_cell_formula_units_Z 34
_cell_length_a 9.177726
_cell_length_b 9.177726
_cell_length_c 17.526941
_cell_angle_alpha 90.000000
_cell_angle_beta 90.000000
_cell_angle_gamma 90.000000
_cell_volume 1476.305712
_symmetry_space_group_name_H-M "P 42/N"
_symmetry_group_IT_number 86
_space_group.IT_coordinate_system_code '2'
_symmetry_cell_setting 'tetragonal'
loop_
_space_group_symop_operation_xyz
x,y,z
-y,1/2+x,1/2+z
1/2-x,1/2-y,z
1/2+y,-x,1/2+z
-x,-y,-z
y,1/2-x,1/2-z
1/2+x,1/2+y,-z
1/2-y,x,1/2-z
loop_
_atom_site_type_symbol
_atom_site_label
_atom_site_fract_x
_atom_site_fract_y
_atom_site_fract_z
Si Si1 0.109571 0.068133 0.256114
Si Si2 0.546240 0.410767 0.892834
Si Si3 0.715519 0.414508 0.038787
Si Si4 0.250000 0.250000 0.750000
Si Si5 0.406219 0.427021 0.630719
O O1 0.067690 0.222216 0.217753
O O2 0.089491 0.940784 0.194038
O O3 0.011875 0.046390 0.331494
O O4 0.425027 0.527556 0.916543
O O5 0.491609 0.244801 0.899580
O O6 0.686433 0.425133 0.948015
O O7 0.750000 0.250000 0.065018
O O8 0.854226 0.514887 0.058261
O O9 0.380324 0.305592 0.696307
#
# Coordination Sequence:
#
# PCOD8303699 Si02
#       5
#     8   8   8   2   8
#     4  11  26  47  72 106 144 187 242 309 372 437
#     4  11  25  46  69 107 141 186 247 301 360 449
#     4  11  25  44  68 104 143 190 238 299 372 431
#     4  12  20  40  72 104 128 180 250 288 360 408
#     4  12  22  45  75 102 140 191 243 306 358 443
#
# _framework density 23.030460000000001
#
# number of rings (size 3 to 8) (size 9 to 14) (size 15 to 20)
#    0.000    0.706    4.706    1.412    3.294    0.941 
#   16.941    0.000    0.000    0.000    0.000    0.000 
#    0.000    0.000    0.000    0.000    0.000    0.000 
#
# Total GULP energy -421697.894646 kJ/mol
# GULP energy per Si atom -12402.879254 kJ/mol
# Density = 2.297804 g / cm^3
# Si number density = 23.030460 Si / 1000 Ang^3
#
#
#
# Elastic Constant Matrix: (Units=GPa)
#
#
# Indices 1 2 3 4 5 6 
#
# 1 136.5557 61.1457 51.6584 0.0000 0.0000 0.7161
# 2 61.1457 136.5557 51.6584 0.0000 0.0000 -0.7161
# 3 51.6584 51.6584 108.0688 0.0000 0.0000 0.0000
# 4 0.0000 0.0000 0.0000 38.9530 0.0000 0.0000
# 5 0.0000 0.0000 0.0000 0.0000 38.9530 0.0000
# 6 0.7161 -0.7161 0.0000 0.0000 0.0000 37.1996
#
#
#
# Elastic Compliance Matrix: (Units=1/GPa)
#
#
# Indices 1 2 3 4 5 6 
#
# 1 0.010004 -0.003262 -0.003223 0.000000 0.000000 -0.000255
# 2 -0.003262 0.010004 -0.003223 0.000000 0.000000 0.000255
# 3 -0.003223 -0.003223 0.012335 0.000000 0.000000 0.000000
# 4 0.000000 0.000000 0.000000 0.025672 0.000000 0.000000
# 5 0.000000 0.000000 0.000000 0.000000 0.025672 0.000000
# 6 -0.000255 0.000255 0.000000 0.000000 0.000000 0.026892
#
#
# Mechanical properties :
#
#
# Convention : Reuss Voigt Hill
#
# Bulk Modulus (GPa) = 77.35400 78.90055 78.12728
# Shear Modulus (GPa) = 37.22930 37.46898 37.34914
#
# Velocity S-wave (km/s) = 4.02496 4.03790 4.03144
# Velocity P-wave (km/s) = 7.43378 7.48820 7.46104
#
# Compressibility (1/GPa) = 0.01292758
#
# Stress axis : x y z
#
# Youngs Moduli (GPa) = 99.95946 99.95946 81.07268
#
# Poissons Ratio (x) = 0.32603 0.26129
# Poissons Ratio (y) = 0.32603 0.26129
# Poissons Ratio (z) = 0.32217 0.32217
#
# Static dielectric constant tensor:
#      x y z
#    x 4.193250 0.000000 0.000000 
#    y 0.000000 4.193250 0.000000 
#    z 0.000000 0.000000 3.993190 
# 
# 
# High freq. dielectric constant tensor:
#      x y z
#    x 1.915740 0.000000 0.000000 
#    y 0.000000 1.915740 0.000000 
#    z 0.000000 0.000000 1.902540 
# 
# From -- ./inp_files/4009.got.cif
#   From: 2010.03.12/outbox.cif.g09.slc.cpg/sg86_3_cif.got.tgz:4009.got - 2010.04.08 20:12:58.
