data_PCOD8303397
_publ_section_title
;
Structure prediction by ZEFSAII (Michael W. Deem and Ramdas Pophale) SiO2 
 PCOD8303397
Probable space group: P 42/M
;
_chemical_formula_sum "Si O2"
_cell_formula_units_Z 18
_cell_length_a 5.282916
_cell_length_b 5.282916
_cell_length_c 24.620835
_cell_angle_alpha 90.000000
_cell_angle_beta 90.000000
_cell_angle_gamma 90.000000
_cell_volume 687.147844
_symmetry_space_group_name_H-M "P 42/M"
_symmetry_group_IT_number 84
_symmetry_cell_setting 'tetragonal'
loop_
_space_group_symop_operation_xyz
x,y,z
-y,x,1/2+z
-x,-y,z
y,-x,1/2+z
-x,-y,-z
y,-x,1/2-z
x,y,-z
-y,x,1/2-z
loop_
_atom_site_type_symbol
_atom_site_label
_atom_site_fract_x
_atom_site_fract_y
_atom_site_fract_z
Si Si1 0.653693 0.736939 0.673361
Si Si2 0.834319 0.249306 0.941794
Si Si3 0.000000 0.000000 0.250000
O O1 0.500000 0.500000 0.697185
O O2 0.741067 0.658875 0.611920
O O3 0.500000 0.000000 0.673043
O O4 0.896143 0.773306 0.712099
O O5 0.000000 0.500000 0.942597
O O6 0.682818 0.236788 0.000000
O O7 0.000000 0.000000 0.935855
#
# Coordination Sequence:
#
# PCOD8303397 Si02
#       3
#     8   8   2
#     4  11  27  47  75 108 150 202 257 318 392 458
#     4   9  18  40  71 107 147 190 245 312 383 460
#     4  12  28  48  74 108 156 204 268 330 380 476
#
# _framework density 26.195236000000001
#
# number of rings (size 3 to 8) (size 9 to 14) (size 15 to 20)
#    0.000    1.778    2.222    0.000    6.222    0.889 
#    0.000    0.000    0.000   13.333    0.000    0.000 
#    0.000    1.778    0.000    0.000    0.000    0.000 
#
# Total GULP energy -223030.854957 kJ/mol
# GULP energy per Si atom -12390.603053 kJ/mol
# Density = 2.613561 g / cm^3
# Si number density = 26.195236 Si / 1000 Ang^3
#
#
#
# Elastic Constant Matrix: (Units=GPa)
#
#
# Indices 1 2 3 4 5 6 
#
# 1 135.4654 38.0187 38.7142 0.0000 0.0000 -2.1402
# 2 38.0187 135.4654 38.7142 0.0000 0.0000 2.1402
# 3 38.7142 38.7142 236.3470 0.0000 0.0000 0.0000
# 4 0.0000 0.0000 0.0000 -10.9823 0.0000 0.0000
# 5 0.0000 0.0000 0.0000 0.0000 -10.9823 0.0000
# 6 -2.1402 2.1402 0.0000 0.0000 0.0000 46.2090
#
#
#
# Elastic Compliance Matrix: (Units=1/GPa)
#
#
# Indices 1 2 3 4 5 6 
#
# 1 0.008251 -0.002032 -0.001019 0.000000 0.000000 0.000476
# 2 -0.002032 0.008251 -0.001019 0.000000 0.000000 -0.000476
# 3 -0.001019 -0.001019 0.004565 0.000000 0.000000 0.000000
# 4 0.000000 0.000000 0.000000 -0.091056 0.000000 0.000000
# 5 0.000000 0.000000 0.000000 0.000000 -0.091056 0.000000
# 6 0.000476 -0.000476 0.000000 0.000000 0.000000 0.021685
#
#
# Mechanical properties :
#
#
# Convention : Reuss Voigt Hill
#
# Bulk Modulus (GPa) = 77.35238 82.01912 79.68575
# Shear Modulus (GPa) = -39.39742 30.97092 -4.21325
#
# Velocity S-wave (km/s) = -3.88234 3.44221 -1.26960
# Velocity P-wave (km/s) = 3.08164 6.86856 5.32323
#
# Compressibility (1/GPa) = 0.01292785
#
# Stress axis : x y z
#
# Youngs Moduli (GPa) = 121.19888 121.19888 219.06828
#
# Poissons Ratio (x) = 0.24628 0.22316
# Poissons Ratio (y) = 0.24628 0.22316
# Poissons Ratio (z) = 0.12346 0.12346
#
# Static dielectric constant tensor:
#      x y z
#    x 4.366240 0.000000 0.000000 
#    y 0.000000 4.366240 0.000000 
#    z 0.000000 0.000000 6.341430 
# 
# 
# High freq. dielectric constant tensor:
#      x y z
#    x 2.026430 0.000000 0.000000 
#    y 0.000000 2.026430 0.000000 
#    z 0.000000 0.000000 2.097780 
# 
# From -- ./inp_files/4562.got.cif
#   From: 2010.03.12/outbox.cif.g09.slc.cpg/sg84_3_cif.got.tgz:4562.got - 2010.04.08 20:07:29.
