data_PCOD8303604
_publ_section_title
;
Structure prediction by ZEFSAII (Michael W. Deem and Ramdas Pophale) SiO2 
 PCOD8303604
Probable space group: P 42/N
;
_chemical_formula_sum "Si O2"
_cell_formula_units_Z 48
_cell_length_a 8.832504
_cell_length_b 8.832504
_cell_length_c 27.727112
_cell_angle_alpha 90.000000
_cell_angle_beta 90.000000
_cell_angle_gamma 90.000000
_cell_volume 2163.078707
_symmetry_space_group_name_H-M "P 42/N"
_symmetry_group_IT_number 86
_space_group.IT_coordinate_system_code '2'
_symmetry_cell_setting 'tetragonal'
loop_
_space_group_symop_operation_xyz
x,y,z
-y,1/2+x,1/2+z
1/2-x,1/2-y,z
1/2+y,-x,1/2+z
-x,-y,-z
y,1/2-x,1/2-z
1/2+x,1/2+y,-z
1/2-y,x,1/2-z
loop_
_atom_site_type_symbol
_atom_site_label
_atom_site_fract_x
_atom_site_fract_y
_atom_site_fract_z
Si Si1 0.699451 0.913941 0.535479
Si Si2 0.450144 0.050476 0.183022
Si Si3 0.633254 0.123576 0.091605
Si Si4 0.827583 0.086341 0.776702
Si Si5 0.081512 0.405595 0.570140
Si Si6 0.922913 0.771460 0.169599
O O1 0.750000 0.750000 0.555644
O O2 0.675707 0.902811 0.478684
O O3 0.827355 0.043323 0.543274
O O4 0.551378 0.970192 0.564812
O O5 0.499610 0.107608 0.130581
O O6 0.527237 0.158807 0.222298
O O7 0.269227 0.037631 0.192321
O O8 0.503489 0.880178 0.187756
O O9 0.750000 0.250000 0.110028
O O10 0.733519 0.974845 0.081276
O O11 0.750000 0.250000 0.776208
O O12 0.995193 0.093545 0.800688
O O13 0.194237 0.451274 0.613036
O O14 0.750000 0.750000 0.183710
#
# Coordination Sequence:
#
# PCOD8303604 Si02
#       6
#     8   8   8   8   8   8
#     4  10  23  40  67  96 135 180 223 287 358 406
#     4  11  24  44  66  94 139 177 217 292 339 420
#     4  10  22  42  67  96 131 182 224 276 353 414
#     4  10  26  43  65 105 133 171 234 281 354 417
#     4  10  22  44  63 101 135 173 238 287 336 433
#     4  11  23  40  72  96 127 178 227 282 339 418
#
# _framework density 22.190591999999999
#
# number of rings (size 3 to 8) (size 9 to 14) (size 15 to 20)
#    0.000    1.667    1.667    1.000    7.000    3.667 
#    0.000    5.833    0.000    0.000    0.000    0.000 
#    0.000    0.000    0.000    0.000    0.000    0.000 
#
# Total GULP energy -594927.353643 kJ/mol
# GULP energy per Si atom -12394.319868 kJ/mol
# Density = 2.214009 g / cm^3
# Si number density = 22.190592 Si / 1000 Ang^3
#
#
#
# Elastic Constant Matrix: (Units=GPa)
#
#
# Indices 1 2 3 4 5 6 
#
# 1 99.4125 30.1672 45.1403 0.0000 0.0000 12.0663
# 2 30.1672 99.4125 45.1403 0.0000 0.0000 -12.0663
# 3 45.1403 45.1403 110.3902 0.0000 0.0000 0.0000
# 4 0.0000 0.0000 0.0000 31.5907 0.0000 0.0000
# 5 0.0000 0.0000 0.0000 0.0000 31.5907 0.0000
# 6 12.0663 -12.0663 0.0000 0.0000 0.0000 25.1058
#
#
#
# Elastic Compliance Matrix: (Units=1/GPa)
#
#
# Indices 1 2 3 4 5 6 
#
# 1 0.014069 -0.003278 -0.004413 0.000000 0.000000 -0.008337
# 2 -0.003278 0.014069 -0.004413 0.000000 0.000000 0.008337
# 3 -0.004413 -0.004413 0.012668 0.000000 0.000000 0.000000
# 4 0.000000 0.000000 0.000000 0.031655 0.000000 0.000000
# 5 0.000000 0.000000 0.000000 0.000000 0.031655 0.000000
# 6 -0.008337 0.008337 0.000000 0.000000 0.000000 0.047846
#
#
# Mechanical properties :
#
#
# Convention : Reuss Voigt Hill
#
# Bulk Modulus (GPa) = 60.24203 61.12339 60.68271
# Shear Modulus (GPa) = 27.51754 30.24193 28.87973
#
# Velocity S-wave (km/s) = 3.52526 3.69565 3.61146
# Velocity P-wave (km/s) = 6.61638 6.76868 6.69296
#
# Compressibility (1/GPa) = 0.01659971
#
# Stress axis : x y z
#
# Youngs Moduli (GPa) = 71.07606 71.07606 78.94014
#
# Poissons Ratio (x) = 0.23296 0.34836
# Poissons Ratio (y) = 0.23296 0.34836
# Poissons Ratio (z) = 0.31366 0.31366
#
# Static dielectric constant tensor:
#      x y z
#    x 6.474520 0.000000 0.000000 
#    y 0.000000 6.474520 0.000000 
#    z 0.000000 0.000000 3.802690 
# 
# 
# High freq. dielectric constant tensor:
#      x y z
#    x 1.877150 0.000000 0.000000 
#    y 0.000000 1.877150 0.000000 
#    z 0.000000 0.000000 1.867550 
# 
# From -- ./inp_files/5173.got.cif
#   From: 2010.03.12/outbox.cif.g09.slc.cpg/sg86_3_cif.got.tgz:5173.got - 2010.04.08 20:12:58.
