data_PCOD8303080
_publ_section_title
;
Structure prediction by ZEFSAII (Michael W. Deem and Ramdas Pophale) SiO2 
 PCOD8303080
Probable space group: P 42/M
;
_chemical_formula_sum "Si O2"
_cell_formula_units_Z 40
_cell_length_a 11.052799
_cell_length_b 11.052799
_cell_length_c 16.613756
_cell_angle_alpha 90.000000
_cell_angle_beta 90.000000
_cell_angle_gamma 90.000000
_cell_volume 2029.608964
_symmetry_space_group_name_H-M "P 42/M"
_symmetry_group_IT_number 84
_symmetry_cell_setting 'tetragonal'
loop_
_space_group_symop_operation_xyz
x,y,z
-y,x,1/2+z
-x,-y,z
y,-x,1/2+z
-x,-y,-z
y,-x,1/2-z
x,y,-z
-y,x,1/2-z
loop_
_atom_site_type_symbol
_atom_site_label
_atom_site_fract_x
_atom_site_fract_y
_atom_site_fract_z
Si Si1 0.915734 0.317445 0.788677
Si Si2 0.863246 0.000270 0.590144
Si Si3 0.856862 0.504247 0.411177
Si Si4 0.824789 0.570602 0.236813
Si Si5 0.253043 0.218850 0.140245
O O1 0.825949 0.433192 0.797091
O O2 0.881932 0.243417 0.709475
O O3 0.906634 0.223059 0.862109
O O4 0.049888 0.363931 0.778994
O O5 0.868899 0.949347 0.500000
O O6 0.800234 0.132254 0.588444
O O7 0.000000 0.000000 0.625983
O O8 0.830668 0.563468 0.500000
O O9 0.797468 0.572825 0.333941
O O10 0.803134 0.368956 0.415586
O O11 0.000000 0.500000 0.394558
O O12 0.731055 0.649124 0.183949
#
# Coordination Sequence:
#
# PCOD8303080 Si02
#       5
#     8   8   8   8   8
#     4   9  18  33  52  72 104 144 183 220 271 328
#     4  10  22  33  46  76 112 142 179 225 278 339
#     4  10  18  32  54  81 108 135 179 241 290 322
#     4   9  17  34  51  79 103 143 188 220 266 345
#     4  10  19  32  54  75 105 142 184 222 278 339
#
# _framework density 19.708228999999999
#
# number of rings (size 3 to 8) (size 9 to 14) (size 15 to 20)
#    0.000    2.400    4.000    0.600    5.600    0.000 
#    0.000   10.000    0.000    9.600    0.000    5.600 
#    0.000    0.000    0.000    0.000    0.000    0.000 
#
# Total GULP energy -495522.779815 kJ/mol
# GULP energy per Si atom -12388.069495 kJ/mol
# Density = 1.966337 g / cm^3
# Si number density = 19.708229 Si / 1000 Ang^3
#
#
#
# Elastic Constant Matrix: (Units=GPa)
#
#
# Indices 1 2 3 4 5 6 
#
# 1 58.0282 13.5075 30.6246 0.0000 0.0000 -0.0991
# 2 13.5075 58.0282 30.6246 0.0000 0.0000 0.0991
# 3 30.6246 30.6246 102.0227 0.0000 0.0000 0.0000
# 4 0.0000 0.0000 0.0000 10.6606 0.0000 0.0000
# 5 0.0000 0.0000 0.0000 0.0000 10.6606 0.0000
# 6 -0.0991 0.0991 0.0000 0.0000 0.0000 24.5550
#
#
#
# Elastic Compliance Matrix: (Units=1/GPa)
#
#
# Indices 1 2 3 4 5 6 
#
# 1 0.020638 -0.001824 -0.005648 0.000000 0.000000 0.000091
# 2 -0.001824 0.020638 -0.005648 0.000000 0.000000 -0.000091
# 3 -0.005648 -0.005648 0.013192 0.000000 0.000000 0.000000
# 4 0.000000 0.000000 0.000000 0.093803 0.000000 0.000000
# 5 0.000000 0.000000 0.000000 0.000000 0.093803 0.000000
# 6 0.000091 -0.000091 0.000000 0.000000 0.000000 0.040726
#
#
# Mechanical properties :
#
#
# Convention : Reuss Voigt Hill
#
# Bulk Modulus (GPa) = 35.42225 40.84363 38.13294
# Shear Modulus (GPa) = 15.70110 18.73008 17.21559
#
# Velocity S-wave (km/s) = 2.82561 3.08615 2.95875
# Velocity P-wave (km/s) = 5.35330 5.78517 5.57342
#
# Compressibility (1/GPa) = 0.02823084
#
# Stress axis : x y z
#
# Youngs Moduli (GPa) = 48.45374 48.45374 75.80174
#
# Poissons Ratio (x) = 0.08836 0.42810
# Poissons Ratio (y) = 0.08836 0.42810
# Poissons Ratio (z) = 0.27365 0.27365
#
# Static dielectric constant tensor:
#      x y z
#    x 3.664990 0.000000 0.000000 
#    y 0.000000 3.664990 0.000000 
#    z 0.000000 0.000000 3.659120 
# 
# 
# High freq. dielectric constant tensor:
#      x y z
#    x 1.744950 0.000000 0.000000 
#    y 0.000000 1.744950 0.000000 
#    z 0.000000 0.000000 1.768420 
# 
# From -- ./inp_files/2915.got.cif
#   From: 2010.03.12/outbox.cif.g09.slc.cpg/sg84_2_cif.got.tgz:2915.got - 2010.04.08 20:07:29.
