data_PCOD8303707
_publ_section_title
;
Structure prediction by ZEFSAII (Michael W. Deem and Ramdas Pophale) SiO2 
 PCOD8303707
Probable space group: P 42/N
;
_chemical_formula_sum "Si O2"
_cell_formula_units_Z 40
_cell_length_a 8.399318
_cell_length_b 8.399318
_cell_length_c 23.965842
_cell_angle_alpha 90.000000
_cell_angle_beta 90.000000
_cell_angle_gamma 90.000000
_cell_volume 1690.755232
_symmetry_space_group_name_H-M "P 42/N"
_symmetry_group_IT_number 86
_space_group.IT_coordinate_system_code '2'
_symmetry_cell_setting 'tetragonal'
loop_
_space_group_symop_operation_xyz
x,y,z
-y,1/2+x,1/2+z
1/2-x,1/2-y,z
1/2+y,-x,1/2+z
-x,-y,-z
y,1/2-x,1/2-z
1/2+x,1/2+y,-z
1/2-y,x,1/2-z
loop_
_atom_site_type_symbol
_atom_site_label
_atom_site_fract_x
_atom_site_fract_y
_atom_site_fract_z
Si Si1 0.130425 0.374069 0.836537
Si Si2 0.883153 0.139141 0.860358
Si Si3 0.326762 0.923606 0.934797
Si Si4 0.577094 0.555516 0.755111
Si Si5 0.428077 0.298903 0.449188
O O1 0.250000 0.250000 0.806243
O O2 0.228123 0.494140 0.876955
O O3 0.019748 0.265267 0.877632
O O4 0.029728 0.467473 0.790426
O O5 0.750000 0.250000 0.831154
O O6 0.955366 0.017993 0.815462
O O7 0.808864 0.047340 0.912786
O O8 0.250000 0.750000 0.938032
O O9 0.517121 0.930327 0.933054
O O10 0.263849 0.023657 0.987303
O O11 0.531856 0.739523 0.761291
O O12 0.250000 0.250000 0.436723
#
# Coordination Sequence:
#
# PCOD8303707 Si02
#       5
#     8   8   8   8   8
#     4  12  29  48  74 113 153 195 250 318 385 453
#     4  12  25  47  74 106 153 199 245 313 381 456
#     4  11  26  47  72 112 149 196 252 311 376 453
#     4  11  26  47  76 108 145 198 258 308 380 461
#     4  11  26  46  77 105 150 200 253 307 377 449
#
# _framework density 23.658064
#
# number of rings (size 3 to 8) (size 9 to 14) (size 15 to 20)
#    0.000    0.600    4.000    1.200   14.000    1.600 
#    0.000    0.000    0.000    0.000    0.000    0.000 
#    0.000    0.000    0.000    0.000    0.000    0.000 
#
# Total GULP energy -495841.599532 kJ/mol
# GULP energy per Si atom -12396.039988 kJ/mol
# Density = 2.360422 g / cm^3
# Si number density = 23.658064 Si / 1000 Ang^3
#
#
#
# Elastic Constant Matrix: (Units=GPa)
#
#
# Indices 1 2 3 4 5 6 
#
# 1 113.9138 60.7508 48.8413 0.0000 0.0000 -1.3694
# 2 60.7508 113.9138 48.8413 0.0000 0.0000 1.3694
# 3 48.8413 48.8413 110.5310 0.0000 0.0000 0.0000
# 4 0.0000 0.0000 0.0000 36.3368 0.0000 0.0000
# 5 0.0000 0.0000 0.0000 0.0000 36.3368 0.0000
# 6 -1.3694 1.3694 0.0000 0.0000 0.0000 51.6805
#
#
#
# Elastic Compliance Matrix: (Units=1/GPa)
#
#
# Indices 1 2 3 4 5 6 
#
# 1 0.013220 -0.005616 -0.003360 0.000000 0.000000 0.000499
# 2 -0.005616 0.013220 -0.003360 0.000000 0.000000 -0.000499
# 3 -0.003360 -0.003360 0.012017 0.000000 0.000000 0.000000
# 4 0.000000 0.000000 0.000000 0.027520 0.000000 0.000000
# 5 0.000000 0.000000 0.000000 0.000000 0.027520 0.000000
# 6 0.000499 -0.000499 0.000000 0.000000 0.000000 0.019376
#
#
# Mechanical properties :
#
#
# Convention : Reuss Voigt Hill
#
# Bulk Modulus (GPa) = 72.54346 72.80283 72.67315
# Shear Modulus (GPa) = 35.17629 36.86585 36.02107
#
# Velocity S-wave (km/s) = 3.86017 3.95179 3.90625
# Velocity P-wave (km/s) = 7.11321 7.18762 7.15051
#
# Compressibility (1/GPa) = 0.01378484
#
# Stress axis : x y z
#
# Youngs Moduli (GPa) = 75.64211 75.64211 83.21607
#
# Poissons Ratio (x) = 0.42478 0.27963
# Poissons Ratio (y) = 0.42478 0.27963
# Poissons Ratio (z) = 0.25418 0.25418
#
# Static dielectric constant tensor:
#      x y z
#    x 4.617980 0.000000 0.000000 
#    y 0.000000 4.617980 0.000000 
#    z 0.000000 0.000000 4.060420 
# 
# 
# High freq. dielectric constant tensor:
#      x y z
#    x 1.956270 0.000000 0.000000 
#    y 0.000000 1.956270 0.000000 
#    z 0.000000 0.000000 1.928270 
# 
# From -- ./inp_files/4484.got.cif
#   From: 2010.03.12/outbox.cif.g09.slc.cpg/sg86_3_cif.got.tgz:4484.got - 2010.04.08 20:12:58.
