data_PCOD8303242
_publ_section_title
;
Structure prediction by ZEFSAII (Michael W. Deem and Ramdas Pophale) SiO2 
 PCOD8303242
Probable space group: P 42/M
;
_chemical_formula_sum "Si O2"
_cell_formula_units_Z 48
_cell_length_a 8.713235
_cell_length_b 8.713235
_cell_length_c 30.217212
_cell_angle_alpha 90.000000
_cell_angle_beta 90.000000
_cell_angle_gamma 90.000000
_cell_volume 2294.104761
_symmetry_space_group_name_H-M "P 42/M"
_symmetry_group_IT_number 84
_symmetry_cell_setting 'tetragonal'
loop_
_space_group_symop_operation_xyz
x,y,z
-y,x,1/2+z
-x,-y,z
y,-x,1/2+z
-x,-y,-z
y,-x,1/2-z
x,y,-z
-y,x,1/2-z
loop_
_atom_site_type_symbol
_atom_site_label
_atom_site_fract_x
_atom_site_fract_y
_atom_site_fract_z
Si Si1 0.848379 0.409237 0.409235
Si Si2 0.670384 0.556873 0.952563
Si Si3 0.036092 0.176835 0.644487
Si Si4 0.289281 0.573855 0.772610
Si Si5 0.036551 0.771673 0.261218
Si Si6 0.313932 0.657826 0.126978
O O1 0.742413 0.334087 0.447089
O O2 0.733961 0.518673 0.381011
O O3 0.000000 0.500000 0.427280
O O4 0.903533 0.265000 0.381149
O O5 0.500000 0.500000 0.957882
O O6 0.740019 0.465036 0.910444
O O7 0.755957 0.523808 0.000000
O O8 0.205125 0.191177 0.623593
O O9 0.045828 0.261647 0.692164
O O10 0.000000 0.000000 0.647069
O O11 0.403940 0.688527 0.746622
O O12 0.115437 0.624002 0.761064
O O13 0.317306 0.574691 0.825324
O O14 0.905187 0.836465 0.228606
#
# Coordination Sequence:
#
# PCOD8303242 Si02
#       6
#     8   8   8   8   8   8
#     4   9  20  34  60  85 113 147 185 243 290 351
#     4   9  19  36  63  89 115 148 191 249 301 354
#     4  11  20  36  57  79 112 156 199 238 286 340
#     4  11  24  33  51  83 115 153 182 230 285 354
#     4  11  20  37  53  74 109 151 195 241 268 326
#     4  10  20  38  55  84 117 150 192 237 301 345
#
# _framework density 20.923195
#
# number of rings (size 3 to 8) (size 9 to 14) (size 15 to 20)
#    0.000    1.833    3.333    1.000    9.333    1.000 
#    0.000    3.333    0.000    3.000    0.000    0.000 
#    0.000    0.000    0.000    0.000    0.000    0.000 
#
# Total GULP energy -594732.730461 kJ/mol
# GULP energy per Si atom -12390.265218 kJ/mol
# Density = 2.087557 g / cm^3
# Si number density = 20.923195 Si / 1000 Ang^3
#
#
#
# Elastic Constant Matrix: (Units=GPa)
#
#
# Indices 1 2 3 4 5 6 
#
# 1 63.3550 16.4624 44.3265 0.0000 0.0000 -1.3378
# 2 16.4624 63.3550 44.3265 0.0000 0.0000 1.3378
# 3 44.3265 44.3265 156.9092 0.0000 0.0000 0.0000
# 4 0.0000 0.0000 0.0000 41.3787 0.0000 0.0000
# 5 0.0000 0.0000 0.0000 0.0000 41.3787 0.0000
# 6 -1.3378 1.3378 0.0000 0.0000 0.0000 28.4879
#
#
#
# Elastic Compliance Matrix: (Units=1/GPa)
#
#
# Indices 1 2 3 4 5 6 
#
# 1 0.019820 -0.001563 -0.005158 0.000000 0.000000 0.001004
# 2 -0.001563 0.019820 -0.005158 0.000000 0.000000 -0.001004
# 3 -0.005158 -0.005158 0.009287 0.000000 0.000000 0.000000
# 4 0.000000 0.000000 0.000000 0.024167 0.000000 0.000000
# 5 0.000000 0.000000 0.000000 0.000000 0.024167 0.000000
# 6 0.001004 -0.001004 0.000000 0.000000 0.000000 0.035197
#
#
# Mechanical properties :
#
#
# Convention : Reuss Voigt Hill
#
# Bulk Modulus (GPa) = 39.72829 54.87224 47.30026
# Shear Modulus (GPa) = 30.37592 34.14931 32.26261
#
# Velocity S-wave (km/s) = 3.81436 4.04434 3.93103
# Velocity P-wave (km/s) = 6.19903 6.93480 6.57721
#
# Compressibility (1/GPa) = 0.02517098
#
# Stress axis : x y z
#
# Youngs Moduli (GPa) = 50.45444 50.45444 107.67589
#
# Poissons Ratio (x) = 0.07885 0.55535
# Poissons Ratio (y) = 0.07885 0.55535
# Poissons Ratio (z) = 0.26022 0.26022
#
# Static dielectric constant tensor:
#      x y z
#    x 3.811600 0.000000 0.000000 
#    y 0.000000 3.811600 0.000000 
#    z 0.000000 0.000000 4.178280 
# 
# 
# High freq. dielectric constant tensor:
#      x y z
#    x 1.812670 0.000000 0.000000 
#    y 0.000000 1.812670 0.000000 
#    z 0.000000 0.000000 1.802030 
# 
# From -- ./inp_files/5737.got.cif
#   From: 2010.03.12/outbox.cif.g09.slc.cpg/sg84_3_cif.got.tgz:5737.got - 2010.04.08 20:07:29.
