data_PCOD8303839
_publ_section_title
;
Structure prediction by ZEFSAII (Michael W. Deem and Ramdas Pophale) SiO2 
 PCOD8303839
Probable space group: I 4/M
;
_chemical_formula_sum "Si O2"
_cell_formula_units_Z 88
_cell_length_a 17.720111
_cell_length_b 17.720111
_cell_length_c 14.152677
_cell_angle_alpha 90.000000
_cell_angle_beta 90.000000
_cell_angle_gamma 90.000000
_cell_volume 4443.973608
_symmetry_space_group_name_H-M "I 4/M"
_symmetry_group_IT_number 87
_symmetry_cell_setting 'tetragonal'
loop_
_space_group_symop_operation_xyz
x,y,z
-y,x,z
-x,-y,z
y,-x,z
-x,-y,-z
y,-x,-z
x,y,-z
-y,x,-z
1/2+x,1/2+y,1/2+z
1/2-y,1/2+x,1/2+z
1/2-x,1/2-y,1/2+z
1/2+y,1/2-x,1/2+z
1/2-x,1/2-y,1/2-z
1/2+y,1/2-x,1/2-z
1/2+x,1/2+y,1/2-z
1/2-y,1/2+x,1/2-z
loop_
_atom_site_type_symbol
_atom_site_label
_atom_site_fract_x
_atom_site_fract_y
_atom_site_fract_z
Si Si1 0.888143 0.955772 0.388564
Si Si2 0.275431 0.809917 0.000000
Si Si3 0.892226 0.463665 0.292518
Si Si4 0.195683 0.648981 0.810631
Si Si5 0.666948 0.027434 0.000000
Si Si6 0.345329 0.727734 0.825370
Si Si7 0.697841 0.860259 0.000000
O O1 0.877894 0.949410 0.500000
O O2 0.811494 0.926320 0.340003
O O3 0.958635 0.903374 0.357415
O O4 0.322142 0.783112 0.090195
O O5 0.275288 0.901440 0.000000
O O6 0.190271 0.775091 0.000000
O O7 0.905531 0.541766 0.237861
O O8 0.816227 0.426619 0.250677
O O9 0.886471 0.471647 0.406223
O O10 0.285047 0.660409 0.815502
O O11 0.153178 0.722633 0.768436
O O12 0.160005 0.642572 0.913883
O O13 0.716168 0.950008 0.000000
#
# Coordination Sequence:
#
# PCOD8303839 Si02
#       7
#    16   8  16  16   8  16   8
#     4   9  18  33  53  82 120 156 188 235 303 366
#     4  10  20  36  63  92 116 151 204 243 298 364
#     4  11  24  39  58  89 125 163 206 241 302 368
#     4  10  21  37  57  85 114 154 200 252 299 355
#     4  12  22  42  68  87 126 163 198 258 305 355
#     4  10  19  35  58  85 118 147 200 253 294 361
#     4  10  22  41  62  84 117 159 199 246 308 349
#
# _framework density 19.802097
#
# number of rings (size 3 to 8) (size 9 to 14) (size 15 to 20)
#    0.000    1.818    4.545    0.545    0.000    3.636 
#    0.000    0.000    0.000    0.273    0.000    0.000 
#    0.000    0.000    0.000    0.000    0.000    0.000 
#
# Total GULP energy -545398.757954 kJ/mol
# GULP energy per Si atom -12395.426317 kJ/mol
# Density = 1.975703 g / cm^3
# Si number density = 19.802097 Si / 1000 Ang^3
#
#
#
# Elastic Constant Matrix: (Units=GPa)
#
#
# Indices 1 2 3 4 5 6 
#
# 1 36.0481 39.8879 22.9511 0.0000 0.0000 9.7560
# 2 39.8879 36.0481 22.9511 0.0000 0.0000 -9.7560
# 3 22.9511 22.9511 122.9132 0.0000 0.0000 0.0000
# 4 0.0000 0.0000 0.0000 19.2857 0.0000 0.0000
# 5 0.0000 0.0000 0.0000 0.0000 19.2857 0.0000
# 6 9.7560 -9.7560 0.0000 0.0000 0.0000 25.1929
#
#
#
# Elastic Compliance Matrix: (Units=1/GPa)
#
#
# Indices 1 2 3 4 5 6 
#
# 1 -0.036454 0.051298 -0.002772 0.000000 0.000000 0.033982
# 2 0.051298 -0.036454 -0.002772 0.000000 0.000000 -0.033982
# 3 -0.002772 -0.002772 0.009171 0.000000 0.000000 0.000000
# 4 0.000000 0.000000 0.000000 0.051852 0.000000 0.000000
# 5 0.000000 0.000000 0.000000 0.000000 0.051852 0.000000
# 6 0.033982 -0.033982 0.000000 0.000000 0.000000 0.013375
#
#
# Mechanical properties :
#
#
# Convention : Reuss Voigt Hill
#
# Bulk Modulus (GPa) = 36.00672 40.73217 38.36944
# Shear Modulus (GPa) = -172.95651 20.03413 -76.46119
#
# Velocity S-wave (km/s) = -9.35586 3.18420 -6.22065
# Velocity P-wave (km/s) = 9.92405 5.84236 5.67246
#
# Compressibility (1/GPa) = 0.02777259
#
# Stress axis : x y z
#
# Youngs Moduli (GPa) = -27.43210 -27.43210 109.03960
#
# Poissons Ratio (x) = 1.40722 0.30224
# Poissons Ratio (y) = 1.40722 0.30224
# Poissons Ratio (z) = -0.07604 -0.07604
#
# Static dielectric constant tensor:
#      x y z
#    x 3.538200 0.000000 0.000000 
#    y 0.000000 3.538200 0.000000 
#    z 0.000000 0.000000 3.767730 
# 
# 
# High freq. dielectric constant tensor:
#      x y z
#    x 1.760760 0.000000 0.000000 
#    y 0.000000 1.760760 0.000000 
#    z 0.000000 0.000000 1.774380 
# 
# From -- ./inp_files/3669.got.cif
#   From: 2010.03.12/outbox.cif.g09.slc.cpg/sg87_2_cif.got.tgz:3669.got - 2010.04.08 20:16:13.
