data_PCOD8303582
_publ_section_title
;
Structure prediction by ZEFSAII (Michael W. Deem and Ramdas Pophale) SiO2 
 PCOD8303582
Probable space group: P 42/N
;
_chemical_formula_sum "Si O2"
_cell_formula_units_Z 50
_cell_length_a 8.852923
_cell_length_b 8.852923
_cell_length_c 31.686946
_cell_angle_alpha 90.000000
_cell_angle_beta 90.000000
_cell_angle_gamma 90.000000
_cell_volume 2483.440490
_symmetry_space_group_name_H-M "P 42/N"
_symmetry_group_IT_number 86
_space_group.IT_coordinate_system_code '2'
_symmetry_cell_setting 'tetragonal'
loop_
_space_group_symop_operation_xyz
x,y,z
-y,1/2+x,1/2+z
1/2-x,1/2-y,z
1/2+y,-x,1/2+z
-x,-y,-z
y,1/2-x,1/2-z
1/2+x,1/2+y,-z
1/2-y,x,1/2-z
loop_
_atom_site_type_symbol
_atom_site_label
_atom_site_fract_x
_atom_site_fract_y
_atom_site_fract_z
Si Si1 0.914529 0.202196 0.204705
Si Si2 0.071957 0.775635 0.887917
Si Si3 0.750000 0.750000 0.412151
Si Si4 0.988277 0.441217 0.873329
Si Si5 0.019434 0.472090 0.778292
Si Si6 0.494029 0.458777 0.951667
Si Si7 0.750000 0.250000 0.920177
Si Si8 0.750000 0.750000 0.250000
O O1 0.750000 0.250000 0.190430
O O2 0.979808 0.157795 0.158385
O O3 0.986297 0.347699 0.227338
O O4 0.909773 0.071043 0.238498
O O5 0.250000 0.750000 0.894724
O O6 0.997510 0.610044 0.892094
O O7 0.004061 0.890887 0.922455
O O8 0.650675 0.641796 0.382434
O O9 0.862314 0.655447 0.441751
O O10 0.951535 0.436183 0.823714
O O11 0.843472 0.363714 0.892042
O O12 0.183058 0.390085 0.777124
O O13 0.640734 0.354171 0.947490
O O14 0.500000 0.500000 0.000000
#
# Coordination Sequence:
#
# PCOD8303582 Si02
#       8
#     8   8   4   8   8   8   4   2
#     4  10  22  39  57  89 126 162 215 262 312 368
#     4  10  21  41  67  90 124 174 216 258 324 398
#     4  10  21  42  64  97 132 164 214 273 322 384
#     4  10  22  40  64  92 130 173 212 259 325 385
#     4  11  23  37  60  90 123 171 213 259 311 370
#     4  11  25  43  70  96 128 168 211 270 333 396
#     4  10  26  42  60 100 132 158 210 272 328 376
#     4  12  22  32  56  88 116 160 220 264 296 352
#
# _framework density 20.133358000000001
#
# number of rings (size 3 to 8) (size 9 to 14) (size 15 to 20)
#    0.000    1.600    3.200    0.480    2.240    6.080 
#    0.000    6.400    0.000    0.000    0.000    0.000 
#    0.000    0.000    0.000    0.000    0.000    0.000 
#
# Total GULP energy -619562.762096 kJ/mol
# GULP energy per Si atom -12391.255242 kJ/mol
# Density = 2.008753 g / cm^3
# Si number density = 20.133358 Si / 1000 Ang^3
#
#
#
# Elastic Constant Matrix: (Units=GPa)
#
#
# Indices 1 2 3 4 5 6 
#
# 1 105.3024 46.9210 62.4865 0.0000 0.0000 2.6234
# 2 46.9210 105.3024 62.4865 0.0000 0.0000 -2.6234
# 3 62.4865 62.4865 143.5190 0.0000 0.0000 0.0000
# 4 0.0000 0.0000 0.0000 21.7402 0.0000 0.0000
# 5 0.0000 0.0000 0.0000 0.0000 21.7402 0.0000
# 6 2.6234 -2.6234 0.0000 0.0000 0.0000 19.1244
#
#
#
# Elastic Compliance Matrix: (Units=1/GPa)
#
#
# Indices 1 2 3 4 5 6 
#
# 1 0.013783 -0.003559 -0.004451 0.000000 0.000000 -0.002379
# 2 -0.003559 0.013783 -0.004451 0.000000 0.000000 0.002379
# 3 -0.004451 -0.004451 0.010844 0.000000 0.000000 0.000000
# 4 0.000000 0.000000 0.000000 0.045998 0.000000 0.000000
# 5 0.000000 0.000000 0.000000 0.000000 0.045998 0.000000
# 6 -0.002379 0.002379 0.000000 0.000000 0.000000 0.052942
#
#
# Mechanical properties :
#
#
# Convention : Reuss Voigt Hill
#
# Bulk Modulus (GPa) = 74.15046 77.54575 75.84810
# Shear Modulus (GPa) = 23.49992 24.66963 24.08478
#
# Velocity S-wave (km/s) = 3.42016 3.50424 3.46245
# Velocity P-wave (km/s) = 7.24612 7.41435 7.33072
#
# Compressibility (1/GPa) = 0.01348609
#
# Stress axis : x y z
#
# Youngs Moduli (GPa) = 72.55248 72.55248 92.21861
#
# Poissons Ratio (x) = 0.25824 0.41049
# Poissons Ratio (y) = 0.25824 0.41049
# Poissons Ratio (z) = 0.32295 0.32295
#
# Static dielectric constant tensor:
#      x y z
#    x 3.842330 0.000000 0.000000 
#    y 0.000000 3.842330 0.000000 
#    z 0.000000 0.000000 3.489560 
# 
# 
# High freq. dielectric constant tensor:
#      x y z
#    x 1.791990 0.000000 0.000000 
#    y 0.000000 1.791990 0.000000 
#    z 0.000000 0.000000 1.781020 
# 
# From -- ./inp_files/5287.got.cif
#   From: 2010.03.12/outbox.cif.g09.slc.cpg/sg86_3_cif.got.tgz:5287.got - 2010.04.08 20:12:58.
