data_PCOD8303047
_publ_section_title
;
Structure prediction by ZEFSAII (Michael W. Deem and Ramdas Pophale) SiO2 
 PCOD8303047
Probable space group: P 42/M
;
_chemical_formula_sum "Si O2"
_cell_formula_units_Z 48
_cell_length_a 20.505884
_cell_length_b 20.505884
_cell_length_c 8.857419
_cell_angle_alpha 90.000000
_cell_angle_beta 90.000000
_cell_angle_gamma 90.000000
_cell_volume 3724.467441
_symmetry_space_group_name_H-M "P 42/M"
_symmetry_group_IT_number 84
_symmetry_cell_setting 'tetragonal'
loop_
_space_group_symop_operation_xyz
x,y,z
-y,x,1/2+z
-x,-y,z
y,-x,1/2+z
-x,-y,-z
y,-x,1/2-z
x,y,-z
-y,x,1/2-z
loop_
_atom_site_type_symbol
_atom_site_label
_atom_site_fract_x
_atom_site_fract_y
_atom_site_fract_z
Si Si1 0.694132 0.920932 0.170057
Si Si2 0.073892 0.564685 0.821350
Si Si3 0.830509 0.074718 0.325225
Si Si4 0.438071 0.932587 0.178002
Si Si5 0.174627 0.076122 0.323599
Si Si6 0.923955 0.702460 0.667603
O O1 0.631514 0.893148 0.261039
O O2 0.760884 0.895102 0.244300
O O3 0.693801 0.998674 0.174769
O O4 0.690435 0.894356 0.000000
O O5 0.107455 0.500610 0.742602
O O6 0.998800 0.564630 0.773298
O O7 0.081955 0.560797 0.000000
O O8 0.843265 0.087881 0.500000
O O9 0.884445 0.111820 0.229291
O O10 0.757610 0.099956 0.283980
O O11 0.837146 0.999145 0.280622
O O12 0.369437 0.894152 0.205919
O O13 0.446236 0.947911 0.000000
O O14 0.184903 0.084179 0.500000
O O15 0.902519 0.724644 0.500000
#
# Coordination Sequence:
#
# PCOD8303047 Si02
#       6
#     8   8   8   8   8   8
#     4   9  16  27  40  52  68  88 109 133 164 203
#     4  10  16  21  32  51  72  91 110 131 156 189
#     4  10  20  31  43  56  68  85 109 140 180 222
#     4   9  15  23  34  49  69  92 113 131 156 190
#     4  10  20  32  44  56  69  85 109 142 179 220
#     4   8  15  26  39  52  67  87 108 133 164 200
#
# _framework density 12.887748999999999
#
# number of rings (size 3 to 8) (size 9 to 14) (size 15 to 20)
#    0.000    2.667    0.000    5.500    0.000    7.000 
#    0.000    1.667    0.000    0.000    0.000    0.000 
#    0.000    0.000    0.000    0.000    0.000    0.000 
#
# Total GULP energy -594798.922627 kJ/mol
# GULP energy per Si atom -12391.644221 kJ/mol
# Density = 1.285842 g / cm^3
# Si number density = 12.887749 Si / 1000 Ang^3
#
#
#
# Elastic Constant Matrix: (Units=GPa)
#
#
# Indices 1 2 3 4 5 6 
#
# 1 55.4863 28.9985 30.7724 0.0000 0.0000 -0.2556
# 2 28.9985 55.4863 30.7724 0.0000 0.0000 0.2556
# 3 30.7724 30.7724 75.1707 0.0000 0.0000 0.0000
# 4 0.0000 0.0000 0.0000 18.0420 0.0000 0.0000
# 5 0.0000 0.0000 0.0000 0.0000 18.0420 0.0000
# 6 -0.2556 0.2556 0.0000 0.0000 0.0000 0.1565
#
#
#
# Elastic Compliance Matrix: (Units=1/GPa)
#
#
# Indices 1 2 3 4 5 6 
#
# 1 0.027924 -0.011058 -0.006904 0.000000 0.000000 0.063657
# 2 -0.011058 0.027924 -0.006904 0.000000 0.000000 -0.063657
# 3 -0.006904 -0.006904 0.018956 0.000000 0.000000 0.000000
# 4 0.000000 0.000000 0.000000 0.055426 0.000000 0.000000
# 5 0.000000 0.000000 0.000000 0.000000 0.055426 0.000000
# 6 0.063657 -0.063657 0.000000 0.000000 0.000000 6.595838
#
#
# Mechanical properties :
#
#
# Convention : Reuss Voigt Hill
#
# Bulk Modulus (GPa) = 39.88760 40.80336 40.34548
# Shear Modulus (GPa) = 0.73104 13.62145 7.17624
#
# Velocity S-wave (km/s) = 0.75397 3.25457 2.36228
# Velocity P-wave (km/s) = 5.63695 6.77143 6.23007
#
# Compressibility (1/GPa) = 0.02507045
#
# Stress axis : x y z
#
# Youngs Moduli (GPa) = 35.81144 35.81144 52.75388
#
# Poissons Ratio (x) = 0.39600 0.36424
# Poissons Ratio (y) = 0.39600 0.36424
# Poissons Ratio (z) = 0.24726 0.24726
#
# Static dielectric constant tensor:
#      x y z
#    x 2.623920 0.000000 0.000000 
#    y 0.000000 2.623920 0.000000 
#    z 0.000000 0.000000 2.719110 
# 
# 
# High freq. dielectric constant tensor:
#      x y z
#    x 1.452550 0.000000 0.000000 
#    y 0.000000 1.452550 0.000000 
#    z 0.000000 0.000000 1.508850 
# 
# From -- ./inp_files/1254.got.cif
#   From: 2010.03.12/outbox.cif.g09.slc.cpg/sg84_1_cif.got.tgz:1254.got - 2010.04.08 20:07:29.
