data_PCOD8303912
_publ_section_title
;
Structure prediction by ZEFSAII (Michael W. Deem and Ramdas Pophale) SiO2 
 PCOD8303912
Probable space group: I 4/M
;
_chemical_formula_sum "Si O2"
_cell_formula_units_Z 72
_cell_length_a 20.742268
_cell_length_b 20.742268
_cell_length_c 8.032677
_cell_angle_alpha 90.000000
_cell_angle_beta 90.000000
_cell_angle_gamma 90.000000
_cell_volume 3455.992462
_symmetry_space_group_name_H-M "I 4/M"
_symmetry_group_IT_number 87
_symmetry_cell_setting 'tetragonal'
loop_
_space_group_symop_operation_xyz
x,y,z
-y,x,z
-x,-y,z
y,-x,z
-x,-y,-z
y,-x,-z
x,y,-z
-y,x,-z
1/2+x,1/2+y,1/2+z
1/2-y,1/2+x,1/2+z
1/2-x,1/2-y,1/2+z
1/2+y,1/2-x,1/2+z
1/2-x,1/2-y,1/2-z
1/2+y,1/2-x,1/2-z
1/2+x,1/2+y,1/2-z
1/2-y,1/2+x,1/2-z
loop_
_atom_site_type_symbol
_atom_site_label
_atom_site_fract_x
_atom_site_fract_y
_atom_site_fract_z
Si Si1 0.063582 0.819601 0.307358
Si Si2 0.907520 0.951830 0.000000
Si Si3 0.941361 0.736372 0.302924
Si Si4 0.095749 0.526168 0.808100
Si Si5 0.791437 0.191154 0.311279
O O1 0.053081 0.843627 0.500000
O O2 0.067561 0.876591 0.175318
O O3 0.134198 0.787704 0.290215
O O4 0.007359 0.771622 0.247356
O O5 0.972621 0.913257 0.000000
O O6 0.938620 0.737806 0.500000
O O7 0.944929 0.662690 0.237366
O O8 0.877691 0.771583 0.224942
O O9 0.078876 0.460511 0.711086
O O10 0.103273 0.507344 0.000000
O O11 0.773118 0.179819 0.500000
O O12 0.750000 0.250000 0.250000
#
# Coordination Sequence:
#
# PCOD8303912 Si02
#       5
#    16   8  16  16  16
#     4  10  22  43  66  88 127 173 212 257 320 383
#     4  11  24  40  64  98 128 157 212 270 312 374
#     4   9  20  39  61  86 121 163 205 255 314 380
#     4  10  20  36  56  81 117 154 202 255 305 374
#     4  10  22  39  62  91 124 162 208 264 323 381
#
# _framework density 20.833379999999998
#
# number of rings (size 3 to 8) (size 9 to 14) (size 15 to 20)
#    0.000    2.111    0.000    2.667    4.667    2.667 
#    6.000    1.111    0.000    0.000    0.000    0.000 
#    0.000    0.000    0.000    0.000    0.000    0.000 
#
# Total GULP energy -446114.437687 kJ/mol
# GULP energy per Si atom -12392.067714 kJ/mol
# Density = 2.078596 g / cm^3
# Si number density = 20.833380 Si / 1000 Ang^3
#
#
#
# Elastic Constant Matrix: (Units=GPa)
#
#
# Indices 1 2 3 4 5 6 
#
# 1 137.8117 50.5557 22.4196 0.0000 0.0000 2.6011
# 2 50.5557 137.8117 22.4196 0.0000 0.0000 -2.6011
# 3 22.4196 22.4196 64.2420 0.0000 0.0000 0.0000
# 4 0.0000 0.0000 0.0000 19.2677 0.0000 0.0000
# 5 0.0000 0.0000 0.0000 0.0000 19.2677 0.0000
# 6 2.6011 -2.6011 0.0000 0.0000 0.0000 37.6844
#
#
#
# Elastic Compliance Matrix: (Units=1/GPa)
#
#
# Indices 1 2 3 4 5 6 
#
# 1 0.008649 -0.002859 -0.002021 0.000000 0.000000 -0.000794
# 2 -0.002859 0.008649 -0.002021 0.000000 0.000000 0.000794
# 3 -0.002021 -0.002021 0.016976 0.000000 0.000000 0.000000
# 4 0.000000 0.000000 0.000000 0.051900 0.000000 0.000000
# 5 0.000000 0.000000 0.000000 0.000000 0.051900 0.000000
# 6 -0.000794 0.000794 0.000000 0.000000 0.000000 0.026646
#
#
# Mechanical properties :
#
#
# Convention : Reuss Voigt Hill
#
# Bulk Modulus (GPa) = 48.84304 58.96167 53.90236
# Shear Modulus (GPa) = 26.97662 31.54198 29.25930
#
# Velocity S-wave (km/s) = 3.60234 3.89525 3.75166
# Velocity P-wave (km/s) = 6.38733 6.97091 6.68549
#
# Compressibility (1/GPa) = 0.02047374
#
# Stress axis : x y z
#
# Youngs Moduli (GPa) = 115.62272 115.62272 58.90521
#
# Poissons Ratio (x) = 0.33057 0.11902
# Poissons Ratio (y) = 0.33057 0.11902
# Poissons Ratio (z) = 0.23362 0.23362
#
# Static dielectric constant tensor:
#      x y z
#    x 3.776630 0.000000 0.000000 
#    y 0.000000 3.776630 0.000000 
#    z 0.000000 0.000000 4.594550 
# 
# 
# High freq. dielectric constant tensor:
#      x y z
#    x 1.820420 0.000000 0.000000 
#    y 0.000000 1.820420 0.000000 
#    z 0.000000 0.000000 1.801330 
# 
# From -- ./inp_files/1042.got.cif
#   From: 2010.03.12/outbox.cif.g09.slc.cpg/sg87_1_cif.got.tgz:1042.got - 2010.04.08 20:16:13.
