data_PCOD8303113
_publ_section_title
;
Structure prediction by ZEFSAII (Michael W. Deem and Ramdas Pophale) SiO2 
 PCOD8303113
Probable space group: P 42/M
;
_chemical_formula_sum "Si O2"
_cell_formula_units_Z 40
_cell_length_a 14.359248
_cell_length_b 14.359248
_cell_length_c 9.078488
_cell_angle_alpha 90.000000
_cell_angle_beta 90.000000
_cell_angle_gamma 90.000000
_cell_volume 1871.875312
_symmetry_space_group_name_H-M "P 42/M"
_symmetry_group_IT_number 84
_symmetry_cell_setting 'tetragonal'
loop_
_space_group_symop_operation_xyz
x,y,z
-y,x,1/2+z
-x,-y,z
y,-x,1/2+z
-x,-y,-z
y,-x,1/2-z
x,y,-z
-y,x,1/2-z
loop_
_atom_site_type_symbol
_atom_site_label
_atom_site_fract_x
_atom_site_fract_y
_atom_site_fract_z
Si Si1 0.409058 0.585423 0.836815
Si Si2 0.127685 0.967280 0.329803
Si Si3 0.671562 0.784970 0.335809
Si Si4 0.490954 0.893995 0.324252
Si Si5 0.162221 0.288777 0.831684
O O1 0.485735 0.625853 0.725129
O O2 0.324293 0.654150 0.843830
O O3 0.451526 0.572366 0.000000
O O4 0.100537 0.982967 0.500000
O O5 0.235922 0.936978 0.317062
O O6 0.061490 0.886742 0.262038
O O7 0.691089 0.825246 0.500000
O O8 0.582322 0.838343 0.265176
O O9 0.765142 0.784379 0.240902
O O10 0.488582 0.888903 0.500000
O O11 0.393276 0.849933 0.263223
O O12 0.500000 0.000000 0.268917
O O13 0.193479 0.298995 0.000000
#
# Coordination Sequence:
#
# PCOD8303113 Si02
#       5
#     8   8   8   8   8
#     4  10  19  31  49  76 105 140 183 230 287 340
#     4  10  21  37  60  89 119 154 194 244 302 354
#     4  10  21  35  56  82 109 149 194 239 289 347
#     4   9  19  37  60  84 113 153 200 242 290 356
#     4  10  22  38  60  89 118 155 199 245 299 355
#
# _framework density 21.368945
#
# number of rings (size 3 to 8) (size 9 to 14) (size 15 to 20)
#    0.000    2.200    0.000    3.600    2.800    4.800 
#    0.000    1.000    0.000    1.200    0.000    0.000 
#    0.000    0.000    0.000    0.000    0.000    0.000 
#
# Total GULP energy -495566.751028 kJ/mol
# GULP energy per Si atom -12389.168776 kJ/mol
# Density = 2.132031 g / cm^3
# Si number density = 21.368945 Si / 1000 Ang^3
#
#
#
# Elastic Constant Matrix: (Units=GPa)
#
#
# Indices 1 2 3 4 5 6 
#
# 1 80.7147 30.8017 11.8857 0.0000 0.0000 -10.1399
# 2 30.8017 80.7147 11.8857 0.0000 0.0000 10.1399
# 3 11.8857 11.8857 73.6986 0.0000 0.0000 0.0000
# 4 0.0000 0.0000 0.0000 18.5717 0.0000 0.0000
# 5 0.0000 0.0000 0.0000 0.0000 18.5717 0.0000
# 6 -10.1399 10.1399 0.0000 0.0000 0.0000 40.5716
#
#
#
# Elastic Compliance Matrix: (Units=1/GPa)
#
#
# Indices 1 2 3 4 5 6 
#
# 1 0.015793 -0.006506 -0.001498 0.000000 0.000000 0.005573
# 2 -0.006506 0.015793 -0.001498 0.000000 0.000000 -0.005573
# 3 -0.001498 -0.001498 0.014052 0.000000 0.000000 0.000000
# 4 0.000000 0.000000 0.000000 0.053845 0.000000 0.000000
# 5 0.000000 0.000000 0.000000 0.000000 0.053845 0.000000
# 6 0.005573 -0.005573 0.000000 0.000000 0.000000 0.027434
#
#
# Mechanical properties :
#
#
# Convention : Reuss Voigt Hill
#
# Bulk Modulus (GPa) = 37.54570 38.25269 37.89920
# Shear Modulus (GPa) = 23.96431 27.57998 25.77215
#
# Velocity S-wave (km/s) = 3.35245 3.59647 3.47660
# Velocity P-wave (km/s) = 5.70908 5.93178 5.82149
#
# Compressibility (1/GPa) = 0.02663421
#
# Stress axis : x y z
#
# Youngs Moduli (GPa) = 63.31959 63.31959 71.16499
#
# Poissons Ratio (x) = 0.41198 0.10658
# Poissons Ratio (y) = 0.41198 0.10658
# Poissons Ratio (z) = 0.09483 0.09483
#
# Static dielectric constant tensor:
#      x y z
#    x 3.824770 0.000000 0.000000 
#    y 0.000000 3.824770 0.000000 
#    z 0.000000 0.000000 3.817480 
# 
# 
# High freq. dielectric constant tensor:
#      x y z
#    x 1.841550 0.000000 0.000000 
#    y 0.000000 1.841550 0.000000 
#    z 0.000000 0.000000 1.804750 
# 
# From -- ./inp_files/786.got.cif
#   From: 2010.03.12/outbox.cif.g09.slc.cpg/sg84_1_cif.got.tgz:786.got - 2010.04.08 20:07:29.
