data_PCOD8303692
_publ_section_title
;
Structure prediction by ZEFSAII (Michael W. Deem and Ramdas Pophale) SiO2 
 PCOD8303692
Probable space group: P 42/N
;
_chemical_formula_sum "Si O2"
_cell_formula_units_Z 56
_cell_length_a 14.831780
_cell_length_b 14.831780
_cell_length_c 11.243885
_cell_angle_alpha 90.000000
_cell_angle_beta 90.000000
_cell_angle_gamma 90.000000
_cell_volume 2473.448914
_symmetry_space_group_name_H-M "P 42/N"
_symmetry_group_IT_number 86
_space_group.IT_coordinate_system_code '2'
_symmetry_cell_setting 'tetragonal'
loop_
_space_group_symop_operation_xyz
x,y,z
-y,1/2+x,1/2+z
1/2-x,1/2-y,z
1/2+y,-x,1/2+z
-x,-y,-z
y,1/2-x,1/2-z
1/2+x,1/2+y,-z
1/2-y,x,1/2-z
loop_
_atom_site_type_symbol
_atom_site_label
_atom_site_fract_x
_atom_site_fract_y
_atom_site_fract_z
Si Si1 0.900983 0.883936 0.697312
Si Si2 0.615055 0.967381 0.389160
Si Si3 0.807819 0.446226 0.954223
Si Si4 0.648774 0.269134 0.234286
Si Si5 0.416975 0.925093 0.821162
Si Si6 0.933901 0.381104 0.571919
Si Si7 0.725302 0.854701 0.570445
O O1 0.816532 0.902314 0.611368
O O2 0.865971 0.849376 0.825615
O O3 0.968224 0.812829 0.634655
O O4 0.951491 0.979567 0.708636
O O5 0.526634 0.908319 0.365838
O O6 0.691344 0.905134 0.450986
O O7 0.645487 0.008379 0.260822
O O8 0.588808 0.056389 0.461317
O O9 0.798861 0.356807 0.872573
O O10 0.894266 0.440704 0.040342
O O11 0.721063 0.451159 0.036083
O O12 0.750000 0.250000 0.194483
O O13 0.592550 0.179307 0.212163
O O14 0.606335 0.350674 0.160498
O O15 0.750000 0.750000 0.546628
#
# Coordination Sequence:
#
# PCOD8303692 Si02
#       7
#     8   8   8   8   8   8   8
#     4  12  23  44  73 107 145 183 250 305 357 436
#     4  11  24  44  71 103 142 188 239 296 367 432
#     4  12  26  45  70 105 143 187 240 300 365 440
#     4  12  26  44  70 102 145 187 241 299 362 445
#     4  12  26  45  70 105 145 193 236 298 376 431
#     4  11  23  44  71 101 141 189 235 293 363 434
#     4  12  24  43  78 111 139 189 248 305 355 424
#
# _framework density 22.640452
#
# number of rings (size 3 to 8) (size 9 to 14) (size 15 to 20)
#    0.000    0.286    4.286    6.429    2.000    1.143 
#    2.571    0.000    0.000    0.857    0.000    0.000 
#    0.000    0.000    0.000    0.000    0.000    0.000 
#
# Total GULP energy -694447.700723 kJ/mol
# GULP energy per Si atom -12400.851799 kJ/mol
# Density = 2.258892 g / cm^3
# Si number density = 22.640452 Si / 1000 Ang^3
#
#
#
# Elastic Constant Matrix: (Units=GPa)
#
#
# Indices 1 2 3 4 5 6 
#
# 1 96.3899 12.3730 32.4466 0.0000 0.0000 0.3520
# 2 12.3730 96.3899 32.4466 0.0000 0.0000 -0.3520
# 3 32.4466 32.4466 100.2991 0.0000 0.0000 0.0000
# 4 0.0000 0.0000 0.0000 35.7071 0.0000 0.0000
# 5 0.0000 0.0000 0.0000 0.0000 35.7071 0.0000
# 6 0.3520 -0.3520 0.0000 0.0000 0.0000 32.6729
#
#
#
# Elastic Compliance Matrix: (Units=1/GPa)
#
#
# Indices 1 2 3 4 5 6 
#
# 1 0.011648 -0.000255 -0.003686 0.000000 0.000000 -0.000128
# 2 -0.000255 0.011648 -0.003686 0.000000 0.000000 0.000128
# 3 -0.003686 -0.003686 0.012355 0.000000 0.000000 0.000000
# 4 0.000000 0.000000 0.000000 0.028006 0.000000 0.000000
# 5 0.000000 0.000000 0.000000 0.000000 0.028006 0.000000
# 6 -0.000128 0.000128 0.000000 0.000000 0.000000 0.030609
#
#
# Mechanical properties :
#
#
# Convention : Reuss Voigt Hill
#
# Bulk Modulus (GPa) = 49.02279 49.73456 49.37867
# Shear Modulus (GPa) = 34.64412 35.20496 34.92454
#
# Velocity S-wave (km/s) = 3.91600 3.94757 3.93182
# Velocity P-wave (km/s) = 6.49204 6.54161 6.51687
#
# Compressibility (1/GPa) = 0.02039868
#
# Stress axis : x y z
#
# Youngs Moduli (GPa) = 85.84852 85.84852 80.93990
#
# Poissons Ratio (x) = 0.02189 0.29832
# Poissons Ratio (y) = 0.02189 0.29832
# Poissons Ratio (z) = 0.31642 0.31642
#
# Static dielectric constant tensor:
#      x y z
#    x 4.112420 0.000000 0.000000 
#    y 0.000000 4.112420 0.000000 
#    z 0.000000 0.000000 4.043500 
# 
# 
# High freq. dielectric constant tensor:
#      x y z
#    x 1.898370 0.000000 0.000000 
#    y 0.000000 1.898370 0.000000 
#    z 0.000000 0.000000 1.885130 
# 
# From -- ./inp_files/2389.got.cif
#   From: 2010.03.12/outbox.cif.g09.slc.cpg/sg86_2_cif.got.tgz:2389.got - 2010.04.08 20:12:58.
