data_PCOD8303863
_publ_section_title
;
Structure prediction by ZEFSAII (Michael W. Deem and Ramdas Pophale) SiO2 
 PCOD8303863
Probable space group: I 4/M
;
_chemical_formula_sum "Si O2"
_cell_formula_units_Z 96
_cell_length_a 24.976906
_cell_length_b 24.976906
_cell_length_c 8.769996
_cell_angle_alpha 90.000000
_cell_angle_beta 90.000000
_cell_angle_gamma 90.000000
_cell_volume 5471.125463
_symmetry_space_group_name_H-M "I 4/M"
_symmetry_group_IT_number 87
_symmetry_cell_setting 'tetragonal'
loop_
_space_group_symop_operation_xyz
x,y,z
-y,x,z
-x,-y,z
y,-x,z
-x,-y,-z
y,-x,-z
x,y,-z
-y,x,-z
1/2+x,1/2+y,1/2+z
1/2-y,1/2+x,1/2+z
1/2-x,1/2-y,1/2+z
1/2+y,1/2-x,1/2+z
1/2-x,1/2-y,1/2-z
1/2+y,1/2-x,1/2-z
1/2+x,1/2+y,1/2-z
1/2-y,1/2+x,1/2-z
loop_
_atom_site_type_symbol
_atom_site_label
_atom_site_fract_x
_atom_site_fract_y
_atom_site_fract_z
Si Si1 0.751368 0.935882 0.670273
Si Si2 0.438854 0.139304 0.676378
Si Si3 0.554652 0.358756 0.320899
Si Si4 0.937539 0.356235 0.822203
Si Si5 0.060761 0.136161 0.320056
Si Si6 0.562860 0.754763 0.168798
O O1 0.758629 0.912593 0.500000
O O2 0.802197 0.918695 0.772099
O O3 0.696202 0.913245 0.739977
O O4 0.748049 0.999305 0.667679
O O5 0.428525 0.128004 0.500000
O O6 0.408094 0.095379 0.774113
O O7 0.500818 0.133752 0.722739
O O8 0.417586 0.199176 0.715618
O O9 0.542321 0.358366 0.500000
O O10 0.500806 0.369702 0.227352
O O11 0.595427 0.405645 0.280587
O O12 0.932244 0.346009 0.000000
O O13 0.065753 0.123968 0.500000
O O14 0.083227 0.195869 0.282247
O O15 0.584054 0.769427 0.000000
#
# Coordination Sequence:
#
# PCOD8303863 Si02
#       6
#    16  16  16  16  16  16
#     4   9  17  32  52  72  96 129 168 205 243 292
#     4  10  20  32  49  73 100 131 165 203 248 296
#     4  11  21  33  51  77 105 132 165 206 250 295
#     4  10  20  33  50  73 101 132 167 207 248 293
#     4  10  20  35  53  74 101 135 170 204 247 297
#     4   8  16  31  51  71  93 125 165 205 241 285
#
# _framework density 17.546662999999999
#
# number of rings (size 3 to 8) (size 9 to 14) (size 15 to 20)
#    0.000    2.333    0.000    4.500    0.000    7.333 
#    0.000    3.333    0.000    1.000    0.000    0.000 
#    0.000    0.000    0.000    0.000    0.000    0.000 
#
# Total GULP energy -595139.118891 kJ/mol
# GULP energy per Si atom -12398.731644 kJ/mol
# Density = 1.750673 g / cm^3
# Si number density = 17.546663 Si / 1000 Ang^3
#
#
#
# Elastic Constant Matrix: (Units=GPa)
#
#
# Indices 1 2 3 4 5 6 
#
# 1 70.2291 35.5493 22.6877 0.0000 0.0000 1.1252
# 2 35.5493 70.2291 22.6877 0.0000 0.0000 -1.1252
# 3 22.6877 22.6877 67.9268 0.0000 0.0000 0.0000
# 4 0.0000 0.0000 0.0000 29.2434 0.0000 0.0000
# 5 0.0000 0.0000 0.0000 0.0000 29.2434 0.0000
# 6 1.1252 -1.1252 0.0000 0.0000 0.0000 -0.5603
#
#
#
# Elastic Compliance Matrix: (Units=1/GPa)
#
#
# Indices 1 2 3 4 5 6 
#
# 1 0.018273 -0.007238 -0.003686 0.000000 0.000000 0.051233
# 2 -0.007238 0.018273 -0.003686 0.000000 0.000000 -0.051233
# 3 -0.003686 -0.003686 0.017184 0.000000 0.000000 0.000000
# 4 0.000000 0.000000 0.000000 0.034196 0.000000 0.000000
# 5 0.000000 0.000000 0.000000 0.000000 0.034196 0.000000
# 6 0.051233 -0.051233 0.000000 0.000000 0.000000 -1.579012
#
#
# Mechanical properties :
#
#
# Convention : Reuss Voigt Hill
#
# Bulk Modulus (GPa) = 40.79849 41.13716 40.96783
# Shear Modulus (GPa) = -3.52236 20.08267 8.28015
#
# Velocity S-wave (km/s) = -1.41837 3.38676 2.17467
# Velocity P-wave (km/s) = 4.54087 6.22807 5.45015
#
# Compressibility (1/GPa) = 0.02451071
#
# Stress axis : x y z
#
# Youngs Moduli (GPa) = 54.72653 54.72653 58.19452
#
# Poissons Ratio (x) = 0.39611 0.21448
# Poissons Ratio (y) = 0.39611 0.21448
# Poissons Ratio (z) = 0.20170 0.20170
#
# Static dielectric constant tensor:
#      x y z
#    x 3.226430 0.000000 0.000000 
#    y 0.000000 3.226430 0.000000 
#    z 0.000000 0.000000 3.391730 
# 
# 
# High freq. dielectric constant tensor:
#      x y z
#    x 1.660260 0.000000 0.000000 
#    y 0.000000 1.660260 0.000000 
#    z 0.000000 0.000000 1.691970 
# 
# From -- ./inp_files/1312.got.cif
#   From: 2010.03.12/outbox.cif.g09.slc.cpg/sg87_1_cif.got.tgz:1312.got - 2010.04.08 20:16:13.
