data_PCOD8303590
_publ_section_title
;
Structure prediction by ZEFSAII (Michael W. Deem and Ramdas Pophale) SiO2 
 PCOD8303590
Probable space group: P 42/N
;
_chemical_formula_sum "Si O2"
_cell_formula_units_Z 48
_cell_length_a 8.882789
_cell_length_b 8.882789
_cell_length_c 29.169890
_cell_angle_alpha 90.000000
_cell_angle_beta 90.000000
_cell_angle_gamma 90.000000
_cell_volume 2301.619263
_symmetry_space_group_name_H-M "P 42/N"
_symmetry_group_IT_number 86
_space_group.IT_coordinate_system_code '2'
_symmetry_cell_setting 'tetragonal'
loop_
_space_group_symop_operation_xyz
x,y,z
-y,1/2+x,1/2+z
1/2-x,1/2-y,z
1/2+y,-x,1/2+z
-x,-y,-z
y,1/2-x,1/2-z
1/2+x,1/2+y,-z
1/2-y,x,1/2-z
loop_
_atom_site_type_symbol
_atom_site_label
_atom_site_fract_x
_atom_site_fract_y
_atom_site_fract_z
Si Si1 0.088586 0.821923 0.954901
Si Si2 0.411599 0.322968 0.954073
Si Si3 0.913922 0.679806 0.136037
Si Si4 0.178009 0.913774 0.363970
Si Si5 0.029643 0.312091 0.232390
Si Si6 0.203760 0.469818 0.732166
O O1 0.250000 0.750000 0.961653
O O2 0.011006 0.746183 0.910160
O O3 0.101202 0.999324 0.946961
O O4 0.998217 0.779520 0.000113
O O5 0.250000 0.250000 0.959267
O O6 0.493738 0.249036 0.909483
O O7 0.750000 0.750000 0.139416
O O8 0.903112 0.501222 0.132453
O O9 0.002254 0.729709 0.181776
O O10 0.250000 0.750000 0.357491
O O11 0.224547 0.019578 0.321539
O O12 0.160838 0.434947 0.239827
O O13 0.870173 0.376772 0.249621
O O14 0.335795 0.421310 0.767654
#
# Coordination Sequence:
#
# PCOD8303590 Si02
#       6
#     8   8   8   8   8   8
#     4  10  22  41  64  93 123 167 203 255 328 373
#     4  10  22  39  63  94 125 159 209 263 307 377
#     4  11  20  35  61 100 121 157 214 259 305 365
#     4  11  23  38  67  90 120 169 208 257 316 376
#     4  11  27  43  58  89 129 169 202 256 318 378
#     4  11  21  38  65  93 121 163 211 266 292 367
#
# _framework density 20.854883000000001
#
# number of rings (size 3 to 8) (size 9 to 14) (size 15 to 20)
#    0.000    1.333    3.333    4.000    7.000    2.667 
#    3.000    1.667    0.000    0.000    0.000    0.000 
#    0.000    0.000    0.000    0.000    0.000    0.000 
#
# Total GULP energy -595152.887491 kJ/mol
# GULP energy per Si atom -12399.018489 kJ/mol
# Density = 2.080742 g / cm^3
# Si number density = 20.854883 Si / 1000 Ang^3
#
#
#
# Elastic Constant Matrix: (Units=GPa)
#
#
# Indices 1 2 3 4 5 6 
#
# 1 75.3147 25.9777 68.2634 0.0000 0.0000 1.7872
# 2 25.9777 75.3147 68.2634 0.0000 0.0000 -1.7872
# 3 68.2634 68.2634 222.8274 0.0000 0.0000 0.0000
# 4 0.0000 0.0000 0.0000 78.9669 0.0000 0.0000
# 5 0.0000 0.0000 0.0000 0.0000 78.9669 0.0000
# 6 1.7872 -1.7872 0.0000 0.0000 0.0000 37.8541
#
#
#
# Elastic Compliance Matrix: (Units=1/GPa)
#
#
# Indices 1 2 3 4 5 6 
#
# 1 0.018577 -0.001761 -0.005152 0.000000 0.000000 -0.000960
# 2 -0.001761 0.018577 -0.005152 0.000000 0.000000 0.000960
# 3 -0.005152 -0.005152 0.007644 0.000000 0.000000 0.000000
# 4 0.000000 0.000000 0.000000 0.012664 0.000000 0.000000
# 5 0.000000 0.000000 0.000000 0.000000 0.012664 0.000000
# 6 -0.000960 0.000960 0.000000 0.000000 0.000000 0.026508
#
#
# Mechanical properties :
#
#
# Convention : Reuss Voigt Hill
#
# Bulk Modulus (GPa) = 48.37988 77.60734 62.99361
# Shear Modulus (GPa) = 39.16894 53.22105 46.19500
#
# Velocity S-wave (km/s) = 4.33848 5.05718 4.71156
# Velocity P-wave (km/s) = 6.95308 8.44949 7.73755
#
# Compressibility (1/GPa) = 0.02066975
#
# Stress axis : x y z
#
# Youngs Moduli (GPa) = 53.82951 53.82951 130.81863
#
# Poissons Ratio (x) = 0.09480 0.67392
# Poissons Ratio (y) = 0.09480 0.67392
# Poissons Ratio (z) = 0.27731 0.27731
#
# Static dielectric constant tensor:
#      x y z
#    x 3.691550 0.000000 0.000000 
#    y 0.000000 3.691550 0.000000 
#    z 0.000000 0.000000 4.723310 
# 
# 
# High freq. dielectric constant tensor:
#      x y z
#    x 1.807260 0.000000 0.000000 
#    y 0.000000 1.807260 0.000000 
#    z 0.000000 0.000000 1.837390 
# 
# From -- ./inp_files/5211.got.cif
#   From: 2010.03.12/outbox.cif.g09.slc.cpg/sg86_3_cif.got.tgz:5211.got - 2010.04.08 20:12:58.
