data_PCOD8303274
_publ_section_title
;
Structure prediction by ZEFSAII (Michael W. Deem and Ramdas Pophale) SiO2 
 PCOD8303274
Probable space group: P 42/M
;
_chemical_formula_sum "Si O2"
_cell_formula_units_Z 48
_cell_length_a 9.584178
_cell_length_b 9.584178
_cell_length_c 27.557110
_cell_angle_alpha 90.000000
_cell_angle_beta 90.000000
_cell_angle_gamma 90.000000
_cell_volume 2531.298791
_symmetry_space_group_name_H-M "P 42/M"
_symmetry_group_IT_number 84
_symmetry_cell_setting 'tetragonal'
loop_
_space_group_symop_operation_xyz
x,y,z
-y,x,1/2+z
-x,-y,z
y,-x,1/2+z
-x,-y,-z
y,-x,1/2-z
x,y,-z
-y,x,1/2-z
loop_
_atom_site_type_symbol
_atom_site_label
_atom_site_fract_x
_atom_site_fract_y
_atom_site_fract_z
Si Si1 0.137306 0.912234 0.447593
Si Si2 0.021250 0.167912 0.156871
Si Si3 0.338519 0.739457 0.703861
Si Si4 0.344175 0.494882 0.368997
Si Si5 0.873008 0.409137 0.444490
Si Si6 0.340383 0.236840 0.307918
O O1 0.220459 0.922250 0.500000
O O2 0.217437 0.969729 0.399957
O O3 0.093086 0.753165 0.437375
O O4 0.000000 0.000000 0.454319
O O5 0.161830 0.216477 0.183287
O O6 0.900127 0.250220 0.183734
O O7 0.000000 0.000000 0.161105
O O8 0.323807 0.591575 0.677800
O O9 0.313555 0.714192 0.760199
O O10 0.494759 0.800606 0.695743
O O11 0.500000 0.500000 0.388346
O O12 0.260357 0.547323 0.414691
O O13 0.307242 0.337858 0.353144
O O14 0.843153 0.448130 0.500000
O O15 0.000000 0.500000 0.423791
#
# Coordination Sequence:
#
# PCOD8303274 Si02
#       6
#     8   8   8   8   8   8
#     4   9  19  38  61  85 120 158 191 240 305 360
#     4  11  25  40  60  94 123 155 199 252 300 351
#     4  11  22  43  61  86 120 162 203 244 296 363
#     4  10  22  39  63  88 120 160 203 244 298 362
#     4  10  21  38  63  93 119 152 204 255 302 355
#     4  11  24  40  63  86 121 163 202 245 298 360
#
# _framework density 18.962598
#
# number of rings (size 3 to 8) (size 9 to 14) (size 15 to 20)
#    0.000    1.667    3.333    0.500    7.000    0.333 
#    0.000    0.000    0.000    3.000    0.000    0.000 
#    0.000    0.000    0.000    0.000    0.000    0.000 
#
# Total GULP energy -594968.097896 kJ/mol
# GULP energy per Si atom -12395.168706 kJ/mol
# Density = 1.891944 g / cm^3
# Si number density = 18.962598 Si / 1000 Ang^3
#
#
#
# Elastic Constant Matrix: (Units=GPa)
#
#
# Indices 1 2 3 4 5 6 
#
# 1 85.5297 45.6446 39.2071 0.0000 0.0000 2.1798
# 2 45.6446 85.5297 39.2071 0.0000 0.0000 -2.1798
# 3 39.2071 39.2071 90.5130 0.0000 0.0000 0.0000
# 4 0.0000 0.0000 0.0000 22.0526 0.0000 0.0000
# 5 0.0000 0.0000 0.0000 0.0000 22.0526 0.0000
# 6 2.1798 -2.1798 0.0000 0.0000 0.0000 26.3898
#
#
#
# Elastic Compliance Matrix: (Units=1/GPa)
#
#
# Indices 1 2 3 4 5 6 
#
# 1 0.017794 -0.007507 -0.004456 0.000000 0.000000 -0.002090
# 2 -0.007507 0.017794 -0.004456 0.000000 0.000000 0.002090
# 3 -0.004456 -0.004456 0.014909 0.000000 0.000000 0.000000
# 4 0.000000 0.000000 0.000000 0.045346 0.000000 0.000000
# 5 0.000000 0.000000 0.000000 0.000000 0.045346 0.000000
# 6 -0.002090 0.002090 0.000000 0.000000 0.000000 0.038239
#
#
# Mechanical properties :
#
#
# Convention : Reuss Voigt Hill
#
# Bulk Modulus (GPa) = 56.62922 56.63224 56.63073
# Shear Modulus (GPa) = 22.91989 23.26655 23.09322
#
# Velocity S-wave (km/s) = 3.48039 3.50661 3.49353
# Velocity P-wave (km/s) = 6.78817 6.80626 6.79722
#
# Compressibility (1/GPa) = 0.01765873
#
# Stress axis : x y z
#
# Youngs Moduli (GPa) = 56.19916 56.19916 67.07549
#
# Poissons Ratio (x) = 0.42187 0.29889
# Poissons Ratio (y) = 0.42187 0.29889
# Poissons Ratio (z) = 0.25043 0.25043
#
# Static dielectric constant tensor:
#      x y z
#    x 2.709940 0.000000 0.000000 
#    y 0.000000 2.709940 0.000000 
#    z 0.000000 0.000000 3.788600 
# 
# 
# High freq. dielectric constant tensor:
#      x y z
#    x 1.732840 0.000000 0.000000 
#    y 0.000000 1.732840 0.000000 
#    z 0.000000 0.000000 1.750550 
# 
# From -- ./inp_files/5733.got.cif
#   From: 2010.03.12/outbox.cif.g09.slc.cpg/sg84_3_cif.got.tgz:5733.got - 2010.04.08 20:07:29.
