data_PCOD8303658
_publ_section_title
;
Structure prediction by ZEFSAII (Michael W. Deem and Ramdas Pophale) SiO2 
 PCOD8303658
Probable space group: P 42/N
;
_chemical_formula_sum "Si O2"
_cell_formula_units_Z 46
_cell_length_a 10.763355
_cell_length_b 10.763355
_cell_length_c 17.511520
_cell_angle_alpha 90.000000
_cell_angle_beta 90.000000
_cell_angle_gamma 90.000000
_cell_volume 2028.706280
_symmetry_space_group_name_H-M "P 42/N"
_symmetry_group_IT_number 86
_space_group.IT_coordinate_system_code '2'
_symmetry_cell_setting 'tetragonal'
loop_
_space_group_symop_operation_xyz
x,y,z
-y,1/2+x,1/2+z
1/2-x,1/2-y,z
1/2+y,-x,1/2+z
-x,-y,-z
y,1/2-x,1/2-z
1/2+x,1/2+y,-z
1/2-y,x,1/2-z
loop_
_atom_site_type_symbol
_atom_site_label
_atom_site_fract_x
_atom_site_fract_y
_atom_site_fract_z
Si Si1 0.750000 0.750000 0.250000
Si Si2 0.551713 0.228062 0.381974
Si Si3 0.113045 0.922848 0.967248
Si Si4 0.549916 0.663698 0.843017
Si Si5 0.993124 0.237264 0.668363
Si Si6 0.548616 0.947115 0.814883
Si Si7 0.750000 0.250000 0.258870
O O1 0.722287 0.623878 0.204305
O O2 0.626458 0.190337 0.459261
O O3 0.417118 0.162250 0.377663
O O4 0.522846 0.374568 0.379176
O O5 0.637774 0.193963 0.309596
O O6 0.207913 0.004525 0.916914
O O7 0.055945 0.820291 0.909258
O O8 0.000000 0.000000 0.000000
O O9 0.585549 0.801541 0.817326
O O10 0.502414 0.587019 0.768843
O O11 0.868871 0.293211 0.709184
O O12 0.977752 0.090805 0.665009
#
# Coordination Sequence:
#
# PCOD8303658 Si02
#       7
#     2   8   8   8   8   8   4
#     4  12  28  44  76 104 156 188 246 300 376 448
#     4  11  24  41  67 108 138 187 232 302 363 434
#     4  10  25  46  65  98 147 187 228 292 375 426
#     4  11  21  41  70 102 138 178 233 306 357 413
#     4  12  25  46  71 104 142 198 240 304 364 441
#     4  12  22  41  75 105 134 178 259 295 349 432
#     4  12  24  44  78 106 144 188 258 298 354 434
#
# _framework density 22.674548999999999
#
# number of rings (size 3 to 8) (size 9 to 14) (size 15 to 20)
#    0.000    0.696    3.478    4.696    2.435    2.783 
#    6.261    0.000    0.000    0.000    0.000    0.000 
#    0.000    0.000    0.000    0.000    0.000    0.000 
#
# Total GULP energy -569926.199333 kJ/mol
# GULP energy per Si atom -12389.699986 kJ/mol
# Density = 2.262294 g / cm^3
# Si number density = 22.674549 Si / 1000 Ang^3
#
#
#
# Elastic Constant Matrix: (Units=GPa)
#
#
# Indices 1 2 3 4 5 6 
#
# 1 110.1737 13.2378 49.8859 0.0000 0.0000 -3.1287
# 2 13.2378 110.1737 49.8859 0.0000 0.0000 3.1287
# 3 49.8859 49.8859 150.3681 0.0000 0.0000 0.0000
# 4 0.0000 0.0000 0.0000 24.3564 0.0000 0.0000
# 5 0.0000 0.0000 0.0000 0.0000 24.3564 0.0000
# 6 -3.1287 3.1287 0.0000 0.0000 0.0000 27.2926
#
#
#
# Elastic Compliance Matrix: (Units=1/GPa)
#
#
# Indices 1 2 3 4 5 6 
#
# 1 0.010733 0.000340 -0.003673 0.000000 0.000000 0.001191
# 2 0.000340 0.010733 -0.003673 0.000000 0.000000 -0.001191
# 3 -0.003673 -0.003673 0.009088 0.000000 0.000000 0.000000
# 4 0.000000 0.000000 0.000000 0.041057 0.000000 0.000000
# 5 0.000000 0.000000 0.000000 0.000000 0.041057 0.000000
# 6 0.001191 -0.001191 0.000000 0.000000 0.000000 0.036913
#
#
# Mechanical properties :
#
#
# Convention : Reuss Voigt Hill
#
# Bulk Modulus (GPa) = 60.46173 66.30387 63.38280
# Shear Modulus (GPa) = 29.56691 32.38147 30.97419
#
# Velocity S-wave (km/s) = 3.61497 3.78312 3.70000
# Velocity P-wave (km/s) = 6.64431 6.95612 6.80201
#
# Compressibility (1/GPa) = 0.01653939
#
# Stress axis : x y z
#
# Youngs Moduli (GPa) = 93.17145 93.17145 110.03795
#
# Poissons Ratio (x) = -0.03167 0.40422
# Poissons Ratio (y) = -0.03167 0.40422
# Poissons Ratio (z) = 0.34226 0.34226
#
# Static dielectric constant tensor:
#      x y z
#    x 4.241900 0.000000 0.000000 
#    y 0.000000 4.241900 0.000000 
#    z 0.000000 0.000000 4.540180 
# 
# 
# High freq. dielectric constant tensor:
#      x y z
#    x 1.897420 0.000000 0.000000 
#    y 0.000000 1.897420 0.000000 
#    z 0.000000 0.000000 1.891460 
# 
# From -- ./inp_files/3595.got.cif
#   From: 2010.03.12/outbox.cif.g09.slc.cpg/sg86_2_cif.got.tgz:3595.got - 2010.04.08 20:12:58.
