data_PCOD8303451
_publ_section_title
;
Structure prediction by ZEFSAII (Michael W. Deem and Ramdas Pophale) SiO2 
 PCOD8303451
Probable space group: P 4/N
;
_chemical_formula_sum "Si O2"
_cell_formula_units_Z 58
_cell_length_a 17.909161
_cell_length_b 17.909161
_cell_length_c 8.818289
_cell_angle_alpha 90.000000
_cell_angle_beta 90.000000
_cell_angle_gamma 90.000000
_cell_volume 2828.360798
_symmetry_space_group_name_H-M "P 4/N"
_symmetry_group_IT_number 85
_symmetry_cell_setting 'tetragonal'
loop_
_space_group_symop_operation_xyz
x,y,z
1/2-y,x,z
1/2-x,1/2-y,z
y,1/2-x,z
-x,-y,-z
1/2+y,-x,-z
1/2+x,1/2+y,-z
-y,1/2+x,-z
loop_
_atom_site_type_symbol
_atom_site_label
_atom_site_fract_x
_atom_site_fract_y
_atom_site_fract_z
Si Si1 0.266940 0.370107 0.227499
Si Si2 0.250000 0.750000 0.000000
Si Si3 0.631516 0.779803 0.423849
Si Si4 0.856369 0.298604 0.498665
Si Si5 0.127294 0.673710 0.826872
Si Si6 0.274754 0.988876 0.053677
Si Si7 0.810120 0.018533 0.250648
Si Si8 0.444784 0.564161 0.951268
O O1 0.187431 0.332625 0.191857
O O2 0.277680 0.394845 0.401531
O O3 0.271605 0.440356 0.116142
O O4 0.187260 0.789203 0.106591
O O5 0.660963 0.696775 0.388005
O O6 0.563811 0.805859 0.319737
O O7 0.836510 0.216888 0.429236
O O8 0.875423 0.347439 0.350197
O O9 0.921883 0.292807 0.619414
O O10 0.083198 0.750587 0.851904
O O11 0.085524 0.606550 0.908014
O O12 0.363240 0.995409 0.086529
O O13 0.254089 0.976571 0.877057
O O14 0.892985 0.035557 0.186946
O O15 0.500000 0.500000 0.000000
#
# Coordination Sequence:
#
# PCOD8303451 Si02
#       8
#     8   2   8   8   8   8   8   8
#     4   9  20  39  66  96 122 161 215 269 321 381
#     4  12  20  40  70  96 120 164 230 268 324 372
#     4   9  20  41  66  91 124 162 214 275 330 387
#     4  11  23  39  67  98 129 163 219 271 318 387
#     4  11  23  40  67  91 126 169 210 268 322 376
#     4  11  23  38  63  87 130 169 213 258 318 385
#     4  11  25  41  65  95 130 171 215 265 330 387
#     4  11  26  43  60  92 135 172 216 263 323 388
#
# _framework density 20.506577
#
# number of rings (size 3 to 8) (size 9 to 14) (size 15 to 20)
#    0.000    1.517    1.379    4.138    9.655    0.000 
#    0.000    2.069    0.000    0.000    0.000    0.000 
#    0.000    0.000    0.000    0.000    0.000    0.000 
#
# Total GULP energy -719097.233502 kJ/mol
# GULP energy per Si atom -12398.228164 kJ/mol
# Density = 2.045990 g / cm^3
# Si number density = 20.506577 Si / 1000 Ang^3
#
#
#
# Elastic Constant Matrix: (Units=GPa)
#
#
# Indices 1 2 3 4 5 6 
#
# 1 100.6459 24.3438 44.5326 0.0000 0.0000 -1.1211
# 2 24.3438 100.6459 44.5326 0.0000 0.0000 1.1211
# 3 44.5326 44.5326 117.1276 0.0000 0.0000 0.0000
# 4 0.0000 0.0000 0.0000 30.2898 0.0000 0.0000
# 5 0.0000 0.0000 0.0000 0.0000 30.2898 0.0000
# 6 -1.1211 1.1211 0.0000 0.0000 0.0000 34.4766
#
#
#
# Elastic Compliance Matrix: (Units=1/GPa)
#
#
# Indices 1 2 3 4 5 6 
#
# 1 0.012046 -0.001072 -0.004172 0.000000 0.000000 0.000427
# 2 -0.001072 0.012046 -0.004172 0.000000 0.000000 -0.000427
# 3 -0.004172 -0.004172 0.011710 0.000000 0.000000 0.000000
# 4 0.000000 0.000000 0.000000 0.033014 0.000000 0.000000
# 5 0.000000 0.000000 0.000000 0.000000 0.033014 0.000000
# 6 0.000427 -0.000427 0.000000 0.000000 0.000000 0.029033
#
#
# Mechanical properties :
#
#
# Convention : Reuss Voigt Hill
#
# Bulk Modulus (GPa) = 58.93199 60.58193 59.75696
# Shear Modulus (GPa) = 32.18454 32.67861 32.43158
#
# Velocity S-wave (km/s) = 3.96596 3.99628 3.98115
# Velocity P-wave (km/s) = 7.05494 7.13446 7.09481
#
# Compressibility (1/GPa) = 0.01696871
#
# Stress axis : x y z
#
# Youngs Moduli (GPa) = 83.01485 83.01485 85.39460
#
# Poissons Ratio (x) = 0.08902 0.35629
# Poissons Ratio (y) = 0.08902 0.35629
# Poissons Ratio (z) = 0.34636 0.34636
#
# Static dielectric constant tensor:
#      x y z
#    x 3.691600 0.000000 0.000000 
#    y 0.000000 3.691600 0.000000 
#    z 0.000000 0.000000 3.692880 
# 
# 
# High freq. dielectric constant tensor:
#      x y z
#    x 1.802760 0.000000 0.000000 
#    y 0.000000 1.802760 0.000000 
#    z 0.000000 0.000000 1.801610 
# 
# From -- ./inp_files/1183.got.cif
#   From: 2010.03.12/outbox.cif.g09.slc.cpg/sg85_cif.got.tgz:1183.got - 2010.04.08 20:10:46.
