data_PCOD8303616
_publ_section_title
;
Structure prediction by ZEFSAII (Michael W. Deem and Ramdas Pophale) SiO2 
 PCOD8303616
Probable space group: P 42/N
;
_chemical_formula_sum "Si O2"
_cell_formula_units_Z 28
_cell_length_a 10.508140
_cell_length_b 10.508140
_cell_length_c 11.612546
_cell_angle_alpha 90.000000
_cell_angle_beta 90.000000
_cell_angle_gamma 90.000000
_cell_volume 1282.269015
_symmetry_space_group_name_H-M "P 42/N"
_symmetry_group_IT_number 86
_space_group.IT_coordinate_system_code '2'
_symmetry_cell_setting 'tetragonal'
loop_
_space_group_symop_operation_xyz
x,y,z
-y,1/2+x,1/2+z
1/2-x,1/2-y,z
1/2+y,-x,1/2+z
-x,-y,-z
y,1/2-x,1/2-z
1/2+x,1/2+y,-z
1/2-y,x,1/2-z
loop_
_atom_site_type_symbol
_atom_site_label
_atom_site_fract_x
_atom_site_fract_y
_atom_site_fract_z
Si Si1 0.250000 0.750000 0.044561
Si Si2 0.328625 0.120414 0.971689
Si Si3 0.440703 0.898292 0.416403
Si Si4 0.074437 0.558305 0.156474
O O1 0.195673 0.644641 0.129666
O O2 0.136307 0.800699 0.962977
O O3 0.250000 0.250000 0.991324
O O4 0.444022 0.129627 0.880776
O O5 0.232740 0.018953 0.916161
O O6 0.396070 0.074885 0.091052
O O7 0.432326 0.964519 0.292422
O O8 0.500000 0.000000 0.500000
#
# Coordination Sequence:
#
# PCOD8303616 Si02
#       4
#     4   8   8   8
#     4  10  22  44  66  96 132 172 216 264 336 390
#     4  10  23  43  65  98 130 174 216 266 329 391
#     4  11  24  41  67  99 128 173 219 269 332 391
#     4  10  23  43  67  96 134 168 220 271 322 396
#
# _framework density 21.836293000000001
#
# number of rings (size 3 to 8) (size 9 to 14) (size 15 to 20)
#    0.000    1.714    0.000    2.571    8.000    0.000 
#   25.714    0.000    0.000    0.000    0.000    0.000 
#    0.000    0.000    0.000    0.000    0.000    0.000 
#
# Total GULP energy -347162.104496 kJ/mol
# GULP energy per Si atom -12398.646589 kJ/mol
# Density = 2.178659 g / cm^3
# Si number density = 21.836293 Si / 1000 Ang^3
#
#
#
# Elastic Constant Matrix: (Units=GPa)
#
#
# Indices 1 2 3 4 5 6 
#
# 1 89.8611 18.9963 41.4060 0.0000 0.0000 4.3757
# 2 18.9963 89.8611 41.4060 0.0000 0.0000 -4.3757
# 3 41.4060 41.4060 190.0528 0.0000 0.0000 0.0000
# 4 0.0000 0.0000 0.0000 25.2448 0.0000 0.0000
# 5 0.0000 0.0000 0.0000 0.0000 25.2448 0.0000
# 6 4.3757 -4.3757 0.0000 0.0000 0.0000 54.0346
#
#
#
# Elastic Compliance Matrix: (Units=1/GPa)
#
#
# Indices 1 2 3 4 5 6 
#
# 1 0.012633 -0.001621 -0.002399 0.000000 0.000000 -0.001154
# 2 -0.001621 0.012633 -0.002399 0.000000 0.000000 0.001154
# 3 -0.002399 -0.002399 0.006307 0.000000 0.000000 0.000000
# 4 0.000000 0.000000 0.000000 0.039612 0.000000 0.000000
# 5 0.000000 0.000000 0.000000 0.000000 0.039612 0.000000
# 6 -0.001154 0.001154 0.000000 0.000000 0.000000 0.018694
#
#
# Mechanical properties :
#
#
# Convention : Reuss Voigt Hill
#
# Bulk Modulus (GPa) = 53.37972 63.71020 58.54496
# Shear Modulus (GPa) = 33.65347 38.76932 36.21139
#
# Velocity S-wave (km/s) = 3.93003 4.21818 4.07666
# Velocity P-wave (km/s) = 6.71506 7.27762 7.00199
#
# Compressibility (1/GPa) = 0.01873371
#
# Stress axis : x y z
#
# Youngs Moduli (GPa) = 79.16012 79.16012 158.55363
#
# Poissons Ratio (x) = 0.12834 0.38037
# Poissons Ratio (y) = 0.12834 0.38037
# Poissons Ratio (z) = 0.18990 0.18990
#
# Static dielectric constant tensor:
#      x y z
#    x 4.130110 0.000000 0.000000 
#    y 0.000000 4.130110 0.000000 
#    z 0.000000 0.000000 3.930950 
# 
# 
# High freq. dielectric constant tensor:
#      x y z
#    x 1.865380 0.000000 0.000000 
#    y 0.000000 1.865380 0.000000 
#    z 0.000000 0.000000 1.850070 
# 
# From -- ./inp_files/801.got.cif
#   From: 2010.03.12/outbox.cif.g09.slc.cpg/sg86_1_cif.got.tgz:801.got - 2010.04.08 20:12:58.
