data_PCOD8303547
_publ_section_title
;
Structure prediction by ZEFSAII (Michael W. Deem and Ramdas Pophale) SiO2 
 PCOD8303547
Probable space group: P 42/N
;
_chemical_formula_sum "Si O2"
_cell_formula_units_Z 46
_cell_length_a 11.603012
_cell_length_b 11.603012
_cell_length_c 15.012527
_cell_angle_alpha 90.000000
_cell_angle_beta 90.000000
_cell_angle_gamma 90.000000
_cell_volume 2021.134821
_symmetry_space_group_name_H-M "P 42/N"
_symmetry_group_IT_number 86
_space_group.IT_coordinate_system_code '2'
_symmetry_cell_setting 'tetragonal'
loop_
_space_group_symop_operation_xyz
x,y,z
-y,1/2+x,1/2+z
1/2-x,1/2-y,z
1/2+y,-x,1/2+z
-x,-y,-z
y,1/2-x,1/2-z
1/2+x,1/2+y,-z
1/2-y,x,1/2-z
loop_
_atom_site_type_symbol
_atom_site_label
_atom_site_fract_x
_atom_site_fract_y
_atom_site_fract_z
Si Si1 0.250000 0.750000 0.405481
Si Si2 0.033084 0.715922 0.299186
Si Si3 0.994659 0.332471 0.072071
Si Si4 0.120101 0.207155 0.539991
Si Si5 0.954188 0.476067 0.249317
Si Si6 0.863811 0.894475 0.885230
Si Si7 0.250000 0.250000 0.250000
O O1 0.154244 0.685187 0.345476
O O2 0.310088 0.640822 0.457974
O O3 0.944335 0.776678 0.367884
O O4 0.981848 0.611866 0.242244
O O5 0.050601 0.820599 0.230725
O O6 0.998701 0.410577 0.161219
O O7 0.072976 0.390515 0.993455
O O8 0.055387 0.212798 0.093377
O O9 0.250000 0.250000 0.550030
O O10 0.058614 0.294031 0.470096
O O11 0.005703 0.439967 0.344204
O O12 0.767850 0.860891 0.812020
#
# Coordination Sequence:
#
# PCOD8303547 Si02
#       7
#     4   8   8   8   8   8   2
#     4  10  22  40  60  86 130 168 204 268 338 364
#     4  11  26  43  63  96 137 177 209 274 328 405
#     4  10  20  39  65  92 124 166 217 276 321 381
#     4  10  23  41  67  96 129 170 222 272 324 385
#     4  11  24  39  67  93 132 173 224 263 329 393
#     4  11  18  36  66  97 121 163 223 276 317 375
#     4  12  16  32  68 104 112 154 228 284 304 368
#
# _framework density 22.759491000000001
#
# number of rings (size 3 to 8) (size 9 to 14) (size 15 to 20)
#    0.000    1.391    6.087    0.000    2.435    3.478 
#    0.000    1.739    0.000    1.043    0.000    0.000 
#    0.000    0.000    0.000    0.000    0.000    0.000 
#
# Total GULP energy -569973.234184 kJ/mol
# GULP energy per Si atom -12390.722482 kJ/mol
# Density = 2.270769 g / cm^3
# Si number density = 22.759491 Si / 1000 Ang^3
#
#
#
# Elastic Constant Matrix: (Units=GPa)
#
#
# Indices 1 2 3 4 5 6 
#
# 1 94.3818 30.0057 21.7168 0.0000 0.0000 2.9540
# 2 30.0057 94.3818 21.7168 0.0000 0.0000 -2.9540
# 3 21.7168 21.7168 52.0716 0.0000 0.0000 0.0000
# 4 0.0000 0.0000 0.0000 8.4160 0.0000 0.0000
# 5 0.0000 0.0000 0.0000 0.0000 8.4160 0.0000
# 6 2.9540 -2.9540 0.0000 0.0000 0.0000 30.6643
#
#
#
# Elastic Compliance Matrix: (Units=1/GPa)
#
#
# Indices 1 2 3 4 5 6 
#
# 1 0.012541 -0.003131 -0.003924 0.000000 0.000000 -0.001510
# 2 -0.003131 0.012541 -0.003924 0.000000 0.000000 0.001510
# 3 -0.003924 -0.003924 0.022478 0.000000 0.000000 0.000000
# 4 0.000000 0.000000 0.000000 0.118821 0.000000 0.000000
# 5 0.000000 0.000000 0.000000 0.000000 0.118821 0.000000
# 6 -0.001510 0.001510 0.000000 0.000000 0.000000 0.032902
#
#
# Mechanical properties :
#
#
# Convention : Reuss Voigt Hill
#
# Bulk Modulus (GPa) = 39.06311 43.07932 41.07121
# Shear Modulus (GPa) = 14.34318 20.65899 17.50108
#
# Velocity S-wave (km/s) = 2.51311 3.01609 2.77602
# Velocity P-wave (km/s) = 5.06179 5.57658 5.32541
#
# Compressibility (1/GPa) = 0.02559960
#
# Stress axis : x y z
#
# Youngs Moduli (GPa) = 79.73858 79.73858 44.48850
#
# Poissons Ratio (x) = 0.24968 0.17459
# Poissons Ratio (y) = 0.24968 0.17459
# Poissons Ratio (z) = 0.31292 0.31292
#
# Static dielectric constant tensor:
#      x y z
#    x 4.399300 0.000000 0.000000 
#    y 0.000000 4.399300 0.000000 
#    z 0.000000 0.000000 3.787370 
# 
# 
# High freq. dielectric constant tensor:
#      x y z
#    x 1.908490 0.000000 0.000000 
#    y 0.000000 1.908490 0.000000 
#    z 0.000000 0.000000 1.864380 
# 
# From -- ./inp_files/3632.got.cif
#   From: 2010.03.12/outbox.cif.g09.slc.cpg/sg86_2_cif.got.tgz:3632.got - 2010.04.08 20:12:58.
