data_PCOD8303466
_publ_section_title
;
Structure prediction by ZEFSAII (Michael W. Deem and Ramdas Pophale) SiO2 
 PCOD8303466
Probable space group: P 4/N
;
_chemical_formula_sum "Si O2"
_cell_formula_units_Z 42
_cell_length_a 14.449154
_cell_length_b 14.449154
_cell_length_c 8.419813
_cell_angle_alpha 90.000000
_cell_angle_beta 90.000000
_cell_angle_gamma 90.000000
_cell_volume 1757.872151
_symmetry_space_group_name_H-M "P 4/N"
_symmetry_group_IT_number 85
_symmetry_cell_setting 'tetragonal'
loop_
_space_group_symop_operation_xyz
x,y,z
1/2-y,x,z
1/2-x,1/2-y,z
y,1/2-x,z
-x,-y,-z
1/2+y,-x,-z
1/2+x,1/2+y,-z
-y,1/2+x,-z
loop_
_atom_site_type_symbol
_atom_site_label
_atom_site_fract_x
_atom_site_fract_y
_atom_site_fract_z
Si Si1 0.198307 0.395365 0.266311
Si Si2 0.594146 0.957129 0.438608
Si Si3 0.750000 0.250000 0.500000
Si Si4 0.883750 0.675674 0.185730
Si Si5 0.527019 0.227908 0.037527
Si Si6 0.118582 0.833034 0.239024
O O1 0.133091 0.306244 0.258019
O O2 0.171574 0.449657 0.425656
O O3 0.188634 0.466411 0.118325
O O4 0.576008 0.856169 0.357521
O O5 0.500000 0.000000 0.500000
O O6 0.631892 0.019831 0.296785
O O7 0.718709 0.166954 0.385599
O O8 0.873819 0.785709 0.169135
O O9 0.958552 0.653028 0.048228
O O10 0.580533 0.179195 0.181487
O O11 0.600916 0.265662 0.910104
#
# Coordination Sequence:
#
# PCOD8303466 Si02
#       6
#     8   8   2   8   8   8
#     4  11  25  47  74 107 152 201 254 314 388 468
#     4  12  27  44  74 111 152 197 253 316 381 463
#     4  12  28  54  76 104 152 214 268 316 396 478
#     4  11  24  46  76 109 152 202 250 310 394 470
#     4  12  26  47  75 112 150 199 259 325 394 461
#     4  12  28  47  77 107 152 202 259 322 389 471
#
# _framework density 23.892522
#
# number of rings (size 3 to 8) (size 9 to 14) (size 15 to 20)
#    0.000    0.381    1.905    5.714    5.333    3.810 
#    0.000    0.000    0.000    0.000    0.000    0.000 
#    0.000    0.000    0.000    0.000    0.000    0.000 
#
# Total GULP energy -520649.403559 kJ/mol
# GULP energy per Si atom -12396.414370 kJ/mol
# Density = 2.383814 g / cm^3
# Si number density = 23.892522 Si / 1000 Ang^3
#
#
#
# Elastic Constant Matrix: (Units=GPa)
#
#
# Indices 1 2 3 4 5 6 
#
# 1 103.0361 43.0574 59.0776 0.0000 0.0000 0.4255
# 2 43.0574 103.0361 59.0776 0.0000 0.0000 -0.4255
# 3 59.0776 59.0776 170.1131 0.0000 0.0000 0.0000
# 4 0.0000 0.0000 0.0000 58.3286 0.0000 0.0000
# 5 0.0000 0.0000 0.0000 0.0000 58.3286 0.0000
# 6 0.4255 -0.4255 0.0000 0.0000 0.0000 44.0605
#
#
#
# Elastic Compliance Matrix: (Units=1/GPa)
#
#
# Indices 1 2 3 4 5 6 
#
# 1 0.013097 -0.003578 -0.003306 0.000000 0.000000 -0.000161
# 2 -0.003578 0.013097 -0.003306 0.000000 0.000000 0.000161
# 3 -0.003306 -0.003306 0.008174 0.000000 0.000000 0.000000
# 4 0.000000 0.000000 0.000000 0.017144 0.000000 0.000000
# 5 0.000000 0.000000 0.000000 0.000000 0.017144 0.000000
# 6 -0.000161 0.000161 0.000000 0.000000 0.000000 0.022699
#
#
# Mechanical properties :
#
#
# Convention : Reuss Voigt Hill
#
# Bulk Modulus (GPa) = 71.48574 77.62342 74.55458
# Shear Modulus (GPa) = 42.95642 46.47505 44.71574
#
# Velocity S-wave (km/s) = 4.24477 4.41519 4.33082
# Velocity P-wave (km/s) = 7.34906 7.65186 7.50199
#
# Compressibility (1/GPa) = 0.01398880
#
# Stress axis : x y z
#
# Youngs Moduli (GPa) = 76.35562 76.35562 122.33323
#
# Poissons Ratio (x) = 0.27322 0.40438
# Poissons Ratio (y) = 0.27322 0.40438
# Poissons Ratio (z) = 0.25240 0.25240
#
# Static dielectric constant tensor:
#      x y z
#    x 4.690900 0.000000 0.000000 
#    y 0.000000 4.690900 0.000000 
#    z 0.000000 0.000000 4.634160 
# 
# 
# High freq. dielectric constant tensor:
#      x y z
#    x 1.944650 0.000000 0.000000 
#    y 0.000000 1.944650 0.000000 
#    z 0.000000 0.000000 1.970590 
# 
# From -- ./inp_files/977.got.cif
#   From: 2010.03.12/outbox.cif.g09.slc.cpg/sg85_cif.got.tgz:977.got - 2010.04.08 20:10:46.
