data_PCOD8303115
_publ_section_title
;
Structure prediction by ZEFSAII (Michael W. Deem and Ramdas Pophale) SiO2 
 PCOD8303115
Probable space group: P 42/M
;
_chemical_formula_sum "Si O2"
_cell_formula_units_Z 56
_cell_length_a 13.333767
_cell_length_b 13.333767
_cell_length_c 18.054800
_cell_angle_alpha 90.000000
_cell_angle_beta 90.000000
_cell_angle_gamma 90.000000
_cell_volume 3209.951019
_symmetry_space_group_name_H-M "P 42/M"
_symmetry_group_IT_number 84
_symmetry_cell_setting 'tetragonal'
loop_
_space_group_symop_operation_xyz
x,y,z
-y,x,1/2+z
-x,-y,z
y,-x,1/2+z
-x,-y,-z
y,-x,1/2-z
x,y,-z
-y,x,1/2-z
loop_
_atom_site_type_symbol
_atom_site_label
_atom_site_fract_x
_atom_site_fract_y
_atom_site_fract_z
Si Si1 0.713137 0.487110 0.084676
Si Si2 0.715119 0.271519 0.580975
Si Si3 0.756796 0.044006 0.583445
Si Si4 0.610517 0.400982 0.782410
Si Si5 0.917657 0.415593 0.844451
Si Si6 0.703331 0.797477 0.230277
Si Si7 0.884628 0.088059 0.720189
O O1 0.687280 0.603881 0.095390
O O2 0.629166 0.428466 0.131803
O O3 0.825358 0.463243 0.111593
O O4 0.702498 0.453114 0.000000
O O5 0.754585 0.304899 0.500000
O O6 0.704297 0.151743 0.585173
O O7 0.794190 0.313533 0.641243
O O8 0.794455 0.018370 0.500000
O O9 0.850892 0.045101 0.640076
O O10 0.674399 0.962555 0.607105
O O11 0.497023 0.365120 0.770322
O O12 0.685911 0.312508 0.761437
O O13 0.878984 0.370906 0.766032
O O14 0.000000 0.500000 0.827018
O O15 0.819494 0.818115 0.248025
O O16 0.000772 0.124277 0.717408
#
# Coordination Sequence:
#
# PCOD8303115 Si02
#       7
#     8   8   8   8   8   8   8
#     4  10  19  31  50  76 110 141 170 221 282 327
#     4   9  17  31  51  76 105 136 177 223 267 317
#     4  10  19  32  52  80 109 140 176 224 276 327
#     4  10  20  35  52  75 108 142 180 222 268 324
#     4  11  20  31  51  83 114 140 179 226 281 333
#     4  10  20  34  54  78 105 146 178 223 271 325
#     4  10  20  36  55  76 108 142 184 222 263 324
#
# _framework density 17.44575
#
# number of rings (size 3 to 8) (size 9 to 14) (size 15 to 20)
#    0.000    2.000    4.286    0.429    0.000    0.571 
#    0.000    3.571    0.000    0.429    0.000    0.000 
#    0.000    0.000    0.000    0.000    0.000    0.000 
#
# Total GULP energy -694128.384551 kJ/mol
# GULP energy per Si atom -12395.149724 kJ/mol
# Density = 1.740604 g / cm^3
# Si number density = 17.445750 Si / 1000 Ang^3
#
#
#
# Elastic Constant Matrix: (Units=GPa)
#
#
# Indices 1 2 3 4 5 6 
#
# 1 78.2521 36.8668 49.6292 0.0000 0.0000 4.6809
# 2 36.8668 78.2521 49.6292 0.0000 0.0000 -4.6809
# 3 49.6292 49.6292 142.3112 0.0000 0.0000 0.0000
# 4 0.0000 0.0000 0.0000 24.9515 0.0000 0.0000
# 5 0.0000 0.0000 0.0000 0.0000 24.9515 0.0000
# 6 4.6809 -4.6809 0.0000 0.0000 0.0000 23.4816
#
#
#
# Elastic Compliance Matrix: (Units=1/GPa)
#
#
# Indices 1 2 3 4 5 6 
#
# 1 0.018863 -0.006441 -0.004332 0.000000 0.000000 -0.005044
# 2 -0.006441 0.018863 -0.004332 0.000000 0.000000 0.005044
# 3 -0.004332 -0.004332 0.010048 0.000000 0.000000 0.000000
# 4 0.000000 0.000000 0.000000 0.040078 0.000000 0.000000
# 5 0.000000 0.000000 0.000000 0.000000 0.040078 0.000000
# 6 -0.005044 0.005044 0.000000 0.000000 0.000000 0.044598
#
#
# Mechanical properties :
#
#
# Convention : Reuss Voigt Hill
#
# Bulk Modulus (GPa) = 56.93438 63.45177 60.19307
# Shear Modulus (GPa) = 23.97019 25.52291 24.74655
#
# Velocity S-wave (km/s) = 3.71075 3.82905 3.77037
# Velocity P-wave (km/s) = 7.14601 7.48323 7.31656
#
# Compressibility (1/GPa) = 0.01756408
#
# Stress axis : x y z
#
# Youngs Moduli (GPa) = 53.01379 53.01379 99.51965
#
# Poissons Ratio (x) = 0.34147 0.43111
# Poissons Ratio (y) = 0.34147 0.43111
# Poissons Ratio (z) = 0.22965 0.22965
#
# Static dielectric constant tensor:
#      x y z
#    x 3.214250 0.000000 0.000000 
#    y 0.000000 3.214250 0.000000 
#    z 0.000000 0.000000 3.438890 
# 
# 
# High freq. dielectric constant tensor:
#      x y z
#    x 1.664330 0.000000 0.000000 
#    y 0.000000 1.664330 0.000000 
#    z 0.000000 0.000000 1.672500 
# 
# From -- ./inp_files/3841.got.cif
#   From: 2010.03.12/outbox.cif.g09.slc.cpg/sg84_2_cif.got.tgz:3841.got - 2010.04.08 20:07:29.
