data_PCOD8303623
_publ_section_title
;
Structure prediction by ZEFSAII (Michael W. Deem and Ramdas Pophale) SiO2 
 PCOD8303623
Probable space group: P 42/N
;
_chemical_formula_sum "Si O2"
_cell_formula_units_Z 56
_cell_length_a 15.167450
_cell_length_b 15.167450
_cell_length_c 11.486317
_cell_angle_alpha 90.000000
_cell_angle_beta 90.000000
_cell_angle_gamma 90.000000
_cell_volume 2642.444909
_symmetry_space_group_name_H-M "P 42/N"
_symmetry_group_IT_number 86
_space_group.IT_coordinate_system_code '2'
_symmetry_cell_setting 'tetragonal'
loop_
_space_group_symop_operation_xyz
x,y,z
-y,1/2+x,1/2+z
1/2-x,1/2-y,z
1/2+y,-x,1/2+z
-x,-y,-z
y,1/2-x,1/2-z
1/2+x,1/2+y,-z
1/2-y,x,1/2-z
loop_
_atom_site_type_symbol
_atom_site_label
_atom_site_fract_x
_atom_site_fract_y
_atom_site_fract_z
Si Si1 0.233544 0.100341 0.484956
Si Si2 0.849475 0.225976 0.382318
Si Si3 0.764455 0.883539 0.965307
Si Si4 0.036724 0.519765 0.870627
Si Si5 0.699733 0.509884 0.739591
Si Si6 0.739873 0.051600 0.104013
Si Si7 0.968192 0.341012 0.832325
O O1 0.148568 0.162835 0.463669
O O2 0.312841 0.166028 0.511681
O O3 0.256156 0.041013 0.372134
O O4 0.219571 0.034311 0.592959
O O5 0.750000 0.250000 0.347328
O O6 0.914772 0.265991 0.284072
O O7 0.873402 0.265179 0.509395
O O8 0.864448 0.121328 0.401521
O O9 0.789298 0.915670 0.836915
O O10 0.775229 0.959385 0.058402
O O11 0.988119 0.598866 0.804412
O O12 0.137454 0.546182 0.870404
O O13 0.018673 0.430827 0.797024
O O14 0.000000 0.500000 0.000000
O O15 0.790644 0.071100 0.221965
#
# Coordination Sequence:
#
# PCOD8303623 Si02
#       7
#     8   8   8   8   8   8   8
#     4  11  22  40  66 101 137 177 220 283 352 412
#     4  11  26  48  67  98 137 183 233 288 336 404
#     4  10  23  40  63 100 142 172 222 286 346 409
#     4  12  22  45  71  99 135 181 229 276 345 416
#     4  11  23  41  71  99 131 179 233 281 339 414
#     4  11  24  44  66 100 134 174 230 276 342 410
#     4  12  26  41  73  98 133 185 226 283 347 410
#
# _framework density 21.192495000000001
#
# number of rings (size 3 to 8) (size 9 to 14) (size 15 to 20)
#    0.000    0.857    4.286    1.714    6.000    4.000 
#    0.000    2.857    0.000    0.000    0.000    0.000 
#    0.000    0.000    0.000    0.000    0.000    0.000 
#
# Total GULP energy -694358.669727 kJ/mol
# GULP energy per Si atom -12399.261959 kJ/mol
# Density = 2.114426 g / cm^3
# Si number density = 21.192495 Si / 1000 Ang^3
#
#
#
# Elastic Constant Matrix: (Units=GPa)
#
#
# Indices 1 2 3 4 5 6 
#
# 1 98.4104 12.9149 31.6936 0.0000 0.0000 -3.0913
# 2 12.9149 98.4104 31.6936 0.0000 0.0000 3.0913
# 3 31.6936 31.6936 102.5605 0.0000 0.0000 0.0000
# 4 0.0000 0.0000 0.0000 29.5573 0.0000 0.0000
# 5 0.0000 0.0000 0.0000 0.0000 29.5573 0.0000
# 6 -3.0913 3.0913 0.0000 0.0000 0.0000 29.5976
#
#
#
# Elastic Compliance Matrix: (Units=1/GPa)
#
#
# Indices 1 2 3 4 5 6 
#
# 1 0.011343 -0.000442 -0.003369 0.000000 0.000000 0.001231
# 2 -0.000442 0.011343 -0.003369 0.000000 0.000000 -0.001231
# 3 -0.003369 -0.003369 0.011832 0.000000 0.000000 0.000000
# 4 0.000000 0.000000 0.000000 0.033833 0.000000 0.000000
# 5 0.000000 0.000000 0.000000 0.000000 0.033833 0.000000
# 6 0.001231 -0.001231 0.000000 0.000000 0.000000 0.034044
#
#
# Mechanical properties :
#
#
# Convention : Reuss Voigt Hill
#
# Bulk Modulus (GPa) = 49.60469 50.22064 49.91266
# Shear Modulus (GPa) = 31.78512 32.61438 32.19975
#
# Velocity S-wave (km/s) = 3.87696 3.92721 3.90217
# Velocity P-wave (km/s) = 6.59535 6.65679 6.62614
#
# Compressibility (1/GPa) = 0.02015939
#
# Stress axis : x y z
#
# Youngs Moduli (GPa) = 88.15914 88.15914 84.51457
#
# Poissons Ratio (x) = 0.03900 0.28469
# Poissons Ratio (y) = 0.03900 0.28469
# Poissons Ratio (z) = 0.29697 0.29697
#
# Static dielectric constant tensor:
#      x y z
#    x 3.956110 0.000000 0.000000 
#    y 0.000000 3.956110 0.000000 
#    z 0.000000 0.000000 3.782540 
# 
# 
# High freq. dielectric constant tensor:
#      x y z
#    x 1.839380 0.000000 0.000000 
#    y 0.000000 1.839380 0.000000 
#    z 0.000000 0.000000 1.825680 
# 
# From -- ./inp_files/2373.got.cif
#   From: 2010.03.12/outbox.cif.g09.slc.cpg/sg86_2_cif.got.tgz:2373.got - 2010.04.08 20:12:58.
