data_PCOD8303504
_publ_section_title
;
Structure prediction by ZEFSAII (Michael W. Deem and Ramdas Pophale) SiO2 
 PCOD8303504
Probable space group: P 42/N
;
_chemical_formula_sum "Si O2"
_cell_formula_units_Z 42
_cell_length_a 19.072618
_cell_length_b 19.072618
_cell_length_c 6.388357
_cell_angle_alpha 90.000000
_cell_angle_beta 90.000000
_cell_angle_gamma 90.000000
_cell_volume 2323.859134
_symmetry_space_group_name_H-M "P 42/N"
_symmetry_group_IT_number 86
_space_group.IT_coordinate_system_code '2'
_symmetry_cell_setting 'tetragonal'
loop_
_space_group_symop_operation_xyz
x,y,z
-y,1/2+x,1/2+z
1/2-x,1/2-y,z
1/2+y,-x,1/2+z
-x,-y,-z
y,1/2-x,1/2-z
1/2+x,1/2+y,-z
1/2-y,x,1/2-z
loop_
_atom_site_type_symbol
_atom_site_label
_atom_site_fract_x
_atom_site_fract_y
_atom_site_fract_z
Si Si1 0.143359 0.155155 0.571504
Si Si2 0.101965 0.066730 0.956538
Si Si3 0.842338 0.515069 0.767553
Si Si4 0.250000 0.250000 0.750000
Si Si5 0.524743 0.811099 0.835255
Si Si6 0.566976 0.464001 0.396433
O O1 0.073037 0.171766 0.445033
O O2 0.186587 0.226644 0.598738
O O3 0.191750 0.099472 0.450611
O O4 0.127420 0.127231 0.802177
O O5 0.042172 0.101447 0.098916
O O6 0.164573 0.036430 0.097960
O O7 0.074442 0.000129 0.828695
O O8 0.767819 0.493111 0.666531
O O9 0.880571 0.447276 0.870082
O O10 0.473245 0.863948 0.960074
O O11 0.500000 0.500000 0.500000
#
# Coordination Sequence:
#
# PCOD8303504 Si02
#       6
#     8   8   8   2   8   8
#     4  10  21  34  49  77 113 155 196 210 261 342
#     4  10  19  36  60  79 113 154 185 231 277 323
#     4  11  21  35  57  81 113 146 188 243 276 331
#     4  12  20  32  50  72 124 166 168 216 266 316
#     4  10  22  35  53  86 110 144 193 231 286 332
#     4  11  20  39  58  84 111 144 199 234 278 346
#
# _framework density 18.073384999999998
#
# number of rings (size 3 to 8) (size 9 to 14) (size 15 to 20)
#    0.000    1.524    5.714    2.857    0.000    3.048 
#    0.000    3.810    0.000    0.000    0.000    4.000 
#    0.000    0.000    0.000    0.000    0.000    0.000 
#
# Total GULP energy -520717.036545 kJ/mol
# GULP energy per Si atom -12398.024680 kJ/mol
# Density = 1.803225 g / cm^3
# Si number density = 18.073385 Si / 1000 Ang^3
#
#
#
# Elastic Constant Matrix: (Units=GPa)
#
#
# Indices 1 2 3 4 5 6 
#
# 1 102.2767 54.4742 32.1606 0.0000 0.0000 -5.2541
# 2 54.4742 102.2767 32.1606 0.0000 0.0000 5.2541
# 3 32.1606 32.1606 98.0488 0.0000 0.0000 0.0000
# 4 0.0000 0.0000 0.0000 17.3960 0.0000 0.0000
# 5 0.0000 0.0000 0.0000 0.0000 17.3960 0.0000
# 6 -5.2541 5.2541 0.0000 0.0000 0.0000 33.1446
#
#
#
# Elastic Compliance Matrix: (Units=1/GPa)
#
#
# Indices 1 2 3 4 5 6 
#
# 1 0.014523 -0.007151 -0.002418 0.000000 0.000000 0.003436
# 2 -0.007151 0.014523 -0.002418 0.000000 0.000000 -0.003436
# 3 -0.002418 -0.002418 0.011785 0.000000 0.000000 0.000000
# 4 0.000000 0.000000 0.000000 0.057485 0.000000 0.000000
# 5 0.000000 0.000000 0.000000 0.000000 0.057485 0.000000
# 6 0.003436 -0.003436 0.000000 0.000000 0.000000 0.031260
#
#
# Mechanical properties :
#
#
# Convention : Reuss Voigt Hill
#
# Bulk Modulus (GPa) = 59.32322 60.02144 59.67233
# Shear Modulus (GPa) = 23.07820 25.84111 24.45966
#
# Velocity S-wave (km/s) = 3.57727 3.78536 3.68278
# Velocity P-wave (km/s) = 7.06805 7.23790 7.15348
#
# Compressibility (1/GPa) = 0.01685681
#
# Stress axis : x y z
#
# Youngs Moduli (GPa) = 68.85530 68.85530 84.85208
#
# Poissons Ratio (x) = 0.49242 0.20517
# Poissons Ratio (y) = 0.49242 0.20517
# Poissons Ratio (z) = 0.16649 0.16649
#
# Static dielectric constant tensor:
#      x y z
#    x 3.287950 0.000000 0.000000 
#    y 0.000000 3.287950 0.000000 
#    z 0.000000 0.000000 3.659210 
# 
# 
# High freq. dielectric constant tensor:
#      x y z
#    x 1.677580 0.000000 0.000000 
#    y 0.000000 1.677580 0.000000 
#    z 0.000000 0.000000 1.718800 
# 
# From -- ./inp_files/399.got.cif
#   From: 2010.03.12/outbox.cif.g09.slc.cpg/sg86_1_cif.got.tgz:399.got - 2010.04.08 20:12:58.
