data_PCOD8304747
_publ_section_title
;
Structure prediction by ZEFSAII (Michael W. Deem and Ramdas Pophale) SiO2 
 PCOD8304747
Probable space group: P 41 2 2
;
_chemical_formula_sum "Si O2"
_cell_formula_units_Z 44
_cell_length_a 14.682559
_cell_length_b 14.682559
_cell_length_c 11.650732
_cell_angle_alpha 90.000000
_cell_angle_beta 90.000000
_cell_angle_gamma 90.000000
_cell_volume 2511.636130
_symmetry_space_group_name_H-M "P 41 2 2"
_symmetry_group_IT_number 91
_symmetry_cell_setting 'tetragonal'
loop_
_space_group_symop_operation_xyz
x,y,z
-y,x,1/4+z
-x,-y,1/2+z
y,-x,3/4+z
x,-y,1/2-z
-x,y,-z
y,x,3/4-z
-y,-x,1/4-z
loop_
_atom_site_type_symbol
_atom_site_label
_atom_site_fract_x
_atom_site_fract_y
_atom_site_fract_z
Si Si1 0.536917 0.087274 0.814207
Si Si2 0.054414 0.165365 0.781944
Si Si3 0.898331 0.146433 0.464608
Si Si4 0.422758 0.158163 0.420678
Si Si5 0.960741 0.374054 0.221298
Si Si6 0.236738 0.236738 0.375000
O O1 0.540018 0.161133 0.711783
O O2 0.602806 0.109208 0.923320
O O3 0.577896 0.000000 0.750000
O O4 0.434883 0.065814 0.860957
O O5 0.100909 0.100909 0.875000
O O6 0.117343 0.157047 0.670585
O O7 0.047228 0.270242 0.821018
O O8 0.955305 0.127979 0.747185
O O9 0.836327 0.221746 0.524551
O O10 0.000000 0.170345 0.500000
O O11 0.500000 0.203410 0.500000
O O12 0.336454 0.224152 0.427034
O O13 0.398960 0.060287 0.478827
#
# Coordination Sequence:
#
# PCOD8304747 Si02
#       6
#     8   8   8   8   8   4
#     4   9  17  32  56  74  99 135 178 226 294 328
#     4  12  24  33  50  74 112 154 206 238 269 316
#     4  12  21  39  50  70 111 163 203 233 261 320
#     4  11  20  36  55  84 110 135 184 244 291 345
#     4  10  18  34  52  75 102 146 185 235 285 330
#     4  12  24  36  62  80 112 156 192 232 296 348
#
# _framework density 17.518462
#
# number of rings (size 3 to 8) (size 9 to 14) (size 15 to 20)
#    0.000    1.091    7.273    2.727    0.000    4.364 
#    0.000    0.000    0.000    0.000    0.000    0.000 
#   13.636    0.000    0.000    0.000    0.000    0.000 
#
# Total GULP energy -545321.481947 kJ/mol
# GULP energy per Si atom -12393.670044 kJ/mol
# Density = 1.747859 g / cm^3
# Si number density = 17.518462 Si / 1000 Ang^3
#
#
#
# Elastic Constant Matrix: (Units=GPa)
#
#
# Indices 1 2 3 4 5 6 
#
# 1 88.8681 31.5932 24.4950 0.0000 0.0000 0.0000
# 2 31.5932 88.8681 24.4950 0.0000 0.0000 0.0000
# 3 24.4950 24.4950 79.0911 0.0000 0.0000 0.0000
# 4 0.0000 0.0000 0.0000 21.1507 0.0000 0.0000
# 5 0.0000 0.0000 0.0000 0.0000 21.1507 0.0000
# 6 0.0000 0.0000 0.0000 0.0000 0.0000 8.4655
#
#
#
# Elastic Compliance Matrix: (Units=1/GPa)
#
#
# Indices 1 2 3 4 5 6 
#
# 1 0.013479 -0.003981 -0.002941 0.000000 0.000000 0.000000
# 2 -0.003981 0.013479 -0.002941 0.000000 0.000000 0.000000
# 3 -0.002941 -0.002941 0.014466 0.000000 0.000000 0.000000
# 4 0.000000 0.000000 0.000000 0.047280 0.000000 0.000000
# 5 0.000000 0.000000 0.000000 0.000000 0.047280 0.000000
# 6 0.000000 0.000000 0.000000 0.000000 0.000000 0.118127
#
#
# Mechanical properties :
#
#
# Convention : Reuss Voigt Hill
#
# Bulk Modulus (GPa) = 46.09345 46.44373 46.26859
# Shear Modulus (GPa) = 17.78922 21.90297 19.84609
#
# Velocity S-wave (km/s) = 3.19008 3.53976 3.36946
# Velocity P-wave (km/s) = 6.31959 6.57841 6.45030
#
# Compressibility (1/GPa) = 0.02169506
#
# Stress axis : x y z
#
# Youngs Moduli (GPa) = 74.19127 74.19127 69.12932
#
# Poissons Ratio (x) = 0.29535 0.20334
# Poissons Ratio (y) = 0.29535 0.20334
# Poissons Ratio (z) = 0.21823 0.21823
#
# Static dielectric constant tensor:
#      x y z
#    x 3.068830 0.000000 0.000000 
#    y 0.000000 3.068830 0.000000 
#    z 0.000000 0.000000 3.696840 
# 
# 
# High freq. dielectric constant tensor:
#      x y z
#    x 1.642430 0.000000 0.000000 
#    y 0.000000 1.642430 0.000000 
#    z 0.000000 0.000000 1.701050 
# 
# From -- ./inp_files/3727.got.cif
#   From: 2010.03.12/outbox.cif.g09.slc.cpg/sg91_2_cif.got.tgz:3727.got - 2010.04.08 20:27:58.
