data_PCOD8304132
_publ_section_title
;
Structure prediction by ZEFSAII (Michael W. Deem and Ramdas Pophale) SiO2 
 PCOD8304132
Probable space group: I 4/M
;
_chemical_formula_sum "Si O2"
_cell_formula_units_Z 64
_cell_length_a 20.682893
_cell_length_b 20.682893
_cell_length_c 7.547868
_cell_angle_alpha 90.000000
_cell_angle_beta 90.000000
_cell_angle_gamma 90.000000
_cell_volume 3228.842543
_symmetry_space_group_name_H-M "I 4/M"
_symmetry_group_IT_number 87
_symmetry_cell_setting 'tetragonal'
loop_
_space_group_symop_operation_xyz
x,y,z
-y,x,z
-x,-y,z
y,-x,z
-x,-y,-z
y,-x,-z
x,y,-z
-y,x,-z
1/2+x,1/2+y,1/2+z
1/2-y,1/2+x,1/2+z
1/2-x,1/2-y,1/2+z
1/2+y,1/2-x,1/2+z
1/2-x,1/2-y,1/2-z
1/2+y,1/2-x,1/2-z
1/2+x,1/2+y,1/2-z
1/2-y,1/2+x,1/2-z
loop_
_atom_site_type_symbol
_atom_site_label
_atom_site_fract_x
_atom_site_fract_y
_atom_site_fract_z
Si Si1 0.800087 0.014532 0.500000
Si Si2 0.473576 0.191294 0.294264
Si Si3 0.357457 0.373624 0.000000
Si Si4 0.180573 0.773944 0.804566
Si Si5 0.150092 0.391543 0.792331
O O1 0.755398 0.019829 0.674819
O O2 0.857314 0.066916 0.500000
O O3 0.840658 0.948789 0.500000
O O4 0.467993 0.211931 0.500000
O O5 0.533729 0.142579 0.263718
O O6 0.411357 0.150249 0.232578
O O7 0.329890 0.341125 0.824734
O O8 0.250000 0.750000 0.750000
O O9 0.132521 0.713595 0.807262
O O10 0.182864 0.804665 0.000000
O O11 0.162821 0.385226 0.000000
#
# Coordination Sequence:
#
# PCOD8304132 Si02
#       5
#     8  16   8  16  16
#     4  12  26  47  68  96 135 172 227 278 335 394
#     4  11  24  40  65  95 136 176 220 270 332 396
#     4  12  26  45  68  97 132 175 220 282 328 393
#     4  12  22  38  65  97 129 167 221 276 337 387
#     4  11  22  40  62  94 134 178 220 270 330 398
#
# _framework density 19.821345000000001
#
# number of rings (size 3 to 8) (size 9 to 14) (size 15 to 20)
#    0.000    0.500    6.250    2.250    3.500    3.750 
#    0.000    2.500    0.000    0.000    0.000    3.500 
#    0.000    0.000    0.000    0.000    0.000    0.000 
#
# Total GULP energy -396880.266612 kJ/mol
# GULP energy per Si atom -12402.508332 kJ/mol
# Density = 1.977623 g / cm^3
# Si number density = 19.821345 Si / 1000 Ang^3
#
#
#
# Elastic Constant Matrix: (Units=GPa)
#
#
# Indices 1 2 3 4 5 6 
#
# 1 114.8957 45.0188 40.8523 0.0000 0.0000 0.6733
# 2 45.0188 114.8957 40.8523 0.0000 0.0000 -0.6733
# 3 40.8523 40.8523 146.8781 0.0000 0.0000 0.0000
# 4 0.0000 0.0000 0.0000 22.2511 0.0000 0.0000
# 5 0.0000 0.0000 0.0000 0.0000 22.2511 0.0000
# 6 0.6733 -0.6733 0.0000 0.0000 0.0000 39.2750
#
#
#
# Elastic Compliance Matrix: (Units=1/GPa)
#
#
# Indices 1 2 3 4 5 6 
#
# 1 0.010802 -0.003513 -0.002027 0.000000 0.000000 -0.000245
# 2 -0.003513 0.010802 -0.002027 0.000000 0.000000 0.000245
# 3 -0.002027 -0.002027 0.007936 0.000000 0.000000 0.000000
# 4 0.000000 0.000000 0.000000 0.044942 0.000000 0.000000
# 5 0.000000 0.000000 0.000000 0.000000 0.044942 0.000000
# 6 -0.000245 0.000245 0.000000 0.000000 0.000000 0.025470
#
#
# Mechanical properties :
#
#
# Convention : Reuss Voigt Hill
#
# Bulk Modulus (GPa) = 69.42057 70.01292 69.71675
# Shear Modulus (GPa) = 30.33398 33.41852 31.87625
#
# Velocity S-wave (km/s) = 3.91624 4.11053 4.01456
# Velocity P-wave (km/s) = 7.45308 7.61100 7.53245
#
# Compressibility (1/GPa) = 0.01440495
#
# Stress axis : x y z
#
# Youngs Moduli (GPa) = 92.57205 92.57205 126.00561
#
# Poissons Ratio (x) = 0.32522 0.25546
# Poissons Ratio (y) = 0.32522 0.25546
# Poissons Ratio (z) = 0.18768 0.18768
#
# Static dielectric constant tensor:
#      x y z
#    x 3.183090 0.000000 0.000000 
#    y 0.000000 3.183090 0.000000 
#    z 0.000000 0.000000 4.139350 
# 
# 
# High freq. dielectric constant tensor:
#      x y z
#    x 1.768330 0.000000 0.000000 
#    y 0.000000 1.768330 0.000000 
#    z 0.000000 0.000000 1.792750 
# 
# From -- ./inp_files/994.got.cif
#   From: 2010.03.12/outbox.cif.g09.slc.cpg/sg87_1_cif.got.tgz:994.got - 2010.04.08 20:16:13.
