data_PCOD8304050
_publ_section_title
;
Structure prediction by ZEFSAII (Michael W. Deem and Ramdas Pophale) SiO2 
 PCOD8304050
Probable space group: I 4/M
;
_chemical_formula_sum "Si O2"
_cell_formula_units_Z 56
_cell_length_a 17.981638
_cell_length_b 17.981638
_cell_length_c 7.886322
_cell_angle_alpha 90.000000
_cell_angle_beta 90.000000
_cell_angle_gamma 90.000000
_cell_volume 2549.957876
_symmetry_space_group_name_H-M "I 4/M"
_symmetry_group_IT_number 87
_symmetry_cell_setting 'tetragonal'
loop_
_space_group_symop_operation_xyz
x,y,z
-y,x,z
-x,-y,z
y,-x,z
-x,-y,-z
y,-x,-z
x,y,-z
-y,x,-z
1/2+x,1/2+y,1/2+z
1/2-y,1/2+x,1/2+z
1/2-x,1/2-y,1/2+z
1/2+y,1/2-x,1/2+z
1/2-x,1/2-y,1/2-z
1/2+y,1/2-x,1/2-z
1/2+x,1/2+y,1/2-z
1/2-y,1/2+x,1/2-z
loop_
_atom_site_type_symbol
_atom_site_label
_atom_site_fract_x
_atom_site_fract_y
_atom_site_fract_z
Si Si1 0.839929 0.151622 0.696096
Si Si2 0.935358 0.898222 0.000000
Si Si3 0.792257 0.567841 0.806441
Si Si4 0.817336 0.404082 0.805770
O O1 0.862131 0.133028 0.500000
O O2 0.859541 0.085463 0.823319
O O3 0.880341 0.225884 0.767868
O O4 0.750249 0.155180 0.709906
O O5 0.022631 0.897685 0.000000
O O6 0.797721 0.485245 0.723370
O O7 0.869951 0.611231 0.787757
O O8 0.771979 0.555344 0.000000
O O9 0.840379 0.415893 0.000000
#
# Coordination Sequence:
#
# PCOD8304050 Si02
#       4
#    16   8  16  16
#     4  10  22  42  65  89 125 162 208 259 310 365
#     4  11  24  38  60  96 126 162 210 247 308 382
#     4  10  22  39  61  90 122 163 209 254 314 373
#     4  10  22  39  61  90 122 163 209 254 314 373
#
# _framework density 21.961145999999999
#
# number of rings (size 3 to 8) (size 9 to 14) (size 15 to 20)
#    0.000    1.857    0.000    2.571    4.000    5.143 
#    0.000    4.286    0.000    0.000    0.000    0.000 
#    0.000    0.000    0.000    0.000    0.000    0.000 
#
# Total GULP energy -346993.102656 kJ/mol
# GULP energy per Si atom -12392.610809 kJ/mol
# Density = 2.191116 g / cm^3
# Si number density = 21.961146 Si / 1000 Ang^3
#
#
#
# Elastic Constant Matrix: (Units=GPa)
#
#
# Indices 1 2 3 4 5 6 
#
# 1 103.1029 33.7577 8.2003 0.0000 0.0000 0.3562
# 2 33.7577 103.1029 8.2003 0.0000 0.0000 -0.3562
# 3 8.2003 8.2003 63.4573 0.0000 0.0000 0.0000
# 4 0.0000 0.0000 0.0000 24.5430 0.0000 0.0000
# 5 0.0000 0.0000 0.0000 0.0000 24.5430 0.0000
# 6 0.3562 -0.3562 0.0000 0.0000 0.0000 40.2784
#
#
#
# Elastic Compliance Matrix: (Units=1/GPa)
#
#
# Indices 1 2 3 4 5 6 
#
# 1 0.010922 -0.003500 -0.000959 0.000000 0.000000 -0.000128
# 2 -0.003500 0.010922 -0.000959 0.000000 0.000000 0.000128
# 3 -0.000959 -0.000959 0.016007 0.000000 0.000000 0.000000
# 4 0.000000 0.000000 0.000000 0.040745 0.000000 0.000000
# 5 0.000000 0.000000 0.000000 0.000000 0.040745 0.000000
# 6 -0.000128 0.000128 0.000000 0.000000 0.000000 0.024829
#
#
# Mechanical properties :
#
#
# Convention : Reuss Voigt Hill
#
# Bulk Modulus (GPa) = 37.01851 41.10885 39.06368
# Shear Modulus (GPa) = 30.48589 32.50652 31.49621
#
# Velocity S-wave (km/s) = 3.72986 3.85149 3.79116
# Velocity P-wave (km/s) = 5.95333 6.20791 6.08195
#
# Compressibility (1/GPa) = 0.02701351
#
# Stress axis : x y z
#
# Youngs Moduli (GPa) = 91.56017 91.56017 62.47459
#
# Poissons Ratio (x) = 0.32047 0.05992
# Poissons Ratio (y) = 0.32047 0.05992
# Poissons Ratio (z) = 0.08781 0.08781
#
# Static dielectric constant tensor:
#      x y z
#    x 3.994000 0.000000 0.000000 
#    y 0.000000 3.994000 0.000000 
#    z 0.000000 0.000000 3.847760 
# 
# 
# High freq. dielectric constant tensor:
#      x y z
#    x 1.862910 0.000000 0.000000 
#    y 0.000000 1.862910 0.000000 
#    z 0.000000 0.000000 1.850510 
# 
# From -- ./inp_files/710.got.cif
#   From: 2010.03.12/outbox.cif.g09.slc.cpg/sg87_1_cif.got.tgz:710.got - 2010.04.08 20:16:13.
