data_PCOD8304316
_publ_section_title
;
Structure prediction by ZEFSAII (Michael W. Deem and Ramdas Pophale) SiO2 
 PCOD8304316
Probable space group: I 41/A
;
_chemical_formula_sum "Si O2"
_cell_formula_units_Z 116
_cell_length_a 17.593940
_cell_length_b 17.593940
_cell_length_c 19.152282
_cell_angle_alpha 90.000000
_cell_angle_beta 90.000000
_cell_angle_gamma 90.000000
_cell_volume 5928.526164
_symmetry_space_group_name_H-M "I 41/A"
_symmetry_group_IT_number 88
_space_group.IT_coordinate_system_code '2'
_symmetry_cell_setting 'tetragonal'
loop_
_space_group_symop_operation_xyz
x,y,z
3/4-y,1/4+x,1/4+z
-x,1/2-y,z
1/4+y,1/4-x,1/4+z
-x,-y,-z
1/4+y,3/4-x,3/4-z
x,1/2+y,-z
3/4-y,3/4+x,3/4-z
1/2+x,1/2+y,1/2+z
1/4-y,3/4+x,3/4+z
1/2-x,-y,1/2+z
3/4+y,3/4-x,3/4+z
1/2-x,1/2-y,1/2-z
3/4+y,1/4-x,1/4-z
1/2+x,y,1/2-z
1/4-y,1/4+x,1/4-z
loop_
_atom_site_type_symbol
_atom_site_label
_atom_site_fract_x
_atom_site_fract_y
_atom_site_fract_z
Si Si1 0.505208 0.833467 0.304126
Si Si2 0.500000 0.250000 0.375000
Si Si3 0.441240 0.955878 0.409350
Si Si4 0.859323 0.670565 0.290467
Si Si5 0.296905 0.541105 0.636497
Si Si6 0.844440 0.700079 0.814466
Si Si7 0.378699 0.838178 0.189876
Si Si8 0.698259 0.496616 0.986976
O O1 0.500000 0.750000 0.339865
O O2 0.482529 0.897605 0.358343
O O3 0.591040 0.845886 0.278595
O O4 0.454684 0.835900 0.234808
O O5 0.428369 0.233041 0.325590
O O6 0.432743 0.915016 0.483217
O O7 0.357443 0.975991 0.382913
O O8 0.489069 0.032817 0.411059
O O9 0.906967 0.648489 0.358696
O O10 0.833616 0.758949 0.296660
O O11 0.786543 0.617735 0.281485
O O12 0.334178 0.624131 0.639809
O O13 0.264319 0.520368 0.712446
O O14 0.229217 0.543304 0.579638
O O15 0.332100 0.912841 0.210997
#
# Coordination Sequence:
#
# PCOD8304316 Si02
#       8
#    16   4  16  16  16  16  16  16
#     4  10  22  38  63  92 127 166 208 258 313 379
#     4  12  24  44  72  96 120 164 218 272 328 404
#     4  11  23  43  64  92 128 163 211 263 320 382
#     4  11  22  39  60  91 129 163 212 253 308 375
#     4  12  23  41  66  90 123 169 202 262 324 376
#     4  11  25  43  67  94 123 163 213 269 327 382
#     4  11  21  37  64  90 122 173 203 249 308 371
#     4  12  24  40  62  92 129 162 212 256 315 375
#
# _framework density 19.566414000000002
#
# number of rings (size 3 to 8) (size 9 to 14) (size 15 to 20)
#    0.000    0.828    6.897    1.241    0.966    0.000 
#    0.000    0.000    0.000    0.000    0.000    0.000 
#    0.000    0.000    0.000    0.000    0.000    0.000 
#
# Total GULP energy -719357.662051 kJ/mol
# GULP energy per Si atom -12402.718311 kJ/mol
# Density = 1.952188 g / cm^3
# Si number density = 19.566414 Si / 1000 Ang^3
#
#
#
# Elastic Constant Matrix: (Units=GPa)
#
#
# Indices 1 2 3 4 5 6 
#
# 1 81.9485 15.6330 31.5303 0.0000 0.0000 3.1109
# 2 15.6330 81.9485 31.5303 0.0000 0.0000 -3.1109
# 3 31.5303 31.5303 88.9027 0.0000 0.0000 0.0000
# 4 0.0000 0.0000 0.0000 22.9864 0.0000 0.0000
# 5 0.0000 0.0000 0.0000 0.0000 22.9864 0.0000
# 6 3.1109 -3.1109 0.0000 0.0000 0.0000 35.5676
#
#
#
# Elastic Compliance Matrix: (Units=1/GPa)
#
#
# Indices 1 2 3 4 5 6 
#
# 1 0.014250 -0.000955 -0.004715 0.000000 0.000000 -0.001330
# 2 -0.000955 0.014250 -0.004715 0.000000 0.000000 0.001330
# 3 -0.004715 -0.004715 0.014593 0.000000 0.000000 0.000000
# 4 0.000000 0.000000 0.000000 0.043504 0.000000 0.000000
# 5 0.000000 0.000000 0.000000 0.000000 0.043504 0.000000
# 6 -0.001330 0.001330 0.000000 0.000000 0.000000 0.028348
#
#
# Mechanical properties :
#
#
# Convention : Reuss Voigt Hill
#
# Bulk Modulus (GPa) = 44.79891 45.57633 45.18762
# Shear Modulus (GPa) = 26.78682 27.91513 27.35097
#
# Velocity S-wave (km/s) = 3.70404 3.78125 3.74284
# Velocity P-wave (km/s) = 6.42174 6.51210 6.46708
#
# Compressibility (1/GPa) = 0.02232197
#
# Stress axis : x y z
#
# Youngs Moduli (GPa) = 70.17750 70.17749 68.52673
#
# Poissons Ratio (x) = 0.06699 0.32312
# Poissons Ratio (y) = 0.06699 0.32312
# Poissons Ratio (z) = 0.33090 0.33090
#
# Static dielectric constant tensor:
#      x y z
#    x 3.593510 0.000000 0.000000 
#    y 0.000000 3.593510 0.000000 
#    z 0.000000 0.000000 3.472420 
# 
# 
# High freq. dielectric constant tensor:
#      x y z
#    x 1.766370 0.000000 0.000000 
#    y 0.000000 1.766370 0.000000 
#    z 0.000000 0.000000 1.763900 
# 
# From -- ./inp_files/4043.got.cif
#   From: 2010.03.12/outbox.cif.g09.slc.cpg/sg88_3_cif.got.tgz:4043.got - 2010.04.08 20:20:55.
