data_PCOD8304606
_publ_section_title
;
Structure prediction by ZEFSAII (Michael W. Deem and Ramdas Pophale) SiO2 
 PCOD8304606
Probable space group: P 4 21 2
;
_chemical_formula_sum "Si O2"
_cell_formula_units_Z 48
_cell_length_a 11.229460
_cell_length_b 11.229460
_cell_length_c 19.585347
_cell_angle_alpha 90.000000
_cell_angle_beta 90.000000
_cell_angle_gamma 90.000000
_cell_volume 2469.727374
_symmetry_space_group_name_H-M "P 4 21 2"
_symmetry_group_IT_number 90
_symmetry_cell_setting 'tetragonal'
loop_
_space_group_symop_operation_xyz
x,y,z
1/2-y,1/2+x,z
-x,-y,z
1/2+y,1/2-x,z
1/2+x,1/2-y,-z
1/2-x,1/2+y,-z
y,x,-z
-y,-x,-z
loop_
_atom_site_type_symbol
_atom_site_label
_atom_site_fract_x
_atom_site_fract_y
_atom_site_fract_z
Si Si1 0.461181 0.194801 1.000000
Si Si2 0.966015 0.306011 0.353191
Si Si3 0.466015 0.193989 0.353191
Si Si4 0.467297 0.193231 0.500000
Si Si5 0.399734 0.399734 0.900272
Si Si6 0.401308 0.401308 0.743603
O O1 0.592537 0.138987 1.000000
O O2 0.444890 0.276709 0.933339
O O3 0.444890 0.276709 0.066661
O O4 0.864137 0.404833 0.346853
O O5 0.954467 0.237401 0.427469
O O6 0.950197 0.216438 0.291663
O O7 0.595167 0.135863 0.346853
O O8 0.454467 0.262599 0.427469
O O9 0.450197 0.283562 0.291663
O O10 0.595132 0.134079 0.500000
O O11 0.500000 0.500000 0.910778
O O12 0.372269 0.372269 0.821742
O O13 0.500000 0.500000 0.737333
#
# Coordination Sequence:
#
# PCOD8304606 Si02
#       6
#     8   8   8   8   8   8
#     4  10  22  41  69  97 114 142 193 238 274 335
#     4   9  19  37  60  82 111 155 202 248 297 345
#     4   9  19  37  60  82 111 155 202 248 297 345
#     4   7  12  29  56  81 105 143 198 252 299 340
#     4  10  24  41  61  88 126 161 181 225 293 337
#     4  11  25  39  55  86 125 158 191 231 284 349
#
# _framework density 19.435341999999999
#
# number of rings (size 3 to 8) (size 9 to 14) (size 15 to 20)
#    0.000    2.667    0.000    3.000    7.000    3.333 
#    0.000    5.000    0.000    0.000    0.000    0.000 
#    0.000    0.000    0.000    0.000    0.000    0.000 
#
# Total GULP energy -594723.779034 kJ/mol
# GULP energy per Si atom -12390.078730 kJ/mol
# Density = 1.939111 g / cm^3
# Si number density = 19.435342 Si / 1000 Ang^3
#
#
#
# Elastic Constant Matrix: (Units=GPa)
#
#
# Indices 1 2 3 4 5 6 
#
# 1 81.2848 50.3459 76.4968 0.0000 0.0000 0.0000
# 2 50.3459 81.2848 76.4968 0.0000 0.0000 0.0000
# 3 76.4968 76.4968 218.6411 0.0000 0.0000 0.0000
# 4 0.0000 0.0000 0.0000 39.5333 0.0000 0.0000
# 5 0.0000 0.0000 0.0000 0.0000 39.5333 0.0000
# 6 0.0000 0.0000 0.0000 0.0000 0.0000 22.4433
#
#
#
# Elastic Compliance Matrix: (Units=1/GPa)
#
#
# Indices 1 2 3 4 5 6 
#
# 1 0.022563 -0.009759 -0.004480 0.000000 0.000000 0.000000
# 2 -0.009759 0.022563 -0.004480 0.000000 0.000000 0.000000
# 3 -0.004480 -0.004480 0.007708 0.000000 0.000000 0.000000
# 4 0.000000 0.000000 0.000000 0.025295 0.000000 0.000000
# 5 0.000000 0.000000 0.000000 0.000000 0.025295 0.000000
# 6 0.000000 0.000000 0.000000 0.000000 0.000000 0.044557
#
#
# Mechanical properties :
#
#
# Convention : Reuss Voigt Hill
#
# Bulk Modulus (GPa) = 64.94748 87.54330 76.24539
# Shear Modulus (GPa) = 26.23981 32.16005 29.19993
#
# Velocity S-wave (km/s) = 3.67837 4.07224 3.88030
# Velocity P-wave (km/s) = 7.17846 8.20073 7.70656
#
# Compressibility (1/GPa) = 0.01539706
#
# Stress axis : x y z
#
# Youngs Moduli (GPa) = 44.32079 44.32079 129.72935
#
# Poissons Ratio (x) = 0.43253 0.58115
# Poissons Ratio (y) = 0.43253 0.58115
# Poissons Ratio (z) = 0.19854 0.19854
#
# Static dielectric constant tensor:
#      x y z
#    x 3.470300 0.000000 0.000000 
#    y 0.000000 3.470300 0.000000 
#    z 0.000000 0.000000 3.941060 
# 
# 
# High freq. dielectric constant tensor:
#      x y z
#    x 1.747890 0.000000 0.000000 
#    y 0.000000 1.747890 0.000000 
#    z 0.000000 0.000000 1.770640 
# 
# From -- ./inp_files/2660.got.cif
#   From: 2010.03.12/outbox.cif.g09.slc.cpg/sg90_2_cif.got.tgz:2660.got - 2010.04.08 20:26:03.
