data_PCOD8304215
_publ_section_title
;
Structure prediction by ZEFSAII (Michael W. Deem and Ramdas Pophale) SiO2 
 PCOD8304215
Probable space group: I 41/A
;
_chemical_formula_sum "Si O2"
_cell_formula_units_Z 64
_cell_length_a 18.303051
_cell_length_b 18.303051
_cell_length_c 9.971807
_cell_angle_alpha 90.000000
_cell_angle_beta 90.000000
_cell_angle_gamma 90.000000
_cell_volume 3340.572057
_symmetry_space_group_name_H-M "I 41/A"
_symmetry_group_IT_number 88
_space_group.IT_coordinate_system_code '2'
_symmetry_cell_setting 'tetragonal'
loop_
_space_group_symop_operation_xyz
x,y,z
3/4-y,1/4+x,1/4+z
-x,1/2-y,z
1/4+y,1/4-x,1/4+z
-x,-y,-z
1/4+y,3/4-x,3/4-z
x,1/2+y,-z
3/4-y,3/4+x,3/4-z
1/2+x,1/2+y,1/2+z
1/4-y,3/4+x,3/4+z
1/2-x,-y,1/2+z
3/4+y,3/4-x,3/4+z
1/2-x,1/2-y,1/2-z
3/4+y,1/4-x,1/4-z
1/2+x,y,1/2-z
1/4-y,1/4+x,1/4-z
loop_
_atom_site_type_symbol
_atom_site_label
_atom_site_fract_x
_atom_site_fract_y
_atom_site_fract_z
Si Si1 0.774146 0.699887 0.560213
Si Si2 0.086554 0.933194 0.058824
Si Si3 0.204004 0.551902 0.274983
Si Si4 0.779449 0.661628 0.049615
O O1 0.831617 0.752593 0.640801
O O2 0.715211 0.664984 0.660270
O O3 0.814868 0.633345 0.488027
O O4 0.729828 0.750224 0.452079
O O5 0.121834 0.992035 0.163587
O O6 0.134931 0.859807 0.056247
O O7 0.221102 0.488530 0.382907
O O8 0.237495 0.628747 0.322536
#
# Coordination Sequence:
#
# PCOD8304215 Si02
#       4
#    16  16  16  16
#     4   9  22  35  58  94 121 154 197 248 305 353
#     4   9  19  37  59  89 121 153 194 255 289 355
#     4  12  23  36  63  93 120 158 201 252 300 351
#     4  10  19  38  59  88 120 149 199 251 293 346
#
# _framework density 19.158396
#
# number of rings (size 3 to 8) (size 9 to 14) (size 15 to 20)
#    1.500    0.500    2.500    1.500    3.500    1.000 
#    0.000    0.000    0.000    9.000    0.000    0.000 
#    0.000    0.000    0.000    0.000    0.000    0.000 
#
# Total GULP energy -396427.711251 kJ/mol
# GULP energy per Si atom -12388.365977 kJ/mol
# Density = 1.911479 g / cm^3
# Si number density = 19.158396 Si / 1000 Ang^3
#
#
#
# Elastic Constant Matrix: (Units=GPa)
#
#
# Indices 1 2 3 4 5 6 
#
# 1 83.8620 24.9429 34.1673 0.0000 0.0000 2.8141
# 2 24.9429 83.8620 34.1673 0.0000 0.0000 -2.8141
# 3 34.1673 34.1673 70.3649 0.0000 0.0000 0.0000
# 4 0.0000 0.0000 0.0000 29.6136 0.0000 0.0000
# 5 0.0000 0.0000 0.0000 0.0000 29.6136 0.0000
# 6 2.8141 -2.8141 0.0000 0.0000 0.0000 8.4348
#
#
#
# Elastic Compliance Matrix: (Units=1/GPa)
#
#
# Indices 1 2 3 4 5 6 
#
# 1 0.015377 -0.002154 -0.006421 0.000000 0.000000 -0.005849
# 2 -0.002154 0.015377 -0.006421 0.000000 0.000000 0.005849
# 3 -0.006421 -0.006421 0.020447 0.000000 0.000000 0.000000
# 4 0.000000 0.000000 0.000000 0.033768 0.000000 0.000000
# 5 0.000000 0.000000 0.000000 0.000000 0.033768 0.000000
# 6 -0.005849 0.005849 0.000000 0.000000 0.000000 0.122459
#
#
# Mechanical properties :
#
#
# Convention : Reuss Voigt Hill
#
# Bulk Modulus (GPa) = 47.14672 47.18266 47.16469
# Shear Modulus (GPa) = 17.96887 23.18650 20.57768
#
# Velocity S-wave (km/s) = 3.06586 3.48264 3.28087
# Velocity P-wave (km/s) = 6.09877 6.39162 6.24691
#
# Compressibility (1/GPa) = 0.02121038
#
# Stress axis : x y z
#
# Youngs Moduli (GPa) = 65.03100 65.03100 48.90616
#
# Poissons Ratio (x) = 0.14007 0.31402
# Poissons Ratio (y) = 0.14007 0.31402
# Poissons Ratio (z) = 0.41756 0.41756
#
# Static dielectric constant tensor:
#      x y z
#    x 3.310170 0.000000 0.000000 
#    y 0.000000 3.310170 0.000000 
#    z 0.000000 0.000000 3.502910 
# 
# 
# High freq. dielectric constant tensor:
#      x y z
#    x 1.718820 0.000000 0.000000 
#    y 0.000000 1.718820 0.000000 
#    z 0.000000 0.000000 1.751970 
# 
# From -- ./inp_files/2342.got.cif
#   From: 2010.03.12/outbox.cif.g09.slc.cpg/sg88_2_cif.got.tgz:2342.got - 2010.04.08 20:20:55.
