data_PCOD8304002
_publ_section_title
;
Structure prediction by ZEFSAII (Michael W. Deem and Ramdas Pophale) SiO2 
 PCOD8304002
Probable space group: I 4/M
;
_chemical_formula_sum "Si O2"
_cell_formula_units_Z 104
_cell_length_a 18.660378
_cell_length_b 18.660378
_cell_length_c 15.847211
_cell_angle_alpha 90.000000
_cell_angle_beta 90.000000
_cell_angle_gamma 90.000000
_cell_volume 5518.152701
_symmetry_space_group_name_H-M "I 4/M"
_symmetry_group_IT_number 87
_symmetry_cell_setting 'tetragonal'
loop_
_space_group_symop_operation_xyz
x,y,z
-y,x,z
-x,-y,z
y,-x,z
-x,-y,-z
y,-x,-z
x,y,-z
-y,x,-z
1/2+x,1/2+y,1/2+z
1/2-y,1/2+x,1/2+z
1/2-x,1/2-y,1/2+z
1/2+y,1/2-x,1/2+z
1/2-x,1/2-y,1/2-z
1/2+y,1/2-x,1/2-z
1/2+x,1/2+y,1/2-z
1/2-y,1/2+x,1/2-z
loop_
_atom_site_type_symbol
_atom_site_label
_atom_site_fract_x
_atom_site_fract_y
_atom_site_fract_z
Si Si1 0.326631 0.573346 0.757806
Si Si2 0.043952 0.330242 0.677219
Si Si3 0.054042 0.663073 0.828676
Si Si4 0.078818 0.087387 0.589663
Si Si5 0.927184 0.173832 0.173443
Si Si6 0.502826 0.123326 0.000000
Si Si7 0.533920 0.386561 0.500000
Si Si8 0.386816 0.997654 0.000000
O O1 0.243860 0.572139 0.782607
O O2 0.366963 0.611575 0.835750
O O3 0.352906 0.629193 0.685691
O O4 0.353052 0.493105 0.733545
O O5 0.112904 0.378044 0.663177
O O6 0.004994 0.326781 0.584638
O O7 0.991114 0.363587 0.747291
O O8 0.084825 0.742138 0.811963
O O9 0.006239 0.660153 0.914391
O O10 0.106423 0.117915 0.500000
O O11 0.994334 0.099601 0.596695
O O12 0.952978 0.163997 0.078848
O O13 0.579518 0.082521 0.000000
O O14 0.445740 0.059705 0.000000
O O15 0.587665 0.452709 0.500000
#
# Coordination Sequence:
#
# PCOD8304002 Si02
#       8
#    16  16  16  16  16   8   8   8
#     4  11  21  34  53  80 111 153 188 238 289 349
#     4  10  22  36  57  85 114 151 194 244 304 358
#     4  10  21  38  58  85 115 151 195 246 300 365
#     4   9  17  29  49  74  99 135 177 220 269 323
#     4  11  22  36  55  81 115 151 195 237 294 353
#     4   9  18  34  58  88 110 140 190 242 295 355
#     4  11  21  34  58  88 111 146 189 241 290 340
#     4   9  17  34  62  84 109 143 184 246 302 350
#
# _framework density 18.846886000000001
#
# number of rings (size 3 to 8) (size 9 to 14) (size 15 to 20)
#    0.000    1.923    3.077    1.846    1.077    2.462 
#    0.000    0.000    0.000    0.000    0.000    0.000 
#    0.000    0.000    0.000    0.000    0.000    0.000 
#
# Total GULP energy -644254.948055 kJ/mol
# GULP energy per Si atom -12389.518232 kJ/mol
# Density = 1.880399 g / cm^3
# Si number density = 18.846886 Si / 1000 Ang^3
#
#
#
# Elastic Constant Matrix: (Units=GPa)
#
#
# Indices 1 2 3 4 5 6 
#
# 1 57.5025 39.9661 22.3178 0.0000 0.0000 2.5037
# 2 39.9661 57.5025 22.3178 0.0000 0.0000 -2.5037
# 3 22.3178 22.3178 122.3362 0.0000 0.0000 0.0000
# 4 0.0000 0.0000 0.0000 24.0934 0.0000 0.0000
# 5 0.0000 0.0000 0.0000 0.0000 24.0934 0.0000
# 6 2.5037 -2.5037 0.0000 0.0000 0.0000 23.5757
#
#
#
# Elastic Compliance Matrix: (Units=1/GPa)
#
#
# Indices 1 2 3 4 5 6 
#
# 1 0.035001 -0.023806 -0.002042 0.000000 0.000000 -0.006245
# 2 -0.023806 0.035001 -0.002042 0.000000 0.000000 0.006245
# 3 -0.002042 -0.002042 0.008919 0.000000 0.000000 0.000000
# 4 0.000000 0.000000 0.000000 0.041505 0.000000 0.000000
# 5 0.000000 0.000000 0.000000 0.000000 0.041505 0.000000
# 6 -0.006245 0.006245 0.000000 0.000000 0.000000 0.043743
#
#
# Mechanical properties :
#
#
# Convention : Reuss Voigt Hill
#
# Bulk Modulus (GPa) = 43.21499 45.17161 44.19330
# Shear Modulus (GPa) = 18.57564 24.53514 21.55539
#
# Velocity S-wave (km/s) = 3.14285 3.61198 3.38555
# Velocity P-wave (km/s) = 6.01243 6.43544 6.22753
#
# Compressibility (1/GPa) = 0.02314012
#
# Stress axis : x y z
#
# Youngs Moduli (GPa) = 28.57053 28.57053 112.11579
#
# Poissons Ratio (x) = 0.68015 0.22897
# Poissons Ratio (y) = 0.68015 0.22897
# Poissons Ratio (z) = 0.05835 0.05835
#
# Static dielectric constant tensor:
#      x y z
#    x 3.184860 0.000000 0.000000 
#    y 0.000000 3.184860 0.000000 
#    z 0.000000 0.000000 3.951920 
# 
# 
# High freq. dielectric constant tensor:
#      x y z
#    x 1.707660 0.000000 0.000000 
#    y 0.000000 1.707660 0.000000 
#    z 0.000000 0.000000 1.758700 
# 
# From -- ./inp_files/4566.got.cif
#   From: 2010.03.12/outbox.cif.g09.slc.cpg/sg87_3_cif.got.tgz:4566.got - 2010.04.08 20:16:13.
