data_PCOD8304195
_publ_section_title
;
Structure prediction by ZEFSAII (Michael W. Deem and Ramdas Pophale) SiO2 
 PCOD8304195
Probable space group: I 41/A
;
_chemical_formula_sum "Si O2"
_cell_formula_units_Z 84
_cell_length_a 16.228947
_cell_length_b 16.228947
_cell_length_c 17.882742
_cell_angle_alpha 90.000000
_cell_angle_beta 90.000000
_cell_angle_gamma 90.000000
_cell_volume 4709.933711
_symmetry_space_group_name_H-M "I 41/A"
_symmetry_group_IT_number 88
_space_group.IT_coordinate_system_code '2'
_symmetry_cell_setting 'tetragonal'
loop_
_space_group_symop_operation_xyz
x,y,z
3/4-y,1/4+x,1/4+z
-x,1/2-y,z
1/4+y,1/4-x,1/4+z
-x,-y,-z
1/4+y,3/4-x,3/4-z
x,1/2+y,-z
3/4-y,3/4+x,3/4-z
1/2+x,1/2+y,1/2+z
1/4-y,3/4+x,3/4+z
1/2-x,-y,1/2+z
3/4+y,3/4-x,3/4+z
1/2-x,1/2-y,1/2-z
3/4+y,1/4-x,1/4-z
1/2+x,y,1/2-z
1/4-y,1/4+x,1/4-z
loop_
_atom_site_type_symbol
_atom_site_label
_atom_site_fract_x
_atom_site_fract_y
_atom_site_fract_z
Si Si1 0.383848 0.355684 0.280961
Si Si2 0.230739 0.493673 0.199663
Si Si3 0.090090 0.223813 0.367435
Si Si4 0.714913 0.612308 0.934333
Si Si5 0.302304 0.625079 0.821071
Si Si6 0.500000 0.750000 0.625000
O O1 0.414797 0.345475 0.196136
O O2 0.408957 0.447801 0.305699
O O3 0.286913 0.341989 0.295578
O O4 0.426147 0.284406 0.326941
O O5 0.283799 0.434505 0.145362
O O6 0.295978 0.547426 0.248536
O O7 0.171020 0.551445 0.151410
O O8 0.172744 0.439674 0.255791
O O9 0.143257 0.182158 0.434643
O O10 0.133503 0.301770 0.328405
O O11 0.000000 0.250000 0.397657
#
# Coordination Sequence:
#
# PCOD8304195 Si02
#       6
#    16  16  16  16  16   4
#     4  10  21  31  53  76 119 148 180 217 272 346
#     4   8  18  34  58  73 104 149 189 218 269 342
#     4  12  23  33  50  85 117 141 180 235 276 331
#     4  10  18  37  52  78 105 152 188 224 269 330
#     4  10  20  34  54  81 110 144 185 227 282 330
#     4  12  20  28  44  84 120 156 176 202 284 344
#
# _framework density 17.834647
#
# number of rings (size 3 to 8) (size 9 to 14) (size 15 to 20)
#    0.000    2.286    4.762    1.714    5.333    1.524 
#    0.000    0.952    0.000    0.000    0.000    0.000 
#    0.000    0.000    0.000    0.000    0.000    0.000 
#
# Total GULP energy -520434.058121 kJ/mol
# GULP energy per Si atom -12391.287098 kJ/mol
# Density = 1.779405 g / cm^3
# Si number density = 17.834647 Si / 1000 Ang^3
#
#
#
# Elastic Constant Matrix: (Units=GPa)
#
#
# Indices 1 2 3 4 5 6 
#
# 1 81.2886 33.8693 26.2864 0.0000 0.0000 -8.6797
# 2 33.8693 81.2886 26.2864 0.0000 0.0000 8.6797
# 3 26.2864 26.2864 90.3813 0.0000 0.0000 0.0000
# 4 0.0000 0.0000 0.0000 -22.1045 0.0000 0.0000
# 5 0.0000 0.0000 0.0000 0.0000 -22.1045 0.0000
# 6 -8.6797 8.6797 0.0000 0.0000 0.0000 23.4860
#
#
#
# Elastic Compliance Matrix: (Units=1/GPa)
#
#
# Indices 1 2 3 4 5 6 
#
# 1 0.017201 -0.007187 -0.002912 0.000000 0.000000 0.009013
# 2 -0.007187 0.017201 -0.002912 0.000000 0.000000 -0.009013
# 3 -0.002912 -0.002912 0.012758 0.000000 0.000000 0.000000
# 4 0.000000 0.000000 0.000000 -0.045240 0.000000 0.000000
# 5 0.000000 0.000000 0.000000 0.000000 -0.045240 0.000000
# 6 0.009013 -0.009013 0.000000 0.000000 0.000000 0.049241
#
#
# Mechanical properties :
#
#
# Convention : Reuss Voigt Hill
#
# Bulk Modulus (GPa) = 47.31320 47.31585 47.31452
# Shear Modulus (GPa) = 128.23915 6.95649 67.59782
#
# Velocity S-wave (km/s) = 8.48885 1.97712 6.16318
# Velocity P-wave (km/s) = 11.07552 5.63914 8.78826
#
# Compressibility (1/GPa) = 0.02113575
#
# Stress axis : x y z
#
# Youngs Moduli (GPa) = 58.13751 58.13752 78.38089
#
# Poissons Ratio (x) = 0.41785 0.22826
# Poissons Ratio (y) = 0.41785 0.22826
# Poissons Ratio (z) = 0.16931 0.16931
#
# Static dielectric constant tensor:
#      x y z
#    x 3.261780 0.000000 0.000000 
#    y 0.000000 3.261780 0.000000 
#    z 0.000000 0.000000 3.364500 
# 
# 
# High freq. dielectric constant tensor:
#      x y z
#    x 1.672230 0.000000 0.000000 
#    y 0.000000 1.672230 0.000000 
#    z 0.000000 0.000000 1.685040 
# 
# From -- ./inp_files/3891.got.cif
#   From: 2010.03.12/outbox.cif.g09.slc.cpg/sg88_2_cif.got.tgz:3891.got - 2010.04.08 20:20:55.
