data_PCOD8304039
_publ_section_title
;
Structure prediction by ZEFSAII (Michael W. Deem and Ramdas Pophale) SiO2 
 PCOD8304039
Probable space group: I 4/M
;
_chemical_formula_sum "Si O2"
_cell_formula_units_Z 56
_cell_length_a 17.398414
_cell_length_b 17.398414
_cell_length_c 9.758513
_cell_angle_alpha 90.000000
_cell_angle_beta 90.000000
_cell_angle_gamma 90.000000
_cell_volume 2953.948821
_symmetry_space_group_name_H-M "I 4/M"
_symmetry_group_IT_number 87
_symmetry_cell_setting 'tetragonal'
loop_
_space_group_symop_operation_xyz
x,y,z
-y,x,z
-x,-y,z
y,-x,z
-x,-y,-z
y,-x,-z
x,y,-z
-y,x,-z
1/2+x,1/2+y,1/2+z
1/2-y,1/2+x,1/2+z
1/2-x,1/2-y,1/2+z
1/2+y,1/2-x,1/2+z
1/2-x,1/2-y,1/2-z
1/2+y,1/2-x,1/2-z
1/2+x,1/2+y,1/2-z
1/2-y,1/2+x,1/2-z
loop_
_atom_site_type_symbol
_atom_site_label
_atom_site_fract_x
_atom_site_fract_y
_atom_site_fract_z
Si Si1 0.304721 0.417558 0.720164
Si Si2 0.883426 0.945407 0.500000
Si Si3 0.217377 0.912088 0.852111
Si Si4 0.300561 0.809615 0.662855
O O1 0.312344 0.501551 0.659244
O O2 0.360214 0.358852 0.642323
O O3 0.216402 0.388174 0.695233
O O4 0.330661 0.418496 0.876455
O O5 0.963515 0.898982 0.500000
O O6 0.277718 0.891978 0.729397
O O7 0.258463 0.901169 0.000000
O O8 0.282783 0.810696 0.500000
O O9 0.250000 0.750000 0.750000
#
# Coordination Sequence:
#
# PCOD8304039 Si02
#       4
#    16   8  16  16
#     4  11  22  36  58  81 119 146 190 234 281 340
#     4  11  22  36  54  90 120 153 189 230 280 347
#     4  11  23  38  57  84 113 152 187 234 290 341
#     4  10  22  37  55  81 111 149 190 237 280 335
#
# _framework density 18.957674999999998
#
# number of rings (size 3 to 8) (size 9 to 14) (size 15 to 20)
#    0.000    1.286    2.857    5.143   12.000    0.571 
#    0.000    1.429    0.000    0.857    0.000    4.000 
#    0.000    0.000    0.000    0.000    0.000    0.000 
#
# Total GULP energy -346904.763744 kJ/mol
# GULP energy per Si atom -12389.455848 kJ/mol
# Density = 1.891453 g / cm^3
# Si number density = 18.957675 Si / 1000 Ang^3
#
#
#
# Elastic Constant Matrix: (Units=GPa)
#
#
# Indices 1 2 3 4 5 6 
#
# 1 59.1073 47.1521 28.8127 0.0000 0.0000 -0.9442
# 2 47.1521 59.1073 28.8127 0.0000 0.0000 0.9442
# 3 28.8127 28.8127 185.4686 0.0000 0.0000 0.0000
# 4 0.0000 0.0000 0.0000 17.5963 0.0000 0.0000
# 5 0.0000 0.0000 0.0000 0.0000 17.5963 0.0000
# 6 -0.9442 0.9442 0.0000 0.0000 0.0000 17.6645
#
#
#
# Elastic Compliance Matrix: (Units=1/GPa)
#
#
# Indices 1 2 3 4 5 6 
#
# 1 0.047317 -0.037041 -0.001596 0.000000 0.000000 0.004509
# 2 -0.037041 0.047317 -0.001596 0.000000 0.000000 -0.004509
# 3 -0.001596 -0.001596 0.005888 0.000000 0.000000 0.000000
# 4 0.000000 0.000000 0.000000 0.056830 0.000000 0.000000
# 5 0.000000 0.000000 0.000000 0.000000 0.056830 0.000000
# 6 0.004509 -0.004509 0.000000 0.000000 0.000000 0.057093
#
#
# Mechanical properties :
#
#
# Convention : Reuss Voigt Hill
#
# Bulk Modulus (GPa) = 49.86228 57.02646 53.44437
# Shear Modulus (GPa) = 13.94980 23.83179 18.89079
#
# Velocity S-wave (km/s) = 2.71558 3.54941 3.16012
# Velocity P-wave (km/s) = 6.01594 6.85157 6.44731
#
# Compressibility (1/GPa) = 0.02005524
#
# Stress axis : x y z
#
# Youngs Moduli (GPa) = 21.13388 21.13388 169.84324
#
# Poissons Ratio (x) = 0.78281 0.27115
# Poissons Ratio (y) = 0.78281 0.27115
# Poissons Ratio (z) = 0.03374 0.03374
#
# Static dielectric constant tensor:
#      x y z
#    x 3.789650 0.000000 0.000000 
#    y 0.000000 3.789650 0.000000 
#    z 0.000000 0.000000 3.804840 
# 
# 
# High freq. dielectric constant tensor:
#      x y z
#    x 1.713970 0.000000 0.000000 
#    y 0.000000 1.713970 0.000000 
#    z 0.000000 0.000000 1.764860 
# 
# From -- ./inp_files/730.got.cif
#   From: 2010.03.12/outbox.cif.g09.slc.cpg/sg87_1_cif.got.tgz:730.got - 2010.04.08 20:16:13.
