data_PCOD8304745
_publ_section_title
;
Structure prediction by ZEFSAII (Michael W. Deem and Ramdas Pophale) SiO2 
 PCOD8304745
Probable space group: P 41 2 2
;
_chemical_formula_sum "Si O2"
_cell_formula_units_Z 40
_cell_length_a 14.901864
_cell_length_b 14.901864
_cell_length_c 9.619211
_cell_angle_alpha 90.000000
_cell_angle_beta 90.000000
_cell_angle_gamma 90.000000
_cell_volume 2136.095388
_symmetry_space_group_name_H-M "P 41 2 2"
_symmetry_group_IT_number 91
_symmetry_cell_setting 'tetragonal'
loop_
_space_group_symop_operation_xyz
x,y,z
-y,x,1/4+z
-x,-y,1/2+z
y,-x,3/4+z
x,-y,1/2-z
-x,y,-z
y,x,3/4-z
-y,-x,1/4-z
loop_
_atom_site_type_symbol
_atom_site_label
_atom_site_fract_x
_atom_site_fract_y
_atom_site_fract_z
Si Si1 0.190470 0.697592 0.534543
Si Si2 0.000000 0.605671 0.000000
Si Si3 0.540677 0.121991 0.361135
Si Si4 0.811873 0.153947 0.474937
Si Si5 0.692717 0.987717 0.465830
Si Si6 0.000000 0.092095 0.500000
O O1 0.278049 0.721952 0.625000
O O2 0.194162 0.593980 0.484018
O O3 0.202070 0.760476 0.399223
O O4 0.099157 0.716143 0.622253
O O5 0.914135 0.544584 0.970163
O O6 0.036268 0.664695 0.872432
O O7 0.500000 0.167769 0.500000
O O8 0.610223 0.041623 0.395537
O O9 0.796368 0.203633 0.625000
O O10 0.918398 0.154909 0.447699
O O11 0.780191 0.050061 0.478301
O O12 0.970543 0.029458 0.625000
#
# Coordination Sequence:
#
# PCOD8304745 Si02
#       6
#     8   4   8   8   8   4
#     4  11  23  34  55  78 112 138 184 255 302 342
#     4  10  18  33  63  78 102 132 202 252 291 357
#     4   9  17  36  55  82 103 139 193 246 295 352
#     4  10  23  37  46  66 101 148 203 239 291 329
#     4  10  21  33  55  79 105 141 201 255 297 327
#     4  10  24  33  47  60  80 138 210 242 273 309
#
# _framework density 18.725754999999999
#
# number of rings (size 3 to 8) (size 9 to 14) (size 15 to 20)
#    0.000    2.000    2.000    1.800   11.200    0.800 
#    0.000    0.000    0.000    0.000    0.000    0.000 
#    0.000    0.000    0.000    0.000   30.400   27.600 
#
# Total GULP energy -495659.498060 kJ/mol
# GULP energy per Si atom -12391.487452 kJ/mol
# Density = 1.868313 g / cm^3
# Si number density = 18.725755 Si / 1000 Ang^3
#
#
#
# Elastic Constant Matrix: (Units=GPa)
#
#
# Indices 1 2 3 4 5 6 
#
# 1 60.4274 15.7146 30.8096 0.0000 0.0000 0.0000
# 2 15.7146 60.4279 30.8093 0.0000 0.0000 0.0000
# 3 30.8096 30.8093 126.8800 0.0000 0.0000 0.0000
# 4 0.0000 0.0000 0.0000 32.7132 0.0000 0.0000
# 5 0.0000 0.0000 0.0000 0.0000 32.7134 0.0000
# 6 0.0000 0.0000 0.0000 0.0000 0.0000 16.8465
#
#
#
# Elastic Compliance Matrix: (Units=1/GPa)
#
#
# Indices 1 2 3 4 5 6 
#
# 1 0.019355 -0.003010 -0.003969 0.000000 0.000000 0.000000
# 2 -0.003010 0.019355 -0.003969 0.000000 0.000000 0.000000
# 3 -0.003969 -0.003969 0.009809 0.000000 0.000000 0.000000
# 4 0.000000 0.000000 0.000000 0.030569 0.000000 0.000000
# 5 0.000000 0.000000 0.000000 0.000000 0.030569 0.000000
# 6 0.000000 0.000000 0.000000 0.000000 0.000000 0.059360
#
#
# Mechanical properties :
#
#
# Convention : Reuss Voigt Hill
#
# Bulk Modulus (GPa) = 37.56080 44.71137 41.13609
# Shear Modulus (GPa) = 25.02678 27.81474 26.42076
#
# Velocity S-wave (km/s) = 3.65977 3.85824 3.76031
# Velocity P-wave (km/s) = 6.16121 6.61640 6.39286
#
# Compressibility (1/GPa) = 0.02662350
#
# Stress axis : x y z
#
# Youngs Moduli (GPa) = 51.66579 51.66636 101.94717
#
# Poissons Ratio (x) = 0.15550 0.40464
# Poissons Ratio (y) = 0.15550 0.40463
# Poissons Ratio (z) = 0.20506 0.20506
#
# Static dielectric constant tensor:
#      x y z
#    x 3.326330 0.000000 0.000000 
#    y 0.000000 3.326320 0.000000 
#    z 0.000000 0.000000 3.984440 
# 
# 
# High freq. dielectric constant tensor:
#      x y z
#    x 1.688230 0.000000 0.000000 
#    y 0.000000 1.688230 0.000000 
#    z 0.000000 0.000000 1.761340 
# 
# From -- ./inp_files/3677.got.cif
#   From: 2010.03.12/outbox.cif.g09.slc.cpg/sg91_2_cif.got.tgz:3677.got - 2010.04.08 20:27:58.
