data_PCOD8304618
_publ_section_title
;
Structure prediction by ZEFSAII (Michael W. Deem and Ramdas Pophale) SiO2 
 PCOD8304618
Probable space group: P 4 21 2
;
_chemical_formula_sum "Si O2"
_cell_formula_units_Z 56
_cell_length_a 13.955170
_cell_length_b 13.955170
_cell_length_c 13.802842
_cell_angle_alpha 90.000000
_cell_angle_beta 90.000000
_cell_angle_gamma 90.000000
_cell_volume 2688.058893
_symmetry_space_group_name_H-M "P 4 21 2"
_symmetry_group_IT_number 90
_symmetry_cell_setting 'tetragonal'
loop_
_space_group_symop_operation_xyz
x,y,z
1/2-y,1/2+x,z
-x,-y,z
1/2+y,1/2-x,z
1/2+x,1/2-y,-z
1/2-x,1/2+y,-z
y,x,-z
-y,-x,-z
loop_
_atom_site_type_symbol
_atom_site_label
_atom_site_fract_x
_atom_site_fract_y
_atom_site_fract_z
Si Si1 0.933194 0.358910 0.660180
Si Si2 0.153388 0.000217 0.028768
Si Si3 0.576259 0.415940 0.391364
Si Si4 0.566917 0.858059 0.558597
Si Si5 0.464168 0.279278 0.716185
Si Si6 0.323340 0.446084 0.757271
Si Si7 0.999076 0.341214 0.098197
O O1 0.875163 0.454680 0.678978
O O2 0.897912 0.280176 0.737961
O O3 0.915509 0.322404 0.550586
O O4 0.170157 0.004441 0.143555
O O5 0.094712 0.905289 0.000000
O O6 0.257170 0.998632 0.980280
O O7 0.095614 0.095614 0.000000
O O8 0.500000 0.500000 0.398534
O O9 0.611610 0.388391 0.500000
O O10 0.671082 0.443824 0.332392
O O11 0.520928 0.333220 0.332507
O O12 0.624903 0.954407 0.578137
O O13 0.598227 0.775380 0.633673
O O14 0.400894 0.362093 0.764411
O O15 0.500426 0.203968 0.795088
O O16 0.904539 0.405760 0.084507
#
# Coordination Sequence:
#
# PCOD8304618 Si02
#       7
#     8   8   8   8   8   8   8
#     4   9  20  40  60  83 122 167 210 257 310 375
#     4  11  24  45  70  93 126 171 218 273 333 394
#     4   9  19  34  57  90 128 167 204 252 315 379
#     4   9  18  35  59  84 120 172 210 241 305 379
#     4  11  20  36  61  89 128 164 204 265 315 383
#     4  11  22  38  64  92 119 161 213 255 321 383
#     4  11  25  45  68  98 132 170 221 276 336 398
#
# _framework density 20.832875999999999
#
# number of rings (size 3 to 8) (size 9 to 14) (size 15 to 20)
#    0.000    1.857    1.429    3.429    4.000    4.571 
#    7.714    1.429    0.000    0.000    0.000    0.000 
#    0.000    0.000    0.000    0.000    0.000    0.000 
#
# Total GULP energy -694331.605736 kJ/mol
# GULP energy per Si atom -12398.778674 kJ/mol
# Density = 2.078546 g / cm^3
# Si number density = 20.832876 Si / 1000 Ang^3
#
#
#
# Elastic Constant Matrix: (Units=GPa)
#
#
# Indices 1 2 3 4 5 6 
#
# 1 314.9528 -183.9295 48.0730 0.0000 0.0000 0.0000
# 2 -183.9295 314.9446 48.0706 0.0000 0.0000 0.0000
# 3 48.0730 48.0706 129.0553 0.0000 0.0000 0.0000
# 4 0.0000 0.0000 0.0000 29.2830 0.0000 0.0000
# 5 0.0000 0.0000 0.0000 0.0000 29.2830 0.0000
# 6 0.0000 0.0000 0.0000 0.0000 0.0000 18.1704
#
#
#
# Elastic Compliance Matrix: (Units=1/GPa)
#
#
# Indices 1 2 3 4 5 6 
#
# 1 0.006254 0.004249 -0.003912 0.000000 0.000000 0.000000
# 2 0.004249 0.006254 -0.003912 0.000000 0.000000 0.000000
# 3 -0.003912 -0.003912 0.010663 0.000000 0.000000 0.000000
# 4 0.000000 0.000000 0.000000 0.034150 0.000000 0.000000
# 5 0.000000 0.000000 0.000000 0.000000 0.034150 0.000000
# 6 0.000000 0.000000 0.000000 0.000000 0.000000 0.055034
#
#
# Mechanical properties :
#
#
# Convention : Reuss Voigt Hill
#
# Bulk Modulus (GPa) = 62.42004 64.82008 63.62006
# Shear Modulus (GPa) = 31.44740 71.79653 51.62196
#
# Velocity S-wave (km/s) = 3.88945 5.87690 4.98326
# Velocity P-wave (km/s) = 7.08504 8.78820 7.98217
#
# Compressibility (1/GPa) = 0.01602050
#
# Stress axis : x y z
#
# Youngs Moduli (GPa) = 159.89990 159.89644 93.77966
#
# Poissons Ratio (x) = -0.67948 0.36691
# Poissons Ratio (y) = -0.67949 0.36691
# Poissons Ratio (z) = 0.62560 0.62558
#
# Static dielectric constant tensor:
#      x y z
#    x 3.669260 0.000000 0.000000 
#    y 0.000000 3.669260 0.000000 
#    z 0.000000 0.000000 3.832450 
# 
# 
# High freq. dielectric constant tensor:
#      x y z
#    x 1.807710 0.000000 0.000000 
#    y 0.000000 1.807710 0.000000 
#    z 0.000000 0.000000 1.821820 
# 
# From -- ./inp_files/2258.got.cif
#   From: 2010.03.12/outbox.cif.g09.slc.cpg/sg90_2_cif.got.tgz:2258.got - 2010.04.08 20:26:03.
