data_PCOD8304047
_publ_section_title
;
Structure prediction by ZEFSAII (Michael W. Deem and Ramdas Pophale) SiO2 
 PCOD8304047
Probable space group: I 4/M
;
_chemical_formula_sum "Si O2"
_cell_formula_units_Z 80
_cell_length_a 16.982635
_cell_length_b 16.982635
_cell_length_c 13.917074
_cell_angle_alpha 90.000000
_cell_angle_beta 90.000000
_cell_angle_gamma 90.000000
_cell_volume 4013.821803
_symmetry_space_group_name_H-M "I 4/M"
_symmetry_group_IT_number 87
_symmetry_cell_setting 'tetragonal'
loop_
_space_group_symop_operation_xyz
x,y,z
-y,x,z
-x,-y,z
y,-x,z
-x,-y,-z
y,-x,-z
x,y,-z
-y,x,-z
1/2+x,1/2+y,1/2+z
1/2-y,1/2+x,1/2+z
1/2-x,1/2-y,1/2+z
1/2+y,1/2-x,1/2+z
1/2-x,1/2-y,1/2-z
1/2+y,1/2-x,1/2-z
1/2+x,1/2+y,1/2-z
1/2-y,1/2+x,1/2-z
loop_
_atom_site_type_symbol
_atom_site_label
_atom_site_fract_x
_atom_site_fract_y
_atom_site_fract_z
Si Si1 0.962123 0.879797 0.887334
Si Si2 0.595711 0.090305 0.887082
Si Si3 0.582959 0.076035 0.391239
Si Si4 0.804606 0.720292 0.391774
Si Si5 0.755874 0.142954 0.193208
O O1 0.937686 0.800169 0.832862
O O2 0.050343 0.902651 0.857081
O O3 0.958158 0.864511 0.000000
O O4 0.507841 0.122557 0.858951
O O5 0.661896 0.136335 0.825658
O O6 0.596759 0.001185 0.844761
O O7 0.616576 0.099781 0.000000
O O8 0.559459 0.059197 0.500000
O O9 0.638055 0.150930 0.379970
O O10 0.819098 0.754731 0.500000
O O11 0.837766 0.774905 0.305445
O O12 0.711678 0.708383 0.374482
#
# Coordination Sequence:
#
# PCOD8304047 Si02
#       5
#    16  16  16  16  16
#     4   9  19  36  58  87 118 142 173 226 285 333
#     4   9  17  32  55  86 114 144 184 223 271 335
#     4   8  17  34  55  78 114 151 179 222 278 330
#     4  10  22  39  52  76 112 146 186 232 278 326
#     4  11  22  34  58  84 109 147 189 232 277 335
#
# _framework density 19.931128999999999
#
# number of rings (size 3 to 8) (size 9 to 14) (size 15 to 20)
#    0.000    2.600    0.000    3.600    2.800    1.600 
#    3.600    2.000    0.000    0.000    0.000    1.400 
#    0.000    0.000    0.000    0.000    0.000    0.000 
#
# Total GULP energy -495526.172029 kJ/mol
# GULP energy per Si atom -12388.154301 kJ/mol
# Density = 1.988577 g / cm^3
# Si number density = 19.931129 Si / 1000 Ang^3
#
#
#
# Elastic Constant Matrix: (Units=GPa)
#
#
# Indices 1 2 3 4 5 6 
#
# 1 75.1833 43.3639 17.5287 0.0000 0.0000 -5.5984
# 2 43.3639 75.1833 17.5287 0.0000 0.0000 5.5984
# 3 17.5287 17.5287 114.1285 0.0000 0.0000 0.0000
# 4 0.0000 0.0000 0.0000 2.6242 0.0000 0.0000
# 5 0.0000 0.0000 0.0000 0.0000 2.6242 0.0000
# 6 -5.5984 5.5984 0.0000 0.0000 0.0000 39.9638
#
#
#
# Elastic Compliance Matrix: (Units=1/GPa)
#
#
# Indices 1 2 3 4 5 6 
#
# 1 0.020947 -0.012110 -0.001357 0.000000 0.000000 0.004631
# 2 -0.012110 0.020947 -0.001357 0.000000 0.000000 -0.004631
# 3 -0.001357 -0.001357 0.009179 0.000000 0.000000 0.000000
# 4 0.000000 0.000000 0.000000 0.381064 0.000000 0.000000
# 5 0.000000 0.000000 0.000000 0.000000 0.381064 0.000000
# 6 0.004631 -0.004631 0.000000 0.000000 0.000000 0.026320
#
#
# Mechanical properties :
#
#
# Convention : Reuss Voigt Hill
#
# Bulk Modulus (GPa) = 46.67725 46.81528 46.74626
# Shear Modulus (GPa) = 5.70574 21.44738 13.57656
#
# Velocity S-wave (km/s) = 1.69380 3.28392 2.61276
# Velocity P-wave (km/s) = 5.22450 6.15779 5.71024
#
# Compressibility (1/GPa) = 0.02142372
#
# Stress axis : x y z
#
# Youngs Moduli (GPa) = 47.73984 47.73984 108.94481
#
# Poissons Ratio (x) = 0.57813 0.14786
# Poissons Ratio (y) = 0.57813 0.14786
# Poissons Ratio (z) = 0.06479 0.06479
#
# Static dielectric constant tensor:
#      x y z
#    x 3.495580 0.000000 0.000000 
#    y 0.000000 3.495580 0.000000 
#    z 0.000000 0.000000 3.776530 
# 
# 
# High freq. dielectric constant tensor:
#      x y z
#    x 1.762930 0.000000 0.000000 
#    y 0.000000 1.762930 0.000000 
#    z 0.000000 0.000000 1.779440 
# 
# From -- ./inp_files/3508.got.cif
#   From: 2010.03.12/outbox.cif.g09.slc.cpg/sg87_2_cif.got.tgz:3508.got - 2010.04.08 20:16:13.
