data_PCOD8304586
_publ_section_title
;
Structure prediction by ZEFSAII (Michael W. Deem and Ramdas Pophale) SiO2 
 PCOD8304586
Probable space group: P 4 21 2
;
_chemical_formula_sum "Si O2"
_cell_formula_units_Z 48
_cell_length_a 8.369647
_cell_length_b 8.369647
_cell_length_c 32.913596
_cell_angle_alpha 90.000000
_cell_angle_beta 90.000000
_cell_angle_gamma 90.000000
_cell_volume 2305.630014
_symmetry_space_group_name_H-M "P 4 21 2"
_symmetry_group_IT_number 90
_symmetry_cell_setting 'tetragonal'
loop_
_space_group_symop_operation_xyz
x,y,z
1/2-y,1/2+x,z
-x,-y,z
1/2+y,1/2-x,z
1/2+x,1/2-y,-z
1/2-x,1/2+y,-z
y,x,-z
-y,-x,-z
loop_
_atom_site_type_symbol
_atom_site_label
_atom_site_fract_x
_atom_site_fract_y
_atom_site_fract_z
Si Si1 0.738910 0.456045 0.030410
Si Si2 0.746528 0.091430 0.608463
Si Si3 0.000000 0.000000 0.761909
Si Si4 0.500000 0.500000 0.100794
Si Si5 0.750985 0.590563 0.536875
Si Si6 0.749574 0.076463 0.699866
Si Si7 0.241623 0.035352 0.171378
O O1 0.819545 0.628089 0.023446
O O2 0.661357 0.480734 0.074616
O O3 0.593722 0.406279 0.000000
O O4 0.591598 0.200616 0.600486
O O5 0.883968 0.152589 0.578469
O O6 0.814310 0.105968 0.654261
O O7 0.115601 0.894301 0.733301
O O8 0.916071 0.875174 0.791851
O O9 0.484559 0.656448 0.128256
O O10 0.797853 0.406370 0.534564
O O11 0.633954 0.633954 0.500000
O O12 0.605159 0.196297 0.706705
O O13 0.322134 0.864428 0.175063
#
# Coordination Sequence:
#
# PCOD8304586 Si02
#       7
#     8   8   4   4   8   8   8
#     4  11  23  39  61  90 125 163 208 263 319 378
#     4   9  19  36  57  81 109 141 180 224 271 327
#     4  11  20  34  59  84 110 146 187 230 282 347
#     4  11  21  38  61  84 114 158 209 252 301 363
#     4  11  24  39  56  81 111 143 183 228 273 326
#     4   9  19  35  55  81 111 143 181 226 276 334
#     4  10  22  38  56  82 116 152 192 242 297 352
#
# _framework density 20.818603
#
# number of rings (size 3 to 8) (size 9 to 14) (size 15 to 20)
#    0.000    1.833    0.000    5.250    0.000    6.333 
#    0.000    1.667    0.000   10.000    0.000    0.000 
#    0.000    0.000    0.000    0.000    0.000    0.000 
#
# Total GULP energy -594811.593228 kJ/mol
# GULP energy per Si atom -12391.908192 kJ/mol
# Density = 2.077122 g / cm^3
# Si number density = 20.818603 Si / 1000 Ang^3
#
#
#
# Elastic Constant Matrix: (Units=GPa)
#
#
# Indices 1 2 3 4 5 6 
#
# 1 64.0155 13.6908 34.7618 0.0000 0.0000 0.0000
# 2 13.6908 64.0147 34.7619 0.0000 0.0000 0.0000
# 3 34.7618 34.7619 133.9458 0.0000 0.0000 0.0000
# 4 0.0000 0.0000 0.0000 23.3313 0.0000 0.0000
# 5 0.0000 0.0000 0.0000 0.0000 23.3313 0.0000
# 6 0.0000 0.0000 0.0000 0.0000 0.0000 37.7830
#
#
#
# Elastic Compliance Matrix: (Units=1/GPa)
#
#
# Indices 1 2 3 4 5 6 
#
# 1 0.018316 -0.001555 -0.004350 0.000000 0.000000 0.000000
# 2 -0.001555 0.018316 -0.004350 0.000000 0.000000 0.000000
# 3 -0.004350 -0.004350 0.009723 0.000000 0.000000 0.000000
# 4 0.000000 0.000000 0.000000 0.042861 0.000000 0.000000
# 5 0.000000 0.000000 0.000000 0.000000 0.042861 0.000000
# 6 0.000000 0.000000 0.000000 0.000000 0.000000 0.026467
#
#
# Mechanical properties :
#
#
# Convention : Reuss Voigt Hill
#
# Bulk Modulus (GPa) = 38.69088 47.60056 43.14572
# Shear Modulus (GPa) = 26.64267 28.80655 27.72461
#
# Velocity S-wave (km/s) = 3.58124 3.72384 3.65324
# Velocity P-wave (km/s) = 5.97708 6.43454 6.21003
#
# Compressibility (1/GPa) = 0.02584589
#
# Stress axis : x y z
#
# Youngs Moduli (GPa) = 54.59755 54.59680 102.84420
#
# Poissons Ratio (x) = 0.08491 0.44735
# Poissons Ratio (y) = 0.08491 0.44736
# Poissons Ratio (z) = 0.23749 0.23749
#
# Static dielectric constant tensor:
#      x y z
#    x 3.769980 0.000000 0.000000 
#    y 0.000000 3.769990 0.000000 
#    z 0.000000 0.000000 3.821710 
# 
# 
# High freq. dielectric constant tensor:
#      x y z
#    x 1.816200 0.000000 0.000000 
#    y 0.000000 1.816200 0.000000 
#    z 0.000000 0.000000 1.823880 
# 
# From -- ./inp_files/3110.got.cif
#   From: 2010.03.12/outbox.cif.g09.slc.cpg/sg90_2_cif.got.tgz:3110.got - 2010.04.08 20:26:03.
