data_PCOD8304423
_publ_section_title
;
Structure prediction by ZEFSAII (Michael W. Deem and Ramdas Pophale) SiO2 
 PCOD8304423
Probable space group: I 41/A
;
_chemical_formula_sum "Si O2"
_cell_formula_units_Z 52
_cell_length_a 15.011735
_cell_length_b 15.011735
_cell_length_c 10.865000
_cell_angle_alpha 90.000000
_cell_angle_beta 90.000000
_cell_angle_gamma 90.000000
_cell_volume 2448.451519
_symmetry_space_group_name_H-M "I 41/A"
_symmetry_group_IT_number 88
_space_group.IT_coordinate_system_code '2'
_symmetry_cell_setting 'tetragonal'
loop_
_space_group_symop_operation_xyz
x,y,z
3/4-y,1/4+x,1/4+z
-x,1/2-y,z
1/4+y,1/4-x,1/4+z
-x,-y,-z
1/4+y,3/4-x,3/4-z
x,1/2+y,-z
3/4-y,3/4+x,3/4-z
1/2+x,1/2+y,1/2+z
1/4-y,3/4+x,3/4+z
1/2-x,-y,1/2+z
3/4+y,3/4-x,3/4+z
1/2-x,1/2-y,1/2-z
3/4+y,1/4-x,1/4-z
1/2+x,y,1/2-z
1/4-y,1/4+x,1/4-z
loop_
_atom_site_type_symbol
_atom_site_label
_atom_site_fract_x
_atom_site_fract_y
_atom_site_fract_z
Si Si1 0.157039 0.755696 0.185487
Si Si2 0.000000 0.750000 0.375000
Si Si3 0.900608 0.898690 0.012988
Si Si4 0.896731 0.598213 0.001625
O O1 0.250000 0.750000 0.250000
O O2 0.083387 0.771030 0.288829
O O3 0.146116 0.662495 0.114147
O O4 0.159797 0.840121 0.093381
O O5 0.892671 0.851964 0.881699
O O6 0.003208 0.905846 0.053396
O O7 0.857214 0.997743 0.007001
#
# Coordination Sequence:
#
# PCOD8304423 Si02
#       4
#    16   4  16  16
#     4  12  28  45  70 104 144 189 235 299 369 424
#     4  12  28  48  62  96 152 184 228 302 376 432
#     4  11  24  44  72 101 136 184 238 285 347 427
#     4  11  24  44  72 101 136 184 238 285 347 427
#
# _framework density 21.237915000000001
#
# number of rings (size 3 to 8) (size 9 to 14) (size 15 to 20)
#    0.000    0.615    6.154    0.000    8.615    2.462 
#    0.000    0.000    0.000    0.000    0.000    0.000 
#    0.000    0.000    0.000    0.000    0.000    0.000 
#
# Total GULP energy -322496.637396 kJ/mol
# GULP energy per Si atom -12403.716823 kJ/mol
# Density = 2.118958 g / cm^3
# Si number density = 21.237915 Si / 1000 Ang^3
#
#
#
# Elastic Constant Matrix: (Units=GPa)
#
#
# Indices 1 2 3 4 5 6 
#
# 1 123.8181 40.4765 38.4501 0.0000 0.0000 0.8725
# 2 40.4765 123.8181 38.4501 0.0000 0.0000 -0.8725
# 3 38.4501 38.4501 113.3435 0.0000 0.0000 0.0000
# 4 0.0000 0.0000 0.0000 37.6556 0.0000 0.0000
# 5 0.0000 0.0000 0.0000 0.0000 37.6556 0.0000
# 6 0.8725 -0.8725 0.0000 0.0000 0.0000 24.8194
#
#
#
# Elastic Compliance Matrix: (Units=1/GPa)
#
#
# Indices 1 2 3 4 5 6 
#
# 1 0.009622 -0.002386 -0.002455 0.000000 0.000000 -0.000422
# 2 -0.002386 0.009622 -0.002455 0.000000 0.000000 0.000422
# 3 -0.002455 -0.002455 0.010488 0.000000 0.000000 0.000000
# 4 0.000000 0.000000 0.000000 0.026556 0.000000 0.000000
# 5 0.000000 0.000000 0.000000 0.000000 0.026556 0.000000
# 6 -0.000422 0.000422 0.000000 0.000000 0.000000 0.040321
#
#
# Mechanical properties :
#
#
# Convention : Reuss Voigt Hill
#
# Bulk Modulus (GPa) = 66.04615 66.19257 66.11936
# Shear Modulus (GPa) = 35.01348 36.26633 35.63991
#
# Velocity S-wave (km/s) = 4.06474 4.13682 4.10094
# Velocity P-wave (km/s) = 7.29350 7.35204 7.32283
#
# Compressibility (1/GPa) = 0.01514093
#
# Stress axis : x y z
#
# Youngs Moduli (GPa) = 103.93312 103.93312 95.34651
#
# Poissons Ratio (x) = 0.24799 0.23403
# Poissons Ratio (y) = 0.24799 0.23403
# Poissons Ratio (z) = 0.25511 0.25511
#
# Static dielectric constant tensor:
#      x y z
#    x 3.889440 0.000000 0.000000 
#    y 0.000000 3.889440 0.000000 
#    z 0.000000 0.000000 3.956160 
# 
# 
# High freq. dielectric constant tensor:
#      x y z
#    x 1.833430 0.000000 0.000000 
#    y 0.000000 1.833430 0.000000 
#    z 0.000000 0.000000 1.843720 
# 
# From -- ./inp_files/1210.got.cif
#   From: 2010.03.12/outbox.cif.g09.slc.cpg/sg88_1_cif.got.tgz:1210.got - 2010.04.08 20:20:55.
