data_PCOD8304681
_publ_section_title
;
Structure prediction by ZEFSAII (Michael W. Deem and Ramdas Pophale) SiO2 
 PCOD8304681
Probable space group: P 4 21 2
;
_chemical_formula_sum "Si O2"
_cell_formula_units_Z 26
_cell_length_a 8.002968
_cell_length_b 8.002968
_cell_length_c 17.087901
_cell_angle_alpha 90.000000
_cell_angle_beta 90.000000
_cell_angle_gamma 90.000000
_cell_volume 1094.437285
_symmetry_space_group_name_H-M "P 4 21 2"
_symmetry_group_IT_number 90
_symmetry_cell_setting 'tetragonal'
loop_
_space_group_symop_operation_xyz
x,y,z
1/2-y,1/2+x,z
-x,-y,z
1/2+y,1/2-x,z
1/2+x,1/2-y,-z
1/2-x,1/2+y,-z
y,x,-z
-y,-x,-z
loop_
_atom_site_type_symbol
_atom_site_label
_atom_site_fract_x
_atom_site_fract_y
_atom_site_fract_z
Si Si1 0.766464 0.075772 0.727605
Si Si2 0.596091 0.739191 0.422624
Si Si3 0.000000 0.000000 0.000000
Si Si4 0.459033 0.268544 0.141313
O O1 0.612695 0.203604 0.731368
O O2 0.866898 0.115143 0.648785
O O3 0.898594 0.087913 0.799222
O O4 0.402769 0.788627 0.419563
O O5 0.633891 0.633891 0.500000
O O6 0.836429 0.018754 0.053472
O O7 0.635573 0.186379 0.157415
#
# Coordination Sequence:
#
# PCOD8304681 Si02
#       4
#     8   8   2   8
#     4  11  24  42  66  98 136 180 231 286 347 416
#     4  11  24  41  63  95 135 181 235 292 349 410
#     4  12  24  44  68  96 130 168 212 272 336 408
#     4  11  24  42  66  96 130 171 219 273 338 411
#
# _framework density 23.756502999999999
#
# number of rings (size 3 to 8) (size 9 to 14) (size 15 to 20)
#    0.000    0.923    0.000    6.462    0.000   11.692 
#    0.000    3.077    0.000    0.000    0.000    0.000 
#    0.000    0.000    0.000    0.000    0.000    0.000 
#
# Total GULP energy -322304.341192 kJ/mol
# GULP energy per Si atom -12396.320815 kJ/mol
# Density = 2.370243 g / cm^3
# Si number density = 23.756503 Si / 1000 Ang^3
#
#
#
# Elastic Constant Matrix: (Units=GPa)
#
#
# Indices 1 2 3 4 5 6 
#
# 1 83.2041 30.3343 31.4902 0.0000 0.0000 0.0000
# 2 30.3343 83.2041 31.4902 0.0000 0.0000 0.0000
# 3 31.4902 31.4902 170.1058 0.0000 0.0000 0.0000
# 4 0.0000 0.0000 0.0000 129.7972 0.0000 0.0000
# 5 0.0000 0.0000 0.0000 0.0000 129.7972 0.0000
# 6 0.0000 0.0000 0.0000 0.0000 0.0000 39.1767
#
#
#
# Elastic Compliance Matrix: (Units=1/GPa)
#
#
# Indices 1 2 3 4 5 6 
#
# 1 0.014365 -0.004549 -0.001817 0.000000 0.000000 0.000000
# 2 -0.004549 0.014365 -0.001817 0.000000 0.000000 0.000000
# 3 -0.001817 -0.001817 0.006551 0.000000 0.000000 0.000000
# 4 0.000000 0.000000 0.000000 0.007704 0.000000 0.000000
# 5 0.000000 0.000000 0.000000 0.000000 0.007704 0.000000
# 6 0.000000 0.000000 0.000000 0.000000 0.000000 0.025525
#
#
# Mechanical properties :
#
#
# Convention : Reuss Voigt Hill
#
# Bulk Modulus (GPa) = 52.87018 58.12703 55.49861
# Shear Modulus (GPa) = 50.56265 75.96749 63.26507
#
# Velocity S-wave (km/s) = 4.61843 5.66100 5.16609
# Velocity P-wave (km/s) = 7.12343 8.20063 7.68093
#
# Compressibility (1/GPa) = 0.01891425
#
# Stress axis : x y z
#
# Youngs Moduli (GPa) = 69.61392 69.61392 152.63799
#
# Poissons Ratio (x) = 0.31670 0.27735
# Poissons Ratio (y) = 0.31670 0.27735
# Poissons Ratio (z) = 0.12649 0.12649
#
# Static dielectric constant tensor:
#      x y z
#    x 4.368170 0.000000 0.000000 
#    y 0.000000 4.368170 0.000000 
#    z 0.000000 0.000000 4.180390 
# 
# 
# High freq. dielectric constant tensor:
#      x y z
#    x 1.967050 0.000000 0.000000 
#    y 0.000000 1.967050 0.000000 
#    z 0.000000 0.000000 1.940310 
# 
# From -- ./inp_files/2600.got.cif
#   From: 2010.03.12/outbox.cif.g09.slc.cpg/sg90_2_cif.got.tgz:2600.got - 2010.04.08 20:26:03.
