data_PCOD8304027
_publ_section_title
;
Structure prediction by ZEFSAII (Michael W. Deem and Ramdas Pophale) SiO2 
 PCOD8304027
Probable space group: I 4/M
;
_chemical_formula_sum "Si O2"
_cell_formula_units_Z 96
_cell_length_a 23.133809
_cell_length_b 23.133809
_cell_length_c 8.996533
_cell_angle_alpha 90.000000
_cell_angle_beta 90.000000
_cell_angle_gamma 90.000000
_cell_volume 4814.702624
_symmetry_space_group_name_H-M "I 4/M"
_symmetry_group_IT_number 87
_symmetry_cell_setting 'tetragonal'
loop_
_space_group_symop_operation_xyz
x,y,z
-y,x,z
-x,-y,z
y,-x,z
-x,-y,-z
y,-x,-z
x,y,-z
-y,x,-z
1/2+x,1/2+y,1/2+z
1/2-y,1/2+x,1/2+z
1/2-x,1/2-y,1/2+z
1/2+y,1/2-x,1/2+z
1/2-x,1/2-y,1/2-z
1/2+y,1/2-x,1/2-z
1/2+x,1/2+y,1/2-z
1/2-y,1/2+x,1/2-z
loop_
_atom_site_type_symbol
_atom_site_label
_atom_site_fract_x
_atom_site_fract_y
_atom_site_fract_z
Si Si1 0.359558 0.806983 0.820668
Si Si2 0.195429 0.185033 0.831614
Si Si3 0.594437 0.508149 0.500000
Si Si4 0.569939 0.564202 0.000000
Si Si5 0.481207 0.767962 0.163288
Si Si6 0.610716 0.775691 0.820785
Si Si7 0.066174 0.848359 0.250568
O O1 0.317791 0.755006 0.762609
O O2 0.426381 0.801476 0.762515
O O3 0.335926 0.865169 0.744748
O O4 0.356628 0.808255 0.000000
O O5 0.148393 0.223958 0.747862
O O6 0.171548 0.120175 0.847127
O O7 0.206514 0.208204 0.000000
O O8 0.551878 0.562664 0.500000
O O9 0.632802 0.513114 0.646386
O O10 0.504104 0.581143 0.000000
O O11 0.599747 0.589470 0.853622
O O12 0.544180 0.772780 0.240729
O O13 0.460644 0.701865 0.148939
O O14 0.489719 0.793905 0.000000
O O15 0.613972 0.772825 0.000000
#
# Coordination Sequence:
#
# PCOD8304027 Si02
#       7
#    16  16   8   8  16  16  16
#     4  10  21  42  62  87 121 152 189 237 286 336
#     4  11  23  37  56  86 118 158 193 237 291 339
#     4  11  24  38  50  72 111 159 199 248 303 335
#     4  11  24  36  54  76 105 157 211 250 293 341
#     4   9  21  39  61  85 112 149 187 232 287 342
#     4  11  23  38  63  90 114 151 191 233 285 349
#     4  11  22  37  56  78 112 150 198 253 288 338
#
# _framework density 19.938925999999999
#
# number of rings (size 3 to 8) (size 9 to 14) (size 15 to 20)
#    0.000    1.500    1.667    3.000    7.000    1.333 
#    1.500    0.000    0.000    0.500    0.000    3.500 
#    0.000    0.000    0.000    0.000    0.000    0.000 
#
# Total GULP energy -594875.996778 kJ/mol
# GULP energy per Si atom -12393.249933 kJ/mol
# Density = 1.989354 g / cm^3
# Si number density = 19.938926 Si / 1000 Ang^3
#
#
#
# Elastic Constant Matrix: (Units=GPa)
#
#
# Indices 1 2 3 4 5 6 
#
# 1 100.2805 47.7196 22.3667 0.0000 0.0000 12.9987
# 2 47.7196 100.2805 22.3667 0.0000 0.0000 -12.9987
# 3 22.3667 22.3667 101.8032 0.0000 0.0000 0.0000
# 4 0.0000 0.0000 0.0000 27.1133 0.0000 0.0000
# 5 0.0000 0.0000 0.0000 0.0000 27.1133 0.0000
# 6 12.9987 -12.9987 0.0000 0.0000 0.0000 8.9273
#
#
#
# Elastic Compliance Matrix: (Units=1/GPa)
#
#
# Indices 1 2 3 4 5 6 
#
# 1 0.037616 -0.030378 -0.001590 0.000000 0.000000 -0.099003
# 2 -0.030378 0.037616 -0.001590 0.000000 0.000000 0.099003
# 3 -0.001590 -0.001590 0.010522 0.000000 0.000000 0.000000
# 4 0.000000 0.000000 0.000000 0.036882 0.000000 0.000000
# 5 0.000000 0.000000 0.000000 0.000000 0.036882 0.000000
# 6 -0.099003 0.099003 0.000000 0.000000 0.000000 0.400325
#
#
# Mechanical properties :
#
#
# Convention : Reuss Voigt Hill
#
# Bulk Modulus (GPa) = 53.65973 54.14114 53.90044
# Shear Modulus (GPa) = 7.89675 26.62487 17.26081
#
# Velocity S-wave (km/s) = 1.99225 3.65817 2.94544
# Velocity P-wave (km/s) = 5.68001 6.71233 6.21763
#
# Compressibility (1/GPa) = 0.01863595
#
# Stress axis : x y z
#
# Youngs Moduli (GPa) = 26.58465 26.58465 95.04280
#
# Poissons Ratio (x) = 0.80760 0.15113
# Poissons Ratio (y) = 0.80760 0.15113
# Poissons Ratio (z) = 0.04227 0.04227
#
# Static dielectric constant tensor:
#      x y z
#    x 3.687980 0.000000 0.000000 
#    y 0.000000 3.687980 0.000000 
#    z 0.000000 0.000000 3.288380 
# 
# 
# High freq. dielectric constant tensor:
#      x y z
#    x 1.768200 0.000000 0.000000 
#    y 0.000000 1.768200 0.000000 
#    z 0.000000 0.000000 1.777850 
# 
# From -- ./inp_files/1481.got.cif
#   From: 2010.03.12/outbox.cif.g09.slc.cpg/sg87_1_cif.got.tgz:1481.got - 2010.04.08 20:16:13.
