data_PCOD8304021
_publ_section_title
;
Structure prediction by ZEFSAII (Michael W. Deem and Ramdas Pophale) SiO2 
 PCOD8304021
Probable space group: I 4/M
;
_chemical_formula_sum "Si O2"
_cell_formula_units_Z 72
_cell_length_a 21.099067
_cell_length_b 21.099067
_cell_length_c 7.970639
_cell_angle_alpha 90.000000
_cell_angle_beta 90.000000
_cell_angle_gamma 90.000000
_cell_volume 3548.294371
_symmetry_space_group_name_H-M "I 4/M"
_symmetry_group_IT_number 87
_symmetry_cell_setting 'tetragonal'
loop_
_space_group_symop_operation_xyz
x,y,z
-y,x,z
-x,-y,z
y,-x,z
-x,-y,-z
y,-x,-z
x,y,-z
-y,x,-z
1/2+x,1/2+y,1/2+z
1/2-y,1/2+x,1/2+z
1/2-x,1/2-y,1/2+z
1/2+y,1/2-x,1/2+z
1/2-x,1/2-y,1/2-z
1/2+y,1/2-x,1/2-z
1/2+x,1/2+y,1/2-z
1/2-y,1/2+x,1/2-z
loop_
_atom_site_type_symbol
_atom_site_label
_atom_site_fract_x
_atom_site_fract_y
_atom_site_fract_z
Si Si1 0.305148 0.890262 0.304307
Si Si2 0.747107 0.821799 0.803661
Si Si3 0.621530 0.658399 0.193233
Si Si4 0.478775 0.091787 0.314987
Si Si5 0.560545 0.585285 0.500000
O O1 0.310273 0.900363 0.500000
O O2 0.342344 0.824734 0.255307
O O3 0.231483 0.888763 0.252452
O O4 0.339256 0.949333 0.217577
O O5 0.750000 0.750000 0.750000
O O6 0.803189 0.859071 0.706929
O O7 0.759925 0.829905 0.000000
O O8 0.582627 0.617566 0.326611
O O9 0.599853 0.645207 0.000000
O O10 0.507665 0.092019 0.500000
O O11 0.537761 0.075722 0.195317
O O12 0.485141 0.587719 0.500000
#
# Coordination Sequence:
#
# PCOD8304021 Si02
#       5
#    16  16  16  16   8
#     4   9  19  35  58  90 123 160 203 253 304 360
#     4   9  16  30  56  88 124 159 196 245 307 363
#     4  10  21  40  66  94 126 158 201 261 315 379
#     4  11  22  37  56  76 115 166 209 249 292 352
#     4  11  26  48  70  92 124 163 209 261 325 395
#
# _framework density 20.291440000000001
#
# number of rings (size 3 to 8) (size 9 to 14) (size 15 to 20)
#    0.000    2.111    1.111    4.667    1.556    2.667 
#    4.000    1.111    0.000    0.000    0.000    0.000 
#    0.000    0.000    0.000    0.000    0.000    0.000 
#
# Total GULP energy -446067.995785 kJ/mol
# GULP energy per Si atom -12390.777661 kJ/mol
# Density = 2.024526 g / cm^3
# Si number density = 20.291440 Si / 1000 Ang^3
#
#
#
# Elastic Constant Matrix: (Units=GPa)
#
#
# Indices 1 2 3 4 5 6 
#
# 1 76.0399 41.6453 42.3055 0.0000 0.0000 0.9144
# 2 41.6453 76.0399 42.3055 0.0000 0.0000 -0.9144
# 3 42.3055 42.3055 96.1317 0.0000 0.0000 0.0000
# 4 0.0000 0.0000 0.0000 25.9601 0.0000 0.0000
# 5 0.0000 0.0000 0.0000 0.0000 25.9601 0.0000
# 6 0.9144 -0.9144 0.0000 0.0000 0.0000 29.9803
#
#
#
# Elastic Compliance Matrix: (Units=1/GPa)
#
#
# Indices 1 2 3 4 5 6 
#
# 1 0.020776 -0.008346 -0.005470 0.000000 0.000000 -0.000888
# 2 -0.008346 0.020776 -0.005470 0.000000 0.000000 0.000888
# 3 -0.005470 -0.005470 0.015217 0.000000 0.000000 0.000000
# 4 0.000000 0.000000 0.000000 0.038521 0.000000 0.000000
# 5 0.000000 0.000000 0.000000 0.000000 0.038521 0.000000
# 6 -0.000888 0.000888 0.000000 0.000000 0.000000 0.033409
#
#
# Mechanical properties :
#
#
# Convention : Reuss Voigt Hill
#
# Bulk Modulus (GPa) = 54.95599 55.63602 55.29601
# Shear Modulus (GPa) = 23.60079 24.51046 24.05562
#
# Velocity S-wave (km/s) = 3.41411 3.47929 3.44685
# Velocity P-wave (km/s) = 6.53327 6.60444 6.56895
#
# Compressibility (1/GPa) = 0.01819638
#
# Stress axis : x y z
#
# Youngs Moduli (GPa) = 48.13276 48.13276 65.71570
#
# Poissons Ratio (x) = 0.40170 0.35948
# Poissons Ratio (y) = 0.40170 0.35948
# Poissons Ratio (z) = 0.26330 0.26330
#
# Static dielectric constant tensor:
#      x y z
#    x 3.812780 0.000000 0.000000 
#    y 0.000000 3.812780 0.000000 
#    z 0.000000 0.000000 3.744260 
# 
# 
# High freq. dielectric constant tensor:
#      x y z
#    x 1.776240 0.000000 0.000000 
#    y 0.000000 1.776240 0.000000 
#    z 0.000000 0.000000 1.800560 
# 
# From -- ./inp_files/1078.got.cif
#   From: 2010.03.12/outbox.cif.g09.slc.cpg/sg87_1_cif.got.tgz:1078.got - 2010.04.08 20:16:13.
