data_PCOD8304961
_publ_section_title
;
Structure prediction by ZEFSAII (Michael W. Deem and Ramdas Pophale) SiO2 
 PCOD8304961
Probable space group: P 41 2 2
;
_chemical_formula_sum "Si O2"
_cell_formula_units_Z 56
_cell_length_a 15.279770
_cell_length_b 15.279770
_cell_length_c 11.973313
_cell_angle_alpha 90.000000
_cell_angle_beta 90.000000
_cell_angle_gamma 90.000000
_cell_volume 2795.425805
_symmetry_space_group_name_H-M "P 41 2 2"
_symmetry_group_IT_number 91
_symmetry_cell_setting 'tetragonal'
loop_
_space_group_symop_operation_xyz
x,y,z
-y,x,1/4+z
-x,-y,1/2+z
y,-x,3/4+z
x,-y,1/2-z
-x,y,-z
y,x,3/4-z
-y,-x,1/4-z
loop_
_atom_site_type_symbol
_atom_site_label
_atom_site_fract_x
_atom_site_fract_y
_atom_site_fract_z
Si Si1 0.769053 0.620482 0.037315
Si Si2 0.264906 0.813550 0.912623
Si Si3 0.463748 0.675885 0.621075
Si Si4 0.906452 0.652474 0.866108
Si Si5 0.826889 0.092521 0.732697
Si Si6 0.910524 0.401089 0.277356
Si Si7 0.315253 0.183260 0.837020
O O1 0.720347 0.714787 0.039939
O O2 0.693725 0.545581 0.045308
O O3 0.832066 0.627894 0.143611
O O4 0.827213 0.598430 0.926030
O O5 0.305691 0.838600 0.793557
O O6 0.313878 0.876896 0.996546
O O7 0.159756 0.834838 0.913489
O O8 0.500000 0.695261 0.500000
O O9 0.422663 0.577338 0.625000
O O10 0.389506 0.744382 0.651362
O O11 0.928399 0.726317 0.956718
O O12 0.996167 0.601426 0.840489
O O13 0.863277 0.136723 0.625000
O O14 0.876171 0.000000 0.750000
O O15 0.891781 0.500000 0.250000
O O16 0.901127 0.341391 0.163868
O O17 0.221968 0.221968 0.875000
#
# Coordination Sequence:
#
# PCOD8304961 Si02
#       7
#     8   8   8   8   8   8   8
#     4  11  18  40  63  86 118 164 217 254 315 390
#     4  10  21  38  61  91 115 163 214 252 324 380
#     4  11  21  39  63  92 119 161 218 267 313 375
#     4  10  23  36  59  90 124 161 202 259 309 391
#     4   9  18  36  63  86 116 161 211 255 307 378
#     4  12  22  38  60  92 124 161 213 256 322 385
#     4  11  20  36  62  85 120 162 203 260 307 382
#
# _framework density 20.032726
#
# number of rings (size 3 to 8) (size 9 to 14) (size 15 to 20)
#    0.000    1.429    4.286    4.286    0.000    1.714 
#    2.571    1.429    6.286    0.000    0.000    0.000 
#    0.000    0.000    0.000    0.000    0.000    0.000 
#
# Total GULP energy -693760.861233 kJ/mol
# GULP energy per Si atom -12388.586808 kJ/mol
# Density = 1.998713 g / cm^3
# Si number density = 20.032726 Si / 1000 Ang^3
#
#
#
# Elastic Constant Matrix: (Units=GPa)
#
#
# Indices 1 2 3 4 5 6 
#
# 1 68.6467 24.7996 19.7792 0.0000 0.0000 0.0000
# 2 24.7996 68.6446 19.7785 0.0000 0.0000 0.0000
# 3 19.7792 19.7785 104.8060 0.0000 0.0000 0.0000
# 4 0.0000 0.0000 0.0000 10.1735 0.0000 0.0000
# 5 0.0000 0.0000 0.0000 0.0000 10.1801 0.0000
# 6 0.0000 0.0000 0.0000 0.0000 0.0000 31.4159
#
#
#
# Elastic Compliance Matrix: (Units=1/GPa)
#
#
# Indices 1 2 3 4 5 6 
#
# 1 0.017219 -0.005588 -0.002195 0.000000 0.000000 0.000000
# 2 -0.005588 0.017219 -0.002195 0.000000 0.000000 0.000000
# 3 -0.002195 -0.002195 0.010370 0.000000 0.000000 0.000000
# 4 0.000000 0.000000 0.000000 0.098294 0.000000 0.000000
# 5 0.000000 0.000000 0.000000 0.000000 0.098231 0.000000
# 6 0.000000 0.000000 0.000000 0.000000 0.000000 0.031831
#
#
# Mechanical properties :
#
#
# Convention : Reuss Voigt Hill
#
# Bulk Modulus (GPa) = 40.23909 41.20132 40.72020
# Shear Modulus (GPa) = 16.58903 22.20322 19.39613
#
# Velocity S-wave (km/s) = 2.88079 3.33280 3.11500
# Velocity P-wave (km/s) = 5.58530 5.95161 5.77136
#
# Compressibility (1/GPa) = 0.02485146
#
# Stress axis : x y z
#
# Youngs Moduli (GPa) = 58.07671 58.07509 96.43310
#
# Poissons Ratio (x) = 0.32454 0.21167
# Poissons Ratio (y) = 0.32455 0.21166
# Poissons Ratio (z) = 0.12748 0.12747
#
# Static dielectric constant tensor:
#      x y z
#    x 3.909030 0.000000 0.000000 
#    y 0.000000 3.909000 0.000000 
#    z 0.000000 0.000000 3.777790 
# 
# 
# High freq. dielectric constant tensor:
#      x y z
#    x 1.767990 0.000000 0.000000 
#    y 0.000000 1.767990 0.000000 
#    z 0.000000 0.000000 1.783260 
# 
# From -- ./inp_files/3914.got.cif
#   From: 2010.03.12/outbox.cif.g09.slc.cpg/sg91_2_cif.got.tgz:3914.got - 2010.04.08 20:27:58.
