data_PCOD8304655
_publ_section_title
;
Structure prediction by ZEFSAII (Michael W. Deem and Ramdas Pophale) SiO2 
 PCOD8304655
Probable space group: P 4 21 2
;
_chemical_formula_sum "Si O2"
_cell_formula_units_Z 40
_cell_length_a 8.284177
_cell_length_b 8.284177
_cell_length_c 25.756014
_cell_angle_alpha 90.000000
_cell_angle_beta 90.000000
_cell_angle_gamma 90.000000
_cell_volume 1767.573132
_symmetry_space_group_name_H-M "P 4 21 2"
_symmetry_group_IT_number 90
_symmetry_cell_setting 'tetragonal'
loop_
_space_group_symop_operation_xyz
x,y,z
1/2-y,1/2+x,z
-x,-y,z
1/2+y,1/2-x,z
1/2+x,1/2-y,-z
1/2-x,1/2+y,-z
y,x,-z
-y,-x,-z
loop_
_atom_site_type_symbol
_atom_site_label
_atom_site_fract_x
_atom_site_fract_y
_atom_site_fract_z
Si Si1 0.608722 0.245074 0.050330
Si Si2 0.602313 0.247461 0.849926
Si Si3 0.748179 0.420567 0.456567
Si Si4 0.250879 0.092368 0.659453
Si Si5 0.250146 0.093492 0.247245
O O1 0.419289 0.210009 0.050854
O O2 0.649318 0.354276 0.099681
O O3 0.651119 0.348882 0.000000
O O4 0.414031 0.207982 0.849611
O O5 0.635678 0.357802 0.800099
O O6 0.801384 0.602664 0.464467
O O7 0.614212 0.385789 0.500000
O O8 0.678984 0.389451 0.398696
O O9 0.407400 0.202763 0.668718
O O10 0.115693 0.151200 0.699431
O O11 0.407314 0.205034 0.244193
#
# Coordination Sequence:
#
# PCOD8304655 Si02
#       5
#     8   8   8   8   8
#     4  11  24  41  62  90 122 155 194 237 280 331
#     4  11  24  41  62  88 116 149 191 235 280 333
#     4   9  19  35  54  78 109 143 181 227 276 328
#     4   9  19  37  58  79 106 143 186 229 275 330
#     4  11  24  39  56  83 116 147 183 229 280 334
#
# _framework density 22.629897
#
# number of rings (size 3 to 8) (size 9 to 14) (size 15 to 20)
#    0.000    1.800    0.000    4.800    0.000   14.400 
#    0.000    6.000    0.000    0.000    0.000    0.000 
#    0.000    0.000    0.000    0.000    0.000    0.000 
#
# Total GULP energy -496164.953122 kJ/mol
# GULP energy per Si atom -12404.123828 kJ/mol
# Density = 2.257839 g / cm^3
# Si number density = 22.629897 Si / 1000 Ang^3
#
#
#
# Elastic Constant Matrix: (Units=GPa)
#
#
# Indices 1 2 3 4 5 6 
#
# 1 27.8650 -10.9038 9.5336 0.0000 0.0000 0.0000
# 2 -10.9038 27.8641 9.5329 0.0000 0.0000 0.0000
# 3 9.5336 9.5329 150.1331 0.0000 0.0000 0.0000
# 4 0.0000 0.0000 0.0000 110.1374 0.0000 0.0000
# 5 0.0000 0.0000 0.0000 0.0000 110.1262 0.0000
# 6 0.0000 0.0000 0.0000 0.0000 0.0000 38.3422
#
#
#
# Elastic Compliance Matrix: (Units=1/GPa)
#
#
# Indices 1 2 3 4 5 6 
#
# 1 0.044642 0.018849 -0.004032 0.000000 0.000000 0.000000
# 2 0.018849 0.044644 -0.004032 0.000000 0.000000 0.000000
# 3 -0.004032 -0.004032 0.007173 0.000000 0.000000 0.000000
# 4 0.000000 0.000000 0.000000 0.009080 0.000000 0.000000
# 5 0.000000 0.000000 0.000000 0.000000 0.009080 0.000000
# 6 0.000000 0.000000 0.000000 0.000000 0.000000 0.026081
#
#
# Mechanical properties :
#
#
# Convention : Reuss Voigt Hill
#
# Bulk Modulus (GPa) = 8.47242 24.68750 16.57996
# Shear Modulus (GPa) = 31.55129 64.90113 48.22621
#
# Velocity S-wave (km/s) = 3.73799 5.36112 4.62137
# Velocity P-wave (km/s) = 4.73098 7.01820 5.98487
#
# Compressibility (1/GPa) = 0.11802999
#
# Stress axis : x y z
#
# Youngs Moduli (GPa) = 22.40025 22.39954 139.41628
#
# Poissons Ratio (x) = -0.42220 0.56208
# Poissons Ratio (y) = -0.42222 0.56207
# Poissons Ratio (z) = 0.09031 0.09031
#
# Static dielectric constant tensor:
#      x y z
#    x 3.989400 0.000000 0.000000 
#    y 0.000000 3.989410 0.000000 
#    z 0.000000 0.000000 4.152470 
# 
# 
# High freq. dielectric constant tensor:
#      x y z
#    x 1.896500 0.000000 0.000000 
#    y 0.000000 1.896500 0.000000 
#    z 0.000000 0.000000 1.903440 
# 
# From -- ./inp_files/2876.got.cif
#   From: 2010.03.12/outbox.cif.g09.slc.cpg/sg90_2_cif.got.tgz:2876.got - 2010.04.08 20:26:03.
