data_PCOD8304462
_publ_section_title
;
Structure prediction by ZEFSAII (Michael W. Deem and Ramdas Pophale) SiO2 
 PCOD8304462
Probable space group: P 4 2 2
;
_chemical_formula_sum "Si O2"
_cell_formula_units_Z 44
_cell_length_a 15.031460
_cell_length_b 15.031460
_cell_length_c 10.934520
_cell_angle_alpha 90.000000
_cell_angle_beta 90.000000
_cell_angle_gamma 90.000000
_cell_volume 2470.597822
_symmetry_space_group_name_H-M "P 4 2 2"
_symmetry_group_IT_number 89
_symmetry_cell_setting 'tetragonal'
loop_
_space_group_symop_operation_xyz
x,y,z
-y,x,z
-x,-y,z
y,-x,z
x,-y,-z
-x,y,-z
y,x,-z
-y,-x,-z
loop_
_atom_site_type_symbol
_atom_site_label
_atom_site_fract_x
_atom_site_fract_y
_atom_site_fract_z
Si Si1 0.688147 0.662521 0.358112
Si Si2 0.918597 0.551326 0.628776
Si Si3 0.518800 0.737206 0.253202
Si Si4 0.172644 0.804846 0.646067
Si Si5 0.982122 0.752895 0.631872
Si Si6 0.500000 0.648939 0.000000
O O1 0.677731 0.677731 0.500000
O O2 0.593544 0.666900 0.291890
O O3 0.727368 0.565544 0.339887
O O4 0.755215 0.735411 0.302087
O O5 0.896986 0.500000 0.500000
O O6 0.836982 0.553426 0.723082
O O7 0.949557 0.652222 0.608104
O O8 0.000000 0.500000 0.693861
O O9 0.495428 0.716505 0.113495
O O10 0.186129 0.813872 0.500000
O O11 0.192555 0.903588 0.701127
O O12 0.077948 0.767016 0.696760
O O13 0.000000 0.796961 0.500000
O O14 0.412133 0.587868 0.000000
#
# Coordination Sequence:
#
# PCOD8304462 Si02
#       6
#     8   8   8   8   8   4
#     4  11  21  34  52  86 117 140 180 242 296 347
#     4  11  20  33  57  86 119 149 187 230 312 371
#     4  12  23  37  59  81 108 153 198 237 283 352
#     4   9  19  30  48  73 115 150 188 219 271 343
#     4  10  17  31  46  74 112 155 184 223 271 352
#     4  11  24  46  59  72 108 160 209 240 294 343
#
# _framework density 17.809455
#
# number of rings (size 3 to 8) (size 9 to 14) (size 15 to 20)
#    0.000    1.364    5.455    2.727    2.545    0.727 
#    0.000    3.182    0.000    0.000    0.000    0.000 
#    0.000    0.000    0.000    0.000    0.364    2.000 
#
# Total GULP energy -545230.762355 kJ/mol
# GULP energy per Si atom -12391.608235 kJ/mol
# Density = 1.776892 g / cm^3
# Si number density = 17.809455 Si / 1000 Ang^3
#
#
#
# Elastic Constant Matrix: (Units=GPa)
#
#
# Indices 1 2 3 4 5 6 
#
# 1 127.9157 45.6048 27.6252 0.0000 0.0000 0.0000
# 2 45.6048 127.9152 27.6252 0.0000 0.0000 0.0000
# 3 27.6252 27.6252 52.7891 0.0000 0.0000 0.0000
# 4 0.0000 0.0000 0.0000 10.4556 0.0000 0.0000
# 5 0.0000 0.0000 0.0000 0.0000 10.4551 0.0000
# 6 0.0000 0.0000 0.0000 0.0000 0.0000 34.4170
#
#
#
# Elastic Compliance Matrix: (Units=1/GPa)
#
#
# Indices 1 2 3 4 5 6 
#
# 1 0.009532 -0.002617 -0.003619 0.000000 0.000000 0.000000
# 2 -0.002617 0.009532 -0.003619 0.000000 0.000000 0.000000
# 3 -0.003619 -0.003619 0.022731 0.000000 0.000000 0.000000
# 4 0.000000 0.000000 0.000000 0.095643 0.000000 0.000000
# 5 0.000000 0.000000 0.000000 0.000000 0.095647 0.000000
# 6 0.000000 0.000000 0.000000 0.000000 0.000000 0.029055
#
#
# Mechanical properties :
#
#
# Convention : Reuss Voigt Hill
#
# Bulk Modulus (GPa) = 45.27746 56.70338 50.99042
# Shear Modulus (GPa) = 17.28837 24.91651 21.10244
#
# Velocity S-wave (km/s) = 3.11905 3.74446 3.44597
# Velocity P-wave (km/s) = 6.20079 7.11356 6.67280
#
# Compressibility (1/GPa) = 0.02208604
#
# Stress axis : x y z
#
# Youngs Moduli (GPa) = 104.90782 104.90737 43.99295
#
# Poissons Ratio (x) = 0.27453 0.15920
# Poissons Ratio (y) = 0.27453 0.15921
# Poissons Ratio (z) = 0.37965 0.37965
#
# Static dielectric constant tensor:
#      x y z
#    x 3.650880 0.000000 0.000000 
#    y 0.000000 3.650890 0.000000 
#    z 0.000000 0.000000 2.637910 
# 
# 
# High freq. dielectric constant tensor:
#      x y z
#    x 1.707420 0.000000 0.000000 
#    y 0.000000 1.707420 0.000000 
#    z 0.000000 0.000000 1.611200 
# 
# From -- ./inp_files/1743.got.cif
#   From: 2010.03.12/outbox.cif.g09.slc.cpg/sg89_1_cif.got.tgz:1743.got - 2010.04.08 20:24:03.
