data_PCOD8304859
_publ_section_title
;
Structure prediction by ZEFSAII (Michael W. Deem and Ramdas Pophale) SiO2 
 PCOD8304859
Probable space group: P 41 2 2
;
_chemical_formula_sum "Si O2"
_cell_formula_units_Z 48
_cell_length_a 9.299613
_cell_length_b 9.299613
_cell_length_c 29.723773
_cell_angle_alpha 90.000000
_cell_angle_beta 90.000000
_cell_angle_gamma 90.000000
_cell_volume 2570.595174
_symmetry_space_group_name_H-M "P 41 2 2"
_symmetry_group_IT_number 91
_symmetry_cell_setting 'tetragonal'
loop_
_space_group_symop_operation_xyz
x,y,z
-y,x,1/4+z
-x,-y,1/2+z
y,-x,3/4+z
x,-y,1/2-z
-x,y,-z
y,x,3/4-z
-y,-x,1/4-z
loop_
_atom_site_type_symbol
_atom_site_label
_atom_site_fract_x
_atom_site_fract_y
_atom_site_fract_z
Si Si1 0.077370 0.407946 0.452786
Si Si2 0.137761 0.282906 0.072948
Si Si3 0.659559 0.707499 0.490362
Si Si4 0.163043 0.794813 0.919667
Si Si5 0.375049 0.661863 0.259967
Si Si6 0.857204 0.876914 0.427419
O O1 0.090380 0.550146 0.421922
O O2 0.236320 0.348620 0.466085
O O3 0.000000 0.447939 0.500000
O O4 0.988394 0.290160 0.424488
O O5 0.200554 0.217620 0.118730
O O6 0.003380 0.192606 0.054352
O O7 0.260267 0.266813 0.036685
O O8 0.500000 0.759520 0.500000
O O9 0.667453 0.541578 0.475232
O O10 0.720439 0.805935 0.450858
O O11 0.286204 0.718598 0.948238
O O12 0.137647 0.954429 0.938260
O O13 0.325678 0.500000 0.250000
O O14 0.843101 0.843101 0.375000
#
# Coordination Sequence:
#
# PCOD8304859 Si02
#       6
#     8   8   8   8   8   8
#     4   9  18  36  58  75 103 146 181 214 267 326
#     4  10  20  36  56  78 106 143 180 217 268 327
#     4  10  21  36  57  82 107 139 181 224 269 320
#     4  10  21  35  55  81 107 142 182 221 269 325
#     4   9  19  37  56  77 106 142 180 220 269 322
#     4  10  21  36  54  79 109 140 176 220 269 318
#
# _framework density 18.672718
#
# number of rings (size 3 to 8) (size 9 to 14) (size 15 to 20)
#    0.000    2.333    0.000    3.500    0.000    8.667 
#    0.000   11.667    0.000    0.000    0.000    0.000 
#    0.000    0.000    0.000    0.000    0.000    0.000 
#
# Total GULP energy -595232.885813 kJ/mol
# GULP energy per Si atom -12400.685121 kJ/mol
# Density = 1.863022 g / cm^3
# Si number density = 18.672718 Si / 1000 Ang^3
#
#
#
# Elastic Constant Matrix: (Units=GPa)
#
#
# Indices 1 2 3 4 5 6 
#
# 1 143.6126 72.5424 56.7684 0.0000 0.0000 0.0000
# 2 72.5424 143.6126 56.7684 0.0000 0.0000 0.0000
# 3 56.7684 56.7684 69.6489 0.0000 0.0000 0.0000
# 4 0.0000 0.0000 0.0000 30.5691 0.0000 0.0000
# 5 0.0000 0.0000 0.0000 0.0000 30.5691 0.0000
# 6 0.0000 0.0000 0.0000 0.0000 0.0000 22.1252
#
#
#
# Elastic Compliance Matrix: (Units=1/GPa)
#
#
# Indices 1 2 3 4 5 6 
#
# 1 0.011080 -0.002990 -0.006594 0.000000 0.000000 0.000000
# 2 -0.002990 0.011080 -0.006594 0.000000 0.000000 0.000000
# 3 -0.006594 -0.006594 0.025106 0.000000 0.000000 0.000000
# 4 0.000000 0.000000 0.000000 0.032713 0.000000 0.000000
# 5 0.000000 0.000000 0.000000 0.000000 0.032713 0.000000
# 6 0.000000 0.000000 0.000000 0.000000 0.000000 0.045197
#
#
# Mechanical properties :
#
#
# Convention : Reuss Voigt Hill
#
# Bulk Modulus (GPa) = 67.06422 81.00360 74.03391
# Shear Modulus (GPa) = 25.61280 28.03900 26.82590
#
# Velocity S-wave (km/s) = 3.70762 3.87926 3.79441
# Velocity P-wave (km/s) = 7.37036 7.97118 7.67665
#
# Compressibility (1/GPa) = 0.01491108
#
# Stress axis : x y z
#
# Youngs Moduli (GPa) = 90.25183 90.25183 39.83095
#
# Poissons Ratio (x) = 0.26990 0.26263
# Poissons Ratio (y) = 0.26990 0.26263
# Poissons Ratio (z) = 0.59508 0.59508
#
# Static dielectric constant tensor:
#      x y z
#    x 3.659870 0.000000 0.000000 
#    y 0.000000 3.659870 0.000000 
#    z 0.000000 0.000000 3.209280 
# 
# 
# High freq. dielectric constant tensor:
#      x y z
#    x 1.732740 0.000000 0.000000 
#    y 0.000000 1.732740 0.000000 
#    z 0.000000 0.000000 1.711580 
# 
# From -- ./inp_files/7930.got.cif
#   From: 2010.03.12/outbox.cif.g09.slc.cpg/sg91_4_cif.got.tgz:7930.got - 2010.04.08 20:27:58.
