data_PCOD8304704
_publ_section_title
;
Structure prediction by ZEFSAII (Michael W. Deem and Ramdas Pophale) SiO2 
 PCOD8304704
Probable space group: P 41 2 2
;
_chemical_formula_sum "Si O2"
_cell_formula_units_Z 40
_cell_length_a 8.343466
_cell_length_b 8.343466
_cell_length_c 30.227711
_cell_angle_alpha 90.000000
_cell_angle_beta 90.000000
_cell_angle_gamma 90.000000
_cell_volume 2104.254489
_symmetry_space_group_name_H-M "P 41 2 2"
_symmetry_group_IT_number 91
_symmetry_cell_setting 'tetragonal'
loop_
_space_group_symop_operation_xyz
x,y,z
-y,x,1/4+z
-x,-y,1/2+z
y,-x,3/4+z
x,-y,1/2-z
-x,y,-z
y,x,3/4-z
-y,-x,1/4-z
loop_
_atom_site_type_symbol
_atom_site_label
_atom_site_fract_x
_atom_site_fract_y
_atom_site_fract_z
Si Si1 0.316110 0.294640 0.502636
Si Si2 0.001732 0.175261 0.202618
Si Si3 0.510847 0.109917 0.185645
Si Si4 0.898631 0.221092 0.578406
Si Si5 0.231836 0.768165 0.625000
Si Si6 0.000000 0.248447 0.000000
O O1 0.500000 0.346609 0.500000
O O2 0.217493 0.438267 0.525037
O O3 0.247052 0.266828 0.453726
O O4 0.304467 0.132164 0.531735
O O5 0.922963 0.231455 0.156844
O O6 0.864975 0.154649 0.240587
O O7 0.083639 0.001586 0.195560
O O8 0.600275 0.226006 0.151097
O O9 0.373628 0.010538 0.161293
O O10 0.639213 0.983570 0.206540
O O11 0.832850 0.167151 0.625000
#
# Coordination Sequence:
#
# PCOD8304704 Si02
#       6
#     8   8   8   8   4   4
#     4  11  23  41  60  86 127 165 198 247 304 374
#     4  10  19  37  63  90 115 154 211 253 291 347
#     4  10  21  41  61  86 124 162 196 248 314 360
#     4  11  21  39  62  89 117 163 206 249 299 358
#     4  10  22  36  62  96 118 154 204 264 290 358
#     4  10  16  36  66  80 112 160 202 246 294 352
#
# _framework density 19.009108999999999
#
# number of rings (size 3 to 8) (size 9 to 14) (size 15 to 20)
#    0.000    1.600    5.000    1.200    2.800    0.000 
#    1.800    6.000    0.000    0.000    0.000    0.000 
#    0.000    0.000    0.000    0.000    0.000    0.000 
#
# Total GULP energy -495884.866435 kJ/mol
# GULP energy per Si atom -12397.121661 kJ/mol
# Density = 1.896584 g / cm^3
# Si number density = 19.009109 Si / 1000 Ang^3
#
#
#
# Elastic Constant Matrix: (Units=GPa)
#
#
# Indices 1 2 3 4 5 6 
#
# 1 94.9657 33.9214 43.8958 0.0000 0.0000 0.0000
# 2 33.9214 94.9665 43.8966 0.0000 0.0000 0.0000
# 3 43.8958 43.8966 97.9671 0.0000 0.0000 0.0000
# 4 0.0000 0.0000 0.0000 31.1527 0.0000 0.0000
# 5 0.0000 0.0000 0.0000 0.0000 31.1525 0.0000
# 6 0.0000 0.0000 0.0000 0.0000 0.0000 13.9652
#
#
#
# Elastic Compliance Matrix: (Units=1/GPa)
#
#
# Indices 1 2 3 4 5 6 
#
# 1 0.013774 -0.002607 -0.005003 0.000000 0.000000 0.000000
# 2 -0.002607 0.013774 -0.005004 0.000000 0.000000 0.000000
# 3 -0.005003 -0.005004 0.014691 0.000000 0.000000 0.000000
# 4 0.000000 0.000000 0.000000 0.032100 0.000000 0.000000
# 5 0.000000 0.000000 0.000000 0.000000 0.032100 0.000000
# 6 0.000000 0.000000 0.000000 0.000000 0.000000 0.071606
#
#
# Mechanical properties :
#
#
# Convention : Reuss Voigt Hill
#
# Bulk Modulus (GPa) = 58.78560 59.03632 58.91096
# Shear Modulus (GPa) = 23.92970 26.33313 25.13142
#
# Velocity S-wave (km/s) = 3.55188 3.72599 3.63998
# Velocity P-wave (km/s) = 6.91471 7.04520 6.98026
#
# Compressibility (1/GPa) = 0.01701097
#
# Stress axis : x y z
#
# Youngs Moduli (GPa) = 72.59965 72.59962 68.06704
#
# Poissons Ratio (x) = 0.18929 0.34057
# Poissons Ratio (y) = 0.18929 0.34058
# Poissons Ratio (z) = 0.36325 0.36326
#
# Static dielectric constant tensor:
#      x y z
#    x 3.444380 0.000000 0.000000 
#    y 0.000000 3.444380 0.000000 
#    z 0.000000 0.000000 3.526820 
# 
# 
# High freq. dielectric constant tensor:
#      x y z
#    x 1.730230 0.000000 0.000000 
#    y 0.000000 1.730230 0.000000 
#    z 0.000000 0.000000 1.742410 
# 
# From -- ./inp_files/7789.got.cif
#   From: 2010.03.12/outbox.cif.g09.slc.cpg/sg91_4_cif.got.tgz:7789.got - 2010.04.08 20:27:58.
