data_PCOD8304766
_publ_section_title
;
Structure prediction by ZEFSAII (Michael W. Deem and Ramdas Pophale) SiO2 
 PCOD8304766
Probable space group: P 41 2 2
;
_chemical_formula_sum "Si O2"
_cell_formula_units_Z 36
_cell_length_a 8.679805
_cell_length_b 8.679805
_cell_length_c 19.922577
_cell_angle_alpha 90.000000
_cell_angle_beta 90.000000
_cell_angle_gamma 90.000000
_cell_volume 1500.947324
_symmetry_space_group_name_H-M "P 41 2 2"
_symmetry_group_IT_number 91
_symmetry_cell_setting 'tetragonal'
loop_
_space_group_symop_operation_xyz
x,y,z
-y,x,1/4+z
-x,-y,1/2+z
y,-x,3/4+z
x,-y,1/2-z
-x,y,-z
y,x,3/4-z
-y,-x,1/4-z
loop_
_atom_site_type_symbol
_atom_site_label
_atom_site_fract_x
_atom_site_fract_y
_atom_site_fract_z
Si Si1 0.108404 0.064816 0.178837
Si Si2 0.767246 0.400750 0.814423
Si Si3 0.424599 0.709752 0.689246
Si Si4 0.500000 0.801308 0.500000
Si Si5 0.991727 0.443765 0.385973
O O1 0.133310 0.245353 0.188317
O O2 0.266162 0.985899 0.154175
O O3 0.054063 0.000000 0.250000
O O4 0.974289 0.025712 0.125000
O O5 0.811263 0.500000 0.750000
O O6 0.585540 0.381276 0.819572
O O7 0.834881 0.489969 0.880045
O O8 0.320555 0.679446 0.625000
O O9 0.316227 0.648367 0.749229
O O10 0.468342 0.891681 0.693939
O O11 0.529643 0.902552 0.565578
#
# Coordination Sequence:
#
# PCOD8304766 Si02
#       5
#     8   8   8   4   8
#     4  11  26  47  67 100 144 184 232 286 353 424
#     4  11  21  40  67  96 130 179 226 273 347 403
#     4   9  20  36  61  93 125 168 216 280 332 389
#     4  10  18  38  66  94 132 160 226 280 330 394
#     4  10  22  40  64  98 129 176 221 273 337 404
#
# _framework density 23.984852
#
# number of rings (size 3 to 8) (size 9 to 14) (size 15 to 20)
#    0.000    1.778    2.222    1.333    0.000    5.333 
#   12.000    0.000    0.000    0.000    0.000    0.000 
#    0.000    0.000    0.000    0.000    0.000    0.000 
#
# Total GULP energy -446111.109416 kJ/mol
# GULP energy per Si atom -12391.975262 kJ/mol
# Density = 2.393026 g / cm^3
# Si number density = 23.984852 Si / 1000 Ang^3
#
#
#
# Elastic Constant Matrix: (Units=GPa)
#
#
# Indices 1 2 3 4 5 6 
#
# 1 59.9380 0.3364 6.6790 0.0000 0.0000 0.0000
# 2 0.3364 59.9361 6.6782 0.0000 0.0000 0.0000
# 3 6.6790 6.6782 57.5281 0.0000 0.0000 0.0000
# 4 0.0000 0.0000 0.0000 10.4161 0.0000 0.0000
# 5 0.0000 0.0000 0.0000 0.0000 10.4165 0.0000
# 6 0.0000 0.0000 0.0000 0.0000 0.0000 35.2380
#
#
#
# Elastic Compliance Matrix: (Units=1/GPa)
#
#
# Indices 1 2 3 4 5 6 
#
# 1 0.016904 0.000125 -0.001977 0.000000 0.000000 0.000000
# 2 0.000125 0.016904 -0.001977 0.000000 0.000000 0.000000
# 3 -0.001977 -0.001977 0.017842 0.000000 0.000000 0.000000
# 4 0.000000 0.000000 0.000000 0.096005 0.000000 0.000000
# 5 0.000000 0.000000 0.000000 0.000000 0.096001 0.000000
# 6 0.000000 0.000000 0.000000 0.000000 0.000000 0.028378
#
#
# Mechanical properties :
#
#
# Convention : Reuss Voigt Hill
#
# Bulk Modulus (GPa) = 22.73122 22.75435 22.74279
# Shear Modulus (GPa) = 16.98627 22.12803 19.55715
#
# Velocity S-wave (km/s) = 2.66411 3.04070 2.85861
# Velocity P-wave (km/s) = 4.35444 4.67283 4.51645
#
# Compressibility (1/GPa) = 0.04399236
#
# Stress axis : x y z
#
# Youngs Moduli (GPa) = 59.15932 59.15761 56.04804
#
# Poissons Ratio (x) = -0.00742 0.11081
# Poissons Ratio (y) = -0.00742 0.11080
# Poissons Ratio (z) = 0.11696 0.11695
#
# Static dielectric constant tensor:
#      x y z
#    x 4.515770 0.000000 0.000000 
#    y 0.000000 4.515770 0.000000 
#    z 0.000000 0.000000 4.428220 
# 
# 
# High freq. dielectric constant tensor:
#      x y z
#    x 1.954740 0.000000 0.000000 
#    y 0.000000 1.954740 0.000000 
#    z 0.000000 0.000000 1.939670 
# 
# From -- ./inp_files/21381.got.cif
#   From: 2010.03.12/outbox.cif.g09.slc.cpg/sg91_11_cif.got.tgz:21381.got - 2010.04.08 20:27:58.
