data_PCOD8304251
_publ_section_title
;
Structure prediction by ZEFSAII (Michael W. Deem and Ramdas Pophale) SiO2 
 PCOD8304251
Probable space group: I 41/A
;
_chemical_formula_sum "Si O2"
_cell_formula_units_Z 72
_cell_length_a 14.549854
_cell_length_b 14.549854
_cell_length_c 18.096014
_cell_angle_alpha 90.000000
_cell_angle_beta 90.000000
_cell_angle_gamma 90.000000
_cell_volume 3830.894521
_symmetry_space_group_name_H-M "I 41/A"
_symmetry_group_IT_number 88
_space_group.IT_coordinate_system_code '2'
_symmetry_cell_setting 'tetragonal'
loop_
_space_group_symop_operation_xyz
x,y,z
3/4-y,1/4+x,1/4+z
-x,1/2-y,z
1/4+y,1/4-x,1/4+z
-x,-y,-z
1/4+y,3/4-x,3/4-z
x,1/2+y,-z
3/4-y,3/4+x,3/4-z
1/2+x,1/2+y,1/2+z
1/4-y,3/4+x,3/4+z
1/2-x,-y,1/2+z
3/4+y,3/4-x,3/4+z
1/2-x,1/2-y,1/2-z
3/4+y,1/4-x,1/4-z
1/2+x,y,1/2-z
1/4-y,1/4+x,1/4-z
loop_
_atom_site_type_symbol
_atom_site_label
_atom_site_fract_x
_atom_site_fract_y
_atom_site_fract_z
Si Si1 0.141442 0.481120 0.162773
Si Si2 0.518063 0.945214 0.075327
Si Si3 0.651630 0.030724 0.827863
Si Si4 0.474791 0.441467 0.428424
Si Si5 0.000000 0.250000 0.625000
Si Si6 0.000000 0.250000 0.125000
O O1 0.194190 0.539208 0.101600
O O2 0.144921 0.532662 0.240056
O O3 0.194074 0.383606 0.164205
O O4 0.033966 0.479359 0.140681
O O5 0.624517 0.953141 0.101227
O O6 0.450380 0.982761 0.138705
O O7 0.497376 0.836070 0.068320
O O8 0.500000 0.000000 0.000000
O O9 0.500000 0.500000 0.500000
O O10 0.505081 0.334569 0.432970
#
# Coordination Sequence:
#
# PCOD8304251 Si02
#       6
#    16  16  16  16   4   4
#     4  11  22  39  63  91 121 158 202 247 302 363
#     4  10  20  39  61  84 122 156 197 245 302 351
#     4  11  22  39  63  91 121 158 202 247 302 363
#     4  10  20  39  61  84 122 156 197 245 302 351
#     4   8  20  36  60  86 116 156 196 250 300 348
#     4   8  20  36  60  86 116 156 196 250 300 348
#
# _framework density 18.794567000000001
#
# number of rings (size 3 to 8) (size 9 to 14) (size 15 to 20)
#    0.000    1.778    4.444    0.000    0.000    1.778 
#    8.000    0.000    0.000    0.000    0.000    0.000 
#    0.000    0.000    0.000    0.000    0.000    0.000 
#
# Total GULP energy -446098.292903 kJ/mol
# GULP energy per Si atom -12391.619247 kJ/mol
# Density = 1.875179 g / cm^3
# Si number density = 18.794567 Si / 1000 Ang^3
#
#
#
# Elastic Constant Matrix: (Units=GPa)
#
#
# Indices 1 2 3 4 5 6 
#
# 1 94.2995 34.7023 30.0006 0.0000 0.0000 -1.6946
# 2 34.7023 94.2995 30.0006 0.0000 0.0000 1.6946
# 3 30.0006 30.0006 88.3942 0.0000 0.0000 0.0000
# 4 0.0000 0.0000 0.0000 33.0772 0.0000 0.0000
# 5 0.0000 0.0000 0.0000 0.0000 33.0772 0.0000
# 6 -1.6946 1.6946 0.0000 0.0000 0.0000 26.9995
#
#
#
# Elastic Compliance Matrix: (Units=1/GPa)
#
#
# Indices 1 2 3 4 5 6 
#
# 1 0.013022 -0.003817 -0.003124 0.000000 0.000000 0.001057
# 2 -0.003817 0.013022 -0.003124 0.000000 0.000000 -0.001057
# 3 -0.003124 -0.003124 0.013434 0.000000 0.000000 0.000000
# 4 0.000000 0.000000 0.000000 0.030232 0.000000 0.000000
# 5 0.000000 0.000000 0.000000 0.000000 0.030232 0.000000
# 6 0.001057 -0.001057 0.000000 0.000000 0.000000 0.037170
#
#
# Mechanical properties :
#
#
# Convention : Reuss Voigt Hill
#
# Bulk Modulus (GPa) = 51.68767 51.82224 51.75496
# Shear Modulus (GPa) = 30.54498 30.78340 30.66419
#
# Velocity S-wave (km/s) = 4.03575 4.05147 4.04362
# Velocity P-wave (km/s) = 7.01979 7.03696 7.02838
#
# Compressibility (1/GPa) = 0.01934697
#
# Stress axis : x y z
#
# Youngs Moduli (GPa) = 76.79209 76.79209 74.44030
#
# Poissons Ratio (x) = 0.29313 0.23256
# Poissons Ratio (y) = 0.29313 0.23256
# Poissons Ratio (z) = 0.23991 0.23991
#
# Static dielectric constant tensor:
#      x y z
#    x 3.666320 0.000000 0.000000 
#    y 0.000000 3.666320 0.000000 
#    z 0.000000 0.000000 3.255680 
# 
# 
# High freq. dielectric constant tensor:
#      x y z
#    x 1.740610 0.000000 0.000000 
#    y 0.000000 1.740610 0.000000 
#    z 0.000000 0.000000 1.709650 
# 
# From -- ./inp_files/3837.got.cif
#   From: 2010.03.12/outbox.cif.g09.slc.cpg/sg88_2_cif.got.tgz:3837.got - 2010.04.08 20:20:55.
