data_PCOD8304043
_publ_section_title
;
Structure prediction by ZEFSAII (Michael W. Deem and Ramdas Pophale) SiO2 
 PCOD8304043
Probable space group: I 4/M
;
_chemical_formula_sum "Si O2"
_cell_formula_units_Z 88
_cell_length_a 13.729634
_cell_length_b 13.729634
_cell_length_c 24.264828
_cell_angle_alpha 90.000000
_cell_angle_beta 90.000000
_cell_angle_gamma 90.000000
_cell_volume 4573.989227
_symmetry_space_group_name_H-M "I 4/M"
_symmetry_group_IT_number 87
_symmetry_cell_setting 'tetragonal'
loop_
_space_group_symop_operation_xyz
x,y,z
-y,x,z
-x,-y,z
y,-x,z
-x,-y,-z
y,-x,-z
x,y,-z
-y,x,-z
1/2+x,1/2+y,1/2+z
1/2-y,1/2+x,1/2+z
1/2-x,1/2-y,1/2+z
1/2+y,1/2-x,1/2+z
1/2-x,1/2-y,1/2-z
1/2+y,1/2-x,1/2-z
1/2+x,1/2+y,1/2-z
1/2-y,1/2+x,1/2-z
loop_
_atom_site_type_symbol
_atom_site_label
_atom_site_fract_x
_atom_site_fract_y
_atom_site_fract_z
Si Si1 0.594854 0.064846 0.597948
Si Si2 0.088381 0.867901 0.500000
Si Si3 0.205853 0.385700 0.919371
Si Si4 0.369470 0.260007 0.500000
Si Si5 0.604903 0.780948 0.793932
Si Si6 0.572328 0.214686 0.500000
Si Si7 0.381688 0.764675 0.205588
O O1 0.652476 0.109538 0.650852
O O2 0.568975 0.150261 0.555425
O O3 0.500000 0.000000 0.615980
O O4 0.667528 0.993178 0.565220
O O5 0.125166 0.814298 0.444570
O O6 0.972855 0.866550 0.500000
O O7 0.138151 0.304705 0.945530
O O8 0.194446 0.369973 0.855172
O O9 0.482116 0.291654 0.500000
O O10 0.286026 0.338127 0.500000
O O11 0.665524 0.680382 0.794296
O O12 0.495137 0.746110 0.780657
O O13 0.650327 0.845457 0.745532
#
# Coordination Sequence:
#
# PCOD8304043 Si02
#       7
#    16   8  16   8  16   8  16
#     4  11  22  39  63  91 119 155 208 262 314 375
#     4  10  23  36  55  91 134 167 197 241 311 393
#     4  10  22  37  59  87 119 160 203 252 313 370
#     4  11  23  37  57  83 122 160 207 256 306 369
#     4  10  24  40  63  91 121 161 208 263 312 377
#     4  12  23  38  60  88 122 164 203 261 312 380
#     4  10  23  41  61  91 123 163 210 256 315 376
#
# _framework density 19.239222000000002
#
# number of rings (size 3 to 8) (size 9 to 14) (size 15 to 20)
#    0.000    1.545    1.818    2.455   15.273    0.545 
#    0.000    0.000    0.000    0.000    0.000    5.091 
#    0.000    0.000    0.000    0.000    0.000    0.000 
#
# Total GULP energy -545194.327252 kJ/mol
# GULP energy per Si atom -12390.780165 kJ/mol
# Density = 1.919543 g / cm^3
# Si number density = 19.239222 Si / 1000 Ang^3
#
#
#
# Elastic Constant Matrix: (Units=GPa)
#
#
# Indices 1 2 3 4 5 6 
#
# 1 115.4777 49.1531 64.3964 0.0000 0.0000 0.9956
# 2 49.1531 115.4777 64.3964 0.0000 0.0000 -0.9956
# 3 64.3964 64.3964 106.1799 0.0000 0.0000 0.0000
# 4 0.0000 0.0000 0.0000 16.9728 0.0000 0.0000
# 5 0.0000 0.0000 0.0000 0.0000 16.9728 0.0000
# 6 0.9956 -0.9956 0.0000 0.0000 0.0000 26.2474
#
#
#
# Elastic Compliance Matrix: (Units=1/GPa)
#
#
# Indices 1 2 3 4 5 6 
#
# 1 0.013326 -0.001768 -0.007010 0.000000 0.000000 -0.000573
# 2 -0.001768 0.013326 -0.007010 0.000000 0.000000 0.000573
# 3 -0.007010 -0.007010 0.017921 0.000000 0.000000 0.000000
# 4 0.000000 0.000000 0.000000 0.058918 0.000000 0.000000
# 5 0.000000 0.000000 0.000000 0.000000 0.058918 0.000000
# 6 -0.000573 0.000573 0.000000 0.000000 0.000000 0.038142
#
#
# Mechanical properties :
#
#
# Convention : Reuss Voigt Hill
#
# Bulk Modulus (GPa) = 76.93723 77.00301 76.97012
# Shear Modulus (GPa) = 21.14531 22.65124 21.89827
#
# Velocity S-wave (km/s) = 3.31882 3.43497 3.37740
# Velocity P-wave (km/s) = 7.40018 7.47281 7.43659
#
# Compressibility (1/GPa) = 0.01299761
#
# Stress axis : x y z
#
# Youngs Moduli (GPa) = 75.03962 75.03962 55.80171
#
# Poissons Ratio (x) = 0.13269 0.39116
# Poissons Ratio (y) = 0.13269 0.39116
# Poissons Ratio (z) = 0.52601 0.52601
#
# Static dielectric constant tensor:
#      x y z
#    x 3.654280 0.000000 0.000000 
#    y 0.000000 3.654280 0.000000 
#    z 0.000000 0.000000 3.450630 
# 
# 
# High freq. dielectric constant tensor:
#      x y z
#    x 1.752230 0.000000 0.000000 
#    y 0.000000 1.752230 0.000000 
#    z 0.000000 0.000000 1.751080 
# 
# From -- ./inp_files/5225.got.cif
#   From: 2010.03.12/outbox.cif.g09.slc.cpg/sg87_3_cif.got.tgz:5225.got - 2010.04.08 20:16:13.
