data_PCOD8304085
_publ_section_title
;
Structure prediction by ZEFSAII (Michael W. Deem and Ramdas Pophale) SiO2 
 PCOD8304085
Probable space group: I 4/M
;
_chemical_formula_sum "Si O2"
_cell_formula_units_Z 88
_cell_length_a 11.695739
_cell_length_b 11.695739
_cell_length_c 28.515558
_cell_angle_alpha 90.000000
_cell_angle_beta 90.000000
_cell_angle_gamma 90.000000
_cell_volume 3900.652040
_symmetry_space_group_name_H-M "I 4/M"
_symmetry_group_IT_number 87
_symmetry_cell_setting 'tetragonal'
loop_
_space_group_symop_operation_xyz
x,y,z
-y,x,z
-x,-y,z
y,-x,z
-x,-y,-z
y,-x,-z
x,y,-z
-y,x,-z
1/2+x,1/2+y,1/2+z
1/2-y,1/2+x,1/2+z
1/2-x,1/2-y,1/2+z
1/2+y,1/2-x,1/2+z
1/2-x,1/2-y,1/2-z
1/2+y,1/2-x,1/2-z
1/2+x,1/2+y,1/2-z
1/2-y,1/2+x,1/2-z
loop_
_atom_site_type_symbol
_atom_site_label
_atom_site_fract_x
_atom_site_fract_y
_atom_site_fract_z
Si Si1 0.831317 0.086107 0.500000
Si Si2 0.365006 0.914573 0.946489
Si Si3 0.830305 0.409899 0.084428
Si Si4 0.901003 0.161416 0.747628
Si Si5 0.734873 0.760351 0.826260
Si Si6 0.665569 0.411827 0.609718
O O1 0.765668 0.126643 0.546783
O O2 0.950190 0.152829 0.500000
O O3 0.451495 0.840689 0.914138
O O4 0.233000 0.876836 0.937785
O O5 0.365880 0.047427 0.933093
O O6 0.401099 0.894800 0.000000
O O7 0.798572 0.359378 0.135266
O O8 0.853369 0.255119 0.784346
O O9 0.863341 0.202252 0.695340
O O10 0.036351 0.155442 0.754309
O O11 0.862450 0.755671 0.848597
O O12 0.652758 0.546460 0.613352
#
# Coordination Sequence:
#
# PCOD8304085 Si02
#       6
#     8  16  16  16  16  16
#     4  11  26  43  64  98 137 188 241 290 337 404
#     4  11  23  43  68 100 146 195 239 291 345 413
#     4  11  23  43  68 100 140 191 235 285 355 419
#     4  10  24  47  73 102 139 179 232 297 368 441
#     4  11  24  42  71 104 138 183 230 292 365 431
#     4  11  24  42  68 104 141 189 239 293 357 421
#
# _framework density 22.560331000000001
#
# number of rings (size 3 to 8) (size 9 to 14) (size 15 to 20)
#    0.000    1.182    3.636    1.636    5.091    2.182 
#    0.000    2.727    0.000    4.909    0.000    0.000 
#    0.000    0.000    0.000    0.000    0.000    0.000 
#
# Total GULP energy -545214.490183 kJ/mol
# GULP energy per Si atom -12391.238413 kJ/mol
# Density = 2.250898 g / cm^3
# Si number density = 22.560331 Si / 1000 Ang^3
#
#
#
# Elastic Constant Matrix: (Units=GPa)
#
#
# Indices 1 2 3 4 5 6 
#
# 1 101.7066 16.1241 57.6443 0.0000 0.0000 6.8709
# 2 16.1241 101.7066 57.6443 0.0000 0.0000 -6.8709
# 3 57.6443 57.6443 152.6239 0.0000 0.0000 0.0000
# 4 0.0000 0.0000 0.0000 36.9932 0.0000 0.0000
# 5 0.0000 0.0000 0.0000 0.0000 36.9932 0.0000
# 6 6.8709 -6.8709 0.0000 0.0000 0.0000 9.0718
#
#
#
# Elastic Compliance Matrix: (Units=1/GPa)
#
#
# Indices 1 2 3 4 5 6 
#
# 1 0.013382 0.000079 -0.005084 0.000000 0.000000 -0.010075
# 2 0.000079 0.013382 -0.005084 0.000000 0.000000 0.010075
# 3 -0.005084 -0.005084 0.010393 0.000000 0.000000 0.000000
# 4 0.000000 0.000000 0.000000 0.027032 0.000000 0.000000
# 5 0.000000 0.000000 0.000000 0.000000 0.027032 0.000000
# 6 -0.010075 0.010075 0.000000 0.000000 0.000000 0.125494
#
#
# Mechanical properties :
#
#
# Convention : Reuss Voigt Hill
#
# Bulk Modulus (GPa) = 58.89859 68.76252 63.83055
# Shear Modulus (GPa) = 20.61424 31.58661 26.10042
#
# Velocity S-wave (km/s) = 3.02609 3.74584 3.40504
# Velocity P-wave (km/s) = 6.19463 7.01812 6.61919
#
# Compressibility (1/GPa) = 0.01697834
#
# Stress axis : x y z
#
# Youngs Moduli (GPa) = 74.72844 74.72843 96.22316
#
# Poissons Ratio (x) = -0.00594 0.48921
# Poissons Ratio (y) = -0.00594 0.48921
# Poissons Ratio (z) = 0.37993 0.37993
#
# Static dielectric constant tensor:
#      x y z
#    x 4.270300 0.000000 0.000000 
#    y 0.000000 4.270300 0.000000 
#    z 0.000000 0.000000 4.170520 
# 
# 
# High freq. dielectric constant tensor:
#      x y z
#    x 1.895990 0.000000 0.000000 
#    y 0.000000 1.895990 0.000000 
#    z 0.000000 0.000000 1.883810 
# 
# From -- ./inp_files/6595.got.cif
#   From: 2010.03.12/outbox.cif.g09.slc.cpg/sg87_4_cif.got.tgz:6595.got - 2010.04.08 20:16:13.
