data_PCOD8304758
_publ_section_title
;
Structure prediction by ZEFSAII (Michael W. Deem and Ramdas Pophale) SiO2 
 PCOD8304758
Probable space group: P 41 2 2
;
_chemical_formula_sum "Si O2"
_cell_formula_units_Z 36
_cell_length_a 11.864848
_cell_length_b 11.864848
_cell_length_c 13.780582
_cell_angle_alpha 90.000000
_cell_angle_beta 90.000000
_cell_angle_gamma 90.000000
_cell_volume 1939.956168
_symmetry_space_group_name_H-M "P 41 2 2"
_symmetry_group_IT_number 91
_symmetry_cell_setting 'tetragonal'
loop_
_space_group_symop_operation_xyz
x,y,z
-y,x,1/4+z
-x,-y,1/2+z
y,-x,3/4+z
x,-y,1/2-z
-x,y,-z
y,x,3/4-z
-y,-x,1/4-z
loop_
_atom_site_type_symbol
_atom_site_label
_atom_site_fract_x
_atom_site_fract_y
_atom_site_fract_z
Si Si1 0.021663 0.500000 0.250000
Si Si2 0.103456 0.565796 0.931978
Si Si3 0.079927 0.701853 0.364248
Si Si4 0.672498 0.829310 0.315037
Si Si5 0.195723 0.868416 0.233908
O O1 0.103318 0.584242 0.308524
O O2 0.944194 0.422703 0.322011
O O3 0.192044 0.462469 0.932182
O O4 0.160215 0.678698 0.975510
O O5 0.000000 0.526235 0.000000
O O6 0.166284 0.712835 0.453873
O O7 0.101642 0.808198 0.296956
O O8 0.948506 0.704711 0.388487
O O9 0.729630 0.729630 0.375000
O O10 0.176859 0.823142 0.125000
O O11 0.174998 0.000000 0.250000
#
# Coordination Sequence:
#
# PCOD8304758 Si02
#       5
#     4   8   8   8   8
#     4  10  18  36  64  80 116 156 214 246 280 360
#     4  10  19  38  58  85 113 157 207 249 292 365
#     4  10  21  37  58  86 114 159 191 243 299 360
#     4  10  21  36  59  85 117 151 201 244 294 359
#     4  11  25  38  58  89 126 158 197 248 313 377
#
# _framework density 18.557120000000001
#
# number of rings (size 3 to 8) (size 9 to 14) (size 15 to 20)
#    0.000    1.778    4.444    2.667    9.333    0.889 
#    0.000    0.000    0.000    0.000    5.778    0.000 
#    0.000    0.000    0.000    0.000    0.000    0.000 
#
# Total GULP energy -446172.263678 kJ/mol
# GULP energy per Si atom -12393.673991 kJ/mol
# Density = 1.851488 g / cm^3
# Si number density = 18.557120 Si / 1000 Ang^3
#
#
#
# Elastic Constant Matrix: (Units=GPa)
#
#
# Indices 1 2 3 4 5 6 
#
# 1 88.2857 46.1699 46.2492 0.0000 0.0000 0.0000
# 2 46.1699 88.2865 46.2495 0.0000 0.0000 0.0000
# 3 46.2492 46.2495 142.4329 0.0000 0.0000 0.0000
# 4 0.0000 0.0000 0.0000 34.5489 0.0000 0.0000
# 5 0.0000 0.0000 0.0000 0.0000 34.5486 0.0000
# 6 0.0000 0.0000 0.0000 0.0000 0.0000 4.1801
#
#
#
# Elastic Compliance Matrix: (Units=1/GPa)
#
#
# Indices 1 2 3 4 5 6 
#
# 1 0.016660 -0.007084 -0.003110 0.000000 0.000000 0.000000
# 2 -0.007084 0.016660 -0.003110 0.000000 0.000000 0.000000
# 3 -0.003110 -0.003110 0.009040 0.000000 0.000000 0.000000
# 4 0.000000 0.000000 0.000000 0.028945 0.000000 0.000000
# 5 0.000000 0.000000 0.000000 0.000000 0.028945 0.000000
# 6 0.000000 0.000000 0.000000 0.000000 0.000000 0.239227
#
#
# Mechanical properties :
#
#
# Convention : Reuss Voigt Hill
#
# Bulk Modulus (GPa) = 63.47162 66.26024 64.86593
# Shear Modulus (GPa) = 13.46495 26.67796 20.07145
#
# Velocity S-wave (km/s) = 2.69661 3.79570 3.29234
# Velocity P-wave (km/s) = 6.63123 7.41575 7.03444
#
# Compressibility (1/GPa) = 0.01575507
#
# Stress axis : x y z
#
# Youngs Moduli (GPa) = 60.02294 60.02339 110.61578
#
# Poissons Ratio (x) = 0.42518 0.34397
# Poissons Ratio (y) = 0.42518 0.34397
# Poissons Ratio (z) = 0.18665 0.18665
#
# Static dielectric constant tensor:
#      x y z
#    x 3.257280 0.000000 0.000000 
#    y 0.000000 3.257280 0.000000 
#    z 0.000000 0.000000 4.715020 
# 
# 
# High freq. dielectric constant tensor:
#      x y z
#    x 1.694250 0.000000 0.000000 
#    y 0.000000 1.694250 0.000000 
#    z 0.000000 0.000000 1.752730 
# 
# From -- ./inp_files/16320.got.cif
#   From: 2010.03.12/outbox.cif.g09.slc.cpg/sg91_9_cif.got.tgz:16320.got - 2010.04.08 20:27:58.
