data_PCOD8304929
_publ_section_title
;
Structure prediction by ZEFSAII (Michael W. Deem and Ramdas Pophale) SiO2 
 PCOD8304929
Probable space group: P 41 2 2
;
_chemical_formula_sum "Si O2"
_cell_formula_units_Z 44
_cell_length_a 12.218095
_cell_length_b 12.218095
_cell_length_c 15.942074
_cell_angle_alpha 90.000000
_cell_angle_beta 90.000000
_cell_angle_gamma 90.000000
_cell_volume 2379.862227
_symmetry_space_group_name_H-M "P 41 2 2"
_symmetry_group_IT_number 91
_symmetry_cell_setting 'tetragonal'
loop_
_space_group_symop_operation_xyz
x,y,z
-y,x,1/4+z
-x,-y,1/2+z
y,-x,3/4+z
x,-y,1/2-z
-x,y,-z
y,x,3/4-z
-y,-x,1/4-z
loop_
_atom_site_type_symbol
_atom_site_label
_atom_site_fract_x
_atom_site_fract_y
_atom_site_fract_z
Si Si1 0.964628 0.885667 0.790051
Si Si2 0.860158 0.317855 0.148087
Si Si3 0.838463 0.275316 0.328877
Si Si4 0.469651 0.070120 0.164788
Si Si5 0.112246 0.284755 0.172617
Si Si6 0.500000 0.925675 0.000000
O O1 0.899985 0.899985 0.875000
O O2 0.879616 0.824562 0.728786
O O3 0.068409 0.811484 0.807257
O O4 0.003696 0.000000 0.750000
O O5 0.785824 0.214177 0.125000
O O6 0.826629 0.347252 0.244084
O O7 0.845126 0.426625 0.090267
O O8 0.988889 0.289610 0.136376
O O9 0.864005 0.355467 0.407532
O O10 0.729938 0.203929 0.350212
O O11 0.473145 0.000000 0.250000
O O12 0.472479 0.994721 0.082508
O O13 0.144701 0.392436 0.226844
#
# Coordination Sequence:
#
# PCOD8304929 Si02
#       6
#     8   8   8   8   8   4
#     4  11  21  31  48  78 121 153 191 228 288 363
#     4  10  23  38  57  88 122 153 207 263 304 367
#     4  11  22  36  58  86 121 162 202 251 301 374
#     4  11  22  40  61  83 125 170 213 248 316 371
#     4  10  22  34  57  80 121 159 192 249 307 364
#     4  10  20  44  50  84 122 166 202 258 288 386
#
# _framework density 18.488465999999999
#
# number of rings (size 3 to 8) (size 9 to 14) (size 15 to 20)
#    0.000    1.455    7.273    0.000   12.727    0.000 
#    0.000    0.000    0.000    0.000    4.727    0.000 
#    0.000    0.000    0.000    0.000    0.000    0.000 
#
# Total GULP energy -545102.185657 kJ/mol
# GULP energy per Si atom -12388.686038 kJ/mol
# Density = 1.844639 g / cm^3
# Si number density = 18.488466 Si / 1000 Ang^3
#
#
#
# Elastic Constant Matrix: (Units=GPa)
#
#
# Indices 1 2 3 4 5 6 
#
# 1 103.0757 38.4232 34.1050 0.0000 0.0000 0.0000
# 2 38.4232 103.0768 34.1044 0.0000 0.0000 0.0000
# 3 34.1050 34.1044 82.5495 0.0000 0.0000 0.0000
# 4 0.0000 0.0000 0.0000 24.6796 0.0000 0.0000
# 5 0.0000 0.0000 0.0000 0.0000 24.6793 0.0000
# 6 0.0000 0.0000 0.0000 0.0000 0.0000 17.1898
#
#
#
# Elastic Compliance Matrix: (Units=1/GPa)
#
#
# Indices 1 2 3 4 5 6 
#
# 1 0.012146 -0.003321 -0.003646 0.000000 0.000000 0.000000
# 2 -0.003321 0.012146 -0.003646 0.000000 0.000000 0.000000
# 3 -0.003646 -0.003646 0.015126 0.000000 0.000000 0.000000
# 4 0.000000 0.000000 0.000000 0.040519 0.000000 0.000000
# 5 0.000000 0.000000 0.000000 0.000000 0.040520 0.000000
# 6 0.000000 0.000000 0.000000 0.000000 0.000000 0.058174
#
#
# Mechanical properties :
#
#
# Convention : Reuss Voigt Hill
#
# Bulk Modulus (GPa) = 54.96807 55.77413 55.37110
# Shear Modulus (GPa) = 24.28111 25.44770 24.86440
#
# Velocity S-wave (km/s) = 3.62790 3.71402 3.67121
# Velocity P-wave (km/s) = 6.88073 6.97312 6.92708
#
# Compressibility (1/GPa) = 0.01819238
#
# Stress axis : x y z
#
# Youngs Moduli (GPa) = 82.33166 82.33305 66.10940
#
# Poissons Ratio (x) = 0.27345 0.24103
# Poissons Ratio (y) = 0.27345 0.24102
# Poissons Ratio (z) = 0.30017 0.30016
#
# Static dielectric constant tensor:
#      x y z
#    x 3.925640 0.000000 0.000000 
#    y 0.000000 3.925610 0.000000 
#    z 0.000000 0.000000 1.791550 
# 
# 
# High freq. dielectric constant tensor:
#      x y z
#    x 1.694410 0.000000 0.000000 
#    y 0.000000 1.694410 0.000000 
#    z 0.000000 0.000000 1.727890 
# 
# From -- ./inp_files/5488.got.cif
#   From: 2010.03.12/outbox.cif.g09.slc.cpg/sg91_3_cif.got.tgz:5488.got - 2010.04.08 20:27:58.
