data_PCOD8304588
_publ_section_title
;
Structure prediction by ZEFSAII (Michael W. Deem and Ramdas Pophale) SiO2 
 PCOD8304588
Probable space group: P 4 21 2
;
_chemical_formula_sum "Si O2"
_cell_formula_units_Z 40
_cell_length_a 8.074349
_cell_length_b 8.074349
_cell_length_c 28.363743
_cell_angle_alpha 90.000000
_cell_angle_beta 90.000000
_cell_angle_gamma 90.000000
_cell_volume 1849.177395
_symmetry_space_group_name_H-M "P 4 21 2"
_symmetry_group_IT_number 90
_symmetry_cell_setting 'tetragonal'
loop_
_space_group_symop_operation_xyz
x,y,z
1/2-y,1/2+x,z
-x,-y,z
1/2+y,1/2-x,z
1/2+x,1/2-y,-z
1/2-x,1/2+y,-z
y,x,-z
-y,-x,-z
loop_
_atom_site_type_symbol
_atom_site_label
_atom_site_fract_x
_atom_site_fract_y
_atom_site_fract_z
Si Si1 0.429276 0.262491 0.040406
Si Si2 0.421663 0.735877 0.700807
Si Si3 0.500000 0.500000 0.377640
Si Si4 0.410549 0.261712 0.545697
Si Si5 0.421327 0.259947 0.144472
Si Si6 0.000000 0.000000 0.220190
O O1 0.613760 0.198983 0.034337
O O2 0.401082 0.341530 0.092463
O O3 0.397835 0.397835 0.000000
O O4 0.612596 0.795710 0.699809
O O5 0.388624 0.620253 0.655295
O O6 0.393170 0.625332 0.747463
O O7 0.383746 0.381237 0.409888
O O8 0.602839 0.207863 0.547203
O O9 0.370726 0.370726 0.500000
O O10 0.609893 0.203200 0.150270
O O11 0.384830 0.388204 0.186248
#
# Coordination Sequence:
#
# PCOD8304588 Si02
#       6
#     8   8   4   8   8   4
#     4   9  19  34  51  74 105 140 178 221 270 329
#     4  10  22  39  58  83 115 149 190 246 305 359
#     4  11  21  36  61  86 115 158 205 241 294 356
#     4  11  23  40  64  95 133 173 213 259 308 364
#     4   9  19  35  53  77 110 143 177 222 279 342
#     4  11  20  34  60  84 104 140 188 233 286 354
#
# _framework density 21.631242
#
# number of rings (size 3 to 8) (size 9 to 14) (size 15 to 20)
#    0.000    2.000    0.000    5.100    0.000    5.200 
#    0.000    0.000    0.000   24.600    0.000    0.000 
#    0.000    0.000    0.000    0.000    0.000    0.000 
#
# Total GULP energy -495866.837975 kJ/mol
# GULP energy per Si atom -12396.670949 kJ/mol
# Density = 2.158201 g / cm^3
# Si number density = 21.631242 Si / 1000 Ang^3
#
#
#
# Elastic Constant Matrix: (Units=GPa)
#
#
# Indices 1 2 3 4 5 6 
#
# 1 66.1805 37.6119 49.6576 0.0000 0.0000 0.0000
# 2 37.6119 66.1805 49.6576 0.0000 0.0000 0.0000
# 3 49.6576 49.6576 187.4359 0.0000 0.0000 0.0000
# 4 0.0000 0.0000 0.0000 27.6334 0.0000 0.0000
# 5 0.0000 0.0000 0.0000 0.0000 27.6334 0.0000
# 6 0.0000 0.0000 0.0000 0.0000 0.0000 30.1627
#
#
#
# Elastic Compliance Matrix: (Units=1/GPa)
#
#
# Indices 1 2 3 4 5 6 
#
# 1 0.023955 -0.011049 -0.003419 0.000000 0.000000 0.000000
# 2 -0.011049 0.023955 -0.003419 0.000000 0.000000 0.000000
# 3 -0.003419 -0.003419 0.007147 0.000000 0.000000 0.000000
# 4 0.000000 0.000000 0.000000 0.036188 0.000000 0.000000
# 5 0.000000 0.000000 0.000000 0.000000 0.036188 0.000000
# 6 0.000000 0.000000 0.000000 0.000000 0.000000 0.033154
#
#
# Mechanical properties :
#
#
# Convention : Reuss Voigt Hill
#
# Bulk Modulus (GPa) = 51.86041 65.96122 58.91081
# Shear Modulus (GPa) = 24.65625 29.27722 26.96673
#
# Velocity S-wave (km/s) = 3.37982 3.68294 3.53463
# Velocity P-wave (km/s) = 6.26560 6.97461 6.62959
#
# Compressibility (1/GPa) = 0.01928253
#
# Stress axis : x y z
#
# Youngs Moduli (GPa) = 41.74500 41.74500 139.92034
#
# Poissons Ratio (x) = 0.46122 0.47843
# Poissons Ratio (y) = 0.46122 0.47843
# Poissons Ratio (z) = 0.14274 0.14274
#
# Static dielectric constant tensor:
#      x y z
#    x 3.750830 0.000000 0.000000 
#    y 0.000000 3.750830 0.000000 
#    z 0.000000 0.000000 4.203490 
# 
# 
# High freq. dielectric constant tensor:
#      x y z
#    x 1.835030 0.000000 0.000000 
#    y 0.000000 1.835030 0.000000 
#    z 0.000000 0.000000 1.872170 
# 
# From -- ./inp_files/2976.got.cif
#   From: 2010.03.12/outbox.cif.g09.slc.cpg/sg90_2_cif.got.tgz:2976.got - 2010.04.08 20:26:03.
