data_PCOD8304190
_publ_section_title
;
Structure prediction by ZEFSAII (Michael W. Deem and Ramdas Pophale) SiO2 
 PCOD8304190
Probable space group: I 41/A
;
_chemical_formula_sum "Si O2"
_cell_formula_units_Z 72
_cell_length_a 13.419475
_cell_length_b 13.419475
_cell_length_c 18.007367
_cell_angle_alpha 90.000000
_cell_angle_beta 90.000000
_cell_angle_gamma 90.000000
_cell_volume 3242.808233
_symmetry_space_group_name_H-M "I 41/A"
_symmetry_group_IT_number 88
_space_group.IT_coordinate_system_code '2'
_symmetry_cell_setting 'tetragonal'
loop_
_space_group_symop_operation_xyz
x,y,z
3/4-y,1/4+x,1/4+z
-x,1/2-y,z
1/4+y,1/4-x,1/4+z
-x,-y,-z
1/4+y,3/4-x,3/4-z
x,1/2+y,-z
3/4-y,3/4+x,3/4-z
1/2+x,1/2+y,1/2+z
1/4-y,3/4+x,3/4+z
1/2-x,-y,1/2+z
3/4+y,3/4-x,3/4+z
1/2-x,1/2-y,1/2-z
3/4+y,1/4-x,1/4-z
1/2+x,y,1/2-z
1/4-y,1/4+x,1/4-z
loop_
_atom_site_type_symbol
_atom_site_label
_atom_site_fract_x
_atom_site_fract_y
_atom_site_fract_z
Si Si1 0.382478 0.577836 0.814004
Si Si2 0.380837 0.424290 0.061634
Si Si3 0.000000 0.250000 0.868437
Si Si4 0.258690 0.998343 0.561574
Si Si5 0.002694 0.408803 0.627316
O O1 0.436741 0.682502 0.824913
O O2 0.310907 0.566032 0.884778
O O3 0.323610 0.580016 0.736379
O O4 0.458538 0.482844 0.809725
O O5 0.438292 0.319295 0.061336
O O6 0.321901 0.423853 0.140130
O O7 0.455036 0.520946 0.061182
O O8 0.307146 0.433019 0.992849
O O9 0.912878 0.341545 0.593064
#
# Coordination Sequence:
#
# PCOD8304190 Si02
#       5
#    16  16   8  16  16
#     4  10  22  41  58  89 120 163 197 250 293 362
#     4  10  22  41  58  89 120 163 197 250 293 362
#     4  10  24  38  60  92 116 156 220 242 290 358
#     4  10  20  42  62  82 126 160 194 246 312 346
#     4  10  18  35  56  89 130 154 178 235 296 377
#
# _framework density 22.202977000000001
#
# number of rings (size 3 to 8) (size 9 to 14) (size 15 to 20)
#    0.000    2.000    4.444    0.000    0.000    8.000 
#    8.000    0.000    0.000    5.333    0.000    0.000 
#    0.000    0.000    0.000    0.000    0.000    0.000 
#
# Total GULP energy -446225.722011 kJ/mol
# GULP energy per Si atom -12395.158945 kJ/mol
# Density = 2.215244 g / cm^3
# Si number density = 22.202977 Si / 1000 Ang^3
#
#
#
# Elastic Constant Matrix: (Units=GPa)
#
#
# Indices 1 2 3 4 5 6 
#
# 1 119.3345 45.0125 27.6147 0.0000 0.0000 0.0930
# 2 45.0125 119.3345 27.6147 0.0000 0.0000 -0.0930
# 3 27.6147 27.6147 108.1280 0.0000 0.0000 0.0000
# 4 0.0000 0.0000 0.0000 0.5041 0.0000 0.0000
# 5 0.0000 0.0000 0.0000 0.0000 0.5041 0.0000
# 6 0.0930 -0.0930 0.0000 0.0000 0.0000 44.4112
#
#
#
# Elastic Compliance Matrix: (Units=1/GPa)
#
#
# Indices 1 2 3 4 5 6 
#
# 1 0.010055 -0.003400 -0.001700 0.000000 0.000000 -0.000028
# 2 -0.003400 0.010055 -0.001700 0.000000 0.000000 0.000028
# 3 -0.001700 -0.001700 0.010117 0.000000 0.000000 0.000000
# 4 0.000000 0.000000 0.000000 1.983884 0.000000 0.000000
# 5 0.000000 0.000000 0.000000 0.000000 1.983875 0.000000
# 6 -0.000028 0.000028 0.000000 0.000000 0.000000 0.022517
#
#
# Mechanical properties :
#
#
# Convention : Reuss Voigt Hill
#
# Bulk Modulus (GPa) = 60.13590 60.80896 60.47243
# Shear Modulus (GPa) = 1.23773 25.52088 13.37930
#
# Velocity S-wave (km/s) = 0.74744 3.39401 2.45744
# Velocity P-wave (km/s) = 5.28094 6.54265 5.94536
#
# Compressibility (1/GPa) = 0.01662900
#
# Stress axis : x y z
#
# Youngs Moduli (GPa) = 99.44823 99.44823 98.84801
#
# Poissons Ratio (x) = 0.33808 0.16803
# Poissons Ratio (y) = 0.33808 0.16803
# Poissons Ratio (z) = 0.16905 0.16905
#
# Static dielectric constant tensor:
#      x y z
#    x 4.159780 0.000000 0.000000 
#    y 0.000000 4.159780 0.000000 
#    z 0.000000 0.000000 3.749180 
# 
# 
# High freq. dielectric constant tensor:
#      x y z
#    x 1.874620 0.000000 0.000000 
#    y 0.000000 1.874620 0.000000 
#    z 0.000000 0.000000 1.858330 
# 
# From -- ./inp_files/3784.got.cif
#   From: 2010.03.12/outbox.cif.g09.slc.cpg/sg88_2_cif.got.tgz:3784.got - 2010.04.08 20:20:55.
