data_PCOD8304506
_publ_section_title
;
Structure prediction by ZEFSAII (Michael W. Deem and Ramdas Pophale) SiO2 
 PCOD8304506
Probable space group: P 4 2 2
;
_chemical_formula_sum "Si O2"
_cell_formula_units_Z 38
_cell_length_a 8.525760
_cell_length_b 8.525760
_cell_length_c 24.773134
_cell_angle_alpha 90.000000
_cell_angle_beta 90.000000
_cell_angle_gamma 90.000000
_cell_volume 1800.724021
_symmetry_space_group_name_H-M "P 4 2 2"
_symmetry_group_IT_number 89
_symmetry_cell_setting 'tetragonal'
loop_
_space_group_symop_operation_xyz
x,y,z
-y,x,z
-x,-y,z
y,-x,z
x,-y,-z
-x,y,-z
y,x,-z
-y,-x,-z
loop_
_atom_site_type_symbol
_atom_site_label
_atom_site_fract_x
_atom_site_fract_y
_atom_site_fract_z
Si Si1 0.333023 0.306704 0.105503
Si Si2 0.223929 0.872725 0.673681
Si Si3 0.500000 0.000000 0.500000
Si Si4 0.744425 0.589017 0.577535
Si Si5 0.654371 0.290611 0.775222
Si Si6 0.821809 0.821809 0.000000
O O1 0.515839 0.282559 0.100416
O O2 0.290011 0.238179 0.164691
O O3 0.252407 0.227622 0.055703
O O4 0.364844 0.805163 0.636886
O O5 0.268335 0.834798 0.735197
O O6 0.057740 0.788943 0.662155
O O7 0.384822 0.888718 0.536024
O O8 0.592806 0.697846 0.568344
O O9 0.714771 0.467463 0.766062
O O10 0.000000 0.778822 0.000000
#
# Coordination Sequence:
#
# PCOD8304506 Si02
#       6
#     8   8   2   8   8   4
#     4   9  19  37  60  84 110 145 195 251 302 359
#     4  11  24  40  59  89 129 168 207 257 314 367
#     4  12  24  42  68  98 128 158 204 262 314 366
#     4  11  24  43  68  96 127 167 213 257 308 378
#     4   9  19  37  61  88 116 150 197 251 307 369
#     4  11  24  37  50  76 116 155 192 239 298 364
#
# _framework density 21.102623000000001
#
# number of rings (size 3 to 8) (size 9 to 14) (size 15 to 20)
#    0.000    1.789    0.000    5.053    0.000    9.263 
#    0.000    6.316    0.000    1.263    0.000    0.000 
#    0.000    0.000    0.000    0.000    0.000    0.000 
#
# Total GULP energy -470868.848396 kJ/mol
# GULP energy per Si atom -12391.285484 kJ/mol
# Density = 2.105459 g / cm^3
# Si number density = 21.102623 Si / 1000 Ang^3
#
#
#
# Elastic Constant Matrix: (Units=GPa)
#
#
# Indices 1 2 3 4 5 6 
#
# 1 85.0448 57.2795 71.5697 0.0000 0.0000 0.0000
# 2 57.2795 85.0448 71.5697 0.0000 0.0000 0.0000
# 3 71.5697 71.5697 172.9640 0.0000 0.0000 0.0000
# 4 0.0000 0.0000 0.0000 31.3714 0.0000 0.0000
# 5 0.0000 0.0000 0.0000 0.0000 31.3714 0.0000
# 6 0.0000 0.0000 0.0000 0.0000 0.0000 32.1265
#
#
#
# Elastic Compliance Matrix: (Units=1/GPa)
#
#
# Indices 1 2 3 4 5 6 
#
# 1 0.024025 -0.011991 -0.004980 0.000000 0.000000 0.000000
# 2 -0.011991 0.024025 -0.004980 0.000000 0.000000 0.000000
# 3 -0.004980 -0.004980 0.009903 0.000000 0.000000 0.000000
# 4 0.000000 0.000000 0.000000 0.031876 0.000000 0.000000
# 5 0.000000 0.000000 0.000000 0.000000 0.031876 0.000000
# 6 0.000000 0.000000 0.000000 0.000000 0.000000 0.031127
#
#
# Mechanical properties :
#
#
# Convention : Reuss Voigt Hill
#
# Bulk Modulus (GPa) = 71.16051 82.65459 76.90755
# Shear Modulus (GPa) = 24.82416 28.48286 26.65351
#
# Velocity S-wave (km/s) = 3.43352 3.67785 3.55779
# Velocity P-wave (km/s) = 7.03656 7.56891 7.30758
#
# Compressibility (1/GPa) = 0.01405274
#
# Stress axis : x y z
#
# Youngs Moduli (GPa) = 41.62293 41.62293 100.98444
#
# Poissons Ratio (x) = 0.49910 0.50286
# Poissons Ratio (y) = 0.49910 0.50286
# Poissons Ratio (z) = 0.20727 0.20727
#
# Static dielectric constant tensor:
#      x y z
#    x 3.796590 0.000000 0.000000 
#    y 0.000000 3.796590 0.000000 
#    z 0.000000 0.000000 1.167770 
# 
# 
# High freq. dielectric constant tensor:
#      x y z
#    x 1.820700 0.000000 0.000000 
#    y 0.000000 1.820700 0.000000 
#    z 0.000000 0.000000 1.846720 
# 
# From -- ./inp_files/2741.got.cif
#   From: 2010.03.12/outbox.cif.g09.slc.cpg/sg89_2_cif.got.tgz:2741.got - 2010.04.08 20:24:03.
