data_PCOD8304214
_publ_section_title
;
Structure prediction by ZEFSAII (Michael W. Deem and Ramdas Pophale) SiO2 
 PCOD8304214
Probable space group: I 41/A
;
_chemical_formula_sum "Si O2"
_cell_formula_units_Z 128
_cell_length_a 23.498074
_cell_length_b 23.498074
_cell_length_c 11.404947
_cell_angle_alpha 90.000000
_cell_angle_beta 90.000000
_cell_angle_gamma 90.000000
_cell_volume 6297.349624
_symmetry_space_group_name_H-M "I 41/A"
_symmetry_group_IT_number 88
_space_group.IT_coordinate_system_code '2'
_symmetry_cell_setting 'tetragonal'
loop_
_space_group_symop_operation_xyz
x,y,z
3/4-y,1/4+x,1/4+z
-x,1/2-y,z
1/4+y,1/4-x,1/4+z
-x,-y,-z
1/4+y,3/4-x,3/4-z
x,1/2+y,-z
3/4-y,3/4+x,3/4-z
1/2+x,1/2+y,1/2+z
1/4-y,3/4+x,3/4+z
1/2-x,-y,1/2+z
3/4+y,3/4-x,3/4+z
1/2-x,1/2-y,1/2-z
3/4+y,1/4-x,1/4-z
1/2+x,y,1/2-z
1/4-y,1/4+x,1/4-z
loop_
_atom_site_type_symbol
_atom_site_label
_atom_site_fract_x
_atom_site_fract_y
_atom_site_fract_z
Si Si1 0.293217 0.982840 0.607793
Si Si2 0.080453 0.611587 0.183829
Si Si3 0.887981 0.292192 0.371891
Si Si4 0.443368 0.177946 0.867952
Si Si5 0.765987 0.328101 0.330789
Si Si6 0.653995 0.127841 0.472329
Si Si7 0.745496 0.211524 0.422630
Si Si8 0.428792 0.195221 0.409395
O O1 0.261017 0.987438 0.738098
O O2 0.300348 0.915891 0.582432
O O3 0.357476 0.006617 0.624252
O O4 0.100457 0.652617 0.287398
O O5 0.135691 0.607305 0.100926
O O6 0.060197 0.551649 0.241942
O O7 0.026693 0.640156 0.116017
O O8 0.889578 0.314027 0.503828
O O9 0.832444 0.317364 0.310099
O O10 0.940760 0.318731 0.300511
O O11 0.425670 0.242180 0.836347
O O12 0.741686 0.280585 0.422364
O O13 0.738292 0.314658 0.205335
O O14 0.687323 0.187961 0.478200
O O15 0.595983 0.130864 0.395730
O O16 0.419291 0.260462 0.381306
#
# Coordination Sequence:
#
# PCOD8304214 Si02
#       8
#    16  16  16  16  16  16  16  16
#     4  12  25  46  68  95 126 167 219 267 322 383
#     4  10  20  36  58  84 117 158 208 248 292 373
#     4  10  19  37  55  83 120 159 199 244 302 371
#     4   9  20  35  58  82 118 166 204 235 300 378
#     4  10  20  38  61  89 117 162 205 259 312 378
#     4  12  21  38  63  92 121 162 202 259 315 370
#     4  10  20  36  65  88 118 159 210 251 315 372
#     4  11  23  31  53  96 133 155 190 256 318 365
#
# _framework density 20.326011999999999
#
# number of rings (size 3 to 8) (size 9 to 14) (size 15 to 20)
#    0.000    1.500    5.000    0.000    3.500    1.000 
#    4.500    0.000    0.000    6.750    0.000    0.000 
#    0.000    0.000    0.000    0.000    0.000    0.000 
#
# Total GULP energy -792979.530226 kJ/mol
# GULP energy per Si atom -12390.305160 kJ/mol
# Density = 2.027975 g / cm^3
# Si number density = 20.326012 Si / 1000 Ang^3
#
#
#
# Elastic Constant Matrix: (Units=GPa)
#
#
# Indices 1 2 3 4 5 6 
#
# 1 69.5034 10.3808 26.2512 0.0000 0.0000 5.9516
# 2 10.3808 69.5034 26.2512 0.0000 0.0000 -5.9516
# 3 26.2512 26.2512 64.4171 0.0000 0.0000 0.0000
# 4 0.0000 0.0000 0.0000 23.7764 0.0000 0.0000
# 5 0.0000 0.0000 0.0000 0.0000 23.7764 0.0000
# 6 5.9516 -5.9516 0.0000 0.0000 0.0000 33.2467
#
#
#
# Elastic Compliance Matrix: (Units=1/GPa)
#
#
# Indices 1 2 3 4 5 6 
#
# 1 0.017322 -0.000224 -0.006968 0.000000 0.000000 -0.003141
# 2 -0.000224 0.017322 -0.006968 0.000000 0.000000 0.003141
# 3 -0.006968 -0.006968 0.021203 0.000000 0.000000 0.000000
# 4 0.000000 0.000000 0.000000 0.042058 0.000000 0.000000
# 5 0.000000 0.000000 0.000000 0.000000 0.042058 0.000000
# 6 -0.003141 0.003141 0.000000 0.000000 0.000000 0.031203
#
#
# Mechanical properties :
#
#
# Convention : Reuss Voigt Hill
#
# Bulk Modulus (GPa) = 36.32750 36.57668 36.45209
# Shear Modulus (GPa) = 23.96232 25.52930 24.74581
#
# Velocity S-wave (km/s) = 3.43724 3.54784 3.49298
# Velocity P-wave (km/s) = 5.80207 5.90059 5.85154
#
# Compressibility (1/GPa) = 0.02752736
#
# Stress axis : x y z
#
# Youngs Moduli (GPa) = 57.73041 57.73041 47.16396
#
# Poissons Ratio (x) = 0.01296 0.32862
# Poissons Ratio (y) = 0.01296 0.32862
# Poissons Ratio (z) = 0.40224 0.40224
#
# Static dielectric constant tensor:
#      x y z
#    x 3.656720 0.000000 0.000000 
#    y 0.000000 3.656720 0.000000 
#    z 0.000000 0.000000 3.594580 
# 
# 
# High freq. dielectric constant tensor:
#      x y z
#    x 1.790900 0.000000 0.000000 
#    y 0.000000 1.790900 0.000000 
#    z 0.000000 0.000000 1.765570 
# 
# From -- ./inp_files/2746.got.cif
#   From: 2010.03.12/outbox.cif.g09.slc.cpg/sg88_2_cif.got.tgz:2746.got - 2010.04.08 20:20:55.
