data_PCOD8304807
_publ_section_title
;
Structure prediction by ZEFSAII (Michael W. Deem and Ramdas Pophale) SiO2 
 PCOD8304807
Probable space group: P 41 2 2
;
_chemical_formula_sum "Si O2"
_cell_formula_units_Z 64
_cell_length_a 11.651123
_cell_length_b 11.651123
_cell_length_c 26.247152
_cell_angle_alpha 90.000000
_cell_angle_beta 90.000000
_cell_angle_gamma 90.000000
_cell_volume 3563.015901
_symmetry_space_group_name_H-M "P 41 2 2"
_symmetry_group_IT_number 91
_symmetry_cell_setting 'tetragonal'
loop_
_space_group_symop_operation_xyz
x,y,z
-y,x,1/4+z
-x,-y,1/2+z
y,-x,3/4+z
x,-y,1/2-z
-x,y,-z
y,x,3/4-z
-y,-x,1/4-z
loop_
_atom_site_type_symbol
_atom_site_label
_atom_site_fract_x
_atom_site_fract_y
_atom_site_fract_z
Si Si1 0.350658 0.809094 0.233490
Si Si2 0.422277 0.890393 0.781947
Si Si3 0.916708 0.104160 0.870977
Si Si4 0.835524 0.872525 0.233665
Si Si5 0.389840 0.182553 0.468881
Si Si6 0.042978 0.309074 0.575561
Si Si7 0.999887 0.290700 0.794124
Si Si8 0.969757 0.503863 0.638358
O O1 0.488238 0.787215 0.230373
O O2 0.288248 0.697276 0.211279
O O3 0.311011 0.843307 0.290287
O O4 0.332591 0.920831 0.199165
O O5 0.299830 0.853771 0.759848
O O6 0.468191 0.000000 0.750000
O O7 0.418911 0.920481 0.842013
O O8 0.860553 0.134645 0.924857
O O9 0.819600 0.027193 0.845294
O O10 0.939285 0.216420 0.837654
O O11 0.034272 0.034272 0.875000
O O12 0.893203 0.776699 0.269559
O O13 0.874720 0.000000 0.250000
O O14 0.500000 0.226875 0.500000
O O15 0.318144 0.085624 0.498290
O O16 0.435203 0.135129 0.415074
O O17 0.060028 0.407581 0.618780
O O18 0.034212 0.411500 0.821410
#
# Coordination Sequence:
#
# PCOD8304807 Si02
#       8
#     8   8   8   8   8   8   8   8
#     4  10  19  36  56  82 110 144 191 245 288 337
#     4  10  19  36  57  82 113 150 199 237 283 348
#     4  12  23  34  55  86 119 157 184 236 297 354
#     4  11  23  36  55  85 121 157 190 237 294 349
#     4  10  22  36  55  81 115 152 190 244 298 342
#     4  10  21  33  57  83 112 148 188 240 287 346
#     4  11  22  38  56  83 123 154 197 236 289 365
#     4  10  20  38  57  82 113 158 200 230 290 357
#
# _framework density 17.962312000000001
#
# number of rings (size 3 to 8) (size 9 to 14) (size 15 to 20)
#    0.000    1.500    6.250    0.750    3.500    1.500 
#    0.000    0.000    0.000    3.750    0.000    3.500 
#    0.000    0.000    0.000    0.000    0.000    0.000 
#
# Total GULP energy -793242.341977 kJ/mol
# GULP energy per Si atom -12394.411593 kJ/mol
# Density = 1.792143 g / cm^3
# Si number density = 17.962312 Si / 1000 Ang^3
#
#
#
# Elastic Constant Matrix: (Units=GPa)
#
#
# Indices 1 2 3 4 5 6 
#
# 1 88.9474 47.3829 33.1992 0.0000 0.0000 0.0000
# 2 47.3829 88.9474 33.1992 0.0000 0.0000 0.0000
# 3 33.1992 33.1992 96.7818 0.0000 0.0000 0.0000
# 4 0.0000 0.0000 0.0000 25.0305 0.0000 0.0000
# 5 0.0000 0.0000 0.0000 0.0000 25.0305 0.0000
# 6 0.0000 0.0000 0.0000 0.0000 0.0000 17.4534
#
#
#
# Elastic Compliance Matrix: (Units=1/GPa)
#
#
# Indices 1 2 3 4 5 6 
#
# 1 0.016433 -0.007626 -0.003021 0.000000 0.000000 0.000000
# 2 -0.007626 0.016433 -0.003021 0.000000 0.000000 0.000000
# 3 -0.003021 -0.003021 0.012405 0.000000 0.000000 0.000000
# 4 0.000000 0.000000 0.000000 0.039951 0.000000 0.000000
# 5 0.000000 0.000000 0.000000 0.000000 0.039951 0.000000
# 6 0.000000 0.000000 0.000000 0.000000 0.000000 0.057295
#
#
# Mechanical properties :
#
#
# Convention : Reuss Voigt Hill
#
# Bulk Modulus (GPa) = 55.75890 55.80436 55.78163
# Shear Modulus (GPa) = 23.17148 24.22925 23.70036
#
# Velocity S-wave (km/s) = 3.59556 3.67671 3.63636
# Velocity P-wave (km/s) = 6.95320 7.01136 6.98234
#
# Compressibility (1/GPa) = 0.01793436
#
# Stress axis : x y z
#
# Youngs Moduli (GPa) = 60.85423 60.85423 80.61247
#
# Poissons Ratio (x) = 0.46409 0.24352
# Poissons Ratio (y) = 0.46409 0.24352
# Poissons Ratio (z) = 0.18383 0.18383
#
# Static dielectric constant tensor:
#      x y z
#    x 3.252940 0.000000 0.000000 
#    y 0.000000 3.252940 0.000000 
#    z 0.000000 0.000000 3.556910 
# 
# 
# High freq. dielectric constant tensor:
#      x y z
#    x 1.678810 0.000000 0.000000 
#    y 0.000000 1.678810 0.000000 
#    z 0.000000 0.000000 1.712310 
# 
# From -- ./inp_files/22047.got.cif
#   From: 2010.03.12/outbox.cif.g09.slc.cpg/sg91_12_cif.got.tgz:22047.got - 2010.04.08 20:27:58.
