data_PCOD8304840
_publ_section_title
;
Structure prediction by ZEFSAII (Michael W. Deem and Ramdas Pophale) SiO2 
 PCOD8304840
Probable space group: P 41 2 2
;
_chemical_formula_sum "Si O2"
_cell_formula_units_Z 48
_cell_length_a 12.667854
_cell_length_b 12.667854
_cell_length_c 16.418769
_cell_angle_alpha 90.000000
_cell_angle_beta 90.000000
_cell_angle_gamma 90.000000
_cell_volume 2634.794156
_symmetry_space_group_name_H-M "P 41 2 2"
_symmetry_group_IT_number 91
_symmetry_cell_setting 'tetragonal'
loop_
_space_group_symop_operation_xyz
x,y,z
-y,x,1/4+z
-x,-y,1/2+z
y,-x,3/4+z
x,-y,1/2-z
-x,y,-z
y,x,3/4-z
-y,-x,1/4-z
loop_
_atom_site_type_symbol
_atom_site_label
_atom_site_fract_x
_atom_site_fract_y
_atom_site_fract_z
Si Si1 0.000000 0.446209 0.000000
Si Si2 0.500000 0.488391 0.000000
Si Si3 0.076743 0.076743 0.375000
Si Si4 0.373252 0.625455 0.874253
Si Si5 0.394051 0.872101 0.359033
Si Si6 0.843368 0.127830 0.805013
Si Si7 0.359324 0.869554 0.886274
Si Si8 0.500000 0.988804 0.500000
O O1 0.076829 0.368207 0.048546
O O2 0.922120 0.518315 0.051923
O O3 0.410130 0.411395 0.035431
O O4 0.554222 0.564667 0.063303
O O5 0.124067 0.128724 0.458208
O O6 0.951792 0.092867 0.386159
O O7 0.252934 0.593232 0.888167
O O8 0.395311 0.748889 0.883588
O O9 0.279443 0.899069 0.321618
O O10 0.415443 0.917960 0.449720
O O11 0.878821 0.241003 0.833917
O O12 0.435553 0.933703 0.943721
#
# Coordination Sequence:
#
# PCOD8304840 Si02
#       8
#     4   4   4   8   8   8   8   4
#     4  10  20  34  52  76 106 138 172 214 262 312
#     4  10  20  34  54  76 104 136 170 212 260 310
#     4  10  20  36  56  78 106 140 178 222 270 322
#     4  10  20  35  53  77 104 135 172 213 259 311
#     4  10  20  35  55  78 106 141 179 219 266 325
#     4  10  21  36  56  80 107 140 180 222 269 322
#     4  10  21  35  53  78 106 136 174 219 264 314
#     4  10  20  36  56  78 106 140 178 222 272 320
#
# _framework density 18.217742000000001
#
# number of rings (size 3 to 8) (size 9 to 14) (size 15 to 20)
#    0.000    2.000    0.000    4.000    0.000    2.667 
#    0.000    6.667    0.000   12.000    0.000    0.000 
#    0.000    0.000    0.000    0.000    0.000    0.000 
#
# Total GULP energy -594912.558251 kJ/mol
# GULP energy per Si atom -12394.011630 kJ/mol
# Density = 1.817628 g / cm^3
# Si number density = 18.217742 Si / 1000 Ang^3
#
#
#
# Elastic Constant Matrix: (Units=GPa)
#
#
# Indices 1 2 3 4 5 6 
#
# 1 98.4451 54.3161 42.9460 0.0000 0.0000 0.0000
# 2 54.3161 98.4451 42.9460 0.0000 0.0000 0.0000
# 3 42.9460 42.9460 106.0544 0.0000 0.0000 0.0000
# 4 0.0000 0.0000 0.0000 23.4082 0.0000 0.0000
# 5 0.0000 0.0000 0.0000 0.0000 23.4082 0.0000
# 6 0.0000 0.0000 0.0000 0.0000 0.0000 33.9800
#
#
#
# Elastic Compliance Matrix: (Units=1/GPa)
#
#
# Indices 1 2 3 4 5 6 
#
# 1 0.015568 -0.007092 -0.003432 0.000000 0.000000 0.000000
# 2 -0.007092 0.015568 -0.003432 0.000000 0.000000 0.000000
# 3 -0.003432 -0.003432 0.012209 0.000000 0.000000 0.000000
# 4 0.000000 0.000000 0.000000 0.042720 0.000000 0.000000
# 5 0.000000 0.000000 0.000000 0.000000 0.042720 0.000000
# 6 0.000000 0.000000 0.000000 0.000000 0.000000 0.029429
#
#
# Mechanical properties :
#
#
# Convention : Reuss Voigt Hill
#
# Bulk Modulus (GPa) = 64.80157 64.81785 64.80971
# Shear Modulus (GPa) = 26.14064 27.00837 26.57450
#
# Velocity S-wave (km/s) = 3.79212 3.85454 3.82346
# Velocity P-wave (km/s) = 7.40414 7.44760 7.42590
#
# Compressibility (1/GPa) = 0.01543173
#
# Stress axis : x y z
#
# Youngs Moduli (GPa) = 64.23253 64.23253 81.90744
#
# Poissons Ratio (x) = 0.45556 0.28113
# Poissons Ratio (y) = 0.45556 0.28113
# Poissons Ratio (z) = 0.22047 0.22047
#
# Static dielectric constant tensor:
#      x y z
#    x 3.455640 0.000000 0.000000 
#    y 0.000000 3.455640 0.000000 
#    z 0.000000 0.000000 3.716500 
# 
# 
# High freq. dielectric constant tensor:
#      x y z
#    x 1.715970 0.000000 0.000000 
#    y 0.000000 1.715970 0.000000 
#    z 0.000000 0.000000 1.714170 
# 
# From -- ./inp_files/16966.got.cif
#   From: 2010.03.12/outbox.cif.g09.slc.cpg/sg91_9_cif.got.tgz:16966.got - 2010.04.08 20:27:58.
