data_PCOD8304224
_publ_section_title
;
Structure prediction by ZEFSAII (Michael W. Deem and Ramdas Pophale) SiO2 
 PCOD8304224
Probable space group: I 41/A
;
_chemical_formula_sum "Si O2"
_cell_formula_units_Z 128
_cell_length_a 20.054605
_cell_length_b 20.054605
_cell_length_c 19.703690
_cell_angle_alpha 90.000000
_cell_angle_beta 90.000000
_cell_angle_gamma 90.000000
_cell_volume 7924.571550
_symmetry_space_group_name_H-M "I 41/A"
_symmetry_group_IT_number 88
_space_group.IT_coordinate_system_code '2'
_symmetry_cell_setting 'tetragonal'
loop_
_space_group_symop_operation_xyz
x,y,z
3/4-y,1/4+x,1/4+z
-x,1/2-y,z
1/4+y,1/4-x,1/4+z
-x,-y,-z
1/4+y,3/4-x,3/4-z
x,1/2+y,-z
3/4-y,3/4+x,3/4-z
1/2+x,1/2+y,1/2+z
1/4-y,3/4+x,3/4+z
1/2-x,-y,1/2+z
3/4+y,3/4-x,3/4+z
1/2-x,1/2-y,1/2-z
3/4+y,1/4-x,1/4-z
1/2+x,y,1/2-z
1/4-y,1/4+x,1/4-z
loop_
_atom_site_type_symbol
_atom_site_label
_atom_site_fract_x
_atom_site_fract_y
_atom_site_fract_z
Si Si1 0.932981 0.542721 0.243819
Si Si2 0.280953 0.036746 0.066411
Si Si3 0.207773 0.547356 0.568552
Si Si4 0.295144 0.671536 0.989457
Si Si5 0.579332 0.001055 0.894245
Si Si6 0.927052 0.856890 0.444533
Si Si7 0.068274 0.005305 0.392532
Si Si8 0.108574 0.177628 0.700337
O O1 0.874196 0.520771 0.192920
O O2 0.931714 0.621015 0.263509
O O3 0.925184 0.500078 0.311794
O O4 0.005116 0.529355 0.208735
O O5 0.357386 0.045265 0.091611
O O6 0.233226 0.000317 0.119917
O O7 0.258197 0.113639 0.053864
O O8 0.276033 0.996451 0.996846
O O9 0.128326 0.552402 0.583287
O O10 0.271217 0.669432 0.066455
O O11 0.374834 0.658603 0.991031
O O12 0.506619 0.967992 0.911380
O O13 0.590743 0.064592 0.943266
O O14 0.935788 0.833626 0.366667
O O15 0.998601 0.844636 0.479871
O O16 0.081282 0.935194 0.428681
#
# Coordination Sequence:
#
# PCOD8304224 Si02
#       8
#    16  16  16  16  16  16  16  16
#     4  10  20  32  45  67 101 131 163 208 254 292
#     4  12  20  33  53  75  99 132 174 211 246 295
#     4  12  20  33  53  75  99 132 174 211 246 295
#     4  10  20  32  45  67 101 131 163 208 254 292
#     4   9  17  29  46  72 103 136 170 203 237 285
#     4   9  15  24  39  62  97 139 174 197 224 274
#     4   9  17  29  46  72 103 136 170 203 237 285
#     4   9  15  24  39  62  97 139 174 197 224 274
#
# _framework density 16.152293
#
# number of rings (size 3 to 8) (size 9 to 14) (size 15 to 20)
#    0.000    2.000    5.000    3.000    0.000    3.250 
#    0.000    0.000    0.000    0.750    0.000    0.000 
#    0.000    0.500    0.000    0.000    0.000    0.000 
#
# Total GULP energy -793058.764807 kJ/mol
# GULP energy per Si atom -12391.543200 kJ/mol
# Density = 1.611553 g / cm^3
# Si number density = 16.152293 Si / 1000 Ang^3
#
#
#
# Elastic Constant Matrix: (Units=GPa)
#
#
# Indices 1 2 3 4 5 6 
#
# 1 71.0374 25.5565 26.6521 0.0000 0.0000 -2.5798
# 2 25.5565 71.0374 26.6521 0.0000 0.0000 2.5798
# 3 26.6521 26.6521 45.0969 0.0000 0.0000 0.0000
# 4 0.0000 0.0000 0.0000 16.8134 0.0000 0.0000
# 5 0.0000 0.0000 0.0000 0.0000 16.8134 0.0000
# 6 -2.5798 2.5798 0.0000 0.0000 0.0000 8.6694
#
#
#
# Elastic Compliance Matrix: (Units=1/GPa)
#
#
# Indices 1 2 3 4 5 6 
#
# 1 0.019059 -0.003696 -0.009079 0.000000 0.000000 0.006772
# 2 -0.003696 0.019059 -0.009079 0.000000 0.000000 -0.006772
# 3 -0.009079 -0.009079 0.032906 0.000000 0.000000 0.000000
# 4 0.000000 0.000000 0.000000 0.059476 0.000000 0.000000
# 5 0.000000 0.000000 0.000000 0.000000 0.059476 0.000000
# 6 0.006772 -0.006772 0.000000 0.000000 0.000000 0.119379
#
#
# Mechanical properties :
#
#
# Convention : Reuss Voigt Hill
#
# Bulk Modulus (GPa) = 36.61064 38.32144 37.46604
# Shear Modulus (GPa) = 13.80562 15.67997 14.74279
#
# Velocity S-wave (km/s) = 2.92672 3.11908 3.02443
# Velocity P-wave (km/s) = 5.84261 6.06202 5.95333
#
# Compressibility (1/GPa) = 0.02731446
#
# Stress axis : x y z
#
# Youngs Moduli (GPa) = 52.46805 52.46805 30.38929
#
# Poissons Ratio (x) = 0.19393 0.27592
# Poissons Ratio (y) = 0.19393 0.27592
# Poissons Ratio (z) = 0.47638 0.47638
#
# Static dielectric constant tensor:
#      x y z
#    x 3.073820 0.000000 0.000000 
#    y 0.000000 3.073820 0.000000 
#    z 0.000000 0.000000 2.822800 
# 
# 
# High freq. dielectric constant tensor:
#      x y z
#    x 1.604430 0.000000 0.000000 
#    y 0.000000 1.604430 0.000000 
#    z 0.000000 0.000000 1.582070 
# 
# From -- ./inp_files/5459.got.cif
#   From: 2010.03.12/outbox.cif.g09.slc.cpg/sg88_3_cif.got.tgz:5459.got - 2010.04.08 20:20:55.
