data_PCOD8304857
_publ_section_title
;
Structure prediction by ZEFSAII (Michael W. Deem and Ramdas Pophale) SiO2 
 PCOD8304857
Probable space group: P 41 2 2
;
_chemical_formula_sum "Si O2"
_cell_formula_units_Z 28
_cell_length_a 10.588835
_cell_length_b 10.588835
_cell_length_c 14.714501
_cell_angle_alpha 90.000000
_cell_angle_beta 90.000000
_cell_angle_gamma 90.000000
_cell_volume 1649.840274
_symmetry_space_group_name_H-M "P 41 2 2"
_symmetry_group_IT_number 91
_symmetry_cell_setting 'tetragonal'
loop_
_space_group_symop_operation_xyz
x,y,z
-y,x,1/4+z
-x,-y,1/2+z
y,-x,3/4+z
x,-y,1/2-z
-x,y,-z
y,x,3/4-z
-y,-x,1/4-z
loop_
_atom_site_type_symbol
_atom_site_label
_atom_site_fract_x
_atom_site_fract_y
_atom_site_fract_z
Si Si1 0.071923 0.598350 0.909213
Si Si2 0.298399 0.330754 0.147826
Si Si3 0.290210 0.436580 0.948791
Si Si4 0.100055 0.500000 0.250000
O O1 0.176784 0.709002 0.892316
O O2 0.143042 0.464749 0.926695
O O3 0.981281 0.578105 0.823087
O O4 0.000000 0.639891 0.000000
O O5 0.431167 0.368090 0.195764
O O6 0.183579 0.392506 0.202044
O O7 0.304549 0.379067 0.046501
O O8 0.338261 0.338261 0.875000
#
# Coordination Sequence:
#
# PCOD8304857 Si02
#       4
#     8   8   8   4
#     4  10  22  37  53  87 122 153 195 243 290 367
#     4  10  23  33  60  86 120 159 185 257 296 372
#     4  10  20  36  54  88 118 152 192 243 318 352
#     4  12  20  38  60  88 118 160 202 236 316 354
#
# _framework density 16.971340000000001
#
# number of rings (size 3 to 8) (size 9 to 14) (size 15 to 20)
#    1.714    0.000    2.857    2.571    4.000    3.429 
#    0.000    0.000    0.000    0.000   29.714    0.000 
#    0.000    0.000    0.000    0.000    0.000    0.000 
#
# Total GULP energy -346871.469388 kJ/mol
# GULP energy per Si atom -12388.266764 kJ/mol
# Density = 1.693271 g / cm^3
# Si number density = 16.971340 Si / 1000 Ang^3
#
#
#
# Elastic Constant Matrix: (Units=GPa)
#
#
# Indices 1 2 3 4 5 6 
#
# 1 116.0007 29.5628 66.2591 0.0000 0.0000 0.0000
# 2 29.5628 116.0007 66.2591 0.0000 0.0000 0.0000
# 3 66.2591 66.2591 145.5829 0.0000 0.0000 0.0000
# 4 0.0000 0.0000 0.0000 37.0938 0.0000 0.0000
# 5 0.0000 0.0000 0.0000 0.0000 37.0938 0.0000
# 6 0.0000 0.0000 0.0000 0.0000 0.0000 18.7552
#
#
#
# Elastic Compliance Matrix: (Units=1/GPa)
#
#
# Indices 1 2 3 4 5 6 
#
# 1 0.011650 0.000081 -0.005339 0.000000 0.000000 0.000000
# 2 0.000081 0.011650 -0.005339 0.000000 0.000000 0.000000
# 3 -0.005339 -0.005339 0.011729 0.000000 0.000000 0.000000
# 4 0.000000 0.000000 0.000000 0.026959 0.000000 0.000000
# 5 0.000000 0.000000 0.000000 0.000000 0.026959 0.000000
# 6 0.000000 0.000000 0.000000 0.000000 0.000000 0.053319
#
#
# Mechanical properties :
#
#
# Convention : Reuss Voigt Hill
#
# Bulk Modulus (GPa) = 72.28616 77.97181 75.12898
# Shear Modulus (GPa) = 29.74975 32.95547 31.35261
#
# Velocity S-wave (km/s) = 4.19136 4.41140 4.30279
# Velocity P-wave (km/s) = 8.13073 8.48471 8.30960
#
# Compressibility (1/GPa) = 0.01383391
#
# Stress axis : x y z
#
# Youngs Moduli (GPa) = 85.84019 85.84019 85.26200
#
# Poissons Ratio (x) = -0.00692 0.45519
# Poissons Ratio (y) = -0.00692 0.45519
# Poissons Ratio (z) = 0.45828 0.45828
#
# Static dielectric constant tensor:
#      x y z
#    x 2.715030 0.000000 0.000000 
#    y 0.000000 2.715030 0.000000 
#    z 0.000000 0.000000 3.572850 
# 
# 
# High freq. dielectric constant tensor:
#      x y z
#    x 1.639070 0.000000 0.000000 
#    y 0.000000 1.639070 0.000000 
#    z 0.000000 0.000000 1.674910 
# 
# From -- ./inp_files/11124.got.cif
#   From: 2010.03.12/outbox.cif.g09.slc.cpg/sg91_6_cif.got.tgz:11124.got - 2010.04.08 20:27:58.
