data_PCOD8304995
_publ_section_title
;
Structure prediction by ZEFSAII (Michael W. Deem and Ramdas Pophale) SiO2 
 PCOD8304995
Probable space group: P 41 2 2
;
_chemical_formula_sum "Si O2"
_cell_formula_units_Z 36
_cell_length_a 14.486423
_cell_length_b 14.486423
_cell_length_c 8.106796
_cell_angle_alpha 90.000000
_cell_angle_beta 90.000000
_cell_angle_gamma 90.000000
_cell_volume 1701.263440
_symmetry_space_group_name_H-M "P 41 2 2"
_symmetry_group_IT_number 91
_symmetry_cell_setting 'tetragonal'
loop_
_space_group_symop_operation_xyz
x,y,z
-y,x,1/4+z
-x,-y,1/2+z
y,-x,3/4+z
x,-y,1/2-z
-x,y,-z
y,x,3/4-z
-y,-x,1/4-z
loop_
_atom_site_type_symbol
_atom_site_label
_atom_site_fract_x
_atom_site_fract_y
_atom_site_fract_z
Si Si1 0.417295 0.919954 0.627835
Si Si2 0.535101 0.750489 0.175736
Si Si3 0.881121 0.000000 0.750000
Si Si4 0.657577 0.704582 0.695200
Si Si5 0.764005 0.131395 0.982700
O O1 0.500000 0.909989 0.500000
O O2 0.405636 0.827844 0.734329
O O3 0.316140 0.937443 0.549659
O O4 0.446412 0.000000 0.750000
O O5 0.451425 0.721731 0.294161
O O6 0.605349 0.666084 0.144370
O O7 0.500000 0.789418 0.000000
O O8 0.819297 0.074409 0.846259
O O9 0.945512 0.054489 0.625000
O O10 0.709942 0.782784 0.594814
O O11 0.703263 0.703263 0.875000
O O12 0.834229 0.165772 0.125000
#
# Coordination Sequence:
#
# PCOD8304995 Si02
#       5
#     8   8   4   8   8
#     4  12  26  41  67 101 139 175 226 285 340 414
#     4  10  21  41  68  97 141 184 231 282 332 407
#     4  12  30  52  76 100 136 170 232 298 364 434
#     4  10  21  41  71  99 141 187 234 281 342 408
#     4  12  26  44  74 101 133 184 225 282 358 420
#
# _framework density 21.160743
#
# number of rings (size 3 to 8) (size 9 to 14) (size 15 to 20)
#    0.000    0.889    4.444    2.000    4.667    3.556 
#    0.000    0.000   39.111    0.000    0.000    0.000 
#    0.000    0.000    0.000    0.000    0.000    0.000 
#
# Total GULP energy -446438.341631 kJ/mol
# GULP energy per Si atom -12401.065045 kJ/mol
# Density = 2.111258 g / cm^3
# Si number density = 21.160743 Si / 1000 Ang^3
#
#
#
# Elastic Constant Matrix: (Units=GPa)
#
#
# Indices 1 2 3 4 5 6 
#
# 1 113.4500 50.7050 62.2643 0.0000 0.0000 0.0000
# 2 50.7050 113.4531 62.2650 0.0000 0.0000 0.0000
# 3 62.2643 62.2650 108.7891 0.0000 0.0000 0.0000
# 4 0.0000 0.0000 0.0000 41.3342 0.0000 0.0000
# 5 0.0000 0.0000 0.0000 0.0000 41.3344 0.0000
# 6 0.0000 0.0000 0.0000 0.0000 0.0000 30.8600
#
#
#
# Elastic Compliance Matrix: (Units=1/GPa)
#
#
# Indices 1 2 3 4 5 6 
#
# 1 0.013352 -0.002585 -0.006162 0.000000 0.000000 0.000000
# 2 -0.002585 0.013351 -0.006162 0.000000 0.000000 0.000000
# 3 -0.006162 -0.006162 0.016246 0.000000 0.000000 0.000000
# 4 0.000000 0.000000 0.000000 0.024193 0.000000 0.000000
# 5 0.000000 0.000000 0.000000 0.000000 0.024193 0.000000
# 6 0.000000 0.000000 0.000000 0.000000 0.000000 0.032404
#
#
# Mechanical properties :
#
#
# Convention : Reuss Voigt Hill
#
# Bulk Modulus (GPa) = 76.16040 76.24008 76.20024
# Shear Modulus (GPa) = 31.65862 33.40291 32.53077
#
# Velocity S-wave (km/s) = 3.87214 3.97738 3.92512
# Velocity P-wave (km/s) = 7.48738 7.56307 7.52532
#
# Compressibility (1/GPa) = 0.01313018
#
# Stress axis : x y z
#
# Youngs Moduli (GPa) = 74.89580 74.89805 61.55506
#
# Poissons Ratio (x) = 0.19365 0.37930
# Poissons Ratio (y) = 0.19364 0.37930
# Poissons Ratio (z) = 0.46151 0.46151
#
# Static dielectric constant tensor:
#      x y z
#    x 3.886380 0.000000 0.000000 
#    y 0.000000 3.886380 0.000000 
#    z 0.000000 0.000000 4.211110 
# 
# 
# High freq. dielectric constant tensor:
#      x y z
#    x 1.832100 0.000000 0.000000 
#    y 0.000000 1.832100 0.000000 
#    z 0.000000 0.000000 1.849470 
# 
# From -- ./inp_files/19317.got.cif
#   From: 2010.03.12/outbox.cif.g09.slc.cpg/sg91_10_cif.got.tgz:19317.got - 2010.04.08 20:27:58.
