data_PCOD8304199
_publ_section_title
;
Structure prediction by ZEFSAII (Michael W. Deem and Ramdas Pophale) SiO2 
 PCOD8304199
Probable space group: I 41/A
;
_chemical_formula_sum "Si O2"
_cell_formula_units_Z 80
_cell_length_a 31.721795
_cell_length_b 31.721795
_cell_length_c 5.195186
_cell_angle_alpha 90.000000
_cell_angle_beta 90.000000
_cell_angle_gamma 90.000000
_cell_volume 5227.771651
_symmetry_space_group_name_H-M "I 41/A"
_symmetry_group_IT_number 88
_space_group.IT_coordinate_system_code '2'
_symmetry_cell_setting 'tetragonal'
loop_
_space_group_symop_operation_xyz
x,y,z
3/4-y,1/4+x,1/4+z
-x,1/2-y,z
1/4+y,1/4-x,1/4+z
-x,-y,-z
1/4+y,3/4-x,3/4-z
x,1/2+y,-z
3/4-y,3/4+x,3/4-z
1/2+x,1/2+y,1/2+z
1/4-y,3/4+x,3/4+z
1/2-x,-y,1/2+z
3/4+y,3/4-x,3/4+z
1/2-x,1/2-y,1/2-z
3/4+y,1/4-x,1/4-z
1/2+x,y,1/2-z
1/4-y,1/4+x,1/4-z
loop_
_atom_site_type_symbol
_atom_site_label
_atom_site_fract_x
_atom_site_fract_y
_atom_site_fract_z
Si Si1 0.545727 0.952878 0.043726
Si Si2 0.062800 0.598372 0.126940
Si Si3 0.575474 0.871923 0.857717
Si Si4 0.296217 0.702411 0.376171
Si Si5 0.627795 0.721764 0.899683
O O1 0.578460 0.923194 0.884258
O O2 0.503061 0.955639 0.873878
O O3 0.534848 0.928663 0.312676
O O4 0.565318 0.998483 0.101672
O O5 0.063541 0.565553 0.892658
O O6 0.021892 0.629023 0.118219
O O7 0.103697 0.627756 0.108662
O O8 0.065973 0.573461 0.393483
O O9 0.546844 0.854372 0.095846
O O10 0.552258 0.859214 0.595005
#
# Coordination Sequence:
#
# PCOD8304199 Si02
#       5
#    16  16  16  16  16
#     4   8  19  30  49  69  96 121 151 192 245 283
#     4  11  19  31  47  71  93 125 160 191 230 284
#     4  10  19  31  47  65  97 127 153 190 239 273
#     4  10  19  29  50  72  93 118 159 191 237 289
#     4   9  18  31  46  66  87 132 149 189 232 272
#
# _framework density 15.302887
#
# number of rings (size 3 to 8) (size 9 to 14) (size 15 to 20)
#    1.200    1.200    2.000    1.200    2.800    2.400 
#    0.000    0.000    0.000    3.600    0.000    0.000 
#    0.000    3.200    0.000    0.000    0.000    0.000 
#
# Total GULP energy -495610.660764 kJ/mol
# GULP energy per Si atom -12390.266519 kJ/mol
# Density = 1.526806 g / cm^3
# Si number density = 15.302887 Si / 1000 Ang^3
#
#
#
# Elastic Constant Matrix: (Units=GPa)
#
#
# Indices 1 2 3 4 5 6 
#
# 1 55.3090 34.4785 9.2168 0.0000 0.0000 4.9489
# 2 34.4785 55.3090 9.2168 0.0000 0.0000 -4.9489
# 3 9.2168 9.2168 85.3976 0.0000 0.0000 0.0000
# 4 0.0000 0.0000 0.0000 17.5986 0.0000 0.0000
# 5 0.0000 0.0000 0.0000 0.0000 17.5986 0.0000
# 6 4.9489 -4.9489 0.0000 0.0000 0.0000 13.0004
#
#
#
# Elastic Compliance Matrix: (Units=1/GPa)
#
#
# Indices 1 2 3 4 5 6 
#
# 1 0.034999 -0.023609 -0.001229 0.000000 0.000000 -0.022310
# 2 -0.023609 0.034999 -0.001229 0.000000 0.000000 0.022310
# 3 -0.001229 -0.001229 0.011975 0.000000 0.000000 0.000000
# 4 0.000000 0.000000 0.000000 0.056823 0.000000 0.000000
# 5 0.000000 0.000000 0.000000 0.000000 0.056823 0.000000
# 6 -0.022310 0.022310 0.000000 0.000000 0.000000 0.093907
#
#
# Mechanical properties :
#
#
# Convention : Reuss Voigt Hill
#
# Bulk Modulus (GPa) = 33.51460 33.53774 33.52617
# Shear Modulus (GPa) = 14.22049 19.17977 16.70013
#
# Velocity S-wave (km/s) = 3.05170 3.54410 3.30708
# Velocity P-wave (km/s) = 5.86221 6.22182 6.04469
#
# Compressibility (1/GPa) = 0.02983774
#
# Stress axis : x y z
#
# Youngs Moduli (GPa) = 28.57249 28.57249 83.50535
#
# Poissons Ratio (x) = 0.67457 0.10265
# Poissons Ratio (y) = 0.67457 0.10265
# Poissons Ratio (z) = 0.03512 0.03512
#
# Static dielectric constant tensor:
#      x y z
#    x 2.706170 0.000000 0.000000 
#    y 0.000000 2.706170 0.000000 
#    z 0.000000 0.000000 2.976550 
# 
# 
# High freq. dielectric constant tensor:
#      x y z
#    x 1.552850 0.000000 0.000000 
#    y 0.000000 1.552850 0.000000 
#    z 0.000000 0.000000 1.604790 
# 
# From -- ./inp_files/727.got.cif
#   From: 2010.03.12/outbox.cif.g09.slc.cpg/sg88_1_cif.got.tgz:727.got - 2010.04.08 20:20:55.
