data_PCOD8304983
_publ_section_title
;
Structure prediction by ZEFSAII (Michael W. Deem and Ramdas Pophale) SiO2 
 PCOD8304983
Probable space group: P 41 2 2
;
_chemical_formula_sum "Si O2"
_cell_formula_units_Z 48
_cell_length_a 11.827060
_cell_length_b 11.827060
_cell_length_c 16.633204
_cell_angle_alpha 90.000000
_cell_angle_beta 90.000000
_cell_angle_gamma 90.000000
_cell_volume 2326.641735
_symmetry_space_group_name_H-M "P 41 2 2"
_symmetry_group_IT_number 91
_symmetry_cell_setting 'tetragonal'
loop_
_space_group_symop_operation_xyz
x,y,z
-y,x,1/4+z
-x,-y,1/2+z
y,-x,3/4+z
x,-y,1/2-z
-x,y,-z
y,x,3/4-z
-y,-x,1/4-z
loop_
_atom_site_type_symbol
_atom_site_label
_atom_site_fract_x
_atom_site_fract_y
_atom_site_fract_z
Si Si1 0.968133 0.801979 0.849368
Si Si2 0.458518 0.990468 0.409221
Si Si3 0.506834 0.737167 0.382330
Si Si4 0.084926 0.337720 0.071390
Si Si5 0.968508 0.129444 0.827726
Si Si6 0.671663 0.654915 0.504383
O O1 0.842557 0.842557 0.875000
O O2 0.002321 0.861188 0.765243
O O3 0.965004 0.668021 0.847316
O O4 0.059244 0.851874 0.912239
O O5 0.500000 0.992670 0.500000
O O6 0.460432 0.863562 0.373672
O O7 0.534551 0.073614 0.354630
O O8 0.618739 0.744082 0.439868
O O9 0.416302 0.649559 0.421117
O O10 0.536722 0.688244 0.293878
O O11 0.051666 0.256682 0.143803
O O12 0.209159 0.305887 0.039491
O O13 0.000000 0.315723 0.000000
O O14 0.071592 0.071592 0.875000
#
# Coordination Sequence:
#
# PCOD8304983 Si02
#       6
#     8   8   8   8   8   8
#     4  11  24  44  67  92 134 183 224 265 336 406
#     4  12  23  43  63  97 132 179 221 275 333 397
#     4  10  21  40  73  94 134 168 226 282 339 396
#     4  12  24  38  65 101 135 169 222 279 338 408
#     4  11  23  40  64  98 135 170 220 278 336 397
#     4  10  21  40  65 103 124 173 223 281 343 386
#
# _framework density 20.630593000000001
#
# number of rings (size 3 to 8) (size 9 to 14) (size 15 to 20)
#    0.000    1.000    5.000    4.000    0.000    2.667 
#    3.000    0.000   18.333    0.000    0.000    0.000 
#    0.000    0.000    0.000    0.000    0.000    0.000 
#
# Total GULP energy -595103.294248 kJ/mol
# GULP energy per Si atom -12397.985297 kJ/mol
# Density = 2.058364 g / cm^3
# Si number density = 20.630593 Si / 1000 Ang^3
#
#
#
# Elastic Constant Matrix: (Units=GPa)
#
#
# Indices 1 2 3 4 5 6 
#
# 1 126.3087 49.0050 30.7077 0.0000 0.0000 0.0000
# 2 49.0050 126.3087 30.7077 0.0000 0.0000 0.0000
# 3 30.7077 30.7077 60.2145 0.0000 0.0000 0.0000
# 4 0.0000 0.0000 0.0000 28.9382 0.0000 0.0000
# 5 0.0000 0.0000 0.0000 0.0000 28.9382 0.0000
# 6 0.0000 0.0000 0.0000 0.0000 0.0000 26.1542
#
#
#
# Elastic Compliance Matrix: (Units=1/GPa)
#
#
# Indices 1 2 3 4 5 6 
#
# 1 0.009940 -0.002996 -0.003542 0.000000 0.000000 0.000000
# 2 -0.002996 0.009940 -0.003542 0.000000 0.000000 0.000000
# 3 -0.003542 -0.003542 0.020220 0.000000 0.000000 0.000000
# 4 0.000000 0.000000 0.000000 0.034556 0.000000 0.000000
# 5 0.000000 0.000000 0.000000 0.000000 0.034556 0.000000
# 6 0.000000 0.000000 0.000000 0.000000 0.000000 0.038235
#
#
# Mechanical properties :
#
#
# Convention : Reuss Voigt Hill
#
# Bulk Modulus (GPa) = 50.14401 59.29695 54.72048
# Shear Modulus (GPa) = 28.69389 30.30022 29.49706
#
# Velocity S-wave (km/s) = 3.73344 3.83652 3.78534
# Velocity P-wave (km/s) = 6.55311 6.95916 6.75918
#
# Compressibility (1/GPa) = 0.01994256
#
# Stress axis : x y z
#
# Youngs Moduli (GPa) = 100.59982 100.59982 49.45706
#
# Poissons Ratio (x) = 0.30136 0.17516
# Poissons Ratio (y) = 0.30136 0.17516
# Poissons Ratio (z) = 0.35629 0.35629
#
# Static dielectric constant tensor:
#      x y z
#    x 3.791960 0.000000 0.000000 
#    y 0.000000 3.791960 0.000000 
#    z 0.000000 0.000000 3.889960 
# 
# 
# High freq. dielectric constant tensor:
#      x y z
#    x 1.797240 0.000000 0.000000 
#    y 0.000000 1.797240 0.000000 
#    z 0.000000 0.000000 1.815290 
# 
# From -- ./inp_files/5612.got.cif
#   From: 2010.03.12/outbox.cif.g09.slc.cpg/sg91_3_cif.got.tgz:5612.got - 2010.04.08 20:27:58.
