data_PCOD8304261
_publ_section_title
;
Structure prediction by ZEFSAII (Michael W. Deem and Ramdas Pophale) SiO2 
 PCOD8304261
Probable space group: I 41/A
;
_chemical_formula_sum "Si O2"
_cell_formula_units_Z 80
_cell_length_a 10.304069
_cell_length_b 10.304069
_cell_length_c 35.542537
_cell_angle_alpha 90.000000
_cell_angle_beta 90.000000
_cell_angle_gamma 90.000000
_cell_volume 3773.687564
_symmetry_space_group_name_H-M "I 41/A"
_symmetry_group_IT_number 88
_space_group.IT_coordinate_system_code '2'
_symmetry_cell_setting 'tetragonal'
loop_
_space_group_symop_operation_xyz
x,y,z
3/4-y,1/4+x,1/4+z
-x,1/2-y,z
1/4+y,1/4-x,1/4+z
-x,-y,-z
1/4+y,3/4-x,3/4-z
x,1/2+y,-z
3/4-y,3/4+x,3/4-z
1/2+x,1/2+y,1/2+z
1/4-y,3/4+x,3/4+z
1/2-x,-y,1/2+z
3/4+y,3/4-x,3/4+z
1/2-x,1/2-y,1/2-z
3/4+y,1/4-x,1/4-z
1/2+x,y,1/2-z
1/4-y,1/4+x,1/4-z
loop_
_atom_site_type_symbol
_atom_site_label
_atom_site_fract_x
_atom_site_fract_y
_atom_site_fract_z
Si Si1 0.185934 0.674667 0.042285
Si Si2 0.945049 0.601805 0.791641
Si Si3 0.060628 0.932416 0.067690
Si Si4 0.458588 0.896413 0.352843
Si Si5 0.095012 0.066883 0.635489
O O1 0.132392 0.796834 0.065030
O O2 0.305534 0.630058 0.068873
O O3 0.072976 0.566012 0.043272
O O4 0.214568 0.713091 0.999340
O O5 0.793445 0.600977 0.800525
O O6 0.004827 0.497420 0.820454
O O7 0.000000 0.750000 0.794716
O O8 0.034489 0.953503 0.111550
O O9 0.500000 0.750000 0.341865
O O10 0.305135 0.899994 0.362098
O O11 0.941611 0.078167 0.628331
#
# Coordination Sequence:
#
# PCOD8304261 Si02
#       5
#    16  16  16  16  16
#     4  10  20  42  64  90 131 170 214 276 337 389
#     4  12  26  38  67 105 130 170 222 281 340 405
#     4  10  20  41  63  87 131 177 214 257 340 405
#     4  11  24  42  63  97 142 170 215 287 340 388
#     4  10  21  42  70  89 119 183 234 260 320 423
#
# _framework density 21.199421999999998
#
# number of rings (size 3 to 8) (size 9 to 14) (size 15 to 20)
#    0.000    1.400    6.000    1.800    2.800    1.600 
#    3.600    1.000    0.000    0.000    0.000    0.000 
#    0.000    0.000    0.000    0.000    0.000    0.000 
#
# Total GULP energy -495718.664126 kJ/mol
# GULP energy per Si atom -12392.966603 kJ/mol
# Density = 2.115117 g / cm^3
# Si number density = 21.199422 Si / 1000 Ang^3
#
#
#
# Elastic Constant Matrix: (Units=GPa)
#
#
# Indices 1 2 3 4 5 6 
#
# 1 52.9630 15.6096 35.5188 0.0000 0.0000 -0.8836
# 2 15.6096 52.9630 35.5188 0.0000 0.0000 0.8836
# 3 35.5188 35.5188 172.0380 0.0000 0.0000 0.0000
# 4 0.0000 0.0000 0.0000 21.8166 0.0000 0.0000
# 5 0.0000 0.0000 0.0000 0.0000 21.8166 0.0000
# 6 -0.8836 0.8836 0.0000 0.0000 0.0000 23.2896
#
#
#
# Elastic Compliance Matrix: (Units=1/GPa)
#
#
# Indices 1 2 3 4 5 6 
#
# 1 0.022685 -0.004134 -0.003830 0.000000 0.000000 0.001018
# 2 -0.004134 0.022685 -0.003830 0.000000 0.000000 -0.001018
# 3 -0.003830 -0.003830 0.007394 0.000000 0.000000 0.000000
# 4 0.000000 0.000000 0.000000 0.045837 0.000000 0.000000
# 5 0.000000 0.000000 0.000000 0.000000 0.045837 0.000000
# 6 0.001018 -0.001018 0.000000 0.000000 0.000000 0.043015
#
#
# Mechanical properties :
#
#
# Convention : Reuss Voigt Hill
#
# Bulk Modulus (GPa) = 34.27506 50.13980 42.20743
# Shear Modulus (GPa) = 22.64838 26.13902 24.39370
#
# Velocity S-wave (km/s) = 3.27211 3.51523 3.39584
# Velocity P-wave (km/s) = 5.52074 6.33866 5.94379
#
# Compressibility (1/GPa) = 0.02917574
#
# Stress axis : x y z
#
# Youngs Moduli (GPa) = 44.08177 44.08178 135.24249
#
# Poissons Ratio (x) = 0.18225 0.51797
# Poissons Ratio (y) = 0.18225 0.51797
# Poissons Ratio (z) = 0.16883 0.16883
#
# Static dielectric constant tensor:
#      x y z
#    x 3.803270 0.000000 0.000000 
#    y 0.000000 3.803270 0.000000 
#    z 0.000000 0.000000 3.830120 
# 
# 
# High freq. dielectric constant tensor:
#      x y z
#    x 1.822680 0.000000 0.000000 
#    y 0.000000 1.822680 0.000000 
#    z 0.000000 0.000000 1.832570 
# 
# From -- ./inp_files/6324.got.cif
#   From: 2010.03.12/outbox.cif.g09.slc.cpg/sg88_4_cif.got.tgz:6324.got - 2010.04.08 20:20:55.
