data_PCOD8304439
_publ_section_title
;
Structure prediction by ZEFSAII (Michael W. Deem and Ramdas Pophale) SiO2 
 PCOD8304439
Probable space group: I 41/A
;
_chemical_formula_sum "Si O2"
_cell_formula_units_Z 96
_cell_length_a 14.747819
_cell_length_b 14.747819
_cell_length_c 19.768344
_cell_angle_alpha 90.000000
_cell_angle_beta 90.000000
_cell_angle_gamma 90.000000
_cell_volume 4299.578550
_symmetry_space_group_name_H-M "I 41/A"
_symmetry_group_IT_number 88
_space_group.IT_coordinate_system_code '2'
_symmetry_cell_setting 'tetragonal'
loop_
_space_group_symop_operation_xyz
x,y,z
3/4-y,1/4+x,1/4+z
-x,1/2-y,z
1/4+y,1/4-x,1/4+z
-x,-y,-z
1/4+y,3/4-x,3/4-z
x,1/2+y,-z
3/4-y,3/4+x,3/4-z
1/2+x,1/2+y,1/2+z
1/4-y,3/4+x,3/4+z
1/2-x,-y,1/2+z
3/4+y,3/4-x,3/4+z
1/2-x,1/2-y,1/2-z
3/4+y,1/4-x,1/4-z
1/2+x,y,1/2-z
1/4-y,1/4+x,1/4-z
loop_
_atom_site_type_symbol
_atom_site_label
_atom_site_fract_x
_atom_site_fract_y
_atom_site_fract_z
Si Si1 0.056810 0.577817 0.700389
Si Si2 0.529175 0.114136 0.349614
Si Si3 0.349253 0.407267 0.913056
Si Si4 0.483343 0.051301 0.569427
Si Si5 0.648808 0.641708 0.356348
Si Si6 0.032379 0.851073 0.462497
O O1 0.007330 0.598190 0.771169
O O2 0.114255 0.485019 0.703484
O O3 0.116878 0.664755 0.685699
O O4 0.982926 0.567983 0.642531
O O5 0.438461 0.143033 0.389516
O O6 0.562659 0.019347 0.379358
O O7 0.327025 0.513054 0.900107
O O8 0.439781 0.409673 0.960130
O O9 0.367348 0.354591 0.843363
O O10 0.577536 0.088028 0.598517
O O11 0.500000 0.000000 0.500000
O O12 0.606002 0.667815 0.284300
O O13 0.000000 0.750000 0.446486
#
# Coordination Sequence:
#
# PCOD8304439 Si02
#       6
#    16  16  16  16  16  16
#     4  12  27  47  76 109 149 195 254 307 376 449
#     4  11  26  49  75  99 146 199 245 314 376 435
#     4  12  26  46  75 111 152 196 248 309 376 453
#     4  12  27  48  71 109 147 193 254 310 369 444
#     4  12  29  45  76 109 150 198 245 308 373 460
#     4  12  23  49  73 107 154 195 240 304 380 445
#
# _framework density 22.327767999999999
#
# number of rings (size 3 to 8) (size 9 to 14) (size 15 to 20)
#    0.000    0.167    5.000    3.000   11.667    1.333 
#    0.000    0.000    0.000    0.000    0.000    0.000 
#    0.000    0.000    0.000    0.000    0.000    0.000 
#
# Total GULP energy -595419.162992 kJ/mol
# GULP energy per Si atom -12404.565896 kJ/mol
# Density = 2.227695 g / cm^3
# Si number density = 22.327768 Si / 1000 Ang^3
#
#
#
# Elastic Constant Matrix: (Units=GPa)
#
#
# Indices 1 2 3 4 5 6 
#
# 1 98.8876 15.5584 35.9880 0.0000 0.0000 -1.8928
# 2 15.5584 98.8876 35.9880 0.0000 0.0000 1.8928
# 3 35.9880 35.9880 116.5344 0.0000 0.0000 0.0000
# 4 0.0000 0.0000 0.0000 34.5121 0.0000 0.0000
# 5 0.0000 0.0000 0.0000 0.0000 34.5121 0.0000
# 6 -1.8928 1.8928 0.0000 0.0000 0.0000 23.8644
#
#
#
# Elastic Compliance Matrix: (Units=1/GPa)
#
#
# Indices 1 2 3 4 5 6 
#
# 1 0.011444 -0.000600 -0.003349 0.000000 0.000000 0.000955
# 2 -0.000600 0.011444 -0.003349 0.000000 0.000000 -0.000955
# 3 -0.003349 -0.003349 0.010649 0.000000 0.000000 0.000000
# 4 0.000000 0.000000 0.000000 0.028975 0.000000 0.000000
# 5 0.000000 0.000000 0.000000 0.000000 0.028975 0.000000
# 6 0.000955 -0.000955 0.000000 0.000000 0.000000 0.042055
#
#
# Mechanical properties :
#
#
# Convention : Reuss Voigt Hill
#
# Bulk Modulus (GPa) = 52.79265 54.37536 53.58401
# Shear Modulus (GPa) = 32.37245 33.69604 33.03425
#
# Velocity S-wave (km/s) = 3.81185 3.88900 3.85062
# Velocity P-wave (km/s) = 6.56272 6.67622 6.61971
#
# Compressibility (1/GPa) = 0.01894203
#
# Stress axis : x y z
#
# Youngs Moduli (GPa) = 87.38277 87.38277 93.90135
#
# Poissons Ratio (x) = 0.05244 0.31445
# Poissons Ratio (y) = 0.05244 0.31445
# Poissons Ratio (z) = 0.29262 0.29262
#
# Static dielectric constant tensor:
#      x y z
#    x 4.079340 0.000000 0.000000 
#    y 0.000000 4.079340 0.000000 
#    z 0.000000 0.000000 4.354580 
# 
# 
# High freq. dielectric constant tensor:
#      x y z
#    x 1.887600 0.000000 0.000000 
#    y 0.000000 1.887600 0.000000 
#    z 0.000000 0.000000 1.889640 
# 
# From -- ./inp_files/4672.got.cif
#   From: 2010.03.12/outbox.cif.g09.slc.cpg/sg88_3_cif.got.tgz:4672.got - 2010.04.08 20:20:55.
