data_PCOD8304553
_publ_section_title
;
Structure prediction by ZEFSAII (Michael W. Deem and Ramdas Pophale) SiO2 
 PCOD8304553
Probable space group: P 4 21 2
;
_chemical_formula_sum "Si O2"
_cell_formula_units_Z 60
_cell_length_a 11.838677
_cell_length_b 11.838677
_cell_length_c 21.217157
_cell_angle_alpha 90.000000
_cell_angle_beta 90.000000
_cell_angle_gamma 90.000000
_cell_volume 2973.675217
_symmetry_space_group_name_H-M "P 4 21 2"
_symmetry_group_IT_number 90
_symmetry_cell_setting 'tetragonal'
loop_
_space_group_symop_operation_xyz
x,y,z
1/2-y,1/2+x,z
-x,-y,z
1/2+y,1/2-x,z
1/2+x,1/2-y,-z
1/2-x,1/2+y,-z
y,x,-z
-y,-x,-z
loop_
_atom_site_type_symbol
_atom_site_label
_atom_site_fract_x
_atom_site_fract_y
_atom_site_fract_z
Si Si1 0.163950 0.432214 0.565170
Si Si2 0.179891 0.534596 0.916387
Si Si3 0.266083 0.382525 0.691082
Si Si4 0.506720 0.624042 0.630618
Si Si5 0.174811 0.129451 0.274299
Si Si6 0.587209 0.398189 0.856583
Si Si7 0.891928 0.108073 0.500000
Si Si8 0.969590 0.680979 0.063208
O O1 0.144712 0.560390 0.542991
O O2 0.174777 0.422916 0.639880
O O3 0.276252 0.388884 0.535481
O O4 0.130335 0.411802 0.899462
O O5 0.290303 0.556813 0.875840
O O6 0.210809 0.538433 0.989827
O O7 0.377312 0.324173 0.658290
O O8 0.295335 0.495898 0.729143
O O9 0.205980 0.287063 0.733314
O O10 0.500000 0.500000 0.659782
O O11 0.391130 0.674452 0.661410
O O12 0.507349 0.611345 0.553176
O O13 0.093766 0.150188 0.214601
O O14 0.500000 0.500000 0.862530
O O15 0.545371 0.296221 0.899551
O O16 0.871717 0.591371 0.080436
#
# Coordination Sequence:
#
# PCOD8304553 Si02
#       8
#     8   8   8   8   8   8   4   8
#     4  10  20  37  57  85 119 148 200 254 302 374
#     4   9  21  42  64  94 133 170 214 272 332 381
#     4  10  20  39  62  82 114 165 196 246 320 365
#     4   9  20  39  56  85 119 154 199 248 304 373
#     4  11  24  39  62  87 126 161 209 259 309 387
#     4  12  26  38  62  97 131 169 218 272 318 384
#     4  10  21  34  62  89 112 162 198 246 319 372
#     4   9  21  43  68  90 125 175 220 269 325 380
#
# _framework density 20.177053000000001
#
# number of rings (size 3 to 8) (size 9 to 14) (size 15 to 20)
#    0.000    2.000    1.333    2.600    3.733    4.533 
#    0.000    0.000    0.000    0.400    0.000    0.000 
#    0.000    0.000    0.000    0.000    0.000    0.000 
#
# Total GULP energy -743455.446067 kJ/mol
# GULP energy per Si atom -12390.924101 kJ/mol
# Density = 2.013113 g / cm^3
# Si number density = 20.177053 Si / 1000 Ang^3
#
#
#
# Elastic Constant Matrix: (Units=GPa)
#
#
# Indices 1 2 3 4 5 6 
#
# 1 92.2348 39.1589 38.4641 0.0000 0.0000 0.0000
# 2 39.1589 92.2335 38.4643 0.0000 0.0000 0.0000
# 3 38.4641 38.4643 88.8547 0.0000 0.0000 0.0000
# 4 0.0000 0.0000 0.0000 25.9387 0.0000 0.0000
# 5 0.0000 0.0000 0.0000 0.0000 25.9386 0.0000
# 6 0.0000 0.0000 0.0000 0.0000 0.0000 15.6108
#
#
#
# Elastic Compliance Matrix: (Units=1/GPa)
#
#
# Indices 1 2 3 4 5 6 
#
# 1 0.014518 -0.004323 -0.004413 0.000000 0.000000 0.000000
# 2 -0.004323 0.014518 -0.004413 0.000000 0.000000 0.000000
# 3 -0.004413 -0.004413 0.015075 0.000000 0.000000 0.000000
# 4 0.000000 0.000000 0.000000 0.038552 0.000000 0.000000
# 5 0.000000 0.000000 0.000000 0.000000 0.038553 0.000000
# 6 0.000000 0.000000 0.000000 0.000000 0.000000 0.064058
#
#
# Mechanical properties :
#
#
# Convention : Reuss Voigt Hill
#
# Bulk Modulus (GPa) = 56.14265 56.16641 56.15453
# Shear Modulus (GPa) = 22.98741 23.98001 23.48371
#
# Velocity S-wave (km/s) = 3.37899 3.45117 3.41527
# Velocity P-wave (km/s) = 6.56573 6.61649 6.59116
#
# Compressibility (1/GPa) = 0.01781177
#
# Stress axis : x y z
#
# Youngs Moduli (GPa) = 68.88131 68.88002 66.33451
#
# Poissons Ratio (x) = 0.29779 0.29274
# Poissons Ratio (y) = 0.29779 0.29275
# Poissons Ratio (z) = 0.30398 0.30398
#
# Static dielectric constant tensor:
#      x y z
#    x 3.638820 0.000000 0.000000 
#    y 0.000000 3.638820 0.000000 
#    z 0.000000 0.000000 2.930170 
# 
# 
# High freq. dielectric constant tensor:
#      x y z
#    x 1.784080 0.000000 0.000000 
#    y 0.000000 1.784080 0.000000 
#    z 0.000000 0.000000 1.781910 
# 
# From -- ./inp_files/2846.got.cif
#   From: 2010.03.12/outbox.cif.g09.slc.cpg/sg90_2_cif.got.tgz:2846.got - 2010.04.08 20:26:03.
