data_PCOD8304671
_publ_section_title
;
Structure prediction by ZEFSAII (Michael W. Deem and Ramdas Pophale) SiO2 
 PCOD8304671
Probable space group: P 4 21 2
;
_chemical_formula_sum "Si O2"
_cell_formula_units_Z 48
_cell_length_a 8.366336
_cell_length_b 8.366336
_cell_length_c 33.160118
_cell_angle_alpha 90.000000
_cell_angle_beta 90.000000
_cell_angle_gamma 90.000000
_cell_volume 2321.061628
_symmetry_space_group_name_H-M "P 4 21 2"
_symmetry_group_IT_number 90
_symmetry_cell_setting 'tetragonal'
loop_
_space_group_symop_operation_xyz
x,y,z
1/2-y,1/2+x,z
-x,-y,z
1/2+y,1/2-x,z
1/2+x,1/2-y,-z
1/2-x,1/2+y,-z
y,x,-z
-y,-x,-z
loop_
_atom_site_type_symbol
_atom_site_label
_atom_site_fract_x
_atom_site_fract_y
_atom_site_fract_z
Si Si1 0.578385 0.743332 0.963618
Si Si2 0.500000 0.500000 0.315929
Si Si3 0.429264 0.747909 0.164168
Si Si4 0.926730 0.248370 0.377331
Si Si5 0.000000 0.000000 0.898238
Si Si6 0.927114 0.752156 0.745695
Si Si7 0.928666 0.247726 0.467767
O O1 0.394373 0.802245 0.964819
O O2 0.597528 0.630907 0.924375
O O3 0.625037 0.625037 0.000000
O O4 0.388235 0.390965 0.344581
O O5 0.391344 0.612131 0.287290
O O6 0.306334 0.890360 0.158008
O O7 0.395821 0.616222 0.130281
O O8 0.407610 0.676589 0.209200
O O9 0.804913 0.391939 0.370675
O O10 0.906851 0.178955 0.422536
O O11 0.805205 0.608400 0.739305
O O12 0.806533 0.392627 0.474622
O O13 0.890517 0.109484 0.500000
#
# Coordination Sequence:
#
# PCOD8304671 Si02
#       7
#     8   4   8   8   4   8   8
#     4  11  24  41  60  84 117 156 196 240 288 337
#     4  12  19  30  55  79  96 135 181 212 253 308
#     4   9  19  35  54  77 108 144 177 216 273 333
#     4   9  20  36  50  72 106 135 164 208 259 309
#     4  12  20  34  58  87 112 139 186 238 280 328
#     4   9  19  35  52  75 107 138 174 220 264 311
#     4   9  19  35  53  73  99 130 165 206 251 301
#
# _framework density 20.680191000000001
#
# number of rings (size 3 to 8) (size 9 to 14) (size 15 to 20)
#    0.000    2.167    0.000    5.750    0.000    3.000 
#    0.000    1.667    0.000    2.000    0.000   14.000 
#    0.000    0.000    0.000    0.000    0.000    0.000 
#
# Total GULP energy -595072.497209 kJ/mol
# GULP energy per Si atom -12397.343692 kJ/mol
# Density = 2.063312 g / cm^3
# Si number density = 20.680191 Si / 1000 Ang^3
#
#
#
# Elastic Constant Matrix: (Units=GPa)
#
#
# Indices 1 2 3 4 5 6 
#
# 1 55.2154 9.3943 41.8029 0.0000 0.0000 0.0000
# 2 9.3943 55.2160 41.8031 0.0000 0.0000 0.0000
# 3 41.8029 41.8031 154.8069 0.0000 0.0000 0.0000
# 4 0.0000 0.0000 0.0000 29.4899 0.0000 0.0000
# 5 0.0000 0.0000 0.0000 0.0000 29.4899 0.0000
# 6 0.0000 0.0000 0.0000 0.0000 0.0000 25.8562
#
#
#
# Elastic Compliance Matrix: (Units=1/GPa)
#
#
# Indices 1 2 3 4 5 6 
#
# 1 0.022807 0.000983 -0.006424 0.000000 0.000000 0.000000
# 2 0.000983 0.022807 -0.006424 0.000000 0.000000 0.000000
# 3 -0.006424 -0.006424 0.009929 0.000000 0.000000 0.000000
# 4 0.000000 0.000000 0.000000 0.033910 0.000000 0.000000
# 5 0.000000 0.000000 0.000000 0.000000 0.033910 0.000000
# 6 0.000000 0.000000 0.000000 0.000000 0.000000 0.038675
#
#
# Mechanical properties :
#
#
# Convention : Reuss Voigt Hill
#
# Bulk Modulus (GPa) = 31.43341 50.13767 40.78554
# Shear Modulus (GPa) = 25.46167 28.44972 26.95569
#
# Velocity S-wave (km/s) = 3.51267 3.71307 3.61426
# Velocity P-wave (km/s) = 5.62890 6.53295 6.09770
#
# Compressibility (1/GPa) = 0.03181328
#
# Stress axis : x y z
#
# Youngs Moduli (GPa) = 43.84555 43.84606 100.71330
#
# Poissons Ratio (x) = -0.04312 0.64701
# Poissons Ratio (y) = -0.04311 0.64700
# Poissons Ratio (z) = 0.28168 0.28168
#
# Static dielectric constant tensor:
#      x y z
#    x 3.522330 0.000000 0.000000 
#    y 0.000000 3.522330 0.000000 
#    z 0.000000 0.000000 3.889400 
# 
# 
# High freq. dielectric constant tensor:
#      x y z
#    x 1.793910 0.000000 0.000000 
#    y 0.000000 1.793910 0.000000 
#    z 0.000000 0.000000 1.825720 
# 
# From -- ./inp_files/3058.got.cif
#   From: 2010.03.12/outbox.cif.g09.slc.cpg/sg90_2_cif.got.tgz:3058.got - 2010.04.08 20:26:03.
