data_PCOD8304453
_publ_section_title
;
Structure prediction by ZEFSAII (Michael W. Deem and Ramdas Pophale) SiO2 
 PCOD8304453
Probable space group: I 41/A
;
_chemical_formula_sum "Si O2"
_cell_formula_units_Z 56
_cell_length_a 10.361231
_cell_length_b 10.361231
_cell_length_c 21.218902
_cell_angle_alpha 90.000000
_cell_angle_beta 90.000000
_cell_angle_gamma 90.000000
_cell_volume 2277.957512
_symmetry_space_group_name_H-M "I 41/A"
_symmetry_group_IT_number 88
_space_group.IT_coordinate_system_code '2'
_symmetry_cell_setting 'tetragonal'
loop_
_space_group_symop_operation_xyz
x,y,z
3/4-y,1/4+x,1/4+z
-x,1/2-y,z
1/4+y,1/4-x,1/4+z
-x,-y,-z
1/4+y,3/4-x,3/4-z
x,1/2+y,-z
3/4-y,3/4+x,3/4-z
1/2+x,1/2+y,1/2+z
1/4-y,3/4+x,3/4+z
1/2-x,-y,1/2+z
3/4+y,3/4-x,3/4+z
1/2-x,1/2-y,1/2-z
3/4+y,1/4-x,1/4-z
1/2+x,y,1/2-z
1/4-y,1/4+x,1/4-z
loop_
_atom_site_type_symbol
_atom_site_label
_atom_site_fract_x
_atom_site_fract_y
_atom_site_fract_z
Si Si1 0.254575 0.798288 0.320586
Si Si2 0.000000 0.750000 0.375000
Si Si3 0.856097 0.702894 0.056337
Si Si4 0.188210 0.089399 0.040399
Si Si5 0.500000 0.750000 0.625000
O O1 0.250000 0.750000 0.250000
O O2 0.312496 0.695659 0.370332
O O3 0.103969 0.829286 0.334152
O O4 0.337784 0.927933 0.328878
O O5 0.843634 0.561306 0.023297
O O6 0.000000 0.750000 0.050632
O O7 0.780242 0.817877 0.019389
O O8 0.073970 0.146695 0.082414
#
# Coordination Sequence:
#
# PCOD8304453 Si02
#       5
#    16   4  16  16   4
#     4  12  28  48  81 113 157 213 269 334 407 487
#     4  12  24  56  70 120 160 204 268 338 408 492
#     4  12  27  50  76 115 153 209 265 331 410 479
#     4  12  28  49  82 112 166 203 273 334 412 487
#     4  12  28  52  78 124 160 212 268 346 412 504
#
# _framework density 24.583425999999999
#
# number of rings (size 3 to 8) (size 9 to 14) (size 15 to 20)
#    0.000    0.000    4.286    4.286    6.000    0.000 
#    0.000    0.000    0.000    0.000    0.000    0.000 
#    0.000    0.000    0.000    0.000    0.000    0.000 
#
# Total GULP energy -347070.655899 kJ/mol
# GULP energy per Si atom -12395.380568 kJ/mol
# Density = 2.452747 g / cm^3
# Si number density = 24.583426 Si / 1000 Ang^3
#
#
#
# Elastic Constant Matrix: (Units=GPa)
#
#
# Indices 1 2 3 4 5 6 
#
# 1 149.6059 46.7159 52.4472 0.0000 0.0000 -3.6176
# 2 46.7159 149.6059 52.4472 0.0000 0.0000 3.6176
# 3 52.4472 52.4472 140.8071 0.0000 0.0000 0.0000
# 4 0.0000 0.0000 0.0000 29.7898 0.0000 0.0000
# 5 0.0000 0.0000 0.0000 0.0000 29.7898 0.0000
# 6 -3.6176 3.6176 0.0000 0.0000 0.0000 54.0818
#
#
#
# Elastic Compliance Matrix: (Units=1/GPa)
#
#
# Indices 1 2 3 4 5 6 
#
# 1 0.008062 -0.001703 -0.002369 0.000000 0.000000 0.000653
# 2 -0.001703 0.008062 -0.002369 0.000000 0.000000 -0.000653
# 3 -0.002369 -0.002369 0.008866 0.000000 0.000000 0.000000
# 4 0.000000 0.000000 0.000000 0.033569 0.000000 0.000000
# 5 0.000000 0.000000 0.000000 0.000000 0.033569 0.000000
# 6 0.000653 -0.000653 0.000000 0.000000 0.000000 0.018578
#
#
# Mechanical properties :
#
#
# Convention : Reuss Voigt Hill
#
# Bulk Modulus (GPa) = 82.57435 82.58215 82.57825
# Shear Modulus (GPa) = 39.17790 41.95951 40.56870
#
# Velocity S-wave (km/s) = 3.99641 4.13585 4.06673
# Velocity P-wave (km/s) = 7.41333 7.51482 7.46425
#
# Compressibility (1/GPa) = 0.01211030
#
# Stress axis : x y z
#
# Youngs Moduli (GPa) = 124.03633 124.03633 112.78467
#
# Poissons Ratio (x) = 0.21122 0.26715
# Poissons Ratio (y) = 0.21122 0.26715
# Poissons Ratio (z) = 0.29380 0.29380
#
# Static dielectric constant tensor:
#      x y z
#    x 4.855640 0.000000 0.000000 
#    y 0.000000 4.855640 0.000000 
#    z 0.000000 0.000000 4.391220 
# 
# 
# High freq. dielectric constant tensor:
#      x y z
#    x 1.995020 0.000000 0.000000 
#    y 0.000000 1.995020 0.000000 
#    z 0.000000 0.000000 1.968980 
# 
# From -- ./inp_files/4355.got.cif
#   From: 2010.03.12/outbox.cif.g09.slc.cpg/sg88_3_cif.got.tgz:4355.got - 2010.04.08 20:20:55.
