data_PCOD8304521
_publ_section_title
;
Structure prediction by ZEFSAII (Michael W. Deem and Ramdas Pophale) SiO2 
 PCOD8304521
Probable space group: P 4 2 2
;
_chemical_formula_sum "Si O2"
_cell_formula_units_Z 32
_cell_length_a 11.565654
_cell_length_b 11.565654
_cell_length_c 11.416251
_cell_angle_alpha 90.000000
_cell_angle_beta 90.000000
_cell_angle_gamma 90.000000
_cell_volume 1527.087422
_symmetry_space_group_name_H-M "P 4 2 2"
_symmetry_group_IT_number 89
_symmetry_cell_setting 'tetragonal'
loop_
_space_group_symop_operation_xyz
x,y,z
-y,x,z
-x,-y,z
y,-x,z
x,-y,-z
-x,y,-z
y,x,-z
-y,-x,-z
loop_
_atom_site_type_symbol
_atom_site_label
_atom_site_fract_x
_atom_site_fract_y
_atom_site_fract_z
Si Si1 0.074597 0.174677 0.194576
Si Si2 0.000000 0.322967 0.000000
Si Si3 0.366824 0.366824 0.500000
Si Si4 0.211749 0.561881 0.116163
Si Si5 0.339426 0.248756 0.740101
O O1 0.087603 0.237989 0.069032
O O2 0.129998 0.267742 0.282357
O O3 0.940039 0.150059 0.211490
O O4 0.920922 0.401267 0.086314
O O5 0.500000 0.337984 0.500000
O O6 0.319307 0.312835 0.618433
O O7 0.285464 0.672950 0.155387
O O8 0.215864 0.469992 0.223679
O O9 0.264780 0.500000 0.000000
#
# Coordination Sequence:
#
# PCOD8304521 Si02
#       5
#     8   4   4   8   8
#     4  11  24  41  67  99 136 184 232 282 350 427
#     4  12  23  41  64 104 154 187 225 282 368 440
#     4  11  24  48  74  97 136 192 242 295 346 416
#     4  12  25  40  65 105 147 184 222 285 360 431
#     4  12  25  45  70 101 140 185 238 289 355 420
#
# _framework density 20.954924999999999
#
# number of rings (size 3 to 8) (size 9 to 14) (size 15 to 20)
#    0.000    0.375    7.500    1.875    0.000    1.500 
#    0.000    2.500    0.000    3.000    0.000    0.000 
#    0.000    0.000    0.000    0.000    0.000    0.000 
#
# Total GULP energy -396430.110081 kJ/mol
# GULP energy per Si atom -12388.440940 kJ/mol
# Density = 2.090723 g / cm^3
# Si number density = 20.954925 Si / 1000 Ang^3
#
#
#
# Elastic Constant Matrix: (Units=GPa)
#
#
# Indices 1 2 3 4 5 6 
#
# 1 97.4004 51.5499 25.8828 0.0000 0.0000 0.0000
# 2 51.5499 97.4004 25.8828 0.0000 0.0000 0.0000
# 3 25.8828 25.8828 93.8610 0.0000 0.0000 0.0000
# 4 0.0000 0.0000 0.0000 32.2450 0.0000 0.0000
# 5 0.0000 0.0000 0.0000 0.0000 32.2450 0.0000
# 6 0.0000 0.0000 0.0000 0.0000 0.0000 40.0371
#
#
#
# Elastic Compliance Matrix: (Units=1/GPa)
#
#
# Indices 1 2 3 4 5 6 
#
# 1 0.014618 -0.007192 -0.002048 0.000000 0.000000 0.000000
# 2 -0.007192 0.014618 -0.002048 0.000000 0.000000 0.000000
# 3 -0.002048 -0.002048 0.011783 0.000000 0.000000 0.000000
# 4 0.000000 0.000000 0.000000 0.031013 0.000000 0.000000
# 5 0.000000 0.000000 0.000000 0.000000 0.031013 0.000000
# 6 0.000000 0.000000 0.000000 0.000000 0.000000 0.024977
#
#
# Mechanical properties :
#
#
# Convention : Reuss Voigt Hill
#
# Bulk Modulus (GPa) = 54.21946 55.03253 54.62600
# Shear Modulus (GPa) = 31.89927 33.26185 32.58056
#
# Velocity S-wave (km/s) = 3.90587 3.98842 3.94736
# Velocity P-wave (km/s) = 6.80233 6.89415 6.84839
#
# Compressibility (1/GPa) = 0.01844356
#
# Stress axis : x y z
#
# Youngs Moduli (GPa) = 68.41043 68.41043 84.86582
#
# Poissons Ratio (x) = 0.49204 0.17377
# Poissons Ratio (y) = 0.49204 0.17377
# Poissons Ratio (z) = 0.14007 0.14007
#
# Static dielectric constant tensor:
#      x y z
#    x 4.107970 0.000000 0.000000 
#    y 0.000000 4.107970 0.000000 
#    z 0.000000 0.000000 -4.176850 
# 
# 
# High freq. dielectric constant tensor:
#      x y z
#    x 1.835610 0.000000 0.000000 
#    y 0.000000 1.835610 0.000000 
#    z 0.000000 0.000000 1.780990 
# 
# From -- ./inp_files/1585.got.cif
#   From: 2010.03.12/outbox.cif.g09.slc.cpg/sg89_1_cif.got.tgz:1585.got - 2010.04.08 20:24:03.
