data_PCOD8304654
_publ_section_title
;
Structure prediction by ZEFSAII (Michael W. Deem and Ramdas Pophale) SiO2 
 PCOD8304654
Probable space group: P 4 21 2
;
_chemical_formula_sum "Si O2"
_cell_formula_units_Z 32
_cell_length_a 8.384563
_cell_length_b 8.384563
_cell_length_c 20.537865
_cell_angle_alpha 90.000000
_cell_angle_beta 90.000000
_cell_angle_gamma 90.000000
_cell_volume 1443.830326
_symmetry_space_group_name_H-M "P 4 21 2"
_symmetry_group_IT_number 90
_symmetry_cell_setting 'tetragonal'
loop_
_space_group_symop_operation_xyz
x,y,z
1/2-y,1/2+x,z
-x,-y,z
1/2+y,1/2-x,z
1/2+x,1/2-y,-z
1/2-x,1/2+y,-z
y,x,-z
-y,-x,-z
loop_
_atom_site_type_symbol
_atom_site_label
_atom_site_fract_x
_atom_site_fract_y
_atom_site_fract_z
Si Si1 0.085727 0.253878 0.445657
Si Si2 0.243732 0.600823 0.817342
Si Si3 0.256540 0.104222 0.938669
Si Si4 0.742640 0.899596 0.700136
O O1 0.199195 0.404317 0.455804
O O2 0.122171 0.122171 0.500000
O O3 0.118865 0.187834 0.372953
O O4 0.205456 0.415366 0.822968
O O5 0.361623 0.654648 0.874326
O O6 0.335163 0.624088 0.749114
O O7 0.417608 0.206533 0.940193
O O8 0.148058 0.148058 0.000000
O O9 0.584064 0.796350 0.712239
#
# Coordination Sequence:
#
# PCOD8304654 Si02
#       4
#     8   8   8   8
#     4   9  19  35  54  78 109 143 181 227 276 328
#     4  11  24  39  56  83 116 147 183 227 274 326
#     4  11  24  41  62  88 116 147 185 227 270 320
#     4   9  19  37  58  79 106 143 186 229 275 328
#
# _framework density 22.163269
#
# number of rings (size 3 to 8) (size 9 to 14) (size 15 to 20)
#    0.000    2.000    0.000    4.500    0.000   13.000 
#    0.000    7.500    0.000    0.000    0.000    0.000 
#    0.000    0.000    0.000    0.000    0.000    0.000 
#
# Total GULP energy -396897.527991 kJ/mol
# GULP energy per Si atom -12403.047750 kJ/mol
# Density = 2.211282 g / cm^3
# Si number density = 22.163269 Si / 1000 Ang^3
#
#
#
# Elastic Constant Matrix: (Units=GPa)
#
#
# Indices 1 2 3 4 5 6 
#
# 1 22.3528 -11.8683 9.3977 0.0000 0.0000 0.0000
# 2 -11.8683 22.3528 9.3977 0.0000 0.0000 0.0000
# 3 9.3977 9.3977 132.2462 0.0000 0.0000 0.0000
# 4 0.0000 0.0000 0.0000 -6.2291 0.0000 0.0000
# 5 0.0000 0.0000 0.0000 0.0000 -6.2291 0.0000
# 6 0.0000 0.0000 0.0000 0.0000 0.0000 36.9811
#
#
#
# Elastic Compliance Matrix: (Units=1/GPa)
#
#
# Indices 1 2 3 4 5 6 
#
# 1 0.069263 0.040041 -0.007767 0.000000 0.000000 0.000000
# 2 0.040041 0.069263 -0.007767 0.000000 0.000000 0.000000
# 3 -0.007767 -0.007767 0.008666 0.000000 0.000000 0.000000
# 4 0.000000 0.000000 0.000000 -0.160537 0.000000 0.000000
# 5 0.000000 0.000000 0.000000 0.000000 -0.160537 0.000000
# 6 0.000000 0.000000 0.000000 0.000000 0.000000 0.027041
#
#
# Mechanical properties :
#
#
# Convention : Reuss Voigt Hill
#
# Bulk Modulus (GPa) = 5.09672 21.20065 13.14868
# Shear Modulus (GPa) = -38.32778 16.23957 -11.04411
#
# Velocity S-wave (km/s) = -4.16304 2.70982 -2.23470
# Velocity P-wave (km/s) = 4.56106 4.40197 0.84439
#
# Compressibility (1/GPa) = 0.19620458
#
# Stress axis : x y z
#
# Youngs Moduli (GPa) = 14.43772 14.43772 115.39893
#
# Poissons Ratio (x) = -0.57810 0.89635
# Poissons Ratio (y) = -0.57810 0.89635
# Poissons Ratio (z) = 0.11214 0.11214
#
# Static dielectric constant tensor:
#      x y z
#    x 3.870400 0.000000 0.000000 
#    y 0.000000 3.870400 0.000000 
#    z 0.000000 0.000000 4.073730 
# 
# 
# High freq. dielectric constant tensor:
#      x y z
#    x 1.871770 0.000000 0.000000 
#    y 0.000000 1.871770 0.000000 
#    z 0.000000 0.000000 1.882780 
# 
# From -- ./inp_files/2697.got.cif
#   From: 2010.03.12/outbox.cif.g09.slc.cpg/sg90_2_cif.got.tgz:2697.got - 2010.04.08 20:26:03.
