data_PCOD8304562
_publ_section_title
;
Structure prediction by ZEFSAII (Michael W. Deem and Ramdas Pophale) SiO2 
 PCOD8304562
Probable space group: P 4 21 2
;
_chemical_formula_sum "Si O2"
_cell_formula_units_Z 40
_cell_length_a 19.536559
_cell_length_b 19.536559
_cell_length_c 5.106748
_cell_angle_alpha 90.000000
_cell_angle_beta 90.000000
_cell_angle_gamma 90.000000
_cell_volume 1949.128959
_symmetry_space_group_name_H-M "P 4 21 2"
_symmetry_group_IT_number 90
_symmetry_cell_setting 'tetragonal'
loop_
_space_group_symop_operation_xyz
x,y,z
1/2-y,1/2+x,z
-x,-y,z
1/2+y,1/2-x,z
1/2+x,1/2-y,-z
1/2-x,1/2+y,-z
y,x,-z
-y,-x,-z
loop_
_atom_site_type_symbol
_atom_site_label
_atom_site_fract_x
_atom_site_fract_y
_atom_site_fract_z
Si Si1 0.575817 0.531860 0.755160
Si Si2 0.279256 0.179115 0.130695
Si Si3 0.038849 0.211325 0.880097
Si Si4 0.003600 0.292178 0.397484
Si Si5 0.145814 0.357511 0.369329
O O1 0.500000 0.500000 0.751495
O O2 0.580777 0.580777 0.500000
O O3 0.632044 0.473183 0.802663
O O4 0.583313 0.583313 0.000000
O O5 0.313680 0.190803 0.417805
O O6 0.222065 0.119912 0.157061
O O7 0.246102 0.246102 0.000000
O O8 0.337417 0.157554 0.929859
O O9 0.994890 0.253191 0.670393
O O10 0.014395 0.235742 0.167609
O O11 0.937054 0.338133 0.369848
O O12 0.066150 0.344991 0.427381
#
# Coordination Sequence:
#
# PCOD8304562 Si02
#       5
#     8   8   8   8   8
#     4  10  21  36  54  82 116 150 193 239 279 347
#     4  10  21  37  60  87 112 152 205 239 279 348
#     4  10  21  38  58  85 115 156 187 242 300 333
#     4  10  21  39  62  84 121 151 193 245 294 359
#     4  10  21  39  60  90 117 152 198 242 297 347
#
# _framework density 20.521989999999999
#
# number of rings (size 3 to 8) (size 9 to 14) (size 15 to 20)
#    0.000    2.000    0.000    3.000    2.800    0.400 
#    7.200   10.000    0.000    7.200    0.000    0.000 
#    0.000    0.000    0.000    0.000    0.000    0.000 
#
# Total GULP energy -495612.549089 kJ/mol
# GULP energy per Si atom -12390.313727 kJ/mol
# Density = 2.047528 g / cm^3
# Si number density = 20.521990 Si / 1000 Ang^3
#
#
#
# Elastic Constant Matrix: (Units=GPa)
#
#
# Indices 1 2 3 4 5 6 
#
# 1 76.2646 35.3913 4.7321 0.0000 0.0000 0.0000
# 2 35.3913 76.2646 4.7321 0.0000 0.0000 0.0000
# 3 4.7321 4.7321 121.8771 0.0000 0.0000 0.0000
# 4 0.0000 0.0000 0.0000 21.4268 0.0000 0.0000
# 5 0.0000 0.0000 0.0000 0.0000 21.4268 0.0000
# 6 0.0000 0.0000 0.0000 0.0000 0.0000 34.1064
#
#
#
# Elastic Compliance Matrix: (Units=1/GPa)
#
#
# Indices 1 2 3 4 5 6 
#
# 1 0.016726 -0.007740 -0.000349 0.000000 0.000000 0.000000
# 2 -0.007740 0.016726 -0.000349 0.000000 0.000000 0.000000
# 3 -0.000349 -0.000349 0.008232 0.000000 0.000000 0.000000
# 4 0.000000 0.000000 0.000000 0.046670 0.000000 0.000000
# 5 0.000000 0.000000 0.000000 0.000000 0.046670 0.000000
# 6 0.000000 0.000000 0.000000 0.000000 0.000000 0.029320
#
#
# Mechanical properties :
#
#
# Convention : Reuss Voigt Hill
#
# Bulk Modulus (GPa) = 40.30982 40.45750 40.38366
# Shear Modulus (GPa) = 26.38670 30.69541 28.54105
#
# Velocity S-wave (km/s) = 3.58966 3.87167 3.73333
# Velocity P-wave (km/s) = 6.07172 6.30424 6.18907
#
# Compressibility (1/GPa) = 0.02480785
#
# Stress axis : x y z
#
# Youngs Moduli (GPa) = 59.78806 59.78806 121.47602
#
# Poissons Ratio (x) = 0.46276 0.04238
# Poissons Ratio (y) = 0.46276 0.04238
# Poissons Ratio (z) = 0.02086 0.02086
#
# Static dielectric constant tensor:
#      x y z
#    x 3.567450 0.000000 0.000000 
#    y 0.000000 3.567450 0.000000 
#    z 0.000000 0.000000 -2.773580 
# 
# 
# High freq. dielectric constant tensor:
#      x y z
#    x 1.781950 0.000000 0.000000 
#    y 0.000000 1.781950 0.000000 
#    z 0.000000 0.000000 1.836500 
# 
# From -- ./inp_files/432.got.cif
#   From: 2010.03.12/outbox.cif.g09.slc.cpg/sg90_1_cif.got.tgz:432.got - 2010.04.08 20:26:03.
