data_PCOD8304748
_publ_section_title
;
Structure prediction by ZEFSAII (Michael W. Deem and Ramdas Pophale) SiO2 
 PCOD8304748
Probable space group: P 41 2 2
;
_chemical_formula_sum "Si O2"
_cell_formula_units_Z 64
_cell_length_a 11.333905
_cell_length_b 11.333905
_cell_length_c 24.209354
_cell_angle_alpha 90.000000
_cell_angle_beta 90.000000
_cell_angle_gamma 90.000000
_cell_volume 3109.870732
_symmetry_space_group_name_H-M "P 41 2 2"
_symmetry_group_IT_number 91
_symmetry_cell_setting 'tetragonal'
loop_
_space_group_symop_operation_xyz
x,y,z
-y,x,1/4+z
-x,-y,1/2+z
y,-x,3/4+z
x,-y,1/2-z
-x,y,-z
y,x,3/4-z
-y,-x,1/4-z
loop_
_atom_site_type_symbol
_atom_site_label
_atom_site_fract_x
_atom_site_fract_y
_atom_site_fract_z
Si Si1 0.098674 0.495521 0.421599
Si Si2 0.420969 0.116655 0.450072
Si Si3 0.637320 0.871270 0.665111
Si Si4 0.947018 0.116855 0.069201
Si Si5 0.139450 0.018231 0.324774
Si Si6 0.247097 0.849766 0.784500
Si Si7 0.600547 0.151558 0.955780
Si Si8 0.787381 0.715752 0.975298
O O1 0.108739 0.501093 0.354958
O O2 0.123266 0.618304 0.451154
O O3 0.196083 0.399654 0.438282
O O4 0.968192 0.452762 0.440442
O O5 0.500000 0.160356 0.500000
O O6 0.319183 0.213597 0.448048
O O7 0.368885 0.986691 0.462959
O O8 0.575010 0.819928 0.609383
O O9 0.668649 0.772036 0.711328
O O10 0.761560 0.932316 0.649357
O O11 0.871273 0.128727 0.125000
O O12 0.082623 0.162033 0.078589
O O13 0.894095 0.207614 0.025825
O O14 0.950491 0.978032 0.052227
O O15 0.103468 0.103468 0.375000
O O16 0.198306 0.097099 0.275762
O O17 0.231845 0.711389 0.780866
O O18 0.500000 0.188715 0.000000
#
# Coordination Sequence:
#
# PCOD8304748 Si02
#       8
#     8   8   8   8   8   8   8   8
#     4  10  22  41  57  91 127 167 210 262 325 407
#     4  10  22  38  63  93 121 160 210 279 337 389
#     4  10  22  34  62  91 121 166 210 268 331 396
#     4  10  23  36  57  93 131 173 221 265 331 405
#     4  10  18  34  55  92 130 160 203 267 336 401
#     4  11  24  38  64  86 134 181 219 268 334 403
#     4  10  22  42  59  91 127 172 218 265 330 396
#     4  11  21  35  65  88 123 158 212 273 343 387
#
# _framework density 20.579635
#
# number of rings (size 3 to 8) (size 9 to 14) (size 15 to 20)
#    0.000    1.750    0.000    6.375   10.500    3.000 
#    0.000    0.625    0.000    0.000    0.000    0.000 
#    0.000    0.000    0.000    0.000    0.000    0.000 
#
# Total GULP energy -792873.499510 kJ/mol
# GULP energy per Si atom -12388.648430 kJ/mol
# Density = 2.053279 g / cm^3
# Si number density = 20.579635 Si / 1000 Ang^3
#
#
#
# Elastic Constant Matrix: (Units=GPa)
#
#
# Indices 1 2 3 4 5 6 
#
# 1 99.1482 43.9150 32.5132 0.0000 0.0000 0.0000
# 2 43.9150 99.1478 32.5133 0.0000 0.0000 0.0000
# 3 32.5132 32.5133 121.6280 0.0000 0.0000 0.0000
# 4 0.0000 0.0000 0.0000 32.7696 0.0000 0.0000
# 5 0.0000 0.0000 0.0000 0.0000 32.7696 0.0000
# 6 0.0000 0.0000 0.0000 0.0000 0.0000 20.7728
#
#
#
# Elastic Compliance Matrix: (Units=1/GPa)
#
#
# Indices 1 2 3 4 5 6 
#
# 1 0.013031 -0.005074 -0.002127 0.000000 0.000000 0.000000
# 2 -0.005074 0.013031 -0.002127 0.000000 0.000000 0.000000
# 3 -0.002127 -0.002127 0.009359 0.000000 0.000000 0.000000
# 4 0.000000 0.000000 0.000000 0.030516 0.000000 0.000000
# 5 0.000000 0.000000 0.000000 0.000000 0.030516 0.000000
# 6 0.000000 0.000000 0.000000 0.000000 0.000000 0.048140
#
#
# Mechanical properties :
#
#
# Convention : Reuss Voigt Hill
#
# Bulk Modulus (GPa) = 59.64992 59.75634 59.70313
# Shear Modulus (GPa) = 29.61432 31.32789 30.47110
#
# Velocity S-wave (km/s) = 3.79754 3.90587 3.85209
# Velocity P-wave (km/s) = 6.94812 7.03141 6.98989
#
# Compressibility (1/GPa) = 0.01676448
#
# Stress axis : x y z
#
# Youngs Moduli (GPa) = 76.74078 76.74038 106.84969
#
# Poissons Ratio (x) = 0.38940 0.22726
# Poissons Ratio (y) = 0.38940 0.22727
# Poissons Ratio (z) = 0.16322 0.16323
#
# Static dielectric constant tensor:
#      x y z
#    x 3.593250 0.000000 0.000000 
#    y 0.000000 3.593240 0.000000 
#    z 0.000000 0.000000 3.952380 
# 
# 
# High freq. dielectric constant tensor:
#      x y z
#    x 1.777790 0.000000 0.000000 
#    y 0.000000 1.777790 0.000000 
#    z 0.000000 0.000000 1.826600 
# 
# From -- ./inp_files/22041.got.cif
#   From: 2010.03.12/outbox.cif.g09.slc.cpg/sg91_12_cif.got.tgz:22041.got - 2010.04.08 20:27:58.
