data_PCOD8304889
_publ_section_title
;
Structure prediction by ZEFSAII (Michael W. Deem and Ramdas Pophale) SiO2 
 PCOD8304889
Probable space group: P 41 2 2
;
_chemical_formula_sum "Si O2"
_cell_formula_units_Z 44
_cell_length_a 8.542177
_cell_length_b 8.542177
_cell_length_c 29.286246
_cell_angle_alpha 90.000000
_cell_angle_beta 90.000000
_cell_angle_gamma 90.000000
_cell_volume 2136.981873
_symmetry_space_group_name_H-M "P 41 2 2"
_symmetry_group_IT_number 91
_symmetry_cell_setting 'tetragonal'
loop_
_space_group_symop_operation_xyz
x,y,z
-y,x,1/4+z
-x,-y,1/2+z
y,-x,3/4+z
x,-y,1/2-z
-x,y,-z
y,x,3/4-z
-y,-x,1/4-z
loop_
_atom_site_type_symbol
_atom_site_label
_atom_site_fract_x
_atom_site_fract_y
_atom_site_fract_z
Si Si1 0.508943 0.419340 0.793337
Si Si2 0.047590 0.349583 0.097851
Si Si3 0.217360 0.418524 0.341364
Si Si4 0.692789 0.692789 0.375000
Si Si5 0.922829 0.384984 0.455489
Si Si6 0.039102 0.203374 0.639147
O O1 0.424812 0.500000 0.750000
O O2 0.657610 0.533792 0.803302
O O3 0.378090 0.404990 0.832553
O O4 0.575828 0.251898 0.780141
O O5 0.877589 0.333991 0.121604
O O6 0.025573 0.457019 0.053120
O O7 0.165877 0.423184 0.134244
O O8 0.136660 0.190119 0.083935
O O9 0.297620 0.297620 0.375000
O O10 0.059928 0.319639 0.326990
O O11 0.920454 0.288536 0.408655
O O12 0.000000 0.299801 0.500000
O O13 0.951478 0.048523 0.625000
#
# Coordination Sequence:
#
# PCOD8304889 Si02
#       6
#     8   8   8   4   8   8
#     4  11  23  38  64  91 125 165 211 263 310 375
#     4  10  20  40  65  86 122 166 211 247 325 369
#     4  10  21  36  61  91 118 160 204 254 303 373
#     4  10  22  42  64  90 124 164 210 262 310 378
#     4  10  23  39  60  92 128 162 208 264 314 379
#     4  10  20  37  66  88 118 167 206 253 316 387
#
# _framework density 20.589784999999999
#
# number of rings (size 3 to 8) (size 9 to 14) (size 15 to 20)
#    0.000    1.818    3.636    0.000    7.636    0.000 
#    0.000    1.818    4.000    0.000    0.000    0.000 
#    0.000    0.000    0.000    0.000    0.000    0.000 
#
# Total GULP energy -545082.636146 kJ/mol
# GULP energy per Si atom -12388.241731 kJ/mol
# Density = 2.054292 g / cm^3
# Si number density = 20.589785 Si / 1000 Ang^3
#
#
#
# Elastic Constant Matrix: (Units=GPa)
#
#
# Indices 1 2 3 4 5 6 
#
# 1 97.1532 30.8688 21.1574 0.0000 0.0000 0.0000
# 2 30.8688 97.1533 21.1571 0.0000 0.0000 0.0000
# 3 21.1574 21.1571 75.8512 0.0000 0.0000 0.0000
# 4 0.0000 0.0000 0.0000 20.5894 0.0000 0.0000
# 5 0.0000 0.0000 0.0000 0.0000 20.5911 0.0000
# 6 0.0000 0.0000 0.0000 0.0000 0.0000 46.6884
#
#
#
# Elastic Compliance Matrix: (Units=1/GPa)
#
#
# Indices 1 2 3 4 5 6 
#
# 1 0.011845 -0.003241 -0.002400 0.000000 0.000000 0.000000
# 2 -0.003241 0.011845 -0.002400 0.000000 0.000000 0.000000
# 3 -0.002400 -0.002400 0.014523 0.000000 0.000000 0.000000
# 4 0.000000 0.000000 0.000000 0.048569 0.000000 0.000000
# 5 0.000000 0.000000 0.000000 0.000000 0.048565 0.000000
# 6 0.000000 0.000000 0.000000 0.000000 0.000000 0.021419
#
#
# Mechanical properties :
#
#
# Convention : Reuss Voigt Hill
#
# Bulk Modulus (GPa) = 45.18489 46.28048 45.73269
# Shear Modulus (GPa) = 27.74312 30.70540 29.22426
#
# Velocity S-wave (km/s) = 3.67471 3.86592 3.77152
# Velocity P-wave (km/s) = 6.32436 6.51562 6.42070
#
# Compressibility (1/GPa) = 0.02213129
#
# Stress axis : x y z
#
# Youngs Moduli (GPa) = 84.42041 84.42058 68.85818
#
# Poissons Ratio (x) = 0.27361 0.16526
# Poissons Ratio (y) = 0.27361 0.16526
# Poissons Ratio (z) = 0.20262 0.20261
#
# Static dielectric constant tensor:
#      x y z
#    x 4.026140 0.000000 0.000000 
#    y 0.000000 4.026150 0.000000 
#    z 0.000000 0.000000 4.008700 
# 
# 
# High freq. dielectric constant tensor:
#      x y z
#    x 1.820140 0.000000 0.000000 
#    y 0.000000 1.820140 0.000000 
#    z 0.000000 0.000000 1.762810 
# 
# From -- ./inp_files/7867.got.cif
#   From: 2010.03.12/outbox.cif.g09.slc.cpg/sg91_4_cif.got.tgz:7867.got - 2010.04.08 20:27:58.
