data_PCOD8304339
_publ_section_title
;
Structure prediction by ZEFSAII (Michael W. Deem and Ramdas Pophale) SiO2 
 PCOD8304339
Probable space group: I 41/A
;
_chemical_formula_sum "Si O2"
_cell_formula_units_Z 104
_cell_length_a 16.522721
_cell_length_b 16.522721
_cell_length_c 18.896894
_cell_angle_alpha 90.000000
_cell_angle_beta 90.000000
_cell_angle_gamma 90.000000
_cell_volume 5158.857906
_symmetry_space_group_name_H-M "I 41/A"
_symmetry_group_IT_number 88
_space_group.IT_coordinate_system_code '2'
_symmetry_cell_setting 'tetragonal'
loop_
_space_group_symop_operation_xyz
x,y,z
3/4-y,1/4+x,1/4+z
-x,1/2-y,z
1/4+y,1/4-x,1/4+z
-x,-y,-z
1/4+y,3/4-x,3/4-z
x,1/2+y,-z
3/4-y,3/4+x,3/4-z
1/2+x,1/2+y,1/2+z
1/4-y,3/4+x,3/4+z
1/2-x,-y,1/2+z
3/4+y,3/4-x,3/4+z
1/2-x,1/2-y,1/2-z
3/4+y,1/4-x,1/4-z
1/2+x,y,1/2-z
1/4-y,1/4+x,1/4-z
loop_
_atom_site_type_symbol
_atom_site_label
_atom_site_fract_x
_atom_site_fract_y
_atom_site_fract_z
Si Si1 0.409519 0.528738 0.642941
Si Si2 0.197682 0.029301 0.473004
Si Si3 0.358730 0.104941 0.495937
Si Si4 0.441061 0.586440 0.362286
Si Si5 0.844316 0.512288 0.621245
Si Si6 0.500000 0.750000 0.858486
Si Si7 0.159173 0.214791 0.968918
O O1 0.403014 0.594175 0.579877
O O2 0.495394 0.484074 0.650399
O O3 0.341264 0.461485 0.635439
O O4 0.402486 0.579961 0.715559
O O5 0.288085 0.038727 0.504213
O O6 0.176549 0.109104 0.429938
O O7 0.139096 0.019177 0.541167
O O8 0.195496 0.951845 0.420163
O O9 0.425891 0.086734 0.554002
O O10 0.319240 0.193751 0.507570
O O11 0.471223 0.676647 0.340991
O O12 0.931591 0.533179 0.655482
O O13 0.462607 0.682517 0.806982
#
# Coordination Sequence:
#
# PCOD8304339 Si02
#       7
#    16  16  16  16  16   8  16
#     4  11  22  37  65  89 129 170 203 261 324 389
#     4  11  21  38  65  92 122 160 219 269 316 370
#     4  10  23  35  59  93 127 161 211 258 317 393
#     4  11  21  41  62  89 129 172 210 262 322 388
#     4  11  22  39  63  93 121 166 213 269 319 381
#     4  10  24  40  61  90 135 170 208 258 328 394
#     4  11  22  41  60  91 131 170 212 256 324 397
#
# _framework density 20.159500999999999
#
# number of rings (size 3 to 8) (size 9 to 14) (size 15 to 20)
#    0.000    1.231    6.154    0.462    0.000    2.462 
#    0.000    3.846    3.385    0.000    0.000    1.077 
#    0.000    0.000    0.000    0.000    0.000    0.000 
#
# Total GULP energy -644577.771222 kJ/mol
# GULP energy per Si atom -12395.726370 kJ/mol
# Density = 2.011362 g / cm^3
# Si number density = 20.159501 Si / 1000 Ang^3
#
#
#
# Elastic Constant Matrix: (Units=GPa)
#
#
# Indices 1 2 3 4 5 6 
#
# 1 75.5592 25.6532 30.8250 0.0000 0.0000 -0.0217
# 2 25.6532 75.5592 30.8250 0.0000 0.0000 0.0217
# 3 30.8250 30.8250 121.0866 0.0000 0.0000 0.0000
# 4 0.0000 0.0000 0.0000 21.7934 0.0000 0.0000
# 5 0.0000 0.0000 0.0000 0.0000 21.7934 0.0000
# 6 -0.0217 0.0217 0.0000 0.0000 0.0000 25.8494
#
#
#
# Elastic Compliance Matrix: (Units=1/GPa)
#
#
# Indices 1 2 3 4 5 6 
#
# 1 0.015866 -0.004172 -0.002977 0.000000 0.000000 0.000017
# 2 -0.004172 0.015866 -0.002977 0.000000 0.000000 -0.000017
# 3 -0.002977 -0.002977 0.009774 0.000000 0.000000 0.000000
# 4 0.000000 0.000000 0.000000 0.045885 0.000000 0.000000
# 5 0.000000 0.000000 0.000000 0.000000 0.045885 0.000000
# 6 0.000017 -0.000017 0.000000 0.000000 0.000000 0.038686
#
#
# Mechanical properties :
#
#
# Convention : Reuss Voigt Hill
#
# Bulk Modulus (GPa) = 47.05034 49.64570 48.34802
# Shear Modulus (GPa) = 25.08807 26.21402 25.65105
#
# Velocity S-wave (km/s) = 3.53154 3.60992 3.57095
# Velocity P-wave (km/s) = 6.32604 6.48501 6.40602
#
# Compressibility (1/GPa) = 0.02125383
#
# Stress axis : x y z
#
# Youngs Moduli (GPa) = 63.02959 63.02959 102.31063
#
# Poissons Ratio (x) = 0.26297 0.30456
# Poissons Ratio (y) = 0.26297 0.30456
# Poissons Ratio (z) = 0.18763 0.18763
#
# Static dielectric constant tensor:
#      x y z
#    x 3.702520 0.000000 0.000000 
#    y 0.000000 3.702520 0.000000 
#    z 0.000000 0.000000 3.896990 
# 
# 
# High freq. dielectric constant tensor:
#      x y z
#    x 1.776080 0.000000 0.000000 
#    y 0.000000 1.776080 0.000000 
#    z 0.000000 0.000000 1.789010 
# 
# From -- ./inp_files/3967.got.cif
#   From: 2010.03.12/outbox.cif.g09.slc.cpg/sg88_2_cif.got.tgz:3967.got - 2010.04.08 20:20:55.
