data_PCOD8304107
_publ_section_title
;
Structure prediction by ZEFSAII (Michael W. Deem and Ramdas Pophale) SiO2 
 PCOD8304107
Probable space group: I 4/M
;
_chemical_formula_sum "Si O2"
_cell_formula_units_Z 68
_cell_length_a 11.377603
_cell_length_b 11.377603
_cell_length_c 26.595071
_cell_angle_alpha 90.000000
_cell_angle_beta 90.000000
_cell_angle_gamma 90.000000
_cell_volume 3442.727952
_symmetry_space_group_name_H-M "I 4/M"
_symmetry_group_IT_number 87
_symmetry_cell_setting 'tetragonal'
loop_
_space_group_symop_operation_xyz
x,y,z
-y,x,z
-x,-y,z
y,-x,z
-x,-y,-z
y,-x,-z
x,y,-z
-y,x,-z
1/2+x,1/2+y,1/2+z
1/2-y,1/2+x,1/2+z
1/2-x,1/2-y,1/2+z
1/2+y,1/2-x,1/2+z
1/2-x,1/2-y,1/2-z
1/2+y,1/2-x,1/2-z
1/2+x,1/2+y,1/2-z
1/2-y,1/2+x,1/2-z
loop_
_atom_site_type_symbol
_atom_site_label
_atom_site_fract_x
_atom_site_fract_y
_atom_site_fract_z
Si Si1 0.938613 0.285841 0.181863
Si Si2 0.207033 0.690215 0.357276
Si Si3 0.409235 0.669191 0.057816
Si Si4 0.933799 0.173169 0.716687
Si Si5 0.000000 0.500000 0.750000
O O1 0.050638 0.270996 0.145062
O O2 0.825135 0.267882 0.146864
O O3 0.932142 0.182570 0.223170
O O4 0.935239 0.407290 0.213293
O O5 0.144086 0.725761 0.409060
O O6 0.118591 0.712536 0.310409
O O7 0.344005 0.547022 0.070057
O O8 0.390558 0.704164 0.000000
O O9 0.066239 0.149349 0.698957
#
# Coordination Sequence:
#
# PCOD8304107 Si02
#       5
#    16  16  16  16   4
#     4  12  24  37  54  82 127 163 201 233 291 352
#     4  12  24  38  58  87 118 165 198 244 294 355
#     4   9  20  42  69  92 113 143 194 254 305 353
#     4  11  21  37  57  79 113 158 207 241 281 344
#     4  12  24  36  52  88 130 156 192 260 288 336
#
# _framework density 19.751778999999999
#
# number of rings (size 3 to 8) (size 9 to 14) (size 15 to 20)
#    0.000    0.941    4.706    4.235    3.294    2.353 
#    0.000    1.176    0.000    2.824    0.000    1.647 
#    0.000    0.000    0.000    0.000    0.000    0.000 
#
# Total GULP energy -421612.243919 kJ/mol
# GULP energy per Si atom -12400.360115 kJ/mol
# Density = 1.970682 g / cm^3
# Si number density = 19.751779 Si / 1000 Ang^3
#
#
#
# Elastic Constant Matrix: (Units=GPa)
#
#
# Indices 1 2 3 4 5 6 
#
# 1 80.1951 20.3003 37.0185 0.0000 0.0000 6.6200
# 2 20.3003 80.1951 37.0185 0.0000 0.0000 -6.6200
# 3 37.0185 37.0185 105.5089 0.0000 0.0000 0.0000
# 4 0.0000 0.0000 0.0000 32.6837 0.0000 0.0000
# 5 0.0000 0.0000 0.0000 0.0000 32.6837 0.0000
# 6 6.6200 -6.6200 0.0000 0.0000 0.0000 16.8365
#
#
#
# Elastic Compliance Matrix: (Units=1/GPa)
#
#
# Indices 1 2 3 4 5 6 
#
# 1 0.015852 -0.002433 -0.004708 0.000000 0.000000 -0.007190
# 2 -0.002433 0.015852 -0.004708 0.000000 0.000000 0.007190
# 3 -0.004708 -0.004708 0.012782 0.000000 0.000000 0.000000
# 4 0.000000 0.000000 0.000000 0.030596 0.000000 0.000000
# 5 0.000000 0.000000 0.000000 0.000000 0.030596 0.000000
# 6 -0.007190 0.007190 0.000000 0.000000 0.000000 0.065049
#
#
# Mechanical properties :
#
#
# Convention : Reuss Voigt Hill
#
# Bulk Modulus (GPa) = 48.10607 50.50818 49.30712
# Shear Modulus (GPa) = 24.83168 27.87823 26.35496
#
# Velocity S-wave (km/s) = 3.54953 3.76097 3.65678
# Velocity P-wave (km/s) = 6.41927 6.66985 6.54576
#
# Compressibility (1/GPa) = 0.02078740
#
# Stress axis : x y z
#
# Youngs Moduli (GPa) = 63.08229 63.08229 78.23662
#
# Poissons Ratio (x) = 0.15347 0.36836
# Poissons Ratio (y) = 0.15347 0.36836
# Poissons Ratio (z) = 0.29701 0.29701
#
# Static dielectric constant tensor:
#      x y z
#    x 3.577520 0.000000 0.000000 
#    y 0.000000 3.577520 0.000000 
#    z 0.000000 0.000000 3.246160 
# 
# 
# High freq. dielectric constant tensor:
#      x y z
#    x 1.773270 0.000000 0.000000 
#    y 0.000000 1.773270 0.000000 
#    z 0.000000 0.000000 1.733690 
# 
# From -- ./inp_files/6444.got.cif
#   From: 2010.03.12/outbox.cif.g09.slc.cpg/sg87_4_cif.got.tgz:6444.got - 2010.04.08 20:16:13.
