data_PCOD8304688
_publ_section_title
;
Structure prediction by ZEFSAII (Michael W. Deem and Ramdas Pophale) SiO2 
 PCOD8304688
Probable space group: P 4 21 2
;
_chemical_formula_sum "Si O2"
_cell_formula_units_Z 28
_cell_length_a 7.935015
_cell_length_b 7.935015
_cell_length_c 19.308937
_cell_angle_alpha 90.000000
_cell_angle_beta 90.000000
_cell_angle_gamma 90.000000
_cell_volume 1215.776850
_symmetry_space_group_name_H-M "P 4 21 2"
_symmetry_group_IT_number 90
_symmetry_cell_setting 'tetragonal'
loop_
_space_group_symop_operation_xyz
x,y,z
1/2-y,1/2+x,z
-x,-y,z
1/2+y,1/2-x,z
1/2+x,1/2-y,-z
1/2-x,1/2+y,-z
y,x,-z
-y,-x,-z
loop_
_atom_site_type_symbol
_atom_site_label
_atom_site_fract_x
_atom_site_fract_y
_atom_site_fract_z
Si Si1 0.761449 0.096607 0.568466
Si Si2 0.589699 0.736212 0.295975
Si Si3 0.912685 0.765388 0.932773
Si Si4 0.000000 0.000000 0.817314
O O1 0.597963 0.213604 0.570308
O O2 0.868681 0.131320 0.500000
O O3 0.880685 0.136958 0.633105
O O4 0.395030 0.788738 0.291437
O O5 0.623472 0.612054 0.231289
O O6 0.789585 0.607048 0.931473
O O7 0.882058 0.881313 0.865371
O O8 0.877724 0.877724 0.000000
#
# Coordination Sequence:
#
# PCOD8304688 Si02
#       4
#     8   8   8   4
#     4  11  24  42  65  95 131 174 227 286 348 414
#     4  11  24  42  65  95 132 178 229 282 346 415
#     4  11  24  44  71 103 140 183 230 280 338 406
#     4  12  23  40  65  96 134 176 222 276 335 404
#
# _framework density 23.030542000000001
#
# number of rings (size 3 to 8) (size 9 to 14) (size 15 to 20)
#    0.000    0.857    0.000    7.286    0.000    7.429 
#    0.000    0.000    0.000    3.429    0.000    0.000 
#    0.000    0.000    0.000    0.000    0.000    0.000 
#
# Total GULP energy -347330.592237 kJ/mol
# GULP energy per Si atom -12404.664008 kJ/mol
# Density = 2.297812 g / cm^3
# Si number density = 23.030542 Si / 1000 Ang^3
#
#
#
# Elastic Constant Matrix: (Units=GPa)
#
#
# Indices 1 2 3 4 5 6 
#
# 1 120.8698 41.2865 70.3941 0.0000 0.0000 0.0000
# 2 41.2865 120.8711 70.3945 0.0000 0.0000 0.0000
# 3 70.3941 70.3945 228.4237 0.0000 0.0000 0.0000
# 4 0.0000 0.0000 0.0000 45.9086 0.0000 0.0000
# 5 0.0000 0.0000 0.0000 0.0000 45.9086 0.0000
# 6 0.0000 0.0000 0.0000 0.0000 0.0000 37.8102
#
#
#
# Elastic Compliance Matrix: (Units=1/GPa)
#
#
# Indices 1 2 3 4 5 6 
#
# 1 0.010493 -0.002073 -0.002595 0.000000 0.000000 0.000000
# 2 -0.002073 0.010492 -0.002595 0.000000 0.000000 0.000000
# 3 -0.002595 -0.002595 0.005977 0.000000 0.000000 0.000000
# 4 0.000000 0.000000 0.000000 0.021782 0.000000 0.000000
# 5 0.000000 0.000000 0.000000 0.000000 0.021782 0.000000
# 6 0.000000 0.000000 0.000000 0.000000 0.000000 0.026448
#
#
# Mechanical properties :
#
#
# Convention : Reuss Voigt Hill
#
# Bulk Modulus (GPa) = 80.40188 92.70164 86.55176
# Shear Modulus (GPa) = 43.23567 45.13143 44.18355
#
# Velocity S-wave (km/s) = 4.33750 4.43158 4.38479
# Velocity P-wave (km/s) = 7.75061 8.15624 7.95601
#
# Compressibility (1/GPa) = 0.01243752
#
# Stress axis : x y z
#
# Youngs Moduli (GPa) = 95.30556 95.30660 167.30565
#
# Poissons Ratio (x) = 0.19756 0.43411
# Poissons Ratio (y) = 0.19755 0.43411
# Poissons Ratio (z) = 0.24729 0.24729
#
# Static dielectric constant tensor:
#      x y z
#    x 4.187700 0.000000 0.000000 
#    y 0.000000 4.187700 0.000000 
#    z 0.000000 0.000000 4.348950 
# 
# 
# High freq. dielectric constant tensor:
#      x y z
#    x 1.915010 0.000000 0.000000 
#    y 0.000000 1.915010 0.000000 
#    z 0.000000 0.000000 1.927410 
# 
# From -- ./inp_files/2603.got.cif
#   From: 2010.03.12/outbox.cif.g09.slc.cpg/sg90_2_cif.got.tgz:2603.got - 2010.04.08 20:26:03.
