data_PCOD8304870
_publ_section_title
;
Structure prediction by ZEFSAII (Michael W. Deem and Ramdas Pophale) SiO2 
 PCOD8304870
Probable space group: P 41 2 2
;
_chemical_formula_sum "Si O2"
_cell_formula_units_Z 36
_cell_length_a 13.875591
_cell_length_b 13.875591
_cell_length_c 8.660746
_cell_angle_alpha 90.000000
_cell_angle_beta 90.000000
_cell_angle_gamma 90.000000
_cell_volume 1667.470971
_symmetry_space_group_name_H-M "P 41 2 2"
_symmetry_group_IT_number 91
_symmetry_cell_setting 'tetragonal'
loop_
_space_group_symop_operation_xyz
x,y,z
-y,x,1/4+z
-x,-y,1/2+z
y,-x,3/4+z
x,-y,1/2-z
-x,y,-z
y,x,3/4-z
-y,-x,1/4-z
loop_
_atom_site_type_symbol
_atom_site_label
_atom_site_fract_x
_atom_site_fract_y
_atom_site_fract_z
Si Si1 0.129502 0.870499 0.125000
Si Si2 0.636179 0.144739 0.388453
Si Si3 0.813751 0.733700 0.147678
Si Si4 0.207378 0.015210 0.912945
Si Si5 0.564797 0.113587 0.726026
O O1 0.212122 0.859260 0.251671
O O2 0.023983 0.859566 0.199096
O O3 0.701720 0.236274 0.335374
O O4 0.697096 0.047436 0.387984
O O5 0.599252 0.155904 0.562490
O O6 0.549477 0.135035 0.265068
O O7 0.874505 0.763108 0.301375
O O8 0.827474 0.619888 0.111562
O O9 0.150005 0.000000 0.750000
O O10 0.585537 0.000000 0.750000
#
# Coordination Sequence:
#
# PCOD8304870 Si02
#       5
#     4   8   8   8   8
#     4  10  20  36  60  90 116 176 216 250 328 392
#     4  10  22  33  61 101 126 161 223 265 329 396
#     4  11  19  39  63  90 134 172 207 279 329 387
#     4  11  22  38  61  91 128 168 218 271 323 389
#     4  11  18  36  63  94 132 167 213 274 327 393
#
# _framework density 21.589580000000002
#
# number of rings (size 3 to 8) (size 9 to 14) (size 15 to 20)
#    0.000    1.333    6.667    1.333    0.000    3.556 
#    0.000    0.000    0.000   60.000    0.000    0.000 
#  100.000    0.000    0.000    0.000    0.000    0.000 
#
# Total GULP energy -446138.699011 kJ/mol
# GULP energy per Si atom -12392.741639 kJ/mol
# Density = 2.154044 g / cm^3
# Si number density = 21.589580 Si / 1000 Ang^3
#
#
#
# Elastic Constant Matrix: (Units=GPa)
#
#
# Indices 1 2 3 4 5 6 
#
# 1 116.2104 68.2316 21.9910 0.0000 0.0000 0.0000
# 2 68.2316 116.2113 21.9911 0.0000 0.0000 0.0000
# 3 21.9910 21.9911 73.2399 0.0000 0.0000 0.0000
# 4 0.0000 0.0000 0.0000 21.0277 0.0000 0.0000
# 5 0.0000 0.0000 0.0000 0.0000 21.0277 0.0000
# 6 0.0000 0.0000 0.0000 0.0000 0.0000 34.9371
#
#
#
# Elastic Compliance Matrix: (Units=1/GPa)
#
#
# Indices 1 2 3 4 5 6 
#
# 1 0.013341 -0.007501 -0.001753 0.000000 0.000000 0.000000
# 2 -0.007501 0.013341 -0.001753 0.000000 0.000000 0.000000
# 3 -0.001753 -0.001753 0.014707 0.000000 0.000000 0.000000
# 4 0.000000 0.000000 0.000000 0.047556 0.000000 0.000000
# 5 0.000000 0.000000 0.000000 0.000000 0.047556 0.000000
# 6 0.000000 0.000000 0.000000 0.000000 0.000000 0.028623
#
#
# Mechanical properties :
#
#
# Convention : Reuss Voigt Hill
#
# Bulk Modulus (GPa) = 51.61936 58.89879 55.25908
# Shear Modulus (GPa) = 25.82666 28.29503 27.06084
#
# Velocity S-wave (km/s) = 3.46245 3.62413 3.54421
# Velocity P-wave (km/s) = 6.32028 6.69722 6.51148
#
# Compressibility (1/GPa) = 0.01937258
#
# Stress axis : x y z
#
# Youngs Moduli (GPa) = 74.95594 74.95649 67.99594
#
# Poissons Ratio (x) = 0.56227 0.11923
# Poissons Ratio (y) = 0.56226 0.11923
# Poissons Ratio (z) = 0.13143 0.13144
#
# Static dielectric constant tensor:
#      x y z
#    x 3.972900 0.000000 0.000000 
#    y 0.000000 3.972890 0.000000 
#    z 0.000000 0.000000 4.424260 
# 
# 
# High freq. dielectric constant tensor:
#      x y z
#    x 1.823000 0.000000 0.000000 
#    y 0.000000 1.823000 0.000000 
#    z 0.000000 0.000000 1.863540 
# 
# From -- ./inp_files/19325.got.cif
#   From: 2010.03.12/outbox.cif.g09.slc.cpg/sg91_10_cif.got.tgz:19325.got - 2010.04.08 20:27:58.
