data_PCOD8304233
_publ_section_title
;
Structure prediction by ZEFSAII (Michael W. Deem and Ramdas Pophale) SiO2 
 PCOD8304233
Probable space group: I 41/A
;
_chemical_formula_sum "Si O2"
_cell_formula_units_Z 96
_cell_length_a 21.609571
_cell_length_b 21.609571
_cell_length_c 10.788166
_cell_angle_alpha 90.000000
_cell_angle_beta 90.000000
_cell_angle_gamma 90.000000
_cell_volume 5037.788270
_symmetry_space_group_name_H-M "I 41/A"
_symmetry_group_IT_number 88
_space_group.IT_coordinate_system_code '2'
_symmetry_cell_setting 'tetragonal'
loop_
_space_group_symop_operation_xyz
x,y,z
3/4-y,1/4+x,1/4+z
-x,1/2-y,z
1/4+y,1/4-x,1/4+z
-x,-y,-z
1/4+y,3/4-x,3/4-z
x,1/2+y,-z
3/4-y,3/4+x,3/4-z
1/2+x,1/2+y,1/2+z
1/4-y,3/4+x,3/4+z
1/2-x,-y,1/2+z
3/4+y,3/4-x,3/4+z
1/2-x,1/2-y,1/2-z
3/4+y,1/4-x,1/4-z
1/2+x,y,1/2-z
1/4-y,1/4+x,1/4-z
loop_
_atom_site_type_symbol
_atom_site_label
_atom_site_fract_x
_atom_site_fract_y
_atom_site_fract_z
Si Si1 0.312583 0.748243 0.918855
Si Si2 0.822017 0.272261 0.129228
Si Si3 0.391663 0.386343 0.303969
Si Si4 0.588890 0.294406 0.899433
Si Si5 0.203187 0.504877 0.820458
Si Si6 0.876231 0.106650 0.782037
O O1 0.244877 0.717286 0.937930
O O2 0.317233 0.757979 0.773575
O O3 0.314137 0.813295 0.993490
O O4 0.371637 0.709558 0.972452
O O5 0.857371 0.214158 0.073218
O O6 0.861815 0.334302 0.105877
O O7 0.355700 0.450348 0.326007
O O8 0.386343 0.362782 0.165135
O O9 0.577565 0.227810 0.832968
O O10 0.631655 0.337104 0.812889
O O11 0.252958 0.523138 0.714016
O O12 0.184078 0.436023 0.778728
#
# Coordination Sequence:
#
# PCOD8304233 Si02
#       6
#    16  16  16  16  16  16
#     4   9  18  34  57  79 109 148 187 223 283 342
#     4  10  20  35  56  82 110 148 188 235 279 337
#     4  10  21  36  57  81 112 148 191 231 288 341
#     4   9  18  33  57  85 111 147 190 230 278 345
#     4  10  21  38  59  82 113 152 192 236 288 346
#     4   9  18  36  57  77 114 152 177 228 295 337
#
# _framework density 19.055982
#
# number of rings (size 3 to 8) (size 9 to 14) (size 15 to 20)
#    0.000    2.500    1.667    0.000    2.333    3.000 
#    0.000    4.167    0.000    0.000    0.000    0.000 
#    0.000    0.000    0.000    0.000    0.000    0.000 
#
# Total GULP energy -594654.224647 kJ/mol
# GULP energy per Si atom -12388.629680 kJ/mol
# Density = 1.901261 g / cm^3
# Si number density = 19.055982 Si / 1000 Ang^3
#
#
#
# Elastic Constant Matrix: (Units=GPa)
#
#
# Indices 1 2 3 4 5 6 
#
# 1 91.0785 44.8626 29.0923 0.0000 0.0000 -3.6154
# 2 44.8626 91.0785 29.0923 0.0000 0.0000 3.6154
# 3 29.0923 29.0923 55.8701 0.0000 0.0000 0.0000
# 4 0.0000 0.0000 0.0000 27.0427 0.0000 0.0000
# 5 0.0000 0.0000 0.0000 0.0000 27.0427 0.0000
# 6 -3.6154 3.6154 0.0000 0.0000 0.0000 26.1513
#
#
#
# Elastic Compliance Matrix: (Units=1/GPa)
#
#
# Indices 1 2 3 4 5 6 
#
# 1 0.015791 -0.006325 -0.004929 0.000000 0.000000 0.003057
# 2 -0.006325 0.015791 -0.004929 0.000000 0.000000 -0.003057
# 3 -0.004929 -0.004929 0.023032 0.000000 0.000000 0.000000
# 4 0.000000 0.000000 0.000000 0.036979 0.000000 0.000000
# 5 0.000000 0.000000 0.000000 0.000000 0.036979 0.000000
# 6 0.003057 -0.003057 0.000000 0.000000 0.000000 0.039084
#
#
# Mechanical properties :
#
#
# Convention : Reuss Voigt Hill
#
# Bulk Modulus (GPa) = 44.94878 49.34684 47.14781
# Shear Modulus (GPa) = 24.10371 25.04600 24.57485
#
# Velocity S-wave (km/s) = 3.56039 3.62931 3.59502
# Velocity P-wave (km/s) = 6.36716 6.59655 6.48287
#
# Compressibility (1/GPa) = 0.02224754
#
# Stress axis : x y z
#
# Youngs Moduli (GPa) = 63.32776 63.32776 43.41817
#
# Poissons Ratio (x) = 0.40055 0.21401
# Poissons Ratio (y) = 0.40055 0.21401
# Poissons Ratio (z) = 0.31214 0.31214
#
# Static dielectric constant tensor:
#      x y z
#    x 3.602730 0.000000 0.000000 
#    y 0.000000 3.602730 0.000000 
#    z 0.000000 0.000000 3.338550 
# 
# 
# High freq. dielectric constant tensor:
#      x y z
#    x 1.740240 0.000000 0.000000 
#    y 0.000000 1.740240 0.000000 
#    z 0.000000 0.000000 1.717410 
# 
# From -- ./inp_files/2594.got.cif
#   From: 2010.03.12/outbox.cif.g09.slc.cpg/sg88_2_cif.got.tgz:2594.got - 2010.04.08 20:20:55.
