data_PCOD8304559
_publ_section_title
;
Structure prediction by ZEFSAII (Michael W. Deem and Ramdas Pophale) SiO2 
 PCOD8304559
Probable space group: P 4 21 2
;
_chemical_formula_sum "Si O2"
_cell_formula_units_Z 44
_cell_length_a 13.222825
_cell_length_b 13.222825
_cell_length_c 12.093361
_cell_angle_alpha 90.000000
_cell_angle_beta 90.000000
_cell_angle_gamma 90.000000
_cell_volume 2114.440739
_symmetry_space_group_name_H-M "P 4 21 2"
_symmetry_group_IT_number 90
_symmetry_cell_setting 'tetragonal'
loop_
_space_group_symop_operation_xyz
x,y,z
1/2-y,1/2+x,z
-x,-y,z
1/2+y,1/2-x,z
1/2+x,1/2-y,-z
1/2-x,1/2+y,-z
y,x,-z
-y,-x,-z
loop_
_atom_site_type_symbol
_atom_site_label
_atom_site_fract_x
_atom_site_fract_y
_atom_site_fract_z
Si Si1 0.311709 0.688292 0.000000
Si Si2 0.046215 0.868251 0.390979
Si Si3 0.118076 0.618365 0.898574
Si Si4 0.493490 0.163400 0.500885
Si Si5 0.744188 0.572865 0.716620
Si Si6 0.566908 0.413545 0.184285
O O1 0.326684 0.808570 0.014503
O O2 0.340295 0.618345 0.105953
O O3 0.059920 0.940081 0.500000
O O4 0.007682 0.757794 0.418690
O O5 0.156844 0.856367 0.335140
O O6 0.960488 0.908242 0.306177
O O7 0.140646 0.500448 0.912698
O O8 0.141225 0.671320 0.779533
O O9 0.595769 0.104199 0.525704
O O10 0.493130 0.197819 0.374133
O O11 0.690117 0.494921 0.800525
O O12 0.500000 0.500000 0.122899
#
# Coordination Sequence:
#
# PCOD8304559 Si02
#       6
#     4   8   8   8   8   8
#     4  12  25  42  68 101 128 186 228 286 354 409
#     4   9  21  40  65 101 136 173 230 289 352 418
#     4  11  24  43  66  96 135 174 228 287 338 411
#     4  10  21  37  59  89 132 177 219 275 344 415
#     4  10  20  40  64  94 123 178 222 280 337 412
#     4  10  22  41  68  95 134 176 228 291 343 411
#
# _framework density 20.809283000000001
#
# number of rings (size 3 to 8) (size 9 to 14) (size 15 to 20)
#    0.000    1.818    1.818    1.364    0.000   14.182 
#    6.545    0.000    0.000    2.182    0.000    0.000 
#    0.000    0.000    0.000    0.000    0.000    0.000 
#
# Total GULP energy -545140.413713 kJ/mol
# GULP energy per Si atom -12389.554857 kJ/mol
# Density = 2.076192 g / cm^3
# Si number density = 20.809283 Si / 1000 Ang^3
#
#
#
# Elastic Constant Matrix: (Units=GPa)
#
#
# Indices 1 2 3 4 5 6 
#
# 1 125.5558 47.2042 45.7712 0.0000 0.0000 0.0000
# 2 47.2042 125.5559 45.7716 0.0000 0.0000 0.0000
# 3 45.7712 45.7716 101.5667 0.0000 0.0000 0.0000
# 4 0.0000 0.0000 0.0000 26.3992 0.0000 0.0000
# 5 0.0000 0.0000 0.0000 0.0000 26.3993 0.0000
# 6 0.0000 0.0000 0.0000 0.0000 0.0000 15.4403
#
#
#
# Elastic Compliance Matrix: (Units=1/GPa)
#
#
# Indices 1 2 3 4 5 6 
#
# 1 0.010184 -0.002579 -0.003427 0.000000 0.000000 0.000000
# 2 -0.002579 0.010184 -0.003427 0.000000 0.000000 0.000000
# 3 -0.003427 -0.003427 0.012934 0.000000 0.000000 0.000000
# 4 0.000000 0.000000 0.000000 0.037880 0.000000 0.000000
# 5 0.000000 0.000000 0.000000 0.000000 0.037880 0.000000
# 6 0.000000 0.000000 0.000000 0.000000 0.000000 0.064765
#
#
# Mechanical properties :
#
#
# Convention : Reuss Voigt Hill
#
# Bulk Modulus (GPa) = 69.27429 70.01916 69.64673
# Shear Modulus (GPa) = 25.31583 27.90984 26.61284
#
# Velocity S-wave (km/s) = 3.49171 3.66624 3.58004
# Velocity P-wave (km/s) = 7.04404 7.18630 7.11552
#
# Compressibility (1/GPa) = 0.01443537
#
# Stress axis : x y z
#
# Youngs Moduli (GPa) = 98.19722 98.19705 77.31314
#
# Poissons Ratio (x) = 0.25329 0.26494
# Poissons Ratio (y) = 0.25329 0.26494
# Poissons Ratio (z) = 0.33651 0.33651
#
# Static dielectric constant tensor:
#      x y z
#    x 3.939080 0.000000 0.000000 
#    y 0.000000 3.939070 0.000000 
#    z 0.000000 0.000000 3.674250 
# 
# 
# High freq. dielectric constant tensor:
#      x y z
#    x 1.821220 0.000000 0.000000 
#    y 0.000000 1.821220 0.000000 
#    z 0.000000 0.000000 1.799140 
# 
# From -- ./inp_files/2085.got.cif
#   From: 2010.03.12/outbox.cif.g09.slc.cpg/sg90_2_cif.got.tgz:2085.got - 2010.04.08 20:26:03.
