data_PCOD8304368
_publ_section_title
;
Structure prediction by ZEFSAII (Michael W. Deem and Ramdas Pophale) SiO2 
 PCOD8304368
Probable space group: I 41/A
;
_chemical_formula_sum "Si O2"
_cell_formula_units_Z 96
_cell_length_a 14.555850
_cell_length_b 14.555850
_cell_length_c 18.482454
_cell_angle_alpha 90.000000
_cell_angle_beta 90.000000
_cell_angle_gamma 90.000000
_cell_volume 3915.928711
_symmetry_space_group_name_H-M "I 41/A"
_symmetry_group_IT_number 88
_space_group.IT_coordinate_system_code '2'
_symmetry_cell_setting 'tetragonal'
loop_
_space_group_symop_operation_xyz
x,y,z
3/4-y,1/4+x,1/4+z
-x,1/2-y,z
1/4+y,1/4-x,1/4+z
-x,-y,-z
1/4+y,3/4-x,3/4-z
x,1/2+y,-z
3/4-y,3/4+x,3/4-z
1/2+x,1/2+y,1/2+z
1/4-y,3/4+x,3/4+z
1/2-x,-y,1/2+z
3/4+y,3/4-x,3/4+z
1/2-x,1/2-y,1/2-z
3/4+y,1/4-x,1/4-z
1/2+x,y,1/2-z
1/4-y,1/4+x,1/4-z
loop_
_atom_site_type_symbol
_atom_site_label
_atom_site_fract_x
_atom_site_fract_y
_atom_site_fract_z
Si Si1 0.079202 0.326968 0.045020
Si Si2 0.245431 0.126868 0.112739
Si Si3 0.941822 0.118140 0.622121
Si Si4 0.709267 0.031363 0.781447
Si Si5 0.409507 0.530856 0.262494
Si Si6 0.605844 0.728833 0.861958
O O1 0.069872 0.404076 0.107918
O O2 0.000000 0.250000 0.058917
O O3 0.186514 0.295879 0.045116
O O4 0.065758 0.373106 0.966598
O O5 0.337717 0.178142 0.134147
O O6 0.263253 0.029421 0.149738
O O7 0.238760 0.114630 0.025441
O O8 0.893387 0.207781 0.658314
O O9 0.881474 0.073860 0.558208
O O10 0.965008 0.051247 0.689302
O O11 0.804110 0.033140 0.736669
O O12 0.413183 0.608138 0.324808
O O13 0.500000 0.750000 0.875066
#
# Coordination Sequence:
#
# PCOD8304368 Si02
#       6
#    16  16  16  16  16  16
#     4  10  25  50  75 113 151 200 263 322 396 463
#     4  11  25  46  79 106 155 196 267 313 400 467
#     4  11  25  42  70 110 154 197 261 316 388 462
#     4  11  24  47  72 110 146 204 251 327 384 473
#     4  11  24  46  75 110 151 205 254 318 391 467
#     4  11  26  46  74 108 153 198 255 322 386 467
#
# _framework density 24.515256999999998
#
# number of rings (size 3 to 8) (size 9 to 14) (size 15 to 20)
#    0.000    1.167    1.667    2.500   11.667    7.333 
#    6.000    0.833    0.000    0.000    0.000    0.000 
#    0.000    0.000    0.000    0.000    0.000    0.000 
#
# Total GULP energy -594946.722938 kJ/mol
# GULP energy per Si atom -12394.723395 kJ/mol
# Density = 2.445946 g / cm^3
# Si number density = 24.515257 Si / 1000 Ang^3
#
#
#
# Elastic Constant Matrix: (Units=GPa)
#
#
# Indices 1 2 3 4 5 6 
#
# 1 114.4235 48.4598 35.8527 0.0000 0.0000 -1.6801
# 2 48.4598 114.4235 35.8527 0.0000 0.0000 1.6801
# 3 35.8527 35.8527 152.5431 0.0000 0.0000 0.0000
# 4 0.0000 0.0000 0.0000 82.1269 0.0000 0.0000
# 5 0.0000 0.0000 0.0000 0.0000 82.1269 0.0000
# 6 -1.6801 1.6801 0.0000 0.0000 0.0000 40.1853
#
#
#
# Elastic Compliance Matrix: (Units=1/GPa)
#
#
# Indices 1 2 3 4 5 6 
#
# 1 0.011020 -0.004172 -0.001609 0.000000 0.000000 0.000635
# 2 -0.004172 0.011020 -0.001609 0.000000 0.000000 -0.000635
# 3 -0.001609 -0.001609 0.007312 0.000000 0.000000 0.000000
# 4 0.000000 0.000000 0.000000 0.012176 0.000000 0.000000
# 5 0.000000 0.000000 0.000000 0.000000 0.012176 0.000000
# 6 0.000635 -0.000635 0.000000 0.000000 0.000000 0.024938
#
#
# Mechanical properties :
#
#
# Convention : Reuss Voigt Hill
#
# Bulk Modulus (GPa) = 68.63440 69.08005 68.85723
# Shear Modulus (GPa) = 50.87428 58.30283 54.58855
#
# Velocity S-wave (km/s) = 4.56039 4.88200 4.72393
# Velocity P-wave (km/s) = 7.46906 7.74713 7.60937
#
# Compressibility (1/GPa) = 0.01456995
#
# Stress axis : x y z
#
# Youngs Moduli (GPa) = 90.74357 90.74358 136.75977
#
# Poissons Ratio (x) = 0.37860 0.22011
# Poissons Ratio (y) = 0.37860 0.22011
# Poissons Ratio (z) = 0.14605 0.14605
#
# Static dielectric constant tensor:
#      x y z
#    x 4.463050 0.000000 0.000000 
#    y 0.000000 4.463050 0.000000 
#    z 0.000000 0.000000 4.417590 
# 
# 
# High freq. dielectric constant tensor:
#      x y z
#    x 1.980200 0.000000 0.000000 
#    y 0.000000 1.980200 0.000000 
#    z 0.000000 0.000000 1.986570 
# 
# From -- ./inp_files/4714.got.cif
#   From: 2010.03.12/outbox.cif.g09.slc.cpg/sg88_3_cif.got.tgz:4714.got - 2010.04.08 20:20:55.
