data_PCOD8304542
_publ_section_title
;
Structure prediction by ZEFSAII (Michael W. Deem and Ramdas Pophale) SiO2 
 PCOD8304542
Probable space group: P 4 21 2
;
_chemical_formula_sum "Si O2"
_cell_formula_units_Z 64
_cell_length_a 11.667006
_cell_length_b 11.667006
_cell_length_c 24.544675
_cell_angle_alpha 90.000000
_cell_angle_beta 90.000000
_cell_angle_gamma 90.000000
_cell_volume 3340.997328
_symmetry_space_group_name_H-M "P 4 21 2"
_symmetry_group_IT_number 90
_symmetry_cell_setting 'tetragonal'
loop_
_space_group_symop_operation_xyz
x,y,z
1/2-y,1/2+x,z
-x,-y,z
1/2+y,1/2-x,z
1/2+x,1/2-y,-z
1/2-x,1/2+y,-z
y,x,-z
-y,-x,-z
loop_
_atom_site_type_symbol
_atom_site_label
_atom_site_fract_x
_atom_site_fract_y
_atom_site_fract_z
Si Si1 0.127098 0.814151 0.439706
Si Si2 0.579008 0.389964 0.122849
Si Si3 0.613655 0.429182 0.758339
Si Si4 0.445596 0.822408 0.717476
Si Si5 0.466357 0.817055 0.043907
Si Si6 0.110895 0.236396 0.398243
Si Si7 0.040014 0.318443 0.082597
Si Si8 0.362437 0.503355 0.645199
O O1 0.140685 0.859315 0.500000
O O2 0.185526 0.691877 0.434454
O O3 0.991864 0.802861 0.436289
O O4 0.179132 0.896779 0.391651
O O5 0.500000 0.500000 0.113526
O O6 0.563723 0.327375 0.182122
O O7 0.550705 0.297789 0.077319
O O8 0.709408 0.433185 0.119362
O O9 0.500000 0.500000 0.767400
O O10 0.588432 0.295742 0.745971
O O11 0.683399 0.491802 0.708408
O O12 0.575497 0.857888 0.733735
O O13 0.439790 0.805831 0.652617
O O14 0.590640 0.868511 0.058206
O O15 0.456176 0.784681 0.980734
O O16 0.179827 0.121737 0.381418
O O17 0.134350 0.414284 0.096891
O O18 0.500000 0.500000 0.649590
#
# Coordination Sequence:
#
# PCOD8304542 Si02
#       8
#     8   8   8   8   8   8   8   8
#     4  11  23  34  58  85 115 149 182 236 284 340
#     4  11  23  36  56  90 120 153 198 252 297 359
#     4   9  20  38  54  79 118 155 190 233 287 352
#     4  10  19  35  60  88 114 146 188 241 301 347
#     4   9  20  40  60  81 113 157 206 247 300 358
#     4  10  20  36  56  84 113 142 186 231 281 335
#     4   9  20  38  60  85 120 159 191 245 312 367
#     4   8  18  37  57  75 106 150 189 221 271 347
#
# _framework density 19.155957000000001
#
# number of rings (size 3 to 8) (size 9 to 14) (size 15 to 20)
#    0.000    2.375    1.250    1.875    3.500    4.000 
#    2.250    1.250    0.000    0.375    0.000    0.000 
#    0.000    0.000    0.000    0.000    0.000    0.000 
#
# Total GULP energy -793122.612842 kJ/mol
# GULP energy per Si atom -12392.540826 kJ/mol
# Density = 1.911236 g / cm^3
# Si number density = 19.155957 Si / 1000 Ang^3
#
#
#
# Elastic Constant Matrix: (Units=GPa)
#
#
# Indices 1 2 3 4 5 6 
#
# 1 74.1163 23.9051 33.9622 0.0000 0.0000 0.0000
# 2 23.9051 74.1162 33.9621 0.0000 0.0000 0.0000
# 3 33.9622 33.9621 103.2105 0.0000 0.0000 0.0000
# 4 0.0000 0.0000 0.0000 9.3954 0.0000 0.0000
# 5 0.0000 0.0000 0.0000 0.0000 9.3949 0.0000
# 6 0.0000 0.0000 0.0000 0.0000 0.0000 15.6001
#
#
#
# Elastic Compliance Matrix: (Units=1/GPa)
#
#
# Indices 1 2 3 4 5 6 
#
# 1 0.016566 -0.003350 -0.004349 0.000000 0.000000 0.000000
# 2 -0.003350 0.016566 -0.004349 0.000000 0.000000 0.000000
# 3 -0.004349 -0.004349 0.012551 0.000000 0.000000 0.000000
# 4 0.000000 0.000000 0.000000 0.106435 0.000000 0.000000
# 5 0.000000 0.000000 0.000000 0.000000 0.106441 0.000000
# 6 0.000000 0.000000 0.000000 0.000000 0.000000 0.064102
#
#
# Mechanical properties :
#
#
# Convention : Reuss Voigt Hill
#
# Bulk Modulus (GPa) = 46.32425 48.34465 47.33445
# Shear Modulus (GPa) = 14.12629 17.51899 15.82264
#
# Velocity S-wave (km/s) = 2.71852 3.02743 2.87712
# Velocity P-wave (km/s) = 5.83858 6.12475 5.98338
#
# Compressibility (1/GPa) = 0.02158697
#
# Stress axis : x y z
#
# Youngs Moduli (GPa) = 60.36626 60.36616 79.67625
#
# Poissons Ratio (x) = 0.20225 0.34648
# Poissons Ratio (y) = 0.20225 0.34648
# Poissons Ratio (z) = 0.26251 0.26251
#
# Static dielectric constant tensor:
#      x y z
#    x 3.416880 0.000000 0.000000 
#    y 0.000000 3.416870 0.000000 
#    z 0.000000 0.000000 3.714100 
# 
# 
# High freq. dielectric constant tensor:
#      x y z
#    x 1.730770 0.000000 0.000000 
#    y 0.000000 1.730770 0.000000 
#    z 0.000000 0.000000 1.751760 
# 
# From -- ./inp_files/2950.got.cif
#   From: 2010.03.12/outbox.cif.g09.slc.cpg/sg90_2_cif.got.tgz:2950.got - 2010.04.08 20:26:03.
