data_PCOD8304883
_publ_section_title
;
Structure prediction by ZEFSAII (Michael W. Deem and Ramdas Pophale) SiO2 
 PCOD8304883
Probable space group: P 41 2 2
;
_chemical_formula_sum "Si O2"
_cell_formula_units_Z 40
_cell_length_a 10.436938
_cell_length_b 10.436938
_cell_length_c 15.489184
_cell_angle_alpha 90.000000
_cell_angle_beta 90.000000
_cell_angle_gamma 90.000000
_cell_volume 1687.231776
_symmetry_space_group_name_H-M "P 41 2 2"
_symmetry_group_IT_number 91
_symmetry_cell_setting 'tetragonal'
loop_
_space_group_symop_operation_xyz
x,y,z
-y,x,1/4+z
-x,-y,1/2+z
y,-x,3/4+z
x,-y,1/2-z
-x,y,-z
y,x,3/4-z
-y,-x,1/4-z
loop_
_atom_site_type_symbol
_atom_site_label
_atom_site_fract_x
_atom_site_fract_y
_atom_site_fract_z
Si Si1 0.361327 0.664613 0.024817
Si Si2 0.413812 0.283194 0.795875
Si Si3 0.766278 0.105255 0.816650
Si Si4 0.103808 0.288201 0.071990
Si Si5 0.488977 0.952750 0.399757
O O1 0.328343 0.671658 0.125000
O O2 0.500000 0.730114 0.000000
O O3 0.376280 0.517216 0.996398
O O4 0.240670 0.724450 0.975508
O O5 0.350807 0.350807 0.875000
O O6 0.312663 0.243313 0.721652
O O7 0.474313 0.154731 0.831954
O O8 0.883436 0.154518 0.875991
O O9 0.659431 0.025969 0.872869
O O10 0.819682 0.000000 0.750000
O O11 0.070775 0.414438 0.130279
O O12 0.000000 0.259615 0.000000
O O13 0.500000 0.913001 0.500000
#
# Coordination Sequence:
#
# PCOD8304883 Si02
#       5
#     8   8   8   8   8
#     4  11  23  38  62 100 142 182 228 287 353 419
#     4  10  20  37  62  95 133 175 230 290 347 410
#     4  11  24  43  68 100 138 182 231 289 358 423
#     4  10  22  41  67  97 133 185 239 284 343 422
#     4  10  21  39  67  98 133 178 228 288 354 418
#
# _framework density 23.707471999999999
#
# number of rings (size 3 to 8) (size 9 to 14) (size 15 to 20)
#    0.000    1.600    0.000    6.000    0.000    8.000 
#    0.000    0.000    0.000   45.600    0.000    0.000 
#    0.000    0.000    0.000    0.000    0.000    0.000 
#
# Total GULP energy -495638.658542 kJ/mol
# GULP energy per Si atom -12390.966464 kJ/mol
# Density = 2.365351 g / cm^3
# Si number density = 23.707472 Si / 1000 Ang^3
#
#
#
# Elastic Constant Matrix: (Units=GPa)
#
#
# Indices 1 2 3 4 5 6 
#
# 1 93.7625 37.0068 33.0442 0.0000 0.0000 0.0000
# 2 37.0068 93.7624 33.0442 0.0000 0.0000 0.0000
# 3 33.0442 33.0442 111.4622 0.0000 0.0000 0.0000
# 4 0.0000 0.0000 0.0000 178.1661 0.0000 0.0000
# 5 0.0000 0.0000 0.0000 0.0000 178.1591 0.0000
# 6 0.0000 0.0000 0.0000 0.0000 0.0000 34.7433
#
#
#
# Elastic Compliance Matrix: (Units=1/GPa)
#
#
# Indices 1 2 3 4 5 6 
#
# 1 0.013307 -0.004312 -0.002667 0.000000 0.000000 0.000000
# 2 -0.004312 0.013307 -0.002667 0.000000 0.000000 0.000000
# 3 -0.002667 -0.002667 0.010553 0.000000 0.000000 0.000000
# 4 0.000000 0.000000 0.000000 0.005613 0.000000 0.000000
# 5 0.000000 0.000000 0.000000 0.000000 0.005613 0.000000
# 6 0.000000 0.000000 0.000000 0.000000 0.000000 0.028783
#
#
# Mechanical properties :
#
#
# Convention : Reuss Voigt Hill
#
# Bulk Modulus (GPa) = 55.94155 56.13086 56.03620
# Shear Modulus (GPa) = 48.81636 91.27317 70.04476
#
# Velocity S-wave (km/s) = 4.54267 6.21155 5.44147
# Velocity P-wave (km/s) = 7.15278 8.67019 7.94778
#
# Compressibility (1/GPa) = 0.01787580
#
# Stress axis : x y z
#
# Youngs Moduli (GPa) = 75.14821 75.14815 94.76225
#
# Poissons Ratio (x) = 0.32406 0.25269
# Poissons Ratio (y) = 0.32406 0.25269
# Poissons Ratio (z) = 0.20039 0.20039
#
# Static dielectric constant tensor:
#      x y z
#    x 3.065540 0.000000 0.000000 
#    y 0.000000 3.065600 0.000000 
#    z 0.000000 0.000000 4.414430 
# 
# 
# High freq. dielectric constant tensor:
#      x y z
#    x 1.926800 0.000000 0.000000 
#    y 0.000000 1.926800 0.000000 
#    z 0.000000 0.000000 1.958180 
# 
# From -- ./inp_files/11358.got.cif
#   From: 2010.03.12/outbox.cif.g09.slc.cpg/sg91_6_cif.got.tgz:11358.got - 2010.04.08 20:27:58.
