data_PCOD8304914
_publ_section_title
;
Structure prediction by ZEFSAII (Michael W. Deem and Ramdas Pophale) SiO2 
 PCOD8304914
Probable space group: P 41 2 2
;
_chemical_formula_sum "Si O2"
_cell_formula_units_Z 36
_cell_length_a 13.421696
_cell_length_b 13.421696
_cell_length_c 10.193515
_cell_angle_alpha 90.000000
_cell_angle_beta 90.000000
_cell_angle_gamma 90.000000
_cell_volume 1836.279399
_symmetry_space_group_name_H-M "P 41 2 2"
_symmetry_group_IT_number 91
_symmetry_cell_setting 'tetragonal'
loop_
_space_group_symop_operation_xyz
x,y,z
-y,x,1/4+z
-x,-y,1/2+z
y,-x,3/4+z
x,-y,1/2-z
-x,y,-z
y,x,3/4-z
-y,-x,1/4-z
loop_
_atom_site_type_symbol
_atom_site_label
_atom_site_fract_x
_atom_site_fract_y
_atom_site_fract_z
Si Si1 0.500000 0.246913 0.500000
Si Si2 0.751021 0.835255 0.663726
Si Si3 0.905472 0.000000 0.750000
Si Si4 0.387203 0.060496 0.954582
Si Si5 0.858643 0.357981 0.931348
Si Si6 0.308954 0.691047 0.125000
O O1 0.460317 0.182370 0.620827
O O2 0.408360 0.315399 0.458865
O O3 0.676948 0.900590 0.576135
O O4 0.792360 0.740510 0.584311
O O5 0.690661 0.792063 0.788314
O O6 0.839597 0.904567 0.714049
O O7 0.974802 0.025199 0.625000
O O8 0.382226 0.137969 0.835163
O O9 0.336902 0.961167 0.896120
O O10 0.500000 0.042574 0.000000
#
# Coordination Sequence:
#
# PCOD8304914 Si02
#       6
#     4   8   4   8   8   4
#     4  10  20  40  64  88 120 158 210 262 318 400
#     4  11  23  40  61  90 127 167 212 266 322 389
#     4  12  26  42  64  92 132 184 230 264 322 398
#     4  11  22  36  63  92 124 161 215 269 313 385
#     4  10  22  39  59  92 123 169 203 266 327 372
#     4  10  22  40  68  88 122 162 210 266 334 386
#
# _framework density 19.604861
#
# number of rings (size 3 to 8) (size 9 to 14) (size 15 to 20)
#    0.000    1.333    2.222    3.333    3.111    5.333 
#    0.000    0.000   19.556    0.000    0.000    0.000 
#    0.000    0.000    0.000    0.000    0.000    0.000 
#
# Total GULP energy -446313.132018 kJ/mol
# GULP energy per Si atom -12397.587000 kJ/mol
# Density = 1.956024 g / cm^3
# Si number density = 19.604861 Si / 1000 Ang^3
#
#
#
# Elastic Constant Matrix: (Units=GPa)
#
#
# Indices 1 2 3 4 5 6 
#
# 1 82.9271 25.6943 31.3830 0.0000 0.0000 0.0000
# 2 25.6943 82.9274 31.3830 0.0000 0.0000 0.0000
# 3 31.3830 31.3830 113.7045 0.0000 0.0000 0.0000
# 4 0.0000 0.0000 0.0000 31.1706 0.0000 0.0000
# 5 0.0000 0.0000 0.0000 0.0000 31.1705 0.0000
# 6 0.0000 0.0000 0.0000 0.0000 0.0000 6.6058
#
#
#
# Elastic Compliance Matrix: (Units=1/GPa)
#
#
# Indices 1 2 3 4 5 6 
#
# 1 0.014213 -0.003260 -0.003023 0.000000 0.000000 0.000000
# 2 -0.003260 0.014213 -0.003023 0.000000 0.000000 0.000000
# 3 -0.003023 -0.003023 0.010464 0.000000 0.000000 0.000000
# 4 0.000000 0.000000 0.000000 0.032081 0.000000 0.000000
# 5 0.000000 0.000000 0.000000 0.000000 0.032082 0.000000
# 6 0.000000 0.000000 0.000000 0.000000 0.000000 0.151382
#
#
# Mechanical properties :
#
#
# Convention : Reuss Voigt Hill
#
# Bulk Modulus (GPa) = 49.31611 50.71994 50.01802
# Shear Modulus (GPa) = 17.86956 26.52929 22.19943
#
# Velocity S-wave (km/s) = 3.02236 3.68258 3.36868
# Velocity P-wave (km/s) = 6.11467 6.63394 6.37959
#
# Compressibility (1/GPa) = 0.02027735
#
# Stress axis : x y z
#
# Youngs Moduli (GPa) = 70.35898 70.35918 95.57006
#
# Poissons Ratio (x) = 0.22935 0.28892
# Poissons Ratio (y) = 0.22934 0.28892
# Poissons Ratio (z) = 0.21270 0.21270
#
# Static dielectric constant tensor:
#      x y z
#    x 3.481000 0.000000 0.000000 
#    y 0.000000 3.481000 0.000000 
#    z 0.000000 0.000000 3.795590 
# 
# 
# High freq. dielectric constant tensor:
#      x y z
#    x 1.761530 0.000000 0.000000 
#    y 0.000000 1.761530 0.000000 
#    z 0.000000 0.000000 1.779970 
# 
# From -- ./inp_files/14944.got.cif
#   From: 2010.03.12/outbox.cif.g09.slc.cpg/sg91_8_cif.got.tgz:14944.got - 2010.04.08 20:27:58.
