data_PCOD8304060
_publ_section_title
;
Structure prediction by ZEFSAII (Michael W. Deem and Ramdas Pophale) SiO2 
 PCOD8304060
Probable space group: I 4/M
;
_chemical_formula_sum "Si O2"
_cell_formula_units_Z 72
_cell_length_a 14.202644
_cell_length_b 14.202644
_cell_length_c 16.730368
_cell_angle_alpha 90.000000
_cell_angle_beta 90.000000
_cell_angle_gamma 90.000000
_cell_volume 3374.767797
_symmetry_space_group_name_H-M "I 4/M"
_symmetry_group_IT_number 87
_symmetry_cell_setting 'tetragonal'
loop_
_space_group_symop_operation_xyz
x,y,z
-y,x,z
-x,-y,z
y,-x,z
-x,-y,-z
y,-x,-z
x,y,-z
-y,x,-z
1/2+x,1/2+y,1/2+z
1/2-y,1/2+x,1/2+z
1/2-x,1/2-y,1/2+z
1/2+y,1/2-x,1/2+z
1/2-x,1/2-y,1/2-z
1/2+y,1/2-x,1/2-z
1/2+x,1/2+y,1/2-z
1/2-y,1/2+x,1/2-z
loop_
_atom_site_type_symbol
_atom_site_label
_atom_site_fract_x
_atom_site_fract_y
_atom_site_fract_z
Si Si1 0.933720 0.140983 0.317975
Si Si2 0.949172 0.144112 0.000000
Si Si3 0.609595 0.004809 0.907237
Si Si4 0.320032 0.786984 0.907189
Si Si5 0.757292 0.881677 0.155424
O O1 0.902874 0.213238 0.387325
O O2 0.911656 0.185941 0.232781
O O3 0.044443 0.123813 0.327023
O O4 0.933953 0.199609 0.919867
O O5 0.057576 0.120180 0.000000
O O6 0.647695 0.108328 0.884663
O O7 0.500000 0.000000 0.891154
O O8 0.652298 0.925848 0.846830
O O9 0.632782 0.981703 0.000000
O O10 0.230749 0.758020 0.853148
O O11 0.292815 0.778736 0.000000
#
# Coordination Sequence:
#
# PCOD8304060 Si02
#       5
#    16   8  16  16  16
#     4  11  26  45  67  96 135 178 227 284 338 399
#     4  11  20  32  61  98 130 163 211 270 340 404
#     4  10  22  41  66  99 137 175 223 281 340 406
#     4  11  24  43  69  96 134 184 230 277 339 405
#     4  12  22  41  69  96 135 171 222 280 345 405
#
# _framework density 21.334800000000001
#
# number of rings (size 3 to 8) (size 9 to 14) (size 15 to 20)
#    0.000    1.000    2.222    4.667    3.111    2.667 
#    0.000    1.111    0.000    0.000    0.000    0.000 
#    0.000    0.000    0.000    0.000    0.000    0.000 
#
# Total GULP energy -446484.998946 kJ/mol
# GULP energy per Si atom -12402.361082 kJ/mol
# Density = 2.128624 g / cm^3
# Si number density = 21.334800 Si / 1000 Ang^3
#
#
#
# Elastic Constant Matrix: (Units=GPa)
#
#
# Indices 1 2 3 4 5 6 
#
# 1 122.6100 57.6530 14.2184 0.0000 0.0000 5.6567
# 2 57.6530 122.6100 14.2184 0.0000 0.0000 -5.6567
# 3 14.2184 14.2184 39.1158 0.0000 0.0000 0.0000
# 4 0.0000 0.0000 0.0000 21.5769 0.0000 0.0000
# 5 0.0000 0.0000 0.0000 0.0000 21.5770 0.0000
# 6 5.6567 -5.6567 0.0000 0.0000 0.0000 38.5292
#
#
#
# Elastic Compliance Matrix: (Units=1/GPa)
#
#
# Indices 1 2 3 4 5 6 
#
# 1 0.010842 -0.004957 -0.002139 0.000000 0.000000 -0.002320
# 2 -0.004957 0.010842 -0.002139 0.000000 0.000000 0.002320
# 3 -0.002139 -0.002139 0.027120 0.000000 0.000000 0.000000
# 4 0.000000 0.000000 0.000000 0.046346 0.000000 0.000000
# 5 0.000000 0.000000 0.000000 0.000000 0.046346 0.000000
# 6 -0.002320 0.002320 0.000000 0.000000 0.000000 0.026635
#
#
# Mechanical properties :
#
#
# Convention : Reuss Voigt Hill
#
# Bulk Modulus (GPa) = 32.96683 50.72394 41.84538
# Shear Modulus (GPa) = 25.41780 29.55301 27.48540
#
# Velocity S-wave (km/s) = 3.45538 3.72587 3.59317
# Velocity P-wave (km/s) = 5.60403 6.50663 6.07213
#
# Compressibility (1/GPa) = 0.03033352
#
# Stress axis : x y z
#
# Youngs Moduli (GPa) = 92.23523 92.23523 36.87281
#
# Poissons Ratio (x) = 0.45720 0.07888
# Poissons Ratio (y) = 0.45720 0.07888
# Poissons Ratio (z) = 0.19730 0.19730
#
# Static dielectric constant tensor:
#      x y z
#    x 4.106970 0.000000 0.000000 
#    y 0.000000 4.106970 0.000000 
#    z 0.000000 0.000000 3.652870 
# 
# 
# High freq. dielectric constant tensor:
#      x y z
#    x 1.851730 0.000000 0.000000 
#    y 0.000000 1.851730 0.000000 
#    z 0.000000 0.000000 1.827720 
# 
# From -- ./inp_files/4249.got.cif
#   From: 2010.03.12/outbox.cif.g09.slc.cpg/sg87_3_cif.got.tgz:4249.got - 2010.04.08 20:16:13.
