data_PCOD8304243
_publ_section_title
;
Structure prediction by ZEFSAII (Michael W. Deem and Ramdas Pophale) SiO2 
 PCOD8304243
Probable space group: I 41/A
;
_chemical_formula_sum "Si O2"
_cell_formula_units_Z 120
_cell_length_a 18.900721
_cell_length_b 18.900721
_cell_length_c 15.497016
_cell_angle_alpha 90.000000
_cell_angle_beta 90.000000
_cell_angle_gamma 90.000000
_cell_volume 5536.111446
_symmetry_space_group_name_H-M "I 41/A"
_symmetry_group_IT_number 88
_space_group.IT_coordinate_system_code '2'
_symmetry_cell_setting 'tetragonal'
loop_
_space_group_symop_operation_xyz
x,y,z
3/4-y,1/4+x,1/4+z
-x,1/2-y,z
1/4+y,1/4-x,1/4+z
-x,-y,-z
1/4+y,3/4-x,3/4-z
x,1/2+y,-z
3/4-y,3/4+x,3/4-z
1/2+x,1/2+y,1/2+z
1/4-y,3/4+x,3/4+z
1/2-x,-y,1/2+z
3/4+y,3/4-x,3/4+z
1/2-x,1/2-y,1/2-z
3/4+y,1/4-x,1/4-z
1/2+x,y,1/2-z
1/4-y,1/4+x,1/4-z
loop_
_atom_site_type_symbol
_atom_site_label
_atom_site_fract_x
_atom_site_fract_y
_atom_site_fract_z
Si Si1 0.372467 0.105452 0.012340
Si Si2 0.500000 0.750000 0.423824
Si Si3 0.789233 0.052627 0.997482
Si Si4 0.240059 0.839061 0.864549
Si Si5 0.459885 0.338205 0.423800
Si Si6 0.511672 0.381714 0.679632
Si Si7 0.244823 0.931940 0.384105
Si Si8 0.460812 0.640887 0.134009
O O1 0.299708 0.108049 0.957259
O O2 0.435959 0.089797 0.944096
O O3 0.382068 0.178512 0.062029
O O4 0.373845 0.044998 0.085107
O O5 0.551221 0.701886 0.484598
O O6 0.458798 0.690983 0.365315
O O7 0.789478 0.127725 0.046250
O O8 0.791341 0.991985 0.070176
O O9 0.857057 0.038982 0.938566
O O10 0.718627 0.053449 0.939042
O O11 0.169787 0.812913 0.814822
O O12 0.294851 0.774680 0.879210
O O13 0.543485 0.335499 0.396771
O O14 0.550017 0.392426 0.771794
O O15 0.409760 0.708186 0.128519
#
# Coordination Sequence:
#
# PCOD8304243 Si02
#       8
#    16   8  16  16  16  16  16  16
#     4  10  20  37  60  88 118 160 212 261 324 390
#     4  10  23  44  61  90 124 172 220 268 329 384
#     4   9  21  38  59  89 124 165 205 261 334 390
#     4  11  23  39  65  93 128 167 220 274 335 402
#     4   9  23  44  63  88 130 174 217 278 338 401
#     4  11  23  38  63  95 121 170 223 269 328 403
#     4   9  19  38  57  83 121 161 197 259 326 392
#     4   9  18  37  60  83 118 157 201 259 316 379
#
# _framework density 21.675863
#
# number of rings (size 3 to 8) (size 9 to 14) (size 15 to 20)
#    0.000    2.400    0.000    2.400    5.600    3.733 
#    2.400    4.000    0.000    0.000    0.000    0.000 
#    0.000    0.000    0.000    0.000    0.000    0.000 
#
# Total GULP energy -743539.818629 kJ/mol
# GULP energy per Si atom -12392.330310 kJ/mol
# Density = 2.162653 g / cm^3
# Si number density = 21.675863 Si / 1000 Ang^3
#
#
#
# Elastic Constant Matrix: (Units=GPa)
#
#
# Indices 1 2 3 4 5 6 
#
# 1 68.6515 21.7414 16.8563 0.0000 0.0000 -11.0446
# 2 21.7414 68.6515 16.8563 0.0000 0.0000 11.0446
# 3 16.8563 16.8563 81.4283 0.0000 0.0000 0.0000
# 4 0.0000 0.0000 0.0000 28.2717 0.0000 0.0000
# 5 0.0000 0.0000 0.0000 0.0000 28.2717 0.0000
# 6 -11.0446 11.0446 0.0000 0.0000 0.0000 13.5430
#
#
#
# Elastic Compliance Matrix: (Units=1/GPa)
#
#
# Indices 1 2 3 4 5 6 
#
# 1 0.023298 -0.011309 -0.002482 0.000000 0.000000 0.028222
# 2 -0.011309 0.023298 -0.002482 0.000000 0.000000 -0.028222
# 3 -0.002482 -0.002482 0.013308 0.000000 0.000000 0.000000
# 4 0.000000 0.000000 0.000000 0.035371 0.000000 0.000000
# 5 0.000000 0.000000 0.000000 0.000000 0.035371 0.000000
# 6 0.028222 -0.028222 0.000000 0.000000 0.000000 0.119870
#
#
# Mechanical properties :
#
#
# Convention : Reuss Voigt Hill
#
# Bulk Modulus (GPa) = 36.55210 36.62658 36.58934
# Shear Modulus (GPa) = 17.11271 24.90245 21.00758
#
# Velocity S-wave (km/s) = 2.81282 3.39316 3.11653
# Velocity P-wave (km/s) = 5.23917 5.68203 5.46509
#
# Compressibility (1/GPa) = 0.02735821
#
# Stress axis : x y z
#
# Youngs Moduli (GPa) = 42.92285 42.92285 75.14165
#
# Poissons Ratio (x) = 0.48542 0.18648
# Poissons Ratio (y) = 0.48542 0.18648
# Poissons Ratio (z) = 0.10652 0.10652
#
# Static dielectric constant tensor:
#      x y z
#    x 3.647010 0.000000 0.000000 
#    y 0.000000 3.647010 0.000000 
#    z 0.000000 0.000000 4.358390 
# 
# 
# High freq. dielectric constant tensor:
#      x y z
#    x 1.827410 0.000000 0.000000 
#    y 0.000000 1.827410 0.000000 
#    z 0.000000 0.000000 1.872960 
# 
# From -- ./inp_files/3375.got.cif
#   From: 2010.03.12/outbox.cif.g09.slc.cpg/sg88_2_cif.got.tgz:3375.got - 2010.04.08 20:20:55.
