data_PCOD8304851
_publ_section_title
;
Structure prediction by ZEFSAII (Michael W. Deem and Ramdas Pophale) SiO2 
 PCOD8304851
Probable space group: P 41 2 2
;
_chemical_formula_sum "Si O2"
_cell_formula_units_Z 48
_cell_length_a 11.779938
_cell_length_b 11.779938
_cell_length_c 16.659383
_cell_angle_alpha 90.000000
_cell_angle_beta 90.000000
_cell_angle_gamma 90.000000
_cell_volume 2311.771589
_symmetry_space_group_name_H-M "P 41 2 2"
_symmetry_group_IT_number 91
_symmetry_cell_setting 'tetragonal'
loop_
_space_group_symop_operation_xyz
x,y,z
-y,x,1/4+z
-x,-y,1/2+z
y,-x,3/4+z
x,-y,1/2-z
-x,y,-z
y,x,3/4-z
-y,-x,1/4-z
loop_
_atom_site_type_symbol
_atom_site_label
_atom_site_fract_x
_atom_site_fract_y
_atom_site_fract_z
Si Si1 0.986638 0.163850 0.281590
Si Si2 0.617226 0.868981 0.764318
Si Si3 0.679063 0.679063 0.375000
Si Si4 0.800211 0.199790 0.625000
Si Si5 0.279744 0.500000 0.750000
Si Si6 0.301787 0.803865 0.400453
Si Si7 0.865186 0.647635 0.501870
Si Si8 0.942464 0.057537 0.125000
O O1 0.932086 0.270164 0.326322
O O2 0.949124 0.163610 0.187392
O O3 0.121600 0.168314 0.297329
O O4 0.934388 0.053272 0.321693
O O5 0.671803 0.821945 0.846739
O O6 0.673356 0.793035 0.693825
O O7 0.483663 0.851233 0.773217
O O8 0.647603 0.000000 0.750000
O O9 0.649830 0.585260 0.307155
O O10 0.805042 0.671412 0.415343
O O11 0.205428 0.422693 0.692703
O O12 0.202842 0.717657 0.429620
O O13 0.000000 0.682191 0.500000
#
# Coordination Sequence:
#
# PCOD8304851 Si02
#       8
#     8   8   4   4   4   8   8   4
#     4  10  20  35  57  92 126 167 205 266 312 394
#     4  11  22  45  67  92 135 179 217 268 331 406
#     4  10  20  45  70  94 131 170 226 274 335 396
#     4  11  22  38  66  94 129 180 218 256 339 394
#     4  10  22  40  68  94 120 174 218 274 326 390
#     4  11  22  42  65  94 125 166 218 264 325 390
#     4  10  24  43  68  96 130 173 219 278 326 390
#     4   9  20  33  52  90 132 162 210 246 324 370
#
# _framework density 20.763297000000001
#
# number of rings (size 3 to 8) (size 9 to 14) (size 15 to 20)
#    0.000    1.667    3.333    1.000    4.667    2.667 
#    6.000    4.167    0.000    0.000    0.000    0.000 
#    0.000    0.000    0.000    0.000    0.000    0.000 
#
# Total GULP energy -594753.926068 kJ/mol
# GULP energy per Si atom -12390.706793 kJ/mol
# Density = 2.071604 g / cm^3
# Si number density = 20.763297 Si / 1000 Ang^3
#
#
#
# Elastic Constant Matrix: (Units=GPa)
#
#
# Indices 1 2 3 4 5 6 
#
# 1 106.7382 35.8496 33.7633 0.0000 0.0000 0.0000
# 2 35.8496 106.7388 33.7642 0.0000 0.0000 0.0000
# 3 33.7633 33.7642 97.2000 0.0000 0.0000 0.0000
# 4 0.0000 0.0000 0.0000 27.7300 0.0000 0.0000
# 5 0.0000 0.0000 0.0000 0.0000 27.7296 0.0000
# 6 0.0000 0.0000 0.0000 0.0000 0.0000 23.2456
#
#
#
# Elastic Compliance Matrix: (Units=1/GPa)
#
#
# Indices 1 2 3 4 5 6 
#
# 1 0.011250 -0.002856 -0.002916 0.000000 0.000000 0.000000
# 2 -0.002856 0.011250 -0.002916 0.000000 0.000000 0.000000
# 3 -0.002916 -0.002916 0.012314 0.000000 0.000000 0.000000
# 4 0.000000 0.000000 0.000000 0.036062 0.000000 0.000000
# 5 0.000000 0.000000 0.000000 0.000000 0.036062 0.000000
# 6 0.000000 0.000000 0.000000 0.000000 0.000000 0.043019
#
#
# Mechanical properties :
#
#
# Convention : Reuss Voigt Hill
#
# Bulk Modulus (GPa) = 57.34364 57.49234 57.41799
# Shear Modulus (GPa) = 28.87730 29.56105 29.21917
#
# Velocity S-wave (km/s) = 3.73337 3.77731 3.75540
# Velocity P-wave (km/s) = 6.80160 6.83912 6.82039
#
# Compressibility (1/GPa) = 0.01743873
#
# Stress axis : x y z
#
# Youngs Moduli (GPa) = 88.88631 88.88626 81.20998
#
# Poissons Ratio (x) = 0.25388 0.23679
# Poissons Ratio (y) = 0.25388 0.23680
# Poissons Ratio (z) = 0.25917 0.25918
#
# Static dielectric constant tensor:
#      x y z
#    x 3.820470 0.000000 0.000000 
#    y 0.000000 3.820450 0.000000 
#    z 0.000000 0.000000 3.709230 
# 
# 
# High freq. dielectric constant tensor:
#      x y z
#    x 1.804100 0.000000 0.000000 
#    y 0.000000 1.804100 0.000000 
#    z 0.000000 0.000000 1.818700 
# 
# From -- ./inp_files/5676.got.cif
#   From: 2010.03.12/outbox.cif.g09.slc.cpg/sg91_3_cif.got.tgz:5676.got - 2010.04.08 20:27:58.
