data_PCOD8304232
_publ_section_title
;
Structure prediction by ZEFSAII (Michael W. Deem and Ramdas Pophale) SiO2 
 PCOD8304232
Probable space group: I 41/A
;
_chemical_formula_sum "Si O2"
_cell_formula_units_Z 64
_cell_length_a 15.561600
_cell_length_b 15.561600
_cell_length_c 12.969340
_cell_angle_alpha 90.000000
_cell_angle_beta 90.000000
_cell_angle_gamma 90.000000
_cell_volume 3140.699400
_symmetry_space_group_name_H-M "I 41/A"
_symmetry_group_IT_number 88
_space_group.IT_coordinate_system_code '2'
_symmetry_cell_setting 'tetragonal'
loop_
_space_group_symop_operation_xyz
x,y,z
3/4-y,1/4+x,1/4+z
-x,1/2-y,z
1/4+y,1/4-x,1/4+z
-x,-y,-z
1/4+y,3/4-x,3/4-z
x,1/2+y,-z
3/4-y,3/4+x,3/4-z
1/2+x,1/2+y,1/2+z
1/4-y,3/4+x,3/4+z
1/2-x,-y,1/2+z
3/4+y,3/4-x,3/4+z
1/2-x,1/2-y,1/2-z
3/4+y,1/4-x,1/4-z
1/2+x,y,1/2-z
1/4-y,1/4+x,1/4-z
loop_
_atom_site_type_symbol
_atom_site_label
_atom_site_fract_x
_atom_site_fract_y
_atom_site_fract_z
Si Si1 0.732470 0.860002 0.459042
Si Si2 0.636901 0.488985 0.015094
Si Si3 0.740933 0.825078 0.015167
Si Si4 0.393391 0.835832 0.634783
O O1 0.726656 0.839491 0.337085
O O2 0.778123 0.775689 0.511081
O O3 0.638716 0.872595 0.509886
O O4 0.780805 0.949585 0.472071
O O5 0.662662 0.388510 0.007878
O O6 0.575218 0.492257 0.112545
O O7 0.823161 0.859091 0.951504
O O8 0.485471 0.860132 0.585256
#
# Coordination Sequence:
#
# PCOD8304232 Si02
#       4
#    16  16  16  16
#     4  10  20  35  55  78 108 143 179 225 273 321
#     4  10  21  36  53  78 106 142 185 216 262 334
#     4  10  20  35  55  78 108 143 179 225 273 321
#     4   9  18  32  52  80 108 136 178 231 284 330
#
# _framework density 20.377628000000001
#
# number of rings (size 3 to 8) (size 9 to 14) (size 15 to 20)
#    0.000    2.250    0.000    3.750    0.000    2.000 
#    0.000    6.250    0.000   24.000    0.000    0.000 
#    0.000    0.000    0.000    0.000    0.000    0.000 
#
# Total GULP energy -396496.072276 kJ/mol
# GULP energy per Si atom -12390.502259 kJ/mol
# Density = 2.033125 g / cm^3
# Si number density = 20.377628 Si / 1000 Ang^3
#
#
#
# Elastic Constant Matrix: (Units=GPa)
#
#
# Indices 1 2 3 4 5 6 
#
# 1 52.0399 1.4231 18.1603 0.0000 0.0000 1.0062
# 2 1.4231 52.0399 18.1603 0.0000 0.0000 -1.0062
# 3 18.1603 18.1603 79.5773 0.0000 0.0000 0.0000
# 4 0.0000 0.0000 0.0000 24.3120 0.0000 0.0000
# 5 0.0000 0.0000 0.0000 0.0000 24.3120 0.0000
# 6 1.0062 -1.0062 0.0000 0.0000 0.0000 19.1000
#
#
#
# Elastic Compliance Matrix: (Units=1/GPa)
#
#
# Indices 1 2 3 4 5 6 
#
# 1 0.020967 0.001169 -0.005052 0.000000 0.000000 -0.001043
# 2 0.001169 0.020967 -0.005052 0.000000 0.000000 0.001043
# 3 -0.005052 -0.005052 0.014872 0.000000 0.000000 0.000000
# 4 0.000000 0.000000 0.000000 0.041132 0.000000 0.000000
# 5 0.000000 0.000000 0.000000 0.000000 0.041132 0.000000
# 6 -0.001043 0.001043 0.000000 0.000000 0.000000 0.052466
#
#
# Mechanical properties :
#
#
# Convention : Reuss Voigt Hill
#
# Bulk Modulus (GPa) = 25.68180 28.79381 27.23780
# Shear Modulus (GPa) = 22.48364 23.27235 22.87800
#
# Velocity S-wave (km/s) = 3.32527 3.38310 3.35431
# Velocity P-wave (km/s) = 5.23197 5.42413 5.32892
#
# Compressibility (1/GPa) = 0.03893809
#
# Stress axis : x y z
#
# Youngs Moduli (GPa) = 47.69372 47.69372 67.24002
#
# Poissons Ratio (x) = -0.05577 0.33968
# Poissons Ratio (y) = -0.05577 0.33968
# Poissons Ratio (z) = 0.24094 0.24094
#
# Static dielectric constant tensor:
#      x y z
#    x 3.570700 0.000000 0.000000 
#    y 0.000000 3.570700 0.000000 
#    z 0.000000 0.000000 3.927930 
# 
# 
# High freq. dielectric constant tensor:
#      x y z
#    x 1.788670 0.000000 0.000000 
#    y 0.000000 1.788670 0.000000 
#    z 0.000000 0.000000 1.800410 
# 
# From -- ./inp_files/2350.got.cif
#   From: 2010.03.12/outbox.cif.g09.slc.cpg/sg88_2_cif.got.tgz:2350.got - 2010.04.08 20:20:55.
