data_PCOD8304059
_publ_section_title
;
Structure prediction by ZEFSAII (Michael W. Deem and Ramdas Pophale) SiO2 
 PCOD8304059
Probable space group: I 4/M
;
_chemical_formula_sum "Si O2"
_cell_formula_units_Z 88
_cell_length_a 15.465630
_cell_length_b 15.465630
_cell_length_c 18.393704
_cell_angle_alpha 90.000000
_cell_angle_beta 90.000000
_cell_angle_gamma 90.000000
_cell_volume 4399.511175
_symmetry_space_group_name_H-M "I 4/M"
_symmetry_group_IT_number 87
_symmetry_cell_setting 'tetragonal'
loop_
_space_group_symop_operation_xyz
x,y,z
-y,x,z
-x,-y,z
y,-x,z
-x,-y,-z
y,-x,-z
x,y,-z
-y,x,-z
1/2+x,1/2+y,1/2+z
1/2-y,1/2+x,1/2+z
1/2-x,1/2-y,1/2+z
1/2+y,1/2-x,1/2+z
1/2-x,1/2-y,1/2-z
1/2+y,1/2-x,1/2-z
1/2+x,1/2+y,1/2-z
1/2-y,1/2+x,1/2-z
loop_
_atom_site_type_symbol
_atom_site_label
_atom_site_fract_x
_atom_site_fract_y
_atom_site_fract_z
Si Si1 0.054112 0.201315 0.221603
Si Si2 0.873712 0.057402 0.374687
Si Si3 0.863557 0.962577 0.000000
Si Si4 0.615125 0.299161 0.361101
Si Si5 0.872408 0.690168 0.415586
Si Si6 0.443742 0.119626 0.778834
O O1 0.060709 0.133898 0.287518
O O2 0.112145 0.166353 0.155117
O O3 0.094951 0.292227 0.246377
O O4 0.953499 0.218299 0.202955
O O5 0.789231 0.095936 0.413653
O O6 0.957284 0.113214 0.398606
O O7 0.805904 0.946311 0.930316
O O8 0.940525 0.894536 0.000000
O O9 0.682351 0.221709 0.376773
O O10 0.871468 0.659776 0.500000
O O11 0.934436 0.626666 0.367229
O O12 0.543641 0.110494 0.757794
#
# Coordination Sequence:
#
# PCOD8304059 Si02
#       6
#    16  16   8  16  16  16
#     4  11  22  36  64  94 121 158 210 268 319 377
#     4  10  22  41  66  96 128 166 217 272 326 377
#     4  11  22  34  56  88 127 170 205 257 334 399
#     4  12  22  37  60  91 128 164 210 263 321 385
#     4  11  25  42  65  94 131 171 214 263 325 392
#     4  10  22  43  67  90 119 162 213 263 312 375
#
# _framework density 20.002223000000001
#
# number of rings (size 3 to 8) (size 9 to 14) (size 15 to 20)
#    0.000    1.182    6.364    0.000    0.000    6.909 
#    0.000    2.727    4.000    0.000    0.000    0.000 
#    0.000    0.000    0.000    0.000    0.000    0.000 
#
# Total GULP energy -545361.487261 kJ/mol
# GULP energy per Si atom -12394.579256 kJ/mol
# Density = 1.995670 g / cm^3
# Si number density = 20.002223 Si / 1000 Ang^3
#
#
#
# Elastic Constant Matrix: (Units=GPa)
#
#
# Indices 1 2 3 4 5 6 
#
# 1 106.7823 30.9370 28.2441 0.0000 0.0000 -5.3827
# 2 30.9370 106.7823 28.2440 0.0000 0.0000 5.3827
# 3 28.2441 28.2440 97.3666 0.0000 0.0000 0.0000
# 4 0.0000 0.0000 0.0000 23.0584 0.0000 0.0000
# 5 0.0000 0.0000 0.0000 0.0000 23.0585 0.0000
# 6 -5.3827 5.3827 0.0000 0.0000 0.0000 34.6892
#
#
#
# Elastic Compliance Matrix: (Units=1/GPa)
#
#
# Indices 1 2 3 4 5 6 
#
# 1 0.010862 -0.002620 -0.002391 0.000000 0.000000 0.002092
# 2 -0.002620 0.010862 -0.002391 0.000000 0.000000 -0.002092
# 3 -0.002391 -0.002391 0.011657 0.000000 0.000000 0.000000
# 4 0.000000 0.000000 0.000000 0.043368 0.000000 0.000000
# 5 0.000000 0.000000 0.000000 0.000000 0.043368 0.000000
# 6 0.002092 -0.002092 0.000000 0.000000 0.000000 0.029477
#
#
# Mechanical properties :
#
#
# Convention : Reuss Voigt Hill
#
# Bulk Modulus (GPa) = 53.82724 53.97570 53.90147
# Shear Modulus (GPa) = 29.31017 31.06162 30.18590
#
# Velocity S-wave (km/s) = 3.83214 3.94497 3.88896
# Velocity P-wave (km/s) = 6.82271 6.91331 6.86816
#
# Compressibility (1/GPa) = 0.01857795
#
# Stress axis : x y z
#
# Youngs Moduli (GPa) = 92.06654 92.06652 85.78177
#
# Poissons Ratio (x) = 0.24121 0.20508
# Poissons Ratio (y) = 0.24121 0.20508
# Poissons Ratio (z) = 0.22011 0.22011
#
# Static dielectric constant tensor:
#      x y z
#    x 3.544850 0.000000 0.000000 
#    y 0.000000 3.544850 0.000000 
#    z 0.000000 0.000000 3.656840 
# 
# 
# High freq. dielectric constant tensor:
#      x y z
#    x 1.777600 0.000000 0.000000 
#    y 0.000000 1.777600 0.000000 
#    z 0.000000 0.000000 1.779250 
# 
# From -- ./inp_files/5207.got.cif
#   From: 2010.03.12/outbox.cif.g09.slc.cpg/sg87_3_cif.got.tgz:5207.got - 2010.04.08 20:16:13.
