data_PCOD8304943
_publ_section_title
;
Structure prediction by ZEFSAII (Michael W. Deem and Ramdas Pophale) SiO2 
 PCOD8304943
Probable space group: P 41 2 2
;
_chemical_formula_sum "Si O2"
_cell_formula_units_Z 48
_cell_length_a 9.337973
_cell_length_b 9.337973
_cell_length_c 30.078339
_cell_angle_alpha 90.000000
_cell_angle_beta 90.000000
_cell_angle_gamma 90.000000
_cell_volume 2622.763176
_symmetry_space_group_name_H-M "P 41 2 2"
_symmetry_group_IT_number 91
_symmetry_cell_setting 'tetragonal'
loop_
_space_group_symop_operation_xyz
x,y,z
-y,x,1/4+z
-x,-y,1/2+z
y,-x,3/4+z
x,-y,1/2-z
-x,y,-z
y,x,3/4-z
-y,-x,1/4-z
loop_
_atom_site_type_symbol
_atom_site_label
_atom_site_fract_x
_atom_site_fract_y
_atom_site_fract_z
Si Si1 0.334890 0.871371 0.448243
Si Si2 0.158792 0.833334 0.197457
Si Si3 0.663466 0.336535 0.125000
Si Si4 0.843295 0.834214 0.699675
Si Si5 0.664738 0.873391 0.450977
Si Si6 0.335454 0.665558 0.370264
Si Si7 0.330308 0.669693 0.125000
O O1 0.500190 0.919109 0.441847
O O2 0.312362 0.818984 0.498718
O O3 0.289495 0.739252 0.416777
O O4 0.233987 0.004641 0.436447
O O5 0.199168 0.813616 0.248924
O O6 0.277898 0.752660 0.168687
O O7 0.156807 0.000521 0.184778
O O8 0.747890 0.286328 0.168477
O O9 0.691346 0.498761 0.112581
O O10 0.732906 0.743594 0.671415
O O11 0.998150 0.770430 0.690237
O O12 0.296177 0.498453 0.370712
#
# Coordination Sequence:
#
# PCOD8304943 Si02
#       7
#     8   8   4   8   8   8   4
#     4   9  18  35  56  77 104 137 175 215 257 309
#     4  10  21  37  55  78 107 138 175 217 260 309
#     4   9  20  35  52  78 108 137 174 219 262 308
#     4  10  21  36  55  78 105 139 176 216 262 310
#     4   9  18  34  56  78 102 138 176 212 259 311
#     4  10  21  35  53  79 108 139 175 216 262 310
#     4  11  22  35  54  80 108 141 176 213 262 312
#
# _framework density 18.301310999999998
#
# number of rings (size 3 to 8) (size 9 to 14) (size 15 to 20)
#    0.000    2.333    0.000    2.000    0.000    6.667 
#    0.000    3.333    0.000    4.000    0.000    0.000 
#    0.000    0.000    0.000    0.000    0.000    0.000 
#
# Total GULP energy -595240.286649 kJ/mol
# GULP energy per Si atom -12400.839305 kJ/mol
# Density = 1.825966 g / cm^3
# Si number density = 18.301311 Si / 1000 Ang^3
#
#
#
# Elastic Constant Matrix: (Units=GPa)
#
#
# Indices 1 2 3 4 5 6 
#
# 1 119.5805 69.4603 77.6960 0.0000 0.0000 0.0000
# 2 69.4603 119.5799 77.6958 0.0000 0.0000 0.0000
# 3 77.6960 77.6958 118.9172 0.0000 0.0000 0.0000
# 4 0.0000 0.0000 0.0000 35.1242 0.0000 0.0000
# 5 0.0000 0.0000 0.0000 0.0000 35.1240 0.0000
# 6 0.0000 0.0000 0.0000 0.0000 0.0000 29.1359
#
#
#
# Elastic Compliance Matrix: (Units=1/GPa)
#
#
# Indices 1 2 3 4 5 6 
#
# 1 0.015689 -0.004263 -0.007466 0.000000 0.000000 0.000000
# 2 -0.004263 0.015690 -0.007466 0.000000 0.000000 0.000000
# 3 -0.007466 -0.007466 0.018165 0.000000 0.000000 0.000000
# 4 0.000000 0.000000 0.000000 0.028470 0.000000 0.000000
# 5 0.000000 0.000000 0.000000 0.000000 0.028471 0.000000
# 6 0.000000 0.000000 0.000000 0.000000 0.000000 0.034322
#
#
# Mechanical properties :
#
#
# Convention : Reuss Voigt Hill
#
# Bulk Modulus (GPa) = 89.64376 89.75353 89.69864
# Shear Modulus (GPa) = 27.33527 28.75853 28.04690
#
# Velocity S-wave (km/s) = 3.86894 3.96838 3.91897
# Velocity P-wave (km/s) = 8.30943 8.37532 8.34244
#
# Compressibility (1/GPa) = 0.01115527
#
# Stress axis : x y z
#
# Youngs Moduli (GPa) = 63.73712 63.73686 55.05102
#
# Poissons Ratio (x) = 0.27169 0.41100
# Poissons Ratio (y) = 0.27169 0.41100
# Poissons Ratio (z) = 0.47585 0.47585
#
# Static dielectric constant tensor:
#      x y z
#    x 3.617340 0.000000 0.000000 
#    y 0.000000 3.617280 0.000000 
#    z 0.000000 0.000000 3.506090 
# 
# 
# High freq. dielectric constant tensor:
#      x y z
#    x 1.709360 0.000000 0.000000 
#    y 0.000000 1.709360 0.000000 
#    z 0.000000 0.000000 1.721540 
# 
# From -- ./inp_files/8003.got.cif
#   From: 2010.03.12/outbox.cif.g09.slc.cpg/sg91_5_cif.got.tgz:8003.got - 2010.04.08 20:27:58.
