data_PCOD8304307
_publ_section_title
;
Structure prediction by ZEFSAII (Michael W. Deem and Ramdas Pophale) SiO2 
 PCOD8304307
Probable space group: I 41/A
;
_chemical_formula_sum "Si O2"
_cell_formula_units_Z 116
_cell_length_a 16.707195
_cell_length_b 16.707195
_cell_length_c 17.963497
_cell_angle_alpha 90.000000
_cell_angle_beta 90.000000
_cell_angle_gamma 90.000000
_cell_volume 5014.157470
_symmetry_space_group_name_H-M "I 41/A"
_symmetry_group_IT_number 88
_space_group.IT_coordinate_system_code '2'
_symmetry_cell_setting 'tetragonal'
loop_
_space_group_symop_operation_xyz
x,y,z
3/4-y,1/4+x,1/4+z
-x,1/2-y,z
1/4+y,1/4-x,1/4+z
-x,-y,-z
1/4+y,3/4-x,3/4-z
x,1/2+y,-z
3/4-y,3/4+x,3/4-z
1/2+x,1/2+y,1/2+z
1/4-y,3/4+x,3/4+z
1/2-x,-y,1/2+z
3/4+y,3/4-x,3/4+z
1/2-x,1/2-y,1/2-z
3/4+y,1/4-x,1/4-z
1/2+x,y,1/2-z
1/4-y,1/4+x,1/4-z
loop_
_atom_site_type_symbol
_atom_site_label
_atom_site_fract_x
_atom_site_fract_y
_atom_site_fract_z
Si Si1 0.574406 0.581231 0.191130
Si Si2 0.208023 0.711773 0.320521
Si Si3 0.059363 0.409381 0.131409
Si Si4 0.203018 0.455051 0.040204
Si Si5 0.118260 0.404092 0.291174
Si Si6 0.831108 0.105787 0.882467
Si Si7 0.500000 0.750000 0.625000
Si Si8 0.013440 0.086343 0.856223
O O1 0.519996 0.600733 0.118680
O O2 0.653626 0.634671 0.198102
O O3 0.594911 0.488956 0.173606
O O4 0.526199 0.593142 0.267946
O O5 0.250000 0.750000 0.250000
O O6 0.286890 0.688552 0.366684
O O7 0.149268 0.412033 0.102098
O O8 0.062961 0.386636 0.219202
O O9 0.015337 0.493548 0.118276
O O10 0.010725 0.338536 0.086889
O O11 0.167232 0.540294 0.017865
O O12 0.291907 0.452749 0.073064
O O13 0.200152 0.407236 0.964775
O O14 0.112189 0.331405 0.350615
O O15 0.926348 0.119250 0.877606
#
# Coordination Sequence:
#
# PCOD8304307 Si02
#       8
#    16  16  16  16  16  16   4  16
#     4  11  25  50  72 109 144 189 249 305 380 458
#     4  12  29  47  80 106 144 196 251 313 386 449
#     4  10  23  39  63 101 140 189 232 283 364 431
#     4  11  22  40  74 103 131 193 239 298 345 446
#     4  10  21  44  72 100 143 190 237 297 360 440
#     4  12  25  43  75 106 143 185 254 301 372 445
#     4  12  24  36  56  88 160 184 220 282 376 428
#     4  10  24  44  72 105 143 182 247 306 363 447
#
# _framework density 23.134494
#
# number of rings (size 3 to 8) (size 9 to 14) (size 15 to 20)
#    0.000    1.103    2.759    2.483    5.793    2.483 
#    0.000    1.379    0.000    0.000    0.000    0.000 
#    0.000    0.000    0.000    0.000    0.000    0.000 
#
# Total GULP energy -718657.342386 kJ/mol
# GULP energy per Si atom -12390.643834 kJ/mol
# Density = 2.308184 g / cm^3
# Si number density = 23.134494 Si / 1000 Ang^3
#
#
#
# Elastic Constant Matrix: (Units=GPa)
#
#
# Indices 1 2 3 4 5 6 
#
# 1 53.0545 66.5572 22.7334 0.0000 0.0000 64.2275
# 2 66.5572 53.0545 22.7334 0.0000 0.0000 -64.2275
# 3 22.7334 22.7334 113.7364 0.0000 0.0000 0.0000
# 4 0.0000 0.0000 0.0000 49.5507 0.0000 0.0000
# 5 0.0000 0.0000 0.0000 0.0000 49.5507 0.0000
# 6 64.2275 -64.2275 0.0000 0.0000 0.0000 -81.5286
#
#
#
# Elastic Compliance Matrix: (Units=1/GPa)
#
#
# Indices 1 2 3 4 5 6 
#
# 1 0.010226 -0.001178 -0.001808 0.000000 0.000000 0.008984
# 2 -0.001178 0.010226 -0.001808 0.000000 0.000000 -0.008984
# 3 -0.001808 -0.001808 0.009515 0.000000 0.000000 0.000000
# 4 0.000000 0.000000 0.000000 0.020181 0.000000 0.000000
# 5 0.000000 0.000000 0.000000 0.000000 0.020181 0.000000
# 6 0.008984 -0.008984 0.000000 0.000000 0.000000 0.001889
#
#
# Mechanical properties :
#
#
# Convention : Reuss Voigt Hill
#
# Bulk Modulus (GPa) = 49.07494 49.32149 49.19822
# Shear Modulus (GPa) = 56.43369 10.70264 33.56817
#
# Velocity S-wave (km/s) = 4.94436 2.15321 3.81333
# Velocity P-wave (km/s) = 7.33857 5.24857 6.37973
#
# Compressibility (1/GPa) = 0.02037700
#
# Stress axis : x y z
#
# Youngs Moduli (GPa) = 97.79359 97.79359 105.09498
#
# Poissons Ratio (x) = 0.11518 0.19006
# Poissons Ratio (y) = 0.11518 0.19006
# Poissons Ratio (z) = 0.17686 0.17686
#
# Static dielectric constant tensor:
#      x y z
#    x 4.318310 0.000000 0.000000 
#    y 0.000000 4.318310 0.000000 
#    z 0.000000 0.000000 4.042800 
# 
# 
# High freq. dielectric constant tensor:
#      x y z
#    x 1.919360 0.000000 0.000000 
#    y 0.000000 1.919360 0.000000 
#    z 0.000000 0.000000 1.907170 
# 
# From -- ./inp_files/4023.got.cif
#   From: 2010.03.12/outbox.cif.g09.slc.cpg/sg88_3_cif.got.tgz:4023.got - 2010.04.08 20:20:55.
