data_PCOD8304410
_publ_section_title
;
Structure prediction by ZEFSAII (Michael W. Deem and Ramdas Pophale) SiO2 
 PCOD8304410
Probable space group: I 41/A
;
_chemical_formula_sum "Si O2"
_cell_formula_units_Z 116
_cell_length_a 17.783826
_cell_length_b 17.783826
_cell_length_c 17.501073
_cell_angle_alpha 90.000000
_cell_angle_beta 90.000000
_cell_angle_gamma 90.000000
_cell_volume 5534.967528
_symmetry_space_group_name_H-M "I 41/A"
_symmetry_group_IT_number 88
_space_group.IT_coordinate_system_code '2'
_symmetry_cell_setting 'tetragonal'
loop_
_space_group_symop_operation_xyz
x,y,z
3/4-y,1/4+x,1/4+z
-x,1/2-y,z
1/4+y,1/4-x,1/4+z
-x,-y,-z
1/4+y,3/4-x,3/4-z
x,1/2+y,-z
3/4-y,3/4+x,3/4-z
1/2+x,1/2+y,1/2+z
1/4-y,3/4+x,3/4+z
1/2-x,-y,1/2+z
3/4+y,3/4-x,3/4+z
1/2-x,1/2-y,1/2-z
3/4+y,1/4-x,1/4-z
1/2+x,y,1/2-z
1/4-y,1/4+x,1/4-z
loop_
_atom_site_type_symbol
_atom_site_label
_atom_site_fract_x
_atom_site_fract_y
_atom_site_fract_z
Si Si1 0.892078 0.830668 0.991494
Si Si2 0.717034 0.412059 0.868277
Si Si3 0.770879 0.754649 0.078159
Si Si4 0.585966 0.970125 0.308370
Si Si5 0.884840 0.966916 0.554527
Si Si6 0.172288 0.951410 0.871268
Si Si7 0.461380 0.461741 0.569507
Si Si8 0.500000 0.250000 0.375000
O O1 0.833339 0.891174 0.957155
O O2 0.943512 0.798249 0.925268
O O3 0.850135 0.761943 0.033578
O O4 0.941433 0.874822 0.054100
O O5 0.739336 0.340026 0.919749
O O6 0.650352 0.454803 0.913570
O O7 0.703093 0.373863 0.785916
O O8 0.776282 0.477473 0.850106
O O9 0.782790 0.720799 0.163728
O O10 0.721118 0.693384 0.030006
O O11 0.639970 0.902304 0.335465
O O12 0.509568 0.966094 0.354647
O O13 0.635531 0.043229 0.326603
O O14 0.109154 0.984972 0.923867
O O15 0.500000 0.500000 0.500000
#
# Coordination Sequence:
#
# PCOD8304410 Si02
#       8
#    16  16  16  16  16  16  16   4
#     4  12  24  41  63  96 135 192 216 279 337 422
#     4  11  24  44  73 101 133 176 232 288 344 410
#     4  12  24  44  68 100 138 177 237 283 349 410
#     4  11  25  41  67 101 137 177 227 288 341 410
#     4  11  25  44  71 104 134 176 229 296 344 406
#     4  11  23  42  64  99 135 175 233 273 339 405
#     4  12  24  39  65  97 138 181 225 275 338 403
#     4  12  28  44  56  96 156 180 226 260 360 428
#
# _framework density 20.957664999999999
#
# number of rings (size 3 to 8) (size 9 to 14) (size 15 to 20)
#    0.000    0.552    5.517    2.897    5.793    0.000 
#    0.000    0.000    0.000    0.414    0.000    0.000 
#    0.000    0.000    0.000    0.000    0.000    0.000 
#
# Total GULP energy -718665.075905 kJ/mol
# GULP energy per Si atom -12390.777171 kJ/mol
# Density = 2.090996 g / cm^3
# Si number density = 20.957665 Si / 1000 Ang^3
#
#
#
# Elastic Constant Matrix: (Units=GPa)
#
#
# Indices 1 2 3 4 5 6 
#
# 1 95.3046 31.3726 17.9185 0.0000 0.0000 3.0447
# 2 31.3726 95.3046 17.9185 0.0000 0.0000 -3.0447
# 3 17.9185 17.9185 79.5883 0.0000 0.0000 0.0000
# 4 0.0000 0.0000 0.0000 30.2935 0.0000 0.0000
# 5 0.0000 0.0000 0.0000 0.0000 30.2935 0.0000
# 6 3.0447 -3.0447 0.0000 0.0000 0.0000 22.4272
#
#
#
# Elastic Compliance Matrix: (Units=1/GPa)
#
#
# Indices 1 2 3 4 5 6 
#
# 1 0.012139 -0.003708 -0.001898 0.000000 0.000000 -0.002151
# 2 -0.003708 0.012139 -0.001898 0.000000 0.000000 0.002151
# 3 -0.001898 -0.001898 0.013419 0.000000 0.000000 0.000000
# 4 0.000000 0.000000 0.000000 0.033010 0.000000 0.000000
# 5 0.000000 0.000000 0.000000 0.000000 0.033010 0.000000
# 6 -0.002151 0.002151 0.000000 0.000000 0.000000 0.045173
#
#
# Mechanical properties :
#
#
# Convention : Reuss Voigt Hill
#
# Bulk Modulus (GPa) = 44.07455 44.95740 44.51598
# Shear Modulus (GPa) = 29.16103 30.13536 29.64820
#
# Velocity S-wave (km/s) = 3.73423 3.79610 3.76529
# Velocity P-wave (km/s) = 6.29830 6.38059 6.33958
#
# Compressibility (1/GPa) = 0.02268883
#
# Stress axis : x y z
#
# Youngs Moduli (GPa) = 82.38044 82.38044 74.51916
#
# Poissons Ratio (x) = 0.30544 0.14145
# Poissons Ratio (y) = 0.30544 0.14145
# Poissons Ratio (z) = 0.15637 0.15637
#
# Static dielectric constant tensor:
#      x y z
#    x 3.826860 0.000000 0.000000 
#    y 0.000000 3.826860 0.000000 
#    z 0.000000 0.000000 3.747440 
# 
# 
# High freq. dielectric constant tensor:
#      x y z
#    x 1.819800 0.000000 0.000000 
#    y 0.000000 1.819800 0.000000 
#    z 0.000000 0.000000 1.828370 
# 
# From -- ./inp_files/4026.got.cif
#   From: 2010.03.12/outbox.cif.g09.slc.cpg/sg88_3_cif.got.tgz:4026.got - 2010.04.08 20:20:55.
