data_PCOD8304828
_publ_section_title
;
Structure prediction by ZEFSAII (Michael W. Deem and Ramdas Pophale) SiO2 
 PCOD8304828
Probable space group: P 41 2 2
;
_chemical_formula_sum "Si O2"
_cell_formula_units_Z 40
_cell_length_a 9.325504
_cell_length_b 9.325504
_cell_length_c 23.064855
_cell_angle_alpha 90.000000
_cell_angle_beta 90.000000
_cell_angle_gamma 90.000000
_cell_volume 2005.835688
_symmetry_space_group_name_H-M "P 41 2 2"
_symmetry_group_IT_number 91
_symmetry_cell_setting 'tetragonal'
loop_
_space_group_symop_operation_xyz
x,y,z
-y,x,1/4+z
-x,-y,1/2+z
y,-x,3/4+z
x,-y,1/2-z
-x,y,-z
y,x,3/4-z
-y,-x,1/4-z
loop_
_atom_site_type_symbol
_atom_site_label
_atom_site_fract_x
_atom_site_fract_y
_atom_site_fract_z
Si Si1 0.880684 0.339320 0.770743
Si Si2 0.834612 0.280110 0.569028
Si Si3 0.461729 0.161178 0.760312
Si Si4 0.195719 0.654273 0.762770
Si Si5 0.162122 0.304027 0.601055
O O1 0.831340 0.500000 0.750000
O O2 0.840294 0.215724 0.725566
O O3 0.807821 0.288036 0.831460
O O4 0.052053 0.334000 0.776007
O O5 0.736535 0.263466 0.625000
O O6 0.794878 0.435365 0.543135
O O7 0.003327 0.254309 0.580649
O O8 0.311638 0.239022 0.761910
O O9 0.542576 0.191239 0.820988
O O10 0.417766 0.000000 0.750000
O O11 0.263315 0.500000 0.750000
O O12 0.163211 0.680077 0.830266
#
# Coordination Sequence:
#
# PCOD8304828 Si02
#       5
#     8   8   8   8   8
#     4  10  22  38  64  94 122 160 211 251 309 375
#     4  10  19  39  65  89 117 158 206 257 306 364
#     4   9  22  39  60  88 122 159 201 252 315 368
#     4  11  24  41  60  91 128 162 208 253 311 378
#     4  10  22  42  63  89 125 160 205 266 303 363
#
# _framework density 19.941811000000001
#
# number of rings (size 3 to 8) (size 9 to 14) (size 15 to 20)
#    0.000    2.000    2.000    1.800    2.800    7.200 
#    0.000    0.000    0.000    0.000    0.000    0.000 
#    0.000    0.000    0.000    0.000    0.000    0.000 
#
# Total GULP energy -495770.495801 kJ/mol
# GULP energy per Si atom -12394.262395 kJ/mol
# Density = 1.989642 g / cm^3
# Si number density = 19.941811 Si / 1000 Ang^3
#
#
#
# Elastic Constant Matrix: (Units=GPa)
#
#
# Indices 1 2 3 4 5 6 
#
# 1 84.6591 64.7820 18.8140 0.0000 0.0000 0.0000
# 2 64.7820 84.6582 18.8138 0.0000 0.0000 0.0000
# 3 18.8140 18.8138 58.5097 0.0000 0.0000 0.0000
# 4 0.0000 0.0000 0.0000 18.2013 0.0000 0.0000
# 5 0.0000 0.0000 0.0000 0.0000 18.2037 0.0000
# 6 0.0000 0.0000 0.0000 0.0000 0.0000 40.1712
#
#
#
# Elastic Compliance Matrix: (Units=1/GPa)
#
#
# Indices 1 2 3 4 5 6 
#
# 1 0.028796 -0.021515 -0.002341 0.000000 0.000000 0.000000
# 2 -0.021515 0.028796 -0.002341 0.000000 0.000000 0.000000
# 3 -0.002341 -0.002341 0.018597 0.000000 0.000000 0.000000
# 4 0.000000 0.000000 0.000000 0.054941 0.000000 0.000000
# 5 0.000000 0.000000 0.000000 0.000000 0.054934 0.000000
# 6 0.000000 0.000000 0.000000 0.000000 0.000000 0.024893
#
#
# Mechanical properties :
#
#
# Convention : Reuss Voigt Hill
#
# Bulk Modulus (GPa) = 42.02728 48.07183 45.04956
# Shear Modulus (GPa) = 18.43099 23.67639 21.05369
#
# Velocity S-wave (km/s) = 3.04343 3.44942 3.25277
# Velocity P-wave (km/s) = 5.78538 6.32638 6.06192
#
# Compressibility (1/GPa) = 0.02379407
#
# Stress axis : x y z
#
# Youngs Moduli (GPa) = 34.72762 34.72726 53.77258
#
# Poissons Ratio (x) = 0.74714 0.12590
# Poissons Ratio (y) = 0.74715 0.12589
# Poissons Ratio (z) = 0.08131 0.08130
#
# Static dielectric constant tensor:
#      x y z
#    x 4.943070 0.000000 0.000000 
#    y 0.000000 4.942480 0.000000 
#    z 0.000000 0.000000 3.988070 
# 
# 
# High freq. dielectric constant tensor:
#      x y z
#    x 1.778010 0.000000 0.000000 
#    y 0.000000 1.778010 0.000000 
#    z 0.000000 0.000000 1.775620 
# 
# From -- ./inp_files/6720.got.cif
#   From: 2010.03.12/outbox.cif.g09.slc.cpg/sg91_4_cif.got.tgz:6720.got - 2010.04.08 20:27:58.
