data_PCOD8304739
_publ_section_title
;
Structure prediction by ZEFSAII (Michael W. Deem and Ramdas Pophale) SiO2 
 PCOD8304739
Probable space group: P 41 2 2
;
_chemical_formula_sum "Si O2"
_cell_formula_units_Z 40
_cell_length_a 9.016967
_cell_length_b 9.016967
_cell_length_c 27.991674
_cell_angle_alpha 90.000000
_cell_angle_beta 90.000000
_cell_angle_gamma 90.000000
_cell_volume 2275.882477
_symmetry_space_group_name_H-M "P 41 2 2"
_symmetry_group_IT_number 91
_symmetry_cell_setting 'tetragonal'
loop_
_space_group_symop_operation_xyz
x,y,z
-y,x,1/4+z
-x,-y,1/2+z
y,-x,3/4+z
x,-y,1/2-z
-x,y,-z
y,x,3/4-z
-y,-x,1/4-z
loop_
_atom_site_type_symbol
_atom_site_label
_atom_site_fract_x
_atom_site_fract_y
_atom_site_fract_z
Si Si1 0.097551 0.643546 0.840338
Si Si2 0.137772 0.681328 0.085869
Si Si3 0.568058 0.329541 0.365430
Si Si4 0.115421 0.414492 0.203329
Si Si5 0.942097 0.844956 0.766895
O O1 0.274187 0.631798 0.842145
O O2 0.029023 0.664630 0.893500
O O3 0.030276 0.494588 0.817544
O O4 0.051986 0.781718 0.806969
O O5 0.237411 0.762590 0.125000
O O6 0.220090 0.522199 0.079213
O O7 0.135374 0.774428 0.037237
O O8 0.483527 0.483527 0.375000
O O9 0.591408 0.247201 0.415656
O O10 0.176419 0.500000 0.250000
O O11 0.065205 0.251631 0.218863
O O12 0.009218 0.000000 0.750000
#
# Coordination Sequence:
#
# PCOD8304739 Si02
#       5
#     8   8   8   8   8
#     4   9  18  32  48  72 103 129 156 201 253 290
#     4   8  16  31  51  70  92 126 166 197 229 286
#     4  10  18  32  52  72  95 128 163 196 237 290
#     4   9  18  33  51  72  99 128 161 199 240 289
#     4  10  18  32  52  72  93 127 167 201 238 285
#
# _framework density 17.575599
#
# number of rings (size 3 to 8) (size 9 to 14) (size 15 to 20)
#    0.000    2.800    0.000    4.800    0.000    0.000 
#    0.000   14.000    0.000    0.000    0.000    0.000 
#    0.000    0.000    0.000    0.000    0.000    0.000 
#
# Total GULP energy -495863.325434 kJ/mol
# GULP energy per Si atom -12396.583136 kJ/mol
# Density = 1.753560 g / cm^3
# Si number density = 17.575599 Si / 1000 Ang^3
#
#
#
# Elastic Constant Matrix: (Units=GPa)
#
#
# Indices 1 2 3 4 5 6 
#
# 1 133.2531 45.6376 40.7211 0.0000 0.0000 0.0000
# 2 45.6376 133.2531 40.7211 0.0000 0.0000 0.0000
# 3 40.7211 40.7211 65.8647 0.0000 0.0000 0.0000
# 4 0.0000 0.0000 0.0000 16.9534 0.0000 0.0000
# 5 0.0000 0.0000 0.0000 0.0000 16.9533 0.0000
# 6 0.0000 0.0000 0.0000 0.0000 0.0000 13.4771
#
#
#
# Elastic Compliance Matrix: (Units=1/GPa)
#
#
# Indices 1 2 3 4 5 6 
#
# 1 0.009597 -0.001817 -0.004810 0.000000 0.000000 0.000000
# 2 -0.001817 0.009597 -0.004810 0.000000 0.000000 0.000000
# 3 -0.004810 -0.004810 0.021130 0.000000 0.000000 0.000000
# 4 0.000000 0.000000 0.000000 0.058985 0.000000 0.000000
# 5 0.000000 0.000000 0.000000 0.000000 0.058986 0.000000
# 6 0.000000 0.000000 0.000000 0.000000 0.000000 0.074200
#
#
# Mechanical properties :
#
#
# Convention : Reuss Voigt Hill
#
# Bulk Modulus (GPa) = 57.30616 65.17005 61.23811
# Shear Modulus (GPa) = 19.14358 23.16282 21.15320
#
# Velocity S-wave (km/s) = 3.30390 3.63422 3.47299
# Velocity P-wave (km/s) = 6.87246 7.40071 7.14147
#
# Compressibility (1/GPa) = 0.01745013
#
# Stress axis : x y z
#
# Youngs Moduli (GPa) = 104.20321 104.20328 47.32596
#
# Poissons Ratio (x) = 0.18932 0.22763
# Poissons Ratio (y) = 0.18932 0.22763
# Poissons Ratio (z) = 0.50120 0.50120
#
# Static dielectric constant tensor:
#      x y z
#    x 3.263030 0.000000 0.000000 
#    y 0.000000 3.263040 0.000000 
#    z 0.000000 0.000000 3.277850 
# 
# 
# High freq. dielectric constant tensor:
#      x y z
#    x 1.670800 0.000000 0.000000 
#    y 0.000000 1.670800 0.000000 
#    z 0.000000 0.000000 1.667120 
# 
# From -- ./inp_files/7343.got.cif
#   From: 2010.03.12/outbox.cif.g09.slc.cpg/sg91_4_cif.got.tgz:7343.got - 2010.04.08 20:27:58.
