data_PCOD8304152
_publ_section_title
;
Structure prediction by ZEFSAII (Michael W. Deem and Ramdas Pophale) SiO2 
 PCOD8304152
Probable space group: I 4/M
;
_chemical_formula_sum "Si O2"
_cell_formula_units_Z 72
_cell_length_a 18.043446
_cell_length_b 18.043446
_cell_length_c 10.468945
_cell_angle_alpha 90.000000
_cell_angle_beta 90.000000
_cell_angle_gamma 90.000000
_cell_volume 3408.331957
_symmetry_space_group_name_H-M "I 4/M"
_symmetry_group_IT_number 87
_symmetry_cell_setting 'tetragonal'
loop_
_space_group_symop_operation_xyz
x,y,z
-y,x,z
-x,-y,z
y,-x,z
-x,-y,-z
y,-x,-z
x,y,-z
-y,x,-z
1/2+x,1/2+y,1/2+z
1/2-y,1/2+x,1/2+z
1/2-x,1/2-y,1/2+z
1/2+y,1/2-x,1/2+z
1/2-x,1/2-y,1/2-z
1/2+y,1/2-x,1/2-z
1/2+x,1/2+y,1/2-z
1/2-y,1/2+x,1/2-z
loop_
_atom_site_type_symbol
_atom_site_label
_atom_site_fract_x
_atom_site_fract_y
_atom_site_fract_z
Si Si1 0.709298 1.000000 0.350932
Si Si2 0.500001 0.621244 0.229903
Si Si3 0.736488 0.149760 0.000000
Si Si4 0.350237 0.763509 0.500000
Si Si5 0.000000 0.809735 0.000000
Si Si6 0.652226 0.847775 0.249998
O O1 0.687858 0.999997 0.500000
O O2 0.799263 0.000002 0.340755
O O3 0.670318 0.932860 0.277591
O O4 0.670315 0.067141 0.277598
O O5 0.426438 0.573563 0.193033
O O6 0.500001 0.635649 0.380454
O O7 0.818822 0.181175 0.000000
O O8 0.695056 0.179689 0.124925
O O9 0.748045 0.063109 0.000000
O O10 0.436888 0.751952 0.500000
O O11 0.320309 0.804941 0.624925
#
# Coordination Sequence:
#
# PCOD8304152 Si02
#       6
#    16  16   8   8   8  16
#     4  12  27  48  71 103 138 180 235 290 353 409
#     4  11  24  42  67 100 140 186 230 279 344 421
#     4  12  24  41  69 103 139 186 236 289 349 412
#     4  12  24  41  69 103 139 186 236 289 349 412
#     4  12  22  39  66 101 138 174 230 282 346 415
#     4  12  25  47  70 100 140 182 235 295 348 418
#
# _framework density 21.124704000000001
#
# number of rings (size 3 to 8) (size 9 to 14) (size 15 to 20)
#    0.000    0.222    6.667    2.667    0.000    4.000 
#    0.000    2.222    0.000    0.000    0.000    0.000 
#    0.000    0.000    0.000    0.000    0.000    0.000 
#
# Total GULP energy -446275.183912 kJ/mol
# GULP energy per Si atom -12396.532886 kJ/mol
# Density = 2.107662 g / cm^3
# Si number density = 21.124704 Si / 1000 Ang^3
#
#
#
# Elastic Constant Matrix: (Units=GPa)
#
#
# Indices 1 2 3 4 5 6 
#
# 1 125.3949 69.9784 38.1617 0.0000 0.0000 0.0005
# 2 69.9784 125.3949 38.1617 0.0000 0.0000 -0.0005
# 3 38.1617 38.1617 152.4242 0.0000 0.0000 0.0000
# 4 0.0000 0.0000 0.0000 23.6793 0.0000 0.0000
# 5 0.0000 0.0000 0.0000 0.0000 23.6793 0.0000
# 6 0.0005 -0.0005 0.0000 0.0000 0.0000 37.2838
#
#
#
# Elastic Compliance Matrix: (Units=1/GPa)
#
#
# Indices 1 2 3 4 5 6 
#
# 1 0.011859 -0.006186 -0.001420 0.000000 0.000000 0.000000
# 2 -0.006186 0.011859 -0.001420 0.000000 0.000000 0.000000
# 3 -0.001420 -0.001420 0.007272 0.000000 0.000000 0.000000
# 4 0.000000 0.000000 0.000000 0.042231 0.000000 0.000000
# 5 0.000000 0.000000 0.000000 0.000000 0.042231 0.000000
# 6 0.000000 0.000000 0.000000 0.000000 0.000000 0.026821
#
#
# Mechanical properties :
#
#
# Convention : Reuss Voigt Hill
#
# Bulk Modulus (GPa) = 77.29841 77.31306 77.30573
# Shear Modulus (GPa) = 30.36944 34.05599 32.21272
#
# Velocity S-wave (km/s) = 3.79572 4.01950 3.90921
# Velocity P-wave (km/s) = 7.47535 7.63019 7.55317
#
# Compressibility (1/GPa) = 0.01293688
#
# Stress axis : x y z
#
# Youngs Moduli (GPa) = 84.32258 84.32258 137.51625
#
# Poissons Ratio (x) = 0.52161 0.19533
# Poissons Ratio (y) = 0.52161 0.19533
# Poissons Ratio (z) = 0.11977 0.11977
#
# Static dielectric constant tensor:
#      x y z
#    x 3.801700 0.000000 0.000000 
#    y 0.000000 3.801700 0.000000 
#    z 0.000000 0.000000 4.061380 
# 
# 
# High freq. dielectric constant tensor:
#      x y z
#    x 1.831640 0.000000 0.000000 
#    y 0.000000 1.831640 0.000000 
#    z 0.000000 0.000000 1.845000 
# 
# From -- ./inp_files/2499.got.cif
#   From: 2010.03.12/outbox.cif.g09.slc.cpg/sg87_2_cif.got.tgz:2499.got - 2010.04.08 20:16:13.
