data_PCOD8304881
_publ_section_title
;
Structure prediction by ZEFSAII (Michael W. Deem and Ramdas Pophale) SiO2 
 PCOD8304881
Probable space group: P 41 2 2
;
_chemical_formula_sum "Si O2"
_cell_formula_units_Z 40
_cell_length_a 9.760895
_cell_length_b 9.760895
_cell_length_c 20.482951
_cell_angle_alpha 90.000000
_cell_angle_beta 90.000000
_cell_angle_gamma 90.000000
_cell_volume 1951.514615
_symmetry_space_group_name_H-M "P 41 2 2"
_symmetry_group_IT_number 91
_symmetry_cell_setting 'tetragonal'
loop_
_space_group_symop_operation_xyz
x,y,z
-y,x,1/4+z
-x,-y,1/2+z
y,-x,3/4+z
x,-y,1/2-z
-x,y,-z
y,x,3/4-z
-y,-x,1/4-z
loop_
_atom_site_type_symbol
_atom_site_label
_atom_site_fract_x
_atom_site_fract_y
_atom_site_fract_z
Si Si1 0.244715 0.657406 0.561997
Si Si2 0.345612 0.765536 0.831329
Si Si3 0.847215 0.634159 0.067584
Si Si4 0.864422 0.012654 0.180816
Si Si5 0.845911 0.656085 0.918553
O O1 0.348078 0.651923 0.625000
O O2 0.313482 0.656847 0.489219
O O3 0.141569 0.529746 0.564100
O O4 0.161223 0.796336 0.566983
O O5 0.281729 0.670141 0.887048
O O6 0.500879 0.803832 0.850252
O O7 0.251783 0.900440 0.830017
O O8 0.992927 0.683229 0.096485
O O9 0.818973 0.689987 0.994692
O O10 0.982130 0.017871 0.125000
O O11 0.942169 0.000000 0.250000
O O12 0.759527 0.759527 0.875000
#
# Coordination Sequence:
#
# PCOD8304881 Si02
#       5
#     8   8   8   8   8
#     4   9  18  36  60  85 113 151 197 244 289 344
#     4  10  20  37  61  86 117 160 196 239 299 355
#     4  10  21  40  63  85 119 159 196 243 299 350
#     4   9  17  34  57  82 112 149 192 242 292 345
#     4  10  22  43  62  85 123 160 197 243 298 357
#
# _framework density 20.496901000000001
#
# number of rings (size 3 to 8) (size 9 to 14) (size 15 to 20)
#    0.000    2.400    2.000    0.000    0.000    3.200 
#   14.400    6.000    0.000    0.000    0.000    0.000 
#    0.000    0.000    0.000    0.000    0.000    0.000 
#
# Total GULP energy -495526.245087 kJ/mol
# GULP energy per Si atom -12388.156127 kJ/mol
# Density = 2.045025 g / cm^3
# Si number density = 20.496901 Si / 1000 Ang^3
#
#
#
# Elastic Constant Matrix: (Units=GPa)
#
#
# Indices 1 2 3 4 5 6 
#
# 1 71.2144 38.5176 65.6900 0.0000 0.0000 0.0000
# 2 38.5176 71.2151 65.6901 0.0000 0.0000 0.0000
# 3 65.6900 65.6901 164.1506 0.0000 0.0000 0.0000
# 4 0.0000 0.0000 0.0000 31.5181 0.0000 0.0000
# 5 0.0000 0.0000 0.0000 0.0000 31.5179 0.0000
# 6 0.0000 0.0000 0.0000 0.0000 0.0000 29.1292
#
#
#
# Elastic Compliance Matrix: (Units=1/GPa)
#
#
# Indices 1 2 3 4 5 6 
#
# 1 0.024040 -0.006544 -0.007002 0.000000 0.000000 0.000000
# 2 -0.006544 0.024040 -0.007001 0.000000 0.000000 0.000000
# 3 -0.007002 -0.007001 0.011696 0.000000 0.000000 0.000000
# 4 0.000000 0.000000 0.000000 0.031728 0.000000 0.000000
# 5 0.000000 0.000000 0.000000 0.000000 0.031728 0.000000
# 6 0.000000 0.000000 0.000000 0.000000 0.000000 0.034330
#
#
# Mechanical properties :
#
#
# Convention : Reuss Voigt Hill
#
# Bulk Modulus (GPa) = 53.52934 71.81948 62.67441
# Shear Modulus (GPa) = 24.40433 27.54522 25.97477
#
# Velocity S-wave (km/s) = 3.45430 3.66986 3.56371
# Velocity P-wave (km/s) = 6.48707 7.28508 6.89763
#
# Compressibility (1/GPa) = 0.01868134
#
# Stress axis : x y z
#
# Youngs Moduli (GPa) = 41.59751 41.59811 85.50144
#
# Poissons Ratio (x) = 0.27221 0.59864
# Poissons Ratio (y) = 0.27221 0.59863
# Poissons Ratio (z) = 0.29125 0.29125
#
# Static dielectric constant tensor:
#      x y z
#    x 3.495770 0.000000 0.000000 
#    y 0.000000 3.495760 0.000000 
#    z 0.000000 0.000000 4.289030 
# 
# 
# High freq. dielectric constant tensor:
#      x y z
#    x 1.783990 0.000000 0.000000 
#    y 0.000000 1.783990 0.000000 
#    z 0.000000 0.000000 1.816900 
# 
# From -- ./inp_files/12746.got.cif
#   From: 2010.03.12/outbox.cif.g09.slc.cpg/sg91_7_cif.got.tgz:12746.got - 2010.04.08 20:27:58.
