data_PCOD8304633
_publ_section_title
;
Structure prediction by ZEFSAII (Michael W. Deem and Ramdas Pophale) SiO2 
 PCOD8304633
Probable space group: P 4 21 2
;
_chemical_formula_sum "Si O2"
_cell_formula_units_Z 60
_cell_length_a 12.353410
_cell_length_b 12.353410
_cell_length_c 17.923991
_cell_angle_alpha 90.000000
_cell_angle_beta 90.000000
_cell_angle_gamma 90.000000
_cell_volume 2735.321810
_symmetry_space_group_name_H-M "P 4 21 2"
_symmetry_group_IT_number 90
_symmetry_cell_setting 'tetragonal'
loop_
_space_group_symop_operation_xyz
x,y,z
1/2-y,1/2+x,z
-x,-y,z
1/2+y,1/2-x,z
1/2+x,1/2-y,-z
1/2-x,1/2+y,-z
y,x,-z
-y,-x,-z
loop_
_atom_site_type_symbol
_atom_site_label
_atom_site_fract_x
_atom_site_fract_y
_atom_site_fract_z
Si Si1 0.145933 0.816311 0.762614
Si Si2 0.869082 0.277535 0.036601
Si Si3 0.411221 0.146733 0.121343
Si Si4 0.588767 0.844351 0.692153
Si Si5 0.416092 0.157091 0.530470
Si Si6 0.824268 0.916389 0.924321
Si Si7 0.580950 0.839322 0.369715
Si Si8 0.000000 0.000000 0.814926
O O1 0.143758 0.750917 0.840590
O O2 0.266742 0.862843 0.755029
O O3 0.118887 0.739089 0.694550
O O4 0.063694 0.916827 0.762601
O O5 0.767709 0.323412 0.085769
O O6 0.974622 0.247522 0.083262
O O7 0.836105 0.163896 0.000000
O O8 0.898796 0.356755 0.968156
O O9 0.536325 0.146680 0.147703
O O10 0.460169 0.854924 0.702162
O O11 0.615262 0.789648 0.610280
O O12 0.543391 0.142936 0.530083
O O13 0.387860 0.214864 0.451186
O O14 0.916905 0.924855 0.862146
O O15 0.890293 0.890293 0.000000
O O16 0.452853 0.857106 0.361916
#
# Coordination Sequence:
#
# PCOD8304633 Si02
#       8
#     8   8   8   8   8   8   8   4
#     4  12  25  39  64  92 135 178 208 253 321 402
#     4  11  22  39  71  99 120 163 206 268 331 383
#     4  11  23  41  65  96 129 162 207 262 325 385
#     4   9  20  42  65  90 125 174 230 273 311 361
#     4   7  12  29  62  92 122 163 216 277 318 358
#     4  11  23  45  71  95 128 157 214 273 326 394
#     4   9  18  36  62  98 131 166 217 267 321 382
#     4  12  29  48  60  91 130 176 210 260 328 399
#
# _framework density 21.935261000000001
#
# number of rings (size 3 to 8) (size 9 to 14) (size 15 to 20)
#    0.000    1.867    1.333    5.000    1.867    4.000 
#    4.800    0.000    0.000    3.200    0.000    0.000 
#    0.000    0.000    0.000    0.000    0.000    0.000 
#
# Total GULP energy -743286.396960 kJ/mol
# GULP energy per Si atom -12388.106616 kJ/mol
# Density = 2.188534 g / cm^3
# Si number density = 21.935261 Si / 1000 Ang^3
#
#
#
# Elastic Constant Matrix: (Units=GPa)
#
#
# Indices 1 2 3 4 5 6 
#
# 1 84.4442 41.1025 24.7795 0.0000 0.0000 0.0000
# 2 41.1025 84.4432 24.7787 0.0000 0.0000 0.0000
# 3 24.7795 24.7787 50.4433 0.0000 0.0000 0.0000
# 4 0.0000 0.0000 0.0000 29.9246 0.0000 0.0000
# 5 0.0000 0.0000 0.0000 0.0000 29.9243 0.0000
# 6 0.0000 0.0000 0.0000 0.0000 0.0000 27.0942
#
#
#
# Elastic Compliance Matrix: (Units=1/GPa)
#
#
# Indices 1 2 3 4 5 6 
#
# 1 0.016477 -0.006596 -0.004854 0.000000 0.000000 0.000000
# 2 -0.006596 0.016477 -0.004854 0.000000 0.000000 0.000000
# 3 -0.004854 -0.004854 0.024593 0.000000 0.000000 0.000000
# 4 0.000000 0.000000 0.000000 0.033417 0.000000 0.000000
# 5 0.000000 0.000000 0.000000 0.000000 0.033418 0.000000
# 6 0.000000 0.000000 0.000000 0.000000 0.000000 0.036908
#
#
# Mechanical properties :
#
#
# Convention : Reuss Voigt Hill
#
# Bulk Modulus (GPa) = 40.09662 44.51689 42.30675
# Shear Modulus (GPa) = 24.72669 25.96662 25.34665
#
# Velocity S-wave (km/s) = 3.36111 3.44435 3.40298
# Velocity P-wave (km/s) = 5.77771 6.01305 5.89656
#
# Compressibility (1/GPa) = 0.02493976
#
# Stress axis : x y z
#
# Youngs Moduli (GPa) = 60.69084 60.69058 40.66200
#
# Poissons Ratio (x) = 0.40030 0.19738
# Poissons Ratio (y) = 0.40030 0.19736
# Poissons Ratio (z) = 0.29460 0.29458
#
# Static dielectric constant tensor:
#      x y z
#    x 3.892260 0.000000 0.000000 
#    y 0.000000 3.892260 0.000000 
#    z 0.000000 0.000000 4.186640 
# 
# 
# High freq. dielectric constant tensor:
#      x y z
#    x 1.854420 0.000000 0.000000 
#    y 0.000000 1.854420 0.000000 
#    z 0.000000 0.000000 1.860610 
# 
# From -- ./inp_files/2870.got.cif
#   From: 2010.03.12/outbox.cif.g09.slc.cpg/sg90_2_cif.got.tgz:2870.got - 2010.04.08 20:26:03.
