data_PCOD8304797
_publ_section_title
;
Structure prediction by ZEFSAII (Michael W. Deem and Ramdas Pophale) SiO2 
 PCOD8304797
Probable space group: P 41 2 2
;
_chemical_formula_sum "Si O2"
_cell_formula_units_Z 48
_cell_length_a 9.209451
_cell_length_b 9.209451
_cell_length_c 30.719925
_cell_angle_alpha 90.000000
_cell_angle_beta 90.000000
_cell_angle_gamma 90.000000
_cell_volume 2605.479342
_symmetry_space_group_name_H-M "P 41 2 2"
_symmetry_group_IT_number 91
_symmetry_cell_setting 'tetragonal'
loop_
_space_group_symop_operation_xyz
x,y,z
-y,x,1/4+z
-x,-y,1/2+z
y,-x,3/4+z
x,-y,1/2-z
-x,y,-z
y,x,3/4-z
-y,-x,1/4-z
loop_
_atom_site_type_symbol
_atom_site_label
_atom_site_fract_x
_atom_site_fract_y
_atom_site_fract_z
Si Si1 0.460078 0.921902 0.704289
Si Si2 0.060753 0.092335 0.293521
Si Si3 0.233017 0.336442 0.253588
Si Si4 0.762894 0.149526 0.830890
Si Si5 0.840188 0.254531 0.924126
Si Si6 0.661166 0.428698 0.990768
O O1 0.599546 0.910016 0.673478
O O2 0.396177 0.763713 0.717308
O O3 0.503470 0.000000 0.750000
O O4 0.340660 0.007875 0.676667
O O5 0.896775 0.133113 0.302529
O O6 0.147164 0.244269 0.289867
O O7 0.074937 0.000000 0.250000
O O8 0.129821 0.989909 0.330880
O O9 0.171988 0.500000 0.250000
O O10 0.206500 0.264040 0.206974
O O11 0.399795 0.337501 0.268715
O O12 0.786182 0.235968 0.875266
O O13 0.715763 0.344311 0.948457
O O14 0.500000 0.371429 0.000000
#
# Coordination Sequence:
#
# PCOD8304797 Si02
#       6
#     8   8   8   8   8   8
#     4   9  18  37  58  72 100 145 178 206 260 325
#     4  10  19  34  54  75 105 140 172 209 261 320
#     4   9  19  37  59  78 101 138 180 217 260 319
#     4  10  20  35  54  78 104 136 177 220 261 309
#     4  11  21  33  53  81 107 137 177 220 263 310
#     4   9  18  36  57  76 102 140 178 212 261 323
#
# _framework density 18.422713000000002
#
# number of rings (size 3 to 8) (size 9 to 14) (size 15 to 20)
#    0.000    2.333    0.000    5.500    0.000    2.000 
#    0.000   14.167    0.000    0.000    0.000    0.000 
#    0.000    0.000    0.000    0.000    0.000    0.000 
#
# Total GULP energy -595178.003047 kJ/mol
# GULP energy per Si atom -12399.541730 kJ/mol
# Density = 1.838078 g / cm^3
# Si number density = 18.422713 Si / 1000 Ang^3
#
#
#
# Elastic Constant Matrix: (Units=GPa)
#
#
# Indices 1 2 3 4 5 6 
#
# 1 126.1194 58.8757 41.8917 0.0000 0.0000 0.0000
# 2 58.8757 126.1194 41.8917 0.0000 0.0000 0.0000
# 3 41.8917 41.8917 60.7255 0.0000 0.0000 0.0000
# 4 0.0000 0.0000 0.0000 20.3479 0.0000 0.0000
# 5 0.0000 0.0000 0.0000 0.0000 20.3479 0.0000
# 6 0.0000 0.0000 0.0000 0.0000 0.0000 13.8254
#
#
#
# Elastic Compliance Matrix: (Units=1/GPa)
#
#
# Indices 1 2 3 4 5 6 
#
# 1 0.011367 -0.003505 -0.005424 0.000000 0.000000 0.000000
# 2 -0.003505 0.011367 -0.005424 0.000000 0.000000 0.000000
# 3 -0.005424 -0.005424 0.023950 0.000000 0.000000 0.000000
# 4 0.000000 0.000000 0.000000 0.049145 0.000000 0.000000
# 5 0.000000 0.000000 0.000000 0.000000 0.049145 0.000000
# 6 0.000000 0.000000 0.000000 0.000000 0.000000 0.072331
#
#
# Mechanical properties :
#
#
# Convention : Reuss Voigt Hill
#
# Bulk Modulus (GPa) = 55.61730 66.47586 61.04658
# Shear Modulus (GPa) = 19.84120 22.25794 21.04957
#
# Velocity S-wave (km/s) = 3.28532 3.47966 3.38389
# Velocity P-wave (km/s) = 6.68178 7.23229 6.96248
#
# Compressibility (1/GPa) = 0.01798002
#
# Stress axis : x y z
#
# Youngs Moduli (GPa) = 87.97741 87.97741 41.75289
#
# Poissons Ratio (x) = 0.30834 0.22645
# Poissons Ratio (y) = 0.30834 0.22645
# Poissons Ratio (z) = 0.47715 0.47715
#
# Static dielectric constant tensor:
#      x y z
#    x 3.560010 0.000000 0.000000 
#    y 0.000000 3.560010 0.000000 
#    z 0.000000 0.000000 3.126670 
# 
# 
# High freq. dielectric constant tensor:
#      x y z
#    x 1.722350 0.000000 0.000000 
#    y 0.000000 1.722350 0.000000 
#    z 0.000000 0.000000 1.689600 
# 
# From -- ./inp_files/7945.got.cif
#   From: 2010.03.12/outbox.cif.g09.slc.cpg/sg91_4_cif.got.tgz:7945.got - 2010.04.08 20:27:58.
