data_PCOD8304260
_publ_section_title
;
Structure prediction by ZEFSAII (Michael W. Deem and Ramdas Pophale) SiO2 
 PCOD8304260
Probable space group: I 41/A
;
_chemical_formula_sum "Si O2"
_cell_formula_units_Z 64
_cell_length_a 14.860710
_cell_length_b 14.860710
_cell_length_c 14.084982
_cell_angle_alpha 90.000000
_cell_angle_beta 90.000000
_cell_angle_gamma 90.000000
_cell_volume 3110.537308
_symmetry_space_group_name_H-M "I 41/A"
_symmetry_group_IT_number 88
_space_group.IT_coordinate_system_code '2'
_symmetry_cell_setting 'tetragonal'
loop_
_space_group_symop_operation_xyz
x,y,z
3/4-y,1/4+x,1/4+z
-x,1/2-y,z
1/4+y,1/4-x,1/4+z
-x,-y,-z
1/4+y,3/4-x,3/4-z
x,1/2+y,-z
3/4-y,3/4+x,3/4-z
1/2+x,1/2+y,1/2+z
1/4-y,3/4+x,3/4+z
1/2-x,-y,1/2+z
3/4+y,3/4-x,3/4+z
1/2-x,1/2-y,1/2-z
3/4+y,1/4-x,1/4-z
1/2+x,y,1/2-z
1/4-y,1/4+x,1/4-z
loop_
_atom_site_type_symbol
_atom_site_label
_atom_site_fract_x
_atom_site_fract_y
_atom_site_fract_z
Si Si1 0.060576 0.333991 0.402036
Si Si2 0.287699 0.790904 0.844250
Si Si3 0.951646 0.613991 0.398926
Si Si4 0.312331 0.679961 0.467944
O O1 0.158761 0.293283 0.388035
O O2 0.060090 0.405415 0.488471
O O3 0.000000 0.250000 0.434859
O O4 0.021879 0.383846 0.308440
O O5 0.250000 0.750000 0.750000
O O6 0.346892 0.876356 0.814381
O O7 0.210141 0.820007 0.919497
O O8 0.885426 0.695203 0.372737
O O9 0.919072 0.529084 0.339917
#
# Coordination Sequence:
#
# PCOD8304260 Si02
#       4
#    16  16  16  16
#     4  10  20  40  68  95 127 177 217 262 340 407
#     4  11  26  47  65  95 135 178 226 278 336 401
#     4  11  18  38  71  99 136 167 212 282 344 402
#     4  11  24  44  67 100 130 174 230 273 336 410
#
# _framework density 20.575223000000001
#
# number of rings (size 3 to 8) (size 9 to 14) (size 15 to 20)
#    0.000    1.250    5.000    2.250    3.500    0.000 
#    9.000    0.000    0.000    0.000    0.000    0.000 
#    0.000    0.000    0.000    0.000    0.000    0.000 
#
# Total GULP energy -396732.325755 kJ/mol
# GULP energy per Si atom -12397.885180 kJ/mol
# Density = 2.052839 g / cm^3
# Si number density = 20.575223 Si / 1000 Ang^3
#
#
#
# Elastic Constant Matrix: (Units=GPa)
#
#
# Indices 1 2 3 4 5 6 
#
# 1 86.6655 37.8646 47.1427 0.0000 0.0000 -5.0576
# 2 37.8646 86.6655 47.1427 0.0000 0.0000 5.0576
# 3 47.1427 47.1427 163.2334 0.0000 0.0000 0.0000
# 4 0.0000 0.0000 0.0000 30.0581 0.0000 0.0000
# 5 0.0000 0.0000 0.0000 0.0000 30.0581 0.0000
# 6 -5.0576 5.0576 0.0000 0.0000 0.0000 25.0641
#
#
#
# Elastic Compliance Matrix: (Units=1/GPa)
#
#
# Indices 1 2 3 4 5 6 
#
# 1 0.015832 -0.005554 -0.002968 0.000000 0.000000 0.004315
# 2 -0.005554 0.015832 -0.002968 0.000000 0.000000 -0.004315
# 3 -0.002968 -0.002968 0.007841 0.000000 0.000000 0.000000
# 4 0.000000 0.000000 0.000000 0.033269 0.000000 0.000000
# 5 0.000000 0.000000 0.000000 0.000000 0.033269 0.000000
# 6 0.004315 -0.004315 0.000000 0.000000 0.000000 0.041639
#
#
# Mechanical properties :
#
#
# Convention : Reuss Voigt Hill
#
# Bulk Modulus (GPa) = 60.52221 66.76272 63.64246
# Shear Modulus (GPa) = 28.38170 30.66370 29.52270
#
# Velocity S-wave (km/s) = 3.71807 3.86466 3.79207
# Velocity P-wave (km/s) = 6.92178 7.24104 7.08321
#
# Compressibility (1/GPa) = 0.01652286
#
# Stress axis : x y z
#
# Youngs Moduli (GPa) = 63.16439 63.16439 127.54028
#
# Poissons Ratio (x) = 0.35083 0.37856
# Poissons Ratio (y) = 0.35083 0.37856
# Poissons Ratio (z) = 0.18748 0.18748
#
# Static dielectric constant tensor:
#      x y z
#    x 3.767600 0.000000 0.000000 
#    y 0.000000 3.767600 0.000000 
#    z 0.000000 0.000000 3.983160 
# 
# 
# High freq. dielectric constant tensor:
#      x y z
#    x 1.795980 0.000000 0.000000 
#    y 0.000000 1.795980 0.000000 
#    z 0.000000 0.000000 1.819080 
# 
# From -- ./inp_files/3062.got.cif
#   From: 2010.03.12/outbox.cif.g09.slc.cpg/sg88_2_cif.got.tgz:3062.got - 2010.04.08 20:20:55.
