data_PCOD8304000
_publ_section_title
;
Structure prediction by ZEFSAII (Michael W. Deem and Ramdas Pophale) SiO2 
 PCOD8304000
Probable space group: I 4/M
;
_chemical_formula_sum "Si O2"
_cell_formula_units_Z 88
_cell_length_a 14.026088
_cell_length_b 14.026088
_cell_length_c 20.015165
_cell_angle_alpha 90.000000
_cell_angle_beta 90.000000
_cell_angle_gamma 90.000000
_cell_volume 3937.606319
_symmetry_space_group_name_H-M "I 4/M"
_symmetry_group_IT_number 87
_symmetry_cell_setting 'tetragonal'
loop_
_space_group_symop_operation_xyz
x,y,z
-y,x,z
-x,-y,z
y,-x,z
-x,-y,-z
y,-x,-z
x,y,-z
-y,x,-z
1/2+x,1/2+y,1/2+z
1/2-y,1/2+x,1/2+z
1/2-x,1/2-y,1/2+z
1/2+y,1/2-x,1/2+z
1/2-x,1/2-y,1/2-z
1/2+y,1/2-x,1/2-z
1/2+x,1/2+y,1/2-z
1/2-y,1/2+x,1/2-z
loop_
_atom_site_type_symbol
_atom_site_label
_atom_site_fract_x
_atom_site_fract_y
_atom_site_fract_z
Si Si1 0.390125 0.613042 0.000000
Si Si2 0.210459 0.539151 0.787595
Si Si3 0.806633 0.768495 0.382841
Si Si4 0.650018 0.533866 0.690887
Si Si5 0.882816 0.629126 0.156509
Si Si6 0.052905 0.710543 0.922409
O O1 0.366375 0.501944 0.000000
O O2 0.347727 0.662760 0.064753
O O3 0.275401 0.621689 0.820221
O O4 0.271697 0.457321 0.749046
O O5 0.155295 0.479935 0.845845
O O6 0.141896 0.587883 0.733739
O O7 0.697290 0.791754 0.363002
O O8 0.821193 0.662099 0.412282
O O9 0.572494 0.613032 0.701157
O O10 0.690107 0.540585 0.616163
O O11 0.974750 0.636944 0.107936
O O12 0.030227 0.725403 0.000000
#
# Coordination Sequence:
#
# PCOD8304000 Si02
#       6
#     8  16  16  16  16  16
#     4  11  26  48  72 102 136 175 230 286 346 410
#     4  11  22  42  65  98 134 179 229 288 351 410
#     4  12  24  45  71  99 136 187 229 288 348 408
#     4  10  21  37  63  98 133 173 229 289 349 412
#     4  11  25  41  69 100 138 179 232 286 347 414
#     4  11  24  42  64  96 135 186 233 279 338 414
#
# _framework density 22.348602
#
# number of rings (size 3 to 8) (size 9 to 14) (size 15 to 20)
#    0.000    1.000    0.909    7.091    1.273    4.727 
#    1.636    3.636    0.000    0.000    0.000    0.000 
#    0.000    0.000    0.000    0.000    0.000    0.000 
#
# Total GULP energy -545493.642258 kJ/mol
# GULP energy per Si atom -12397.582779 kJ/mol
# Density = 2.229774 g / cm^3
# Si number density = 22.348602 Si / 1000 Ang^3
#
#
#
# Elastic Constant Matrix: (Units=GPa)
#
#
# Indices 1 2 3 4 5 6 
#
# 1 98.8276 15.4391 17.1859 0.0000 0.0000 -10.3076
# 2 15.4391 98.8275 17.1858 0.0000 0.0000 10.3076
# 3 17.1859 17.1858 91.4006 0.0000 0.0000 0.0000
# 4 0.0000 0.0000 0.0000 28.8349 0.0000 0.0000
# 5 0.0000 0.0000 0.0000 0.0000 28.8349 0.0000
# 6 -10.3076 10.3076 0.0000 0.0000 0.0000 45.9799
#
#
#
# Elastic Compliance Matrix: (Units=1/GPa)
#
#
# Indices 1 2 3 4 5 6 
#
# 1 0.010986 -0.001710 -0.001744 0.000000 0.000000 0.002846
# 2 -0.001710 0.010986 -0.001744 0.000000 0.000000 -0.002846
# 3 -0.001744 -0.001744 0.011597 0.000000 0.000000 0.000000
# 4 0.000000 0.000000 0.000000 0.034680 0.000000 0.000000
# 5 0.000000 0.000000 0.000000 0.000000 0.034680 0.000000
# 6 0.002846 -0.002846 0.000000 0.000000 0.000000 0.023025
#
#
# Mechanical properties :
#
#
# Convention : Reuss Voigt Hill
#
# Bulk Modulus (GPa) = 43.15496 43.18636 43.17066
# Shear Modulus (GPa) = 34.70442 36.67961 35.69202
#
# Velocity S-wave (km/s) = 3.94492 4.05563 4.00066
# Velocity P-wave (km/s) = 6.33259 6.42625 6.37959
#
# Compressibility (1/GPa) = 0.02317231
#
# Stress axis : x y z
#
# Youngs Moduli (GPa) = 91.02585 91.02585 86.23102
#
# Poissons Ratio (x) = 0.15563 0.15040
# Poissons Ratio (y) = 0.15563 0.15040
# Poissons Ratio (z) = 0.15876 0.15876
#
# Static dielectric constant tensor:
#      x y z
#    x 4.107090 0.000000 0.000000 
#    y 0.000000 4.107090 0.000000 
#    z 0.000000 0.000000 3.952630 
# 
# 
# High freq. dielectric constant tensor:
#      x y z
#    x 1.890730 0.000000 0.000000 
#    y 0.000000 1.890730 0.000000 
#    z 0.000000 0.000000 1.873080 
# 
# From -- ./inp_files/5193.got.cif
#   From: 2010.03.12/outbox.cif.g09.slc.cpg/sg87_3_cif.got.tgz:5193.got - 2010.04.08 20:16:13.
