data_PCOD8304103
_publ_section_title
;
Structure prediction by ZEFSAII (Michael W. Deem and Ramdas Pophale) SiO2 
 PCOD8304103
Probable space group: I 4/M
;
_chemical_formula_sum "Si O2"
_cell_formula_units_Z 96
_cell_length_a 23.820616
_cell_length_b 23.820616
_cell_length_c 9.282834
_cell_angle_alpha 90.000000
_cell_angle_beta 90.000000
_cell_angle_gamma 90.000000
_cell_volume 5267.281882
_symmetry_space_group_name_H-M "I 4/M"
_symmetry_group_IT_number 87
_symmetry_cell_setting 'tetragonal'
loop_
_space_group_symop_operation_xyz
x,y,z
-y,x,z
-x,-y,z
y,-x,z
-x,-y,-z
y,-x,-z
x,y,-z
-y,x,-z
1/2+x,1/2+y,1/2+z
1/2-y,1/2+x,1/2+z
1/2-x,1/2-y,1/2+z
1/2+y,1/2-x,1/2+z
1/2-x,1/2-y,1/2-z
1/2+y,1/2-x,1/2-z
1/2+x,1/2+y,1/2-z
1/2-y,1/2+x,1/2-z
loop_
_atom_site_type_symbol
_atom_site_label
_atom_site_fract_x
_atom_site_fract_y
_atom_site_fract_z
Si Si1 0.640279 0.759744 0.837091
Si Si2 0.858022 0.448667 0.839021
Si Si3 0.645996 0.939755 0.169594
Si Si4 0.228837 0.346946 0.328907
Si Si5 0.067321 0.062434 0.667073
Si Si6 0.349111 0.643120 0.671533
O O1 0.590988 0.804496 0.834251
O O2 0.697635 0.789445 0.778273
O O3 0.620274 0.709474 0.733603
O O4 0.648860 0.737032 0.000000
O O5 0.912873 0.414022 0.789402
O O6 0.848154 0.498954 0.731769
O O7 0.866697 0.472264 0.000000
O O8 0.695727 0.900809 0.233240
O O9 0.652425 0.943901 0.000000
O O10 0.225292 0.347679 0.500000
O O11 0.292439 0.351674 0.274425
O O12 0.080131 0.074698 0.500000
O O13 0.108567 0.098780 0.765685
O O14 0.002930 0.078156 0.702425
O O15 0.350095 0.637576 0.500000
#
# Coordination Sequence:
#
# PCOD8304103 Si02
#       6
#    16  16  16  16  16  16
#     4   9  18  35  54  71 101 141 175 208 247 298
#     4   9  19  34  51  73 100 133 173 214 255 299
#     4   9  18  34  53  71  99 137 171 210 259 303
#     4   8  17  34  52  72 102 138 171 207 254 301
#     4   9  20  40  60  75  98 135 174 209 248 298
#     4  11  21  32  53  84 109 130 164 209 256 306
#
# _framework density 18.225719999999999
#
# number of rings (size 3 to 8) (size 9 to 14) (size 15 to 20)
#    0.000    2.833    0.000    3.500    0.000    3.667 
#    0.000   10.833    0.000    0.000    0.000    0.000 
#    0.000    0.000    0.000    0.000    0.000    0.000 
#
# Total GULP energy -595046.142278 kJ/mol
# GULP energy per Si atom -12396.794631 kJ/mol
# Density = 1.818424 g / cm^3
# Si number density = 18.225720 Si / 1000 Ang^3
#
#
#
# Elastic Constant Matrix: (Units=GPa)
#
#
# Indices 1 2 3 4 5 6 
#
# 1 65.7001 51.5739 36.6850 0.0000 0.0000 -7.9101
# 2 51.5739 65.7001 36.6850 0.0000 0.0000 7.9101
# 3 36.6850 36.6850 54.5753 0.0000 0.0000 0.0000
# 4 0.0000 0.0000 0.0000 30.2612 0.0000 0.0000
# 5 0.0000 0.0000 0.0000 0.0000 30.2612 0.0000
# 6 -7.9101 7.9101 0.0000 0.0000 0.0000 20.6466
#
#
#
# Elastic Compliance Matrix: (Units=1/GPa)
#
#
# Indices 1 2 3 4 5 6 
#
# 1 0.069354 -0.054638 -0.009892 0.000000 0.000000 0.047504
# 2 -0.054638 0.069354 -0.009892 0.000000 0.000000 -0.047504
# 3 -0.009892 -0.009892 0.031621 0.000000 0.000000 0.000000
# 4 0.000000 0.000000 0.000000 0.033046 0.000000 0.000000
# 5 0.000000 0.000000 0.000000 0.000000 0.033046 0.000000
# 6 0.047504 -0.047504 0.000000 0.000000 0.000000 0.084834
#
#
# Mechanical properties :
#
#
# Convention : Reuss Voigt Hill
#
# Bulk Modulus (GPa) = 46.54208 48.42927 47.48568
# Shear Modulus (GPa) = 10.47651 20.30258 15.38955
#
# Velocity S-wave (km/s) = 2.40014 3.34121 2.90898
# Velocity P-wave (km/s) = 5.76826 6.44318 6.11504
#
# Compressibility (1/GPa) = 0.02148593
#
# Stress axis : x y z
#
# Youngs Moduli (GPa) = 14.41887 14.41887 31.62411
#
# Poissons Ratio (x) = 0.78782 0.31281
# Poissons Ratio (y) = 0.78782 0.31281
# Poissons Ratio (z) = 0.14263 0.14263
#
# Static dielectric constant tensor:
#      x y z
#    x 3.419190 0.000000 0.000000 
#    y 0.000000 3.419190 0.000000 
#    z 0.000000 0.000000 3.197390 
# 
# 
# High freq. dielectric constant tensor:
#      x y z
#    x 1.708950 0.000000 0.000000 
#    y 0.000000 1.708950 0.000000 
#    z 0.000000 0.000000 1.688340 
# 
# From -- ./inp_files/1408.got.cif
#   From: 2010.03.12/outbox.cif.g09.slc.cpg/sg87_1_cif.got.tgz:1408.got - 2010.04.08 20:16:13.
