data_PCOD8304942
_publ_section_title
;
Structure prediction by ZEFSAII (Michael W. Deem and Ramdas Pophale) SiO2 
 PCOD8304942
Probable space group: P 41 2 2
;
_chemical_formula_sum "Si O2"
_cell_formula_units_Z 36
_cell_length_a 15.133372
_cell_length_b 15.133372
_cell_length_c 8.508516
_cell_angle_alpha 90.000000
_cell_angle_beta 90.000000
_cell_angle_gamma 90.000000
_cell_volume 1948.611384
_symmetry_space_group_name_H-M "P 41 2 2"
_symmetry_group_IT_number 91
_symmetry_cell_setting 'tetragonal'
loop_
_space_group_symop_operation_xyz
x,y,z
-y,x,1/4+z
-x,-y,1/2+z
y,-x,3/4+z
x,-y,1/2-z
-x,y,-z
y,x,3/4-z
-y,-x,1/4-z
loop_
_atom_site_type_symbol
_atom_site_label
_atom_site_fract_x
_atom_site_fract_y
_atom_site_fract_z
Si Si1 0.272884 0.419720 0.630248
Si Si2 0.930613 0.270578 0.136458
Si Si3 0.728889 0.271112 0.125000
Si Si4 0.578678 0.421323 0.625000
Si Si5 0.927182 0.927182 0.375000
Si Si6 0.420941 0.071530 0.118668
O O1 0.290807 0.500000 0.750000
O O2 0.296588 0.329898 0.723942
O O3 0.330934 0.427343 0.473489
O O4 0.171992 0.418481 0.567850
O O5 0.830738 0.289398 0.075866
O O6 0.938866 0.170341 0.196797
O O7 0.953502 0.329368 0.285879
O O8 0.000000 0.292135 0.000000
O O9 0.572685 0.500000 0.750000
O O10 0.000000 0.946573 0.500000
O O11 0.438767 0.000000 0.250000
O O12 0.500000 0.061786 0.000000
#
# Coordination Sequence:
#
# PCOD8304942 Si02
#       6
#     8   8   4   4   4   8
#     4  10  21  37  55  76 103 135 169 208 252 300
#     4   9  18  33  53  74 101 136 171 208 252 299
#     4   9  18  35  54  74 102 135 170 209 252 298
#     4  12  24  37  56  80 104 133 168 208 252 302
#     4   9  18  32  50  74 102 136 172 207 252 300
#     4  10  21  35  53  77 104 134 169 208 252 300
#
# _framework density 18.474695000000001
#
# number of rings (size 3 to 8) (size 9 to 14) (size 15 to 20)
#    0.000    2.222    0.000    2.667    0.000    3.556 
#    0.000    0.000    0.000    0.000    0.000    0.000 
#    0.000    0.000    0.000    0.000    0.000    0.000 
#
# Total GULP energy -446348.536102 kJ/mol
# GULP energy per Si atom -12398.570447 kJ/mol
# Density = 1.843265 g / cm^3
# Si number density = 18.474695 Si / 1000 Ang^3
#
#
#
# Elastic Constant Matrix: (Units=GPa)
#
#
# Indices 1 2 3 4 5 6 
#
# 1 133.9689 31.0002 64.7794 0.0000 0.0000 0.0000
# 2 31.0002 133.9668 64.7795 0.0000 0.0000 0.0000
# 3 64.7794 64.7795 99.1621 0.0000 0.0000 0.0000
# 4 0.0000 0.0000 0.0000 34.7589 0.0000 0.0000
# 5 0.0000 0.0000 0.0000 0.0000 34.7581 0.0000
# 6 0.0000 0.0000 0.0000 0.0000 0.0000 25.7778
#
#
#
# Elastic Compliance Matrix: (Units=1/GPa)
#
#
# Indices 1 2 3 4 5 6 
#
# 1 0.011080 0.001368 -0.008132 0.000000 0.000000 0.000000
# 2 0.001368 0.011080 -0.008132 0.000000 0.000000 0.000000
# 3 -0.008132 -0.008132 0.020709 0.000000 0.000000 0.000000
# 4 0.000000 0.000000 0.000000 0.028770 0.000000 0.000000
# 5 0.000000 0.000000 0.000000 0.000000 0.028770 0.000000
# 6 0.000000 0.000000 0.000000 0.000000 0.000000 0.038793
#
#
# Mechanical properties :
#
#
# Convention : Reuss Voigt Hill
#
# Bulk Modulus (GPa) = 76.46619 76.46843 76.46731
# Shear Modulus (GPa) = 28.84270 32.82819 30.83544
#
# Velocity S-wave (km/s) = 3.95549 4.21993 4.08985
# Velocity P-wave (km/s) = 7.89562 8.07617 7.98640
#
# Compressibility (1/GPa) = 0.01307768
#
# Stress axis : x y z
#
# Youngs Moduli (GPa) = 90.25287 90.25071 48.28705
#
# Poissons Ratio (x) = -0.12349 0.39267
# Poissons Ratio (y) = -0.12350 0.39268
# Poissons Ratio (z) = 0.73394 0.73394
#
# Static dielectric constant tensor:
#      x y z
#    x 3.681340 0.000000 0.000000 
#    y 0.000000 3.681360 0.000000 
#    z 0.000000 0.000000 3.146440 
# 
# 
# High freq. dielectric constant tensor:
#      x y z
#    x 1.735240 0.000000 0.000000 
#    y 0.000000 1.735240 0.000000 
#    z 0.000000 0.000000 1.691400 
# 
# From -- ./inp_files/2319.got.cif
#   From: 2010.03.12/outbox.cif.g09.slc.cpg/sg91_2_cif.got.tgz:2319.got - 2010.04.08 20:27:58.
