data_PCOD8304684
_publ_section_title
;
Structure prediction by ZEFSAII (Michael W. Deem and Ramdas Pophale) SiO2 
 PCOD8304684
Probable space group: P 4 21 2
;
_chemical_formula_sum "Si O2"
_cell_formula_units_Z 48
_cell_length_a 8.101924
_cell_length_b 8.101924
_cell_length_c 33.309037
_cell_angle_alpha 90.000000
_cell_angle_beta 90.000000
_cell_angle_gamma 90.000000
_cell_volume 2186.444244
_symmetry_space_group_name_H-M "P 4 21 2"
_symmetry_group_IT_number 90
_symmetry_cell_setting 'tetragonal'
loop_
_space_group_symop_operation_xyz
x,y,z
1/2-y,1/2+x,z
-x,-y,z
1/2+y,1/2-x,z
1/2+x,1/2-y,-z
1/2-x,1/2+y,-z
y,x,-z
-y,-x,-z
loop_
_atom_site_type_symbol
_atom_site_label
_atom_site_fract_x
_atom_site_fract_y
_atom_site_fract_z
Si Si1 0.236798 0.075273 0.036597
Si Si2 0.500000 0.500000 0.312872
Si Si3 0.922112 0.237404 0.171952
Si Si4 0.921810 0.759184 0.377047
Si Si5 0.000000 0.000000 0.895632
Si Si6 0.079781 0.762638 0.753715
Si Si7 0.070708 0.238457 0.465802
O O1 0.387464 0.202117 0.034730
O O2 0.133149 0.098316 0.077423
O O3 0.113580 0.113580 0.000000
O O4 0.611724 0.385237 0.341747
O O5 0.608302 0.624163 0.285534
O O6 0.796872 0.389455 0.173913
O O7 0.900895 0.133227 0.131159
O O8 0.879218 0.114634 0.208272
O O9 0.797676 0.609642 0.371916
O O10 0.901680 0.839598 0.421408
O O11 0.204252 0.609579 0.754041
O O12 0.198415 0.386804 0.471125
O O13 0.102794 0.102794 0.500000
#
# Coordination Sequence:
#
# PCOD8304684 Si02
#       7
#     8   4   8   8   4   8   8
#     4  11  24  42  65  93 129 175 221 265 316 372
#     4  12  21  36  61  87 112 151 201 242 289 360
#     4  11  24  42  66  95 126 164 210 256 306 372
#     4   9  20  37  55  80 114 148 186 236 289 344
#     4  12  22  40  64  95 132 165 208 268 318 368
#     4  11  24  42  63  89 124 161 199 252 313 369
#     4   9  19  35  54  78 108 142 183 229 280 340
#
# _framework density 21.953453
#
# number of rings (size 3 to 8) (size 9 to 14) (size 15 to 20)
#    0.000    1.500    0.000    6.750    0.000    3.000 
#    0.000    5.000    0.000    2.000    0.000    0.000 
#    0.000    0.000    0.000    0.000    0.000    0.000 
#
# Total GULP energy -595223.060395 kJ/mol
# GULP energy per Si atom -12400.480425 kJ/mol
# Density = 2.190349 g / cm^3
# Si number density = 21.953453 Si / 1000 Ang^3
#
#
#
# Elastic Constant Matrix: (Units=GPa)
#
#
# Indices 1 2 3 4 5 6 
#
# 1 83.7765 50.1191 67.5904 0.0000 0.0000 0.0000
# 2 50.1191 83.7765 67.5904 0.0000 0.0000 0.0000
# 3 67.5904 67.5904 201.7755 0.0000 0.0000 0.0000
# 4 0.0000 0.0000 0.0000 29.3114 0.0000 0.0000
# 5 0.0000 0.0000 0.0000 0.0000 29.3114 0.0000
# 6 0.0000 0.0000 0.0000 0.0000 0.0000 36.7955
#
#
#
# Elastic Compliance Matrix: (Units=1/GPa)
#
#
# Indices 1 2 3 4 5 6 
#
# 1 0.020498 -0.009213 -0.003780 0.000000 0.000000 0.000000
# 2 -0.009213 0.020498 -0.003780 0.000000 0.000000 0.000000
# 3 -0.003780 -0.003780 0.007489 0.000000 0.000000 0.000000
# 4 0.000000 0.000000 0.000000 0.034116 0.000000 0.000000
# 5 0.000000 0.000000 0.000000 0.000000 0.034116 0.000000
# 6 0.000000 0.000000 0.000000 0.000000 0.000000 0.027177
#
#
# Mechanical properties :
#
#
# Convention : Reuss Voigt Hill
#
# Bulk Modulus (GPa) = 66.94473 82.21425 74.57949
# Shear Modulus (GPa) = 27.40910 31.35224 29.38067
#
# Velocity S-wave (km/s) = 3.53726 3.78315 3.66227
# Velocity P-wave (km/s) = 6.87336 7.52420 7.20613
#
# Compressibility (1/GPa) = 0.01493770
#
# Stress axis : x y z
#
# Youngs Moduli (GPa) = 48.78501 48.78501 133.53641
#
# Poissons Ratio (x) = 0.44946 0.50480
# Poissons Ratio (y) = 0.44946 0.50480
# Poissons Ratio (z) = 0.18442 0.18442
#
# Static dielectric constant tensor:
#      x y z
#    x 3.854440 0.000000 0.000000 
#    y 0.000000 3.854440 0.000000 
#    z 0.000000 0.000000 4.103610 
# 
# 
# High freq. dielectric constant tensor:
#      x y z
#    x 1.862250 0.000000 0.000000 
#    y 0.000000 1.862250 0.000000 
#    z 0.000000 0.000000 1.876540 
# 
# From -- ./inp_files/3115.got.cif
#   From: 2010.03.12/outbox.cif.g09.slc.cpg/sg90_2_cif.got.tgz:3115.got - 2010.04.08 20:26:03.
