data_PCOD8304372
_publ_section_title
;
Structure prediction by ZEFSAII (Michael W. Deem and Ramdas Pophale) SiO2 
 PCOD8304372
Probable space group: I 41/A
;
_chemical_formula_sum "Si O2"
_cell_formula_units_Z 80
_cell_length_a 17.111920
_cell_length_b 17.111920
_cell_length_c 13.699650
_cell_angle_alpha 90.000000
_cell_angle_beta 90.000000
_cell_angle_gamma 90.000000
_cell_volume 4011.501457
_symmetry_space_group_name_H-M "I 41/A"
_symmetry_group_IT_number 88
_space_group.IT_coordinate_system_code '2'
_symmetry_cell_setting 'tetragonal'
loop_
_space_group_symop_operation_xyz
x,y,z
3/4-y,1/4+x,1/4+z
-x,1/2-y,z
1/4+y,1/4-x,1/4+z
-x,-y,-z
1/4+y,3/4-x,3/4-z
x,1/2+y,-z
3/4-y,3/4+x,3/4-z
1/2+x,1/2+y,1/2+z
1/4-y,3/4+x,3/4+z
1/2-x,-y,1/2+z
3/4+y,3/4-x,3/4+z
1/2-x,1/2-y,1/2-z
3/4+y,1/4-x,1/4-z
1/2+x,y,1/2-z
1/4-y,1/4+x,1/4-z
loop_
_atom_site_type_symbol
_atom_site_label
_atom_site_fract_x
_atom_site_fract_y
_atom_site_fract_z
Si Si1 0.718190 0.573671 0.283739
Si Si2 0.906374 0.405849 0.632895
Si Si3 0.565765 0.456102 0.559584
Si Si4 0.700435 0.437475 0.420618
Si Si5 0.469379 0.661312 0.272739
O O1 0.753324 0.640784 0.355144
O O2 0.664603 0.618420 0.205420
O O3 0.673032 0.508414 0.348922
O O4 0.788496 0.527216 0.231600
O O5 0.913599 0.364583 0.527994
O O6 0.983326 0.389345 0.693745
O O7 0.500000 0.500000 0.500000
O O8 0.627827 0.414866 0.488307
O O9 0.608335 0.526080 0.616688
O O10 0.531052 0.386493 0.626443
O O11 0.500000 0.750000 0.289157
#
# Coordination Sequence:
#
# PCOD8304372 Si02
#       5
#    16  16  16  16  16
#     4   9  19  35  66  90 115 152 212 261 299 367
#     4  11  20  38  58  90 123 163 203 255 312 369
#     4  11  23  42  65  89 125 165 208 260 314 378
#     4   9  19  40  63  91 118 152 208 262 305 366
#     4  12  24  41  57  86 135 164 200 260 317 376
#
# _framework density 19.942655999999999
#
# number of rings (size 3 to 8) (size 9 to 14) (size 15 to 20)
#    0.000    1.600    4.000    1.200    0.000    0.800 
#    7.200    0.000    0.000    0.000    0.000    0.000 
#    0.000    0.000    0.000    0.000    0.000    0.000 
#
# Total GULP energy -495698.585161 kJ/mol
# GULP energy per Si atom -12392.464629 kJ/mol
# Density = 1.989727 g / cm^3
# Si number density = 19.942656 Si / 1000 Ang^3
#
#
#
# Elastic Constant Matrix: (Units=GPa)
#
#
# Indices 1 2 3 4 5 6 
#
# 1 54.5786 29.8000 36.5632 0.0000 0.0000 -1.8530
# 2 29.8000 54.5786 36.5632 0.0000 0.0000 1.8530
# 3 36.5632 36.5632 114.4883 0.0000 0.0000 0.0000
# 4 0.0000 0.0000 0.0000 45.8390 0.0000 0.0000
# 5 0.0000 0.0000 0.0000 0.0000 45.8390 0.0000
# 6 -1.8530 1.8530 0.0000 0.0000 0.0000 20.9687
#
#
#
# Elastic Compliance Matrix: (Units=1/GPa)
#
#
# Indices 1 2 3 4 5 6 
#
# 1 0.028642 -0.012256 -0.005233 0.000000 0.000000 0.003614
# 2 -0.012256 0.028642 -0.005233 0.000000 0.000000 -0.003614
# 3 -0.005233 -0.005233 0.012077 0.000000 0.000000 0.000000
# 4 0.000000 0.000000 0.000000 0.021815 0.000000 0.000000
# 5 0.000000 0.000000 0.000000 0.000000 0.021815 0.000000
# 6 0.003614 -0.003614 0.000000 0.000000 0.000000 0.048329
#
#
# Mechanical properties :
#
#
# Convention : Reuss Voigt Hill
#
# Bulk Modulus (GPa) = 41.81049 47.72206 44.76627
# Shear Modulus (GPa) = 23.28410 30.57729 26.93070
#
# Velocity S-wave (km/s) = 3.42065 3.91994 3.67877
# Velocity P-wave (km/s) = 6.05079 6.66854 6.36716
#
# Compressibility (1/GPa) = 0.02391744
#
# Stress axis : x y z
#
# Youngs Moduli (GPa) = 34.91330 34.91330 82.80092
#
# Poissons Ratio (x) = 0.42788 0.43332
# Poissons Ratio (y) = 0.42788 0.43332
# Poissons Ratio (z) = 0.18271 0.18271
#
# Static dielectric constant tensor:
#      x y z
#    x 3.494840 0.000000 0.000000 
#    y 0.000000 3.494840 0.000000 
#    z 0.000000 0.000000 3.983710 
# 
# 
# High freq. dielectric constant tensor:
#      x y z
#    x 1.761600 0.000000 0.000000 
#    y 0.000000 1.761600 0.000000 
#    z 0.000000 0.000000 1.795390 
# 
# From -- ./inp_files/3133.got.cif
#   From: 2010.03.12/outbox.cif.g09.slc.cpg/sg88_2_cif.got.tgz:3133.got - 2010.04.08 20:20:55.
