data_PCOD8304456
_publ_section_title
;
Structure prediction by ZEFSAII (Michael W. Deem and Ramdas Pophale) SiO2 
 PCOD8304456
Probable space group: I 41/A
;
_chemical_formula_sum "Si O2"
_cell_formula_units_Z 52
_cell_length_a 11.034469
_cell_length_b 11.034469
_cell_length_c 18.068981
_cell_angle_alpha 90.000000
_cell_angle_beta 90.000000
_cell_angle_gamma 90.000000
_cell_volume 2200.070203
_symmetry_space_group_name_H-M "I 41/A"
_symmetry_group_IT_number 88
_space_group.IT_coordinate_system_code '2'
_symmetry_cell_setting 'tetragonal'
loop_
_space_group_symop_operation_xyz
x,y,z
3/4-y,1/4+x,1/4+z
-x,1/2-y,z
1/4+y,1/4-x,1/4+z
-x,-y,-z
1/4+y,3/4-x,3/4-z
x,1/2+y,-z
3/4-y,3/4+x,3/4-z
1/2+x,1/2+y,1/2+z
1/4-y,3/4+x,3/4+z
1/2-x,-y,1/2+z
3/4+y,3/4-x,3/4+z
1/2-x,1/2-y,1/2-z
3/4+y,1/4-x,1/4-z
1/2+x,y,1/2-z
1/4-y,1/4+x,1/4-z
loop_
_atom_site_type_symbol
_atom_site_label
_atom_site_fract_x
_atom_site_fract_y
_atom_site_fract_z
Si Si1 0.000000 0.250000 0.625000
Si Si2 0.747288 0.267920 0.927977
Si Si3 0.919525 0.547196 0.068396
Si Si4 0.636383 0.049051 0.673380
O O1 0.117689 0.201014 0.580913
O O2 0.849214 0.171469 0.953693
O O3 0.786400 0.333730 0.851479
O O4 0.719973 0.371915 0.988686
O O5 0.824767 0.451012 0.101427
O O6 0.005991 0.569061 0.137323
O O7 0.000000 0.500000 0.000000
#
# Coordination Sequence:
#
# PCOD8304456 Si02
#       4
#     4  16  16  16
#     4  12  28  48  76 112 148 204 258 320 404 460
#     4  12  28  49  77 114 155 206 258 332 392 477
#     4  12  26  49  76 116 154 206 263 320 401 469
#     4  12  27  47  77 111 155 202 260 322 394 467
#
# _framework density 23.635611000000001
#
# number of rings (size 3 to 8) (size 9 to 14) (size 15 to 20)
#    0.000    0.000    6.154    2.769    4.308    4.308 
#    0.000    0.000    0.000    0.000    0.000    0.000 
#    0.000    0.000    0.000    0.000    0.000    0.000 
#
# Total GULP energy -322210.783959 kJ/mol
# GULP energy per Si atom -12392.722460 kJ/mol
# Density = 2.358181 g / cm^3
# Si number density = 23.635611 Si / 1000 Ang^3
#
#
#
# Elastic Constant Matrix: (Units=GPa)
#
#
# Indices 1 2 3 4 5 6 
#
# 1 149.6060 64.2287 37.0893 0.0000 0.0000 8.6659
# 2 64.2287 149.6060 37.0893 0.0000 0.0000 -8.6659
# 3 37.0893 37.0893 77.0407 0.0000 0.0000 0.0000
# 4 0.0000 0.0000 0.0000 33.9522 0.0000 0.0000
# 5 0.0000 0.0000 0.0000 0.0000 33.9522 0.0000
# 6 8.6659 -8.6659 0.0000 0.0000 0.0000 45.3241
#
#
#
# Elastic Compliance Matrix: (Units=1/GPa)
#
#
# Indices 1 2 3 4 5 6 
#
# 1 0.008900 -0.003286 -0.002703 0.000000 0.000000 -0.002330
# 2 -0.003286 0.008900 -0.002703 0.000000 0.000000 0.002330
# 3 -0.002703 -0.002703 0.015583 0.000000 0.000000 0.000000
# 4 0.000000 0.000000 0.000000 0.029453 0.000000 0.000000
# 5 0.000000 0.000000 0.000000 0.000000 0.029453 0.000000
# 6 -0.002330 0.002330 0.000000 0.000000 0.000000 0.022954
#
#
# Mechanical properties :
#
#
# Convention : Reuss Voigt Hill
#
# Bulk Modulus (GPa) = 62.50139 72.56301 67.53220
# Shear Modulus (GPa) = 36.24271 38.50205 37.37238
#
# Velocity S-wave (km/s) = 3.92011 4.04045 3.98073
# Velocity P-wave (km/s) = 6.85498 7.24806 7.05426
#
# Compressibility (1/GPa) = 0.01599964
#
# Stress axis : x y z
#
# Youngs Moduli (GPa) = 112.36089 112.36090 64.17453
#
# Poissons Ratio (x) = 0.36920 0.17345
# Poissons Ratio (y) = 0.36920 0.17345
# Poissons Ratio (z) = 0.30368 0.30368
#
# Static dielectric constant tensor:
#      x y z
#    x 4.514620 0.000000 0.000000 
#    y 0.000000 4.514620 0.000000 
#    z 0.000000 0.000000 4.127740 
# 
# 
# High freq. dielectric constant tensor:
#      x y z
#    x 1.954050 0.000000 0.000000 
#    y 0.000000 1.954050 0.000000 
#    z 0.000000 0.000000 1.915010 
# 
# From -- ./inp_files/4281.got.cif
#   From: 2010.03.12/outbox.cif.g09.slc.cpg/sg88_3_cif.got.tgz:4281.got - 2010.04.08 20:20:55.
