data_PCOD8304854
_publ_section_title
;
Structure prediction by ZEFSAII (Michael W. Deem and Ramdas Pophale) SiO2 
 PCOD8304854
Probable space group: P 41 2 2
;
_chemical_formula_sum "Si O2"
_cell_formula_units_Z 40
_cell_length_a 11.741677
_cell_length_b 11.741677
_cell_length_c 14.780226
_cell_angle_alpha 90.000000
_cell_angle_beta 90.000000
_cell_angle_gamma 90.000000
_cell_volume 2037.705104
_symmetry_space_group_name_H-M "P 41 2 2"
_symmetry_group_IT_number 91
_symmetry_cell_setting 'tetragonal'
loop_
_space_group_symop_operation_xyz
x,y,z
-y,x,1/4+z
-x,-y,1/2+z
y,-x,3/4+z
x,-y,1/2-z
-x,y,-z
y,x,3/4-z
-y,-x,1/4-z
loop_
_atom_site_type_symbol
_atom_site_label
_atom_site_fract_x
_atom_site_fract_y
_atom_site_fract_z
Si Si1 0.057282 0.388531 0.412554
Si Si2 0.692230 0.422229 0.546581
Si Si3 0.104385 0.633997 0.760115
Si Si4 0.967481 0.655719 0.596628
Si Si5 0.671069 0.710198 0.141929
O O1 0.191497 0.366936 0.416378
O O2 0.027654 0.520763 0.410874
O O3 0.000000 0.331366 0.500000
O O4 0.999524 0.330764 0.326102
O O5 0.600789 0.399212 0.625000
O O6 0.660953 0.368203 0.448690
O O7 0.699171 0.559701 0.543262
O O8 0.115021 0.500000 0.750000
O O9 0.224793 0.675978 0.795309
O O10 0.067282 0.693367 0.665994
O O11 0.842513 0.690191 0.633824
O O12 0.000000 0.711765 0.500000
#
# Coordination Sequence:
#
# PCOD8304854 Si02
#       5
#     8   8   8   8   8
#     4   9  16  34  58  79 112 148 209 252 272 340
#     4  11  22  37  58  88 131 166 195 245 314 377
#     4  10  20  35  60  90 116 156 208 253 296 357
#     4   9  20  37  57  83 114 153 203 255 297 340
#     4  11  23  38  60  91 125 163 204 247 313 372
#
# _framework density 19.629926000000001
#
# number of rings (size 3 to 8) (size 9 to 14) (size 15 to 20)
#    0.000    2.000    2.000    1.800    2.800    5.600 
#    0.000    0.000    0.000    0.000   20.800    0.000 
#    0.000    0.000    0.000    0.000    0.000    0.000 
#
# Total GULP energy -495646.180032 kJ/mol
# GULP energy per Si atom -12391.154501 kJ/mol
# Density = 1.958525 g / cm^3
# Si number density = 19.629926 Si / 1000 Ang^3
#
#
#
# Elastic Constant Matrix: (Units=GPa)
#
#
# Indices 1 2 3 4 5 6 
#
# 1 93.5156 24.4605 54.9957 0.0000 0.0000 0.0000
# 2 24.4605 93.5145 54.9949 0.0000 0.0000 0.0000
# 3 54.9957 54.9949 156.0315 0.0000 0.0000 0.0000
# 4 0.0000 0.0000 0.0000 29.2398 0.0000 0.0000
# 5 0.0000 0.0000 0.0000 0.0000 29.2400 0.0000
# 6 0.0000 0.0000 0.0000 0.0000 0.0000 3.4474
#
#
#
# Elastic Compliance Matrix: (Units=1/GPa)
#
#
# Indices 1 2 3 4 5 6 
#
# 1 0.013553 -0.000928 -0.004450 0.000000 0.000000 0.000000
# 2 -0.000928 0.013553 -0.004450 0.000000 0.000000 0.000000
# 3 -0.004450 -0.004450 0.009546 0.000000 0.000000 0.000000
# 4 0.000000 0.000000 0.000000 0.034200 0.000000 0.000000
# 5 0.000000 0.000000 0.000000 0.000000 0.034200 0.000000
# 6 0.000000 0.000000 0.000000 0.000000 0.000000 0.290076
#
#
# Mechanical properties :
#
#
# Convention : Reuss Voigt Hill
#
# Bulk Modulus (GPa) = 58.83598 67.99596 63.41597
# Shear Modulus (GPa) = 11.89204 26.29279 19.09242
#
# Velocity S-wave (km/s) = 2.46399 3.66378 3.12207
# Velocity P-wave (km/s) = 6.17517 7.25340 6.73590
#
# Compressibility (1/GPa) = 0.01699640
#
# Stress axis : x y z
#
# Youngs Moduli (GPa) = 73.78389 73.78329 104.75850
#
# Poissons Ratio (x) = 0.06848 0.46616
# Poissons Ratio (y) = 0.06848 0.46616
# Poissons Ratio (z) = 0.32833 0.32832
#
# Static dielectric constant tensor:
#      x y z
#    x 3.477100 0.000000 0.000000 
#    y 0.000000 3.477100 0.000000 
#    z 0.000000 0.000000 3.978850 
# 
# 
# High freq. dielectric constant tensor:
#      x y z
#    x 1.741520 0.000000 0.000000 
#    y 0.000000 1.741530 0.000000 
#    z 0.000000 0.000000 1.779610 
# 
# From -- ./inp_files/4704.got.cif
#   From: 2010.03.12/outbox.cif.g09.slc.cpg/sg91_3_cif.got.tgz:4704.got - 2010.04.08 20:27:58.
