data_PCOD8304172
_publ_section_title
;
Structure prediction by ZEFSAII (Michael W. Deem and Ramdas Pophale) SiO2 
 PCOD8304172
Probable space group: I 4/M
;
_chemical_formula_sum "Si O2"
_cell_formula_units_Z 80
_cell_length_a 10.793719
_cell_length_b 10.793719
_cell_length_c 34.451982
_cell_angle_alpha 90.000000
_cell_angle_beta 90.000000
_cell_angle_gamma 90.000000
_cell_volume 4013.806453
_symmetry_space_group_name_H-M "I 4/M"
_symmetry_group_IT_number 87
_symmetry_cell_setting 'tetragonal'
loop_
_space_group_symop_operation_xyz
x,y,z
-y,x,z
-x,-y,z
y,-x,z
-x,-y,-z
y,-x,-z
x,y,-z
-y,x,-z
1/2+x,1/2+y,1/2+z
1/2-y,1/2+x,1/2+z
1/2-x,1/2-y,1/2+z
1/2+y,1/2-x,1/2+z
1/2-x,1/2-y,1/2-z
1/2+y,1/2-x,1/2-z
1/2+x,1/2+y,1/2-z
1/2-y,1/2+x,1/2-z
loop_
_atom_site_type_symbol
_atom_site_label
_atom_site_fract_x
_atom_site_fract_y
_atom_site_fract_z
Si Si1 0.430234 0.309848 0.955769
Si Si2 0.705753 0.517551 0.828357
Si Si3 0.298800 0.468162 0.744705
Si Si4 0.926235 0.617755 0.390900
Si Si5 0.543396 0.298682 0.660949
O O1 0.572356 0.344194 0.947357
O O2 0.388332 0.200862 0.927468
O O3 0.413622 0.265414 0.000000
O O4 0.611632 0.631700 0.833503
O O5 0.774139 0.535230 0.785955
O O6 0.810950 0.517331 0.860961
O O7 0.399383 0.361565 0.745205
O O8 0.228760 0.449204 0.703519
O O9 0.800360 0.571685 0.371603
O O10 0.000000 0.500000 0.406928
O O11 0.644863 0.406703 0.656620
#
# Coordination Sequence:
#
# PCOD8304172 Si02
#       5
#    16  16  16  16  16
#     4   9  20  42  71  95 115 144 180 229 299 362
#     4   9  18  35  58  80 108 147 194 253 309 341
#     4   7  12  30  55  73  95 146 206 243 285 333
#     4  12  25  34  54  91 123 147 187 240 286 341
#     4   9  20  39  57  73 110 166 208 234 272 339
#
# _framework density 19.931207000000001
#
# number of rings (size 3 to 8) (size 9 to 14) (size 15 to 20)
#    0.000    2.800    0.000    4.200    5.600    2.000 
#    3.600    3.000    0.000    0.000    0.000    1.400 
#    0.000    0.000    0.000    0.000    0.000    0.000 
#
# Total GULP energy -495527.426961 kJ/mol
# GULP energy per Si atom -12388.185674 kJ/mol
# Density = 1.988584 g / cm^3
# Si number density = 19.931207 Si / 1000 Ang^3
#
#
#
# Elastic Constant Matrix: (Units=GPa)
#
#
# Indices 1 2 3 4 5 6 
#
# 1 54.2628 7.5312 31.5104 0.0000 0.0000 5.2009
# 2 7.5312 54.2628 31.5104 0.0000 0.0000 -5.2009
# 3 31.5104 31.5104 109.6540 0.0000 0.0000 0.0000
# 4 0.0000 0.0000 0.0000 7.7851 0.0000 0.0000
# 5 0.0000 0.0000 0.0000 0.0000 7.7851 0.0000
# 6 5.2009 -5.2009 0.0000 0.0000 0.0000 12.7165
#
#
#
# Elastic Compliance Matrix: (Units=1/GPa)
#
#
# Indices 1 2 3 4 5 6 
#
# 1 0.023217 -0.000325 -0.006578 0.000000 0.000000 -0.009628
# 2 -0.000325 0.023217 -0.006578 0.000000 0.000000 0.009628
# 3 -0.006578 -0.006578 0.012900 0.000000 0.000000 0.000000
# 4 0.000000 0.000000 0.000000 0.128451 0.000000 0.000000
# 5 0.000000 0.000000 0.000000 0.000000 0.128450 0.000000
# 6 -0.009628 0.009628 0.000000 0.000000 0.000000 0.086514
#
#
# Mechanical properties :
#
#
# Convention : Reuss Voigt Hill
#
# Bulk Modulus (GPa) = 30.89218 39.92042 35.40630
# Shear Modulus (GPa) = 11.35070 15.49918 13.42494
#
# Velocity S-wave (km/s) = 2.38900 2.79163 2.59813
# Velocity P-wave (km/s) = 4.81069 5.51938 5.17718
#
# Compressibility (1/GPa) = 0.03237066
#
# Stress axis : x y z
#
# Youngs Moduli (GPa) = 43.07239 43.07238 77.51799
#
# Poissons Ratio (x) = 0.01401 0.50993
# Poissons Ratio (y) = 0.01401 0.50993
# Poissons Ratio (z) = 0.28334 0.28334
#
# Static dielectric constant tensor:
#      x y z
#    x 3.384350 0.000000 0.000000 
#    y 0.000000 3.384350 0.000000 
#    z 0.000000 0.000000 3.786620 
# 
# 
# High freq. dielectric constant tensor:
#      x y z
#    x 1.755670 0.000000 0.000000 
#    y 0.000000 1.755670 0.000000 
#    z 0.000000 0.000000 1.777030 
# 
# From -- ./inp_files/6471.got.cif
#   From: 2010.03.12/outbox.cif.g09.slc.cpg/sg87_4_cif.got.tgz:6471.got - 2010.04.08 20:16:13.
