data_PCOD8304683
_publ_section_title
;
Structure prediction by ZEFSAII (Michael W. Deem and Ramdas Pophale) SiO2 
 PCOD8304683
Probable space group: P 4 21 2
;
_chemical_formula_sum "Si O2"
_cell_formula_units_Z 42
_cell_length_a 8.403810
_cell_length_b 8.403810
_cell_length_c 25.548962
_cell_angle_alpha 90.000000
_cell_angle_beta 90.000000
_cell_angle_gamma 90.000000
_cell_volume 1804.370468
_symmetry_space_group_name_H-M "P 4 21 2"
_symmetry_group_IT_number 90
_symmetry_cell_setting 'tetragonal'
loop_
_space_group_symop_operation_xyz
x,y,z
1/2-y,1/2+x,z
-x,-y,z
1/2+y,1/2-x,z
1/2+x,1/2-y,-z
1/2-x,1/2+y,-z
y,x,-z
-y,-x,-z
loop_
_atom_site_type_symbol
_atom_site_label
_atom_site_fract_x
_atom_site_fract_y
_atom_site_fract_z
Si Si1 0.407360 0.664747 0.942977
Si Si2 0.366880 0.777347 0.159736
Si Si3 0.604044 0.241284 0.548453
Si Si4 0.269173 0.120909 0.742743
Si Si5 0.388754 0.762952 0.354509
Si Si6 0.500000 0.000000 0.950846
O O1 0.500000 0.500000 0.936107
O O2 0.268974 0.667892 0.899823
O O3 0.533161 0.811402 0.939551
O O4 0.324262 0.675739 0.000000
O O5 0.554247 0.785187 0.170677
O O6 0.292244 0.646752 0.198348
O O7 0.418383 0.206401 0.545662
O O8 0.646769 0.353232 0.500000
O O9 0.637701 0.332414 0.602278
O O10 0.434384 0.211447 0.733319
O O11 0.139972 0.189562 0.702640
O O12 0.574865 0.791528 0.361589
#
# Coordination Sequence:
#
# PCOD8304683 Si02
#       6
#     8   8   8   8   8   2
#     4  11  28  48  74 111 144 186 239 293 357 429
#     4  11  26  45  70 101 139 181 229 289 353 420
#     4  11  24  41  64  97 135 175 226 281 340 409
#     4  11  26  44  67  98 134 178 232 288 348 421
#     4  11  24  43  67  96 133 175 226 283 347 416
#     4  12  28  44  80 100 144 188 236 284 356 426
#
# _framework density 23.276814999999999
#
# number of rings (size 3 to 8) (size 9 to 14) (size 15 to 20)
#    0.000    0.952    0.000    4.571   10.667   11.048 
#    0.000    0.000    0.000    0.000    0.000    0.000 
#    0.000    0.000    0.000    0.000    0.000    0.000 
#
# Total GULP energy -520369.781523 kJ/mol
# GULP energy per Si atom -12389.756703 kJ/mol
# Density = 2.322384 g / cm^3
# Si number density = 23.276815 Si / 1000 Ang^3
#
#
#
# Elastic Constant Matrix: (Units=GPa)
#
#
# Indices 1 2 3 4 5 6 
#
# 1 61.9213 21.2945 9.0730 0.0000 0.0000 0.0000
# 2 21.2945 61.9197 9.0724 0.0000 0.0000 0.0000
# 3 9.0730 9.0724 116.4345 0.0000 0.0000 0.0000
# 4 0.0000 0.0000 0.0000 33.4782 0.0000 0.0000
# 5 0.0000 0.0000 0.0000 0.0000 33.4784 0.0000
# 6 0.0000 0.0000 0.0000 0.0000 0.0000 33.1529
#
#
#
# Elastic Compliance Matrix: (Units=1/GPa)
#
#
# Indices 1 2 3 4 5 6 
#
# 1 0.018420 -0.006195 -0.000953 0.000000 0.000000 0.000000
# 2 -0.006195 0.018420 -0.000953 0.000000 0.000000 0.000000
# 3 -0.000953 -0.000953 0.008737 0.000000 0.000000 0.000000
# 4 0.000000 0.000000 0.000000 0.029870 0.000000 0.000000
# 5 0.000000 0.000000 0.000000 0.000000 0.029870 0.000000
# 6 0.000000 0.000000 0.000000 0.000000 0.000000 0.030163
#
#
# Mechanical properties :
#
#
# Convention : Reuss Voigt Hill
#
# Bulk Modulus (GPa) = 34.04111 35.46170 34.75140
# Shear Modulus (GPa) = 30.96506 33.41095 32.18800
#
# Velocity S-wave (km/s) = 3.65128 3.79274 3.72268
# Velocity P-wave (km/s) = 5.69491 5.86922 5.78272
#
# Compressibility (1/GPa) = 0.02937625
#
# Stress axis : x y z
#
# Youngs Moduli (GPa) = 54.29011 54.28879 114.45619
#
# Poissons Ratio (x) = 0.33632 0.10903
# Poissons Ratio (y) = 0.33633 0.10902
# Poissons Ratio (z) = 0.05172 0.05171
#
# Static dielectric constant tensor:
#      x y z
#    x 4.939870 0.000000 0.000000 
#    y 0.000000 4.939910 0.000000 
#    z 0.000000 0.000000 4.092520 
# 
# 
# High freq. dielectric constant tensor:
#      x y z
#    x 1.944070 0.000000 0.000000 
#    y 0.000000 1.944070 0.000000 
#    z 0.000000 0.000000 1.911820 
# 
# From -- ./inp_files/2968.got.cif
#   From: 2010.03.12/outbox.cif.g09.slc.cpg/sg90_2_cif.got.tgz:2968.got - 2010.04.08 20:26:03.
