data_PCOD8304078
_publ_section_title
;
Structure prediction by ZEFSAII (Michael W. Deem and Ramdas Pophale) SiO2 
 PCOD8304078
Probable space group: I 4/M
;
_chemical_formula_sum "Si O2"
_cell_formula_units_Z 72
_cell_length_a 17.379381
_cell_length_b 17.379381
_cell_length_c 11.993151
_cell_angle_alpha 90.000000
_cell_angle_beta 90.000000
_cell_angle_gamma 90.000000
_cell_volume 3622.445916
_symmetry_space_group_name_H-M "I 4/M"
_symmetry_group_IT_number 87
_symmetry_cell_setting 'tetragonal'
loop_
_space_group_symop_operation_xyz
x,y,z
-y,x,z
-x,-y,z
y,-x,z
-x,-y,-z
y,-x,-z
x,y,-z
-y,x,-z
1/2+x,1/2+y,1/2+z
1/2-y,1/2+x,1/2+z
1/2-x,1/2-y,1/2+z
1/2+y,1/2-x,1/2+z
1/2-x,1/2-y,1/2-z
1/2+y,1/2-x,1/2-z
1/2+x,1/2+y,1/2-z
1/2-y,1/2+x,1/2-z
loop_
_atom_site_type_symbol
_atom_site_label
_atom_site_fract_x
_atom_site_fract_y
_atom_site_fract_z
Si Si1 0.400618 0.654931 0.000000
Si Si2 0.601024 0.570605 0.758892
Si Si3 0.029194 0.622166 0.731394
Si Si4 0.194075 0.495306 0.000000
Si Si5 0.747873 0.601178 0.624266
Si Si6 0.674882 0.775517 0.000000
O O1 0.414353 0.604214 0.109133
O O2 0.463158 0.720909 0.000000
O O3 0.314894 0.690119 0.000000
O O4 0.519010 0.605862 0.724379
O O5 0.669410 0.612880 0.693414
O O6 0.092179 0.556384 0.747478
O O7 0.036474 0.648319 0.604902
O O8 0.044212 0.694041 0.812468
O O9 0.201355 0.586312 0.000000
O O10 0.731317 0.566739 0.500000
O O11 0.786251 0.686012 0.610236
#
# Coordination Sequence:
#
# PCOD8304078 Si02
#       6
#     8  16  16   8  16   8
#     4  12  24  41  67  99 127 169 218 281 339 386
#     4  11  24  43  69  97 131 174 225 280 333 394
#     4  11  23  39  66  96 136 178 222 278 332 400
#     4  12  22  42  66  99 128 177 219 275 336 392
#     4  10  23  45  63  96 134 176 217 275 333 393
#     4  10  24  45  66  96 142 163 221 281 323 400
#
# _framework density 19.876075
#
# number of rings (size 3 to 8) (size 9 to 14) (size 15 to 20)
#    0.667    0.444    4.444    2.000    1.556    3.556 
#    4.000    1.111    0.000    0.000    0.000    0.000 
#    0.000    0.000    0.000    0.000    0.000    0.000 
#
# Total GULP energy -446379.020865 kJ/mol
# GULP energy per Si atom -12399.417246 kJ/mol
# Density = 1.983084 g / cm^3
# Si number density = 19.876075 Si / 1000 Ang^3
#
#
#
# Elastic Constant Matrix: (Units=GPa)
#
#
# Indices 1 2 3 4 5 6 
#
# 1 85.7947 13.3949 19.9730 0.0000 0.0000 1.4129
# 2 13.3949 85.7947 19.9730 0.0000 0.0000 -1.4129
# 3 19.9730 19.9730 109.4855 0.0000 0.0000 0.0000
# 4 0.0000 0.0000 0.0000 29.7915 0.0000 0.0000
# 5 0.0000 0.0000 0.0000 0.0000 29.7915 0.0000
# 6 1.4129 -1.4129 0.0000 0.0000 0.0000 23.6696
#
#
#
# Elastic Compliance Matrix: (Units=1/GPa)
#
#
# Indices 1 2 3 4 5 6 
#
# 1 0.012363 -0.001482 -0.001985 0.000000 0.000000 -0.000826
# 2 -0.001482 0.012363 -0.001985 0.000000 0.000000 0.000826
# 3 -0.001985 -0.001985 0.009858 0.000000 0.000000 0.000000
# 4 0.000000 0.000000 0.000000 0.033567 0.000000 0.000000
# 5 0.000000 0.000000 0.000000 0.000000 0.033567 0.000000
# 6 -0.000826 0.000826 0.000000 0.000000 0.000000 0.042347
#
#
# Mechanical properties :
#
#
# Convention : Reuss Voigt Hill
#
# Bulk Modulus (GPa) = 42.22956 43.08406 42.65681
# Shear Modulus (GPa) = 30.70115 31.83278 31.26697
#
# Velocity S-wave (km/s) = 3.93444 4.00629 3.97053
# Velocity P-wave (km/s) = 6.47552 6.56688 6.52136
#
# Compressibility (1/GPa) = 0.02368009
#
# Stress axis : x y z
#
# Youngs Moduli (GPa) = 80.88803 80.88803 101.44197
#
# Poissons Ratio (x) = 0.11985 0.20136
# Poissons Ratio (y) = 0.11985 0.20136
# Poissons Ratio (z) = 0.16056 0.16056
#
# Static dielectric constant tensor:
#      x y z
#    x 3.569900 0.000000 0.000000 
#    y 0.000000 3.569900 0.000000 
#    z 0.000000 0.000000 3.614550 
# 
# 
# High freq. dielectric constant tensor:
#      x y z
#    x 1.777900 0.000000 0.000000 
#    y 0.000000 1.777900 0.000000 
#    z 0.000000 0.000000 1.778220 
# 
# From -- ./inp_files/2489.got.cif
#   From: 2010.03.12/outbox.cif.g09.slc.cpg/sg87_2_cif.got.tgz:2489.got - 2010.04.08 20:16:13.
