data_PCOD8304540
_publ_section_title
;
Structure prediction by ZEFSAII (Michael W. Deem and Ramdas Pophale) SiO2 
 PCOD8304540
Probable space group: P 4 21 2
;
_chemical_formula_sum "Si O2"
_cell_formula_units_Z 32
_cell_length_a 12.249607
_cell_length_b 12.249607
_cell_length_c 10.849425
_cell_angle_alpha 90.000000
_cell_angle_beta 90.000000
_cell_angle_gamma 90.000000
_cell_volume 1627.987377
_symmetry_space_group_name_H-M "P 4 21 2"
_symmetry_group_IT_number 90
_symmetry_cell_setting 'tetragonal'
loop_
_space_group_symop_operation_xyz
x,y,z
1/2-y,1/2+x,z
-x,-y,z
1/2+y,1/2-x,z
1/2+x,1/2-y,-z
1/2-x,1/2+y,-z
y,x,-z
-y,-x,-z
loop_
_atom_site_type_symbol
_atom_site_label
_atom_site_fract_x
_atom_site_fract_y
_atom_site_fract_z
Si Si1 0.481616 0.176315 0.271284
Si Si2 0.051267 0.120487 0.121882
Si Si3 0.476499 0.175666 0.985732
Si Si4 0.614661 0.438919 0.627807
O O1 0.382472 0.096308 0.302789
O O2 0.475950 0.285074 0.355591
O O3 0.475256 0.210574 0.128584
O O4 0.962784 0.217433 0.101455
O O5 0.115153 0.140074 0.251015
O O6 0.129053 0.129053 0.000000
O O7 0.000000 0.000000 0.126269
O O8 0.379798 0.092842 0.954808
O O9 0.500000 0.500000 0.622018
O O10 0.628650 0.371351 0.500000
#
# Coordination Sequence:
#
# PCOD8304540 Si02
#       4
#     8   8   8   8
#     4   9  18  36  60  83 111 151 192 228 274 343
#     4  10  19  35  53  81 113 142 185 229 279 333
#     4   9  18  35  57  85 116 145 185 234 284 335
#     4  10  21  39  55  80 119 151 189 233 278 333
#
# _framework density 19.656171000000001
#
# number of rings (size 3 to 8) (size 9 to 14) (size 15 to 20)
#    0.000    2.500    2.500    1.500    0.000    0.000 
#   18.000    0.000    0.000    3.000    0.000    0.000 
#    0.000    0.000    0.000    0.000    0.000    0.000 
#
# Total GULP energy -396425.789085 kJ/mol
# GULP energy per Si atom -12388.305909 kJ/mol
# Density = 1.961143 g / cm^3
# Si number density = 19.656171 Si / 1000 Ang^3
#
#
#
# Elastic Constant Matrix: (Units=GPa)
#
#
# Indices 1 2 3 4 5 6 
#
# 1 102.1034 18.8929 27.0540 0.0000 0.0000 0.0000
# 2 18.8929 102.1037 27.0541 0.0000 0.0000 0.0000
# 3 27.0540 27.0541 136.7898 0.0000 0.0000 0.0000
# 4 0.0000 0.0000 0.0000 15.0695 0.0000 0.0000
# 5 0.0000 0.0000 0.0000 0.0000 15.0694 0.0000
# 6 0.0000 0.0000 0.0000 0.0000 0.0000 22.0796
#
#
#
# Elastic Compliance Matrix: (Units=1/GPa)
#
#
# Indices 1 2 3 4 5 6 
#
# 1 0.010542 -0.001476 -0.001793 0.000000 0.000000 0.000000
# 2 -0.001476 0.010542 -0.001793 0.000000 0.000000 0.000000
# 3 -0.001793 -0.001793 0.008020 0.000000 0.000000 0.000000
# 4 0.000000 0.000000 0.000000 0.066359 0.000000 0.000000
# 5 0.000000 0.000000 0.000000 0.000000 0.066360 0.000000
# 6 0.000000 0.000000 0.000000 0.000000 0.000000 0.045291
#
#
# Mechanical properties :
#
#
# Convention : Reuss Voigt Hill
#
# Bulk Modulus (GPa) = 52.68630 54.11100 53.39865
# Shear Modulus (GPa) = 22.36495 28.31010 25.33752
#
# Velocity S-wave (km/s) = 3.37680 3.79920 3.59421
# Velocity P-wave (km/s) = 6.48582 6.84352 6.66707
#
# Compressibility (1/GPa) = 0.01898027
#
# Stress axis : x y z
#
# Youngs Moduli (GPa) = 94.85729 94.85751 124.69157
#
# Poissons Ratio (x) = 0.13997 0.22359
# Poissons Ratio (y) = 0.13997 0.22359
# Poissons Ratio (z) = 0.17010 0.17010
#
# Static dielectric constant tensor:
#      x y z
#    x 3.421120 0.000000 0.000000 
#    y 0.000000 3.421120 0.000000 
#    z 0.000000 0.000000 4.845970 
# 
# 
# High freq. dielectric constant tensor:
#      x y z
#    x 1.749200 0.000000 0.000000 
#    y 0.000000 1.749200 0.000000 
#    z 0.000000 0.000000 1.754570 
# 
# From -- ./inp_files/1856.got.cif
#   From: 2010.03.12/outbox.cif.g09.slc.cpg/sg90_1_cif.got.tgz:1856.got - 2010.04.08 20:26:03.
