data_PCOD8304575
_publ_section_title
;
Structure prediction by ZEFSAII (Michael W. Deem and Ramdas Pophale) SiO2 
 PCOD8304575
Probable space group: P 4 21 2
;
_chemical_formula_sum "Si O2"
_cell_formula_units_Z 40
_cell_length_a 10.808383
_cell_length_b 10.808383
_cell_length_c 14.865694
_cell_angle_alpha 90.000000
_cell_angle_beta 90.000000
_cell_angle_gamma 90.000000
_cell_volume 1736.627366
_symmetry_space_group_name_H-M "P 4 21 2"
_symmetry_group_IT_number 90
_symmetry_cell_setting 'tetragonal'
loop_
_space_group_symop_operation_xyz
x,y,z
1/2-y,1/2+x,z
-x,-y,z
1/2+y,1/2-x,z
1/2+x,1/2-y,-z
1/2-x,1/2+y,-z
y,x,-z
-y,-x,-z
loop_
_atom_site_type_symbol
_atom_site_label
_atom_site_fract_x
_atom_site_fract_y
_atom_site_fract_z
Si Si1 0.515572 0.360120 0.168804
Si Si2 0.460673 0.802367 0.518279
Si Si3 0.865218 0.827428 0.645097
Si Si4 0.146751 0.365448 0.257829
Si Si5 0.266123 0.256350 0.103584
O O1 0.500000 0.500000 0.130342
O O2 0.548397 0.374366 0.274253
O O3 0.393335 0.278768 0.156871
O O4 0.618042 0.284968 0.113113
O O5 0.595396 0.855355 0.541273
O O6 0.437297 0.679446 0.577646
O O7 0.442310 0.772776 0.412292
O O8 0.737522 0.771082 0.689447
O O9 0.172893 0.505939 0.284768
O O10 0.167334 0.349607 0.150447
O O11 0.287961 0.287961 0.000000
#
# Coordination Sequence:
#
# PCOD8304575 Si02
#       5
#     8   8   8   8   8
#     4  11  27  48  74 106 151 198 248 320 370 457
#     4  10  22  41  67  98 140 187 238 307 361 443
#     4  10  22  41  66 102 133 184 234 296 377 436
#     4  10  21  40  68  96 131 180 244 307 360 445
#     4  11  26  43  72 105 143 195 246 305 388 445
#
# _framework density 23.033152000000001
#
# number of rings (size 3 to 8) (size 9 to 14) (size 15 to 20)
#    0.000    1.600    0.000    3.600   11.200    3.600 
#    3.600    1.000    0.000    0.000    0.000    0.000 
#    0.000    0.000    0.000    0.000    0.000    0.000 
#
# Total GULP energy -495650.695129 kJ/mol
# GULP energy per Si atom -12391.267378 kJ/mol
# Density = 2.298073 g / cm^3
# Si number density = 23.033152 Si / 1000 Ang^3
#
#
#
# Elastic Constant Matrix: (Units=GPa)
#
#
# Indices 1 2 3 4 5 6 
#
# 1 85.8624 59.5839 25.7234 0.0000 0.0000 0.0000
# 2 59.5839 85.8624 25.7234 0.0000 0.0000 0.0000
# 3 25.7234 25.7234 120.6997 0.0000 0.0000 0.0000
# 4 0.0000 0.0000 0.0000 31.3601 0.0000 0.0000
# 5 0.0000 0.0000 0.0000 0.0000 31.3601 0.0000
# 6 0.0000 0.0000 0.0000 0.0000 0.0000 37.3942
#
#
#
# Elastic Compliance Matrix: (Units=1/GPa)
#
#
# Indices 1 2 3 4 5 6 
#
# 1 0.022745 -0.015309 -0.001585 0.000000 0.000000 0.000000
# 2 -0.015309 0.022745 -0.001585 0.000000 0.000000 0.000000
# 3 -0.001585 -0.001585 0.008961 0.000000 0.000000 0.000000
# 4 0.000000 0.000000 0.000000 0.031888 0.000000 0.000000
# 5 0.000000 0.000000 0.000000 0.000000 0.031888 0.000000
# 6 0.000000 0.000000 0.000000 0.000000 0.000000 0.026742
#
#
# Mechanical properties :
#
#
# Convention : Reuss Voigt Hill
#
# Bulk Modulus (GPa) = 57.16434 57.16508 57.16471
# Shear Modulus (GPa) = 26.63034 32.11581 29.37308
#
# Velocity S-wave (km/s) = 3.40395 3.73812 3.57494
# Velocity P-wave (km/s) = 6.34990 6.59575 6.47399
#
# Compressibility (1/GPa) = 0.01749342
#
# Stress axis : x y z
#
# Youngs Moduli (GPa) = 43.96586 43.96586 111.60090
#
# Poissons Ratio (x) = 0.67307 0.17686
# Poissons Ratio (y) = 0.67307 0.17686
# Poissons Ratio (z) = 0.06967 0.06967
#
# Static dielectric constant tensor:
#      x y z
#    x 4.023760 0.000000 0.000000 
#    y 0.000000 4.023760 0.000000 
#    z 0.000000 0.000000 4.425680 
# 
# 
# High freq. dielectric constant tensor:
#      x y z
#    x 1.897480 0.000000 0.000000 
#    y 0.000000 1.897480 0.000000 
#    z 0.000000 0.000000 1.927470 
# 
# From -- ./inp_files/2478.got.cif
#   From: 2010.03.12/outbox.cif.g09.slc.cpg/sg90_2_cif.got.tgz:2478.got - 2010.04.08 20:26:03.
