data_PCOD8304054
_publ_section_title
;
Structure prediction by ZEFSAII (Michael W. Deem and Ramdas Pophale) SiO2 
 PCOD8304054
Probable space group: I 4/M
;
_chemical_formula_sum "Si O2"
_cell_formula_units_Z 96
_cell_length_a 23.712605
_cell_length_b 23.712605
_cell_length_c 8.492007
_cell_angle_alpha 90.000000
_cell_angle_beta 90.000000
_cell_angle_gamma 90.000000
_cell_volume 4774.950540
_symmetry_space_group_name_H-M "I 4/M"
_symmetry_group_IT_number 87
_symmetry_cell_setting 'tetragonal'
loop_
_space_group_symop_operation_xyz
x,y,z
-y,x,z
-x,-y,z
y,-x,z
-x,-y,-z
y,-x,-z
x,y,-z
-y,x,-z
1/2+x,1/2+y,1/2+z
1/2-y,1/2+x,1/2+z
1/2-x,1/2-y,1/2+z
1/2+y,1/2-x,1/2+z
1/2-x,1/2-y,1/2-z
1/2+y,1/2-x,1/2-z
1/2+x,1/2+y,1/2-z
1/2-y,1/2+x,1/2-z
loop_
_atom_site_type_symbol
_atom_site_label
_atom_site_fract_x
_atom_site_fract_y
_atom_site_fract_z
Si Si1 0.957592 0.289974 0.682422
Si Si2 0.049077 0.210021 0.183970
Si Si3 0.086558 0.979781 0.812866
Si Si4 0.732266 0.332305 0.182503
Si Si5 0.239303 0.340119 0.318214
Si Si6 0.083560 0.484762 0.816115
O O1 0.972997 0.281749 0.500000
O O2 0.893116 0.273449 0.709239
O O3 0.967120 0.354148 0.737004
O O4 0.996316 0.250340 0.788481
O O5 0.034644 0.148173 0.253930
O O6 0.102152 0.234659 0.276677
O O7 0.063156 0.207135 0.000000
O O8 0.041686 0.932985 0.752960
O O9 0.088175 0.980625 0.000000
O O10 0.683260 0.301859 0.282324
O O11 0.792822 0.306463 0.226773
O O12 0.719121 0.322673 0.000000
O O13 0.235828 0.358072 0.500000
O O14 0.066306 0.541390 0.724317
O O15 0.080233 0.497807 0.000000
#
# Coordination Sequence:
#
# PCOD8304054 Si02
#       6
#    16  16  16  16  16  16
#     4  11  25  41  59  89 125 159 198 250 307 356
#     4  11  23  36  60  92 121 159 205 246 294 363
#     4   8  16  33  56  83 116 152 194 244 289 335
#     4  10  22  41  63  89 123 159 196 250 309 358
#     4  10  22  41  65  89 116 158 207 249 298 366
#     4  10  22  40  63  88 117 155 198 245 301 361
#
# _framework density 20.104918999999999
#
# number of rings (size 3 to 8) (size 9 to 14) (size 15 to 20)
#    0.000    2.000    0.000    3.500    4.667    4.667 
#    0.000    0.000    0.000    0.000    0.000    4.667 
#    0.000    0.000    0.000    0.000    0.000    0.000 
#
# Total GULP energy -595416.036121 kJ/mol
# GULP energy per Si atom -12404.500753 kJ/mol
# Density = 2.005916 g / cm^3
# Si number density = 20.104919 Si / 1000 Ang^3
#
#
#
# Elastic Constant Matrix: (Units=GPa)
#
#
# Indices 1 2 3 4 5 6 
#
# 1 123.4359 51.7915 17.5090 0.0000 0.0000 -0.2453
# 2 51.7915 123.4359 17.5090 0.0000 0.0000 0.2453
# 3 17.5090 17.5090 37.1255 0.0000 0.0000 0.0000
# 4 0.0000 0.0000 0.0000 29.3565 0.0000 0.0000
# 5 0.0000 0.0000 0.0000 0.0000 29.3565 0.0000
# 6 -0.2453 0.2453 0.0000 0.0000 0.0000 24.2210
#
#
#
# Elastic Compliance Matrix: (Units=1/GPa)
#
#
# Indices 1 2 3 4 5 6 
#
# 1 0.010130 -0.003829 -0.002972 0.000000 0.000000 0.000141
# 2 -0.003829 0.010130 -0.002972 0.000000 0.000000 -0.000141
# 3 -0.002972 -0.002972 0.029739 0.000000 0.000000 0.000000
# 4 0.000000 0.000000 0.000000 0.034064 0.000000 0.000000
# 5 0.000000 0.000000 0.000000 0.000000 0.034064 0.000000
# 6 0.000141 -0.000141 0.000000 0.000000 0.000000 0.041289
#
#
# Mechanical properties :
#
#
# Convention : Reuss Voigt Hill
#
# Bulk Modulus (GPa) = 32.83654 50.84624 41.84139
# Shear Modulus (GPa) = 26.43953 29.73267 28.08610
#
# Velocity S-wave (km/s) = 3.63033 3.84979 3.74167
# Velocity P-wave (km/s) = 5.82585 6.71614 6.28677
#
# Compressibility (1/GPa) = 0.03045388
#
# Stress axis : x y z
#
# Youngs Moduli (GPa) = 98.71914 98.71914 33.62641
#
# Poissons Ratio (x) = 0.37800 0.09992
# Poissons Ratio (y) = 0.37800 0.09992
# Poissons Ratio (z) = 0.29335 0.29335
#
# Static dielectric constant tensor:
#      x y z
#    x 3.733200 0.000000 0.000000 
#    y 0.000000 3.733200 0.000000 
#    z 0.000000 0.000000 3.434820 
# 
# 
# High freq. dielectric constant tensor:
#      x y z
#    x 1.790880 0.000000 0.000000 
#    y 0.000000 1.790880 0.000000 
#    z 0.000000 0.000000 1.774560 
# 
# From -- ./inp_files/1384.got.cif
#   From: 2010.03.12/outbox.cif.g09.slc.cpg/sg87_1_cif.got.tgz:1384.got - 2010.04.08 20:16:13.
