data_PCOD8304467
_publ_section_title
;
Structure prediction by ZEFSAII (Michael W. Deem and Ramdas Pophale) SiO2 
 PCOD8304467
Probable space group: P 4 2 2
;
_chemical_formula_sum "Si O2"
_cell_formula_units_Z 56
_cell_length_a 20.192868
_cell_length_b 20.192868
_cell_length_c 9.485614
_cell_angle_alpha 90.000000
_cell_angle_beta 90.000000
_cell_angle_gamma 90.000000
_cell_volume 3867.777303
_symmetry_space_group_name_H-M "P 4 2 2"
_symmetry_group_IT_number 89
_symmetry_cell_setting 'tetragonal'
loop_
_space_group_symop_operation_xyz
x,y,z
-y,x,z
-x,-y,z
y,-x,z
x,-y,-z
-x,y,-z
y,x,-z
-y,-x,-z
loop_
_atom_site_type_symbol
_atom_site_label
_atom_site_fract_x
_atom_site_fract_y
_atom_site_fract_z
Si Si1 0.374000 0.078320 0.335778
Si Si2 0.863022 0.240096 0.773472
Si Si3 0.819860 0.923259 0.029441
Si Si4 0.139312 0.761249 0.290036
Si Si5 0.500932 0.078210 0.158978
Si Si6 0.923826 0.371947 0.665504
Si Si7 0.169899 0.073952 0.536712
O O1 0.317418 0.128551 0.280438
O O2 0.437699 0.101790 0.248178
O O3 0.388439 0.087080 0.501475
O O4 0.354835 0.001292 0.305295
O O5 0.884511 0.235926 0.936599
O O6 0.786751 0.214127 0.749862
O O7 0.875550 0.312580 0.711913
O O8 0.911773 0.186379 0.698833
O O9 0.891918 0.891918 0.000000
O O10 0.798685 0.913217 0.190398
O O11 0.822678 0.000000 0.000000
O O12 0.121873 0.781206 0.449453
O O13 0.566269 0.100950 0.242088
O O14 0.500000 0.000000 0.149642
O O15 0.500000 0.108288 0.000000
O O16 0.093820 0.093820 0.500000
O O17 0.186387 0.000000 0.500000
#
# Coordination Sequence:
#
# PCOD8304467 Si02
#       7
#     8   8   8   8   8   8   8
#     4  10  18  29  46  63  84 111 137 169 212 256
#     4  10  20  31  44  62  82 106 139 177 214 258
#     4  10  20  31  42  57  77 103 139 181 224 266
#     4  10  20  31  44  62  82 106 139 177 214 258
#     4   9  19  31  43  65  87 105 133 168 207 256
#     4  10  18  29  46  63  84 111 137 169 212 256
#     4  10  18  29  42  57  77 101 135 175 216 258
#
# _framework density 14.478599000000001
#
# number of rings (size 3 to 8) (size 9 to 14) (size 15 to 20)
#    0.000    2.143    1.429    3.000    2.000    2.000 
#    0.000    0.000    0.000    5.143    0.000    0.000 
#    0.000    0.000    0.000    0.000    0.000    0.714 
#
# Total GULP energy -694064.537696 kJ/mol
# GULP energy per Si atom -12394.009602 kJ/mol
# Density = 1.444565 g / cm^3
# Si number density = 14.478599 Si / 1000 Ang^3
#
#
#
# Elastic Constant Matrix: (Units=GPa)
#
#
# Indices 1 2 3 4 5 6 
#
# 1 78.7487 37.5010 30.8043 0.0000 0.0000 0.0000
# 2 37.5010 78.7487 30.8043 0.0000 0.0000 0.0000
# 3 30.8043 30.8043 67.3525 0.0000 0.0000 0.0000
# 4 0.0000 0.0000 0.0000 17.6801 0.0000 0.0000
# 5 0.0000 0.0000 0.0000 0.0000 17.6801 0.0000
# 6 0.0000 0.0000 0.0000 0.0000 0.0000 13.2430
#
#
#
# Elastic Compliance Matrix: (Units=1/GPa)
#
#
# Indices 1 2 3 4 5 6 
#
# 1 0.017799 -0.006445 -0.005193 0.000000 0.000000 0.000000
# 2 -0.006445 0.017799 -0.005193 0.000000 0.000000 0.000000
# 3 -0.005193 -0.005193 0.019597 0.000000 0.000000 0.000000
# 4 0.000000 0.000000 0.000000 0.056561 0.000000 0.000000
# 5 0.000000 0.000000 0.000000 0.000000 0.056561 0.000000
# 6 0.000000 0.000000 0.000000 0.000000 0.000000 0.075512
#
#
# Mechanical properties :
#
#
# Convention : Reuss Voigt Hill
#
# Bulk Modulus (GPa) = 46.43816 47.00766 46.72291
# Shear Modulus (GPa) = 17.56430 18.10332 17.83381
#
# Velocity S-wave (km/s) = 3.48677 3.53986 3.51342
# Velocity P-wave (km/s) = 6.95366 7.01748 6.98564
#
# Compressibility (1/GPa) = 0.02153401
#
# Stress axis : x y z
#
# Youngs Moduli (GPa) = 56.18289 56.18289 51.02721
#
# Poissons Ratio (x) = 0.36208 0.26498
# Poissons Ratio (y) = 0.36208 0.26498
# Poissons Ratio (z) = 0.29176 0.29176
#
# Static dielectric constant tensor:
#      x y z
#    x 2.659610 0.000000 0.000000 
#    y 0.000000 2.659610 0.000000 
#    z 0.000000 0.000000 3.152200 
# 
# 
# High freq. dielectric constant tensor:
#      x y z
#    x 1.516230 0.000000 0.000000 
#    y 0.000000 1.516230 0.000000 
#    z 0.000000 0.000000 1.580440 
# 
# From -- ./inp_files/1324.got.cif
#   From: 2010.03.12/outbox.cif.g09.slc.cpg/sg89_1_cif.got.tgz:1324.got - 2010.04.08 20:24:03.
