data_PCOD8304609
_publ_section_title
;
Structure prediction by ZEFSAII (Michael W. Deem and Ramdas Pophale) SiO2 
 PCOD8304609
Probable space group: P 4 21 2
;
_chemical_formula_sum "Si O2"
_cell_formula_units_Z 40
_cell_length_a 11.345061
_cell_length_b 11.345061
_cell_length_c 13.213890
_cell_angle_alpha 90.000000
_cell_angle_beta 90.000000
_cell_angle_gamma 90.000000
_cell_volume 1700.765188
_symmetry_space_group_name_H-M "P 4 21 2"
_symmetry_group_IT_number 90
_symmetry_cell_setting 'tetragonal'
loop_
_space_group_symop_operation_xyz
x,y,z
1/2-y,1/2+x,z
-x,-y,z
1/2+y,1/2-x,z
1/2+x,1/2-y,-z
1/2-x,1/2+y,-z
y,x,-z
-y,-x,-z
loop_
_atom_site_type_symbol
_atom_site_label
_atom_site_fract_x
_atom_site_fract_y
_atom_site_fract_z
Si Si1 0.549809 0.816429 0.958714
Si Si2 0.685066 0.053279 0.193135
Si Si3 0.375439 0.738515 0.649793
Si Si4 0.300540 0.393626 0.236630
Si Si5 0.671990 0.917918 0.430774
O O1 0.418620 0.857628 0.935033
O O2 0.577362 0.709204 0.882989
O O3 0.562105 0.781681 0.075407
O O4 0.579138 0.144916 0.221357
O O5 0.803225 0.090717 0.252683
O O6 0.320876 0.833051 0.726939
O O7 0.489288 0.675699 0.698575
O O8 0.411715 0.811068 0.550673
O O9 0.284592 0.634423 0.625351
O O10 0.554742 0.844238 0.398566
#
# Coordination Sequence:
#
# PCOD8304609 Si02
#       5
#     8   8   8   8   8
#     4   9  17  33  63  98 134 186 237 281 338 414
#     4   9  21  41  64  94 137 192 243 279 343 419
#     4  11  24  38  68 108 132 178 233 288 353 426
#     4  12  21  38  66  99 146 172 230 300 347 409
#     4  10  22  46  73  95 136 186 231 284 357 424
#
# _framework density 23.518826000000001
#
# number of rings (size 3 to 8) (size 9 to 14) (size 15 to 20)
#    0.000    1.800    4.000    1.800    0.000    2.000 
#    0.000    6.000    0.000    0.000    0.000    0.000 
#    0.000    0.000    0.000    0.000    0.000    0.000 
#
# Total GULP energy -496036.446803 kJ/mol
# GULP energy per Si atom -12400.911170 kJ/mol
# Density = 2.346530 g / cm^3
# Si number density = 23.518826 Si / 1000 Ang^3
#
#
#
# Elastic Constant Matrix: (Units=GPa)
#
#
# Indices 1 2 3 4 5 6 
#
# 1 132.9377 73.4643 50.7826 0.0000 0.0000 0.0000
# 2 73.4643 132.9377 50.7826 0.0000 0.0000 0.0000
# 3 50.7826 50.7826 48.4363 0.0000 0.0000 0.0000
# 4 0.0000 0.0000 0.0000 37.7761 0.0000 0.0000
# 5 0.0000 0.0000 0.0000 0.0000 37.7761 0.0000
# 6 0.0000 0.0000 0.0000 0.0000 0.0000 37.2569
#
#
#
# Elastic Compliance Matrix: (Units=1/GPa)
#
#
# Indices 1 2 3 4 5 6 
#
# 1 0.013411 -0.003403 -0.010493 0.000000 0.000000 0.000000
# 2 -0.003403 0.013411 -0.010493 0.000000 0.000000 0.000000
# 3 -0.010493 -0.010493 0.042648 0.000000 0.000000 0.000000
# 4 0.000000 0.000000 0.000000 0.026472 0.000000 0.000000
# 5 0.000000 0.000000 0.000000 0.000000 0.026472 0.000000
# 6 0.000000 0.000000 0.000000 0.000000 0.000000 0.026841
#
#
# Mechanical properties :
#
#
# Convention : Reuss Voigt Hill
#
# Bulk Modulus (GPa) = 48.32641 73.81895 61.07268
# Shear Modulus (GPa) = 24.39846 31.84731 28.12288
#
# Velocity S-wave (km/s) = 3.22437 3.68383 3.46173
# Velocity P-wave (km/s) = 5.86981 7.03914 6.48090
#
# Compressibility (1/GPa) = 0.02069262
#
# Stress axis : x y z
#
# Youngs Moduli (GPa) = 74.56413 74.56413 23.44755
#
# Poissons Ratio (x) = 0.25374 0.24604
# Poissons Ratio (y) = 0.25374 0.24604
# Poissons Ratio (z) = 0.78241 0.78241
#
# Static dielectric constant tensor:
#      x y z
#    x 3.996200 0.000000 0.000000 
#    y 0.000000 3.996200 0.000000 
#    z 0.000000 0.000000 4.560310 
# 
# 
# High freq. dielectric constant tensor:
#      x y z
#    x 1.916560 0.000000 0.000000 
#    y 0.000000 1.916560 0.000000 
#    z 0.000000 0.000000 1.967200 
# 
# From -- ./inp_files/2481.got.cif
#   From: 2010.03.12/outbox.cif.g09.slc.cpg/sg90_2_cif.got.tgz:2481.got - 2010.04.08 20:26:03.
