data_PCOD8304498
_publ_section_title
;
Structure prediction by ZEFSAII (Michael W. Deem and Ramdas Pophale) SiO2 
 PCOD8304498
Probable space group: P 4 2 2
;
_chemical_formula_sum "Si O2"
_cell_formula_units_Z 64
_cell_length_a 14.853110
_cell_length_b 14.853110
_cell_length_c 18.773751
_cell_angle_alpha 90.000000
_cell_angle_beta 90.000000
_cell_angle_gamma 90.000000
_cell_volume 4141.768762
_symmetry_space_group_name_H-M "P 4 2 2"
_symmetry_group_IT_number 89
_symmetry_cell_setting 'tetragonal'
loop_
_space_group_symop_operation_xyz
x,y,z
-y,x,z
-x,-y,z
y,-x,z
x,-y,-z
-x,y,-z
y,x,-z
-y,-x,-z
loop_
_atom_site_type_symbol
_atom_site_label
_atom_site_fract_x
_atom_site_fract_y
_atom_site_fract_z
Si Si1 0.899645 0.598607 0.181995
Si Si2 0.990685 0.148221 0.420702
Si Si3 0.791459 0.887995 0.781032
Si Si4 0.099582 0.889568 0.921379
Si Si5 0.596325 0.253006 0.075770
Si Si6 0.393709 0.258006 0.087569
Si Si7 0.898349 0.599478 0.802708
Si Si8 0.070012 0.232822 0.714793
O O1 0.869630 0.684487 0.229332
O O2 0.845317 0.604108 0.109145
O O3 0.880061 0.503865 0.222891
O O4 0.004189 0.605566 0.159955
O O5 0.973456 0.229189 0.364578
O O6 0.081953 0.093316 0.408570
O O7 0.000000 0.189607 0.500000
O O8 0.827325 0.857090 0.859483
O O9 0.843002 0.830924 0.721252
O O10 0.807107 0.994594 0.768628
O O11 0.993370 0.875380 0.912886
O O12 0.137598 0.862403 0.000000
O O13 0.496767 0.291457 0.092285
O O14 0.661971 0.327000 0.110621
O O15 0.621489 0.232885 0.994459
O O16 0.370515 0.174349 0.138757
O O17 0.899209 0.665317 0.734029
#
# Coordination Sequence:
#
# PCOD8304498 Si02
#       8
#     8   8   8   8   8   8   8   8
#     4   9  19  33  43  58  80 115 155 195 225 261
#     4   9  17  29  45  70 105 128 143 169 216 269
#     4  11  19  28  44  66  87 117 153 189 226 274
#     4   9  17  29  39  53  86 120 142 178 228 275
#     4   9  17  30  46  61  81 105 141 190 247 290
#     4   9  17  30  46  63  81 106 139 191 243 290
#     4   9  19  33  45  58  83 114 153 191 227 260
#     4  11  19  28  47  70  92 119 150 185 223 273
#
# _framework density 15.452335
#
# number of rings (size 3 to 8) (size 9 to 14) (size 15 to 20)
#    0.000    2.500    2.500    1.500    0.000    1.000 
#    4.500    3.750    0.000    0.000    0.000    7.000 
#    0.000    0.000    0.000    0.000    0.000    0.000 
#
# Total GULP energy -792923.180821 kJ/mol
# GULP energy per Si atom -12389.424700 kJ/mol
# Density = 1.541716 g / cm^3
# Si number density = 15.452335 Si / 1000 Ang^3
#
#
#
# Elastic Constant Matrix: (Units=GPa)
#
#
# Indices 1 2 3 4 5 6 
#
# 1 77.8339 46.1680 36.4435 0.0000 0.0000 0.0000
# 2 46.1680 77.8338 36.4436 0.0000 0.0000 0.0000
# 3 36.4435 36.4436 87.4468 0.0000 0.0000 0.0000
# 4 0.0000 0.0000 0.0000 17.1200 0.0000 0.0000
# 5 0.0000 0.0000 0.0000 0.0000 17.1200 0.0000
# 6 0.0000 0.0000 0.0000 0.0000 0.0000 19.6650
#
#
#
# Elastic Compliance Matrix: (Units=1/GPa)
#
#
# Indices 1 2 3 4 5 6 
#
# 1 0.021130 -0.010449 -0.004451 0.000000 0.000000 0.000000
# 2 -0.010449 0.021130 -0.004451 0.000000 0.000000 0.000000
# 3 -0.004451 -0.004451 0.015146 0.000000 0.000000 0.000000
# 4 0.000000 0.000000 0.000000 0.058411 0.000000 0.000000
# 5 0.000000 0.000000 0.000000 0.000000 0.058411 0.000000
# 6 0.000000 0.000000 0.000000 0.000000 0.000000 0.050852
#
#
# Mechanical properties :
#
#
# Convention : Reuss Voigt Hill
#
# Bulk Modulus (GPa) = 53.46940 53.46941 53.46941
# Shear Modulus (GPa) = 18.51727 19.05164 18.78445
#
# Velocity S-wave (km/s) = 3.46547 3.51512 3.49038
# Velocity P-wave (km/s) = 7.11973 7.15211 7.13594
#
# Compressibility (1/GPa) = 0.01870229
#
# Stress axis : x y z
#
# Youngs Moduli (GPa) = 47.32554 47.32542 66.02569
#
# Poissons Ratio (x) = 0.49453 0.29389
# Poissons Ratio (y) = 0.49453 0.29390
# Poissons Ratio (z) = 0.21066 0.21066
#
# Static dielectric constant tensor:
#      x y z
#    x 3.025060 0.000000 0.000000 
#    y 0.000000 3.025060 0.000000 
#    z 0.000000 0.000000 2.729050 
# 
# 
# High freq. dielectric constant tensor:
#      x y z
#    x 1.587440 0.000000 0.000000 
#    y 0.000000 1.587440 0.000000 
#    z 0.000000 0.000000 1.550310 
# 
# From -- ./inp_files/2458.got.cif
#   From: 2010.03.12/outbox.cif.g09.slc.cpg/sg89_2_cif.got.tgz:2458.got - 2010.04.08 20:24:03.
