data_PCOD8304396
_publ_section_title
;
Structure prediction by ZEFSAII (Michael W. Deem and Ramdas Pophale) SiO2 
 PCOD8304396
Probable space group: I 41/A
;
_chemical_formula_sum "Si O2"
_cell_formula_units_Z 88
_cell_length_a 11.014918
_cell_length_b 11.014918
_cell_length_c 29.164271
_cell_angle_alpha 90.000000
_cell_angle_beta 90.000000
_cell_angle_gamma 90.000000
_cell_volume 3538.454878
_symmetry_space_group_name_H-M "I 41/A"
_symmetry_group_IT_number 88
_space_group.IT_coordinate_system_code '2'
_symmetry_cell_setting 'tetragonal'
loop_
_space_group_symop_operation_xyz
x,y,z
3/4-y,1/4+x,1/4+z
-x,1/2-y,z
1/4+y,1/4-x,1/4+z
-x,-y,-z
1/4+y,3/4-x,3/4-z
x,1/2+y,-z
3/4-y,3/4+x,3/4-z
1/2+x,1/2+y,1/2+z
1/4-y,3/4+x,3/4+z
1/2-x,-y,1/2+z
3/4+y,3/4-x,3/4+z
1/2-x,1/2-y,1/2-z
3/4+y,1/4-x,1/4-z
1/2+x,y,1/2-z
1/4-y,1/4+x,1/4-z
loop_
_atom_site_type_symbol
_atom_site_label
_atom_site_fract_x
_atom_site_fract_y
_atom_site_fract_z
Si Si1 0.816943 0.996086 0.343671
Si Si2 0.682129 0.913528 0.257954
Si Si3 0.000000 0.250000 0.375246
Si Si4 0.411726 0.469166 0.172466
Si Si5 0.684472 0.692634 0.612067
Si Si6 0.425661 0.377568 0.709093
O O1 0.713852 0.963865 0.307336
O O2 0.806573 0.910001 0.387914
O O3 0.792153 0.136771 0.356462
O O4 0.950094 0.983895 0.322043
O O5 0.555553 0.836148 0.265874
O O6 0.804891 0.846488 0.238918
O O7 0.650749 0.020631 0.222098
O O8 0.091666 0.170441 0.344261
O O9 0.061265 0.345986 0.410369
O O10 0.572332 0.599391 0.616824
O O11 0.730477 0.693514 0.558304
#
# Coordination Sequence:
#
# PCOD8304396 Si02
#       6
#    16  16   8  16  16  16
#     4  12  25  46  71 107 146 195 252 314 380 465
#     4  12  25  46  72 110 154 194 259 324 389 471
#     4  12  24  46  76 102 145 209 252 322 394 460
#     4  12  25  46  74 106 150 199 255 317 391 471
#     4  11  22  42  72  96 137 190 238 297 376 453
#     4  12  25  45  72 106 149 199 251 320 386 467
#
# _framework density 24.869613000000001
#
# number of rings (size 3 to 8) (size 9 to 14) (size 15 to 20)
#    0.000    0.182    9.091    0.000    0.000    1.091 
#    6.545    1.818    0.000    0.000    0.000    0.000 
#    0.000    0.000    0.000    0.000    0.000    0.000 
#
# Total GULP energy -545118.438895 kJ/mol
# GULP energy per Si atom -12389.055429 kJ/mol
# Density = 2.481301 g / cm^3
# Si number density = 24.869613 Si / 1000 Ang^3
#
#
#
# Elastic Constant Matrix: (Units=GPa)
#
#
# Indices 1 2 3 4 5 6 
#
# 1 109.0242 42.6435 21.4646 0.0000 0.0000 -1.4759
# 2 42.6435 109.0242 21.4646 0.0000 0.0000 1.4759
# 3 21.4646 21.4646 93.7838 0.0000 0.0000 0.0000
# 4 0.0000 0.0000 0.0000 40.2739 0.0000 0.0000
# 5 0.0000 0.0000 0.0000 0.0000 40.2739 0.0000
# 6 -1.4759 1.4759 0.0000 0.0000 0.0000 39.5366
#
#
#
# Elastic Compliance Matrix: (Units=1/GPa)
#
#
# Indices 1 2 3 4 5 6 
#
# 1 0.011070 -0.004020 -0.001614 0.000000 0.000000 0.000563
# 2 -0.004020 0.011070 -0.001614 0.000000 0.000000 -0.000563
# 3 -0.001614 -0.001614 0.011401 0.000000 0.000000 0.000000
# 4 0.000000 0.000000 0.000000 0.024830 0.000000 0.000000
# 5 0.000000 0.000000 0.000000 0.000000 0.024830 0.000000
# 6 0.000563 -0.000563 0.000000 0.000000 0.000000 0.025335
#
#
# Mechanical properties :
#
#
# Convention : Reuss Voigt Hill
#
# Bulk Modulus (GPa) = 52.50089 53.66417 53.08253
# Shear Modulus (GPa) = 38.64610 39.10085 38.87347
#
# Velocity S-wave (km/s) = 3.94629 3.96944 3.95788
# Velocity P-wave (km/s) = 6.47461 6.52945 6.50209
#
# Compressibility (1/GPa) = 0.01904730
#
# Stress axis : x y z
#
# Youngs Moduli (GPa) = 90.33530 90.33530 87.70832
#
# Poissons Ratio (x) = 0.36313 0.14152
# Poissons Ratio (y) = 0.36313 0.14152
# Poissons Ratio (z) = 0.14576 0.14576
#
# Static dielectric constant tensor:
#      x y z
#    x 4.823620 0.000000 0.000000 
#    y 0.000000 4.823620 0.000000 
#    z 0.000000 0.000000 4.479570 
# 
# 
# High freq. dielectric constant tensor:
#      x y z
#    x 2.009230 0.000000 0.000000 
#    y 0.000000 2.009230 0.000000 
#    z 0.000000 0.000000 1.980050 
# 
# From -- ./inp_files/6414.got.cif
#   From: 2010.03.12/outbox.cif.g09.slc.cpg/sg88_4_cif.got.tgz:6414.got - 2010.04.08 20:20:55.
