data_PCOD8304182
_publ_section_title
;
Structure prediction by ZEFSAII (Michael W. Deem and Ramdas Pophale) SiO2 
 PCOD8304182
Probable space group: I 41/A
;
_chemical_formula_sum "Si O2"
_cell_formula_units_Z 96
_cell_length_a 22.206624
_cell_length_b 22.206624
_cell_length_c 9.234635
_cell_angle_alpha 90.000000
_cell_angle_beta 90.000000
_cell_angle_gamma 90.000000
_cell_volume 4553.913876
_symmetry_space_group_name_H-M "I 41/A"
_symmetry_group_IT_number 88
_space_group.IT_coordinate_system_code '2'
_symmetry_cell_setting 'tetragonal'
loop_
_space_group_symop_operation_xyz
x,y,z
3/4-y,1/4+x,1/4+z
-x,1/2-y,z
1/4+y,1/4-x,1/4+z
-x,-y,-z
1/4+y,3/4-x,3/4-z
x,1/2+y,-z
3/4-y,3/4+x,3/4-z
1/2+x,1/2+y,1/2+z
1/4-y,3/4+x,3/4+z
1/2-x,-y,1/2+z
3/4+y,3/4-x,3/4+z
1/2-x,1/2-y,1/2-z
3/4+y,1/4-x,1/4-z
1/2+x,y,1/2-z
1/4-y,1/4+x,1/4-z
loop_
_atom_site_type_symbol
_atom_site_label
_atom_site_fract_x
_atom_site_fract_y
_atom_site_fract_z
Si Si1 0.972861 0.654133 0.401921
Si Si2 0.292156 0.545624 0.916911
Si Si3 0.416933 0.592958 0.831592
Si Si4 0.074147 0.693849 0.849586
Si Si5 0.421944 0.499470 0.595691
Si Si6 0.333120 0.774738 0.880002
O O1 0.926543 0.708790 0.372801
O O2 0.963958 0.625129 0.560527
O O3 0.959804 0.597529 0.295867
O O4 0.283612 0.484215 0.826330
O O5 0.361318 0.566938 0.924338
O O6 0.254315 0.599887 0.845599
O O7 0.397196 0.641616 0.706767
O O8 0.445803 0.539336 0.733309
O O9 0.076273 0.757135 0.938164
O O10 0.105171 0.707157 0.697721
O O11 0.453951 0.434421 0.613206
O O12 0.437970 0.527957 0.439361
#
# Coordination Sequence:
#
# PCOD8304182 Si02
#       6
#    16  16  16  16  16  16
#     4  11  22  35  54  82 113 141 169 209 264 320
#     4  10  21  38  58  78 103 137 179 225 267 309
#     4  10  21  36  54  78 109 141 174 217 267 313
#     4  10  18  30  52  79 107 143 181 214 254 309
#     4   9  20  38  57  77 103 141 182 218 260 309
#     4  10  20  35  55  79 109 141 177 218 258 311
#
# _framework density 21.080769
#
# number of rings (size 3 to 8) (size 9 to 14) (size 15 to 20)
#    0.000    2.000    0.000    4.000    0.000    4.667 
#    0.000    1.667    0.000    0.000    0.000    0.000 
#    0.000    0.000    0.000    0.000    0.000    0.000 
#
# Total GULP energy -594745.890279 kJ/mol
# GULP energy per Si atom -12390.539381 kJ/mol
# Density = 2.103279 g / cm^3
# Si number density = 21.080769 Si / 1000 Ang^3
#
#
#
# Elastic Constant Matrix: (Units=GPa)
#
#
# Indices 1 2 3 4 5 6 
#
# 1 56.8159 -4.5638 23.9330 0.0000 0.0000 2.9981
# 2 -4.5638 56.8159 23.9330 0.0000 0.0000 -2.9981
# 3 23.9330 23.9330 89.8075 0.0000 0.0000 0.0000
# 4 0.0000 0.0000 0.0000 29.1307 0.0000 0.0000
# 5 0.0000 0.0000 0.0000 0.0000 29.1307 0.0000
# 6 2.9981 -2.9981 0.0000 0.0000 0.0000 21.2366
#
#
#
# Elastic Compliance Matrix: (Units=1/GPa)
#
#
# Indices 1 2 3 4 5 6 
#
# 1 0.020919 0.004400 -0.006747 0.000000 0.000000 -0.002332
# 2 0.004400 0.020919 -0.006747 0.000000 0.000000 0.002332
# 3 -0.006747 -0.006747 0.014731 0.000000 0.000000 0.000000
# 4 0.000000 0.000000 0.000000 0.034328 0.000000 0.000000
# 5 0.000000 0.000000 0.000000 0.000000 0.034328 0.000000
# 6 -0.002332 0.002332 0.000000 0.000000 0.000000 0.047747
#
#
# Mechanical properties :
#
#
# Convention : Reuss Voigt Hill
#
# Bulk Modulus (GPa) = 26.05541 32.22711 29.14126
# Shear Modulus (GPa) = 24.51507 26.57543 25.54525
#
# Velocity S-wave (km/s) = 3.41385 3.55441 3.48484
# Velocity P-wave (km/s) = 5.28449 5.67149 5.48140
#
# Compressibility (1/GPa) = 0.03837974
#
# Stress axis : x y z
#
# Youngs Moduli (GPa) = 47.80258 47.80258 67.88347
#
# Poissons Ratio (x) = -0.21031 0.45803
# Poissons Ratio (y) = -0.21031 0.45803
# Poissons Ratio (z) = 0.32254 0.32254
#
# Static dielectric constant tensor:
#      x y z
#    x 3.774400 0.000000 0.000000 
#    y 0.000000 3.774400 0.000000 
#    z 0.000000 0.000000 3.610350 
# 
# 
# High freq. dielectric constant tensor:
#      x y z
#    x 1.818910 0.000000 0.000000 
#    y 0.000000 1.818910 0.000000 
#    z 0.000000 0.000000 1.817880 
# 
# From -- ./inp_files/1701.got.cif
#   From: 2010.03.12/outbox.cif.g09.slc.cpg/sg88_1_cif.got.tgz:1701.got - 2010.04.08 20:20:55.
