data_PCOD8304737
_publ_section_title
;
Structure prediction by ZEFSAII (Michael W. Deem and Ramdas Pophale) SiO2 
 PCOD8304737
Probable space group: P 41 2 2
;
_chemical_formula_sum "Si O2"
_cell_formula_units_Z 48
_cell_length_a 14.247184
_cell_length_b 14.247184
_cell_length_c 12.804025
_cell_angle_alpha 90.000000
_cell_angle_beta 90.000000
_cell_angle_gamma 90.000000
_cell_volume 2598.989828
_symmetry_space_group_name_H-M "P 41 2 2"
_symmetry_group_IT_number 91
_symmetry_cell_setting 'tetragonal'
loop_
_space_group_symop_operation_xyz
x,y,z
-y,x,1/4+z
-x,-y,1/2+z
y,-x,3/4+z
x,-y,1/2-z
-x,y,-z
y,x,3/4-z
-y,-x,1/4-z
loop_
_atom_site_type_symbol
_atom_site_label
_atom_site_fract_x
_atom_site_fract_y
_atom_site_fract_z
Si Si1 0.168753 0.804424 0.739345
Si Si2 0.863150 0.401728 0.294747
Si Si3 0.158990 0.005395 0.370597
Si Si4 0.100130 0.351455 0.049399
Si Si5 0.651816 0.070284 0.538655
Si Si6 0.890174 0.438819 0.513763
O O1 0.149981 0.850020 0.625000
O O2 0.165759 0.690953 0.730969
O O3 0.274636 0.824473 0.769685
O O4 0.096905 0.849349 0.824214
O O5 0.821714 0.500000 0.250000
O O6 0.833983 0.390929 0.417292
O O7 0.975219 0.407970 0.290718
O O8 0.059712 0.059712 0.375000
O O9 0.238095 0.060247 0.434976
O O10 0.191090 0.000000 0.250000
O O11 0.108046 0.358465 0.173356
O O12 0.130887 0.450940 0.003130
O O13 0.000000 0.321638 0.000000
O O14 0.605045 0.140738 0.624514
O O15 0.000000 0.416851 0.500000
#
# Coordination Sequence:
#
# PCOD8304737 Si02
#       6
#     8   8   8   8   8   8
#     4  11  23  37  52  75 104 137 180 225 261 309
#     4  10  18  33  53  74  99 131 169 219 273 314
#     4  11  23  37  50  68 100 144 186 221 258 309
#     4  11  20  32  50  75 105 136 167 209 261 316
#     4  10  18  31  51  73  96 128 169 214 263 310
#     4   9  17  30  51  75  99 128 165 212 268 318
#
# _framework density 18.468715
#
# number of rings (size 3 to 8) (size 9 to 14) (size 15 to 20)
#    0.000    1.667    0.000   10.000    0.000    1.333 
#    0.000    0.000    0.000    0.000    0.000    0.000 
#    0.000   25.333    0.000    0.000    0.000    0.000 
#
# Total GULP energy -594828.172858 kJ/mol
# GULP energy per Si atom -12392.253601 kJ/mol
# Density = 1.842668 g / cm^3
# Si number density = 18.468715 Si / 1000 Ang^3
#
#
#
# Elastic Constant Matrix: (Units=GPa)
#
#
# Indices 1 2 3 4 5 6 
#
# 1 54.0245 26.2095 19.2926 0.0000 0.0000 0.0000
# 2 26.2095 54.0242 19.2924 0.0000 0.0000 0.0000
# 3 19.2926 19.2924 131.4166 0.0000 0.0000 0.0000
# 4 0.0000 0.0000 0.0000 24.7757 0.0000 0.0000
# 5 0.0000 0.0000 0.0000 0.0000 24.7758 0.0000
# 6 0.0000 0.0000 0.0000 0.0000 0.0000 10.4043
#
#
#
# Elastic Compliance Matrix: (Units=1/GPa)
#
#
# Indices 1 2 3 4 5 6 
#
# 1 0.024681 -0.011271 -0.001969 0.000000 0.000000 0.000000
# 2 -0.011271 0.024681 -0.001969 0.000000 0.000000 0.000000
# 3 -0.001969 -0.001969 0.008187 0.000000 0.000000 0.000000
# 4 0.000000 0.000000 0.000000 0.040362 0.000000 0.000000
# 5 0.000000 0.000000 0.000000 0.000000 0.040362 0.000000
# 6 0.000000 0.000000 0.000000 0.000000 0.000000 0.096114
#
#
# Mechanical properties :
#
#
# Convention : Reuss Voigt Hill
#
# Bulk Modulus (GPa) = 36.85511 41.00605 38.93058
# Shear Modulus (GPa) = 18.25825 23.63588 20.94707
#
# Velocity S-wave (km/s) = 3.14762 3.58128 3.37143
# Velocity P-wave (km/s) = 5.76270 6.27311 6.02332
#
# Compressibility (1/GPa) = 0.02713328
#
# Stress axis : x y z
#
# Youngs Moduli (GPa) = 40.51685 40.51664 122.13864
#
# Poissons Ratio (x) = 0.45666 0.24046
# Poissons Ratio (y) = 0.45666 0.24045
# Poissons Ratio (z) = 0.07977 0.07976
#
# Static dielectric constant tensor:
#      x y z
#    x 3.140520 0.000000 0.000000 
#    y 0.000000 3.140510 0.000000 
#    z 0.000000 0.000000 4.727230 
# 
# 
# High freq. dielectric constant tensor:
#      x y z
#    x 1.676270 0.000000 0.000000 
#    y 0.000000 1.676270 0.000000 
#    z 0.000000 0.000000 1.752940 
# 
# From -- ./inp_files/3845.got.cif
#   From: 2010.03.12/outbox.cif.g09.slc.cpg/sg91_2_cif.got.tgz:3845.got - 2010.04.08 20:27:58.
