data_PCOD8304718
_publ_section_title
;
Structure prediction by ZEFSAII (Michael W. Deem and Ramdas Pophale) SiO2 
 PCOD8304718
Probable space group: P 41 2 2
;
_chemical_formula_sum "Si O2"
_cell_formula_units_Z 40
_cell_length_a 8.534043
_cell_length_b 8.534043
_cell_length_c 24.038193
_cell_angle_alpha 90.000000
_cell_angle_beta 90.000000
_cell_angle_gamma 90.000000
_cell_volume 1750.698950
_symmetry_space_group_name_H-M "P 41 2 2"
_symmetry_group_IT_number 91
_symmetry_cell_setting 'tetragonal'
loop_
_space_group_symop_operation_xyz
x,y,z
-y,x,1/4+z
-x,-y,1/2+z
y,-x,3/4+z
x,-y,1/2-z
-x,y,-z
y,x,3/4-z
-y,-x,1/4-z
loop_
_atom_site_type_symbol
_atom_site_label
_atom_site_fract_x
_atom_site_fract_y
_atom_site_fract_z
Si Si1 0.765037 0.342322 0.277199
Si Si2 0.735014 0.666187 0.046415
Si Si3 0.896925 0.638212 0.448612
Si Si4 0.137460 0.885090 0.867225
Si Si5 0.377133 0.408118 0.436161
O O1 0.837079 0.500000 0.250000
O O2 0.754752 0.233020 0.222967
O O3 0.877687 0.257971 0.322662
O O4 0.597452 0.371980 0.307509
O O5 0.818519 0.518034 0.076623
O O6 0.806825 0.822680 0.072623
O O7 0.550932 0.650710 0.053300
O O8 0.752317 0.664667 0.978742
O O9 0.000000 0.579258 0.500000
O O10 0.994936 0.727747 0.401997
O O11 0.971392 0.971392 0.875000
O O12 0.340884 0.340884 0.375000
#
# Coordination Sequence:
#
# PCOD8304718 Si02
#       5
#     8   8   8   8   8
#     4  10  18  37  70 105 127 179 249 300 350 416
#     4  10  20  37  69 102 141 183 243 296 358 426
#     4   9  20  39  66  97 133 181 232 292 360 422
#     4  11  24  39  64  97 153 194 226 290 367 445
#     4  10  17  33  71 115 135 164 247 329 353 389
#
# _framework density 22.848016999999999
#
# number of rings (size 3 to 8) (size 9 to 14) (size 15 to 20)
#    0.000    2.000    6.000    0.000    0.000    2.400 
#    0.000    3.000   48.400    0.000    0.000    4.200 
#    0.000    0.000    0.000    0.000    0.000    0.000 
#
# Total GULP energy -495626.807688 kJ/mol
# GULP energy per Si atom -12390.670192 kJ/mol
# Density = 2.279601 g / cm^3
# Si number density = 22.848017 Si / 1000 Ang^3
#
#
#
# Elastic Constant Matrix: (Units=GPa)
#
#
# Indices 1 2 3 4 5 6 
#
# 1 110.7600 49.3536 62.8993 0.0000 0.0000 0.0000
# 2 49.3536 110.7600 62.8993 0.0000 0.0000 0.0000
# 3 62.8993 62.8993 144.8980 0.0000 0.0000 0.0000
# 4 0.0000 0.0000 0.0000 6.1925 0.0000 0.0000
# 5 0.0000 0.0000 0.0000 0.0000 6.1925 0.0000
# 6 0.0000 0.0000 0.0000 0.0000 0.0000 30.9980
#
#
#
# Elastic Compliance Matrix: (Units=1/GPa)
#
#
# Indices 1 2 3 4 5 6 
#
# 1 0.012882 -0.003403 -0.004114 0.000000 0.000000 0.000000
# 2 -0.003403 0.012882 -0.004114 0.000000 0.000000 0.000000
# 3 -0.004114 -0.004114 0.010474 0.000000 0.000000 0.000000
# 4 0.000000 0.000000 0.000000 0.161486 0.000000 0.000000
# 5 0.000000 0.000000 0.000000 0.000000 0.161486 0.000000
# 6 0.000000 0.000000 0.000000 0.000000 0.000000 0.032260
#
#
# Mechanical properties :
#
#
# Convention : Reuss Voigt Hill
#
# Bulk Modulus (GPa) = 77.08796 79.63584 78.36190
# Shear Modulus (GPa) = 11.93155 21.42764 16.67960
#
# Velocity S-wave (km/s) = 2.28768 3.06573 2.70483
# Velocity P-wave (km/s) = 6.38676 6.88926 6.64276
#
# Compressibility (1/GPa) = 0.01297219
#
# Stress axis : x y z
#
# Youngs Moduli (GPa) = 77.63026 77.63026 95.47900
#
# Poissons Ratio (x) = 0.26420 0.39284
# Poissons Ratio (y) = 0.26420 0.39284
# Poissons Ratio (z) = 0.31940 0.31940
#
# Static dielectric constant tensor:
#      x y z
#    x 4.207170 0.000000 0.000000 
#    y 0.000000 4.207170 0.000000 
#    z 0.000000 0.000000 3.341660 
# 
# 
# High freq. dielectric constant tensor:
#      x y z
#    x 1.881220 0.000000 0.000000 
#    y 0.000000 1.881220 0.000000 
#    z 0.000000 0.000000 1.905970 
# 
# From -- ./inp_files/21714.got.cif
#   From: 2010.03.12/outbox.cif.g09.slc.cpg/sg91_11_cif.got.tgz:21714.got - 2010.04.08 20:27:58.
