data_PCOD8304374
_publ_section_title
;
Structure prediction by ZEFSAII (Michael W. Deem and Ramdas Pophale) SiO2 
 PCOD8304374
Probable space group: I 41/A
;
_chemical_formula_sum "Si O2"
_cell_formula_units_Z 88
_cell_length_a 11.586614
_cell_length_b 11.586614
_cell_length_c 31.168284
_cell_angle_alpha 90.000000
_cell_angle_beta 90.000000
_cell_angle_gamma 90.000000
_cell_volume 4184.330407
_symmetry_space_group_name_H-M "I 41/A"
_symmetry_group_IT_number 88
_space_group.IT_coordinate_system_code '2'
_symmetry_cell_setting 'tetragonal'
loop_
_space_group_symop_operation_xyz
x,y,z
3/4-y,1/4+x,1/4+z
-x,1/2-y,z
1/4+y,1/4-x,1/4+z
-x,-y,-z
1/4+y,3/4-x,3/4-z
x,1/2+y,-z
3/4-y,3/4+x,3/4-z
1/2+x,1/2+y,1/2+z
1/4-y,3/4+x,3/4+z
1/2-x,-y,1/2+z
3/4+y,3/4-x,3/4+z
1/2-x,1/2-y,1/2-z
3/4+y,1/4-x,1/4-z
1/2+x,y,1/2-z
1/4-y,1/4+x,1/4-z
loop_
_atom_site_type_symbol
_atom_site_label
_atom_site_fract_x
_atom_site_fract_y
_atom_site_fract_z
Si Si1 0.000000 0.750000 0.375000
Si Si2 0.160921 0.683365 0.443569
Si Si3 0.367655 0.974203 0.647440
Si Si4 0.360518 0.056136 0.095435
Si Si5 0.631026 0.737957 0.959885
Si Si6 0.000000 0.250000 0.125000
Si Si7 0.560017 0.140760 0.154379
O O1 0.111181 0.766842 0.405988
O O2 0.111463 0.556924 0.432908
O O3 0.124997 0.734171 0.489003
O O4 0.298715 0.679088 0.442196
O O5 0.234497 0.961152 0.633217
O O6 0.435540 0.851996 0.651528
O O7 0.378075 0.043797 0.692817
O O8 0.426982 0.063037 0.613197
O O9 0.309240 0.148864 0.061181
O O10 0.481878 0.093628 0.115534
O O11 0.500000 0.750000 0.942977
O O12 0.500000 0.250000 0.176300
#
# Coordination Sequence:
#
# PCOD8304374 Si02
#       7
#     4  16  16  16  16   4  16
#     4  12  20  44  60 100 128 182 220 284 352 392
#     4  11  26  38  65  98 137 171 229 278 349 406
#     4  11  22  38  68  97 123 178 223 268 339 401
#     4  11  22  41  66  94 130 177 223 274 341 407
#     4  12  23  43  65 100 133 174 227 285 339 407
#     4  12  20  40  68  96 128 166 232 276 316 428
#     4  11  20  42  65  90 130 181 217 265 337 411
#
# _framework density 21.030843999999998
#
# number of rings (size 3 to 8) (size 9 to 14) (size 15 to 20)
#    0.000    0.727    8.182    0.000    0.000    2.182 
#    1.636    0.000    0.000    5.455    0.000    0.000 
#    0.000    0.000    0.000    0.000    0.000    0.000 
#
# Total GULP energy -545136.107063 kJ/mol
# GULP energy per Si atom -12389.456979 kJ/mol
# Density = 2.098298 g / cm^3
# Si number density = 21.030844 Si / 1000 Ang^3
#
#
#
# Elastic Constant Matrix: (Units=GPa)
#
#
# Indices 1 2 3 4 5 6 
#
# 1 95.9576 27.5231 30.7932 0.0000 0.0000 6.8826
# 2 27.5231 95.9576 30.7932 0.0000 0.0000 -6.8826
# 3 30.7932 30.7932 107.5643 0.0000 0.0000 0.0000
# 4 0.0000 0.0000 0.0000 25.6629 0.0000 0.0000
# 5 0.0000 0.0000 0.0000 0.0000 25.6629 0.0000
# 6 6.8826 -6.8826 0.0000 0.0000 0.0000 31.6059
#
#
#
# Elastic Compliance Matrix: (Units=1/GPa)
#
#
# Indices 1 2 3 4 5 6 
#
# 1 0.012365 -0.002917 -0.002705 0.000000 0.000000 -0.003328
# 2 -0.002917 0.012365 -0.002705 0.000000 0.000000 0.003328
# 3 -0.002705 -0.002705 0.010845 0.000000 0.000000 0.000000
# 4 0.000000 0.000000 0.000000 0.038967 0.000000 0.000000
# 5 0.000000 0.000000 0.000000 0.000000 0.038967 0.000000
# 6 -0.003328 0.003328 0.000000 0.000000 0.000000 0.033089
#
#
# Mechanical properties :
#
#
# Convention : Reuss Voigt Hill
#
# Bulk Modulus (GPa) = 52.84933 53.07762 52.96348
# Shear Modulus (GPa) = 29.48859 30.61099 30.04979
#
# Velocity S-wave (km/s) = 3.74860 3.81928 3.78411
# Velocity P-wave (km/s) = 6.62722 6.68894 6.65815
#
# Compressibility (1/GPa) = 0.01892172
#
# Stress axis : x y z
#
# Youngs Moduli (GPa) = 80.87601 80.87601 92.20606
#
# Poissons Ratio (x) = 0.23594 0.24938
# Poissons Ratio (y) = 0.23594 0.24938
# Poissons Ratio (z) = 0.21873 0.21873
#
# Static dielectric constant tensor:
#      x y z
#    x 4.063340 0.000000 0.000000 
#    y 0.000000 4.063340 0.000000 
#    z 0.000000 0.000000 3.379320 
# 
# 
# High freq. dielectric constant tensor:
#      x y z
#    x 1.833770 0.000000 0.000000 
#    y 0.000000 1.833770 0.000000 
#    z 0.000000 0.000000 1.782770 
# 
# From -- ./inp_files/6478.got.cif
#   From: 2010.03.12/outbox.cif.g09.slc.cpg/sg88_4_cif.got.tgz:6478.got - 2010.04.08 20:20:55.
