data_PCOD8304079
_publ_section_title
;
Structure prediction by ZEFSAII (Michael W. Deem and Ramdas Pophale) SiO2 
 PCOD8304079
Probable space group: I 4/M
;
_chemical_formula_sum "Si O2"
_cell_formula_units_Z 80
_cell_length_a 11.456376
_cell_length_b 11.456376
_cell_length_c 30.304139
_cell_angle_alpha 90.000000
_cell_angle_beta 90.000000
_cell_angle_gamma 90.000000
_cell_volume 3977.374335
_symmetry_space_group_name_H-M "I 4/M"
_symmetry_group_IT_number 87
_symmetry_cell_setting 'tetragonal'
loop_
_space_group_symop_operation_xyz
x,y,z
-y,x,z
-x,-y,z
y,-x,z
-x,-y,-z
y,-x,-z
x,y,-z
-y,x,-z
1/2+x,1/2+y,1/2+z
1/2-y,1/2+x,1/2+z
1/2-x,1/2-y,1/2+z
1/2+y,1/2-x,1/2+z
1/2-x,1/2-y,1/2-z
1/2+y,1/2-x,1/2-z
1/2+x,1/2+y,1/2-z
1/2-y,1/2+x,1/2-z
loop_
_atom_site_type_symbol
_atom_site_label
_atom_site_fract_x
_atom_site_fract_y
_atom_site_fract_z
Si Si1 0.674618 0.427943 0.051687
Si Si2 0.220988 0.594576 0.356495
Si Si3 0.312750 0.514566 0.265867
Si Si4 0.683786 0.851313 0.116403
Si Si5 0.863315 0.495409 0.810333
O O1 0.650150 0.562360 0.064937
O O2 0.789689 0.381877 0.075983
O O3 0.698442 0.418209 0.000000
O O4 0.282215 0.521227 0.317293
O O5 0.307526 0.682976 0.380693
O O6 0.182308 0.492397 0.390968
O O7 0.112384 0.669893 0.337546
O O8 0.376365 0.394170 0.254124
O O9 0.196178 0.516299 0.237138
O O10 0.615975 0.821782 0.161639
O O11 0.000000 0.500000 0.802024
#
# Coordination Sequence:
#
# PCOD8304079 Si02
#       5
#    16  16  16  16  16
#     4   9  19  39  69  99 124 151 187 238 299 356
#     4  11  23  37  57  81 115 160 204 247 299 352
#     4  11  23  39  56  77 110 156 211 251 296 348
#     4  11  22  39  58  85 121 158 199 243 300 358
#     4  10  24  36  55  83 113 152 200 258 308 348
#
# _framework density 20.113771
#
# number of rings (size 3 to 8) (size 9 to 14) (size 15 to 20)
#    0.000    1.600    2.000    3.000    5.600    2.000 
#    0.000    3.000    0.000    7.800    0.000    1.400 
#    0.000    0.000    0.000    0.000    0.000    0.000 
#
# Total GULP energy -496037.763062 kJ/mol
# GULP energy per Si atom -12400.944077 kJ/mol
# Density = 2.006799 g / cm^3
# Si number density = 20.113771 Si / 1000 Ang^3
#
#
#
# Elastic Constant Matrix: (Units=GPa)
#
#
# Indices 1 2 3 4 5 6 
#
# 1 95.1438 28.7346 35.6731 0.0000 0.0000 -9.8441
# 2 28.7346 95.1438 35.6731 0.0000 0.0000 9.8441
# 3 35.6731 35.6731 65.1228 0.0000 0.0000 0.0000
# 4 0.0000 0.0000 0.0000 31.1378 0.0000 0.0000
# 5 0.0000 0.0000 0.0000 0.0000 31.1378 0.0000
# 6 -9.8441 9.8441 0.0000 0.0000 0.0000 24.4055
#
#
#
# Elastic Compliance Matrix: (Units=1/GPa)
#
#
# Indices 1 2 3 4 5 6 
#
# 1 0.014448 -0.002655 -0.006460 0.000000 0.000000 0.006899
# 2 -0.002655 0.014448 -0.006460 0.000000 0.000000 -0.006899
# 3 -0.006460 -0.006460 0.022433 0.000000 0.000000 0.000000
# 4 0.000000 0.000000 0.000000 0.032115 0.000000 0.000000
# 5 0.000000 0.000000 0.000000 0.000000 0.032115 0.000000
# 6 0.006899 -0.006899 0.000000 0.000000 0.000000 0.046540
#
#
# Mechanical properties :
#
#
# Convention : Reuss Voigt Hill
#
# Bulk Modulus (GPa) = 49.55657 50.61911 50.08784
# Shear Modulus (GPa) = 25.00300 27.69155 26.34727
#
# Velocity S-wave (km/s) = 3.52956 3.71448 3.62320
# Velocity P-wave (km/s) = 6.42666 6.60435 6.51611
#
# Compressibility (1/GPa) = 0.02017896
#
# Stress axis : x y z
#
# Youngs Moduli (GPa) = 69.21287 69.21287 44.57741
#
# Poissons Ratio (x) = 0.18378 0.28797
# Poissons Ratio (y) = 0.18378 0.28797
# Poissons Ratio (z) = 0.44711 0.44711
#
# Static dielectric constant tensor:
#      x y z
#    x 3.855260 0.000000 0.000000 
#    y 0.000000 3.855260 0.000000 
#    z 0.000000 0.000000 3.256560 
# 
# 
# High freq. dielectric constant tensor:
#      x y z
#    x 1.795140 0.000000 0.000000 
#    y 0.000000 1.795140 0.000000 
#    z 0.000000 0.000000 1.745310 
# 
# From -- ./inp_files/6465.got.cif
#   From: 2010.03.12/outbox.cif.g09.slc.cpg/sg87_4_cif.got.tgz:6465.got - 2010.04.08 20:16:13.
