data_PCOD8304720
_publ_section_title
;
Structure prediction by ZEFSAII (Michael W. Deem and Ramdas Pophale) SiO2 
 PCOD8304720
Probable space group: P 41 2 2
;
_chemical_formula_sum "Si O2"
_cell_formula_units_Z 56
_cell_length_a 15.075304
_cell_length_b 15.075304
_cell_length_c 13.175366
_cell_angle_alpha 90.000000
_cell_angle_beta 90.000000
_cell_angle_gamma 90.000000
_cell_volume 2994.296796
_symmetry_space_group_name_H-M "P 41 2 2"
_symmetry_group_IT_number 91
_symmetry_cell_setting 'tetragonal'
loop_
_space_group_symop_operation_xyz
x,y,z
-y,x,1/4+z
-x,-y,1/2+z
y,-x,3/4+z
x,-y,1/2-z
-x,y,-z
y,x,3/4-z
-y,-x,1/4-z
loop_
_atom_site_type_symbol
_atom_site_label
_atom_site_fract_x
_atom_site_fract_y
_atom_site_fract_z
Si Si1 0.188541 0.054832 0.351845
Si Si2 0.379986 0.867220 0.671261
Si Si3 0.920076 0.710461 0.233640
Si Si4 0.594359 0.689671 0.454200
Si Si5 0.295480 0.777247 0.215399
Si Si6 0.421385 0.089923 0.196077
Si Si7 0.761217 0.731779 0.570709
O O1 0.088698 0.088698 0.375000
O O2 0.250353 0.138223 0.334601
O O3 0.186357 0.000000 0.250000
O O4 0.226898 0.999985 0.447447
O O5 0.320743 0.933496 0.600767
O O6 0.399725 0.782330 0.603155
O O7 0.472467 0.913764 0.697759
O O8 0.326879 0.841744 0.774262
O O9 0.910739 0.621202 0.165672
O O10 0.830404 0.768594 0.225495
O O11 0.500000 0.672271 0.500000
O O12 0.610718 0.610718 0.375000
O O13 0.667730 0.686552 0.542148
O O14 0.297644 0.702357 0.125000
O O15 0.390693 0.816706 0.251030
O O16 0.236621 0.736810 0.307166
O O17 0.385975 0.000000 0.250000
#
# Coordination Sequence:
#
# PCOD8304720 Si02
#       7
#     8   8   8   8   8   8   8
#     4  11  20  37  60  80 105 146 201 243 271 344
#     4  10  20  32  54  86 113 142 176 240 303 339
#     4  10  17  36  58  79 108 149 195 224 287 354
#     4   9  16  29  52  79 104 140 183 226 280 337
#     4  10  19  35  60  75 103 156 198 225 273 341
#     4  11  19  35  53  82 115 143 185 235 280 352
#     4   9  18  33  55  80 109 139 187 234 277 343
#
# _framework density 18.702221999999999
#
# number of rings (size 3 to 8) (size 9 to 14) (size 15 to 20)
#    0.000    2.000    4.286    4.286    0.000    0.000 
#    5.143    2.143    0.000    7.714    0.000    0.000 
#    0.000    0.000    0.000    0.000    0.000    0.000 
#
# Total GULP energy -693959.814681 kJ/mol
# GULP energy per Si atom -12392.139548 kJ/mol
# Density = 1.865965 g / cm^3
# Si number density = 18.702222 Si / 1000 Ang^3
#
#
#
# Elastic Constant Matrix: (Units=GPa)
#
#
# Indices 1 2 3 4 5 6 
#
# 1 70.9640 35.8854 37.0499 0.0000 0.0000 0.0000
# 2 35.8854 70.9644 37.0499 0.0000 0.0000 0.0000
# 3 37.0499 37.0499 101.6590 0.0000 0.0000 0.0000
# 4 0.0000 0.0000 0.0000 35.0050 0.0000 0.0000
# 5 0.0000 0.0000 0.0000 0.0000 35.0038 0.0000
# 6 0.0000 0.0000 0.0000 0.0000 0.0000 33.0346
#
#
#
# Elastic Compliance Matrix: (Units=1/GPa)
#
#
# Indices 1 2 3 4 5 6 
#
# 1 0.020516 -0.007991 -0.004565 0.000000 0.000000 0.000000
# 2 -0.007991 0.020516 -0.004565 0.000000 0.000000 0.000000
# 3 -0.004565 -0.004565 0.013164 0.000000 0.000000 0.000000
# 4 0.000000 0.000000 0.000000 0.028567 0.000000 0.000000
# 5 0.000000 0.000000 0.000000 0.000000 0.028568 0.000000
# 6 0.000000 0.000000 0.000000 0.000000 0.000000 0.030271
#
#
# Mechanical properties :
#
#
# Convention : Reuss Voigt Hill
#
# Bulk Modulus (GPa) = 50.11382 51.50644 50.81013
# Shear Modulus (GPa) = 27.39798 29.51551 28.45674
#
# Velocity S-wave (km/s) = 3.83163 3.97694 3.90496
# Velocity P-wave (km/s) = 6.81388 6.97769 6.89627
#
# Compressibility (1/GPa) = 0.01995457
#
# Stress axis : x y z
#
# Youngs Moduli (GPa) = 48.74259 48.74294 75.96507
#
# Poissons Ratio (x) = 0.38952 0.34675
# Poissons Ratio (y) = 0.38952 0.34675
# Poissons Ratio (z) = 0.22249 0.22249
#
# Static dielectric constant tensor:
#      x y z
#    x 2.823880 0.000000 0.000000 
#    y 0.000000 2.823980 0.000000 
#    z 0.000000 0.000000 3.486820 
# 
# 
# High freq. dielectric constant tensor:
#      x y z
#    x 1.707180 0.000000 0.000000 
#    y 0.000000 1.707180 0.000000 
#    z 0.000000 0.000000 1.728950 
# 
# From -- ./inp_files/16538.got.cif
#   From: 2010.03.12/outbox.cif.g09.slc.cpg/sg91_9_cif.got.tgz:16538.got - 2010.04.08 20:27:58.
