data_PCOD8304216
_publ_section_title
;
Structure prediction by ZEFSAII (Michael W. Deem and Ramdas Pophale) SiO2 
 PCOD8304216
Probable space group: I 41/A
;
_chemical_formula_sum "Si O2"
_cell_formula_units_Z 116
_cell_length_a 24.235216
_cell_length_b 24.235216
_cell_length_c 9.334367
_cell_angle_alpha 90.000000
_cell_angle_beta 90.000000
_cell_angle_gamma 90.000000
_cell_volume 5482.500269
_symmetry_space_group_name_H-M "I 41/A"
_symmetry_group_IT_number 88
_space_group.IT_coordinate_system_code '2'
_symmetry_cell_setting 'tetragonal'
loop_
_space_group_symop_operation_xyz
x,y,z
3/4-y,1/4+x,1/4+z
-x,1/2-y,z
1/4+y,1/4-x,1/4+z
-x,-y,-z
1/4+y,3/4-x,3/4-z
x,1/2+y,-z
3/4-y,3/4+x,3/4-z
1/2+x,1/2+y,1/2+z
1/4-y,3/4+x,3/4+z
1/2-x,-y,1/2+z
3/4+y,3/4-x,3/4+z
1/2-x,1/2-y,1/2-z
3/4+y,1/4-x,1/4-z
1/2+x,y,1/2-z
1/4-y,1/4+x,1/4-z
loop_
_atom_site_type_symbol
_atom_site_label
_atom_site_fract_x
_atom_site_fract_y
_atom_site_fract_z
Si Si1 0.108449 0.535275 0.302272
Si Si2 0.807434 0.721377 0.220191
Si Si3 0.501443 0.862530 0.474820
Si Si4 0.120904 0.114269 0.941348
Si Si5 0.311261 0.787164 0.535399
Si Si6 0.089881 0.744971 0.400552
Si Si7 0.207795 0.964176 0.781186
Si Si8 0.000000 0.750000 0.875000
O O1 0.090370 0.550452 0.465459
O O2 0.114642 0.593259 0.221328
O O3 0.061219 0.501164 0.211904
O O4 0.165865 0.503061 0.307962
O O5 0.750000 0.750000 0.250000
O O6 0.815818 0.727785 0.047726
O O7 0.858438 0.751647 0.295954
O O8 0.437859 0.873678 0.510936
O O9 0.534724 0.911220 0.557492
O O10 0.516726 0.864385 0.308290
O O11 0.518198 0.801651 0.528254
O O12 0.155379 0.170228 0.935456
O O13 0.152446 0.067186 0.035261
O O14 0.055181 0.801740 0.402690
O O15 0.265186 0.965716 0.693466
#
# Coordination Sequence:
#
# PCOD8304216 Si02
#       8
#    16  16  16  16  16  16  16   4
#     4   9  19  39  62  84 116 163 203 241 308 368
#     4  10  21  39  58  87 121 160 202 253 303 372
#     4  12  23  38  61  87 125 158 204 251 315 369
#     4  10  19  38  60  84 115 161 195 244 309 365
#     4  10  22  36  60  86 118 156 202 251 305 360
#     4  11  24  40  65  91 122 166 215 259 314 391
#     4   9  19  38  66  85 115 154 202 252 305 364
#     4  12  24  36  58  92 124 164 202 256 312 368
#
# _framework density 21.158231000000001
#
# number of rings (size 3 to 8) (size 9 to 14) (size 15 to 20)
#    0.000    1.793    2.759    1.655    1.931    0.552 
#    2.483    0.000    3.034    0.000    0.000    0.000 
#    0.000    0.000    0.000    0.000    0.000    0.000 
#
# Total GULP energy -718814.289432 kJ/mol
# GULP energy per Si atom -12393.349818 kJ/mol
# Density = 2.111007 g / cm^3
# Si number density = 21.158231 Si / 1000 Ang^3
#
#
#
# Elastic Constant Matrix: (Units=GPa)
#
#
# Indices 1 2 3 4 5 6 
#
# 1 73.3428 -0.2736 12.0532 0.0000 0.0000 -5.6241
# 2 -0.2736 73.3428 12.0532 0.0000 0.0000 5.6241
# 3 12.0532 12.0532 71.8499 0.0000 0.0000 0.0000
# 4 0.0000 0.0000 0.0000 26.2950 0.0000 0.0000
# 5 0.0000 0.0000 0.0000 0.0000 26.2950 0.0000
# 6 -5.6241 5.6241 0.0000 0.0000 0.0000 22.4227
#
#
#
# Elastic Compliance Matrix: (Units=1/GPa)
#
#
# Indices 1 2 3 4 5 6 
#
# 1 0.014306 0.000181 -0.002430 0.000000 0.000000 0.003543
# 2 0.000181 0.014306 -0.002430 0.000000 0.000000 -0.003543
# 3 -0.002430 -0.002430 0.014733 0.000000 0.000000 0.000000
# 4 0.000000 0.000000 0.000000 0.038030 0.000000 0.000000
# 5 0.000000 0.000000 0.000000 0.000000 0.038030 0.000000
# 6 0.003543 -0.003543 0.000000 0.000000 0.000000 0.046375
#
#
# Mechanical properties :
#
#
# Convention : Reuss Voigt Hill
#
# Bulk Modulus (GPa) = 29.42314 29.57789 29.50052
# Shear Modulus (GPa) = 26.81408 27.98272 27.39840
#
# Velocity S-wave (km/s) = 3.56379 3.64063 3.60242
# Velocity P-wave (km/s) = 5.55613 5.62867 5.59252
#
# Compressibility (1/GPa) = 0.03398685
#
# Stress axis : x y z
#
# Youngs Moduli (GPa) = 69.89896 69.89896 67.87341
#
# Poissons Ratio (x) = -0.01266 0.16496
# Poissons Ratio (y) = -0.01266 0.16496
# Poissons Ratio (z) = 0.16988 0.16988
#
# Static dielectric constant tensor:
#      x y z
#    x 4.024870 0.000000 0.000000 
#    y 0.000000 4.024870 0.000000 
#    z 0.000000 0.000000 3.687350 
# 
# 
# High freq. dielectric constant tensor:
#      x y z
#    x 1.829210 0.000000 0.000000 
#    y 0.000000 1.829210 0.000000 
#    z 0.000000 0.000000 1.806150 
# 
# From -- ./inp_files/1851.got.cif
#   From: 2010.03.12/outbox.cif.g09.slc.cpg/sg88_1_cif.got.tgz:1851.got - 2010.04.08 20:20:55.
