data_PCOD8304809
_publ_section_title
;
Structure prediction by ZEFSAII (Michael W. Deem and Ramdas Pophale) SiO2 
 PCOD8304809
Probable space group: P 41 2 2
;
_chemical_formula_sum "Si O2"
_cell_formula_units_Z 52
_cell_length_a 17.988552
_cell_length_b 17.988552
_cell_length_c 9.203584
_cell_angle_alpha 90.000000
_cell_angle_beta 90.000000
_cell_angle_gamma 90.000000
_cell_volume 2978.169368
_symmetry_space_group_name_H-M "P 41 2 2"
_symmetry_group_IT_number 91
_symmetry_cell_setting 'tetragonal'
loop_
_space_group_symop_operation_xyz
x,y,z
-y,x,1/4+z
-x,-y,1/2+z
y,-x,3/4+z
x,-y,1/2-z
-x,y,-z
y,x,3/4-z
-y,-x,1/4-z
loop_
_atom_site_type_symbol
_atom_site_label
_atom_site_fract_x
_atom_site_fract_y
_atom_site_fract_z
Si Si1 0.929058 0.820417 0.402946
Si Si2 0.805411 0.660133 0.231972
Si Si3 0.099379 0.378417 0.237148
Si Si4 0.822311 0.500000 0.250000
Si Si5 0.806991 0.279192 0.956768
Si Si6 0.916829 0.487062 0.527419
Si Si7 0.963615 0.710227 0.156752
O O1 0.906154 0.906154 0.375000
O O2 0.860820 0.787925 0.498278
O O3 0.942262 0.783964 0.245726
O O4 0.000000 0.814104 0.500000
O O5 0.774536 0.575020 0.214457
O O6 0.751378 0.724142 0.168375
O O7 0.808424 0.666981 0.405494
O O8 0.886416 0.662801 0.150925
O O9 0.165569 0.324195 0.184658
O O10 0.077508 0.439614 0.121609
O O11 0.124367 0.419276 0.386712
O O12 0.023891 0.332612 0.249527
O O13 0.875482 0.513998 0.385392
O O14 0.000000 0.455875 0.500000
O O15 0.000000 0.729694 0.000000
#
# Coordination Sequence:
#
# PCOD8304809 Si02
#       7
#     8   8   8   4   8   8   8
#     4  11  21  39  61  78 101 143 194 239 289 339
#     4  10  20  34  55  79 109 141 187 225 273 336
#     4  11  21  34  52  79 110 150 182 221 279 334
#     4  12  20  34  52  78 110 144 178 228 276 322
#     4  10  19  36  57  79 102 148 189 227 271 341
#     4  11  22  32  48  79 118 145 182 218 269 348
#     4  11  21  34  54  82 111 139 183 231 279 330
#
# _framework density 17.460391999999999
#
# number of rings (size 3 to 8) (size 9 to 14) (size 15 to 20)
#    0.000    1.231    6.154    4.154    2.154    0.000 
#    0.000    6.154    0.000    0.000    0.000    0.000 
#    0.000    9.846    0.000    0.000    0.000    0.000 
#
# Total GULP energy -644305.237411 kJ/mol
# GULP energy per Si atom -12390.485335 kJ/mol
# Density = 1.742065 g / cm^3
# Si number density = 17.460392 Si / 1000 Ang^3
#
#
#
# Elastic Constant Matrix: (Units=GPa)
#
#
# Indices 1 2 3 4 5 6 
#
# 1 90.3608 59.1029 37.7154 0.0000 0.0000 0.0000
# 2 59.1029 90.3608 37.7154 0.0000 0.0000 0.0000
# 3 37.7154 37.7154 87.6967 0.0000 0.0000 0.0000
# 4 0.0000 0.0000 0.0000 4.7858 0.0000 0.0000
# 5 0.0000 0.0000 0.0000 0.0000 4.7858 0.0000
# 6 0.0000 0.0000 0.0000 0.0000 0.0000 18.1210
#
#
#
# Elastic Compliance Matrix: (Units=1/GPa)
#
#
# Indices 1 2 3 4 5 6 
#
# 1 0.020269 -0.011723 -0.003675 0.000000 0.000000 0.000000
# 2 -0.011723 0.020269 -0.003675 0.000000 0.000000 0.000000
# 3 -0.003675 -0.003675 0.014564 0.000000 0.000000 0.000000
# 4 0.000000 0.000000 0.000000 0.208953 0.000000 0.000000
# 5 0.000000 0.000000 0.000000 0.000000 0.208953 0.000000
# 6 0.000000 0.000000 0.000000 0.000000 0.000000 0.055184
#
#
# Mechanical properties :
#
#
# Convention : Reuss Voigt Hill
#
# Bulk Modulus (GPa) = 58.98180 59.72061 59.35121
# Shear Modulus (GPa) = 8.74141 14.46415 11.60278
#
# Velocity S-wave (km/s) = 2.23993 2.88131 2.58063
# Velocity P-wave (km/s) = 6.36737 6.73402 6.55326
#
# Compressibility (1/GPa) = 0.01695438
#
# Stress axis : x y z
#
# Youngs Moduli (GPa) = 49.33742 49.33742 68.66258
#
# Poissons Ratio (x) = 0.57840 0.25234
# Poissons Ratio (y) = 0.57840 0.25234
# Poissons Ratio (z) = 0.18132 0.18132
#
# Static dielectric constant tensor:
#      x y z
#    x 3.343450 0.000000 0.000000 
#    y 0.000000 3.343450 0.000000 
#    z 0.000000 0.000000 3.261810 
# 
# 
# High freq. dielectric constant tensor:
#      x y z
#    x 1.654890 0.000000 0.000000 
#    y 0.000000 1.654890 0.000000 
#    z 0.000000 0.000000 1.681340 
# 
# From -- ./inp_files/9985.got.cif
#   From: 2010.03.12/outbox.cif.g09.slc.cpg/sg91_5_cif.got.tgz:9985.got - 2010.04.08 20:27:58.
