data_PCOD8304169
_publ_section_title
;
Structure prediction by ZEFSAII (Michael W. Deem and Ramdas Pophale) SiO2 
 PCOD8304169
Probable space group: I 4/M
;
_chemical_formula_sum "Si O2"
_cell_formula_units_Z 64
_cell_length_a 15.703712
_cell_length_b 15.703712
_cell_length_c 14.069964
_cell_angle_alpha 90.000000
_cell_angle_beta 90.000000
_cell_angle_gamma 90.000000
_cell_volume 3469.745570
_symmetry_space_group_name_H-M "I 4/M"
_symmetry_group_IT_number 87
_symmetry_cell_setting 'tetragonal'
loop_
_space_group_symop_operation_xyz
x,y,z
-y,x,z
-x,-y,z
y,-x,z
-x,-y,-z
y,-x,-z
x,y,-z
-y,x,-z
1/2+x,1/2+y,1/2+z
1/2-y,1/2+x,1/2+z
1/2-x,1/2-y,1/2+z
1/2+y,1/2-x,1/2+z
1/2-x,1/2-y,1/2-z
1/2+y,1/2-x,1/2-z
1/2+x,1/2+y,1/2-z
1/2-y,1/2+x,1/2-z
loop_
_atom_site_type_symbol
_atom_site_label
_atom_site_fract_x
_atom_site_fract_y
_atom_site_fract_z
Si Si1 0.084781 0.381416 0.392488
Si Si2 0.263329 0.848725 0.234872
Si Si3 0.108817 0.568051 0.606333
Si Si4 0.880165 0.072847 0.107772
O O1 0.117243 0.366111 0.500000
O O2 0.110412 0.297745 0.333112
O O3 0.120436 0.471886 0.350089
O O4 0.984801 0.394866 0.391406
O O5 0.250000 0.750000 0.250000
O O6 0.336759 0.861748 0.158864
O O7 0.178462 0.891325 0.192463
O O8 0.142586 0.560452 0.500000
O O9 0.971836 0.115433 0.121302
O O10 0.847112 0.093366 0.000000
#
# Coordination Sequence:
#
# PCOD8304169 Si02
#       4
#    16  16  16  16
#     4   9  20  38  59  81 114 152 185 228 288 349
#     4  12  24  32  55  91 117 144 186 237 285 328
#     4   9  19  38  60  82 110 150 189 231 290 345
#     4   9  21  42  63  82 110 152 196 236 280 331
#
# _framework density 18.445156999999998
#
# number of rings (size 3 to 8) (size 9 to 14) (size 15 to 20)
#    0.000    2.250    0.000    4.500    7.000    4.000 
#    0.000    0.000    0.000    0.000    0.000    1.750 
#    0.000    0.000    0.000    0.000    0.000    0.000 
#
# Total GULP energy -396463.563574 kJ/mol
# GULP energy per Si atom -12389.486362 kJ/mol
# Density = 1.840317 g / cm^3
# Si number density = 18.445157 Si / 1000 Ang^3
#
#
#
# Elastic Constant Matrix: (Units=GPa)
#
#
# Indices 1 2 3 4 5 6 
#
# 1 96.7191 58.6076 62.9419 0.0000 0.0000 -1.1908
# 2 58.6076 96.7191 62.9419 0.0000 0.0000 1.1908
# 3 62.9419 62.9419 97.7598 0.0000 0.0000 0.0000
# 4 0.0000 0.0000 0.0000 -4.2856 0.0000 0.0000
# 5 0.0000 0.0000 0.0000 0.0000 -4.2856 0.0000
# 6 -1.1908 1.1908 0.0000 0.0000 0.0000 28.6218
#
#
#
# Elastic Compliance Matrix: (Units=1/GPa)
#
#
# Indices 1 2 3 4 5 6 
#
# 1 0.019885 -0.006422 -0.008668 0.000000 0.000000 0.001095
# 2 -0.006422 0.019885 -0.008668 0.000000 0.000000 -0.001095
# 3 -0.008668 -0.008668 0.021391 0.000000 0.000000 0.000000
# 4 0.000000 0.000000 0.000000 -0.233338 0.000000 0.000000
# 5 0.000000 0.000000 0.000000 0.000000 -0.233338 0.000000
# 6 0.001095 -0.001095 0.000000 0.000000 0.000000 0.035029
#
#
# Mechanical properties :
#
#
# Convention : Reuss Voigt Hill
#
# Bulk Modulus (GPa) = 73.28862 73.35342 73.32102
# Shear Modulus (GPa) = -15.70245 11.12390 -2.28927
#
# Velocity S-wave (km/s) = -2.92088 2.45843 -1.11527
# Velocity P-wave (km/s) = 5.33331 6.92194 6.17889
#
# Compressibility (1/GPa) = 0.01364468
#
# Stress axis : x y z
#
# Youngs Moduli (GPa) = 50.28891 50.28891 46.74893
#
# Poissons Ratio (x) = 0.32296 0.40522
# Poissons Ratio (y) = 0.32296 0.40522
# Poissons Ratio (z) = 0.43591 0.43591
#
# Static dielectric constant tensor:
#      x y z
#    x 3.319260 0.000000 0.000000 
#    y 0.000000 3.319260 0.000000 
#    z 0.000000 0.000000 3.715380 
# 
# 
# High freq. dielectric constant tensor:
#      x y z
#    x 1.709210 0.000000 0.000000 
#    y 0.000000 1.709210 0.000000 
#    z 0.000000 0.000000 1.720220 
# 
# From -- ./inp_files/3353.got.cif
#   From: 2010.03.12/outbox.cif.g09.slc.cpg/sg87_2_cif.got.tgz:3353.got - 2010.04.08 20:16:13.
