data_PCOD8304035
_publ_section_title
;
Structure prediction by ZEFSAII (Michael W. Deem and Ramdas Pophale) SiO2 
 PCOD8304035
Probable space group: I 4/M
;
_chemical_formula_sum "Si O2"
_cell_formula_units_Z 96
_cell_length_a 16.620844
_cell_length_b 16.620844
_cell_length_c 18.013934
_cell_angle_alpha 90.000000
_cell_angle_beta 90.000000
_cell_angle_gamma 90.000000
_cell_volume 4976.393497
_symmetry_space_group_name_H-M "I 4/M"
_symmetry_group_IT_number 87
_symmetry_cell_setting 'tetragonal'
loop_
_space_group_symop_operation_xyz
x,y,z
-y,x,z
-x,-y,z
y,-x,z
-x,-y,-z
y,-x,-z
x,y,-z
-y,x,-z
1/2+x,1/2+y,1/2+z
1/2-y,1/2+x,1/2+z
1/2-x,1/2-y,1/2+z
1/2+y,1/2-x,1/2+z
1/2-x,1/2-y,1/2-z
1/2+y,1/2-x,1/2-z
1/2+x,1/2+y,1/2-z
1/2-y,1/2+x,1/2-z
loop_
_atom_site_type_symbol
_atom_site_label
_atom_site_fract_x
_atom_site_fract_y
_atom_site_fract_z
Si Si1 0.444435 0.826945 0.687455
Si Si2 0.877318 0.301997 0.416922
Si Si3 0.666758 0.286927 0.776061
Si Si4 0.095302 0.509101 0.834366
Si Si5 0.572568 0.610836 0.303625
Si Si6 0.741355 0.430174 0.417144
O O1 0.397315 0.753223 0.721569
O O2 0.493643 0.876689 0.749923
O O3 0.386711 0.895396 0.650018
O O4 0.503235 0.789766 0.627520
O O5 0.895993 0.269468 0.500000
O O6 0.859154 0.228308 0.361105
O O7 0.795057 0.351081 0.417597
O O8 0.952647 0.356059 0.390966
O O9 0.750000 0.250000 0.750000
O O10 0.663632 0.383489 0.761031
O O11 0.000000 0.500000 0.847558
O O12 0.477296 0.609908 0.295954
O O13 0.591772 0.654656 0.381619
O O14 0.725372 0.462015 0.500000
#
# Coordination Sequence:
#
# PCOD8304035 Si02
#       6
#    16  16  16  16  16  16
#     4  11  19  34  53  87 122 163 212 247 299 370
#     4  10  22  36  57  92 130 161 197 253 318 379
#     4  11  22  38  65  87 115 160 209 256 311 375
#     4  11  18  30  57  87 124 168 206 245 298 376
#     4  11  24  43  65  91 117 157 218 265 307 369
#     4  11  22  37  57  89 130 163 199 253 315 370
#
# _framework density 19.291079
#
# number of rings (size 3 to 8) (size 9 to 14) (size 15 to 20)
#    0.000    1.167    6.667    1.000    0.000    1.667 
#    0.000    1.667    0.000    3.000    0.000    1.167 
#    0.000    0.000    0.000    0.000    0.000    0.000 
#
# Total GULP energy -594789.084225 kJ/mol
# GULP energy per Si atom -12391.439255 kJ/mol
# Density = 1.924717 g / cm^3
# Si number density = 19.291079 Si / 1000 Ang^3
#
#
#
# Elastic Constant Matrix: (Units=GPa)
#
#
# Indices 1 2 3 4 5 6 
#
# 1 101.4623 19.3008 51.8918 0.0000 0.0000 7.3998
# 2 19.3008 101.4623 51.8918 0.0000 0.0000 -7.3998
# 3 51.8918 51.8918 156.4050 0.0000 0.0000 0.0000
# 4 0.0000 0.0000 0.0000 24.2701 0.0000 0.0000
# 5 0.0000 0.0000 0.0000 0.0000 24.2701 0.0000
# 6 7.3998 -7.3998 0.0000 0.0000 0.0000 20.4492
#
#
#
# Elastic Compliance Matrix: (Units=1/GPa)
#
#
# Indices 1 2 3 4 5 6 
#
# 1 0.012302 -0.000718 -0.003843 0.000000 0.000000 -0.004711
# 2 -0.000718 0.012302 -0.003843 0.000000 0.000000 0.004711
# 3 -0.003843 -0.003843 0.008944 0.000000 0.000000 0.000000
# 4 0.000000 0.000000 0.000000 0.041203 0.000000 0.000000
# 5 0.000000 0.000000 0.000000 0.000000 0.041203 0.000000
# 6 -0.004711 0.004711 0.000000 0.000000 0.000000 0.052311
#
#
# Mechanical properties :
#
#
# Convention : Reuss Voigt Hill
#
# Bulk Modulus (GPa) = 59.74370 67.27760 63.51065
# Shear Modulus (GPa) = 26.22569 29.54756 27.88662
#
# Velocity S-wave (km/s) = 3.69110 3.91790 3.80619
# Velocity P-wave (km/s) = 7.01445 7.44428 7.23256
#
# Compressibility (1/GPa) = 0.01673817
#
# Stress axis : x y z
#
# Youngs Moduli (GPa) = 81.28993 81.28993 111.80920
#
# Poissons Ratio (x) = 0.05838 0.42970
# Poissons Ratio (y) = 0.05838 0.42970
# Poissons Ratio (z) = 0.31241 0.31241
#
# Static dielectric constant tensor:
#      x y z
#    x 4.663780 0.000000 0.000000 
#    y 0.000000 4.663780 0.000000 
#    z 0.000000 0.000000 3.598330 
# 
# 
# High freq. dielectric constant tensor:
#      x y z
#    x 1.752090 0.000000 0.000000 
#    y 0.000000 1.752090 0.000000 
#    z 0.000000 0.000000 1.730000 
# 
# From -- ./inp_files/4431.got.cif
#   From: 2010.03.12/outbox.cif.g09.slc.cpg/sg87_3_cif.got.tgz:4431.got - 2010.04.08 20:16:13.
