data_PCOD8304429
_publ_section_title
;
Structure prediction by ZEFSAII (Michael W. Deem and Ramdas Pophale) SiO2 
 PCOD8304429
Probable space group: I 41/A
;
_chemical_formula_sum "Si O2"
_cell_formula_units_Z 88
_cell_length_a 16.104465
_cell_length_b 16.104465
_cell_length_c 15.713601
_cell_angle_alpha 90.000000
_cell_angle_beta 90.000000
_cell_angle_gamma 90.000000
_cell_volume 4075.382020
_symmetry_space_group_name_H-M "I 41/A"
_symmetry_group_IT_number 88
_space_group.IT_coordinate_system_code '2'
_symmetry_cell_setting 'tetragonal'
loop_
_space_group_symop_operation_xyz
x,y,z
3/4-y,1/4+x,1/4+z
-x,1/2-y,z
1/4+y,1/4-x,1/4+z
-x,-y,-z
1/4+y,3/4-x,3/4-z
x,1/2+y,-z
3/4-y,3/4+x,3/4-z
1/2+x,1/2+y,1/2+z
1/4-y,3/4+x,3/4+z
1/2-x,-y,1/2+z
3/4+y,3/4-x,3/4+z
1/2-x,1/2-y,1/2-z
3/4+y,1/4-x,1/4-z
1/2+x,y,1/2-z
1/4-y,1/4+x,1/4-z
loop_
_atom_site_type_symbol
_atom_site_label
_atom_site_fract_x
_atom_site_fract_y
_atom_site_fract_z
Si Si1 0.393046 0.963305 0.438112
Si Si2 0.000000 0.250000 0.125000
Si Si3 0.500000 0.750000 0.125000
Si Si4 0.603566 0.499764 0.245799
Si Si5 0.377591 0.802077 0.770218
Si Si6 0.314227 0.723812 0.378786
Si Si7 0.849414 0.819616 0.285432
O O1 0.302304 0.929834 0.458704
O O2 0.395067 0.004314 0.346359
O O3 0.458339 0.886836 0.445983
O O4 0.410353 0.037211 0.503639
O O5 0.934676 0.298297 0.185611
O O6 0.497576 0.664840 0.071164
O O7 0.514896 0.464522 0.216821
O O8 0.609953 0.591009 0.207699
O O9 0.416578 0.857067 0.846840
O O10 0.237704 0.674546 0.336012
O O11 0.337464 0.797278 0.313511
#
# Coordination Sequence:
#
# PCOD8304429 Si02
#       7
#    16   4   4  16  16  16  16
#     4  11  26  44  69 102 135 180 231 284 357 408
#     4  12  24  46  72 100 140 170 236 288 340 422
#     4  12  24  46  72  96 144 186 236 284 340 426
#     4  12  24  45  67 100 142 176 229 290 342 419
#     4  11  25  45  72 101 134 184 228 287 350 418
#     4  11  25  45  69 101 139 180 235 283 346 412
#     4  11  26  43  67 105 138 188 230 287 345 411
#
# _framework density 21.593069
#
# number of rings (size 3 to 8) (size 9 to 14) (size 15 to 20)
#    0.000    0.727    3.636    3.273    5.091    1.455 
#    0.000    0.000    0.000    0.000    0.000    0.000 
#    0.000    0.000    0.000    0.000    0.000    0.000 
#
# Total GULP energy -545743.633690 kJ/mol
# GULP energy per Si atom -12403.264402 kJ/mol
# Density = 2.154392 g / cm^3
# Si number density = 21.593069 Si / 1000 Ang^3
#
#
#
# Elastic Constant Matrix: (Units=GPa)
#
#
# Indices 1 2 3 4 5 6 
#
# 1 96.5310 35.5023 30.6956 0.0000 0.0000 2.0941
# 2 35.5023 96.5310 30.6956 0.0000 0.0000 -2.0941
# 3 30.6956 30.6956 112.9111 0.0000 0.0000 0.0000
# 4 0.0000 0.0000 0.0000 32.4655 0.0000 0.0000
# 5 0.0000 0.0000 0.0000 0.0000 32.4655 0.0000
# 6 2.0941 -2.0941 0.0000 0.0000 0.0000 34.9020
#
#
#
# Elastic Compliance Matrix: (Units=1/GPa)
#
#
# Indices 1 2 3 4 5 6 
#
# 1 0.012562 -0.003892 -0.002357 0.000000 0.000000 -0.000987
# 2 -0.003892 0.012562 -0.002357 0.000000 0.000000 0.000987
# 3 -0.002357 -0.002357 0.010138 0.000000 0.000000 0.000000
# 4 0.000000 0.000000 0.000000 0.030802 0.000000 0.000000
# 5 0.000000 0.000000 0.000000 0.000000 0.030802 0.000000
# 6 -0.000987 0.000987 0.000000 0.000000 0.000000 0.028770
#
#
# Mechanical properties :
#
#
# Convention : Reuss Voigt Hill
#
# Bulk Modulus (GPa) = 55.40228 55.52890 55.46559
# Shear Modulus (GPa) = 33.58787 33.90524 33.74656
#
# Velocity S-wave (km/s) = 3.94825 3.96686 3.95757
# Velocity P-wave (km/s) = 6.81895 6.83763 6.82830
#
# Compressibility (1/GPa) = 0.01804980
#
# Stress axis : x y z
#
# Youngs Moduli (GPa) = 79.60759 79.60759 98.63869
#
# Poissons Ratio (x) = 0.30982 0.23248
# Poissons Ratio (y) = 0.30982 0.23248
# Poissons Ratio (z) = 0.18763 0.18763
#
# Static dielectric constant tensor:
#      x y z
#    x 3.890100 0.000000 0.000000 
#    y 0.000000 3.890100 0.000000 
#    z 0.000000 0.000000 3.859750 
# 
# 
# High freq. dielectric constant tensor:
#      x y z
#    x 1.854220 0.000000 0.000000 
#    y 0.000000 1.854220 0.000000 
#    z 0.000000 0.000000 1.852830 
# 
# From -- ./inp_files/3248.got.cif
#   From: 2010.03.12/outbox.cif.g09.slc.cpg/sg88_2_cif.got.tgz:3248.got - 2010.04.08 20:20:55.
