data_PCOD8304073
_publ_section_title
;
Structure prediction by ZEFSAII (Michael W. Deem and Ramdas Pophale) SiO2 
 PCOD8304073
Probable space group: I 4/M
;
_chemical_formula_sum "Si O2"
_cell_formula_units_Z 80
_cell_length_a 12.225756
_cell_length_b 12.225756
_cell_length_c 27.109240
_cell_angle_alpha 90.000000
_cell_angle_beta 90.000000
_cell_angle_gamma 90.000000
_cell_volume 4051.993969
_symmetry_space_group_name_H-M "I 4/M"
_symmetry_group_IT_number 87
_symmetry_cell_setting 'tetragonal'
loop_
_space_group_symop_operation_xyz
x,y,z
-y,x,z
-x,-y,z
y,-x,z
-x,-y,-z
y,-x,-z
x,y,-z
-y,x,-z
1/2+x,1/2+y,1/2+z
1/2-y,1/2+x,1/2+z
1/2-x,1/2-y,1/2+z
1/2+y,1/2-x,1/2+z
1/2-x,1/2-y,1/2-z
1/2+y,1/2-x,1/2-z
1/2+x,1/2+y,1/2-z
1/2-y,1/2+x,1/2-z
loop_
_atom_site_type_symbol
_atom_site_label
_atom_site_fract_x
_atom_site_fract_y
_atom_site_fract_z
Si Si1 0.178088 0.968318 0.190433
Si Si2 0.228586 0.614195 0.101393
Si Si3 0.990728 0.623889 0.881258
Si Si4 0.826740 0.042038 0.697530
Si Si5 0.282431 0.110204 0.443320
O O1 0.287336 0.951126 0.158780
O O2 0.217591 0.953247 0.246759
O O3 0.087211 0.875084 0.179632
O O4 0.233508 0.570706 0.158064
O O5 0.255248 0.514852 0.064246
O O6 0.312488 0.709624 0.090631
O O7 0.106145 0.659867 0.095100
O O8 0.907211 0.623670 0.926659
O O9 0.000000 0.500000 0.858920
O O10 0.921324 0.129543 0.687907
O O11 0.270441 0.144105 0.500000
#
# Coordination Sequence:
#
# PCOD8304073 Si02
#       5
#    16  16  16  16  16
#     4   9  18  37  64  88 111 152 202 241 285 334
#     4  11  21  39  61  86 118 150 194 245 292 345
#     4  10  23  40  55  82 124 160 191 233 289 353
#     4   9  17  34  60  87 117 148 183 239 294 339
#     4  11  24  40  61  86 114 153 198 243 299 346
#
# _framework density 19.743365000000001
#
# number of rings (size 3 to 8) (size 9 to 14) (size 15 to 20)
#    0.000    2.000    2.000    3.000    0.000    4.800 
#    7.200    4.000    0.000    0.000    0.000    4.200 
#    0.000    0.000    0.000    0.000    0.000    0.000 
#
# Total GULP energy -495927.114482 kJ/mol
# GULP energy per Si atom -12398.177862 kJ/mol
# Density = 1.969843 g / cm^3
# Si number density = 19.743365 Si / 1000 Ang^3
#
#
#
# Elastic Constant Matrix: (Units=GPa)
#
#
# Indices 1 2 3 4 5 6 
#
# 1 91.7116 22.8903 31.3742 0.0000 0.0000 -0.7664
# 2 22.8903 91.7116 31.3742 0.0000 0.0000 0.7664
# 3 31.3742 31.3742 94.3754 0.0000 0.0000 0.0000
# 4 0.0000 0.0000 0.0000 27.1458 0.0000 0.0000
# 5 0.0000 0.0000 0.0000 0.0000 27.1458 0.0000
# 6 -0.7664 0.7664 0.0000 0.0000 0.0000 22.6298
#
#
#
# Elastic Compliance Matrix: (Units=1/GPa)
#
#
# Indices 1 2 3 4 5 6 
#
# 1 0.012604 -0.001937 -0.003546 0.000000 0.000000 0.000492
# 2 -0.001937 0.012604 -0.003546 0.000000 0.000000 -0.000492
# 3 -0.003546 -0.003546 0.012954 0.000000 0.000000 0.000000
# 4 0.000000 0.000000 0.000000 0.036838 0.000000 0.000000
# 5 0.000000 0.000000 0.000000 0.000000 0.036838 0.000000
# 6 0.000492 -0.000492 0.000000 0.000000 0.000000 0.044223
#
#
# Mechanical properties :
#
#
# Convention : Reuss Voigt Hill
#
# Bulk Modulus (GPa) = 49.74206 49.89733 49.81970
# Shear Modulus (GPa) = 27.65146 28.19494 27.92320
#
# Velocity S-wave (km/s) = 3.74644 3.78308 3.76481
# Velocity P-wave (km/s) = 6.63050 6.66409 6.64731
#
# Compressibility (1/GPa) = 0.02010371
#
# Stress axis : x y z
#
# Youngs Moduli (GPa) = 79.33689 79.33689 77.19696
#
# Poissons Ratio (x) = 0.15367 0.27377
# Poissons Ratio (y) = 0.15367 0.27377
# Poissons Ratio (z) = 0.28136 0.28136
#
# Static dielectric constant tensor:
#      x y z
#    x 3.590830 0.000000 0.000000 
#    y 0.000000 3.590830 0.000000 
#    z 0.000000 0.000000 3.365160 
# 
# 
# High freq. dielectric constant tensor:
#      x y z
#    x 1.771090 0.000000 0.000000 
#    y 0.000000 1.771090 0.000000 
#    z 0.000000 0.000000 1.756210 
# 
# From -- ./inp_files/6484.got.cif
#   From: 2010.03.12/outbox.cif.g09.slc.cpg/sg87_4_cif.got.tgz:6484.got - 2010.04.08 20:16:13.
