data_PCOD8304386
_publ_section_title
;
Structure prediction by ZEFSAII (Michael W. Deem and Ramdas Pophale) SiO2 
 PCOD8304386
Probable space group: I 41/A
;
_chemical_formula_sum "Si O2"
_cell_formula_units_Z 88
_cell_length_a 16.259219
_cell_length_b 16.259219
_cell_length_c 14.267994
_cell_angle_alpha 90.000000
_cell_angle_beta 90.000000
_cell_angle_gamma 90.000000
_cell_volume 3771.918319
_symmetry_space_group_name_H-M "I 41/A"
_symmetry_group_IT_number 88
_space_group.IT_coordinate_system_code '2'
_symmetry_cell_setting 'tetragonal'
loop_
_space_group_symop_operation_xyz
x,y,z
3/4-y,1/4+x,1/4+z
-x,1/2-y,z
1/4+y,1/4-x,1/4+z
-x,-y,-z
1/4+y,3/4-x,3/4-z
x,1/2+y,-z
3/4-y,3/4+x,3/4-z
1/2+x,1/2+y,1/2+z
1/4-y,3/4+x,3/4+z
1/2-x,-y,1/2+z
3/4+y,3/4-x,3/4+z
1/2-x,1/2-y,1/2-z
3/4+y,1/4-x,1/4-z
1/2+x,y,1/2-z
1/4-y,1/4+x,1/4-z
loop_
_atom_site_type_symbol
_atom_site_label
_atom_site_fract_x
_atom_site_fract_y
_atom_site_fract_z
Si Si1 0.432635 0.449580 0.389143
Si Si2 0.000000 0.750000 0.651730
Si Si3 0.519882 0.381088 0.891253
Si Si4 0.247459 0.192519 0.987681
Si Si5 0.076854 0.890503 0.998331
Si Si6 0.134652 0.146267 0.823018
O O1 0.509630 0.454668 0.320287
O O2 0.479496 0.404194 0.474704
O O3 0.396083 0.536748 0.428304
O O4 0.362754 0.392611 0.339014
O O5 0.048280 0.677087 0.707893
O O6 0.069372 0.792334 0.588049
O O7 0.588097 0.318988 0.850953
O O8 0.513467 0.455261 0.818970
O O9 0.545873 0.421126 0.990840
O O10 0.185754 0.144651 0.918691
O O11 0.304157 0.122151 0.033697
#
# Coordination Sequence:
#
# PCOD8304386 Si02
#       6
#    16   8  16  16  16  16
#     4  11  24  43  71  99 138 175 232 280 346 415
#     4  12  20  39  73 100 122 174 234 282 335 397
#     4   9  19  36  64  96 129 168 220 279 334 396
#     4  11  22  39  66  93 136 172 224 279 339 404
#     4  11  24  41  71 101 138 180 227 287 344 411
#     4  11  22  38  65  98 134 176 226 284 339 408
#
# _framework density 23.330303000000001
#
# number of rings (size 3 to 8) (size 9 to 14) (size 15 to 20)
#    0.000    1.273    3.636    3.818    0.000    0.000 
#    0.000    0.000   24.000    0.000    0.000    0.000 
#    0.000    0.000    0.000    0.000    0.000    0.000 
#
# Total GULP energy -545307.358737 kJ/mol
# GULP energy per Si atom -12393.349062 kJ/mol
# Density = 2.327720 g / cm^3
# Si number density = 23.330303 Si / 1000 Ang^3
#
#
#
# Elastic Constant Matrix: (Units=GPa)
#
#
# Indices 1 2 3 4 5 6 
#
# 1 85.8740 30.3970 31.3034 0.0000 0.0000 -0.6822
# 2 30.3970 85.8740 31.3034 0.0000 0.0000 0.6822
# 3 31.3034 31.3034 82.3184 0.0000 0.0000 0.0000
# 4 0.0000 0.0000 0.0000 47.1211 0.0000 0.0000
# 5 0.0000 0.0000 0.0000 0.0000 47.1211 0.0000
# 6 -0.6822 0.6822 0.0000 0.0000 0.0000 24.2763
#
#
#
# Elastic Compliance Matrix: (Units=1/GPa)
#
#
# Indices 1 2 3 4 5 6 
#
# 1 0.014427 -0.003611 -0.004113 0.000000 0.000000 0.000507
# 2 -0.003611 0.014427 -0.004113 0.000000 0.000000 -0.000507
# 3 -0.004113 -0.004113 0.015276 0.000000 0.000000 0.000000
# 4 0.000000 0.000000 0.000000 0.021222 0.000000 0.000000
# 5 0.000000 0.000000 0.000000 0.000000 0.021222 0.000000
# 6 0.000507 -0.000507 0.000000 0.000000 0.000000 0.041221
#
#
# Mechanical properties :
#
#
# Convention : Reuss Voigt Hill
#
# Bulk Modulus (GPa) = 48.88708 48.89710 48.89209
# Shear Modulus (GPa) = 31.58846 34.44120 33.01483
#
# Velocity S-wave (km/s) = 3.68362 3.84636 3.76587
# Velocity P-wave (km/s) = 6.25235 6.38201 6.31752
#
# Compressibility (1/GPa) = 0.02045530
#
# Stress axis : x y z
#
# Youngs Moduli (GPa) = 69.31673 69.31673 65.46290
#
# Poissons Ratio (x) = 0.25033 0.26923
# Poissons Ratio (y) = 0.25033 0.26923
# Poissons Ratio (z) = 0.28508 0.28508
#
# Static dielectric constant tensor:
#      x y z
#    x 3.981210 0.000000 0.000000 
#    y 0.000000 3.981210 0.000000 
#    z 0.000000 0.000000 4.528270 
# 
# 
# High freq. dielectric constant tensor:
#      x y z
#    x 1.905100 0.000000 0.000000 
#    y 0.000000 1.905100 0.000000 
#    z 0.000000 0.000000 1.942350 
# 
# From -- ./inp_files/3217.got.cif
#   From: 2010.03.12/outbox.cif.g09.slc.cpg/sg88_2_cif.got.tgz:3217.got - 2010.04.08 20:20:55.
