data_PCOD8304751
_publ_section_title
;
Structure prediction by ZEFSAII (Michael W. Deem and Ramdas Pophale) SiO2 
 PCOD8304751
Probable space group: P 41 2 2
;
_chemical_formula_sum "Si O2"
_cell_formula_units_Z 48
_cell_length_a 9.242604
_cell_length_b 9.242604
_cell_length_c 27.521720
_cell_angle_alpha 90.000000
_cell_angle_beta 90.000000
_cell_angle_gamma 90.000000
_cell_volume 2351.062986
_symmetry_space_group_name_H-M "P 41 2 2"
_symmetry_group_IT_number 91
_symmetry_cell_setting 'tetragonal'
loop_
_space_group_symop_operation_xyz
x,y,z
-y,x,1/4+z
-x,-y,1/2+z
y,-x,3/4+z
x,-y,1/2-z
-x,y,-z
y,x,3/4-z
-y,-x,1/4-z
loop_
_atom_site_type_symbol
_atom_site_label
_atom_site_fract_x
_atom_site_fract_y
_atom_site_fract_z
Si Si1 0.780035 0.018950 0.037203
Si Si2 0.535636 0.253795 0.600828
Si Si3 0.773522 0.172503 0.373042
Si Si4 0.881154 0.500000 0.750000
Si Si5 0.813795 0.000000 0.750000
Si Si6 0.975556 0.609474 0.092344
Si Si7 0.309737 0.053426 0.800356
O O1 0.821004 0.189941 0.041553
O O2 0.819540 0.952857 0.089482
O O3 0.612682 0.993475 0.024328
O O4 0.865955 0.926091 0.996540
O O5 0.600740 0.399261 0.625000
O O6 0.364762 0.258619 0.607127
O O7 0.565972 0.222565 0.543054
O O8 0.597653 0.132116 0.635736
O O9 0.886555 0.302778 0.367166
O O10 0.762230 0.091989 0.321894
O O11 0.708923 0.014838 0.795330
O O12 0.901959 0.450747 0.082461
O O13 0.376710 0.000000 0.750000
#
# Coordination Sequence:
#
# PCOD8304751 Si02
#       7
#     8   8   8   4   4   8   8
#     4  10  20  36  60  86 126 153 205 248 313 359
#     4  10  21  39  62  88 120 160 205 253 307 371
#     4   9  22  39  57  86 120 156 197 249 304 362
#     4  10  22  38  58  94 126 162 204 266 316 374
#     4  10  18  34  58  92 112 162 200 260 296 360
#     4  10  21  37  61  87 124 156 204 249 306 363
#     4  11  21  36  61  91 119 158 202 254 298 368
#
# _framework density 20.416298000000001
#
# number of rings (size 3 to 8) (size 9 to 14) (size 15 to 20)
#    0.000    2.000    1.667    1.500    2.333    2.667 
#    0.000    5.000    0.000    2.000    0.000    0.000 
#    0.000    0.000    0.000    0.000    0.000    0.000 
#
# Total GULP energy -594641.184418 kJ/mol
# GULP energy per Si atom -12388.358009 kJ/mol
# Density = 2.036983 g / cm^3
# Si number density = 20.416298 Si / 1000 Ang^3
#
#
#
# Elastic Constant Matrix: (Units=GPa)
#
#
# Indices 1 2 3 4 5 6 
#
# 1 63.4552 25.6937 9.9712 0.0000 0.0000 0.0000
# 2 25.6937 63.4534 9.9711 0.0000 0.0000 0.0000
# 3 9.9712 9.9711 57.7105 0.0000 0.0000 0.0000
# 4 0.0000 0.0000 0.0000 24.2108 0.0000 0.0000
# 5 0.0000 0.0000 0.0000 0.0000 24.2110 0.0000
# 6 0.0000 0.0000 0.0000 0.0000 0.0000 13.7370
#
#
#
# Elastic Compliance Matrix: (Units=1/GPa)
#
#
# Indices 1 2 3 4 5 6 
#
# 1 0.019075 -0.007407 -0.002016 0.000000 0.000000 0.000000
# 2 -0.007407 0.019076 -0.002016 0.000000 0.000000 0.000000
# 3 -0.002016 -0.002016 0.018025 0.000000 0.000000 0.000000
# 4 0.000000 0.000000 0.000000 0.041304 0.000000 0.000000
# 5 0.000000 0.000000 0.000000 0.000000 0.041304 0.000000
# 6 0.000000 0.000000 0.000000 0.000000 0.000000 0.072796
#
#
# Mechanical properties :
#
#
# Convention : Reuss Voigt Hill
#
# Bulk Modulus (GPa) = 30.03275 30.65455 30.34365
# Shear Modulus (GPa) = 20.36191 21.69730 21.02960
#
# Velocity S-wave (km/s) = 3.16149 3.26351 3.21291
# Velocity P-wave (km/s) = 5.29800 5.40814 5.35336
#
# Compressibility (1/GPa) = 0.03329698
#
# Stress axis : x y z
#
# Youngs Moduli (GPa) = 52.42415 52.42269 55.47994
#
# Poissons Ratio (x) = 0.38830 0.11185
# Poissons Ratio (y) = 0.38831 0.11185
# Poissons Ratio (z) = 0.10569 0.10569
#
# Static dielectric constant tensor:
#      x y z
#    x 3.709150 0.000000 0.000000 
#    y 0.000000 3.709150 0.000000 
#    z 0.000000 0.000000 3.812910 
# 
# 
# High freq. dielectric constant tensor:
#      x y z
#    x 1.788610 0.000000 0.000000 
#    y 0.000000 1.788610 0.000000 
#    z 0.000000 0.000000 1.805700 
# 
# From -- ./inp_files/8024.got.cif
#   From: 2010.03.12/outbox.cif.g09.slc.cpg/sg91_5_cif.got.tgz:8024.got - 2010.04.08 20:27:58.
