data_PCOD8304217
_publ_section_title
;
Structure prediction by ZEFSAII (Michael W. Deem and Ramdas Pophale) SiO2 
 PCOD8304217
Probable space group: I 41/A
;
_chemical_formula_sum "Si O2"
_cell_formula_units_Z 100
_cell_length_a 14.847723
_cell_length_b 14.847723
_cell_length_c 24.541402
_cell_angle_alpha 90.000000
_cell_angle_beta 90.000000
_cell_angle_gamma 90.000000
_cell_volume 5410.271791
_symmetry_space_group_name_H-M "I 41/A"
_symmetry_group_IT_number 88
_space_group.IT_coordinate_system_code '2'
_symmetry_cell_setting 'tetragonal'
loop_
_space_group_symop_operation_xyz
x,y,z
3/4-y,1/4+x,1/4+z
-x,1/2-y,z
1/4+y,1/4-x,1/4+z
-x,-y,-z
1/4+y,3/4-x,3/4-z
x,1/2+y,-z
3/4-y,3/4+x,3/4-z
1/2+x,1/2+y,1/2+z
1/4-y,3/4+x,3/4+z
1/2-x,-y,1/2+z
3/4+y,3/4-x,3/4+z
1/2-x,1/2-y,1/2-z
3/4+y,1/4-x,1/4-z
1/2+x,y,1/2-z
1/4-y,1/4+x,1/4-z
loop_
_atom_site_type_symbol
_atom_site_label
_atom_site_fract_x
_atom_site_fract_y
_atom_site_fract_z
Si Si1 0.601782 0.558641 0.439899
Si Si2 0.421493 0.957644 0.935172
Si Si3 0.760005 0.513180 0.368555
Si Si4 0.897376 0.742229 0.081363
Si Si5 0.196858 0.645586 0.704443
Si Si6 0.500000 0.750000 0.125000
Si Si7 0.345840 0.174438 0.802248
O O1 0.657535 0.527865 0.387363
O O2 0.628707 0.664118 0.448395
O O3 0.496234 0.540959 0.431181
O O4 0.629447 0.498431 0.490901
O O5 0.470696 0.906123 0.886232
O O6 0.326816 0.003694 0.919651
O O7 0.482894 0.042477 0.948306
O O8 0.404270 0.891743 0.987354
O O9 0.759104 0.417250 0.340075
O O10 0.790368 0.592830 0.328569
O O11 0.878876 0.660911 0.038529
O O12 0.000000 0.750000 0.099850
O O13 0.562702 0.689146 0.085375
#
# Coordination Sequence:
#
# PCOD8304217 Si02
#       7
#    16  16  16  16  16   4  16
#     4  10  19  38  61  81 113 156 186 241 296 345
#     4  10  21  36  55  82 113 150 196 230 282 349
#     4  11  20  38  58  84 118 152 192 246 289 351
#     4   9  18  35  59  83 110 147 188 235 282 347
#     4   9  21  37  58  86 113 144 198 236 289 348
#     4  12  24  40  56  88 128 152 192 248 292 346
#     4  11  22  36  56  82 117 155 187 238 289 343
#
# _framework density 18.483360999999999
#
# number of rings (size 3 to 8) (size 9 to 14) (size 15 to 20)
#    0.000    1.920    3.200    0.960    1.120    0.000 
#    2.880    0.000    3.520    0.000    0.000    0.000 
#    0.000    0.000    0.000    0.000    0.000    0.000 
#
# Total GULP energy -619625.651124 kJ/mol
# GULP energy per Si atom -12392.513022 kJ/mol
# Density = 1.844129 g / cm^3
# Si number density = 18.483361 Si / 1000 Ang^3
#
#
#
# Elastic Constant Matrix: (Units=GPa)
#
#
# Indices 1 2 3 4 5 6 
#
# 1 72.5595 42.3341 43.7321 0.0000 0.0000 1.4455
# 2 42.3341 72.5595 43.7321 0.0000 0.0000 -1.4455
# 3 43.7321 43.7321 100.7720 0.0000 0.0000 0.0000
# 4 0.0000 0.0000 0.0000 25.3003 0.0000 0.0000
# 5 0.0000 0.0000 0.0000 0.0000 25.3003 0.0000
# 6 1.4455 -1.4455 0.0000 0.0000 0.0000 26.8572
#
#
#
# Elastic Compliance Matrix: (Units=1/GPa)
#
#
# Indices 1 2 3 4 5 6 
#
# 1 0.023127 -0.010129 -0.005641 0.000000 0.000000 -0.001790
# 2 -0.010129 0.023127 -0.005641 0.000000 0.000000 0.001790
# 3 -0.005641 -0.005641 0.014819 0.000000 0.000000 0.000000
# 4 0.000000 0.000000 0.000000 0.039525 0.000000 0.000000
# 5 0.000000 0.000000 0.000000 0.000000 0.039525 0.000000
# 6 -0.001790 0.001790 0.000000 0.000000 0.000000 0.037427
#
#
# Mechanical properties :
#
#
# Convention : Reuss Voigt Hill
#
# Bulk Modulus (GPa) = 54.78840 56.16527 55.47683
# Shear Modulus (GPa) = 22.07946 23.23107 22.65527
#
# Velocity S-wave (km/s) = 3.45999 3.54907 3.50481
# Velocity P-wave (km/s) = 6.75784 6.87368 6.81601
#
# Compressibility (1/GPa) = 0.01825204
#
# Stress axis : x y z
#
# Youngs Moduli (GPa) = 43.23974 43.23974 67.48041
#
# Poissons Ratio (x) = 0.43798 0.38063
# Poissons Ratio (y) = 0.43798 0.38063
# Poissons Ratio (z) = 0.24390 0.24390
#
# Static dielectric constant tensor:
#      x y z
#    x 3.549280 0.000000 0.000000 
#    y 0.000000 3.549280 0.000000 
#    z 0.000000 0.000000 3.463010 
# 
# 
# High freq. dielectric constant tensor:
#      x y z
#    x 1.723060 0.000000 0.000000 
#    y 0.000000 1.723060 0.000000 
#    z 0.000000 0.000000 1.703910 
# 
# From -- ./inp_files/5289.got.cif
#   From: 2010.03.12/outbox.cif.g09.slc.cpg/sg88_3_cif.got.tgz:5289.got - 2010.04.08 20:20:55.
