data_PCOD8304682
_publ_section_title
;
Structure prediction by ZEFSAII (Michael W. Deem and Ramdas Pophale) SiO2 
 PCOD8304682
Probable space group: P 4 21 2
;
_chemical_formula_sum "Si O2"
_cell_formula_units_Z 38
_cell_length_a 7.984814
_cell_length_b 7.984814
_cell_length_c 25.945820
_cell_angle_alpha 90.000000
_cell_angle_beta 90.000000
_cell_angle_gamma 90.000000
_cell_volume 1654.234252
_symmetry_space_group_name_H-M "P 4 21 2"
_symmetry_group_IT_number 90
_symmetry_cell_setting 'tetragonal'
loop_
_space_group_symop_operation_xyz
x,y,z
1/2-y,1/2+x,z
-x,-y,z
1/2+y,1/2-x,z
1/2+x,1/2-y,-z
1/2-x,1/2+y,-z
y,x,-z
-y,-x,-z
loop_
_atom_site_type_symbol
_atom_site_label
_atom_site_fract_x
_atom_site_fract_y
_atom_site_fract_z
Si Si1 0.042887 0.769022 0.406879
Si Si2 0.500000 0.500000 0.864416
Si Si3 0.765968 0.079344 0.776499
Si Si4 0.422915 0.734332 0.047841
Si Si5 0.000000 0.000000 0.500000
Si Si6 0.731201 0.571421 0.680089
O O1 0.187436 0.634526 0.395818
O O2 0.105042 0.915418 0.368701
O O3 0.019247 0.835715 0.464865
O O4 0.397197 0.367749 0.829559
O O5 0.630375 0.396600 0.899660
O O6 0.611852 0.206093 0.773317
O O7 0.893208 0.119460 0.730337
O O8 0.613539 0.794360 0.045865
O O9 0.387854 0.612147 0.000000
O O10 0.797701 0.383441 0.679193
#
# Coordination Sequence:
#
# PCOD8304682 Si02
#       6
#     8   4   8   8   2   8
#     4  11  24  42  66  94 126 167 212 262 321 382
#     4  12  23  41  64  94 133 171 218 272 328 396
#     4  11  24  41  64  95 132 174 217 266 326 390
#     4  11  24  43  68  96 129 172 222 278 339 402
#     4  12  24  42  64  92 130 164 208 264 318 384
#     4  11  24  43  68  97 129 169 216 266 323 390
#
# _framework density 22.971356
#
# number of rings (size 3 to 8) (size 9 to 14) (size 15 to 20)
#    0.000    0.842    0.000    7.263    0.000    4.211 
#    0.000    6.316    0.000    0.000    0.000    0.000 
#    0.000    0.000    0.000    0.000    0.000    0.000 
#
# Total GULP energy -471141.238353 kJ/mol
# GULP energy per Si atom -12398.453641 kJ/mol
# Density = 2.291907 g / cm^3
# Si number density = 22.971356 Si / 1000 Ang^3
#
#
#
# Elastic Constant Matrix: (Units=GPa)
#
#
# Indices 1 2 3 4 5 6 
#
# 1 125.9802 54.0258 64.6373 0.0000 0.0000 0.0000
# 2 54.0258 125.9806 64.6373 0.0000 0.0000 0.0000
# 3 64.6373 64.6373 186.0100 0.0000 0.0000 0.0000
# 4 0.0000 0.0000 0.0000 35.1685 0.0000 0.0000
# 5 0.0000 0.0000 0.0000 0.0000 35.1709 0.0000
# 6 0.0000 0.0000 0.0000 0.0000 0.0000 40.3947
#
#
#
# Elastic Compliance Matrix: (Units=1/GPa)
#
#
# Indices 1 2 3 4 5 6 
#
# 1 0.010650 -0.003247 -0.002572 0.000000 0.000000 0.000000
# 2 -0.003247 0.010650 -0.002572 0.000000 0.000000 0.000000
# 3 -0.002572 -0.002572 0.007164 0.000000 0.000000 0.000000
# 4 0.000000 0.000000 0.000000 0.028435 0.000000 0.000000
# 5 0.000000 0.000000 0.000000 0.000000 0.028433 0.000000
# 6 0.000000 0.000000 0.000000 0.000000 0.000000 0.024756
#
#
# Mechanical properties :
#
#
# Convention : Reuss Voigt Hill
#
# Bulk Modulus (GPa) = 85.61827 89.39685 87.50756
# Shear Modulus (GPa) = 38.23655 39.12486 38.68070
#
# Velocity S-wave (km/s) = 4.08429 4.13146 4.10795
# Velocity P-wave (km/s) = 7.71975 7.85874 7.78956
#
# Compressibility (1/GPa) = 0.01167975
#
# Stress axis : x y z
#
# Youngs Moduli (GPa) = 93.89464 93.89494 139.58964
#
# Poissons Ratio (x) = 0.30492 0.35908
# Poissons Ratio (y) = 0.30492 0.35908
# Poissons Ratio (z) = 0.24154 0.24154
#
# Static dielectric constant tensor:
#      x y z
#    x 4.267500 0.000000 0.000000 
#    y 0.000000 4.267480 0.000000 
#    z 0.000000 0.000000 4.099430 
# 
# 
# High freq. dielectric constant tensor:
#      x y z
#    x 1.925560 0.000000 0.000000 
#    y 0.000000 1.925560 0.000000 
#    z 0.000000 0.000000 1.909220 
# 
# From -- ./inp_files/2919.got.cif
#   From: 2010.03.12/outbox.cif.g09.slc.cpg/sg90_2_cif.got.tgz:2919.got - 2010.04.08 20:26:03.
