data_PCOD8304852
_publ_section_title
;
Structure prediction by ZEFSAII (Michael W. Deem and Ramdas Pophale) SiO2 
 PCOD8304852
Probable space group: P 41 2 2
;
_chemical_formula_sum "Si O2"
_cell_formula_units_Z 60
_cell_length_a 17.057011
_cell_length_b 17.057011
_cell_length_c 9.517923
_cell_angle_alpha 90.000000
_cell_angle_beta 90.000000
_cell_angle_gamma 90.000000
_cell_volume 2769.159977
_symmetry_space_group_name_H-M "P 41 2 2"
_symmetry_group_IT_number 91
_symmetry_cell_setting 'tetragonal'
loop_
_space_group_symop_operation_xyz
x,y,z
-y,x,1/4+z
-x,-y,1/2+z
y,-x,3/4+z
x,-y,1/2-z
-x,y,-z
y,x,3/4-z
-y,-x,1/4-z
loop_
_atom_site_type_symbol
_atom_site_label
_atom_site_fract_x
_atom_site_fract_y
_atom_site_fract_z
Si Si1 0.597400 0.943980 0.630392
Si Si2 0.570994 0.788608 0.107267
Si Si3 0.465959 0.225258 0.141149
Si Si4 0.348605 0.045482 0.607073
Si Si5 0.110074 0.110074 0.375000
Si Si6 0.877905 0.766752 0.117048
Si Si7 0.997512 0.819915 0.331715
Si Si8 0.721361 0.295675 0.466024
O O1 0.545143 0.867301 0.617166
O O2 0.685717 0.920351 0.668366
O O3 0.561855 0.000000 0.750000
O O4 0.594070 0.994345 0.489164
O O5 0.536673 0.762162 0.253625
O O6 0.620027 0.867738 0.118950
O O7 0.631469 0.720263 0.070701
O O8 0.500000 0.798668 0.000000
O O9 0.388498 0.266979 0.198667
O O10 0.500000 0.264230 0.000000
O O11 0.346484 0.000000 0.750000
O O12 0.258106 0.049761 0.555674
O O13 0.105099 0.183589 0.478416
O O14 0.035472 0.112413 0.267593
O O15 0.910202 0.804210 0.265007
O O16 0.784116 0.751075 0.131913
O O17 0.000000 0.842778 0.500000
O O18 0.733681 0.266320 0.625000
#
# Coordination Sequence:
#
# PCOD8304852 Si02
#       8
#     8   8   8   8   4   8   8   8
#     4  10  20  35  58  92 136 179 213 257 327 404
#     4  12  24  40  68 101 133 177 225 273 337 409
#     4  11  25  42  62  95 140 177 220 282 339 400
#     4  10  21  37  58  94 142 181 214 259 333 410
#     4  12  20  36  66  94 122 172 232 278 344 382
#     4  10  21  38  67  96 128 177 232 280 332 410
#     4  10  23  41  61  97 140 176 226 291 349 411
#     4  11  23  44  72 100 132 179 234 280 339 419
#
# _framework density 21.667221999999999
#
# number of rings (size 3 to 8) (size 9 to 14) (size 15 to 20)
#    0.000    1.333    2.000    4.400    1.867    5.333 
#    0.000    4.000    0.000    8.800    0.000    0.000 
#    0.000    0.000    0.000    0.000    0.000    0.000 
#
# Total GULP energy -743677.580435 kJ/mol
# GULP energy per Si atom -12394.626341 kJ/mol
# Density = 2.161791 g / cm^3
# Si number density = 21.667222 Si / 1000 Ang^3
#
#
#
# Elastic Constant Matrix: (Units=GPa)
#
#
# Indices 1 2 3 4 5 6 
#
# 1 83.4635 49.7376 37.4830 0.0000 0.0000 0.0000
# 2 49.7376 83.4639 37.4832 0.0000 0.0000 0.0000
# 3 37.4830 37.4832 137.0197 0.0000 0.0000 0.0000
# 4 0.0000 0.0000 0.0000 43.3584 0.0000 0.0000
# 5 0.0000 0.0000 0.0000 0.0000 43.3581 0.0000
# 6 0.0000 0.0000 0.0000 0.0000 0.0000 24.0461
#
#
#
# Elastic Compliance Matrix: (Units=1/GPa)
#
#
# Indices 1 2 3 4 5 6 
#
# 1 0.019262 -0.010389 -0.002427 0.000000 0.000000 0.000000
# 2 -0.010389 0.019262 -0.002427 0.000000 0.000000 0.000000
# 3 -0.002427 -0.002427 0.008626 0.000000 0.000000 0.000000
# 4 0.000000 0.000000 0.000000 0.023064 0.000000 0.000000
# 5 0.000000 0.000000 0.000000 0.000000 0.023064 0.000000
# 6 0.000000 0.000000 0.000000 0.000000 0.000000 0.041587
#
#
# Mechanical properties :
#
#
# Convention : Reuss Voigt Hill
#
# Bulk Modulus (GPa) = 60.01065 61.48385 60.74725
# Shear Modulus (GPa) = 29.25583 34.10208 31.67895
#
# Velocity S-wave (km/s) = 3.67854 3.97155 3.82785
# Velocity P-wave (km/s) = 6.76748 7.03342 6.90173
#
# Compressibility (1/GPa) = 0.01666371
#
# Stress axis : x y z
#
# Youngs Moduli (GPa) = 51.91526 51.91545 115.92410
#
# Poissons Ratio (x) = 0.53932 0.28140
# Poissons Ratio (y) = 0.53932 0.28140
# Poissons Ratio (z) = 0.12602 0.12602
#
# Static dielectric constant tensor:
#      x y z
#    x 3.913090 0.000000 0.000000 
#    y 0.000000 3.913100 0.000000 
#    z 0.000000 0.000000 4.047640 
# 
# 
# High freq. dielectric constant tensor:
#      x y z
#    x 1.840660 0.000000 0.000000 
#    y 0.000000 1.840660 0.000000 
#    z 0.000000 0.000000 1.862390 
# 
# From -- ./inp_files/15303.got.cif
#   From: 2010.03.12/outbox.cif.g09.slc.cpg/sg91_8_cif.got.tgz:15303.got - 2010.04.08 20:27:58.
