data_PCOD8304383
_publ_section_title
;
Structure prediction by ZEFSAII (Michael W. Deem and Ramdas Pophale) SiO2 
 PCOD8304383
Probable space group: I 41/A
;
_chemical_formula_sum "Si O2"
_cell_formula_units_Z 48
_cell_length_a 9.323630
_cell_length_b 9.323630
_cell_length_c 25.569898
_cell_angle_alpha 90.000000
_cell_angle_beta 90.000000
_cell_angle_gamma 90.000000
_cell_volume 2222.793186
_symmetry_space_group_name_H-M "I 41/A"
_symmetry_group_IT_number 88
_space_group.IT_coordinate_system_code '2'
_symmetry_cell_setting 'tetragonal'
loop_
_space_group_symop_operation_xyz
x,y,z
3/4-y,1/4+x,1/4+z
-x,1/2-y,z
1/4+y,1/4-x,1/4+z
-x,-y,-z
1/4+y,3/4-x,3/4-z
x,1/2+y,-z
3/4-y,3/4+x,3/4-z
1/2+x,1/2+y,1/2+z
1/4-y,3/4+x,3/4+z
1/2-x,-y,1/2+z
3/4+y,3/4-x,3/4+z
1/2-x,1/2-y,1/2-z
3/4+y,1/4-x,1/4-z
1/2+x,y,1/2-z
1/4-y,1/4+x,1/4-z
loop_
_atom_site_type_symbol
_atom_site_label
_atom_site_fract_x
_atom_site_fract_y
_atom_site_fract_z
Si Si1 0.206618 0.358730 0.613268
Si Si2 0.099324 0.132122 0.983148
Si Si3 0.817868 0.836568 0.904120
O O1 0.190633 0.191760 0.625804
O O2 0.265105 0.397780 0.554848
O O3 0.325810 0.420068 0.652656
O O4 0.000000 0.250000 0.954297
O O5 0.158341 0.206273 0.035951
O O6 0.000000 0.000000 0.000000
O O7 0.811055 0.695620 0.867925
#
# Coordination Sequence:
#
# PCOD8304383 Si02
#       3
#    16  16  16
#     4  11  26  43  63 101 150 189 223 287 362 426
#     4  12  22  41  72  99 133 185 237 291 345 409
#     4  11  21  41  68 103 130 175 245 293 338 407
#
# _framework density 21.594453000000001
#
# number of rings (size 3 to 8) (size 9 to 14) (size 15 to 20)
#    0.000    0.667    6.667    2.000    0.000    1.333 
#    0.000    3.333    0.000    0.000    0.000    0.000 
#    0.000    0.000    0.000    0.000    0.000    0.000 
#
# Total GULP energy -297464.496401 kJ/mol
# GULP energy per Si atom -12394.354017 kJ/mol
# Density = 2.154530 g / cm^3
# Si number density = 21.594453 Si / 1000 Ang^3
#
#
#
# Elastic Constant Matrix: (Units=GPa)
#
#
# Indices 1 2 3 4 5 6 
#
# 1 75.3615 24.9511 43.8945 0.0000 0.0000 -4.7132
# 2 24.9511 75.3615 43.8945 0.0000 0.0000 4.7132
# 3 43.8945 43.8945 118.8800 0.0000 0.0000 0.0000
# 4 0.0000 0.0000 0.0000 35.4664 0.0000 0.0000
# 5 0.0000 0.0000 0.0000 0.0000 35.4664 0.0000
# 6 -4.7132 4.7132 0.0000 0.0000 0.0000 51.9747
#
#
#
# Elastic Compliance Matrix: (Units=1/GPa)
#
#
# Indices 1 2 3 4 5 6 
#
# 1 0.017454 -0.002726 -0.005438 0.000000 0.000000 0.001830
# 2 -0.002726 0.017454 -0.005438 0.000000 0.000000 -0.001830
# 3 -0.005438 -0.005438 0.012428 0.000000 0.000000 0.000000
# 4 0.000000 0.000000 0.000000 0.028196 0.000000 0.000000
# 5 0.000000 0.000000 0.000000 0.000000 0.028196 0.000000
# 6 0.001830 -0.001830 0.000000 0.000000 0.000000 0.019572
#
#
# Mechanical properties :
#
#
# Convention : Reuss Voigt Hill
#
# Bulk Modulus (GPa) = 49.67372 55.00924 52.34148
# Shear Modulus (GPa) = 31.80407 35.03900 33.42153
#
# Velocity S-wave (km/s) = 3.84186 4.03251 3.93834
# Velocity P-wave (km/s) = 6.53703 6.87100 6.70609
#
# Compressibility (1/GPa) = 0.02013137
#
# Stress axis : x y z
#
# Youngs Moduli (GPa) = 57.29456 57.29456 80.46556
#
# Poissons Ratio (x) = 0.15617 0.43758
# Poissons Ratio (y) = 0.15617 0.43758
# Poissons Ratio (z) = 0.31157 0.31157
#
# Static dielectric constant tensor:
#      x y z
#    x 3.932060 0.000000 0.000000 
#    y 0.000000 3.932060 0.000000 
#    z 0.000000 0.000000 3.990130 
# 
# 
# High freq. dielectric constant tensor:
#      x y z
#    x 1.847790 0.000000 0.000000 
#    y 0.000000 1.847790 0.000000 
#    z 0.000000 0.000000 1.846050 
# 
# From -- ./inp_files/6032.got.cif
#   From: 2010.03.12/outbox.cif.g09.slc.cpg/sg88_4_cif.got.tgz:6032.got - 2010.04.08 20:20:55.
