data_PCOD8304276
_publ_section_title
;
Structure prediction by ZEFSAII (Michael W. Deem and Ramdas Pophale) SiO2 
 PCOD8304276
Probable space group: I 41/A
;
_chemical_formula_sum "Si O2"
_cell_formula_units_Z 116
_cell_length_a 16.780875
_cell_length_b 16.780875
_cell_length_c 19.092053
_cell_angle_alpha 90.000000
_cell_angle_beta 90.000000
_cell_angle_gamma 90.000000
_cell_volume 5376.279469
_symmetry_space_group_name_H-M "I 41/A"
_symmetry_group_IT_number 88
_space_group.IT_coordinate_system_code '2'
_symmetry_cell_setting 'tetragonal'
loop_
_space_group_symop_operation_xyz
x,y,z
3/4-y,1/4+x,1/4+z
-x,1/2-y,z
1/4+y,1/4-x,1/4+z
-x,-y,-z
1/4+y,3/4-x,3/4-z
x,1/2+y,-z
3/4-y,3/4+x,3/4-z
1/2+x,1/2+y,1/2+z
1/4-y,3/4+x,3/4+z
1/2-x,-y,1/2+z
3/4+y,3/4-x,3/4+z
1/2-x,1/2-y,1/2-z
3/4+y,1/4-x,1/4-z
1/2+x,y,1/2-z
1/4-y,1/4+x,1/4-z
loop_
_atom_site_type_symbol
_atom_site_label
_atom_site_fract_x
_atom_site_fract_y
_atom_site_fract_z
Si Si1 0.244536 0.082623 0.923831
Si Si2 0.686388 0.037466 0.976604
Si Si3 0.382632 0.801166 0.007556
Si Si4 0.519909 0.468097 0.261533
Si Si5 0.000000 0.750000 0.375000
Si Si6 0.490161 0.661194 0.392256
Si Si7 0.359112 0.891729 0.769040
Si Si8 0.413910 0.991347 0.410504
O O1 0.278705 0.108037 0.848424
O O2 0.181185 0.014877 0.901767
O O3 0.197279 0.154275 0.962758
O O4 0.312017 0.042541 0.974985
O O5 0.634769 0.106744 0.013243
O O6 0.777892 0.062518 0.963507
O O7 0.436791 0.794844 0.076126
O O8 0.299531 0.758896 0.024360
O O9 0.420190 0.754446 0.941695
O O10 0.447044 0.405905 0.263792
O O11 0.545493 0.474075 0.341754
O O12 0.500000 0.750000 0.425159
O O13 0.403139 0.625281 0.408298
O O14 0.553295 0.598235 0.424675
O O15 0.306424 0.828681 0.722848
#
# Coordination Sequence:
#
# PCOD8304276 Si02
#       8
#    16  16  16  16   4  16  16  16
#     4  11  19  38  62  88 121 156 206 257 313 370
#     4  10  21  36  61  89 117 158 209 255 312 370
#     4  10  22  37  59  87 122 163 202 253 308 377
#     4  10  21  40  59  88 127 153 206 259 308 369
#     4  12  20  40  60  84 128 168 202 240 324 380
#     4  11  21  40  61  88 122 159 207 254 310 370
#     4  10  22  40  60  87 120 161 206 257 310 374
#     4  10  22  39  62  90 120 163 200 254 314 371
#
# _framework density 21.576259
#
# number of rings (size 3 to 8) (size 9 to 14) (size 15 to 20)
#    0.000    1.655    2.069    2.897    0.000    1.103 
#    4.966    0.000    0.000    6.621    0.000    0.000 
#    0.000    0.000    0.000    0.000    0.000    0.000 
#
# Total GULP energy -718613.994939 kJ/mol
# GULP energy per Si atom -12389.896464 kJ/mol
# Density = 2.152715 g / cm^3
# Si number density = 21.576259 Si / 1000 Ang^3
#
#
#
# Elastic Constant Matrix: (Units=GPa)
#
#
# Indices 1 2 3 4 5 6 
#
# 1 91.3906 23.4299 33.3510 0.0000 0.0000 8.4559
# 2 23.4299 91.3906 33.3510 0.0000 0.0000 -8.4559
# 3 33.3510 33.3510 91.4449 0.0000 0.0000 0.0000
# 4 0.0000 0.0000 0.0000 27.9126 0.0000 0.0000
# 5 0.0000 0.0000 0.0000 0.0000 27.9126 0.0000
# 6 8.4559 -8.4559 0.0000 0.0000 0.0000 32.4114
#
#
#
# Elastic Compliance Matrix: (Units=1/GPa)
#
#
# Indices 1 2 3 4 5 6 
#
# 1 0.013393 -0.002343 -0.004030 0.000000 0.000000 -0.004105
# 2 -0.002343 0.013393 -0.004030 0.000000 0.000000 0.004105
# 3 -0.004030 -0.004030 0.013875 0.000000 0.000000 0.000000
# 4 0.000000 0.000000 0.000000 0.035826 0.000000 0.000000
# 5 0.000000 0.000000 0.000000 0.000000 0.035826 0.000000
# 6 -0.004105 0.004105 0.000000 0.000000 0.000000 0.032995
#
#
# Mechanical properties :
#
#
# Convention : Reuss Voigt Hill
#
# Bulk Modulus (GPa) = 50.36428 50.49887 50.43157
# Shear Modulus (GPa) = 28.94618 29.92028 29.43323
#
# Velocity S-wave (km/s) = 3.66673 3.72791 3.69745
# Velocity P-wave (km/s) = 6.42803 6.47961 6.45388
#
# Compressibility (1/GPa) = 0.01985534
#
# Stress axis : x y z
#
# Youngs Moduli (GPa) = 74.66445 74.66445 72.07054
#
# Poissons Ratio (x) = 0.17492 0.29046
# Poissons Ratio (y) = 0.17492 0.29046
# Poissons Ratio (z) = 0.30092 0.30092
#
# Static dielectric constant tensor:
#      x y z
#    x 3.873180 0.000000 0.000000 
#    y 0.000000 3.873180 0.000000 
#    z 0.000000 0.000000 3.710620 
# 
# 
# High freq. dielectric constant tensor:
#      x y z
#    x 1.841440 0.000000 0.000000 
#    y 0.000000 1.841440 0.000000 
#    z 0.000000 0.000000 1.841230 
# 
# From -- ./inp_files/4038.got.cif
#   From: 2010.03.12/outbox.cif.g09.slc.cpg/sg88_3_cif.got.tgz:4038.got - 2010.04.08 20:20:55.
