data_PCOD8304558
_publ_section_title
;
Structure prediction by ZEFSAII (Michael W. Deem and Ramdas Pophale) SiO2 
 PCOD8304558
Probable space group: P 4 21 2
;
_chemical_formula_sum "Si O2"
_cell_formula_units_Z 48
_cell_length_a 12.290940
_cell_length_b 12.290940
_cell_length_c 15.410559
_cell_angle_alpha 90.000000
_cell_angle_beta 90.000000
_cell_angle_gamma 90.000000
_cell_volume 2328.030092
_symmetry_space_group_name_H-M "P 4 21 2"
_symmetry_group_IT_number 90
_symmetry_cell_setting 'tetragonal'
loop_
_space_group_symop_operation_xyz
x,y,z
1/2-y,1/2+x,z
-x,-y,z
1/2+y,1/2-x,z
1/2+x,1/2-y,-z
1/2-x,1/2+y,-z
y,x,-z
-y,-x,-z
loop_
_atom_site_type_symbol
_atom_site_label
_atom_site_fract_x
_atom_site_fract_y
_atom_site_fract_z
Si Si1 0.098763 0.217799 0.181119
Si Si2 0.778456 0.990112 0.173149
Si Si3 0.517022 0.172812 0.350803
Si Si4 0.111965 0.939391 0.404367
Si Si5 0.671798 0.950799 0.991894
Si Si6 0.795223 0.136197 0.760633
O O1 0.121555 0.090265 0.194867
O O2 0.192917 0.284734 0.229768
O O3 0.985011 0.247998 0.225004
O O4 0.087081 0.241194 0.078896
O O5 0.686709 0.982106 0.246808
O O6 0.724694 0.944487 0.086130
O O7 0.827691 0.112248 0.169132
O O8 0.402910 0.116958 0.378408
O O9 0.526485 0.289117 0.399274
O O10 0.110119 0.889882 0.500000
O O11 0.141748 0.844991 0.335943
O O12 0.000000 0.000000 0.380654
O O13 0.573632 0.867099 0.979293
#
# Coordination Sequence:
#
# PCOD8304558 Si02
#       6
#     8   8   8   8   8   8
#     4  12  23  41  62  89 131 171 211 267 317 392
#     4  11  22  37  63  93 122 168 223 272 317 369
#     4  10  20  39  64  94 129 164 212 269 325 383
#     4  10  22  43  66  97 129 166 216 273 333 397
#     4  11  22  38  59  88 129 171 214 264 313 376
#     4  11  24  42  66  92 128 172 219 258 332 398
#
# _framework density 20.618290999999999
#
# number of rings (size 3 to 8) (size 9 to 14) (size 15 to 20)
#    0.000    1.167    1.667    7.000    0.000    2.333 
#    6.000    1.667    0.000    0.000    0.000    0.000 
#    0.000    0.000    0.000    0.000    0.000    0.000 
#
# Total GULP energy -595210.004923 kJ/mol
# GULP energy per Si atom -12400.208436 kJ/mol
# Density = 2.057136 g / cm^3
# Si number density = 20.618291 Si / 1000 Ang^3
#
#
#
# Elastic Constant Matrix: (Units=GPa)
#
#
# Indices 1 2 3 4 5 6 
#
# 1 110.9375 41.0098 18.1293 0.0000 0.0000 0.0000
# 2 41.0098 110.9377 18.1293 0.0000 0.0000 0.0000
# 3 18.1293 18.1293 97.8096 0.0000 0.0000 0.0000
# 4 0.0000 0.0000 0.0000 27.6669 0.0000 0.0000
# 5 0.0000 0.0000 0.0000 0.0000 27.6669 0.0000
# 6 0.0000 0.0000 0.0000 0.0000 0.0000 22.1968
#
#
#
# Elastic Compliance Matrix: (Units=1/GPa)
#
#
# Indices 1 2 3 4 5 6 
#
# 1 0.010593 -0.003707 -0.001276 0.000000 0.000000 0.000000
# 2 -0.003707 0.010593 -0.001276 0.000000 0.000000 0.000000
# 3 -0.001276 -0.001276 0.010697 0.000000 0.000000 0.000000
# 4 0.000000 0.000000 0.000000 0.036144 0.000000 0.000000
# 5 0.000000 0.000000 0.000000 0.000000 0.036144 0.000000
# 6 0.000000 0.000000 0.000000 0.000000 0.000000 0.045052
#
#
# Mechanical properties :
#
#
# Convention : Reuss Voigt Hill
#
# Bulk Modulus (GPa) = 51.64370 52.69128 52.16749
# Shear Modulus (GPa) = 29.72692 31.66722 30.69707
#
# Velocity S-wave (km/s) = 3.80119 3.92328 3.86272
# Velocity P-wave (km/s) = 6.66088 6.79220 6.72686
#
# Compressibility (1/GPa) = 0.01936345
#
# Stress axis : x y z
#
# Youngs Moduli (GPa) = 94.40078 94.40098 93.48343
#
# Poissons Ratio (x) = 0.34998 0.11931
# Poissons Ratio (y) = 0.34998 0.11931
# Poissons Ratio (z) = 0.12048 0.12048
#
# Static dielectric constant tensor:
#      x y z
#    x 3.875400 0.000000 0.000000 
#    y 0.000000 3.875400 0.000000 
#    z 0.000000 0.000000 3.559330 
# 
# 
# High freq. dielectric constant tensor:
#      x y z
#    x 1.815210 0.000000 0.000000 
#    y 0.000000 1.815210 0.000000 
#    z 0.000000 0.000000 1.787680 
# 
# From -- ./inp_files/2638.got.cif
#   From: 2010.03.12/outbox.cif.g09.slc.cpg/sg90_2_cif.got.tgz:2638.got - 2010.04.08 20:26:03.
