data_PCOD8304979
_publ_section_title
;
Structure prediction by ZEFSAII (Michael W. Deem and Ramdas Pophale) SiO2 
 PCOD8304979
Probable space group: P 41 2 2
;
_chemical_formula_sum "Si O2"
_cell_formula_units_Z 44
_cell_length_a 9.549898
_cell_length_b 9.549898
_cell_length_c 25.399519
_cell_angle_alpha 90.000000
_cell_angle_beta 90.000000
_cell_angle_gamma 90.000000
_cell_volume 2316.450149
_symmetry_space_group_name_H-M "P 41 2 2"
_symmetry_group_IT_number 91
_symmetry_cell_setting 'tetragonal'
loop_
_space_group_symop_operation_xyz
x,y,z
-y,x,1/4+z
-x,-y,1/2+z
y,-x,3/4+z
x,-y,1/2-z
-x,y,-z
y,x,3/4-z
-y,-x,1/4-z
loop_
_atom_site_type_symbol
_atom_site_label
_atom_site_fract_x
_atom_site_fract_y
_atom_site_fract_z
Si Si1 0.494935 0.893173 0.557856
Si Si2 0.048945 0.951056 0.125000
Si Si3 0.343801 0.343726 0.636042
Si Si4 0.429472 0.585421 0.054939
Si Si5 0.868421 0.287909 0.703781
Si Si6 0.920069 0.753375 0.676162
O O1 0.500000 0.819127 0.500000
O O2 0.565662 0.794921 0.601651
O O3 0.573316 0.040586 0.552084
O O4 0.337572 0.936075 0.575360
O O5 0.059499 0.828510 0.167699
O O6 0.909311 0.952022 0.091069
O O7 0.437098 0.421878 0.593104
O O8 0.442456 0.338787 0.688554
O O9 0.307070 0.189600 0.616182
O O10 0.324397 0.713508 0.066986
O O11 0.500000 0.604624 0.000000
O O12 0.858590 0.240824 0.764692
#
# Coordination Sequence:
#
# PCOD8304979 Si02
#       6
#     8   4   8   8   8   8
#     4  10  21  40  63  86 123 166 199 243 313 373
#     4  12  24  38  64  90 122 160 206 254 306 358
#     4  11  21  36  62  93 119 154 203 250 302 355
#     4  11  21  37  63  91 120 154 201 257 302 362
#     4  11  21  40  65  87 116 162 207 249 298 363
#     4  11  23  41  61  89 124 162 207 250 303 375
#
# _framework density 18.994582999999999
#
# number of rings (size 3 to 8) (size 9 to 14) (size 15 to 20)
#    0.000    1.091    5.455    2.727    0.000    1.455 
#    0.000    0.000    0.000    0.000    0.000    0.000 
#    0.000    0.000    0.000    0.000    0.000    0.000 
#
# Total GULP energy -545384.875406 kJ/mol
# GULP energy per Si atom -12395.110805 kJ/mol
# Density = 1.895135 g / cm^3
# Si number density = 18.994583 Si / 1000 Ang^3
#
#
#
# Elastic Constant Matrix: (Units=GPa)
#
#
# Indices 1 2 3 4 5 6 
#
# 1 86.5877 21.1399 41.4771 0.0000 0.0000 0.0000
# 2 21.1399 86.5870 41.4771 0.0000 0.0000 0.0000
# 3 41.4771 41.4771 77.1651 0.0000 0.0000 0.0000
# 4 0.0000 0.0000 0.0000 30.1978 0.0000 0.0000
# 5 0.0000 0.0000 0.0000 0.0000 30.1978 0.0000
# 6 0.0000 0.0000 0.0000 0.0000 0.0000 25.7618
#
#
#
# Elastic Compliance Matrix: (Units=1/GPa)
#
#
# Indices 1 2 3 4 5 6 
#
# 1 0.015559 0.000279 -0.008513 0.000000 0.000000 0.000000
# 2 0.000279 0.015559 -0.008513 0.000000 0.000000 0.000000
# 3 -0.008513 -0.008513 0.022111 0.000000 0.000000 0.000000
# 4 0.000000 0.000000 0.000000 0.033115 0.000000 0.000000
# 5 0.000000 0.000000 0.000000 0.000000 0.033115 0.000000
# 6 0.000000 0.000000 0.000000 0.000000 0.000000 0.038817
#
#
# Mechanical properties :
#
#
# Convention : Reuss Voigt Hill
#
# Bulk Modulus (GPa) = 50.67221 50.94756 50.80988
# Shear Modulus (GPa) = 25.20820 26.98120 26.09470
#
# Velocity S-wave (km/s) = 3.64693 3.77300 3.71050
# Velocity P-wave (km/s) = 6.66847 6.77208 6.72048
#
# Compressibility (1/GPa) = 0.01973468
#
# Stress axis : x y z
#
# Youngs Moduli (GPa) = 64.27258 64.27181 45.22612
#
# Poissons Ratio (x) = -0.01796 0.38502
# Poissons Ratio (y) = -0.01796 0.38502
# Poissons Ratio (z) = 0.54716 0.54716
#
# Static dielectric constant tensor:
#      x y z
#    x 4.210420 0.000000 0.000000 
#    y 0.000000 4.210420 0.000000 
#    z 0.000000 0.000000 3.155400 
# 
# 
# High freq. dielectric constant tensor:
#      x y z
#    x 1.735960 0.000000 0.000000 
#    y 0.000000 1.735960 0.000000 
#    z 0.000000 0.000000 1.746230 
# 
# From -- ./inp_files/18054.got.cif
#   From: 2010.03.12/outbox.cif.g09.slc.cpg/sg91_10_cif.got.tgz:18054.got - 2010.04.08 20:27:58.
