data_PCOD8304493
_publ_section_title
;
Structure prediction by ZEFSAII (Michael W. Deem and Ramdas Pophale) SiO2 
 PCOD8304493
Probable space group: P 4 2 2
;
_chemical_formula_sum "Si O2"
_cell_formula_units_Z 48
_cell_length_a 8.679497
_cell_length_b 8.679497
_cell_length_c 31.274447
_cell_angle_alpha 90.000000
_cell_angle_beta 90.000000
_cell_angle_gamma 90.000000
_cell_volume 2356.018813
_symmetry_space_group_name_H-M "P 4 2 2"
_symmetry_group_IT_number 89
_symmetry_cell_setting 'tetragonal'
loop_
_space_group_symop_operation_xyz
x,y,z
-y,x,z
-x,-y,z
y,-x,z
x,-y,-z
-x,y,-z
y,x,-z
-y,-x,-z
loop_
_atom_site_type_symbol
_atom_site_label
_atom_site_fract_x
_atom_site_fract_y
_atom_site_fract_z
Si Si1 0.556371 0.750289 0.141025
Si Si2 0.770707 0.100057 0.695857
Si Si3 0.500000 0.000000 0.928786
Si Si4 0.157327 0.195304 0.548554
Si Si5 0.092038 0.237723 0.793030
Si Si6 0.382763 0.278693 0.375915
Si Si7 0.000000 0.746803 0.000000
O O1 0.385726 0.681648 0.143645
O O2 0.552271 0.850901 0.098145
O O3 0.612318 0.863058 0.179122
O O4 0.710704 0.120561 0.744218
O O5 0.649876 0.156911 0.661313
O O6 0.922384 0.199013 0.687667
O O7 0.646980 0.969237 0.957987
O O8 0.215467 0.215467 0.500000
O O9 0.226766 0.331088 0.576996
O O10 0.976900 0.210817 0.559038
O O11 0.913788 0.195754 0.802672
O O12 0.562850 0.294434 0.370224
O O13 0.152193 0.847808 0.000000
#
# Coordination Sequence:
#
# PCOD8304493 Si02
#       7
#     8   8   4   8   8   8   4
#     4  11  23  37  56  85 120 157 196 240 293 354
#     4   9  19  37  60  83 107 141 189 240 287 340
#     4  11  22  40  62  86 122 160 196 242 300 363
#     4   9  19  37  60  83 105 133 176 230 285 346
#     4   9  19  37  60  85 114 151 196 246 299 353
#     4  11  24  37  50  76 114 150 184 227 282 344
#     4  10  22  40  64  92 118 152 202 254 298 346
#
# _framework density 20.373353999999999
#
# number of rings (size 3 to 8) (size 9 to 14) (size 15 to 20)
#    0.000    2.083    0.000    4.500    0.000    6.000 
#    0.000    9.167    0.000    4.000    0.000    0.000 
#    0.000    0.000    0.000    0.000    0.000    0.000 
#
# Total GULP energy -594765.520925 kJ/mol
# GULP energy per Si atom -12390.948353 kJ/mol
# Density = 2.032698 g / cm^3
# Si number density = 20.373354 Si / 1000 Ang^3
#
#
#
# Elastic Constant Matrix: (Units=GPa)
#
#
# Indices 1 2 3 4 5 6 
#
# 1 98.0538 -25.9278 29.1901 0.0000 0.0000 0.0000
# 2 -25.9278 98.0542 29.1901 0.0000 0.0000 0.0000
# 3 29.1901 29.1901 103.1681 0.0000 0.0000 0.0000
# 4 0.0000 0.0000 0.0000 3.1910 0.0000 0.0000
# 5 0.0000 0.0000 0.0000 0.0000 3.1067 0.0000
# 6 0.0000 0.0000 0.0000 0.0000 0.0000 28.2913
#
#
#
# Elastic Compliance Matrix: (Units=1/GPa)
#
#
# Indices 1 2 3 4 5 6 
#
# 1 0.013024 0.004959 -0.005088 0.000000 0.000000 0.000000
# 2 0.004959 0.013024 -0.005088 0.000000 0.000000 0.000000
# 3 -0.005088 -0.005088 0.012572 0.000000 0.000000 0.000000
# 4 0.000000 0.000000 0.000000 0.313379 0.000000 0.000000
# 5 0.000000 0.000000 0.000000 0.000000 0.321883 0.000000
# 6 0.000000 0.000000 0.000000 0.000000 0.000000 0.035347
#
#
# Mechanical properties :
#
#
# Convention : Reuss Voigt Hill
#
# Bulk Modulus (GPa) = 35.47883 40.46453 37.97168
# Shear Modulus (GPa) = 6.85815 24.70606 15.78211
#
# Velocity S-wave (km/s) = 1.83672 3.48611 2.78626
# Velocity P-wave (km/s) = 4.68510 6.00904 5.38789
#
# Compressibility (1/GPa) = 0.02818582
#
# Stress axis : x y z
#
# Youngs Moduli (GPa) = 76.77928 76.77960 79.54110
#
# Poissons Ratio (x) = -0.38072 0.40471
# Poissons Ratio (y) = -0.38072 0.40471
# Poissons Ratio (z) = 0.39066 0.39066
#
# Static dielectric constant tensor:
#      x y z
#    x 3.837030 0.000000 0.000000 
#    y 0.000000 3.837600 0.000000 
#    z 0.000000 0.000000 3.691280 
# 
# 
# High freq. dielectric constant tensor:
#      x y z
#    x 1.799300 0.000000 0.000000 
#    y 0.000000 1.799300 0.000000 
#    z 0.000000 0.000000 1.800290 
# 
# From -- ./inp_files/3034.got.cif
#   From: 2010.03.12/outbox.cif.g09.slc.cpg/sg89_2_cif.got.tgz:3034.got - 2010.04.08 20:24:03.
