data_PCOD8304178
_publ_section_title
;
Structure prediction by ZEFSAII (Michael W. Deem and Ramdas Pophale) SiO2 
 PCOD8304178
Probable space group: I 41/A
;
_chemical_formula_sum "Si O2"
_cell_formula_units_Z 96
_cell_length_a 14.064407
_cell_length_b 14.064407
_cell_length_c 23.650530
_cell_angle_alpha 90.000000
_cell_angle_beta 90.000000
_cell_angle_gamma 90.000000
_cell_volume 4678.253260
_symmetry_space_group_name_H-M "I 41/A"
_symmetry_group_IT_number 88
_space_group.IT_coordinate_system_code '2'
_symmetry_cell_setting 'tetragonal'
loop_
_space_group_symop_operation_xyz
x,y,z
3/4-y,1/4+x,1/4+z
-x,1/2-y,z
1/4+y,1/4-x,1/4+z
-x,-y,-z
1/4+y,3/4-x,3/4-z
x,1/2+y,-z
3/4-y,3/4+x,3/4-z
1/2+x,1/2+y,1/2+z
1/4-y,3/4+x,3/4+z
1/2-x,-y,1/2+z
3/4+y,3/4-x,3/4+z
1/2-x,1/2-y,1/2-z
3/4+y,1/4-x,1/4-z
1/2+x,y,1/2-z
1/4-y,1/4+x,1/4-z
loop_
_atom_site_type_symbol
_atom_site_label
_atom_site_fract_x
_atom_site_fract_y
_atom_site_fract_z
Si Si1 0.834977 0.383507 0.850794
Si Si2 0.130788 0.324577 0.892611
Si Si3 0.517986 0.357838 0.715578
Si Si4 0.895451 0.754753 0.750715
Si Si5 0.244025 0.394099 0.289586
Si Si6 0.163613 0.957365 0.290586
O O1 0.850173 0.287084 0.885481
O O2 0.832126 0.469335 0.895715
O O3 0.734828 0.379265 0.817144
O O4 0.918631 0.403213 0.805088
O O5 0.094687 0.366572 0.834054
O O6 0.224525 0.381413 0.908886
O O7 0.049788 0.342179 0.938707
O O8 0.500000 0.250000 0.734446
O O9 0.565295 0.412499 0.767908
O O10 0.846428 0.651646 0.743506
O O11 0.830530 0.819055 0.791100
O O12 0.000000 0.750000 0.779204
O O13 0.277364 0.488606 0.257817
#
# Coordination Sequence:
#
# PCOD8304178 Si02
#       6
#    16  16  16  16  16  16
#     4  11  22  41  65  89 124 173 205 260 326 372
#     4  10  20  40  62  87 127 165 206 257 321 383
#     4  10  22  42  64  86 123 170 211 259 320 383
#     4  10  17  35  64  91 123 167 208 249 320 379
#     4  10  21  35  63  92 122 164 210 262 306 382
#     4  11  25  38  62  98 125 160 220 265 307 383
#
# _framework density 20.520479999999999
#
# number of rings (size 3 to 8) (size 9 to 14) (size 15 to 20)
#    0.000    1.667    3.333    1.500    2.333    2.667 
#    3.000    0.000    0.000    0.000    0.000    0.000 
#    0.000    0.000    0.000    0.000    0.000    0.000 
#
# Total GULP energy -595199.621112 kJ/mol
# GULP energy per Si atom -12399.992107 kJ/mol
# Density = 2.047377 g / cm^3
# Si number density = 20.520480 Si / 1000 Ang^3
#
#
#
# Elastic Constant Matrix: (Units=GPa)
#
#
# Indices 1 2 3 4 5 6 
#
# 1 86.9595 37.5841 25.7258 0.0000 0.0000 1.8977
# 2 37.5841 86.9595 25.7258 0.0000 0.0000 -1.8977
# 3 25.7258 25.7258 44.3379 0.0000 0.0000 0.0000
# 4 0.0000 0.0000 0.0000 19.1141 0.0000 0.0000
# 5 0.0000 0.0000 0.0000 0.0000 19.1141 0.0000
# 6 1.8977 -1.8977 0.0000 0.0000 0.0000 32.6669
#
#
#
# Elastic Compliance Matrix: (Units=1/GPa)
#
#
# Indices 1 2 3 4 5 6 
#
# 1 0.015452 -0.004892 -0.006128 0.000000 0.000000 -0.001182
# 2 -0.004892 0.015452 -0.006128 0.000000 0.000000 0.001182
# 3 -0.006128 -0.006128 0.029665 0.000000 0.000000 0.000000
# 4 0.000000 0.000000 0.000000 0.052317 0.000000 0.000000
# 5 0.000000 0.000000 0.000000 0.000000 0.052317 0.000000
# 6 -0.001182 0.001182 0.000000 0.000000 0.000000 0.030749
#
#
# Mechanical properties :
#
#
# Convention : Reuss Voigt Hill
#
# Bulk Modulus (GPa) = 38.05756 44.03647 41.04702
# Shear Modulus (GPa) = 20.92002 22.79378 21.85690
#
# Velocity S-wave (km/s) = 3.19638 3.33646 3.26717
# Velocity P-wave (km/s) = 5.67528 6.02901 5.85482
#
# Compressibility (1/GPa) = 0.02627599
#
# Stress axis : x y z
#
# Youngs Moduli (GPa) = 64.71526 64.71526 33.70998
#
# Poissons Ratio (x) = 0.31656 0.20656
# Poissons Ratio (y) = 0.31656 0.20656
# Poissons Ratio (z) = 0.39655 0.39655
#
# Static dielectric constant tensor:
#      x y z
#    x 3.760920 0.000000 0.000000 
#    y 0.000000 3.760920 0.000000 
#    z 0.000000 0.000000 3.453660 
# 
# 
# High freq. dielectric constant tensor:
#      x y z
#    x 1.804420 0.000000 0.000000 
#    y 0.000000 1.804420 0.000000 
#    z 0.000000 0.000000 1.780170 
# 
# From -- ./inp_files/4667.got.cif
#   From: 2010.03.12/outbox.cif.g09.slc.cpg/sg88_3_cif.got.tgz:4667.got - 2010.04.08 20:20:55.
