data_PCOD8304962
_publ_section_title
;
Structure prediction by ZEFSAII (Michael W. Deem and Ramdas Pophale) SiO2 
 PCOD8304962
Probable space group: P 41 2 2
;
_chemical_formula_sum "Si O2"
_cell_formula_units_Z 60
_cell_length_a 12.375590
_cell_length_b 12.375590
_cell_length_c 19.475007
_cell_angle_alpha 90.000000
_cell_angle_beta 90.000000
_cell_angle_gamma 90.000000
_cell_volume 2982.699134
_symmetry_space_group_name_H-M "P 41 2 2"
_symmetry_group_IT_number 91
_symmetry_cell_setting 'tetragonal'
loop_
_space_group_symop_operation_xyz
x,y,z
-y,x,1/4+z
-x,-y,1/2+z
y,-x,3/4+z
x,-y,1/2-z
-x,y,-z
y,x,3/4-z
-y,-x,1/4-z
loop_
_atom_site_type_symbol
_atom_site_label
_atom_site_fract_x
_atom_site_fract_y
_atom_site_fract_z
Si Si1 0.263569 0.031192 0.650103
Si Si2 0.678507 0.726910 0.140556
Si Si3 0.081371 0.000000 0.750000
Si Si4 0.408133 0.137453 0.058370
Si Si5 0.215749 0.554321 0.113075
Si Si6 0.228267 0.021611 0.493223
Si Si7 0.986844 0.505156 0.424177
Si Si8 0.293923 0.738510 0.020308
O O1 0.269820 0.159369 0.663331
O O2 0.157190 0.980094 0.684045
O O3 0.264079 0.005209 0.570574
O O4 0.366409 0.970110 0.682311
O O5 0.740587 0.636325 0.184954
O O6 0.551984 0.717358 0.159992
O O7 0.688299 0.710609 0.058726
O O8 0.007698 0.103016 0.733819
O O9 0.457074 0.114327 0.133613
O O10 0.500000 0.128875 0.000000
O O11 0.308638 0.054803 0.049324
O O12 0.092015 0.517815 0.122488
O O13 0.220697 0.645706 0.054485
O O14 0.258847 0.593711 0.187111
O O15 0.237205 0.145468 0.468975
O O16 0.000000 0.453325 0.500000
#
# Coordination Sequence:
#
# PCOD8304962 Si02
#       8
#     8   8   4   8   8   8   8   8
#     4  10  21  38  63  86 125 174 214 252 316 396
#     4  10  22  40  64  94 123 166 218 268 324 389
#     4  12  22  42  60  90 138 170 210 258 328 406
#     4  12  23  41  67  95 134 167 218 281 333 391
#     4  10  21  39  64  92 123 170 215 266 326 392
#     4  11  23  41  61  96 125 174 213 261 330 389
#     4  11  21  36  63  93 128 169 226 273 319 386
#     4  10  21  42  65  91 127 164 221 271 327 390
#
# _framework density 20.116008999999998
#
# number of rings (size 3 to 8) (size 9 to 14) (size 15 to 20)
#    0.000    1.333    4.667    1.600    0.000    0.000 
#   10.800    2.667    0.000    0.000    0.000    0.000 
#    0.000    0.000    0.000    0.000    0.000    0.000 
#
# Total GULP energy -743960.553871 kJ/mol
# GULP energy per Si atom -12399.342565 kJ/mol
# Density = 2.007022 g / cm^3
# Si number density = 20.116009 Si / 1000 Ang^3
#
#
#
# Elastic Constant Matrix: (Units=GPa)
#
#
# Indices 1 2 3 4 5 6 
#
# 1 112.1401 49.1992 26.8642 0.0000 0.0000 0.0000
# 2 49.1992 112.1401 26.8642 0.0000 0.0000 0.0000
# 3 26.8642 26.8642 88.6460 0.0000 0.0000 0.0000
# 4 0.0000 0.0000 0.0000 28.5530 0.0000 0.0000
# 5 0.0000 0.0000 0.0000 0.0000 28.5530 0.0000
# 6 0.0000 0.0000 0.0000 0.0000 0.0000 28.8467
#
#
#
# Elastic Compliance Matrix: (Units=1/GPa)
#
#
# Indices 1 2 3 4 5 6 
#
# 1 0.011391 -0.004497 -0.002089 0.000000 0.000000 0.000000
# 2 -0.004497 0.011391 -0.002089 0.000000 0.000000 0.000000
# 3 -0.002089 -0.002089 0.012547 0.000000 0.000000 0.000000
# 4 0.000000 0.000000 0.000000 0.035023 0.000000 0.000000
# 5 0.000000 0.000000 0.000000 0.000000 0.035023 0.000000
# 6 0.000000 0.000000 0.000000 0.000000 0.000000 0.034666
#
#
# Mechanical properties :
#
#
# Convention : Reuss Voigt Hill
#
# Bulk Modulus (GPa) = 55.62340 57.64237 56.63289
# Shear Modulus (GPa) = 30.60283 31.19044 30.89664
#
# Velocity S-wave (km/s) = 3.90464 3.94195 3.92334
# Velocity P-wave (km/s) = 6.93106 7.03106 6.98124
#
# Compressibility (1/GPa) = 0.01797804
#
# Stress axis : x y z
#
# Youngs Moduli (GPa) = 87.78947 87.78947 79.69982
#
# Poissons Ratio (x) = 0.39479 0.16651
# Poissons Ratio (y) = 0.39479 0.16651
# Poissons Ratio (z) = 0.18341 0.18341
#
# Static dielectric constant tensor:
#      x y z
#    x 3.644880 0.000000 0.000000 
#    y 0.000000 3.644880 0.000000 
#    z 0.000000 0.000000 3.627660 
# 
# 
# High freq. dielectric constant tensor:
#      x y z
#    x 1.778170 0.000000 0.000000 
#    y 0.000000 1.778170 0.000000 
#    z 0.000000 0.000000 1.789910 
# 
# From -- ./inp_files/17360.got.cif
#   From: 2010.03.12/outbox.cif.g09.slc.cpg/sg91_9_cif.got.tgz:17360.got - 2010.04.08 20:27:58.
