data_PCOD8304405
_publ_section_title
;
Structure prediction by ZEFSAII (Michael W. Deem and Ramdas Pophale) SiO2 
 PCOD8304405
Probable space group: I 41/A
;
_chemical_formula_sum "Si O2"
_cell_formula_units_Z 76
_cell_length_a 13.847166
_cell_length_b 13.847166
_cell_length_c 19.150037
_cell_angle_alpha 90.000000
_cell_angle_beta 90.000000
_cell_angle_gamma 90.000000
_cell_volume 3671.904814
_symmetry_space_group_name_H-M "I 41/A"
_symmetry_group_IT_number 88
_space_group.IT_coordinate_system_code '2'
_symmetry_cell_setting 'tetragonal'
loop_
_space_group_symop_operation_xyz
x,y,z
3/4-y,1/4+x,1/4+z
-x,1/2-y,z
1/4+y,1/4-x,1/4+z
-x,-y,-z
1/4+y,3/4-x,3/4-z
x,1/2+y,-z
3/4-y,3/4+x,3/4-z
1/2+x,1/2+y,1/2+z
1/4-y,3/4+x,3/4+z
1/2-x,-y,1/2+z
3/4+y,3/4-x,3/4+z
1/2-x,1/2-y,1/2-z
3/4+y,1/4-x,1/4-z
1/2+x,y,1/2-z
1/4-y,1/4+x,1/4-z
loop_
_atom_site_type_symbol
_atom_site_label
_atom_site_fract_x
_atom_site_fract_y
_atom_site_fract_z
Si Si1 0.000000 0.750000 0.875000
Si Si2 0.261051 0.474170 0.888668
Si Si3 0.069169 0.568894 0.934196
Si Si4 0.173184 0.824604 0.657797
Si Si5 0.500000 0.750000 0.319593
Si Si6 0.186022 0.343472 0.763166
O O1 0.924275 0.819151 0.913701
O O2 0.170638 0.514438 0.931311
O O3 0.307627 0.561692 0.845628
O O4 0.228573 0.393337 0.833108
O O5 0.335852 0.433757 0.946162
O O6 0.992854 0.512584 0.882770
O O7 0.035882 0.581931 0.013648
O O8 0.074548 0.807680 0.617252
O O9 0.575629 0.809306 0.272624
O O10 0.250000 0.250000 0.750000
#
# Coordination Sequence:
#
# PCOD8304405 Si02
#       6
#     4  16  16  16   8  16
#     4  12  22  36  64 108 142 168 224 278 356 426
#     4  12  24  47  73 100 145 187 239 295 357 430
#     4  11  23  39  67 105 139 181 221 291 360 421
#     4  11  23  43  69  99 139 180 232 289 354 418
#     4  12  25  48  71 103 143 190 244 300 358 423
#     4  12  28  48  74 105 142 196 246 304 360 431
#
# _framework density 20.697703000000001
#
# number of rings (size 3 to 8) (size 9 to 14) (size 15 to 20)
#    0.000    0.421    8.421    0.632    0.000    1.684 
#    7.579    0.000    0.000    0.000    0.000    0.000 
#    0.000    0.000    0.000    0.000    0.000    0.000 
#
# Total GULP energy -470843.934546 kJ/mol
# GULP energy per Si atom -12390.629856 kJ/mol
# Density = 2.065059 g / cm^3
# Si number density = 20.697703 Si / 1000 Ang^3
#
#
#
# Elastic Constant Matrix: (Units=GPa)
#
#
# Indices 1 2 3 4 5 6 
#
# 1 139.9328 62.6593 51.4684 0.0000 0.0000 6.6502
# 2 62.6593 139.9328 51.4684 0.0000 0.0000 -6.6502
# 3 51.4684 51.4684 95.8333 0.0000 0.0000 0.0000
# 4 0.0000 0.0000 0.0000 25.1711 0.0000 0.0000
# 5 0.0000 0.0000 0.0000 0.0000 25.1711 0.0000
# 6 6.6502 -6.6502 0.0000 0.0000 0.0000 42.5403
#
#
#
# Elastic Compliance Matrix: (Units=1/GPa)
#
#
# Indices 1 2 3 4 5 6 
#
# 1 0.010044 -0.003255 -0.003646 0.000000 0.000000 -0.002079
# 2 -0.003255 0.010044 -0.003646 0.000000 0.000000 0.002079
# 3 -0.003646 -0.003646 0.014351 0.000000 0.000000 0.000000
# 4 0.000000 0.000000 0.000000 0.039728 0.000000 0.000000
# 5 0.000000 0.000000 0.000000 0.000000 0.039728 0.000000
# 6 -0.002079 0.002079 0.000000 0.000000 0.000000 0.024157
#
#
# Mechanical properties :
#
#
# Convention : Reuss Voigt Hill
#
# Bulk Modulus (GPa) = 74.93735 78.54346 76.74040
# Shear Modulus (GPa) = 30.56356 32.58335 31.57345
#
# Velocity S-wave (km/s) = 3.84691 3.97199 3.90995
# Velocity P-wave (km/s) = 7.48437 7.68543 7.58557
#
# Compressibility (1/GPa) = 0.01334448
#
# Stress axis : x y z
#
# Youngs Moduli (GPa) = 99.56509 99.56509 69.68230
#
# Poissons Ratio (x) = 0.32411 0.25405
# Poissons Ratio (y) = 0.32411 0.25405
# Poissons Ratio (z) = 0.36300 0.36300
#
# Static dielectric constant tensor:
#      x y z
#    x 3.989180 0.000000 0.000000 
#    y 0.000000 3.989180 0.000000 
#    z 0.000000 0.000000 3.610990 
# 
# 
# High freq. dielectric constant tensor:
#      x y z
#    x 1.825050 0.000000 0.000000 
#    y 0.000000 1.825050 0.000000 
#    z 0.000000 0.000000 1.798290 
# 
# From -- ./inp_files/4561.got.cif
#   From: 2010.03.12/outbox.cif.g09.slc.cpg/sg88_3_cif.got.tgz:4561.got - 2010.04.08 20:20:55.
