data_PCOD8304229
_publ_section_title
;
Structure prediction by ZEFSAII (Michael W. Deem and Ramdas Pophale) SiO2 
 PCOD8304229
Probable space group: I 41/A
;
_chemical_formula_sum "Si O2"
_cell_formula_units_Z 80
_cell_length_a 29.126780
_cell_length_b 29.126780
_cell_length_c 5.097470
_cell_angle_alpha 90.000000
_cell_angle_beta 90.000000
_cell_angle_gamma 90.000000
_cell_volume 4324.537123
_symmetry_space_group_name_H-M "I 41/A"
_symmetry_group_IT_number 88
_space_group.IT_coordinate_system_code '2'
_symmetry_cell_setting 'tetragonal'
loop_
_space_group_symop_operation_xyz
x,y,z
3/4-y,1/4+x,1/4+z
-x,1/2-y,z
1/4+y,1/4-x,1/4+z
-x,-y,-z
1/4+y,3/4-x,3/4-z
x,1/2+y,-z
3/4-y,3/4+x,3/4-z
1/2+x,1/2+y,1/2+z
1/4-y,3/4+x,3/4+z
1/2-x,-y,1/2+z
3/4+y,3/4-x,3/4+z
1/2-x,1/2-y,1/2-z
3/4+y,1/4-x,1/4-z
1/2+x,y,1/2-z
1/4-y,1/4+x,1/4-z
loop_
_atom_site_type_symbol
_atom_site_label
_atom_site_fract_x
_atom_site_fract_y
_atom_site_fract_z
Si Si1 0.023856 0.055300 0.746078
Si Si2 0.251472 0.068856 0.973714
Si Si3 0.032158 0.448035 0.241395
Si Si4 0.331232 0.126725 0.904357
Si Si5 0.631995 0.419771 0.414833
O O1 0.068354 0.084266 0.661177
O O2 0.984736 0.065348 0.530985
O O3 0.038207 0.002469 0.770222
O O4 0.004578 0.070506 0.028559
O O5 0.291027 0.033369 0.046785
O O6 0.219931 0.093210 0.198031
O O7 0.279505 0.109447 0.824558
O O8 0.080113 0.424157 0.180723
O O9 0.366917 0.106767 0.691596
O O10 0.341341 0.109453 0.197014
#
# Coordination Sequence:
#
# PCOD8304229 Si02
#       5
#    16  16  16  16  16
#     4  10  20  36  55  76 106 143 182 220 276 330
#     4  10  20  34  48  72 104 154 188 222 256 298
#     4  10  20  36  55  76 106 143 182 220 276 330
#     4  11  22  35  54  79 109 140 187 230 262 312
#     4  11  22  35  54  79 109 140 187 230 262 312
#
# _framework density 18.499089999999999
#
# number of rings (size 3 to 8) (size 9 to 14) (size 15 to 20)
#    0.000    1.600    2.000    3.600    0.000    4.800 
#    0.000    0.000    0.000    0.000    0.000    0.000 
#    0.000   56.000    0.000    0.000    0.000    0.000 
#
# Total GULP energy -495744.702917 kJ/mol
# GULP energy per Si atom -12393.617573 kJ/mol
# Density = 1.845699 g / cm^3
# Si number density = 18.499090 Si / 1000 Ang^3
#
#
#
# Elastic Constant Matrix: (Units=GPa)
#
#
# Indices 1 2 3 4 5 6 
#
# 1 76.2514 22.2651 11.4068 0.0000 0.0000 0.5217
# 2 22.2651 76.2514 11.4068 0.0000 0.0000 -0.5217
# 3 11.4068 11.4068 78.2171 0.0000 0.0000 0.0000
# 4 0.0000 0.0000 0.0000 28.3257 0.0000 0.0000
# 5 0.0000 0.0000 0.0000 0.0000 28.3257 0.0000
# 6 0.5217 -0.5217 0.0000 0.0000 0.0000 11.9925
#
#
#
# Elastic Compliance Matrix: (Units=1/GPa)
#
#
# Indices 1 2 3 4 5 6 
#
# 1 0.014522 -0.004017 -0.001532 0.000000 0.000000 -0.000807
# 2 -0.004017 0.014522 -0.001532 0.000000 0.000000 0.000807
# 3 -0.001532 -0.001532 0.013232 0.000000 0.000000 0.000000
# 4 0.000000 0.000000 0.000000 0.035304 0.000000 0.000000
# 5 0.000000 0.000000 0.000000 0.000000 0.035304 0.000000
# 6 -0.000807 0.000807 0.000000 0.000000 0.000000 0.083455
#
#
# Mechanical properties :
#
#
# Convention : Reuss Voigt Hill
#
# Bulk Modulus (GPa) = 35.56907 35.65302 35.61105
# Shear Modulus (GPa) = 22.74055 26.10489 24.42272
#
# Velocity S-wave (km/s) = 3.50991 3.76060 3.63741
# Velocity P-wave (km/s) = 5.97454 6.17825 6.07725
#
# Compressibility (1/GPa) = 0.02811431
#
# Stress axis : x y z
#
# Youngs Moduli (GPa) = 68.86070 68.86070 75.57563
#
# Poissons Ratio (x) = 0.27659 0.11579
# Poissons Ratio (y) = 0.27659 0.11579
# Poissons Ratio (z) = 0.10550 0.10550
#
# Static dielectric constant tensor:
#      x y z
#    x 3.393080 0.000000 0.000000 
#    y 0.000000 3.393080 0.000000 
#    z 0.000000 0.000000 3.379280 
# 
# 
# High freq. dielectric constant tensor:
#      x y z
#    x 1.698700 0.000000 0.000000 
#    y 0.000000 1.698700 0.000000 
#    z 0.000000 0.000000 1.719120 
# 
# From -- ./inp_files/665.got.cif
#   From: 2010.03.12/outbox.cif.g09.slc.cpg/sg88_1_cif.got.tgz:665.got - 2010.04.08 20:20:55.
