data_PCOD8304674
_publ_section_title
;
Structure prediction by ZEFSAII (Michael W. Deem and Ramdas Pophale) SiO2 
 PCOD8304674
Probable space group: P 4 21 2
;
_chemical_formula_sum "Si O2"
_cell_formula_units_Z 36
_cell_length_a 8.173776
_cell_length_b 8.173776
_cell_length_c 24.415271
_cell_angle_alpha 90.000000
_cell_angle_beta 90.000000
_cell_angle_gamma 90.000000
_cell_volume 1631.199249
_symmetry_space_group_name_H-M "P 4 21 2"
_symmetry_group_IT_number 90
_symmetry_cell_setting 'tetragonal'
loop_
_space_group_symop_operation_xyz
x,y,z
1/2-y,1/2+x,z
-x,-y,z
1/2+y,1/2-x,z
1/2+x,1/2-y,-z
1/2-x,1/2+y,-z
y,x,-z
-y,-x,-z
loop_
_atom_site_type_symbol
_atom_site_label
_atom_site_fract_x
_atom_site_fract_y
_atom_site_fract_z
Si Si1 0.742967 0.422417 0.167548
Si Si2 0.000000 0.000000 0.253654
Si Si3 0.241112 0.071021 0.954090
Si Si4 0.395334 0.251596 0.553909
Si Si5 0.412921 0.257178 0.341144
O O1 0.799429 0.608648 0.175273
O O2 0.610444 0.385180 0.214382
O O3 0.665941 0.402632 0.106731
O O4 0.881556 0.114002 0.290644
O O5 0.388540 0.197111 0.961942
O O6 0.104694 0.104694 0.000000
O O7 0.586755 0.210947 0.555777
O O8 0.353900 0.353900 0.500000
O O9 0.354558 0.371925 0.603804
O O10 0.602223 0.205642 0.338597
#
# Coordination Sequence:
#
# PCOD8304674 Si02
#       5
#     8   4   8   8   8
#     4   9  20  38  58  83 116 152 193 242 295 353
#     4  12  22  38  62  86 112 156 206 248 294 350
#     4   9  19  35  55  82 114 146 185 234 288 349
#     4  11  24  42  66  96 127 161 202 248 302 364
#     4  11  24  41  61  89 124 159 199 250 304 358
#
# _framework density 22.069651
#
# number of rings (size 3 to 8) (size 9 to 14) (size 15 to 20)
#    0.000    1.778    0.000    5.333    0.000    8.000 
#    0.000    2.222    0.000    2.667    0.000    0.000 
#    0.000    0.000    0.000    0.000    0.000    0.000 
#
# Total GULP energy -446408.627446 kJ/mol
# GULP energy per Si atom -12400.239651 kJ/mol
# Density = 2.201942 g / cm^3
# Si number density = 22.069651 Si / 1000 Ang^3
#
#
#
# Elastic Constant Matrix: (Units=GPa)
#
#
# Indices 1 2 3 4 5 6 
#
# 1 72.9870 33.1464 60.1745 0.0000 0.0000 0.0000
# 2 33.1464 72.9870 60.1745 0.0000 0.0000 0.0000
# 3 60.1745 60.1745 205.3559 0.0000 0.0000 0.0000
# 4 0.0000 0.0000 0.0000 38.4161 0.0000 0.0000
# 5 0.0000 0.0000 0.0000 0.0000 38.4161 0.0000
# 6 0.0000 0.0000 0.0000 0.0000 0.0000 38.5812
#
#
#
# Elastic Compliance Matrix: (Units=1/GPa)
#
#
# Indices 1 2 3 4 5 6 
#
# 1 0.019605 -0.005495 -0.004135 0.000000 0.000000 0.000000
# 2 -0.005495 0.019605 -0.004135 0.000000 0.000000 0.000000
# 3 -0.004135 -0.004135 0.007293 0.000000 0.000000 0.000000
# 4 0.000000 0.000000 0.000000 0.026031 0.000000 0.000000
# 5 0.000000 0.000000 0.000000 0.000000 0.026031 0.000000
# 6 0.000000 0.000000 0.000000 0.000000 0.000000 0.025919
#
#
# Mechanical properties :
#
#
# Convention : Reuss Voigt Hill
#
# Bulk Modulus (GPa) = 52.70082 73.14674 62.92378
# Shear Modulus (GPa) = 31.57804 36.27165 33.92484
#
# Velocity S-wave (km/s) = 3.78674 4.05842 3.92493
# Velocity P-wave (km/s) = 6.56128 7.42809 7.00810
#
# Compressibility (1/GPa) = 0.01897504
#
# Stress axis : x y z
#
# Youngs Moduli (GPa) = 51.00644 51.00644 137.12168
#
# Poissons Ratio (x) = 0.28026 0.56697
# Poissons Ratio (y) = 0.28026 0.56697
# Poissons Ratio (z) = 0.21090 0.21090
#
# Static dielectric constant tensor:
#      x y z
#    x 3.866090 0.000000 0.000000 
#    y 0.000000 3.866090 0.000000 
#    z 0.000000 0.000000 4.150030 
# 
# 
# High freq. dielectric constant tensor:
#      x y z
#    x 1.864240 0.000000 0.000000 
#    y 0.000000 1.864240 0.000000 
#    z 0.000000 0.000000 1.883830 
# 
# From -- ./inp_files/2730.got.cif
#   From: 2010.03.12/outbox.cif.g09.slc.cpg/sg90_2_cif.got.tgz:2730.got - 2010.04.08 20:26:03.
