data_PCOD8304353
_publ_section_title
;
Structure prediction by ZEFSAII (Michael W. Deem and Ramdas Pophale) SiO2 
 PCOD8304353
Probable space group: I 41/A
;
_chemical_formula_sum "Si O2"
_cell_formula_units_Z 108
_cell_length_a 14.630232
_cell_length_b 14.630232
_cell_length_c 23.100625
_cell_angle_alpha 90.000000
_cell_angle_beta 90.000000
_cell_angle_gamma 90.000000
_cell_volume 4944.542979
_symmetry_space_group_name_H-M "I 41/A"
_symmetry_group_IT_number 88
_space_group.IT_coordinate_system_code '2'
_symmetry_cell_setting 'tetragonal'
loop_
_space_group_symop_operation_xyz
x,y,z
3/4-y,1/4+x,1/4+z
-x,1/2-y,z
1/4+y,1/4-x,1/4+z
-x,-y,-z
1/4+y,3/4-x,3/4-z
x,1/2+y,-z
3/4-y,3/4+x,3/4-z
1/2+x,1/2+y,1/2+z
1/4-y,3/4+x,3/4+z
1/2-x,-y,1/2+z
3/4+y,3/4-x,3/4+z
1/2-x,1/2-y,1/2-z
3/4+y,1/4-x,1/4-z
1/2+x,y,1/2-z
1/4-y,1/4+x,1/4-z
loop_
_atom_site_type_symbol
_atom_site_label
_atom_site_fract_x
_atom_site_fract_y
_atom_site_fract_z
Si Si1 0.904162 0.545235 0.758075
Si Si2 0.932570 0.412780 0.326094
Si Si3 0.222902 0.645680 0.756534
Si Si4 0.430108 0.620977 0.621269
Si Si5 0.500000 0.250000 0.097365
Si Si6 0.006064 0.052133 0.584943
Si Si7 0.500000 0.750000 0.125000
Si Si8 0.151006 0.150651 0.777460
O O1 0.819352 0.599913 0.733779
O O2 0.919401 0.550262 0.826783
O O3 0.876726 0.442137 0.746615
O O4 0.992955 0.580857 0.724757
O O5 0.832477 0.400724 0.296879
O O6 0.943782 0.320304 0.363024
O O7 0.941791 0.504252 0.365673
O O8 0.250000 0.750000 0.750000
O O9 0.163738 0.629303 0.814251
O O10 0.384534 0.713901 0.644033
O O11 0.564715 0.306838 0.054941
O O12 0.037493 0.157071 0.595478
O O13 0.954635 0.056679 0.525285
O O14 0.093901 0.983053 0.575882
#
# Coordination Sequence:
#
# PCOD8304353 Si02
#       8
#    16  16  16  16   8  16   4  16
#     4  12  26  43  72 104 144 182 238 296 355 423
#     4  11  25  45  67 108 141 190 239 300 358 433
#     4  12  26  43  69 105 142 190 237 289 362 427
#     4  11  24  45  68  99 144 188 231 288 350 434
#     4  10  23  44  76  92 146 186 239 298 360 424
#     4  10  24  44  69  99 139 182 241 292 361 432
#     4  12  22  40  76  92 136 188 222 292 364 426
#     4  10  24  46  67 103 134 186 236 297 358 431
#
# _framework density 21.842261000000001
#
# number of rings (size 3 to 8) (size 9 to 14) (size 15 to 20)
#    0.000    1.037    2.963    2.222    8.296    1.185 
#    5.333    0.000    0.000    0.000    0.000    0.000 
#    0.000    0.000    0.000    0.000    0.000    0.000 
#
# Total GULP energy -669058.230025 kJ/mol
# GULP energy per Si atom -12389.967223 kJ/mol
# Density = 2.179255 g / cm^3
# Si number density = 21.842261 Si / 1000 Ang^3
#
#
#
# Elastic Constant Matrix: (Units=GPa)
#
#
# Indices 1 2 3 4 5 6 
#
# 1 93.5792 46.6926 19.7156 0.0000 0.0000 9.3637
# 2 46.6926 93.5792 19.7156 0.0000 0.0000 -9.3637
# 3 19.7156 19.7156 95.2332 0.0000 0.0000 0.0000
# 4 0.0000 0.0000 0.0000 40.1569 0.0000 0.0000
# 5 0.0000 0.0000 0.0000 0.0000 40.1569 0.0000
# 6 9.3637 -9.3637 0.0000 0.0000 0.0000 20.3608
#
#
#
# Elastic Compliance Matrix: (Units=1/GPa)
#
#
# Indices 1 2 3 4 5 6 
#
# 1 0.016848 -0.009279 -0.001567 0.000000 0.000000 -0.012016
# 2 -0.009279 0.016848 -0.001567 0.000000 0.000000 0.012016
# 3 -0.001567 -0.001567 0.011149 0.000000 0.000000 0.000000
# 4 0.000000 0.000000 0.000000 0.024902 0.000000 0.000000
# 5 0.000000 0.000000 0.000000 0.000000 0.024902 0.000000
# 6 -0.012016 0.012016 0.000000 0.000000 0.000000 0.060166
#
#
# Mechanical properties :
#
#
# Convention : Reuss Voigt Hill
#
# Bulk Modulus (GPa) = 49.94970 50.51546 50.23258
# Shear Modulus (GPa) = 26.83617 33.21945 30.02781
#
# Velocity S-wave (km/s) = 3.50899 3.90408 3.71179
# Velocity P-wave (km/s) = 6.27179 6.59545 6.43566
#
# Compressibility (1/GPa) = 0.02002014
#
# Stress axis : x y z
#
# Youngs Moduli (GPa) = 59.35291 59.35291 89.69102
#
# Poissons Ratio (x) = 0.55073 0.14055
# Poissons Ratio (y) = 0.55073 0.14055
# Poissons Ratio (z) = 0.09301 0.09301
#
# Static dielectric constant tensor:
#      x y z
#    x 4.002550 0.000000 0.000000 
#    y 0.000000 4.002550 0.000000 
#    z 0.000000 0.000000 3.997250 
# 
# 
# High freq. dielectric constant tensor:
#      x y z
#    x 1.860380 0.000000 0.000000 
#    y 0.000000 1.860380 0.000000 
#    z 0.000000 0.000000 1.869570 
# 
# From -- ./inp_files/5378.got.cif
#   From: 2010.03.12/outbox.cif.g09.slc.cpg/sg88_3_cif.got.tgz:5378.got - 2010.04.08 20:20:55.
