data_PCOD8304010
_publ_section_title
;
Structure prediction by ZEFSAII (Michael W. Deem and Ramdas Pophale) SiO2 
 PCOD8304010
Probable space group: I 4/M
;
_chemical_formula_sum "Si O2"
_cell_formula_units_Z 112
_cell_length_a 14.292147
_cell_length_b 14.292147
_cell_length_c 24.398810
_cell_angle_alpha 90.000000
_cell_angle_beta 90.000000
_cell_angle_gamma 90.000000
_cell_volume 4983.834291
_symmetry_space_group_name_H-M "I 4/M"
_symmetry_group_IT_number 87
_symmetry_cell_setting 'tetragonal'
loop_
_space_group_symop_operation_xyz
x,y,z
-y,x,z
-x,-y,z
y,-x,z
-x,-y,-z
y,-x,-z
x,y,-z
-y,x,-z
1/2+x,1/2+y,1/2+z
1/2-y,1/2+x,1/2+z
1/2-x,1/2-y,1/2+z
1/2+y,1/2-x,1/2+z
1/2-x,1/2-y,1/2-z
1/2+y,1/2-x,1/2-z
1/2+x,1/2+y,1/2-z
1/2-y,1/2+x,1/2-z
loop_
_atom_site_type_symbol
_atom_site_label
_atom_site_fract_x
_atom_site_fract_y
_atom_site_fract_z
Si Si1 0.997494 0.605183 0.563844
Si Si2 0.608189 0.391623 0.157155
Si Si3 0.360400 0.785960 0.439380
Si Si4 0.151534 0.754336 0.437163
Si Si5 0.598329 0.098986 0.737568
Si Si6 0.238137 0.063541 0.832969
Si Si7 0.120996 0.201293 0.227266
O O1 0.017146 0.595363 0.500000
O O2 0.896491 0.653160 0.575337
O O3 0.000000 0.500000 0.589822
O O4 0.083890 0.671039 0.585582
O O5 0.631645 0.499870 0.155164
O O6 0.649097 0.342665 0.103574
O O7 0.651521 0.359639 0.214920
O O8 0.404038 0.777337 0.500000
O O9 0.262118 0.729468 0.436343
O O10 0.436962 0.737023 0.399065
O O11 0.123176 0.782720 0.500000
O O12 0.509950 0.111900 0.779203
O O13 0.568617 0.152481 0.682735
O O14 0.688749 0.141680 0.766990
O O15 0.194915 0.162331 0.815340
O O16 0.184054 0.980546 0.801355
#
# Coordination Sequence:
#
# PCOD8304010 Si02
#       7
#    16  16  16  16  16  16  16
#     4   9  19  39  65  95 135 181 229 281 342 419
#     4  11  22  37  61  91 127 175 228 279 327 399
#     4  10  22  42  63  92 133 172 222 286 344 415
#     4  10  21  38  64  98 139 183 227 276 340 413
#     4   9  20  39  60  90 127 161 204 262 327 395
#     4  11  23  41  63  92 124 167 219 276 338 402
#     4  11  22  41  65  89 125 169 223 277 335 397
#
# _framework density 22.472659
#
# number of rings (size 3 to 8) (size 9 to 14) (size 15 to 20)
#    0.000    1.857    1.429    2.143    0.000    3.143 
#    7.714    2.857    0.000    0.000    0.000    1.000 
#    0.000    0.000    0.000    0.000    0.000    0.000 
#
# Total GULP energy -693804.348390 kJ/mol
# GULP energy per Si atom -12389.363364 kJ/mol
# Density = 2.242151 g / cm^3
# Si number density = 22.472659 Si / 1000 Ang^3
#
#
#
# Elastic Constant Matrix: (Units=GPa)
#
#
# Indices 1 2 3 4 5 6 
#
# 1 100.6103 29.6047 46.1163 0.0000 0.0000 8.2018
# 2 29.6047 100.6103 46.1163 0.0000 0.0000 -8.2018
# 3 46.1163 46.1163 135.2379 0.0000 0.0000 0.0000
# 4 0.0000 0.0000 0.0000 21.0504 0.0000 0.0000
# 5 0.0000 0.0000 0.0000 0.0000 21.0504 0.0000
# 6 8.2018 -8.2018 0.0000 0.0000 0.0000 28.2011
#
#
#
# Elastic Compliance Matrix: (Units=1/GPa)
#
#
# Indices 1 2 3 4 5 6 
#
# 1 0.012611 -0.002486 -0.003453 0.000000 0.000000 -0.004391
# 2 -0.002486 0.012611 -0.003453 0.000000 0.000000 0.004391
# 3 -0.003453 -0.003453 0.009749 0.000000 0.000000 0.000000
# 4 0.000000 0.000000 0.000000 0.047505 0.000000 0.000000
# 5 0.000000 0.000000 0.000000 0.000000 0.047505 0.000000
# 6 -0.004391 0.004391 0.000000 0.000000 0.000000 0.038014
#
#
# Mechanical properties :
#
#
# Convention : Reuss Voigt Hill
#
# Bulk Modulus (GPa) = 61.77148 64.45923 63.11536
# Shear Modulus (GPa) = 26.01793 28.36848 27.19321
#
# Velocity S-wave (km/s) = 3.40628 3.55682 3.48236
# Velocity P-wave (km/s) = 6.55876 6.75379 6.65699
#
# Compressibility (1/GPa) = 0.01618870
#
# Stress axis : x y z
#
# Youngs Moduli (GPa) = 79.29286 79.29286 102.57320
#
# Poissons Ratio (x) = 0.19714 0.35416
# Poissons Ratio (y) = 0.19714 0.35416
# Poissons Ratio (z) = 0.27378 0.27378
#
# Static dielectric constant tensor:
#      x y z
#    x 4.109470 0.000000 0.000000 
#    y 0.000000 4.109470 0.000000 
#    z 0.000000 0.000000 4.037010 
# 
# 
# High freq. dielectric constant tensor:
#      x y z
#    x 1.880140 0.000000 0.000000 
#    y 0.000000 1.880140 0.000000 
#    z 0.000000 0.000000 1.876970 
# 
# From -- ./inp_files/5930.got.cif
#   From: 2010.03.12/outbox.cif.g09.slc.cpg/sg87_3_cif.got.tgz:5930.got - 2010.04.08 20:16:13.
