data_PCOD8304335
_publ_section_title
;
Structure prediction by ZEFSAII (Michael W. Deem and Ramdas Pophale) SiO2 
 PCOD8304335
Probable space group: I 41/A
;
_chemical_formula_sum "Si O2"
_cell_formula_units_Z 52
_cell_length_a 15.281806
_cell_length_b 15.281806
_cell_length_c 10.448335
_cell_angle_alpha 90.000000
_cell_angle_beta 90.000000
_cell_angle_gamma 90.000000
_cell_volume 2440.037230
_symmetry_space_group_name_H-M "I 41/A"
_symmetry_group_IT_number 88
_space_group.IT_coordinate_system_code '2'
_symmetry_cell_setting 'tetragonal'
loop_
_space_group_symop_operation_xyz
x,y,z
3/4-y,1/4+x,1/4+z
-x,1/2-y,z
1/4+y,1/4-x,1/4+z
-x,-y,-z
1/4+y,3/4-x,3/4-z
x,1/2+y,-z
3/4-y,3/4+x,3/4-z
1/2+x,1/2+y,1/2+z
1/4-y,3/4+x,3/4+z
1/2-x,-y,1/2+z
3/4+y,3/4-x,3/4+z
1/2-x,1/2-y,1/2-z
3/4+y,1/4-x,1/4-z
1/2+x,y,1/2-z
1/4-y,1/4+x,1/4-z
loop_
_atom_site_type_symbol
_atom_site_label
_atom_site_fract_x
_atom_site_fract_y
_atom_site_fract_z
Si Si1 0.000000 0.250000 0.125000
Si Si2 0.535687 0.622871 0.167985
Si Si3 0.231574 0.575055 0.100759
Si Si4 0.530760 0.592586 0.449379
O O1 0.914515 0.262034 0.210384
O O2 0.454769 0.645849 0.074801
O O3 0.586531 0.536309 0.123133
O O4 0.493615 0.607686 0.307342
O O5 0.231351 0.522291 0.234201
O O6 0.135229 0.601168 0.055584
O O7 0.500000 0.500000 0.500000
#
# Coordination Sequence:
#
# PCOD8304335 Si02
#       4
#     4  16  16  16
#     4  12  20  40  70  84 128 192 196 282 356 384
#     4  10  22  43  66  99 134 175 227 280 339 418
#     4  10  23  42  62  98 131 175 227 281 343 411
#     4  11  25  43  63  98 137 169 234 280 341 413
#
# _framework density 21.311150000000001
#
# number of rings (size 3 to 8) (size 9 to 14) (size 15 to 20)
#    0.000    1.538    0.000    5.538    4.308    4.923 
#   11.077    0.000    0.000    0.000    0.000    0.000 
#    0.000    0.000    0.000    0.000    0.000    0.000 
#
# Total GULP energy -322435.305327 kJ/mol
# GULP energy per Si atom -12401.357897 kJ/mol
# Density = 2.126265 g / cm^3
# Si number density = 21.311150 Si / 1000 Ang^3
#
#
#
# Elastic Constant Matrix: (Units=GPa)
#
#
# Indices 1 2 3 4 5 6 
#
# 1 111.3828 22.7848 15.5082 0.0000 0.0000 -0.5525
# 2 22.7848 111.3828 15.5082 0.0000 0.0000 0.5525
# 3 15.5082 15.5082 100.1740 0.0000 0.0000 0.0000
# 4 0.0000 0.0000 0.0000 34.9853 0.0000 0.0000
# 5 0.0000 0.0000 0.0000 0.0000 34.9853 0.0000
# 6 -0.5525 0.5525 0.0000 0.0000 0.0000 40.4630
#
#
#
# Elastic Compliance Matrix: (Units=1/GPa)
#
#
# Indices 1 2 3 4 5 6 
#
# 1 0.009509 -0.001779 -0.001197 0.000000 0.000000 0.000154
# 2 -0.001779 0.009509 -0.001197 0.000000 0.000000 -0.000154
# 3 -0.001197 -0.001197 0.010353 0.000000 0.000000 0.000000
# 4 0.000000 0.000000 0.000000 0.028583 0.000000 0.000000
# 5 0.000000 0.000000 0.000000 0.000000 0.028583 0.000000
# 6 0.000154 -0.000154 0.000000 0.000000 0.000000 0.024718
#
#
# Mechanical properties :
#
#
# Convention : Reuss Voigt Hill
#
# Bulk Modulus (GPa) = 47.55932 47.83800 47.69866
# Shear Modulus (GPa) = 39.49091 40.02930 39.76011
#
# Velocity S-wave (km/s) = 4.30939 4.33867 4.32406
# Velocity P-wave (km/s) = 6.86486 6.89890 6.88190
#
# Compressibility (1/GPa) = 0.02102637
#
# Stress axis : x y z
#
# Youngs Moduli (GPa) = 105.15869 105.15869 96.58892
#
# Poissons Ratio (x) = 0.18712 0.11559
# Poissons Ratio (y) = 0.18712 0.11559
# Poissons Ratio (z) = 0.12584 0.12584
#
# Static dielectric constant tensor:
#      x y z
#    x 3.768500 0.000000 0.000000 
#    y 0.000000 3.768500 0.000000 
#    z 0.000000 0.000000 4.084830 
# 
# 
# High freq. dielectric constant tensor:
#      x y z
#    x 1.837750 0.000000 0.000000 
#    y 0.000000 1.837750 0.000000 
#    z 0.000000 0.000000 1.847410 
# 
# From -- ./inp_files/1217.got.cif
#   From: 2010.03.12/outbox.cif.g09.slc.cpg/sg88_1_cif.got.tgz:1217.got - 2010.04.08 20:20:55.
