data_PCOD8304322
_publ_section_title
;
Structure prediction by ZEFSAII (Michael W. Deem and Ramdas Pophale) SiO2 
 PCOD8304322
Probable space group: I 41/A
;
_chemical_formula_sum "Si O2"
_cell_formula_units_Z 96
_cell_length_a 17.386546
_cell_length_b 17.386546
_cell_length_c 16.543991
_cell_angle_alpha 90.000000
_cell_angle_beta 90.000000
_cell_angle_gamma 90.000000
_cell_volume 5001.115826
_symmetry_space_group_name_H-M "I 41/A"
_symmetry_group_IT_number 88
_space_group.IT_coordinate_system_code '2'
_symmetry_cell_setting 'tetragonal'
loop_
_space_group_symop_operation_xyz
x,y,z
3/4-y,1/4+x,1/4+z
-x,1/2-y,z
1/4+y,1/4-x,1/4+z
-x,-y,-z
1/4+y,3/4-x,3/4-z
x,1/2+y,-z
3/4-y,3/4+x,3/4-z
1/2+x,1/2+y,1/2+z
1/4-y,3/4+x,3/4+z
1/2-x,-y,1/2+z
3/4+y,3/4-x,3/4+z
1/2-x,1/2-y,1/2-z
3/4+y,1/4-x,1/4-z
1/2+x,y,1/2-z
1/4-y,1/4+x,1/4-z
loop_
_atom_site_type_symbol
_atom_site_label
_atom_site_fract_x
_atom_site_fract_y
_atom_site_fract_z
Si Si1 0.682030 0.104454 0.557529
Si Si2 0.269227 0.044025 0.348868
Si Si3 0.820863 0.721133 0.451823
Si Si4 0.934310 0.303860 0.837576
Si Si5 0.282398 0.888699 0.005875
Si Si6 0.457299 0.421660 0.978659
O O1 0.665128 0.073335 0.467671
O O2 0.760853 0.151644 0.551860
O O3 0.612298 0.156907 0.589402
O O4 0.690644 0.033109 0.618054
O O5 0.253758 0.107427 0.416697
O O6 0.186262 0.022512 0.314269
O O7 0.883075 0.711417 0.522341
O O8 0.778018 0.801151 0.466553
O O9 0.858017 0.724748 0.362425
O O10 0.888404 0.239521 0.790644
O O11 0.000000 0.250000 0.877220
O O12 0.366194 0.928306 0.008052
O O13 0.500000 0.500000 0.000000
#
# Coordination Sequence:
#
# PCOD8304322 Si02
#       6
#    16  16  16  16  16  16
#     4  11  22  42  65  89 126 166 210 266 316 380
#     4  10  22  40  65  91 117 169 219 259 311 378
#     4  12  23  37  59  92 132 163 203 256 326 389
#     4  12  25  39  60  93 130 171 208 259 328 393
#     4  11  22  37  59  90 123 161 215 260 311 388
#     4  12  22  35  59  91 131 167 203 257 332 388
#
# _framework density 19.195716000000001
#
# number of rings (size 3 to 8) (size 9 to 14) (size 15 to 20)
#    0.000    0.667    6.667    2.000    2.333    0.000 
#    0.000    0.833    3.667    0.000    0.000    0.000 
#    0.000    0.000    0.000    0.000    0.000    0.000 
#
# Total GULP energy -595071.630947 kJ/mol
# GULP energy per Si atom -12397.325645 kJ/mol
# Density = 1.915203 g / cm^3
# Si number density = 19.195716 Si / 1000 Ang^3
#
#
#
# Elastic Constant Matrix: (Units=GPa)
#
#
# Indices 1 2 3 4 5 6 
#
# 1 78.1981 14.5020 37.8979 0.0000 0.0000 -0.7554
# 2 14.5020 78.1981 37.8979 0.0000 0.0000 0.7554
# 3 37.8979 37.8979 119.9800 0.0000 0.0000 0.0000
# 4 0.0000 0.0000 0.0000 24.5860 0.0000 0.0000
# 5 0.0000 0.0000 0.0000 0.0000 24.5860 0.0000
# 6 -0.7554 0.7554 0.0000 0.0000 0.0000 25.1277
#
#
#
# Elastic Compliance Matrix: (Units=1/GPa)
#
#
# Indices 1 2 3 4 5 6 
#
# 1 0.015127 -0.000584 -0.004594 0.000000 0.000000 0.000472
# 2 -0.000584 0.015127 -0.004594 0.000000 0.000000 -0.000472
# 3 -0.004594 -0.004594 0.011237 0.000000 0.000000 0.000000
# 4 0.000000 0.000000 0.000000 0.040674 0.000000 0.000000
# 5 0.000000 0.000000 0.000000 0.000000 0.040674 0.000000
# 6 0.000472 -0.000472 0.000000 0.000000 0.000000 0.039825
#
#
# Mechanical properties :
#
#
# Convention : Reuss Voigt Hill
#
# Bulk Modulus (GPa) = 45.56099 50.77466 48.16783
# Shear Modulus (GPa) = 26.38212 27.26517 26.82364
#
# Velocity S-wave (km/s) = 3.71128 3.77288 3.74221
# Velocity P-wave (km/s) = 6.49240 6.74448 6.61964
#
# Compressibility (1/GPa) = 0.02194860
#
# Stress axis : x y z
#
# Youngs Moduli (GPa) = 66.10615 66.10616 88.99300
#
# Poissons Ratio (x) = 0.03858 0.40882
# Poissons Ratio (y) = 0.03858 0.40882
# Poissons Ratio (z) = 0.30368 0.30368
#
# Static dielectric constant tensor:
#      x y z
#    x 3.313860 0.000000 0.000000 
#    y 0.000000 3.313860 0.000000 
#    z 0.000000 0.000000 3.651340 
# 
# 
# High freq. dielectric constant tensor:
#      x y z
#    x 1.742560 0.000000 0.000000 
#    y 0.000000 1.742560 0.000000 
#    z 0.000000 0.000000 1.749040 
# 
# From -- ./inp_files/3937.got.cif
#   From: 2010.03.12/outbox.cif.g09.slc.cpg/sg88_2_cif.got.tgz:3937.got - 2010.04.08 20:20:55.
