data_PCOD8304477
_publ_section_title
;
Structure prediction by ZEFSAII (Michael W. Deem and Ramdas Pophale) SiO2 
 PCOD8304477
Probable space group: P 4 2 2
;
_chemical_formula_sum "Si O2"
_cell_formula_units_Z 40
_cell_length_a 15.037313
_cell_length_b 15.037313
_cell_length_c 8.608544
_cell_angle_alpha 90.000000
_cell_angle_beta 90.000000
_cell_angle_gamma 90.000000
_cell_volume 1946.570703
_symmetry_space_group_name_H-M "P 4 2 2"
_symmetry_group_IT_number 89
_symmetry_cell_setting 'tetragonal'
loop_
_space_group_symop_operation_xyz
x,y,z
-y,x,z
-x,-y,z
y,-x,z
x,-y,-z
-x,y,-z
y,x,-z
-y,-x,-z
loop_
_atom_site_type_symbol
_atom_site_label
_atom_site_fract_x
_atom_site_fract_y
_atom_site_fract_z
Si Si1 0.331436 0.308140 0.318045
Si Si2 0.763934 0.019992 0.181270
Si Si3 0.260227 0.484124 0.169517
Si Si4 0.571992 0.942911 0.839845
Si Si5 0.163052 0.811129 0.318851
O O1 0.322215 0.322215 0.500000
O O2 0.314100 0.402276 0.239228
O O3 0.429644 0.272634 0.277757
O O4 0.259679 0.235915 0.257744
O O5 0.668859 0.059891 0.234539
O O6 0.833327 0.096328 0.225647
O O7 0.773670 0.933747 0.285863
O O8 0.774191 0.000000 0.000000
O O9 0.156773 0.462415 0.145244
O O10 0.301995 0.500000 0.000000
O O11 0.500000 0.000000 0.738374
O O12 0.581159 0.000000 0.000000
O O13 0.172840 0.827161 0.500000
#
# Coordination Sequence:
#
# PCOD8304477 Si02
#       5
#     8   8   8   8   8
#     4  11  26  45  67  97 144 186 225 276 346 417
#     4  11  23  39  67  97 132 175 230 282 342 400
#     4  12  23  42  72 102 134 175 234 283 339 397
#     4  10  19  36  63 100 134 165 214 287 344 387
#     4  11  24  43  65  95 140 184 226 274 340 419
#
# _framework density 20.548960000000001
#
# number of rings (size 3 to 8) (size 9 to 14) (size 15 to 20)
#    0.000    1.000    4.000    3.600    2.800    2.400 
#    0.000    4.000    0.000    0.000    0.000    0.000 
#    0.000    0.000    0.000    0.000    0.000    0.000 
#
# Total GULP energy -495860.559766 kJ/mol
# GULP energy per Si atom -12396.513994 kJ/mol
# Density = 2.050219 g / cm^3
# Si number density = 20.548960 Si / 1000 Ang^3
#
#
#
# Elastic Constant Matrix: (Units=GPa)
#
#
# Indices 1 2 3 4 5 6 
#
# 1 145.7213 55.8046 46.0037 0.0000 0.0000 0.0000
# 2 55.8046 145.7215 46.0037 0.0000 0.0000 0.0000
# 3 46.0037 46.0037 72.4776 0.0000 0.0000 0.0000
# 4 0.0000 0.0000 0.0000 27.1129 0.0000 0.0000
# 5 0.0000 0.0000 0.0000 0.0000 27.1129 0.0000
# 6 0.0000 0.0000 0.0000 0.0000 0.0000 38.5737
#
#
#
# Elastic Compliance Matrix: (Units=1/GPa)
#
#
# Indices 1 2 3 4 5 6 
#
# 1 0.009054 -0.002067 -0.004435 0.000000 0.000000 0.000000
# 2 -0.002067 0.009054 -0.004435 0.000000 0.000000 0.000000
# 3 -0.004435 -0.004435 0.019427 0.000000 0.000000 0.000000
# 4 0.000000 0.000000 0.000000 0.036883 0.000000 0.000000
# 5 0.000000 0.000000 0.000000 0.000000 0.036883 0.000000
# 6 0.000000 0.000000 0.000000 0.000000 0.000000 0.025924
#
#
# Mechanical properties :
#
#
# Convention : Reuss Voigt Hill
#
# Bulk Modulus (GPa) = 63.84976 73.28272 68.56624
# Shear Modulus (GPa) = 30.42850 32.96711 31.69781
#
# Velocity S-wave (km/s) = 3.85227 4.00974 3.93179
# Velocity P-wave (km/s) = 7.13625 7.56157 7.35199
#
# Compressibility (1/GPa) = 0.01566176
#
# Stress axis : x y z
#
# Youngs Moduli (GPa) = 110.44688 110.44704 51.47441
#
# Poissons Ratio (x) = 0.22832 0.22828
# Poissons Ratio (y) = 0.22832 0.22828
# Poissons Ratio (z) = 0.48981 0.48981
#
# Static dielectric constant tensor:
#      x y z
#    x 4.082060 0.000000 0.000000 
#    y 0.000000 4.082060 0.000000 
#    z 0.000000 0.000000 3.665720 
# 
# 
# High freq. dielectric constant tensor:
#      x y z
#    x 1.819670 0.000000 0.000000 
#    y 0.000000 1.819670 0.000000 
#    z 0.000000 0.000000 1.788240 
# 
# From -- ./inp_files/1008.got.cif
#   From: 2010.03.12/outbox.cif.g09.slc.cpg/sg89_1_cif.got.tgz:1008.got - 2010.04.08 20:24:03.
