data_PCOD8304381
_publ_section_title
;
Structure prediction by ZEFSAII (Michael W. Deem and Ramdas Pophale) SiO2 
 PCOD8304381
Probable space group: I 41/A
;
_chemical_formula_sum "Si O2"
_cell_formula_units_Z 80
_cell_length_a 11.381087
_cell_length_b 11.381087
_cell_length_c 29.659242
_cell_angle_alpha 90.000000
_cell_angle_beta 90.000000
_cell_angle_gamma 90.000000
_cell_volume 3841.736148
_symmetry_space_group_name_H-M "I 41/A"
_symmetry_group_IT_number 88
_space_group.IT_coordinate_system_code '2'
_symmetry_cell_setting 'tetragonal'
loop_
_space_group_symop_operation_xyz
x,y,z
3/4-y,1/4+x,1/4+z
-x,1/2-y,z
1/4+y,1/4-x,1/4+z
-x,-y,-z
1/4+y,3/4-x,3/4-z
x,1/2+y,-z
3/4-y,3/4+x,3/4-z
1/2+x,1/2+y,1/2+z
1/4-y,3/4+x,3/4+z
1/2-x,-y,1/2+z
3/4+y,3/4-x,3/4+z
1/2-x,1/2-y,1/2-z
3/4+y,1/4-x,1/4-z
1/2+x,y,1/2-z
1/4-y,1/4+x,1/4-z
loop_
_atom_site_type_symbol
_atom_site_label
_atom_site_fract_x
_atom_site_fract_y
_atom_site_fract_z
Si Si1 0.531866 0.568988 0.954576
Si Si2 0.186878 0.285223 0.464280
Si Si3 0.797458 0.422855 0.628169
Si Si4 0.857284 0.354996 0.110203
Si Si5 0.000867 0.608691 0.311389
O O1 0.644286 0.650893 0.964232
O O2 0.414040 0.637938 0.940184
O O3 0.569548 0.492820 0.912258
O O4 0.500000 0.500000 0.000000
O O5 0.308500 0.309853 0.438158
O O6 0.202442 0.309331 0.517612
O O7 0.718372 0.538872 0.630480
O O8 0.810716 0.379076 0.575801
O O9 0.928282 0.442713 0.646108
O O10 0.852553 0.242915 0.144483
O O11 0.000000 0.750000 0.304419
#
# Coordination Sequence:
#
# PCOD8304381 Si02
#       5
#    16  16  16  16  16
#     4  11  21  38  66 101 136 169 214 280 353 414
#     4  11  23  39  65  99 131 175 223 275 347 412
#     4  12  22  40  67 101 134 176 221 276 351 425
#     4  11  26  48  68  83 129 194 244 275 327 402
#     4  12  22  37  67 108 143 165 202 285 371 423
#
# _framework density 20.823917999999999
#
# number of rings (size 3 to 8) (size 9 to 14) (size 15 to 20)
#    0.000    0.600    8.000    1.200    2.800    0.000 
#    0.000    1.000    4.400    0.000    0.000    0.000 
#    0.000    0.000    0.000    0.000    0.000    0.000 
#
# Total GULP energy -495531.062193 kJ/mol
# GULP energy per Si atom -12388.276555 kJ/mol
# Density = 2.077652 g / cm^3
# Si number density = 20.823918 Si / 1000 Ang^3
#
#
#
# Elastic Constant Matrix: (Units=GPa)
#
#
# Indices 1 2 3 4 5 6 
#
# 1 102.9120 52.6506 55.7858 0.0000 0.0000 9.9746
# 2 52.6506 102.9120 55.7858 0.0000 0.0000 -9.9746
# 3 55.7858 55.7858 127.5000 0.0000 0.0000 0.0000
# 4 0.0000 0.0000 0.0000 31.6029 0.0000 0.0000
# 5 0.0000 0.0000 0.0000 0.0000 31.6029 0.0000
# 6 9.9746 -9.9746 0.0000 0.0000 0.0000 43.2697
#
#
#
# Elastic Compliance Matrix: (Units=1/GPa)
#
#
# Indices 1 2 3 4 5 6 
#
# 1 0.015634 -0.006266 -0.004099 0.000000 0.000000 -0.005048
# 2 -0.006266 0.015634 -0.004099 0.000000 0.000000 0.005048
# 3 -0.004099 -0.004099 0.011430 0.000000 0.000000 0.000000
# 4 0.000000 0.000000 0.000000 0.031643 0.000000 0.000000
# 5 0.000000 0.000000 0.000000 0.000000 0.031643 0.000000
# 6 -0.005048 0.005048 0.000000 0.000000 0.000000 0.025438
#
#
# Mechanical properties :
#
#
# Convention : Reuss Voigt Hill
#
# Bulk Modulus (GPa) = 72.61854 73.52983 73.07419
# Shear Modulus (GPa) = 30.31432 32.56856 31.44144
#
# Velocity S-wave (km/s) = 3.81956 3.95903 3.88992
# Velocity P-wave (km/s) = 7.37567 7.50237 7.43929
#
# Compressibility (1/GPa) = 0.01377059
#
# Stress axis : x y z
#
# Youngs Moduli (GPa) = 63.96372 63.96373 87.48977
#
# Poissons Ratio (x) = 0.40079 0.35861
# Poissons Ratio (y) = 0.40079 0.35861
# Poissons Ratio (z) = 0.26218 0.26218
#
# Static dielectric constant tensor:
#      x y z
#    x 3.909680 0.000000 0.000000 
#    y 0.000000 3.909680 0.000000 
#    z 0.000000 0.000000 3.799560 
# 
# 
# High freq. dielectric constant tensor:
#      x y z
#    x 1.812390 0.000000 0.000000 
#    y 0.000000 1.812390 0.000000 
#    z 0.000000 0.000000 1.809900 
# 
# From -- ./inp_files/6320.got.cif
#   From: 2010.03.12/outbox.cif.g09.slc.cpg/sg88_4_cif.got.tgz:6320.got - 2010.04.08 20:20:55.
