data_PCOD8304711
_publ_section_title
;
Structure prediction by ZEFSAII (Michael W. Deem and Ramdas Pophale) SiO2 
 PCOD8304711
Probable space group: P 41 2 2
;
_chemical_formula_sum "Si O2"
_cell_formula_units_Z 36
_cell_length_a 11.949762
_cell_length_b 11.949762
_cell_length_c 13.102814
_cell_angle_alpha 90.000000
_cell_angle_beta 90.000000
_cell_angle_gamma 90.000000
_cell_volume 1871.040066
_symmetry_space_group_name_H-M "P 41 2 2"
_symmetry_group_IT_number 91
_symmetry_cell_setting 'tetragonal'
loop_
_space_group_symop_operation_xyz
x,y,z
-y,x,1/4+z
-x,-y,1/2+z
y,-x,3/4+z
x,-y,1/2-z
-x,y,-z
y,x,3/4-z
-y,-x,1/4-z
loop_
_atom_site_type_symbol
_atom_site_label
_atom_site_fract_x
_atom_site_fract_y
_atom_site_fract_z
Si Si1 0.056977 0.718451 0.746013
Si Si2 0.500000 0.922721 0.000000
Si Si3 0.562199 0.876913 0.216568
Si Si4 0.091509 0.812173 0.423127
Si Si5 0.419386 0.751582 0.596280
O O1 0.105282 0.800187 0.834666
O O2 0.158223 0.678812 0.673636
O O3 0.999467 0.604686 0.785054
O O4 0.964908 0.792128 0.686157
O O5 0.476438 0.848071 0.899421
O O6 0.695771 0.865518 0.220081
O O7 0.512832 0.792132 0.301850
O O8 0.523409 0.000000 0.250000
O O9 0.000000 0.865719 0.500000
O O10 0.500000 0.737732 0.500000
O O11 0.368035 0.631966 0.625000
#
# Coordination Sequence:
#
# PCOD8304711 Si02
#       5
#     8   4   8   8   8
#     4  11  18  33  55  92 118 159 205 249 300 358
#     4  10  20  32  56  92 122 154 206 254 290 352
#     4  10  17  31  54  87 113 145 193 252 288 333
#     4  10  17  28  53  83 120 147 196 248 290 351
#     4  12  21  35  62  89 112 147 203 260 305 357
#
# _framework density 19.240634
#
# number of rings (size 3 to 8) (size 9 to 14) (size 15 to 20)
#    0.000    1.333   10.000    0.667    0.000    0.000 
#    0.000    0.000    2.444   14.667    0.000    0.000 
#    0.000    0.000    0.000    0.000    0.000    0.000 
#
# Total GULP energy -445980.265613 kJ/mol
# GULP energy per Si atom -12388.340711 kJ/mol
# Density = 1.919684 g / cm^3
# Si number density = 19.240634 Si / 1000 Ang^3
#
#
#
# Elastic Constant Matrix: (Units=GPa)
#
#
# Indices 1 2 3 4 5 6 
#
# 1 75.0049 48.5418 53.7968 0.0000 0.0000 0.0000
# 2 48.5418 75.0056 53.7970 0.0000 0.0000 0.0000
# 3 53.7968 53.7970 144.3565 0.0000 0.0000 0.0000
# 4 0.0000 0.0000 0.0000 28.9322 0.0000 0.0000
# 5 0.0000 0.0000 0.0000 0.0000 28.9321 0.0000
# 6 0.0000 0.0000 0.0000 0.0000 0.0000 14.1435
#
#
#
# Elastic Compliance Matrix: (Units=1/GPa)
#
#
# Indices 1 2 3 4 5 6 
#
# 1 0.024886 -0.012902 -0.004466 0.000000 0.000000 0.000000
# 2 -0.012902 0.024885 -0.004466 0.000000 0.000000 0.000000
# 3 -0.004466 -0.004466 0.010256 0.000000 0.000000 0.000000
# 4 0.000000 0.000000 0.000000 0.034564 0.000000 0.000000
# 5 0.000000 0.000000 0.000000 0.000000 0.034564 0.000000
# 6 0.000000 0.000000 0.000000 0.000000 0.000000 0.070704
#
#
# Mechanical properties :
#
#
# Convention : Reuss Voigt Hill
#
# Bulk Modulus (GPa) = 61.12782 67.40425 64.26603
# Shear Modulus (GPa) = 20.08203 23.61698 21.84950
#
# Velocity S-wave (km/s) = 3.23419 3.50730 3.37351
# Velocity P-wave (km/s) = 6.76652 7.17704 6.97480
#
# Compressibility (1/GPa) = 0.01635916
#
# Stress axis : x y z
#
# Youngs Moduli (GPa) = 40.18364 40.18409 97.50625
#
# Poissons Ratio (x) = 0.51847 0.43544
# Poissons Ratio (y) = 0.51847 0.43543
# Poissons Ratio (z) = 0.17945 0.17945
#
# Static dielectric constant tensor:
#      x y z
#    x 3.300940 0.000000 0.000000 
#    y 0.000000 3.300930 0.000000 
#    z 0.000000 0.000000 3.475220 
# 
# 
# High freq. dielectric constant tensor:
#      x y z
#    x 1.717810 0.000000 0.000000 
#    y 0.000000 1.717810 0.000000 
#    z 0.000000 0.000000 1.739430 
# 
# From -- ./inp_files/11244.got.cif
#   From: 2010.03.12/outbox.cif.g09.slc.cpg/sg91_6_cif.got.tgz:11244.got - 2010.04.08 20:27:58.
