data_PCOD8304928
_publ_section_title
;
Structure prediction by ZEFSAII (Michael W. Deem and Ramdas Pophale) SiO2 
 PCOD8304928
Probable space group: P 41 2 2
;
_chemical_formula_sum "Si O2"
_cell_formula_units_Z 32
_cell_length_a 8.468638
_cell_length_b 8.468638
_cell_length_c 18.826186
_cell_angle_alpha 90.000000
_cell_angle_beta 90.000000
_cell_angle_gamma 90.000000
_cell_volume 1350.173199
_symmetry_space_group_name_H-M "P 41 2 2"
_symmetry_group_IT_number 91
_symmetry_cell_setting 'tetragonal'
loop_
_space_group_symop_operation_xyz
x,y,z
-y,x,1/4+z
-x,-y,1/2+z
y,-x,3/4+z
x,-y,1/2-z
-x,y,-z
y,x,3/4-z
-y,-x,1/4-z
loop_
_atom_site_type_symbol
_atom_site_label
_atom_site_fract_x
_atom_site_fract_y
_atom_site_fract_z
Si Si1 0.703908 0.703908 0.875000
Si Si2 0.463191 0.258369 0.919277
Si Si3 0.753393 0.981555 0.048500
Si Si4 0.753820 0.054755 0.889185
Si Si5 0.500000 0.745123 0.000000
O O1 0.604301 0.644087 0.943742
O O2 0.890922 0.680467 0.890707
O O3 0.413358 0.413358 0.875000
O O4 0.619981 0.188124 0.883140
O O5 0.318812 0.135105 0.913979
O O6 0.500000 0.306537 0.000000
O O7 0.896164 0.907294 0.093867
O O8 0.612737 0.855778 0.046106
O O9 0.812282 0.026756 0.969753
#
# Coordination Sequence:
#
# PCOD8304928 Si02
#       5
#     4   8   8   8   4
#     4  10  20  42  72 106 144 190 240 300 362 432
#     4  10  21  46  70 106 150 187 242 301 363 436
#     4  10  20  45  70 107 143 185 245 296 362 435
#     4  10  22  41  72 108 145 191 238 302 363 437
#     4  10  20  42  72 100 150 180 238 298 354 442
#
# _framework density 23.700662999999999
#
# number of rings (size 3 to 8) (size 9 to 14) (size 15 to 20)
#    0.000    2.000    6.250    0.000    1.750    4.000 
#    9.000    7.500   22.000    0.000    0.000    0.000 
#    0.000    0.000    0.000    0.000    0.000    0.000 
#
# Total GULP energy -396696.831277 kJ/mol
# GULP energy per Si atom -12396.775977 kJ/mol
# Density = 2.364672 g / cm^3
# Si number density = 23.700663 Si / 1000 Ang^3
#
#
#
# Elastic Constant Matrix: (Units=GPa)
#
#
# Indices 1 2 3 4 5 6 
#
# 1 74.5255 67.3364 80.0606 0.0000 0.0000 0.0000
# 2 67.3364 74.5255 80.0606 0.0000 0.0000 0.0000
# 3 80.0606 80.0606 134.4768 0.0000 0.0000 0.0000
# 4 0.0000 0.0000 0.0000 50.6718 0.0000 0.0000
# 5 0.0000 0.0000 0.0000 0.0000 50.6718 0.0000
# 6 0.0000 0.0000 0.0000 0.0000 0.0000 45.3662
#
#
#
# Elastic Compliance Matrix: (Units=1/GPa)
#
#
# Indices 1 2 3 4 5 6 
#
# 1 0.080295 -0.058805 -0.012794 0.000000 0.000000 0.000000
# 2 -0.058805 0.080295 -0.012794 0.000000 0.000000 0.000000
# 3 -0.012794 -0.012794 0.022670 0.000000 0.000000 0.000000
# 4 0.000000 0.000000 0.000000 0.019735 0.000000 0.000000
# 5 0.000000 0.000000 0.000000 0.000000 0.019735 0.000000
# 6 0.000000 0.000000 0.000000 0.000000 0.000000 0.022043
#
#
# Mechanical properties :
#
#
# Convention : Reuss Voigt Hill
#
# Bulk Modulus (GPa) = 69.09048 82.04924 75.56986
# Shear Modulus (GPa) = 11.95081 33.07999 22.51540
#
# Velocity S-wave (km/s) = 2.24796 3.74001 3.08554
# Velocity P-wave (km/s) = 5.99603 7.30373 6.68194
#
# Compressibility (1/GPa) = 0.01447377
#
# Stress axis : x y z
#
# Youngs Moduli (GPa) = 12.45413 12.45413 44.11151
#
# Poissons Ratio (x) = 0.73236 0.56436
# Poissons Ratio (y) = 0.73236 0.56436
# Poissons Ratio (z) = 0.15934 0.15934
#
# Static dielectric constant tensor:
#      x y z
#    x 4.271380 0.000000 0.000000 
#    y 0.000000 4.271380 0.000000 
#    z 0.000000 0.000000 4.099460 
# 
# 
# High freq. dielectric constant tensor:
#      x y z
#    x 1.938250 0.000000 0.000000 
#    y 0.000000 1.938250 0.000000 
#    z 0.000000 0.000000 1.927390 
# 
# From -- ./inp_files/21352.got.cif
#   From: 2010.03.12/outbox.cif.g09.slc.cpg/sg91_11_cif.got.tgz:21352.got - 2010.04.08 20:27:58.
