data_PCOD8304781
_publ_section_title
;
Structure prediction by ZEFSAII (Michael W. Deem and Ramdas Pophale) SiO2 
 PCOD8304781
Probable space group: P 41 2 2
;
_chemical_formula_sum "Si O2"
_cell_formula_units_Z 48
_cell_length_a 14.605034
_cell_length_b 14.605034
_cell_length_c 13.429192
_cell_angle_alpha 90.000000
_cell_angle_beta 90.000000
_cell_angle_gamma 90.000000
_cell_volume 2864.540902
_symmetry_space_group_name_H-M "P 41 2 2"
_symmetry_group_IT_number 91
_symmetry_cell_setting 'tetragonal'
loop_
_space_group_symop_operation_xyz
x,y,z
-y,x,1/4+z
-x,-y,1/2+z
y,-x,3/4+z
x,-y,1/2-z
-x,y,-z
y,x,3/4-z
-y,-x,1/4-z
loop_
_atom_site_type_symbol
_atom_site_label
_atom_site_fract_x
_atom_site_fract_y
_atom_site_fract_z
Si Si1 0.830129 0.778676 0.181887
Si Si2 0.664759 0.103727 0.251809
Si Si3 0.596621 0.112482 0.035366
Si Si4 0.025336 0.897747 0.721288
Si Si5 0.404313 0.900969 0.964738
Si Si6 0.152043 0.209473 0.265814
O O1 0.746822 0.825562 0.239722
O O2 0.839074 0.678422 0.227044
O O3 0.917903 0.844445 0.195035
O O4 0.813625 0.767076 0.062714
O O5 0.606838 0.126502 0.153543
O O6 0.598584 0.114271 0.346420
O O7 0.704697 0.000000 0.250000
O O8 0.500000 0.155844 0.000000
O O9 0.599080 0.006749 0.005312
O O10 0.091291 0.908710 0.625000
O O11 0.936231 0.833957 0.709276
O O12 0.993661 0.000000 0.750000
O O13 0.319164 0.855145 0.022774
O O14 0.500000 0.856311 0.000000
O O15 0.167739 0.167739 0.375000
#
# Coordination Sequence:
#
# PCOD8304781 Si02
#       6
#     8   8   8   8   8   8
#     4  11  21  33  50  72 101 137 177 218 255 306
#     4   9  18  32  51  74  99 131 173 216 256 310
#     4  10  19  32  50  75 100 132 176 219 267 306
#     4  12  21  32  48  69 101 144 177 207 249 299
#     4   9  19  36  53  70  99 140 181 216 259 312
#     4  11  24  36  49  75 107 138 182 221 262 312
#
# _framework density 16.756612000000001
#
# number of rings (size 3 to 8) (size 9 to 14) (size 15 to 20)
#    0.000    1.667    3.333    2.500    2.333    1.333 
#    0.000    1.667    0.000    0.000    0.000    0.000 
#    0.000   37.333    0.000    0.000    0.000    0.000 
#
# Total GULP energy -594966.948550 kJ/mol
# GULP energy per Si atom -12395.144761 kJ/mol
# Density = 1.671847 g / cm^3
# Si number density = 16.756612 Si / 1000 Ang^3
#
#
#
# Elastic Constant Matrix: (Units=GPa)
#
#
# Indices 1 2 3 4 5 6 
#
# 1 96.0827 38.2402 42.8264 0.0000 0.0000 0.0000
# 2 38.2402 96.0827 42.8263 0.0000 0.0000 0.0000
# 3 42.8264 42.8263 112.4440 0.0000 0.0000 0.0000
# 4 0.0000 0.0000 0.0000 21.3942 0.0000 0.0000
# 5 0.0000 0.0000 0.0000 0.0000 21.3941 0.0000
# 6 0.0000 0.0000 0.0000 0.0000 0.0000 12.1727
#
#
#
# Elastic Compliance Matrix: (Units=1/GPa)
#
#
# Indices 1 2 3 4 5 6 
#
# 1 0.013561 -0.003728 -0.003745 0.000000 0.000000 0.000000
# 2 -0.003728 0.013561 -0.003745 0.000000 0.000000 0.000000
# 3 -0.003745 -0.003745 0.011746 0.000000 0.000000 0.000000
# 4 0.000000 0.000000 0.000000 0.046742 0.000000 0.000000
# 5 0.000000 0.000000 0.000000 0.000000 0.046742 0.000000
# 6 0.000000 0.000000 0.000000 0.000000 0.000000 0.082151
#
#
# Mechanical properties :
#
#
# Convention : Reuss Voigt Hill
#
# Bulk Modulus (GPa) = 60.85832 61.37725 61.11778
# Shear Modulus (GPa) = 20.62582 23.03995 21.83288
#
# Velocity S-wave (km/s) = 3.51223 3.71209 3.61354
# Velocity P-wave (km/s) = 7.26949 7.42166 7.34597
#
# Compressibility (1/GPa) = 0.01643161
#
# Stress axis : x y z
#
# Youngs Moduli (GPa) = 73.74318 73.74330 85.13520
#
# Poissons Ratio (x) = 0.27490 0.31883
# Poissons Ratio (y) = 0.27490 0.31883
# Poissons Ratio (z) = 0.27617 0.27617
#
# Static dielectric constant tensor:
#      x y z
#    x 3.052970 0.000000 0.000000 
#    y 0.000000 3.052970 0.000000 
#    z 0.000000 0.000000 3.370180 
# 
# 
# High freq. dielectric constant tensor:
#      x y z
#    x 1.619580 0.000000 0.000000 
#    y 0.000000 1.619580 0.000000 
#    z 0.000000 0.000000 1.658950 
# 
# From -- ./inp_files/3798.got.cif
#   From: 2010.03.12/outbox.cif.g09.slc.cpg/sg91_2_cif.got.tgz:3798.got - 2010.04.08 20:27:58.
