data_PCOD8304755
_publ_section_title
;
Structure prediction by ZEFSAII (Michael W. Deem and Ramdas Pophale) SiO2 
 PCOD8304755
Probable space group: P 41 2 2
;
_chemical_formula_sum "Si O2"
_cell_formula_units_Z 64
_cell_length_a 11.460503
_cell_length_b 11.460503
_cell_length_c 24.447237
_cell_angle_alpha 90.000000
_cell_angle_beta 90.000000
_cell_angle_gamma 90.000000
_cell_volume 3210.976603
_symmetry_space_group_name_H-M "P 41 2 2"
_symmetry_group_IT_number 91
_symmetry_cell_setting 'tetragonal'
loop_
_space_group_symop_operation_xyz
x,y,z
-y,x,1/4+z
-x,-y,1/2+z
y,-x,3/4+z
x,-y,1/2-z
-x,y,-z
y,x,3/4-z
-y,-x,1/4-z
loop_
_atom_site_type_symbol
_atom_site_label
_atom_site_fract_x
_atom_site_fract_y
_atom_site_fract_z
Si Si1 0.061004 0.636790 0.382784
Si Si2 0.203945 0.649887 0.591537
Si Si3 0.240182 0.054318 0.375654
Si Si4 0.746571 0.401759 0.971068
Si Si5 0.421140 0.259023 0.096094
Si Si6 0.562176 0.001829 0.944010
Si Si7 0.219112 0.806821 0.328345
Si Si8 0.872424 0.637337 0.979382
O O1 0.151844 0.646960 0.432196
O O2 0.056230 0.511187 0.354744
O O3 0.100811 0.731039 0.336447
O O4 0.934889 0.651905 0.409146
O O5 0.234549 0.765452 0.625000
O O6 0.249841 0.660429 0.529781
O O7 0.270567 0.545829 0.624472
O O8 0.120302 0.120302 0.375000
O O9 0.308045 0.052000 0.434397
O O10 0.325864 0.115415 0.332750
O O11 0.200404 0.926535 0.359557
O O12 0.620513 0.367263 0.943475
O O13 0.771426 0.538785 0.981515
O O14 0.330350 0.256795 0.145720
O O15 0.426013 0.141297 0.060033
O O16 0.500000 0.965099 0.000000
O O17 0.250979 0.830698 0.264945
O O18 0.000000 0.590093 0.000000
#
# Coordination Sequence:
#
# PCOD8304755 Si02
#       8
#     8   8   8   8   8   8   8   8
#     4  10  21  38  60  88 116 158 213 247 294 366
#     4  11  23  37  60  90 124 161 199 243 310 374
#     4  10  21  36  56  87 119 153 198 246 306 368
#     4  11  20  37  65  86 118 155 209 260 289 354
#     4   9  21  37  57  87 116 154 200 243 301 358
#     4  10  21  36  58  82 118 159 199 245 303 366
#     4   9  19  37  60  84 116 152 196 255 296 348
#     4  10  18  35  62  85 110 159 208 247 298 359
#
# _framework density 19.931630999999999
#
# number of rings (size 3 to 8) (size 9 to 14) (size 15 to 20)
#    0.000    2.000    2.500    1.125    5.250    0.500 
#    0.000    0.625    0.000    3.000    0.000    0.000 
#    0.000    0.000    0.000    0.000    0.000    0.000 
#
# Total GULP energy -792870.878131 kJ/mol
# GULP energy per Si atom -12388.607471 kJ/mol
# Density = 1.988627 g / cm^3
# Si number density = 19.931631 Si / 1000 Ang^3
#
#
#
# Elastic Constant Matrix: (Units=GPa)
#
#
# Indices 1 2 3 4 5 6 
#
# 1 53.8592 46.3225 25.6818 0.0000 0.0000 0.0000
# 2 46.3225 53.8567 25.6818 0.0000 0.0000 0.0000
# 3 25.6818 25.6818 83.8587 0.0000 0.0000 0.0000
# 4 0.0000 0.0000 0.0000 22.2299 0.0000 0.0000
# 5 0.0000 0.0000 0.0000 0.0000 22.2301 0.0000
# 6 0.0000 0.0000 0.0000 0.0000 0.0000 13.0889
#
#
#
# Elastic Compliance Matrix: (Units=1/GPa)
#
#
# Indices 1 2 3 4 5 6 
#
# 1 0.072272 -0.060433 -0.003626 0.000000 0.000000 0.000000
# 2 -0.060433 0.072276 -0.003627 0.000000 0.000000 0.000000
# 3 -0.003626 -0.003627 0.014146 0.000000 0.000000 0.000000
# 4 0.000000 0.000000 0.000000 0.044984 0.000000 0.000000
# 5 0.000000 0.000000 0.000000 0.000000 0.044984 0.000000
# 6 0.000000 0.000000 0.000000 0.000000 0.000000 0.076401
#
#
# Mechanical properties :
#
#
# Convention : Reuss Voigt Hill
#
# Bulk Modulus (GPa) = 42.87621 42.99408 42.93515
# Shear Modulus (GPa) = 10.67902 17.76901 14.22401
#
# Velocity S-wave (km/s) = 2.31721 2.98904 2.67430
# Velocity P-wave (km/s) = 5.35888 5.79051 5.57887
#
# Compressibility (1/GPa) = 0.02332296
#
# Stress axis : x y z
#
# Youngs Moduli (GPa) = 13.83663 13.83590 70.69135
#
# Poissons Ratio (x) = 0.83614 0.25632
# Poissons Ratio (y) = 0.83618 0.25640
# Poissons Ratio (z) = 0.05017 0.05018
#
# Static dielectric constant tensor:
#      x y z
#    x 3.914370 0.000000 0.000000 
#    y 0.000000 3.914350 0.000000 
#    z 0.000000 0.000000 3.705590 
# 
# 
# High freq. dielectric constant tensor:
#      x y z
#    x 1.762390 0.000000 0.000000 
#    y 0.000000 1.762390 0.000000 
#    z 0.000000 0.000000 1.785570 
# 
# From -- ./inp_files/17675.got.cif
#   From: 2010.03.12/outbox.cif.g09.slc.cpg/sg91_9_cif.got.tgz:17675.got - 2010.04.08 20:27:58.
