data_PCOD8304279
_publ_section_title
;
Structure prediction by ZEFSAII (Michael W. Deem and Ramdas Pophale) SiO2 
 PCOD8304279
Probable space group: I 41/A
;
_chemical_formula_sum "Si O2"
_cell_formula_units_Z 68
_cell_length_a 11.221983
_cell_length_b 11.221983
_cell_length_c 26.685671
_cell_angle_alpha 90.000000
_cell_angle_beta 90.000000
_cell_angle_gamma 90.000000
_cell_volume 3360.604003
_symmetry_space_group_name_H-M "I 41/A"
_symmetry_group_IT_number 88
_space_group.IT_coordinate_system_code '2'
_symmetry_cell_setting 'tetragonal'
loop_
_space_group_symop_operation_xyz
x,y,z
3/4-y,1/4+x,1/4+z
-x,1/2-y,z
1/4+y,1/4-x,1/4+z
-x,-y,-z
1/4+y,3/4-x,3/4-z
x,1/2+y,-z
3/4-y,3/4+x,3/4-z
1/2+x,1/2+y,1/2+z
1/4-y,3/4+x,3/4+z
1/2-x,-y,1/2+z
3/4+y,3/4-x,3/4+z
1/2-x,1/2-y,1/2-z
3/4+y,1/4-x,1/4-z
1/2+x,y,1/2-z
1/4-y,1/4+x,1/4-z
loop_
_atom_site_type_symbol
_atom_site_label
_atom_site_fract_x
_atom_site_fract_y
_atom_site_fract_z
Si Si1 0.862575 0.521921 0.485530
Si Si2 0.000000 0.750000 0.875000
Si Si3 0.233381 0.850362 0.911573
Si Si4 0.162933 0.810447 0.394608
Si Si5 0.304174 0.591181 0.907172
O O1 0.792485 0.408468 0.461485
O O2 0.854068 0.635398 0.449266
O O3 0.792670 0.562189 0.534578
O O4 0.000000 0.500000 0.500000
O O5 0.094717 0.807930 0.914272
O O6 0.307398 0.732397 0.897404
O O7 0.234726 0.946726 0.867364
O O8 0.128596 0.672320 0.396002
O O9 0.294128 0.825497 0.370231
#
# Coordination Sequence:
#
# PCOD8304279 Si02
#       5
#    16   4  16  16  16
#     4  11  22  37  62  91 121 163 207 255 319 382
#     4   8  16  44  64  80 120 168 200 256 316 364
#     4   9  21  39  63  85 121 160 203 261 309 368
#     4  10  21  37  56  84 127 159 199 259 313 369
#     4  10  21  40  60  87 118 160 208 248 315 367
#
# _framework density 20.234459000000001
#
# number of rings (size 3 to 8) (size 9 to 14) (size 15 to 20)
#    0.000    2.118    2.353    0.000    3.294    0.941 
#    0.000   18.824    0.000    0.000    0.000    0.000 
#    0.000    0.000    0.000    0.000    0.000    0.000 
#
# Total GULP energy -421210.370879 kJ/mol
# GULP energy per Si atom -12388.540320 kJ/mol
# Density = 2.018840 g / cm^3
# Si number density = 20.234459 Si / 1000 Ang^3
#
#
#
# Elastic Constant Matrix: (Units=GPa)
#
#
# Indices 1 2 3 4 5 6 
#
# 1 67.6525 16.3729 17.4934 0.0000 0.0000 2.8611
# 2 16.3729 67.6525 17.4934 0.0000 0.0000 -2.8611
# 3 17.4934 17.4934 105.0691 0.0000 0.0000 0.0000
# 4 0.0000 0.0000 0.0000 27.6812 0.0000 0.0000
# 5 0.0000 0.0000 0.0000 0.0000 27.6813 0.0000
# 6 2.8611 -2.8611 0.0000 0.0000 0.0000 36.6493
#
#
#
# Elastic Compliance Matrix: (Units=1/GPa)
#
#
# Indices 1 2 3 4 5 6 
#
# 1 0.016230 -0.003442 -0.002129 0.000000 0.000000 -0.001536
# 2 -0.003442 0.016230 -0.002129 0.000000 0.000000 0.001536
# 3 -0.002129 -0.002129 0.010227 0.000000 0.000000 0.000000
# 4 0.000000 0.000000 0.000000 0.036126 0.000000 0.000000
# 5 0.000000 0.000000 0.000000 0.000000 0.036126 0.000000
# 6 -0.001536 0.001536 0.000000 0.000000 0.000000 0.027525
#
#
# Mechanical properties :
#
#
# Convention : Reuss Voigt Hill
#
# Bulk Modulus (GPa) = 36.64945 38.12152 37.38549
# Shear Modulus (GPa) = 29.94745 31.00331 30.47538
#
# Velocity S-wave (km/s) = 3.85128 3.91858 3.88508
# Velocity P-wave (km/s) = 6.15859 6.27332 6.21622
#
# Compressibility (1/GPa) = 0.02728554
#
# Stress axis : x y z
#
# Youngs Moduli (GPa) = 61.61432 61.61432 97.78511
#
# Poissons Ratio (x) = 0.21210 0.20819
# Poissons Ratio (y) = 0.21210 0.20819
# Poissons Ratio (z) = 0.13118 0.13118
#
# Static dielectric constant tensor:
#      x y z
#    x 3.946480 0.000000 0.000000 
#    y 0.000000 3.946480 0.000000 
#    z 0.000000 0.000000 3.596670 
# 
# 
# High freq. dielectric constant tensor:
#      x y z
#    x 1.796120 0.000000 0.000000 
#    y 0.000000 1.796120 0.000000 
#    z 0.000000 0.000000 1.774950 
# 
# From -- ./inp_files/5711.got.cif
#   From: 2010.03.12/outbox.cif.g09.slc.cpg/sg88_3_cif.got.tgz:5711.got - 2010.04.08 20:20:55.
