data_PCOD8304029
_publ_section_title
;
Structure prediction by ZEFSAII (Michael W. Deem and Ramdas Pophale) SiO2 
 PCOD8304029
Probable space group: I 4/M
;
_chemical_formula_sum "Si O2"
_cell_formula_units_Z 84
_cell_length_a 13.517747
_cell_length_b 13.517747
_cell_length_c 21.936730
_cell_angle_alpha 90.000000
_cell_angle_beta 90.000000
_cell_angle_gamma 90.000000
_cell_volume 4008.487353
_symmetry_space_group_name_H-M "I 4/M"
_symmetry_group_IT_number 87
_symmetry_cell_setting 'tetragonal'
loop_
_space_group_symop_operation_xyz
x,y,z
-y,x,z
-x,-y,z
y,-x,z
-x,-y,-z
y,-x,-z
x,y,-z
-y,x,-z
1/2+x,1/2+y,1/2+z
1/2-y,1/2+x,1/2+z
1/2-x,1/2-y,1/2+z
1/2+y,1/2-x,1/2+z
1/2-x,1/2-y,1/2-z
1/2+y,1/2-x,1/2-z
1/2+x,1/2+y,1/2-z
1/2-y,1/2+x,1/2-z
loop_
_atom_site_type_symbol
_atom_site_label
_atom_site_fract_x
_atom_site_fract_y
_atom_site_fract_z
Si Si1 0.500000 0.000000 0.750000
Si Si2 0.602230 0.303202 0.138823
Si Si3 0.130964 0.912263 0.239560
Si Si4 0.090973 0.249227 0.429143
Si Si5 0.529386 0.113604 0.569130
Si Si6 0.903824 0.667727 0.824574
O O1 0.599827 0.018836 0.787944
O O2 0.628491 0.390906 0.187651
O O3 0.496300 0.307014 0.106769
O O4 0.683399 0.312296 0.084958
O O5 0.608144 0.197763 0.171355
O O6 0.228824 0.871306 0.206855
O O7 0.027489 0.864429 0.219085
O O8 0.063739 0.252433 0.500000
O O9 0.117233 0.358768 0.405708
O O10 0.521483 0.153350 0.500000
O O11 0.456239 0.182205 0.609477
O O12 0.500000 0.000000 0.573556
#
# Coordination Sequence:
#
# PCOD8304029 Si02
#       6
#     4  16  16  16  16  16
#     4  12  24  40  62 104 132 160 220 278 328 384
#     4  12  23  42  63  92 130 172 218 269 331 395
#     4  11  25  43  62  91 132 176 214 268 328 397
#     4  11  24  40  65  97 130 171 219 270 331 402
#     4  10  21  42  67  95 131 167 211 278 337 381
#     4  12  25  40  69  95 129 173 222 274 332 397
#
# _framework density 20.955535999999999
#
# number of rings (size 3 to 8) (size 9 to 14) (size 15 to 20)
#    0.000    0.762    4.762    2.286    5.333    1.143 
#    0.000    0.952    0.000    0.000    0.000    1.333 
#    0.000    0.000    0.000    0.000    0.000    0.000 
#
# Total GULP energy -520439.597971 kJ/mol
# GULP energy per Si atom -12391.418999 kJ/mol
# Density = 2.090784 g / cm^3
# Si number density = 20.955536 Si / 1000 Ang^3
#
#
#
# Elastic Constant Matrix: (Units=GPa)
#
#
# Indices 1 2 3 4 5 6 
#
# 1 64.9560 9.5405 30.3180 0.0000 0.0000 4.3032
# 2 9.5405 64.9560 30.3180 0.0000 0.0000 -4.3032
# 3 30.3180 30.3180 87.1934 0.0000 0.0000 0.0000
# 4 0.0000 0.0000 0.0000 3.6094 0.0000 0.0000
# 5 0.0000 0.0000 0.0000 0.0000 3.6094 0.0000
# 6 4.3032 -4.3032 0.0000 0.0000 0.0000 23.3229
#
#
#
# Elastic Compliance Matrix: (Units=1/GPa)
#
#
# Indices 1 2 3 4 5 6 
#
# 1 0.018650 0.000072 -0.006510 0.000000 0.000000 -0.003428
# 2 0.000072 0.018650 -0.006510 0.000000 0.000000 0.003428
# 3 -0.006510 -0.006510 0.015996 0.000000 0.000000 0.000000
# 4 0.000000 0.000000 0.000000 0.277057 0.000000 0.000000
# 5 0.000000 0.000000 0.000000 0.000000 0.277057 0.000000
# 6 -0.003428 0.003428 0.000000 0.000000 0.000000 0.044141
#
#
# Mechanical properties :
#
#
# Convention : Reuss Voigt Hill
#
# Bulk Modulus (GPa) = 36.49553 39.71761 38.10657
# Shear Modulus (GPa) = 7.28247 15.90358 11.59302
#
# Velocity S-wave (km/s) = 1.86621 2.75784 2.35461
# Velocity P-wave (km/s) = 4.70076 5.39771 5.06125
#
# Compressibility (1/GPa) = 0.02740061
#
# Stress axis : x y z
#
# Youngs Moduli (GPa) = 53.61936 53.61936 62.51622
#
# Poissons Ratio (x) = -0.00387 0.40697
# Poissons Ratio (y) = -0.00387 0.40697
# Poissons Ratio (z) = 0.34905 0.34905
#
# Static dielectric constant tensor:
#      x y z
#    x 3.833470 0.000000 0.000000 
#    y 0.000000 3.833470 0.000000 
#    z 0.000000 0.000000 3.858920 
# 
# 
# High freq. dielectric constant tensor:
#      x y z
#    x 1.817410 0.000000 0.000000 
#    y 0.000000 1.817410 0.000000 
#    z 0.000000 0.000000 1.817450 
# 
# From -- ./inp_files/5173.got.cif
#   From: 2010.03.12/outbox.cif.g09.slc.cpg/sg87_3_cif.got.tgz:5173.got - 2010.04.08 20:16:13.
