data_PCOD8304581
_publ_section_title
;
Structure prediction by ZEFSAII (Michael W. Deem and Ramdas Pophale) SiO2 
 PCOD8304581
Probable space group: P 4 21 2
;
_chemical_formula_sum "Si O2"
_cell_formula_units_Z 48
_cell_length_a 14.874442
_cell_length_b 14.874442
_cell_length_c 11.407181
_cell_angle_alpha 90.000000
_cell_angle_beta 90.000000
_cell_angle_gamma 90.000000
_cell_volume 2523.827672
_symmetry_space_group_name_H-M "P 4 21 2"
_symmetry_group_IT_number 90
_symmetry_cell_setting 'tetragonal'
loop_
_space_group_symop_operation_xyz
x,y,z
1/2-y,1/2+x,z
-x,-y,z
1/2+y,1/2-x,z
1/2+x,1/2-y,-z
1/2-x,1/2+y,-z
y,x,-z
-y,-x,-z
loop_
_atom_site_type_symbol
_atom_site_label
_atom_site_fract_x
_atom_site_fract_y
_atom_site_fract_z
Si Si1 0.709544 0.430668 0.050515
Si Si2 0.188703 0.647237 0.706962
Si Si3 0.610421 0.653652 0.873206
Si Si4 0.528813 0.757298 0.178313
Si Si5 0.819524 0.696542 0.240047
Si Si6 0.601734 0.107652 0.531537
O O1 0.642522 0.502620 0.113603
O O2 0.782566 0.393120 0.140750
O O3 0.650509 0.349492 0.000000
O O4 0.765502 0.483011 0.949746
O O5 0.110947 0.672565 0.801914
O O6 0.222787 0.546061 0.725331
O O7 0.274129 0.710878 0.720380
O O8 0.153511 0.655243 0.574963
O O9 0.655919 0.569523 0.804303
O O10 0.626900 0.746806 0.807912
O O11 0.658712 0.658712 0.000000
O O12 0.867036 0.649405 0.347515
O O13 0.496446 0.125290 0.522890
#
# Coordination Sequence:
#
# PCOD8304581 Si02
#       6
#     8   8   8   8   8   8
#     4  11  21  37  61  89 123 158 194 243 300 362
#     4  11  21  41  62  87 117 157 206 250 294 357
#     4   9  21  37  57  88 124 155 195 242 292 362
#     4  10  22  36  62  89 117 155 200 245 294 351
#     4  11  22  38  61  89 121 161 196 245 309 363
#     4  11  23  40  62  85 118 156 203 256 302 354
#
# _framework density 19.018732
#
# number of rings (size 3 to 8) (size 9 to 14) (size 15 to 20)
#    0.000    1.500    3.333    2.000    4.667    3.333 
#    0.000    0.000    0.000    0.000    0.000    2.333 
#    0.000    0.000    0.000    0.000    0.000    0.000 
#
# Total GULP energy -595138.125236 kJ/mol
# GULP energy per Si atom -12398.710942 kJ/mol
# Density = 1.897544 g / cm^3
# Si number density = 19.018732 Si / 1000 Ang^3
#
#
#
# Elastic Constant Matrix: (Units=GPa)
#
#
# Indices 1 2 3 4 5 6 
#
# 1 74.9267 -7.9914 32.1910 0.0000 0.0000 0.0000
# 2 -7.9914 74.9296 32.1913 0.0000 0.0000 0.0000
# 3 32.1910 32.1913 105.4412 0.0000 0.0000 0.0000
# 4 0.0000 0.0000 0.0000 33.5407 0.0000 0.0000
# 5 0.0000 0.0000 0.0000 0.0000 33.5406 0.0000
# 6 0.0000 0.0000 0.0000 0.0000 0.0000 2.5484
#
#
#
# Elastic Compliance Matrix: (Units=1/GPa)
#
#
# Indices 1 2 3 4 5 6 
#
# 1 0.016605 0.004545 -0.006457 0.000000 0.000000 0.000000
# 2 0.004545 0.016605 -0.006457 0.000000 0.000000 0.000000
# 3 -0.006457 -0.006457 0.013427 0.000000 0.000000 0.000000
# 4 0.000000 0.000000 0.000000 0.029815 0.000000 0.000000
# 5 0.000000 0.000000 0.000000 0.000000 0.029815 0.000000
# 6 0.000000 0.000000 0.000000 0.000000 0.000000 0.392403
#
#
# Mechanical properties :
#
#
# Convention : Reuss Voigt Hill
#
# Bulk Modulus (GPa) = 33.44645 40.89769 37.17207
# Shear Modulus (GPa) = 9.51704 27.18637 18.35170
#
# Velocity S-wave (km/s) = 2.23940 3.78491 3.10970
# Velocity P-wave (km/s) = 4.93059 6.37584 5.69921
#
# Compressibility (1/GPa) = 0.02989854
#
# Stress axis : x y z
#
# Youngs Moduli (GPa) = 60.22133 60.22383 74.47844
#
# Poissons Ratio (x) = -0.27373 0.48093
# Poissons Ratio (y) = -0.27372 0.48091
# Poissons Ratio (z) = 0.38886 0.38887
#
# Static dielectric constant tensor:
#      x y z
#    x 3.548470 0.000000 0.000000 
#    y 0.000000 3.548470 0.000000 
#    z 0.000000 0.000000 3.462670 
# 
# 
# High freq. dielectric constant tensor:
#      x y z
#    x 1.740000 0.000000 0.000000 
#    y 0.000000 1.740000 0.000000 
#    z 0.000000 0.000000 1.734500 
# 
# From -- ./inp_files/2150.got.cif
#   From: 2010.03.12/outbox.cif.g09.slc.cpg/sg90_2_cif.got.tgz:2150.got - 2010.04.08 20:26:03.
