data_PCOD8304297
_publ_section_title
;
Structure prediction by ZEFSAII (Michael W. Deem and Ramdas Pophale) SiO2 
 PCOD8304297
Probable space group: I 41/A
;
_chemical_formula_sum "Si O2"
_cell_formula_units_Z 72
_cell_length_a 13.885147
_cell_length_b 13.885147
_cell_length_c 15.924138
_cell_angle_alpha 90.000000
_cell_angle_beta 90.000000
_cell_angle_gamma 90.000000
_cell_volume 3070.130926
_symmetry_space_group_name_H-M "I 41/A"
_symmetry_group_IT_number 88
_space_group.IT_coordinate_system_code '2'
_symmetry_cell_setting 'tetragonal'
loop_
_space_group_symop_operation_xyz
x,y,z
3/4-y,1/4+x,1/4+z
-x,1/2-y,z
1/4+y,1/4-x,1/4+z
-x,-y,-z
1/4+y,3/4-x,3/4-z
x,1/2+y,-z
3/4-y,3/4+x,3/4-z
1/2+x,1/2+y,1/2+z
1/4-y,3/4+x,3/4+z
1/2-x,-y,1/2+z
3/4+y,3/4-x,3/4+z
1/2-x,1/2-y,1/2-z
3/4+y,1/4-x,1/4-z
1/2+x,y,1/2-z
1/4-y,1/4+x,1/4-z
loop_
_atom_site_type_symbol
_atom_site_label
_atom_site_fract_x
_atom_site_fract_y
_atom_site_fract_z
Si Si1 0.549395 0.915168 0.337183
Si Si2 0.888093 0.917514 0.444984
Si Si3 0.870672 0.845908 0.265539
Si Si4 0.132195 0.784939 0.835408
Si Si5 0.500000 0.750000 0.806452
O O1 0.631164 0.935878 0.267364
O O2 0.450119 0.903834 0.286511
O O3 0.571752 0.814418 0.385878
O O4 0.547796 0.003142 0.405067
O O5 0.846897 0.900767 0.352317
O O6 0.985719 0.854553 0.459390
O O7 0.905451 0.029815 0.454254
O O8 0.103197 0.672200 0.847498
O O9 0.082073 0.810619 0.745386
#
# Coordination Sequence:
#
# PCOD8304297 Si02
#       5
#    16  16  16  16   8
#     4  12  22  41  73  96 135 187 229 295 350 412
#     4  11  24  42  70 104 138 179 230 290 354 417
#     4  11  24  42  70 104 138 179 230 290 354 417
#     4   9  23  43  62  94 141 187 235 289 342 416
#     4  10  21  40  67  98 128 188 236 270 351 410
#
# _framework density 23.451768000000001
#
# number of rings (size 3 to 8) (size 9 to 14) (size 15 to 20)
#    0.000    1.556    4.444    0.667    0.000    8.889 
#    0.000    0.000    0.000    0.000    0.000    0.000 
#    0.000    0.000    0.000    0.000    0.000    0.000 
#
# Total GULP energy -446046.468081 kJ/mol
# GULP energy per Si atom -12390.179669 kJ/mol
# Density = 2.339839 g / cm^3
# Si number density = 23.451768 Si / 1000 Ang^3
#
#
#
# Elastic Constant Matrix: (Units=GPa)
#
#
# Indices 1 2 3 4 5 6 
#
# 1 92.1106 5.9754 26.9750 0.0000 0.0000 -0.2847
# 2 5.9754 92.1106 26.9750 0.0000 0.0000 0.2847
# 3 26.9750 26.9750 139.1978 0.0000 0.0000 0.0000
# 4 0.0000 0.0000 0.0000 32.0467 0.0000 0.0000
# 5 0.0000 0.0000 0.0000 0.0000 32.0467 0.0000
# 6 -0.2847 0.2847 0.0000 0.0000 0.0000 18.7697
#
#
#
# Elastic Compliance Matrix: (Units=1/GPa)
#
#
# Indices 1 2 3 4 5 6 
#
# 1 0.011511 -0.000100 -0.002211 0.000000 0.000000 0.000176
# 2 -0.000100 0.011511 -0.002211 0.000000 0.000000 -0.000176
# 3 -0.002211 -0.002211 0.008041 0.000000 0.000000 0.000000
# 4 0.000000 0.000000 0.000000 0.031204 0.000000 0.000000
# 5 0.000000 0.000000 0.000000 0.000000 0.031204 0.000000
# 6 0.000176 -0.000176 0.000000 0.000000 0.000000 0.053283
#
#
# Mechanical properties :
#
#
# Convention : Reuss Voigt Hill
#
# Bulk Modulus (GPa) = 45.41657 49.25220 47.33438
# Shear Modulus (GPa) = 30.64863 34.13888 32.39376
#
# Velocity S-wave (km/s) = 3.61900 3.81951 3.72061
# Velocity P-wave (km/s) = 6.07214 6.36385 6.21971
#
# Compressibility (1/GPa) = 0.02201840
#
# Stress axis : x y z
#
# Youngs Moduli (GPa) = 86.87233 86.87235 124.36077
#
# Poissons Ratio (x) = 0.00866 0.27501
# Poissons Ratio (y) = 0.00866 0.27501
# Poissons Ratio (z) = 0.19211 0.19211
#
# Static dielectric constant tensor:
#      x y z
#    x 3.904650 0.000000 0.000000 
#    y 0.000000 3.904650 0.000000 
#    z 0.000000 0.000000 4.581210 
# 
# 
# High freq. dielectric constant tensor:
#      x y z
#    x 1.902950 0.000000 0.000000 
#    y 0.000000 1.902950 0.000000 
#    z 0.000000 0.000000 1.948390 
# 
# From -- ./inp_files/3821.got.cif
#   From: 2010.03.12/outbox.cif.g09.slc.cpg/sg88_2_cif.got.tgz:3821.got - 2010.04.08 20:20:55.
