data_PCOD8304023
_publ_section_title
;
Structure prediction by ZEFSAII (Michael W. Deem and Ramdas Pophale) SiO2 
 PCOD8304023
Probable space group: I 4/M
;
_chemical_formula_sum "Si O2"
_cell_formula_units_Z 88
_cell_length_a 12.245173
_cell_length_b 12.245173
_cell_length_c 29.674237
_cell_angle_alpha 90.000000
_cell_angle_beta 90.000000
_cell_angle_gamma 90.000000
_cell_volume 4449.481561
_symmetry_space_group_name_H-M "I 4/M"
_symmetry_group_IT_number 87
_symmetry_cell_setting 'tetragonal'
loop_
_space_group_symop_operation_xyz
x,y,z
-y,x,z
-x,-y,z
y,-x,z
-x,-y,-z
y,-x,-z
x,y,-z
-y,x,-z
1/2+x,1/2+y,1/2+z
1/2-y,1/2+x,1/2+z
1/2-x,1/2-y,1/2+z
1/2+y,1/2-x,1/2+z
1/2-x,1/2-y,1/2-z
1/2+y,1/2-x,1/2-z
1/2+x,1/2+y,1/2-z
1/2-y,1/2+x,1/2-z
loop_
_atom_site_type_symbol
_atom_site_label
_atom_site_fract_x
_atom_site_fract_y
_atom_site_fract_z
Si Si1 0.457500 0.164639 0.234676
Si Si2 0.779519 0.385830 0.133687
Si Si3 0.237615 0.389868 0.093057
Si Si4 0.030576 0.175520 0.807743
Si Si5 0.877928 0.488745 0.629494
Si Si6 0.154219 0.093655 0.500000
O O1 0.581774 0.120278 0.237242
O O2 0.410940 0.182953 0.184679
O O3 0.456664 0.286034 0.256179
O O4 0.695353 0.286743 0.129303
O O5 0.725060 0.490961 0.110079
O O6 0.892543 0.351524 0.107960
O O7 0.105877 0.381578 0.091761
O O8 0.281432 0.364146 0.043547
O O9 0.046481 0.286050 0.835491
O O10 0.124296 0.087802 0.818411
O O11 0.000000 0.500000 0.652505
O O12 0.036415 0.148520 0.500000
#
# Coordination Sequence:
#
# PCOD8304023 Si02
#       6
#    16  16  16  16  16   8
#     4  11  23  39  60  88 128 175 220 265 314 368
#     4  11  23  39  60  95 123 169 216 256 320 375
#     4  11  23  40  68  92 124 165 204 264 321 398
#     4  11  24  40  58  87 124 171 220 265 310 368
#     4  10  21  41  61  87 124 161 212 254 307 371
#     4  11  22  44  67  99 133 156 199 260 351 401
#
# _framework density 19.777584999999998
#
# number of rings (size 3 to 8) (size 9 to 14) (size 15 to 20)
#    0.000    1.182    3.636    3.273    5.091    1.091 
#    0.000    5.000    0.000    0.000    0.000    0.000 
#    0.000    4.364    0.000    0.000    0.000    0.000 
#
# Total GULP energy -545341.795278 kJ/mol
# GULP energy per Si atom -12394.131711 kJ/mol
# Density = 1.973257 g / cm^3
# Si number density = 19.777585 Si / 1000 Ang^3
#
#
#
# Elastic Constant Matrix: (Units=GPa)
#
#
# Indices 1 2 3 4 5 6 
#
# 1 101.6943 40.1411 37.0086 0.0000 0.0000 3.0437
# 2 40.1411 101.6943 37.0086 0.0000 0.0000 -3.0437
# 3 37.0086 37.0086 86.3349 0.0000 0.0000 0.0000
# 4 0.0000 0.0000 0.0000 25.6473 0.0000 0.0000
# 5 0.0000 0.0000 0.0000 0.0000 25.6473 0.0000
# 6 3.0437 -3.0437 0.0000 0.0000 0.0000 25.3767
#
#
#
# Elastic Compliance Matrix: (Units=1/GPa)
#
#
# Indices 1 2 3 4 5 6 
#
# 1 0.012762 -0.003680 -0.003893 0.000000 0.000000 -0.001972
# 2 -0.003680 0.012762 -0.003893 0.000000 0.000000 0.001972
# 3 -0.003893 -0.003893 0.014921 0.000000 0.000000 0.000000
# 4 0.000000 0.000000 0.000000 0.038990 0.000000 0.000000
# 5 0.000000 0.000000 0.000000 0.000000 0.038990 0.000000
# 6 -0.001972 0.001972 0.000000 0.000000 0.000000 0.039879
#
#
# Mechanical properties :
#
#
# Convention : Reuss Voigt Hill
#
# Bulk Modulus (GPa) = 57.10354 57.56001 57.33177
# Shear Modulus (GPa) = 26.72755 27.03861 26.88308
#
# Velocity S-wave (km/s) = 3.68014 3.70149 3.69083
# Velocity P-wave (km/s) = 6.85517 6.88730 6.87125
#
# Compressibility (1/GPa) = 0.01751205
#
# Stress axis : x y z
#
# Youngs Moduli (GPa) = 78.36005 78.36004 67.02179
#
# Poissons Ratio (x) = 0.28833 0.26093
# Poissons Ratio (y) = 0.28833 0.26093
# Poissons Ratio (z) = 0.30507 0.30507
#
# Static dielectric constant tensor:
#      x y z
#    x 3.813710 0.000000 0.000000 
#    y 0.000000 3.813710 0.000000 
#    z 0.000000 0.000000 3.214440 
# 
# 
# High freq. dielectric constant tensor:
#      x y z
#    x 1.782760 0.000000 0.000000 
#    y 0.000000 1.782760 0.000000 
#    z 0.000000 0.000000 1.729000 
# 
# From -- ./inp_files/6567.got.cif
#   From: 2010.03.12/outbox.cif.g09.slc.cpg/sg87_4_cif.got.tgz:6567.got - 2010.04.08 20:16:13.
