data_PCOD8304818
_publ_section_title
;
Structure prediction by ZEFSAII (Michael W. Deem and Ramdas Pophale) SiO2 
 PCOD8304818
Probable space group: P 41 2 2
;
_chemical_formula_sum "Si O2"
_cell_formula_units_Z 60
_cell_length_a 18.549525
_cell_length_b 18.549525
_cell_length_c 9.392525
_cell_angle_alpha 90.000000
_cell_angle_beta 90.000000
_cell_angle_gamma 90.000000
_cell_volume 3231.825816
_symmetry_space_group_name_H-M "P 41 2 2"
_symmetry_group_IT_number 91
_symmetry_cell_setting 'tetragonal'
loop_
_space_group_symop_operation_xyz
x,y,z
-y,x,1/4+z
-x,-y,1/2+z
y,-x,3/4+z
x,-y,1/2-z
-x,y,-z
y,x,3/4-z
-y,-x,1/4-z
loop_
_atom_site_type_symbol
_atom_site_label
_atom_site_fract_x
_atom_site_fract_y
_atom_site_fract_z
Si Si1 0.731959 0.418246 0.509635
Si Si2 0.337506 0.066977 0.157317
Si Si3 0.130013 0.488089 0.583571
Si Si4 0.630181 0.383354 0.960664
Si Si5 0.305841 0.227582 0.748076
Si Si6 0.362103 0.070968 0.828083
Si Si7 0.795809 0.737708 0.007247
Si Si8 0.344830 0.500000 0.250000
O O1 0.789425 0.481847 0.478994
O O2 0.681348 0.412234 0.368838
O O3 0.765870 0.340374 0.537372
O O4 0.696941 0.438941 0.660292
O O5 0.415285 0.090922 0.215314
O O6 0.274070 0.124694 0.180949
O O7 0.311577 0.000000 0.250000
O O8 0.347932 0.051667 0.991351
O O9 0.139076 0.500000 0.750000
O O10 0.082708 0.555018 0.528123
O O11 0.717595 0.371536 0.960239
O O12 0.611072 0.455550 0.870247
O O13 0.605243 0.394757 0.125000
O O14 0.326471 0.146792 0.789056
O O15 0.251716 0.220104 0.619618
O O16 0.264168 0.264168 0.875000
O O17 0.331260 0.000000 0.750000
O O18 0.792704 0.792704 0.875000
#
# Coordination Sequence:
#
# PCOD8304818 Si02
#       8
#     8   8   8   8   8   8   8   4
#     4  10  21  37  57  85 112 145 196 249 294 345
#     4  10  21  37  51  79 119 161 187 234 288 344
#     4   9  20  35  57  79 116 159 197 231 285 355
#     4  10  23  37  62  86 109 146 197 251 305 359
#     4  10  19  37  58  83 114 152 201 244 288 337
#     4  11  22  36  57  86 120 156 193 235 288 356
#     4  10  20  35  57  81 111 149 197 244 281 335
#     4  12  22  36  56  86 116 132 180 246 312 352
#
# _framework density 18.565356999999999
#
# number of rings (size 3 to 8) (size 9 to 14) (size 15 to 20)
#    0.000    1.867    1.333    3.200    9.333    0.000 
#    2.400    0.000    1.467    6.400    0.000    0.000 
#    0.000    3.200    0.000    0.000    0.000    0.000 
#
# Total GULP energy -743378.373342 kJ/mol
# GULP energy per Si atom -12389.639556 kJ/mol
# Density = 1.852310 g / cm^3
# Si number density = 18.565357 Si / 1000 Ang^3
#
#
#
# Elastic Constant Matrix: (Units=GPa)
#
#
# Indices 1 2 3 4 5 6 
#
# 1 68.2069 30.3408 34.3272 0.0000 0.0000 0.0000
# 2 30.3408 68.2069 34.3272 0.0000 0.0000 0.0000
# 3 34.3272 34.3272 105.7439 0.0000 0.0000 0.0000
# 4 0.0000 0.0000 0.0000 28.3566 0.0000 0.0000
# 5 0.0000 0.0000 0.0000 0.0000 28.3566 0.0000
# 6 0.0000 0.0000 0.0000 0.0000 0.0000 3.6364
#
#
#
# Elastic Compliance Matrix: (Units=1/GPa)
#
#
# Indices 1 2 3 4 5 6 
#
# 1 0.019761 -0.006648 -0.004257 0.000000 0.000000 0.000000
# 2 -0.006648 0.019761 -0.004257 0.000000 0.000000 0.000000
# 3 -0.004257 -0.004257 0.012221 0.000000 0.000000 0.000000
# 4 0.000000 0.000000 0.000000 0.035265 0.000000 0.000000
# 5 0.000000 0.000000 0.000000 0.000000 0.035265 0.000000
# 6 0.000000 0.000000 0.000000 0.000000 0.000000 0.274998
#
#
# Mechanical properties :
#
#
# Convention : Reuss Voigt Hill
#
# Bulk Modulus (GPa) = 46.68711 48.90536 47.79624
# Shear Modulus (GPa) = 11.50131 21.61409 16.55770
#
# Velocity S-wave (km/s) = 2.49168 3.41576 2.98964
# Velocity P-wave (km/s) = 5.78619 6.47735 6.14150
#
# Compressibility (1/GPa) = 0.02141919
#
# Stress axis : x y z
#
# Youngs Moduli (GPa) = 50.60506 50.60506 81.82943
#
# Poissons Ratio (x) = 0.33642 0.34833
# Poissons Ratio (y) = 0.33642 0.34833
# Poissons Ratio (z) = 0.21542 0.21542
#
# Static dielectric constant tensor:
#      x y z
#    x 3.302290 0.000000 0.000000 
#    y 0.000000 3.302290 0.000000 
#    z 0.000000 0.000000 3.524660 
# 
# 
# High freq. dielectric constant tensor:
#      x y z
#    x 1.694700 0.000000 0.000000 
#    y 0.000000 1.694700 0.000000 
#    z 0.000000 0.000000 1.736410 
# 
# From -- ./inp_files/15306.got.cif
#   From: 2010.03.12/outbox.cif.g09.slc.cpg/sg91_8_cif.got.tgz:15306.got - 2010.04.08 20:27:58.
