data_PCOD8304351
_publ_section_title
;
Structure prediction by ZEFSAII (Michael W. Deem and Ramdas Pophale) SiO2 
 PCOD8304351
Probable space group: I 41/A
;
_chemical_formula_sum "Si O2"
_cell_formula_units_Z 116
_cell_length_a 17.553591
_cell_length_b 17.553591
_cell_length_c 16.904918
_cell_angle_alpha 90.000000
_cell_angle_beta 90.000000
_cell_angle_gamma 90.000000
_cell_volume 5208.887989
_symmetry_space_group_name_H-M "I 41/A"
_symmetry_group_IT_number 88
_space_group.IT_coordinate_system_code '2'
_symmetry_cell_setting 'tetragonal'
loop_
_space_group_symop_operation_xyz
x,y,z
3/4-y,1/4+x,1/4+z
-x,1/2-y,z
1/4+y,1/4-x,1/4+z
-x,-y,-z
1/4+y,3/4-x,3/4-z
x,1/2+y,-z
3/4-y,3/4+x,3/4-z
1/2+x,1/2+y,1/2+z
1/4-y,3/4+x,3/4+z
1/2-x,-y,1/2+z
3/4+y,3/4-x,3/4+z
1/2-x,1/2-y,1/2-z
3/4+y,1/4-x,1/4-z
1/2+x,y,1/2-z
1/4-y,1/4+x,1/4-z
loop_
_atom_site_type_symbol
_atom_site_label
_atom_site_fract_x
_atom_site_fract_y
_atom_site_fract_z
Si Si1 0.876689 0.211055 0.881492
Si Si2 0.347811 0.715900 0.562000
Si Si3 0.000000 0.750000 0.875000
Si Si4 0.441704 0.504232 0.571777
Si Si5 0.924968 0.672327 0.411543
Si Si6 0.184971 0.532228 0.791352
Si Si7 0.642745 0.492305 0.881452
Si Si8 0.461781 0.853421 0.334556
O O1 0.808365 0.165421 0.837318
O O2 0.893286 0.293171 0.845590
O O3 0.956711 0.165391 0.874631
O O4 0.842188 0.225324 0.968292
O O5 0.438341 0.705638 0.572703
O O6 0.317843 0.786789 0.612958
O O7 0.300249 0.641854 0.591813
O O8 0.500000 0.500000 0.500000
O O9 0.361931 0.521917 0.529499
O O10 0.432962 0.428323 0.622789
O O11 0.907974 0.732824 0.339587
O O12 0.882759 0.592273 0.403772
O O13 0.892596 0.716578 0.489295
O O14 0.243045 0.475149 0.831604
O O15 0.154627 0.496131 0.711278
#
# Coordination Sequence:
#
# PCOD8304351 Si02
#       8
#    16  16   4  16  16  16  16  16
#     4  10  23  44  70 104 140 189 238 303 366 455
#     4  11  23  40  68 102 141 195 243 292 360 444
#     4  12  20  36  68 100 136 192 258 280 352 452
#     4  12  26  43  68 105 152 194 242 303 368 443
#     4  11  27  50  78 106 139 192 251 318 378 456
#     4  11  25  45  65 102 144 192 231 310 364 437
#     4  11  27  45  75 100 147 189 247 298 386 434
#     4  11  25  45  75 107 145 190 252 304 383 447
#
# _framework density 22.269629999999999
#
# number of rings (size 3 to 8) (size 9 to 14) (size 15 to 20)
#    0.000    0.966    1.379    5.793   11.586    2.759 
#    0.000    0.000    0.000    0.000    0.000    0.000 
#    0.000    0.000    0.000    0.000    0.000    0.000 
#
# Total GULP energy -718704.549050 kJ/mol
# GULP energy per Si atom -12391.457742 kJ/mol
# Density = 2.221894 g / cm^3
# Si number density = 22.269630 Si / 1000 Ang^3
#
#
#
# Elastic Constant Matrix: (Units=GPa)
#
#
# Indices 1 2 3 4 5 6 
#
# 1 123.1388 42.5715 24.0763 0.0000 0.0000 -3.2532
# 2 42.5715 123.1388 24.0763 0.0000 0.0000 3.2532
# 3 24.0763 24.0763 73.8954 0.0000 0.0000 0.0000
# 4 0.0000 0.0000 0.0000 33.1175 0.0000 0.0000
# 5 0.0000 0.0000 0.0000 0.0000 33.1175 0.0000
# 6 -3.2532 3.2532 0.0000 0.0000 0.0000 43.8697
#
#
#
# Elastic Compliance Matrix: (Units=1/GPa)
#
#
# Indices 1 2 3 4 5 6 
#
# 1 0.009576 -0.002911 -0.002172 0.000000 0.000000 0.000926
# 2 -0.002911 0.009576 -0.002172 0.000000 0.000000 -0.000926
# 3 -0.002172 -0.002172 0.014948 0.000000 0.000000 0.000000
# 4 0.000000 0.000000 0.000000 0.030196 0.000000 0.000000
# 5 0.000000 0.000000 0.000000 0.000000 0.030196 0.000000
# 6 0.000926 -0.000926 0.000000 0.000000 0.000000 0.022932
#
#
# Mechanical properties :
#
#
# Convention : Reuss Voigt Hill
#
# Bulk Modulus (GPa) = 51.04099 55.73569 53.38834
# Shear Modulus (GPa) = 36.11087 37.31752 36.71419
#
# Velocity S-wave (km/s) = 4.03119 4.09799 4.06473
# Velocity P-wave (km/s) = 6.68107 6.89009 6.78638
#
# Compressibility (1/GPa) = 0.01959210
#
# Stress axis : x y z
#
# Youngs Moduli (GPa) = 104.42508 104.42508 66.89919
#
# Poissons Ratio (x) = 0.30393 0.14529
# Poissons Ratio (y) = 0.30393 0.14529
# Poissons Ratio (z) = 0.22679 0.22679
#
# Static dielectric constant tensor:
#      x y z
#    x 4.189260 0.000000 0.000000 
#    y 0.000000 4.189260 0.000000 
#    z 0.000000 0.000000 3.939880 
# 
# 
# High freq. dielectric constant tensor:
#      x y z
#    x 1.881980 0.000000 0.000000 
#    y 0.000000 1.881980 0.000000 
#    z 0.000000 0.000000 1.870690 
# 
# From -- ./inp_files/4020.got.cif
#   From: 2010.03.12/outbox.cif.g09.slc.cpg/sg88_3_cif.got.tgz:4020.got - 2010.04.08 20:20:55.
