data_PCOD8304926
_publ_section_title
;
Structure prediction by ZEFSAII (Michael W. Deem and Ramdas Pophale) SiO2 
 PCOD8304926
Probable space group: P 41 2 2
;
_chemical_formula_sum "Si O2"
_cell_formula_units_Z 40
_cell_length_a 9.813655
_cell_length_b 9.813655
_cell_length_c 20.403305
_cell_angle_alpha 90.000000
_cell_angle_beta 90.000000
_cell_angle_gamma 90.000000
_cell_volume 1964.997916
_symmetry_space_group_name_H-M "P 41 2 2"
_symmetry_group_IT_number 91
_symmetry_cell_setting 'tetragonal'
loop_
_space_group_symop_operation_xyz
x,y,z
-y,x,1/4+z
-x,-y,1/2+z
y,-x,3/4+z
x,-y,1/2-z
-x,y,-z
y,x,3/4-z
-y,-x,1/4-z
loop_
_atom_site_type_symbol
_atom_site_label
_atom_site_fract_x
_atom_site_fract_y
_atom_site_fract_z
Si Si1 0.445503 0.986900 0.852508
Si Si2 0.613127 0.616179 0.949828
Si Si3 0.614220 0.789756 0.256397
Si Si4 0.897250 0.654286 0.269496
Si Si5 0.274645 0.894854 0.086637
O O1 0.461955 0.130462 0.815036
O O2 0.352870 0.008592 0.916397
O O3 0.360290 0.885051 0.806663
O O4 0.593809 0.922421 0.866959
O O5 0.571993 0.571993 0.875000
O O6 0.711349 0.746812 0.947385
O O7 0.500000 0.669527 0.000000
O O8 0.669039 0.483383 0.985601
O O9 0.757948 0.733832 0.282325
O O10 0.861432 0.500000 0.250000
O O11 0.982369 0.736228 0.214581
O O12 0.129333 0.870668 0.125000
#
# Coordination Sequence:
#
# PCOD8304926 Si02
#       5
#     8   8   8   8   8
#     4  10  21  41  62  84 131 168 210 265 328 393
#     4  11  22  37  63  97 129 161 219 278 334 395
#     4  11  22  38  63  92 122 173 216 261 330 396
#     4  10  22  40  63  91 133 168 211 272 334 389
#     4  10  20  42  64  93 122 174 216 266 337 397
#
# _framework density 20.356255999999998
#
# number of rings (size 3 to 8) (size 9 to 14) (size 15 to 20)
#    0.000    1.600    4.000    3.000    0.000    4.800 
#    0.000    4.000    0.000    0.000    0.000    0.000 
#    0.000    0.000    0.000    0.000    0.000    0.000 
#
# Total GULP energy -495678.741131 kJ/mol
# GULP energy per Si atom -12391.968528 kJ/mol
# Density = 2.030992 g / cm^3
# Si number density = 20.356256 Si / 1000 Ang^3
#
#
#
# Elastic Constant Matrix: (Units=GPa)
#
#
# Indices 1 2 3 4 5 6 
#
# 1 75.2773 39.0508 18.9398 0.0000 0.0000 0.0000
# 2 39.0508 75.2769 18.9396 0.0000 0.0000 0.0000
# 3 18.9398 18.9396 69.8166 0.0000 0.0000 0.0000
# 4 0.0000 0.0000 0.0000 19.1610 0.0000 0.0000
# 5 0.0000 0.0000 0.0000 0.0000 19.1615 0.0000
# 6 0.0000 0.0000 0.0000 0.0000 0.0000 32.8473
#
#
#
# Elastic Compliance Matrix: (Units=1/GPa)
#
#
# Indices 1 2 3 4 5 6 
#
# 1 0.018607 -0.008997 -0.002607 0.000000 0.000000 0.000000
# 2 -0.008997 0.018607 -0.002607 0.000000 0.000000 0.000000
# 3 -0.002607 -0.002607 0.015738 0.000000 0.000000 0.000000
# 4 0.000000 0.000000 0.000000 0.052189 0.000000 0.000000
# 5 0.000000 0.000000 0.000000 0.000000 0.052188 0.000000
# 6 0.000000 0.000000 0.000000 0.000000 0.000000 0.030444
#
#
# Mechanical properties :
#
#
# Convention : Reuss Voigt Hill
#
# Bulk Modulus (GPa) = 40.76582 41.58126 41.17354
# Shear Modulus (GPa) = 22.28432 23.79665 23.04048
#
# Velocity S-wave (km/s) = 3.31224 3.42279 3.36797
# Velocity P-wave (km/s) = 5.89046 6.00764 5.94934
#
# Compressibility (1/GPa) = 0.02453035
#
# Stress axis : x y z
#
# Youngs Moduli (GPa) = 53.74206 53.74188 63.54149
#
# Poissons Ratio (x) = 0.48351 0.16566
# Poissons Ratio (y) = 0.48351 0.16566
# Poissons Ratio (z) = 0.14011 0.14011
#
# Static dielectric constant tensor:
#      x y z
#    x 3.589900 0.000000 0.000000 
#    y 0.000000 3.589900 0.000000 
#    z 0.000000 0.000000 4.075860 
# 
# 
# High freq. dielectric constant tensor:
#      x y z
#    x 1.781500 0.000000 0.000000 
#    y 0.000000 1.781510 0.000000 
#    z 0.000000 0.000000 1.808490 
# 
# From -- ./inp_files/6788.got.cif
#   From: 2010.03.12/outbox.cif.g09.slc.cpg/sg91_4_cif.got.tgz:6788.got - 2010.04.08 20:27:58.
