data_PCOD8304375
_publ_section_title
;
Structure prediction by ZEFSAII (Michael W. Deem and Ramdas Pophale) SiO2 
 PCOD8304375
Probable space group: I 41/A
;
_chemical_formula_sum "Si O2"
_cell_formula_units_Z 96
_cell_length_a 24.601433
_cell_length_b 24.601433
_cell_length_c 7.823779
_cell_angle_alpha 90.000000
_cell_angle_beta 90.000000
_cell_angle_gamma 90.000000
_cell_volume 4735.189720
_symmetry_space_group_name_H-M "I 41/A"
_symmetry_group_IT_number 88
_space_group.IT_coordinate_system_code '2'
_symmetry_cell_setting 'tetragonal'
loop_
_space_group_symop_operation_xyz
x,y,z
3/4-y,1/4+x,1/4+z
-x,1/2-y,z
1/4+y,1/4-x,1/4+z
-x,-y,-z
1/4+y,3/4-x,3/4-z
x,1/2+y,-z
3/4-y,3/4+x,3/4-z
1/2+x,1/2+y,1/2+z
1/4-y,3/4+x,3/4+z
1/2-x,-y,1/2+z
3/4+y,3/4-x,3/4+z
1/2-x,1/2-y,1/2-z
3/4+y,1/4-x,1/4-z
1/2+x,y,1/2-z
1/4-y,1/4+x,1/4-z
loop_
_atom_site_type_symbol
_atom_site_label
_atom_site_fract_x
_atom_site_fract_y
_atom_site_fract_z
Si Si1 0.457043 0.933081 0.247712
Si Si2 0.808362 0.815525 0.062407
Si Si3 0.844244 0.130746 0.199724
Si Si4 0.448496 0.922846 0.866741
Si Si5 0.257417 0.929904 0.897047
Si Si6 0.075994 0.453167 0.687082
O O1 0.426240 0.902418 0.401748
O O2 0.522655 0.926309 0.277897
O O3 0.439358 0.996008 0.245609
O O4 0.440496 0.905161 0.065559
O O5 0.840455 0.758753 0.049835
O O6 0.821137 0.838639 0.251840
O O7 0.836937 0.858329 0.940629
O O8 0.787409 0.098466 0.223407
O O9 0.853542 0.156072 0.012119
O O10 0.443289 0.986909 0.857548
O O11 0.292477 0.976348 0.806520
O O12 0.298715 0.881949 0.955889
#
# Coordination Sequence:
#
# PCOD8304375 Si02
#       6
#    16  16  16  16  16  16
#     4   9  18  37  58  76 111 142 185 248 273 321
#     4   9  18  33  56  79 108 142 179 233 291 327
#     4  11  21  33  57  85 103 147 191 224 281 339
#     4   8  18  36  52  80 108 136 186 237 276 330
#     4  11  25  37  50  79 120 158 188 222 275 345
#     4   8  18  36  57  76 103 152 194 226 278 324
#
# _framework density 20.273737000000001
#
# number of rings (size 3 to 8) (size 9 to 14) (size 15 to 20)
#    0.000    2.667    0.000    3.000    2.333   11.333 
#    0.000    3.333    0.000    0.500    0.000    0.000 
#    0.000    0.000    0.000    0.000    0.000    0.000 
#
# Total GULP energy -594695.201736 kJ/mol
# GULP energy per Si atom -12389.483369 kJ/mol
# Density = 2.022759 g / cm^3
# Si number density = 20.273737 Si / 1000 Ang^3
#
#
#
# Elastic Constant Matrix: (Units=GPa)
#
#
# Indices 1 2 3 4 5 6 
#
# 1 52.6351 16.4487 42.5340 0.0000 0.0000 -3.6766
# 2 16.4487 52.6351 42.5340 0.0000 0.0000 3.6766
# 3 42.5340 42.5340 93.7798 0.0000 0.0000 0.0000
# 4 0.0000 0.0000 0.0000 27.2759 0.0000 0.0000
# 5 0.0000 0.0000 0.0000 0.0000 27.2759 0.0000
# 6 -3.6766 3.6766 0.0000 0.0000 0.0000 16.6843
#
#
#
# Elastic Compliance Matrix: (Units=1/GPa)
#
#
# Indices 1 2 3 4 5 6 
#
# 1 0.030858 0.001928 -0.014870 0.000000 0.000000 0.006375
# 2 0.001928 0.030858 -0.014870 0.000000 0.000000 -0.006375
# 3 -0.014870 -0.014870 0.024152 0.000000 0.000000 0.000000
# 4 0.000000 0.000000 0.000000 0.036662 0.000000 0.000000
# 5 0.000000 0.000000 0.000000 0.000000 0.036662 0.000000
# 6 0.006375 -0.006375 0.000000 0.000000 0.000000 0.062746
#
#
# Mechanical properties :
#
#
# Convention : Reuss Voigt Hill
#
# Bulk Modulus (GPa) = 33.06522 44.67597 38.87060
# Shear Modulus (GPa) = 17.38257 20.74943 19.06600
#
# Velocity S-wave (km/s) = 2.93130 3.20263 3.06997
# Velocity P-wave (km/s) = 5.27272 5.97997 5.63744
#
# Compressibility (1/GPa) = 0.03024325
#
# Stress axis : x y z
#
# Youngs Moduli (GPa) = 32.40660 32.40660 41.40454
#
# Poissons Ratio (x) = -0.06247 0.61569
# Poissons Ratio (y) = -0.06247 0.61569
# Poissons Ratio (z) = 0.48189 0.48189
#
# Static dielectric constant tensor:
#      x y z
#    x 3.809280 0.000000 0.000000 
#    y 0.000000 3.809280 0.000000 
#    z 0.000000 0.000000 4.764070 
# 
# 
# High freq. dielectric constant tensor:
#      x y z
#    x 1.767560 0.000000 0.000000 
#    y 0.000000 1.767560 0.000000 
#    z 0.000000 0.000000 1.798980 
# 
# From -- ./inp_files/1721.got.cif
#   From: 2010.03.12/outbox.cif.g09.slc.cpg/sg88_1_cif.got.tgz:1721.got - 2010.04.08 20:20:55.
