data_PCOD8304213
_publ_section_title
;
Structure prediction by ZEFSAII (Michael W. Deem and Ramdas Pophale) SiO2 
 PCOD8304213
Probable space group: I 41/A
;
_chemical_formula_sum "Si O2"
_cell_formula_units_Z 48
_cell_length_a 17.975980
_cell_length_b 17.975980
_cell_length_c 7.504889
_cell_angle_alpha 90.000000
_cell_angle_beta 90.000000
_cell_angle_gamma 90.000000
_cell_volume 2425.098738
_symmetry_space_group_name_H-M "I 41/A"
_symmetry_group_IT_number 88
_space_group.IT_coordinate_system_code '2'
_symmetry_cell_setting 'tetragonal'
loop_
_space_group_symop_operation_xyz
x,y,z
3/4-y,1/4+x,1/4+z
-x,1/2-y,z
1/4+y,1/4-x,1/4+z
-x,-y,-z
1/4+y,3/4-x,3/4-z
x,1/2+y,-z
3/4-y,3/4+x,3/4-z
1/2+x,1/2+y,1/2+z
1/4-y,3/4+x,3/4+z
1/2-x,-y,1/2+z
3/4+y,3/4-x,3/4+z
1/2-x,1/2-y,1/2-z
3/4+y,1/4-x,1/4-z
1/2+x,y,1/2-z
1/4-y,1/4+x,1/4-z
loop_
_atom_site_type_symbol
_atom_site_label
_atom_site_fract_x
_atom_site_fract_y
_atom_site_fract_z
Si Si1 0.085710 0.335723 0.624994
Si Si2 0.164554 0.451584 0.843386
Si Si3 0.201570 0.914561 0.593411
O O1 0.100879 0.250008 0.668488
O O2 0.111056 0.383148 0.796781
O O3 0.133127 0.361072 0.453196
O O4 0.250011 0.623825 0.749986
O O5 0.172857 0.505155 0.668332
O O6 0.255144 0.922854 0.418359
#
# Coordination Sequence:
#
# PCOD8304213 Si02
#       3
#    16  16  16
#     4  11  24  38  52  78 116 150 180 221 274 326
#     4  10  19  36  61  85 107 138 185 231 269 320
#     4  10  19  36  61  85 107 138 185 231 269 320
#
# _framework density 19.793008
#
# number of rings (size 3 to 8) (size 9 to 14) (size 15 to 20)
#    0.000    1.667    0.000   10.000    0.000    6.667 
#    0.000   10.000    0.000   16.000    0.000    0.000 
#    0.000    0.000    0.000    0.000    0.000    0.000 
#
# Total GULP energy -297342.859072 kJ/mol
# GULP energy per Si atom -12389.285795 kJ/mol
# Density = 1.974796 g / cm^3
# Si number density = 19.793008 Si / 1000 Ang^3
#
#
#
# Elastic Constant Matrix: (Units=GPa)
#
#
# Indices 1 2 3 4 5 6 
#
# 1 124.6956 107.8501 66.8608 0.0000 0.0000 0.0009
# 2 107.8501 124.6956 66.8608 0.0000 0.0000 -0.0009
# 3 66.8608 66.8608 137.0247 0.0000 0.0000 0.0000
# 4 0.0000 0.0000 0.0000 26.1296 0.0000 0.0000
# 5 0.0000 0.0000 0.0000 0.0000 26.1296 0.0000
# 6 0.0009 -0.0009 0.0000 0.0000 0.0000 41.0964
#
#
#
# Elastic Compliance Matrix: (Units=1/GPa)
#
#
# Indices 1 2 3 4 5 6 
#
# 1 0.032670 -0.026693 -0.002917 0.000000 0.000000 -0.000001
# 2 -0.026693 0.032670 -0.002917 0.000000 0.000000 0.000001
# 3 -0.002917 -0.002917 0.010144 0.000000 0.000000 0.000000
# 4 0.000000 0.000000 0.000000 0.038271 0.000000 0.000000
# 5 0.000000 0.000000 0.000000 0.000000 0.038271 0.000000
# 6 -0.000001 0.000001 0.000000 0.000000 0.000000 0.024333
#
#
# Mechanical properties :
#
#
# Convention : Reuss Voigt Hill
#
# Bulk Modulus (GPa) = 95.85445 96.61770 96.23607
# Shear Modulus (GPa) = 20.41740 28.32738 24.37239
#
# Velocity S-wave (km/s) = 3.21525 3.78720 3.51289
# Velocity P-wave (km/s) = 7.89414 8.24887 8.07345
#
# Compressibility (1/GPa) = 0.01043248
#
# Stress axis : x y z
#
# Youngs Moduli (GPa) = 30.60892 30.60892 98.57741
#
# Poissons Ratio (x) = 0.81704 0.28752
# Poissons Ratio (y) = 0.81704 0.28752
# Poissons Ratio (z) = 0.08928 0.08928
#
# Static dielectric constant tensor:
#      x y z
#    x 3.468450 0.000000 0.000000 
#    y 0.000000 3.468450 0.000000 
#    z 0.000000 0.000000 3.900580 
# 
# 
# High freq. dielectric constant tensor:
#      x y z
#    x 1.756980 0.000000 0.000000 
#    y 0.000000 1.756980 0.000000 
#    z 0.000000 0.000000 1.792590 
# 
# From -- ./inp_files/1155.got.cif
#   From: 2010.03.12/outbox.cif.g09.slc.cpg/sg88_1_cif.got.tgz:1155.got - 2010.04.08 20:20:55.
