data_PCOD8304783
_publ_section_title
;
Structure prediction by ZEFSAII (Michael W. Deem and Ramdas Pophale) SiO2 
 PCOD8304783
Probable space group: P 41 2 2
;
_chemical_formula_sum "Si O2"
_cell_formula_units_Z 32
_cell_length_a 8.539711
_cell_length_b 8.539711
_cell_length_c 21.317197
_cell_angle_alpha 90.000000
_cell_angle_beta 90.000000
_cell_angle_gamma 90.000000
_cell_volume 1554.592062
_symmetry_space_group_name_H-M "P 41 2 2"
_symmetry_group_IT_number 91
_symmetry_cell_setting 'tetragonal'
loop_
_space_group_symop_operation_xyz
x,y,z
-y,x,1/4+z
-x,-y,1/2+z
y,-x,3/4+z
x,-y,1/2-z
-x,y,-z
y,x,3/4-z
-y,-x,1/4-z
loop_
_atom_site_type_symbol
_atom_site_label
_atom_site_fract_x
_atom_site_fract_y
_atom_site_fract_z
Si Si1 0.174093 0.181839 0.189580
Si Si2 0.192460 0.182371 0.807584
Si Si3 0.156305 0.692554 0.067678
Si Si4 0.843879 0.329633 0.934166
O O1 0.264380 0.239780 0.251897
O O2 0.242210 0.280967 0.130450
O O3 0.991277 0.213902 0.200733
O O4 0.204771 0.999662 0.175786
O O5 0.252239 0.252239 0.875000
O O6 0.285671 0.255488 0.747519
O O7 0.222163 0.997153 0.811484
O O8 0.272418 0.727583 0.125000
O O9 0.111635 0.510866 0.066873
#
# Coordination Sequence:
#
# PCOD8304783 Si02
#       4
#     8   8   8   8
#     4  10  19  34  59  83 107 136 178 229 270 317
#     4   9  16  30  54  83 107 130 169 223 272 311
#     4  11  21  34  55  80 107 141 180 219 266 319
#     4  10  19  32  53  80 111 137 172 223 271 317
#
# _framework density 20.584178000000001
#
# number of rings (size 3 to 8) (size 9 to 14) (size 15 to 20)
#    0.000    2.000    0.000    9.750    0.000    1.000 
#    0.000    0.000    0.000   25.500    0.000    0.000 
#    0.000    0.000    0.000    0.000    0.000    0.000 
#
# Total GULP energy -396529.280045 kJ/mol
# GULP energy per Si atom -12391.540001 kJ/mol
# Density = 2.053733 g / cm^3
# Si number density = 20.584178 Si / 1000 Ang^3
#
#
#
# Elastic Constant Matrix: (Units=GPa)
#
#
# Indices 1 2 3 4 5 6 
#
# 1 49.8142 7.1487 39.4646 0.0000 0.0000 0.0000
# 2 7.1487 49.8146 39.4657 0.0000 0.0000 0.0000
# 3 39.4646 39.4657 230.5952 0.0000 0.0000 0.0000
# 4 0.0000 0.0000 0.0000 13.1661 0.0000 0.0000
# 5 0.0000 0.0000 0.0000 0.0000 13.1660 0.0000
# 6 0.0000 0.0000 0.0000 0.0000 0.0000 1.1515
#
#
#
# Elastic Compliance Matrix: (Units=1/GPa)
#
#
# Indices 1 2 3 4 5 6 
#
# 1 0.023225 -0.000213 -0.003938 0.000000 0.000000 0.000000
# 2 -0.000213 0.023225 -0.003939 0.000000 0.000000 0.000000
# 3 -0.003938 -0.003939 0.005685 0.000000 0.000000 0.000000
# 4 0.000000 0.000000 0.000000 0.075953 0.000000 0.000000
# 5 0.000000 0.000000 0.000000 0.000000 0.075953 0.000000
# 6 0.000000 0.000000 0.000000 0.000000 0.000000 0.868396
#
#
# Mechanical properties :
#
#
# Convention : Reuss Voigt Hill
#
# Bulk Modulus (GPa) = 27.81188 55.82022 41.81605
# Shear Modulus (GPa) = 4.54297 21.77307 13.15802
#
# Velocity S-wave (km/s) = 1.48722 3.25585 2.53104
# Velocity P-wave (km/s) = 4.06075 6.42736 5.37590
#
# Compressibility (1/GPa) = 0.03595586
#
# Stress axis : x y z
#
# Youngs Moduli (GPa) = 43.05648 43.05653 175.91076
#
# Poissons Ratio (x) = 0.00916 0.69281
# Poissons Ratio (y) = 0.00916 0.69283
# Poissons Ratio (z) = 0.16957 0.16958
#
# Static dielectric constant tensor:
#      x y z
#    x 3.220100 0.000000 0.000000 
#    y 0.000000 3.220100 0.000000 
#    z 0.000000 0.000000 5.264500 
# 
# 
# High freq. dielectric constant tensor:
#      x y z
#    x 1.758670 0.000000 0.000000 
#    y 0.000000 1.758670 0.000000 
#    z 0.000000 0.000000 1.851440 
# 
# From -- ./inp_files/6634.got.cif
#   From: 2010.03.12/outbox.cif.g09.slc.cpg/sg91_4_cif.got.tgz:6634.got - 2010.04.08 20:27:58.
