data_PCOD8304044
_publ_section_title
;
Structure prediction by ZEFSAII (Michael W. Deem and Ramdas Pophale) SiO2 
 PCOD8304044
Probable space group: I 4/M
;
_chemical_formula_sum "Si O2"
_cell_formula_units_Z 56
_cell_length_a 10.797871
_cell_length_b 10.797871
_cell_length_c 23.024241
_cell_angle_alpha 90.000000
_cell_angle_beta 90.000000
_cell_angle_gamma 90.000000
_cell_volume 2684.488773
_symmetry_space_group_name_H-M "I 4/M"
_symmetry_group_IT_number 87
_symmetry_cell_setting 'tetragonal'
loop_
_space_group_symop_operation_xyz
x,y,z
-y,x,z
-x,-y,z
y,-x,z
-x,-y,-z
y,-x,-z
x,y,-z
-y,x,-z
1/2+x,1/2+y,1/2+z
1/2-y,1/2+x,1/2+z
1/2-x,1/2-y,1/2+z
1/2+y,1/2-x,1/2+z
1/2-x,1/2-y,1/2-z
1/2+y,1/2-x,1/2-z
1/2+x,1/2+y,1/2-z
1/2-y,1/2+x,1/2-z
loop_
_atom_site_type_symbol
_atom_site_label
_atom_site_fract_x
_atom_site_fract_y
_atom_site_fract_z
Si Si1 0.681189 0.580043 0.341737
Si Si2 0.481505 0.295672 0.000000
Si Si3 0.554894 0.862617 0.886507
Si Si4 0.186708 0.459406 0.232653
O O1 0.562842 0.660314 0.359474
O O2 0.797662 0.631866 0.377260
O O3 0.699477 0.592925 0.271169
O O4 0.610952 0.367058 0.000000
O O5 0.476667 0.207997 0.944660
O O6 0.495257 0.782039 0.833628
O O7 0.500000 0.000000 0.887873
O O8 0.077431 0.358962 0.230087
#
# Coordination Sequence:
#
# PCOD8304044 Si02
#       4
#    16   8  16  16
#     4  10  22  37  60 100 136 165 210 264 320 393
#     4  11  29  48  66  95 124 164 228 279 317 378
#     4  11  22  42  69  91 127 175 218 259 330 385
#     4   9  16  34  59  92 125 161 208 247 306 382
#
# _framework density 20.860582000000001
#
# number of rings (size 3 to 8) (size 9 to 14) (size 15 to 20)
#    0.000    1.857    5.714    0.429    4.000    6.857 
#    0.000    2.857    0.000    1.714    0.000    0.000 
#    0.000    0.000    0.000    0.000    0.000    0.000 
#
# Total GULP energy -347093.759000 kJ/mol
# GULP energy per Si atom -12396.205679 kJ/mol
# Density = 2.081310 g / cm^3
# Si number density = 20.860582 Si / 1000 Ang^3
#
#
#
# Elastic Constant Matrix: (Units=GPa)
#
#
# Indices 1 2 3 4 5 6 
#
# 1 45.1061 -12.4142 16.5424 0.0000 0.0000 1.6423
# 2 -12.4142 45.1061 16.5424 0.0000 0.0000 -1.6423
# 3 16.5424 16.5424 131.9530 0.0000 0.0000 0.0000
# 4 0.0000 0.0000 0.0000 19.1462 0.0000 0.0000
# 5 0.0000 0.0000 0.0000 0.0000 19.1462 0.0000
# 6 1.6423 -1.6423 0.0000 0.0000 0.0000 14.9241
#
#
#
# Elastic Compliance Matrix: (Units=1/GPa)
#
#
# Indices 1 2 3 4 5 6 
#
# 1 0.026264 0.008769 -0.004392 0.000000 0.000000 -0.001925
# 2 0.008769 0.026264 -0.004392 0.000000 0.000000 0.001925
# 3 -0.004392 -0.004392 0.008680 0.000000 0.000000 0.000000
# 4 0.000000 0.000000 0.000000 0.052230 0.000000 0.000000
# 5 0.000000 0.000000 0.000000 0.000000 0.052230 0.000000
# 6 -0.001925 0.001925 0.000000 0.000000 0.000000 0.067430
#
#
# Mechanical properties :
#
#
# Convention : Reuss Voigt Hill
#
# Bulk Modulus (GPa) = 16.34558 29.27847 22.81203
# Shear Modulus (GPa) = 19.72232 24.07626 21.89929
#
# Velocity S-wave (km/s) = 3.07813 3.40097 3.24357
# Velocity P-wave (km/s) = 4.52613 5.43027 4.99868
#
# Compressibility (1/GPa) = 0.06117860
#
# Stress axis : x y z
#
# Youngs Moduli (GPa) = 38.07452 38.07452 115.21178
#
# Poissons Ratio (x) = -0.33388 0.50601
# Poissons Ratio (y) = -0.33388 0.50601
# Poissons Ratio (z) = 0.16722 0.16722
#
# Static dielectric constant tensor:
#      x y z
#    x 3.778680 0.000000 0.000000 
#    y 0.000000 3.778680 0.000000 
#    z 0.000000 0.000000 3.676910 
# 
# 
# High freq. dielectric constant tensor:
#      x y z
#    x 1.818400 0.000000 0.000000 
#    y 0.000000 1.818400 0.000000 
#    z 0.000000 0.000000 1.796350 
# 
# From -- ./inp_files/4886.got.cif
#   From: 2010.03.12/outbox.cif.g09.slc.cpg/sg87_3_cif.got.tgz:4886.got - 2010.04.08 20:16:13.
