data_PCOD8304384
_publ_section_title
;
Structure prediction by ZEFSAII (Michael W. Deem and Ramdas Pophale) SiO2 
 PCOD8304384
Probable space group: I 41/A
;
_chemical_formula_sum "Si O2"
_cell_formula_units_Z 64
_cell_length_a 11.583899
_cell_length_b 11.583899
_cell_length_c 17.884629
_cell_angle_alpha 90.000000
_cell_angle_beta 90.000000
_cell_angle_gamma 90.000000
_cell_volume 2399.879633
_symmetry_space_group_name_H-M "I 41/A"
_symmetry_group_IT_number 88
_space_group.IT_coordinate_system_code '2'
_symmetry_cell_setting 'tetragonal'
loop_
_space_group_symop_operation_xyz
x,y,z
3/4-y,1/4+x,1/4+z
-x,1/2-y,z
1/4+y,1/4-x,1/4+z
-x,-y,-z
1/4+y,3/4-x,3/4-z
x,1/2+y,-z
3/4-y,3/4+x,3/4-z
1/2+x,1/2+y,1/2+z
1/4-y,3/4+x,3/4+z
1/2-x,-y,1/2+z
3/4+y,3/4-x,3/4+z
1/2-x,1/2-y,1/2-z
3/4+y,1/4-x,1/4-z
1/2+x,y,1/2-z
1/4-y,1/4+x,1/4-z
loop_
_atom_site_type_symbol
_atom_site_label
_atom_site_fract_x
_atom_site_fract_y
_atom_site_fract_z
Si Si1 0.909556 0.410519 0.733956
Si Si2 0.286473 0.604785 0.835534
Si Si3 0.089051 0.942072 0.141825
Si Si4 0.752384 0.237165 0.662571
O O1 0.025649 0.410716 0.781314
O O2 0.952334 0.401017 0.647570
O O3 0.840513 0.535492 0.734732
O O4 0.824148 0.292606 0.736152
O O5 0.156677 0.562631 0.849651
O O6 0.291228 0.743664 0.825570
O O7 0.364873 0.578641 0.913457
O O8 0.176111 0.838176 0.124017
#
# Coordination Sequence:
#
# PCOD8304384 Si02
#       4
#    16  16  16  16
#     4   9  22  41  67  99 133 176 218 287 340 397
#     4   9  23  42  66 102 136 171 236 276 324 437
#     4  11  21  45  71  97 138 183 222 280 361 387
#     4   9  21  45  63  99 140 165 235 281 318 423
#
# _framework density 26.668005000000001
#
# number of rings (size 3 to 8) (size 9 to 14) (size 15 to 20)
#    1.500    1.000    0.000    0.750    0.000   10.000 
#    9.000    7.500    0.000    0.000    0.000    0.000 
#    0.000    0.000    0.000    0.000    0.000    0.000 
#
# Total GULP energy -396471.934250 kJ/mol
# GULP energy per Si atom -12389.747945 kJ/mol
# Density = 2.660731 g / cm^3
# Si number density = 26.668005 Si / 1000 Ang^3
#
#
#
# Elastic Constant Matrix: (Units=GPa)
#
#
# Indices 1 2 3 4 5 6 
#
# 1 148.7451 35.5080 7.4128 0.0000 0.0000 -2.4528
# 2 35.5080 148.7451 7.4128 0.0000 0.0000 2.4528
# 3 7.4128 7.4128 55.9315 0.0000 0.0000 0.0000
# 4 0.0000 0.0000 0.0000 34.0289 0.0000 0.0000
# 5 0.0000 0.0000 0.0000 0.0000 34.0289 0.0000
# 6 -2.4528 2.4528 0.0000 0.0000 0.0000 47.9340
#
#
#
# Elastic Compliance Matrix: (Units=1/GPa)
#
#
# Indices 1 2 3 4 5 6 
#
# 1 0.007168 -0.001682 -0.000727 0.000000 0.000000 0.000453
# 2 -0.001682 0.007168 -0.000727 0.000000 0.000000 -0.000453
# 3 -0.000727 -0.000727 0.018072 0.000000 0.000000 0.000000
# 4 0.000000 0.000000 0.000000 0.029387 0.000000 0.000000
# 5 0.000000 0.000000 0.000000 0.000000 0.029387 0.000000
# 6 0.000453 -0.000453 0.000000 0.000000 0.000000 0.020908
#
#
# Mechanical properties :
#
#
# Convention : Reuss Voigt Hill
#
# Bulk Modulus (GPa) = 38.26266 50.45432 44.35849
# Shear Modulus (GPa) = 39.34689 43.40425 41.37557
#
# Velocity S-wave (km/s) = 3.84531 4.03870 3.94319
# Velocity P-wave (km/s) = 5.83901 6.38033 6.11567
#
# Compressibility (1/GPa) = 0.02613514
#
# Stress axis : x y z
#
# Youngs Moduli (GPa) = 139.50439 139.50439 55.33508
#
# Poissons Ratio (x) = 0.23470 0.04023
# Poissons Ratio (y) = 0.23470 0.04023
# Poissons Ratio (z) = 0.10143 0.10143
#
# Static dielectric constant tensor:
#      x y z
#    x 4.957230 0.000000 0.000000 
#    y 0.000000 4.957230 0.000000 
#    z 0.000000 0.000000 5.056380 
# 
# 
# High freq. dielectric constant tensor:
#      x y z
#    x 2.085310 0.000000 0.000000 
#    y 0.000000 2.085310 0.000000 
#    z 0.000000 0.000000 2.096490 
# 
# From -- ./inp_files/5142.got.cif
#   From: 2010.03.12/outbox.cif.g09.slc.cpg/sg88_3_cif.got.tgz:5142.got - 2010.04.08 20:20:55.
