data_PCOD8304398
_publ_section_title
;
Structure prediction by ZEFSAII (Michael W. Deem and Ramdas Pophale) SiO2 
 PCOD8304398
Probable space group: I 41/A
;
_chemical_formula_sum "Si O2"
_cell_formula_units_Z 64
_cell_length_a 13.846172
_cell_length_b 13.846172
_cell_length_c 13.788050
_cell_angle_alpha 90.000000
_cell_angle_beta 90.000000
_cell_angle_gamma 90.000000
_cell_volume 2643.396399
_symmetry_space_group_name_H-M "I 41/A"
_symmetry_group_IT_number 88
_space_group.IT_coordinate_system_code '2'
_symmetry_cell_setting 'tetragonal'
loop_
_space_group_symop_operation_xyz
x,y,z
3/4-y,1/4+x,1/4+z
-x,1/2-y,z
1/4+y,1/4-x,1/4+z
-x,-y,-z
1/4+y,3/4-x,3/4-z
x,1/2+y,-z
3/4-y,3/4+x,3/4-z
1/2+x,1/2+y,1/2+z
1/4-y,3/4+x,3/4+z
1/2-x,-y,1/2+z
3/4+y,3/4-x,3/4+z
1/2-x,1/2-y,1/2-z
3/4+y,1/4-x,1/4-z
1/2+x,y,1/2-z
1/4-y,1/4+x,1/4-z
loop_
_atom_site_type_symbol
_atom_site_label
_atom_site_fract_x
_atom_site_fract_y
_atom_site_fract_z
Si Si1 0.060038 0.108567 0.609106
Si Si2 0.306302 0.830634 0.499835
Si Si3 0.542344 0.650617 0.906042
Si Si4 0.753309 0.180355 0.161143
O O1 0.125706 0.203257 0.599240
O O2 0.048752 0.075005 0.496059
O O3 0.111972 0.035519 0.683997
O O4 0.382416 0.792454 0.421521
O O5 0.343439 0.921957 0.562785
O O6 0.286969 0.739531 0.568086
O O7 0.500000 0.750000 0.951851
O O8 0.645365 0.642632 0.853831
O O9 0.750000 0.250000 0.250000
#
# Coordination Sequence:
#
# PCOD8304398 Si02
#       4
#    16  16  16  16
#     4  11  22  48  82 108 150 201 256 326 397 456
#     4  12  27  47  76 112 156 204 263 320 388 477
#     4  12  23  48  78 111 154 202 261 323 394 460
#     4  12  26  48  73 111 154 209 253 317 394 470
#
# _framework density 24.211275000000001
#
# number of rings (size 3 to 8) (size 9 to 14) (size 15 to 20)
#    0.000    0.250    7.500    2.250    0.000    0.000 
#    9.000    0.000    0.000    0.000    0.000    0.000 
#    0.000    0.000    0.000    0.000    0.000    0.000 
#
# Total GULP energy -396482.979495 kJ/mol
# GULP energy per Si atom -12390.093109 kJ/mol
# Density = 2.415617 g / cm^3
# Si number density = 24.211275 Si / 1000 Ang^3
#
#
#
# Elastic Constant Matrix: (Units=GPa)
#
#
# Indices 1 2 3 4 5 6 
#
# 1 90.7815 55.1050 30.1284 0.0000 0.0000 -8.7968
# 2 55.1050 90.7815 30.1284 0.0000 0.0000 8.7968
# 3 30.1284 30.1284 146.1754 0.0000 0.0000 0.0000
# 4 0.0000 0.0000 0.0000 65.0081 0.0000 0.0000
# 5 0.0000 0.0000 0.0000 0.0000 65.0081 0.0000
# 6 -8.7968 8.7968 0.0000 0.0000 0.0000 17.8190
#
#
#
# Elastic Compliance Matrix: (Units=1/GPa)
#
#
# Indices 1 2 3 4 5 6 
#
# 1 0.022271 -0.014778 -0.001544 0.000000 0.000000 0.018290
# 2 -0.014778 0.022271 -0.001544 0.000000 0.000000 -0.018290
# 3 -0.001544 -0.001544 0.007478 0.000000 0.000000 0.000000
# 4 0.000000 0.000000 0.000000 0.015383 0.000000 0.000000
# 5 0.000000 0.000000 0.000000 0.000000 0.015383 0.000000
# 6 0.018290 -0.018290 0.000000 0.000000 0.000000 0.074179
#
#
# Mechanical properties :
#
#
# Convention : Reuss Voigt Hill
#
# Bulk Modulus (GPa) = 61.40424 62.05135 61.72779
# Shear Modulus (GPa) = 25.23635 43.72545 34.48090
#
# Velocity S-wave (km/s) = 3.23203 4.25431 3.77791
# Velocity P-wave (km/s) = 6.27255 7.05811 6.67690
#
# Compressibility (1/GPa) = 0.01628552
#
# Stress axis : x y z
#
# Youngs Moduli (GPa) = 44.90147 44.90147 133.73114
#
# Poissons Ratio (x) = 0.66358 0.20652
# Poissons Ratio (y) = 0.66358 0.20652
# Poissons Ratio (z) = 0.06934 0.06934
#
# Static dielectric constant tensor:
#      x y z
#    x 5.007260 0.000000 0.000000 
#    y 0.000000 5.007260 0.000000 
#    z 0.000000 0.000000 4.676150 
# 
# 
# High freq. dielectric constant tensor:
#      x y z
#    x 1.951210 0.000000 0.000000 
#    y 0.000000 1.951210 0.000000 
#    z 0.000000 0.000000 2.000080 
# 
# From -- ./inp_files/3051.got.cif
#   From: 2010.03.12/outbox.cif.g09.slc.cpg/sg88_2_cif.got.tgz:3051.got - 2010.04.08 20:20:55.
