data_PCOD8304141
_publ_section_title
;
Structure prediction by ZEFSAII (Michael W. Deem and Ramdas Pophale) SiO2 
 PCOD8304141
Probable space group: I 4/M
;
_chemical_formula_sum "Si O2"
_cell_formula_units_Z 40
_cell_length_a 13.182208
_cell_length_b 13.182208
_cell_length_c 12.041336
_cell_angle_alpha 90.000000
_cell_angle_beta 90.000000
_cell_angle_gamma 90.000000
_cell_volume 2092.430275
_symmetry_space_group_name_H-M "I 4/M"
_symmetry_group_IT_number 87
_symmetry_cell_setting 'tetragonal'
loop_
_space_group_symop_operation_xyz
x,y,z
-y,x,z
-x,-y,z
y,-x,z
-x,-y,-z
y,-x,-z
x,y,-z
-y,x,-z
1/2+x,1/2+y,1/2+z
1/2-y,1/2+x,1/2+z
1/2-x,1/2-y,1/2+z
1/2+y,1/2-x,1/2+z
1/2-x,1/2-y,1/2-z
1/2+y,1/2-x,1/2-z
1/2+x,1/2+y,1/2-z
1/2-y,1/2+x,1/2-z
loop_
_atom_site_type_symbol
_atom_site_label
_atom_site_fract_x
_atom_site_fract_y
_atom_site_fract_z
Si Si1 0.851551 0.709915 0.304557
Si Si2 0.619056 0.003802 0.123375
Si Si3 0.849933 0.074181 0.500000
O O1 0.750000 0.750000 0.250000
O O2 0.928091 0.684173 0.205485
O O3 0.832075 0.607913 0.374160
O O4 0.898201 0.792081 0.387294
O O5 0.500000 0.000000 0.155985
O O6 0.630595 0.049628 0.000000
O O7 0.954273 0.135099 0.500000
#
# Coordination Sequence:
#
# PCOD8304141 Si02
#       3
#    16  16   8
#     4  12  23  39  67  93 127 170 214 257 328 386
#     4  11  23  40  63  93 130 161 215 279 315 373
#     4  11  26  44  63  93 135 170 213 267 325 393
#
# _framework density 19.116526
#
# number of rings (size 3 to 8) (size 9 to 14) (size 15 to 20)
#    0.000    0.600    6.000    2.400    2.800    0.000 
#    0.000    0.000    0.000    0.000    0.000    8.400 
#    0.000    0.000    0.000    0.000    0.000    0.000 
#
# Total GULP energy -247994.132121 kJ/mol
# GULP energy per Si atom -12399.706606 kJ/mol
# Density = 1.907302 g / cm^3
# Si number density = 19.116526 Si / 1000 Ang^3
#
#
#
# Elastic Constant Matrix: (Units=GPa)
#
#
# Indices 1 2 3 4 5 6 
#
# 1 132.2240 82.3760 79.1397 0.0000 0.0000 -7.8506
# 2 82.3760 132.2240 79.1397 0.0000 0.0000 7.8506
# 3 79.1397 79.1397 186.7715 0.0000 0.0000 0.0000
# 4 0.0000 0.0000 0.0000 37.5692 0.0000 0.0000
# 5 0.0000 0.0000 0.0000 0.0000 37.5692 0.0000
# 6 -7.8506 7.8506 0.0000 0.0000 0.0000 35.9487
#
#
#
# Elastic Compliance Matrix: (Units=1/GPa)
#
#
# Indices 1 2 3 4 5 6 
#
# 1 0.014161 -0.007382 -0.002872 0.000000 0.000000 0.004705
# 2 -0.007382 0.014161 -0.002872 0.000000 0.000000 -0.004705
# 3 -0.002872 -0.002872 0.007788 0.000000 0.000000 0.000000
# 4 0.000000 0.000000 0.000000 0.026618 0.000000 0.000000
# 5 0.000000 0.000000 0.000000 0.000000 0.026618 0.000000
# 6 0.004705 -0.004705 0.000000 0.000000 0.000000 0.029872
#
#
# Mechanical properties :
#
#
# Convention : Reuss Voigt Hill
#
# Bulk Modulus (GPa) = 101.46018 103.61449 102.53733
# Shear Modulus (GPa) = 33.61236 36.25502 34.93369
#
# Velocity S-wave (km/s) = 4.19774 4.35964 4.27946
# Velocity P-wave (km/s) = 8.75697 8.92531 8.84154
#
# Compressibility (1/GPa) = 0.00985608
#
# Stress axis : x y z
#
# Youngs Moduli (GPa) = 70.61891 70.61891 128.40157
#
# Poissons Ratio (x) = 0.52134 0.36878
# Poissons Ratio (y) = 0.52134 0.36878
# Poissons Ratio (z) = 0.20282 0.20282
#
# Static dielectric constant tensor:
#      x y z
#    x 3.750940 0.000000 0.000000 
#    y 0.000000 3.750940 0.000000 
#    z 0.000000 0.000000 3.910170 
# 
# 
# High freq. dielectric constant tensor:
#      x y z
#    x 1.740420 0.000000 0.000000 
#    y 0.000000 1.740420 0.000000 
#    z 0.000000 0.000000 1.775060 
# 
# From -- ./inp_files/3128.got.cif
#   From: 2010.03.12/outbox.cif.g09.slc.cpg/sg87_2_cif.got.tgz:3128.got - 2010.04.08 20:16:13.
