data_PCOD8304900
_publ_section_title
;
Structure prediction by ZEFSAII (Michael W. Deem and Ramdas Pophale) SiO2 
 PCOD8304900
Probable space group: P 41 2 2
;
_chemical_formula_sum "Si O2"
_cell_formula_units_Z 40
_cell_length_a 9.134857
_cell_length_b 9.134857
_cell_length_c 20.861572
_cell_angle_alpha 90.000000
_cell_angle_beta 90.000000
_cell_angle_gamma 90.000000
_cell_volume 1740.806651
_symmetry_space_group_name_H-M "P 41 2 2"
_symmetry_group_IT_number 91
_symmetry_cell_setting 'tetragonal'
loop_
_space_group_symop_operation_xyz
x,y,z
-y,x,1/4+z
-x,-y,1/2+z
y,-x,3/4+z
x,-y,1/2-z
-x,y,-z
y,x,3/4-z
-y,-x,1/4-z
loop_
_atom_site_type_symbol
_atom_site_label
_atom_site_fract_x
_atom_site_fract_y
_atom_site_fract_z
Si Si1 0.704968 0.838412 0.233702
Si Si2 0.169578 0.600321 0.687293
Si Si3 0.974785 0.883041 0.804169
Si Si4 0.618637 0.380893 0.367227
Si Si5 0.353931 0.144332 0.532909
O O1 0.747031 0.755285 0.300225
O O2 0.598847 0.729586 0.193701
O O3 0.852011 0.855355 0.191496
O O4 0.637963 0.000000 0.250000
O O5 0.167538 0.500000 0.750000
O O6 0.256377 0.505993 0.635443
O O7 0.999735 0.635248 0.670327
O O8 0.924271 0.924271 0.875000
O O9 0.884807 0.745240 0.779131
O O10 0.938162 0.000000 0.750000
O O11 0.460913 0.460913 0.375000
O O12 0.683357 0.286385 0.425566
O O13 0.500000 0.191357 0.500000
#
# Coordination Sequence:
#
# PCOD8304900 Si02
#       5
#     8   8   8   8   8
#     4   9  19  38  65  97 128 163 214 270 330 398
#     4   8  18  39  63  88 123 164 207 261 323 386
#     4  10  20  38  69 104 133 165 221 290 352 414
#     4  11  23  39  62  91 131 177 220 269 330 398
#     4  10  22  40  61  88 128 175 215 268 337 400
#
# _framework density 22.977851999999999
#
# number of rings (size 3 to 8) (size 9 to 14) (size 15 to 20)
#    0.000    2.400    0.000    2.400    0.000    4.800 
#    0.000    2.000    0.000    9.600    0.000    0.000 
#    0.000    0.000    0.000    0.000    0.000    0.000 
#
# Total GULP energy -495557.757623 kJ/mol
# GULP energy per Si atom -12388.943941 kJ/mol
# Density = 2.292555 g / cm^3
# Si number density = 22.977852 Si / 1000 Ang^3
#
#
#
# Elastic Constant Matrix: (Units=GPa)
#
#
# Indices 1 2 3 4 5 6 
#
# 1 132.7747 51.3913 54.8931 0.0000 0.0000 0.0000
# 2 51.3913 132.7747 54.8931 0.0000 0.0000 0.0000
# 3 54.8931 54.8931 100.2954 0.0000 0.0000 0.0000
# 4 0.0000 0.0000 0.0000 37.3293 0.0000 0.0000
# 5 0.0000 0.0000 0.0000 0.0000 37.3293 0.0000
# 6 0.0000 0.0000 0.0000 0.0000 0.0000 42.3517
#
#
#
# Elastic Compliance Matrix: (Units=1/GPa)
#
#
# Indices 1 2 3 4 5 6 
#
# 1 0.010173 -0.002114 -0.004411 0.000000 0.000000 0.000000
# 2 -0.002114 0.010173 -0.004411 0.000000 0.000000 0.000000
# 3 -0.004411 -0.004411 0.014799 0.000000 0.000000 0.000000
# 4 0.000000 0.000000 0.000000 0.026789 0.000000 0.000000
# 5 0.000000 0.000000 0.000000 0.000000 0.026789 0.000000
# 6 0.000000 0.000000 0.000000 0.000000 0.000000 0.023612
#
#
# Mechanical properties :
#
#
# Convention : Reuss Voigt Hill
#
# Bulk Modulus (GPa) = 75.33699 76.46663 75.90181
# Shear Modulus (GPa) = 36.06677 37.04653 36.55665
#
# Velocity S-wave (km/s) = 3.96616 4.01967 3.99300
# Velocity P-wave (km/s) = 7.33702 7.40907 7.37313
#
# Compressibility (1/GPa) = 0.01327369
#
# Stress axis : x y z
#
# Youngs Moduli (GPa) = 98.29486 98.29486 67.57220
#
# Poissons Ratio (x) = 0.20780 0.29806
# Poissons Ratio (y) = 0.20780 0.29806
# Poissons Ratio (z) = 0.43358 0.43358
#
# Static dielectric constant tensor:
#      x y z
#    x 4.214980 0.000000 0.000000 
#    y 0.000000 4.214980 0.000000 
#    z 0.000000 0.000000 3.782260 
# 
# 
# High freq. dielectric constant tensor:
#      x y z
#    x 1.906750 0.000000 0.000000 
#    y 0.000000 1.906750 0.000000 
#    z 0.000000 0.000000 1.892070 
# 
# From -- ./inp_files/12754.got.cif
#   From: 2010.03.12/outbox.cif.g09.slc.cpg/sg91_7_cif.got.tgz:12754.got - 2010.04.08 20:27:58.
