data_PCOD8304841
_publ_section_title
;
Structure prediction by ZEFSAII (Michael W. Deem and Ramdas Pophale) SiO2 
 PCOD8304841
Probable space group: P 41 2 2
;
_chemical_formula_sum "Si O2"
_cell_formula_units_Z 48
_cell_length_a 9.159947
_cell_length_b 9.159947
_cell_length_c 31.241305
_cell_angle_alpha 90.000000
_cell_angle_beta 90.000000
_cell_angle_gamma 90.000000
_cell_volume 2621.290107
_symmetry_space_group_name_H-M "P 41 2 2"
_symmetry_group_IT_number 91
_symmetry_cell_setting 'tetragonal'
loop_
_space_group_symop_operation_xyz
x,y,z
-y,x,1/4+z
-x,-y,1/2+z
y,-x,3/4+z
x,-y,1/2-z
-x,y,-z
y,x,3/4-z
-y,-x,1/4-z
loop_
_atom_site_type_symbol
_atom_site_label
_atom_site_fract_x
_atom_site_fract_y
_atom_site_fract_z
Si Si1 0.335170 0.750263 0.001983
Si Si2 0.233809 0.147917 0.169860
Si Si3 0.934114 0.924346 0.295576
Si Si4 0.833316 0.255818 0.921844
Si Si5 0.913470 0.338075 0.257489
Si Si6 0.563534 0.912244 0.793382
O O1 0.274656 0.741603 0.954126
O O2 0.500000 0.686346 0.000000
O O3 0.229347 0.661137 0.033291
O O4 0.337339 0.915573 0.019627
O O5 0.235025 0.228469 0.124506
O O6 0.080396 0.067434 0.176954
O O7 0.356175 0.022430 0.173962
O O8 0.885632 0.757799 0.285551
O O9 0.966322 0.000000 0.250000
O O10 0.810158 0.004145 0.322953
O O11 0.723362 0.179400 0.953901
O O12 0.847695 0.425552 0.931935
O O13 0.854913 0.500000 0.250000
O O14 0.520879 0.000000 0.750000
#
# Coordination Sequence:
#
# PCOD8304841 Si02
#       6
#     8   8   8   8   8   8
#     4   9  19  37  58  77 103 142 181 212 257 326
#     4  10  20  34  53  79 105 134 177 225 263 305
#     4   9  17  33  54  76 102 139 178 212 262 323
#     4  11  21  33  53  82 108 134 176 227 266 306
#     4   9  18  33  54  78 107 141 175 211 259 324
#     4  10  20  36  56  76 107 146 176 211 268 330
#
# _framework density 18.311595000000001
#
# number of rings (size 3 to 8) (size 9 to 14) (size 15 to 20)
#    0.000    2.333    0.000    5.500    0.000    4.667 
#    0.000    2.500    0.000    0.000    0.000    0.000 
#    0.000    0.000    0.000    0.000    0.000    0.000 
#
# Total GULP energy -595127.762441 kJ/mol
# GULP energy per Si atom -12398.495051 kJ/mol
# Density = 1.826992 g / cm^3
# Si number density = 18.311595 Si / 1000 Ang^3
#
#
#
# Elastic Constant Matrix: (Units=GPa)
#
#
# Indices 1 2 3 4 5 6 
#
# 1 119.2627 62.0206 53.5462 0.0000 0.0000 0.0000
# 2 62.0206 119.2627 53.5462 0.0000 0.0000 0.0000
# 3 53.5462 53.5462 95.6612 0.0000 0.0000 0.0000
# 4 0.0000 0.0000 0.0000 17.2738 0.0000 0.0000
# 5 0.0000 0.0000 0.0000 0.0000 17.2738 0.0000
# 6 0.0000 0.0000 0.0000 0.0000 0.0000 13.7733
#
#
#
# Elastic Compliance Matrix: (Units=1/GPa)
#
#
# Indices 1 2 3 4 5 6 
#
# 1 0.012856 -0.004614 -0.004613 0.000000 0.000000 0.000000
# 2 -0.004614 0.012856 -0.004613 0.000000 0.000000 0.000000
# 3 -0.004613 -0.004613 0.015618 0.000000 0.000000 0.000000
# 4 0.000000 0.000000 0.000000 0.057891 0.000000 0.000000
# 5 0.000000 0.000000 0.000000 0.000000 0.057891 0.000000
# 6 0.000000 0.000000 0.000000 0.000000 0.000000 0.072604
#
#
# Mechanical properties :
#
#
# Convention : Reuss Voigt Hill
#
# Bulk Modulus (GPa) = 73.26928 74.71250 73.99089
# Shear Modulus (GPa) = 19.08792 20.66908 19.87850
#
# Velocity S-wave (km/s) = 3.23212 3.36332 3.29837
# Velocity P-wave (km/s) = 7.35038 7.48143 7.41620
#
# Compressibility (1/GPa) = 0.01364829
#
# Stress axis : x y z
#
# Youngs Moduli (GPa) = 77.78753 77.78753 64.02902
#
# Poissons Ratio (x) = 0.35892 0.29537
# Poissons Ratio (y) = 0.35892 0.29537
# Poissons Ratio (z) = 0.35884 0.35884
#
# Static dielectric constant tensor:
#      x y z
#    x 3.479110 0.000000 0.000000 
#    y 0.000000 3.479110 0.000000 
#    z 0.000000 0.000000 3.208400 
# 
# 
# High freq. dielectric constant tensor:
#      x y z
#    x 1.709670 0.000000 0.000000 
#    y 0.000000 1.709670 0.000000 
#    z 0.000000 0.000000 1.692030 
# 
# From -- ./inp_files/18189.got.cif
#   From: 2010.03.12/outbox.cif.g09.slc.cpg/sg91_10_cif.got.tgz:18189.got - 2010.04.08 20:27:58.
