data_PCOD8304529
_publ_section_title
;
Structure prediction by ZEFSAII (Michael W. Deem and Ramdas Pophale) SiO2 
 PCOD8304529
Probable space group: P 4 21 2
;
_chemical_formula_sum "Si O2"
_cell_formula_units_Z 40
_cell_length_a 13.475743
_cell_length_b 13.475743
_cell_length_c 13.392265
_cell_angle_alpha 90.000000
_cell_angle_beta 90.000000
_cell_angle_gamma 90.000000
_cell_volume 2431.977060
_symmetry_space_group_name_H-M "P 4 21 2"
_symmetry_group_IT_number 90
_symmetry_cell_setting 'tetragonal'
loop_
_space_group_symop_operation_xyz
x,y,z
1/2-y,1/2+x,z
-x,-y,z
1/2+y,1/2-x,z
1/2+x,1/2-y,-z
1/2-x,1/2+y,-z
y,x,-z
-y,-x,-z
loop_
_atom_site_type_symbol
_atom_site_label
_atom_site_fract_x
_atom_site_fract_y
_atom_site_fract_z
Si Si1 0.884562 0.770669 0.924485
Si Si2 0.614086 0.114084 0.408583
Si Si3 0.386124 0.886126 0.640246
Si Si4 0.770672 0.115436 0.075515
Si Si5 0.761493 0.261491 0.744402
O O1 0.829077 0.670920 0.964999
O O2 0.843771 0.794916 0.812907
O O3 0.999999 0.749501 0.920216
O O4 0.861092 0.861092 0.000000
O O5 0.500001 0.137680 0.381720
O O6 0.634690 0.134688 0.524365
O O7 0.685653 0.185651 0.347822
O O8 0.499999 0.861838 0.665813
O O9 0.317496 0.817499 0.707157
O O10 0.794918 0.156226 0.187093
O O11 0.861095 0.138906 0.000000
#
# Coordination Sequence:
#
# PCOD8304529 Si02
#       5
#     8   8   8   8   8
#     4   9  20  36  52  76 105 130 165 207 253 299
#     4   9  17  30  52  80 105 132 166 206 254 300
#     4   9  19  34  50  72 105 140 170 205 251 297
#     4   9  20  36  52  76 105 130 165 207 253 299
#     4  10  18  32  52  80 100 128 173 216 244 292
#
# _framework density 16.447523
#
# number of rings (size 3 to 8) (size 9 to 14) (size 15 to 20)
#    1.200    1.600    0.000    3.000    0.000    2.400 
#    0.000    0.000    0.000    3.600    0.000   11.200 
#    0.000    0.000    0.000    0.000    0.000    0.000 
#
# Total GULP energy -495692.733589 kJ/mol
# GULP energy per Si atom -12392.318340 kJ/mol
# Density = 1.641009 g / cm^3
# Si number density = 16.447523 Si / 1000 Ang^3
#
#
#
# Elastic Constant Matrix: (Units=GPa)
#
#
# Indices 1 2 3 4 5 6 
#
# 1 95.3861 67.4699 53.3160 0.0000 0.0000 0.0000
# 2 67.4699 95.3905 53.3173 0.0000 0.0000 0.0000
# 3 53.3160 53.3173 71.1071 0.0000 0.0000 0.0000
# 4 0.0000 0.0000 0.0000 24.6549 0.0000 0.0000
# 5 0.0000 0.0000 0.0000 0.0000 24.6548 0.0000
# 6 0.0000 0.0000 0.0000 0.0000 0.0000 26.3300
#
#
#
# Elastic Compliance Matrix: (Units=1/GPa)
#
#
# Indices 1 2 3 4 5 6 
#
# 1 0.023941 -0.011878 -0.009044 0.000000 0.000000 0.000000
# 2 -0.011878 0.023940 -0.009044 0.000000 0.000000 0.000000
# 3 -0.009044 -0.009044 0.027626 0.000000 0.000000 0.000000
# 4 0.000000 0.000000 0.000000 0.040560 0.000000 0.000000
# 5 0.000000 0.000000 0.000000 0.000000 0.040560 0.000000
# 6 0.000000 0.000000 0.000000 0.000000 0.000000 0.037979
#
#
# Mechanical properties :
#
#
# Convention : Reuss Voigt Hill
#
# Bulk Modulus (GPa) = 64.21211 67.78778 65.99995
# Shear Modulus (GPa) = 19.25067 20.97999 20.11533
#
# Velocity S-wave (km/s) = 3.42487 3.57539 3.50094
# Velocity P-wave (km/s) = 7.40033 7.63863 7.52042
#
# Compressibility (1/GPa) = 0.01557339
#
# Stress axis : x y z
#
# Youngs Moduli (GPa) = 41.76944 41.77132 36.19746
#
# Poissons Ratio (x) = 0.49617 0.32738
# Poissons Ratio (y) = 0.49615 0.32738
# Poissons Ratio (z) = 0.37778 0.37779
#
# Static dielectric constant tensor:
#      x y z
#    x 2.865410 0.000000 0.000000 
#    y 0.000000 2.865410 0.000000 
#    z 0.000000 0.000000 3.110100 
# 
# 
# High freq. dielectric constant tensor:
#      x y z
#    x 1.619410 0.000000 0.000000 
#    y 0.000000 1.619410 0.000000 
#    z 0.000000 0.000000 1.639130 
# 
# From -- ./inp_files/2465.got.cif
#   From: 2010.03.12/outbox.cif.g09.slc.cpg/sg90_2_cif.got.tgz:2465.got - 2010.04.08 20:26:03.
