data_PCOD8304504
_publ_section_title
;
Structure prediction by ZEFSAII (Michael W. Deem and Ramdas Pophale) SiO2 
 PCOD8304504
Probable space group: P 4 2 2
;
_chemical_formula_sum "Si O2"
_cell_formula_units_Z 48
_cell_length_a 9.324215
_cell_length_b 9.324215
_cell_length_c 31.156731
_cell_angle_alpha 90.000000
_cell_angle_beta 90.000000
_cell_angle_gamma 90.000000
_cell_volume 2708.796894
_symmetry_space_group_name_H-M "P 4 2 2"
_symmetry_group_IT_number 89
_symmetry_cell_setting 'tetragonal'
loop_
_space_group_symop_operation_xyz
x,y,z
-y,x,z
-x,-y,z
y,-x,z
x,-y,-z
-x,y,-z
y,x,-z
-y,-x,-z
loop_
_atom_site_type_symbol
_atom_site_label
_atom_site_fract_x
_atom_site_fract_y
_atom_site_fract_z
Si Si1 0.335229 0.335225 0.830553
Si Si2 0.832385 0.832379 0.240430
Si Si3 0.333985 0.666016 0.071381
Si Si4 0.833288 0.833281 0.332400
Si Si5 0.668645 0.331356 0.500000
Si Si6 0.830701 0.830709 0.574309
Si Si7 0.832304 0.167697 0.000000
O O1 0.500002 0.300719 0.821503
O O2 0.241785 0.241777 0.799136
O O3 0.296735 0.296732 0.879499
O O4 0.771915 0.771907 0.286913
O O5 0.000003 0.800446 0.237153
O O6 0.301168 0.500000 0.061505
O O7 0.235146 0.764852 0.042454
O O8 0.775760 0.775750 0.378323
O O9 0.000004 0.802062 0.332005
O O10 0.700945 0.500000 0.500000
O O11 0.738976 0.261034 0.541563
O O12 0.999996 0.800939 0.567931
O O13 0.000000 0.200896 0.000000
#
# Coordination Sequence:
#
# PCOD8304504 Si02
#       7
#     8   8   8   8   4   8   4
#     4   9  19  35  52  72 100 133 169 207 243 282
#     4   9  17  30  50  76 104 132 161 197 244 293
#     4   9  19  37  58  75  94 128 173 211 242 284
#     4   7  12  26  48  73  99 124 154 197 244 287
#     4  11  24  37  46  64 100 137 162 191 240 298
#     4   9  17  32  56  79  94 117 161 209 246 286
#     4  11  24  37  50  76 110 133 154 195 250 302
#
# _framework density 17.720044000000001
#
# number of rings (size 3 to 8) (size 9 to 14) (size 15 to 20)
#    0.000    3.000    0.000    4.000    0.000    6.000 
#    0.000    6.667    0.000    8.000    0.000    0.000 
#    0.000    0.000    0.000    0.000    0.000    0.000 
#
# Total GULP energy -594653.267313 kJ/mol
# GULP energy per Si atom -12388.609736 kJ/mol
# Density = 1.767971 g / cm^3
# Si number density = 17.720044 Si / 1000 Ang^3
#
#
#
# Elastic Constant Matrix: (Units=GPa)
#
#
# Indices 1 2 3 4 5 6 
#
# 1 87.5478 54.2146 82.4196 0.0000 0.0000 0.0000
# 2 54.2146 87.5484 82.4194 0.0000 0.0000 0.0000
# 3 82.4196 82.4194 184.4132 0.0000 0.0000 0.0000
# 4 0.0000 0.0000 0.0000 3322.9732 0.0000 0.0000
# 5 0.0000 0.0000 0.0000 0.0000 3303.7130 0.0000
# 6 0.0000 0.0000 0.0000 0.0000 0.0000 30.4278
#
#
#
# Elastic Compliance Matrix: (Units=1/GPa)
#
#
# Indices 1 2 3 4 5 6 
#
# 1 0.022343 -0.007657 -0.006564 0.000000 0.000000 0.000000
# 2 -0.007657 0.022343 -0.006564 0.000000 0.000000 0.000000
# 3 -0.006564 -0.006564 0.011290 0.000000 0.000000 0.000000
# 4 0.000000 0.000000 0.000000 0.000301 0.000000 0.000000
# 5 0.000000 0.000000 0.000000 0.000000 0.000303 0.000000
# 6 0.000000 0.000000 0.000000 0.000000 0.000000 0.032865
#
#
# Mechanical properties :
#
#
# Convention : Reuss Voigt Hill
#
# Bulk Modulus (GPa) = 69.40965 88.62407 79.01686
# Shear Modulus (GPa) = 36.81494 1340.78654 688.80074
#
# Velocity S-wave (km/s) = 4.56300 27.53711 19.73719
# Velocity P-wave (km/s) = 8.18636 32.57573 23.75074
#
# Compressibility (1/GPa) = 0.01440722
#
# Stress axis : x y z
#
# Youngs Moduli (GPa) = 44.75644 44.75716 88.57752
#
# Poissons Ratio (x) = 0.34270 0.58140
# Poissons Ratio (y) = 0.34269 0.58138
# Poissons Ratio (z) = 0.29377 0.29377
#
# Static dielectric constant tensor:
#      x y z
#    x 3.056520 0.000000 0.000000 
#    y 0.000000 3.056520 0.000000 
#    z 0.000000 0.000000 3.725700 
# 
# 
# High freq. dielectric constant tensor:
#      x y z
#    x 1.661520 0.000000 0.000000 
#    y 0.000000 1.661520 0.000000 
#    z 0.000000 0.000000 1.714370 
# 
# From -- ./inp_files/3027.got.cif
#   From: 2010.03.12/outbox.cif.g09.slc.cpg/sg89_2_cif.got.tgz:3027.got - 2010.04.08 20:24:03.
