data_PCOD8304348
_publ_section_title
;
Structure prediction by ZEFSAII (Michael W. Deem and Ramdas Pophale) SiO2 
 PCOD8304348
Probable space group: I 41/A
;
_chemical_formula_sum "Si O2"
_cell_formula_units_Z 72
_cell_length_a 14.607202
_cell_length_b 14.607202
_cell_length_c 16.833529
_cell_angle_alpha 90.000000
_cell_angle_beta 90.000000
_cell_angle_gamma 90.000000
_cell_volume 3591.775979
_symmetry_space_group_name_H-M "I 41/A"
_symmetry_group_IT_number 88
_space_group.IT_coordinate_system_code '2'
_symmetry_cell_setting 'tetragonal'
loop_
_space_group_symop_operation_xyz
x,y,z
3/4-y,1/4+x,1/4+z
-x,1/2-y,z
1/4+y,1/4-x,1/4+z
-x,-y,-z
1/4+y,3/4-x,3/4-z
x,1/2+y,-z
3/4-y,3/4+x,3/4-z
1/2+x,1/2+y,1/2+z
1/4-y,3/4+x,3/4+z
1/2-x,-y,1/2+z
3/4+y,3/4-x,3/4+z
1/2-x,1/2-y,1/2-z
3/4+y,1/4-x,1/4-z
1/2+x,y,1/2-z
1/4-y,1/4+x,1/4-z
loop_
_atom_site_type_symbol
_atom_site_label
_atom_site_fract_x
_atom_site_fract_y
_atom_site_fract_z
Si Si1 0.647772 0.651094 0.706324
Si Si2 0.628662 0.746752 0.081476
Si Si3 0.000000 0.750000 0.188350
Si Si4 0.113707 0.080112 0.042162
Si Si5 0.010861 0.409910 0.313366
O O1 0.643031 0.758967 0.692793
O O2 0.669108 0.601429 0.622711
O O3 0.723949 0.624612 0.771132
O O4 0.551403 0.617228 0.739075
O O5 0.585911 0.655548 0.120575
O O6 0.737020 0.739254 0.089401
O O7 0.592624 0.753836 0.990808
O O8 0.091522 0.755630 0.136172
O O9 0.153721 0.135389 0.967294
#
# Coordination Sequence:
#
# PCOD8304348 Si02
#       5
#    16  16   8  16  16
#     4  11  24  40  62  94 135 171 217 267 322 387
#     4   9  24  47  64  91 127 163 222 276 315 387
#     4  10  23  42  67  92 122 172 218 252 333 388
#     4  11  24  40  62  94 135 171 217 267 322 387
#     4  12  23  39  69  93 127 174 209 269 330 387
#
# _framework density 20.045794999999998
#
# number of rings (size 3 to 8) (size 9 to 14) (size 15 to 20)
#    0.000    1.556    4.444    0.000    6.222    5.333 
#    0.000    0.000    0.000    0.000    0.000    0.000 
#    0.000    0.000    0.000    0.000    0.000    0.000 
#
# Total GULP energy -446532.037952 kJ/mol
# GULP energy per Si atom -12403.667721 kJ/mol
# Density = 2.000017 g / cm^3
# Si number density = 20.045795 Si / 1000 Ang^3
#
#
#
# Elastic Constant Matrix: (Units=GPa)
#
#
# Indices 1 2 3 4 5 6 
#
# 1 80.6654 43.6411 39.3640 0.0000 0.0000 -12.3531
# 2 43.6411 80.6654 39.3640 0.0000 0.0000 12.3531
# 3 39.3640 39.3640 116.0074 0.0000 0.0000 0.0000
# 4 0.0000 0.0000 0.0000 16.7398 0.0000 0.0000
# 5 0.0000 0.0000 0.0000 0.0000 16.7398 0.0000
# 6 -12.3531 12.3531 0.0000 0.0000 0.0000 15.6022
#
#
#
# Elastic Compliance Matrix: (Units=1/GPa)
#
#
# Indices 1 2 3 4 5 6 
#
# 1 0.033755 -0.023509 -0.003477 0.000000 0.000000 0.045339
# 2 -0.023509 0.033755 -0.003477 0.000000 0.000000 -0.045339
# 3 -0.003477 -0.003477 0.010980 0.000000 0.000000 0.000000
# 4 0.000000 0.000000 0.000000 0.059738 0.000000 0.000000
# 5 0.000000 0.000000 0.000000 0.000000 0.059738 0.000000
# 6 0.045339 -0.045339 0.000000 0.000000 0.000000 0.135888
#
#
# Mechanical properties :
#
#
# Convention : Reuss Voigt Hill
#
# Bulk Modulus (GPa) = 56.93012 58.00849 57.46930
# Shear Modulus (GPa) = 12.48021 20.14763 16.31392
#
# Velocity S-wave (km/s) = 2.49787 3.17374 2.85587
# Velocity P-wave (km/s) = 6.06472 6.51391 6.29332
#
# Compressibility (1/GPa) = 0.01756539
#
# Stress axis : x y z
#
# Youngs Moduli (GPa) = 29.62501 29.62501 91.07671
#
# Poissons Ratio (x) = 0.69644 0.31667
# Poissons Ratio (y) = 0.69644 0.31667
# Poissons Ratio (z) = 0.10300 0.10300
#
# Static dielectric constant tensor:
#      x y z
#    x 3.531880 0.000000 0.000000 
#    y 0.000000 3.531880 0.000000 
#    z 0.000000 0.000000 3.686280 
# 
# 
# High freq. dielectric constant tensor:
#      x y z
#    x 1.777380 0.000000 0.000000 
#    y 0.000000 1.777380 0.000000 
#    z 0.000000 0.000000 1.794160 
# 
# From -- ./inp_files/3823.got.cif
#   From: 2010.03.12/outbox.cif.g09.slc.cpg/sg88_2_cif.got.tgz:3823.got - 2010.04.08 20:20:55.
