data_PCOD8304210
_publ_section_title
;
Structure prediction by ZEFSAII (Michael W. Deem and Ramdas Pophale) SiO2 
 PCOD8304210
Probable space group: I 41/A
;
_chemical_formula_sum "Si O2"
_cell_formula_units_Z 112
_cell_length_a 15.107251
_cell_length_b 15.107251
_cell_length_c 22.671316
_cell_angle_alpha 90.000000
_cell_angle_beta 90.000000
_cell_angle_gamma 90.000000
_cell_volume 5174.252522
_symmetry_space_group_name_H-M "I 41/A"
_symmetry_group_IT_number 88
_space_group.IT_coordinate_system_code '2'
_symmetry_cell_setting 'tetragonal'
loop_
_space_group_symop_operation_xyz
x,y,z
3/4-y,1/4+x,1/4+z
-x,1/2-y,z
1/4+y,1/4-x,1/4+z
-x,-y,-z
1/4+y,3/4-x,3/4-z
x,1/2+y,-z
3/4-y,3/4+x,3/4-z
1/2+x,1/2+y,1/2+z
1/4-y,3/4+x,3/4+z
1/2-x,-y,1/2+z
3/4+y,3/4-x,3/4+z
1/2-x,1/2-y,1/2-z
3/4+y,1/4-x,1/4-z
1/2+x,y,1/2-z
1/4-y,1/4+x,1/4-z
loop_
_atom_site_type_symbol
_atom_site_label
_atom_site_fract_x
_atom_site_fract_y
_atom_site_fract_z
Si Si1 0.015090 0.149303 0.309980
Si Si2 0.506144 0.151349 0.954834
Si Si3 0.708234 0.398110 0.844894
Si Si4 0.340543 0.544570 0.789954
Si Si5 0.885403 0.893757 0.216080
Si Si6 0.350001 0.469203 0.254847
Si Si7 0.618195 0.669212 0.930686
O O1 0.073203 0.101776 0.258960
O O2 0.070995 0.138042 0.370543
O O3 0.000000 0.250000 0.291461
O O4 0.914109 0.112750 0.313389
O O5 0.500000 0.250000 0.931367
O O6 0.555802 0.096935 0.903793
O O7 0.407530 0.121322 0.971497
O O8 0.560079 0.136387 0.015177
O O9 0.719425 0.432186 0.911249
O O10 0.805465 0.369349 0.825551
O O11 0.662712 0.471693 0.804021
O O12 0.383398 0.497380 0.732734
O O13 0.242472 0.581559 0.771771
O O14 0.974015 0.868745 0.181076
O O15 0.381101 0.532299 0.309449
#
# Coordination Sequence:
#
# PCOD8304210 Si02
#       7
#    16  16  16  16  16  16  16
#     4  12  24  41  69  96 119 171 226 270 329 402
#     4   9  18  32  50  83 129 168 206 259 309 376
#     4  10  20  34  58  87 124 175 214 248 333 391
#     4  11  23  39  61  93 128 171 220 269 324 398
#     4  10  19  36  56  88 129 162 210 271 315 376
#     4  10  23  41  61  95 138 166 210 283 332 385
#     4  10  19  39  63  90 127 164 214 269 322 385
#
# _framework density 21.645638999999999
#
# number of rings (size 3 to 8) (size 9 to 14) (size 15 to 20)
#    0.000    1.714    1.429    4.286    0.000    4.000 
#    0.000    0.000    0.000    0.000    0.000    0.000 
#    0.000    0.000    0.000    0.000    0.000    0.000 
#
# Total GULP energy -693825.916010 kJ/mol
# GULP energy per Si atom -12389.748500 kJ/mol
# Density = 2.159637 g / cm^3
# Si number density = 21.645639 Si / 1000 Ang^3
#
#
#
# Elastic Constant Matrix: (Units=GPa)
#
#
# Indices 1 2 3 4 5 6 
#
# 1 95.5097 64.9708 29.8352 0.0000 0.0000 6.4081
# 2 64.9708 95.5097 29.8352 0.0000 0.0000 -6.4081
# 3 29.8352 29.8352 45.7505 0.0000 0.0000 0.0000
# 4 0.0000 0.0000 0.0000 38.8168 0.0000 0.0000
# 5 0.0000 0.0000 0.0000 0.0000 38.8168 0.0000
# 6 6.4081 -6.4081 0.0000 0.0000 0.0000 37.4465
#
#
#
# Elastic Compliance Matrix: (Units=1/GPa)
#
#
# Indices 1 2 3 4 5 6 
#
# 1 0.021752 -0.013526 -0.005364 0.000000 0.000000 -0.006037
# 2 -0.013526 0.021752 -0.005364 0.000000 0.000000 0.006037
# 3 -0.005364 -0.005364 0.028854 0.000000 0.000000 0.000000
# 4 0.000000 0.000000 0.000000 0.025762 0.000000 0.000000
# 5 0.000000 0.000000 0.000000 0.000000 0.025762 0.000000
# 6 -0.006037 0.006037 0.000000 0.000000 0.000000 0.028771
#
#
# Mechanical properties :
#
#
# Convention : Reuss Voigt Hill
#
# Bulk Modulus (GPa) = 41.93119 54.00581 47.96850
# Shear Modulus (GPa) = 23.91045 30.49125 27.20085
#
# Velocity S-wave (km/s) = 3.32720 3.75728 3.54876
# Velocity P-wave (km/s) = 5.84586 6.62020 6.24504
#
# Compressibility (1/GPa) = 0.02384859
#
# Stress axis : x y z
#
# Youngs Moduli (GPa) = 45.97213 45.97213 34.65704
#
# Poissons Ratio (x) = 0.62184 0.18591
# Poissons Ratio (y) = 0.62184 0.18591
# Poissons Ratio (z) = 0.24661 0.24661
#
# Static dielectric constant tensor:
#      x y z
#    x 3.892000 0.000000 0.000000 
#    y 0.000000 3.892000 0.000000 
#    z 0.000000 0.000000 3.671660 
# 
# 
# High freq. dielectric constant tensor:
#      x y z
#    x 1.845650 0.000000 0.000000 
#    y 0.000000 1.845650 0.000000 
#    z 0.000000 0.000000 1.830140 
# 
# From -- ./inp_files/5335.got.cif
#   From: 2010.03.12/outbox.cif.g09.slc.cpg/sg88_3_cif.got.tgz:5335.got - 2010.04.08 20:20:55.
