data_PCOD8304831
_publ_section_title
;
Structure prediction by ZEFSAII (Michael W. Deem and Ramdas Pophale) SiO2 
 PCOD8304831
Probable space group: P 41 2 2
;
_chemical_formula_sum "Si O2"
_cell_formula_units_Z 48
_cell_length_a 12.045521
_cell_length_b 12.045521
_cell_length_c 16.232397
_cell_angle_alpha 90.000000
_cell_angle_beta 90.000000
_cell_angle_gamma 90.000000
_cell_volume 2355.232763
_symmetry_space_group_name_H-M "P 41 2 2"
_symmetry_group_IT_number 91
_symmetry_cell_setting 'tetragonal'
loop_
_space_group_symop_operation_xyz
x,y,z
-y,x,1/4+z
-x,-y,1/2+z
y,-x,3/4+z
x,-y,1/2-z
-x,y,-z
y,x,3/4-z
-y,-x,1/4-z
loop_
_atom_site_type_symbol
_atom_site_label
_atom_site_fract_x
_atom_site_fract_y
_atom_site_fract_z
Si Si1 0.155484 0.935007 0.450197
Si Si2 0.392974 0.126462 0.280312
Si Si3 0.227918 0.325705 0.629376
Si Si4 0.503280 0.503280 0.375000
Si Si5 0.500000 0.674741 0.500000
Si Si6 0.080122 0.919879 0.625000
Si Si7 0.542503 0.754036 0.090922
Si Si8 0.165756 0.834245 0.125000
O O1 0.257906 0.881799 0.402307
O O2 0.160625 0.898943 0.546673
O O3 0.043362 0.896298 0.406534
O O4 0.161000 0.068009 0.442494
O O5 0.402791 0.202978 0.199419
O O6 0.489301 0.161462 0.343465
O O7 0.277268 0.155293 0.323311
O O8 0.404814 0.000000 0.250000
O O9 0.252330 0.405722 0.706334
O O10 0.325083 0.238281 0.604889
O O11 0.555919 0.585190 0.441150
O O12 0.374471 0.516134 0.355424
O O13 0.500000 0.789484 0.000000
#
# Coordination Sequence:
#
# PCOD8304831 Si02
#       8
#     8   8   8   4   4   4   8   4
#     4  10  20  39  63  99 122 170 226 284 335 404
#     4  12  25  45  68 104 140 179 234 302 359 419
#     4  11  24  43  63 100 134 178 229 278 352 416
#     4  10  19  41  67 103 126 180 242 280 323 425
#     4  10  24  36  66  92 140 174 222 282 340 424
#     4   9  20  35  63  90 125 164 226 272 325 391
#     4  11  23  42  70 100 135 175 229 284 354 418
#     4  11  21  40  76  91 131 172 234 296 338 418
#
# _framework density 20.380151999999999
#
# number of rings (size 3 to 8) (size 9 to 14) (size 15 to 20)
#    0.000    1.333    2.500    3.500    9.333    0.667 
#    4.500    0.000    0.000    0.000    0.000    0.000 
#    0.000    0.000    0.000    0.000    0.000    0.000 
#
# Total GULP energy -594751.988223 kJ/mol
# GULP energy per Si atom -12390.666421 kJ/mol
# Density = 2.033377 g / cm^3
# Si number density = 20.380152 Si / 1000 Ang^3
#
#
#
# Elastic Constant Matrix: (Units=GPa)
#
#
# Indices 1 2 3 4 5 6 
#
# 1 91.1317 29.2599 41.9039 0.0000 0.0000 0.0000
# 2 29.2599 91.1311 41.9035 0.0000 0.0000 0.0000
# 3 41.9039 41.9035 154.3544 0.0000 0.0000 0.0000
# 4 0.0000 0.0000 0.0000 36.1150 0.0000 0.0000
# 5 0.0000 0.0000 0.0000 0.0000 36.1155 0.0000
# 6 0.0000 0.0000 0.0000 0.0000 0.0000 50.1513
#
#
#
# Elastic Compliance Matrix: (Units=1/GPa)
#
#
# Indices 1 2 3 4 5 6 
#
# 1 0.013202 -0.002960 -0.002780 0.000000 0.000000 0.000000
# 2 -0.002960 0.013202 -0.002780 0.000000 0.000000 0.000000
# 3 -0.002780 -0.002780 0.007988 0.000000 0.000000 0.000000
# 4 0.000000 0.000000 0.000000 0.027689 0.000000 0.000000
# 5 0.000000 0.000000 0.000000 0.000000 0.027689 0.000000
# 6 0.000000 0.000000 0.000000 0.000000 0.000000 0.019940
#
#
# Mechanical properties :
#
#
# Convention : Reuss Voigt Hill
#
# Bulk Modulus (GPa) = 57.63645 62.52797 60.08221
# Shear Modulus (GPa) = 37.72554 39.37969 38.55261
#
# Velocity S-wave (km/s) = 4.30710 4.40051 4.35406
# Velocity P-wave (km/s) = 7.28539 7.52109 7.40418
#
# Compressibility (1/GPa) = 0.01735013
#
# Stress axis : x y z
#
# Youngs Moduli (GPa) = 75.74544 75.74510 125.18416
#
# Poissons Ratio (x) = 0.22423 0.34806
# Poissons Ratio (y) = 0.22424 0.34806
# Poissons Ratio (z) = 0.21060 0.21060
#
# Static dielectric constant tensor:
#      x y z
#    x 3.615670 0.000000 0.000000 
#    y 0.000000 3.615670 0.000000 
#    z 0.000000 0.000000 4.032370 
# 
# 
# High freq. dielectric constant tensor:
#      x y z
#    x 1.785450 0.000000 0.000000 
#    y 0.000000 1.785450 0.000000 
#    z 0.000000 0.000000 1.820930 
# 
# From -- ./inp_files/12009.got.cif
#   From: 2010.03.12/outbox.cif.g09.slc.cpg/sg91_7_cif.got.tgz:12009.got - 2010.04.08 20:27:58.
