data_PCOD8304311
_publ_section_title
;
Structure prediction by ZEFSAII (Michael W. Deem and Ramdas Pophale) SiO2 
 PCOD8304311
Probable space group: I 41/A
;
_chemical_formula_sum "Si O2"
_cell_formula_units_Z 80
_cell_length_a 13.876383
_cell_length_b 13.876383
_cell_length_c 19.811754
_cell_angle_alpha 90.000000
_cell_angle_beta 90.000000
_cell_angle_gamma 90.000000
_cell_volume 3814.832582
_symmetry_space_group_name_H-M "I 41/A"
_symmetry_group_IT_number 88
_space_group.IT_coordinate_system_code '2'
_symmetry_cell_setting 'tetragonal'
loop_
_space_group_symop_operation_xyz
x,y,z
3/4-y,1/4+x,1/4+z
-x,1/2-y,z
1/4+y,1/4-x,1/4+z
-x,-y,-z
1/4+y,3/4-x,3/4-z
x,1/2+y,-z
3/4-y,3/4+x,3/4-z
1/2+x,1/2+y,1/2+z
1/4-y,3/4+x,3/4+z
1/2-x,-y,1/2+z
3/4+y,3/4-x,3/4+z
1/2-x,1/2-y,1/2-z
3/4+y,1/4-x,1/4-z
1/2+x,y,1/2-z
1/4-y,1/4+x,1/4-z
loop_
_atom_site_type_symbol
_atom_site_label
_atom_site_fract_x
_atom_site_fract_y
_atom_site_fract_z
Si Si1 0.249424 0.791457 0.478704
Si Si2 0.577896 0.526857 0.900203
Si Si3 0.780951 0.533326 0.637633
Si Si4 0.415894 0.602311 0.973977
Si Si5 0.636967 0.694932 0.607309
O O1 0.245798 0.709311 0.423051
O O2 0.277119 0.897264 0.450767
O O3 0.142157 0.798257 0.512619
O O4 0.329092 0.766279 0.534445
O O5 0.692132 0.543137 0.891187
O O6 0.514695 0.617350 0.929636
O O7 0.556925 0.441367 0.953285
O O8 0.844269 0.531668 0.568944
O O9 0.718505 0.630238 0.643000
O O10 0.538697 0.633698 0.596894
#
# Coordination Sequence:
#
# PCOD8304311 Si02
#       5
#    16  16  16  16  16
#     4   9  18  33  56  83 112 146 182 222 276 333
#     4   9  16  30  57  83 111 145 177 220 275 332
#     4   9  18  34  58  83 109 144 180 224 279 331
#     4   8  16  31  52  83 115 142 178 219 267 334
#     4  10  22  38  55  76 105 142 187 236 277 319
#
# _framework density 20.970776999999998
#
# number of rings (size 3 to 8) (size 9 to 14) (size 15 to 20)
#    0.000    3.000    0.000    0.000    0.000    5.600 
#    0.000    2.000    0.000  114.600    0.000    0.000 
#    0.000    0.000    0.000    0.000    0.000    0.000 
#
# Total GULP energy -495540.625256 kJ/mol
# GULP energy per Si atom -12388.515631 kJ/mol
# Density = 2.092305 g / cm^3
# Si number density = 20.970777 Si / 1000 Ang^3
#
#
#
# Elastic Constant Matrix: (Units=GPa)
#
#
# Indices 1 2 3 4 5 6 
#
# 1 56.0811 -0.6395 13.9430 0.0000 0.0000 -2.8720
# 2 -0.6395 56.0811 13.9430 0.0000 0.0000 2.8720
# 3 13.9430 13.9430 86.4275 0.0000 0.0000 0.0000
# 4 0.0000 0.0000 0.0000 23.9887 0.0000 0.0000
# 5 0.0000 0.0000 0.0000 0.0000 23.9887 0.0000
# 6 -2.8720 2.8720 0.0000 0.0000 0.0000 17.2562
#
#
#
# Elastic Compliance Matrix: (Units=1/GPa)
#
#
# Indices 1 2 3 4 5 6 
#
# 1 0.018781 0.000849 -0.003167 0.000000 0.000000 0.002985
# 2 0.000849 0.018781 -0.003167 0.000000 0.000000 -0.002985
# 3 -0.003167 -0.003167 0.012592 0.000000 0.000000 0.000000
# 4 0.000000 0.000000 0.000000 0.041686 0.000000 0.000000
# 5 0.000000 0.000000 0.000000 0.000000 0.041686 0.000000
# 6 0.002985 -0.002985 0.000000 0.000000 0.000000 0.058944
#
#
# Mechanical properties :
#
#
# Convention : Reuss Voigt Hill
#
# Bulk Modulus (GPa) = 25.52021 28.12028 26.82025
# Shear Modulus (GPa) = 23.09445 24.46960 23.78202
#
# Velocity S-wave (km/s) = 3.32214 3.41961 3.37123
# Velocity P-wave (km/s) = 5.18761 5.38796 5.28873
#
# Compressibility (1/GPa) = 0.03918463
#
# Stress axis : x y z
#
# Youngs Moduli (GPa) = 53.24483 53.24483 79.41446
#
# Poissons Ratio (x) = -0.04519 0.25149
# Poissons Ratio (y) = -0.04519 0.25149
# Poissons Ratio (z) = 0.16862 0.16862
#
# Static dielectric constant tensor:
#      x y z
#    x 3.733650 0.000000 0.000000 
#    y 0.000000 3.733650 0.000000 
#    z 0.000000 0.000000 3.871390 
# 
# 
# High freq. dielectric constant tensor:
#      x y z
#    x 1.801730 0.000000 0.000000 
#    y 0.000000 1.801730 0.000000 
#    z 0.000000 0.000000 1.824780 
# 
# From -- ./inp_files/4509.got.cif
#   From: 2010.03.12/outbox.cif.g09.slc.cpg/sg88_3_cif.got.tgz:4509.got - 2010.04.08 20:20:55.
