data_PCOD8304624
_publ_section_title
;
Structure prediction by ZEFSAII (Michael W. Deem and Ramdas Pophale) SiO2 
 PCOD8304624
Probable space group: P 4 21 2
;
_chemical_formula_sum "Si O2"
_cell_formula_units_Z 40
_cell_length_a 9.409573
_cell_length_b 9.409573
_cell_length_c 23.131017
_cell_angle_alpha 90.000000
_cell_angle_beta 90.000000
_cell_angle_gamma 90.000000
_cell_volume 2048.021727
_symmetry_space_group_name_H-M "P 4 21 2"
_symmetry_group_IT_number 90
_symmetry_cell_setting 'tetragonal'
loop_
_space_group_symop_operation_xyz
x,y,z
1/2-y,1/2+x,z
-x,-y,z
1/2+y,1/2-x,z
1/2+x,1/2-y,-z
1/2-x,1/2+y,-z
y,x,-z
-y,-x,-z
loop_
_atom_site_type_symbol
_atom_site_label
_atom_site_fract_x
_atom_site_fract_y
_atom_site_fract_z
Si Si1 0.835262 0.151926 0.386507
Si Si2 0.816501 0.645990 0.144087
Si Si3 0.809725 0.632793 0.276052
Si Si4 0.134000 0.139703 0.565761
Si Si5 0.347505 0.183834 0.050441
O O1 0.797527 0.196157 0.320312
O O2 0.770131 0.261615 0.432131
O O3 0.001962 0.161648 0.396323
O O4 0.777267 0.996329 0.402997
O O5 0.804077 0.477718 0.130093
O O6 0.770313 0.669702 0.210306
O O7 0.706095 0.742653 0.109141
O O8 0.806034 0.465142 0.287888
O O9 0.098219 0.098219 0.500000
O O10 0.518435 0.197934 0.046839
O O11 0.272575 0.272575 0.000000
#
# Coordination Sequence:
#
# PCOD8304624 Si02
#       5
#     8   8   8   8   8
#     4  11  21  38  57  82 114 149 192 242 297 355
#     4   9  19  37  62  90 120 153 200 252 292 344
#     4   9  17  35  60  86 112 151 201 241 284 349
#     4  11  23  38  57  82 113 149 194 245 301 362
#     4  11  24  41  61  91 128 164 203 246 295 351
#
# _framework density 19.531043
#
# number of rings (size 3 to 8) (size 9 to 14) (size 15 to 20)
#    0.000    1.800    2.000    4.800    0.000    5.200 
#    3.600    2.000    0.000    0.000    0.000    0.000 
#    0.000    0.000    0.000    0.000    0.000    0.000 
#
# Total GULP energy -495761.140288 kJ/mol
# GULP energy per Si atom -12394.028507 kJ/mol
# Density = 1.948659 g / cm^3
# Si number density = 19.531043 Si / 1000 Ang^3
#
#
#
# Elastic Constant Matrix: (Units=GPa)
#
#
# Indices 1 2 3 4 5 6 
#
# 1 69.9421 55.3416 52.6101 0.0000 0.0000 0.0000
# 2 55.3416 69.9421 52.6101 0.0000 0.0000 0.0000
# 3 52.6101 52.6101 146.2257 0.0000 0.0000 0.0000
# 4 0.0000 0.0000 0.0000 28.3405 0.0000 0.0000
# 5 0.0000 0.0000 0.0000 0.0000 28.3405 0.0000
# 6 0.0000 0.0000 0.0000 0.0000 0.0000 26.5793
#
#
#
# Elastic Compliance Matrix: (Units=1/GPa)
#
#
# Indices 1 2 3 4 5 6 
#
# 1 0.039965 -0.028526 -0.004115 0.000000 0.000000 0.000000
# 2 -0.028526 0.039965 -0.004115 0.000000 0.000000 0.000000
# 3 -0.004115 -0.004115 0.009800 0.000000 0.000000 0.000000
# 4 0.000000 0.000000 0.000000 0.035285 0.000000 0.000000
# 5 0.000000 0.000000 0.000000 0.000000 0.035285 0.000000
# 6 0.000000 0.000000 0.000000 0.000000 0.000000 0.037623
#
#
# Mechanical properties :
#
#
# Convention : Reuss Voigt Hill
#
# Bulk Modulus (GPa) = 61.67092 67.47040 64.57066
# Shear Modulus (GPa) = 18.06085 25.02192 21.54138
#
# Velocity S-wave (km/s) = 3.04423 3.58318 3.32464
# Velocity P-wave (km/s) = 6.63331 7.19299 6.91881
#
# Compressibility (1/GPa) = 0.01621510
#
# Stress axis : x y z
#
# Youngs Moduli (GPa) = 25.02215 25.02215 102.04079
#
# Poissons Ratio (x) = 0.71379 0.41993
# Poissons Ratio (y) = 0.71379 0.41993
# Poissons Ratio (z) = 0.10297 0.10297
#
# Static dielectric constant tensor:
#      x y z
#    x 3.572790 0.000000 0.000000 
#    y 0.000000 3.572790 0.000000 
#    z 0.000000 0.000000 3.632820 
# 
# 
# High freq. dielectric constant tensor:
#      x y z
#    x 1.751300 0.000000 0.000000 
#    y 0.000000 1.751300 0.000000 
#    z 0.000000 0.000000 1.772480 
# 
# From -- ./inp_files/2883.got.cif
#   From: 2010.03.12/outbox.cif.g09.slc.cpg/sg90_2_cif.got.tgz:2883.got - 2010.04.08 20:26:03.
