data_PCOD8304585
_publ_section_title
;
Structure prediction by ZEFSAII (Michael W. Deem and Ramdas Pophale) SiO2 
 PCOD8304585
Probable space group: P 4 21 2
;
_chemical_formula_sum "Si O2"
_cell_formula_units_Z 48
_cell_length_a 8.157655
_cell_length_b 8.157655
_cell_length_c 33.244168
_cell_angle_alpha 90.000000
_cell_angle_beta 90.000000
_cell_angle_gamma 90.000000
_cell_volume 2212.310788
_symmetry_space_group_name_H-M "P 4 21 2"
_symmetry_group_IT_number 90
_symmetry_cell_setting 'tetragonal'
loop_
_space_group_symop_operation_xyz
x,y,z
1/2-y,1/2+x,z
-x,-y,z
1/2+y,1/2-x,z
1/2+x,1/2-y,-z
1/2-x,1/2+y,-z
y,x,-z
-y,-x,-z
loop_
_atom_site_type_symbol
_atom_site_label
_atom_site_fract_x
_atom_site_fract_y
_atom_site_fract_z
Si Si1 0.080833 0.241615 0.963486
Si Si2 0.000000 0.000000 0.603986
Si Si3 0.500000 0.500000 0.738389
Si Si4 0.070215 0.761881 0.671833
Si Si5 0.410327 0.745449 0.891010
Si Si6 0.426466 0.737833 0.536194
Si Si7 0.745106 0.416527 0.199063
O O1 0.202860 0.394716 0.966152
O O2 0.104683 0.143819 0.921787
O O3 0.119200 0.119200 0.000000
O O4 0.864608 0.905781 0.577229
O O5 0.093753 0.865935 0.631186
O O6 0.621712 0.604958 0.710141
O O7 0.383038 0.610017 0.766982
O O8 0.199711 0.616679 0.673041
O O9 0.597355 0.795803 0.898289
O O10 0.389366 0.674390 0.845874
O O11 0.612716 0.799857 0.533984
O O12 0.386639 0.613362 0.500000
O O13 0.796494 0.604256 0.205269
#
# Coordination Sequence:
#
# PCOD8304585 Si02
#       7
#     8   4   4   8   8   8   8
#     4  11  24  39  56  81 111 143 182 224 266 317
#     4  11  21  38  61  84 114 158 209 252 299 357
#     4  11  20  34  59  84 110 146 187 230 282 347
#     4  10  22  38  56  82 116 152 192 242 297 351
#     4   9  19  36  57  81 109 141 180 224 269 322
#     4  11  23  39  61  90 125 163 207 259 311 367
#     4   9  19  35  55  81 111 143 181 226 276 333
#
# _framework density 21.696771999999999
#
# number of rings (size 3 to 8) (size 9 to 14) (size 15 to 20)
#    0.000    1.833    0.000    5.250    0.000    6.333 
#    0.000    1.667    0.000   10.000    0.000    0.000 
#    0.000    0.000    0.000    0.000    0.000    0.000 
#
# Total GULP energy -595284.642357 kJ/mol
# GULP energy per Si atom -12401.763382 kJ/mol
# Density = 2.164739 g / cm^3
# Si number density = 21.696772 Si / 1000 Ang^3
#
#
#
# Elastic Constant Matrix: (Units=GPa)
#
#
# Indices 1 2 3 4 5 6 
#
# 1 62.5038 12.2227 38.0973 0.0000 0.0000 0.0000
# 2 12.2227 62.5040 38.0973 0.0000 0.0000 0.0000
# 3 38.0973 38.0973 164.2669 0.0000 0.0000 0.0000
# 4 0.0000 0.0000 0.0000 29.2215 0.0000 0.0000
# 5 0.0000 0.0000 0.0000 0.0000 29.2218 0.0000
# 6 0.0000 0.0000 0.0000 0.0000 0.0000 30.1527
#
#
#
# Elastic Compliance Matrix: (Units=1/GPa)
#
#
# Indices 1 2 3 4 5 6 
#
# 1 0.018708 -0.001181 -0.004065 0.000000 0.000000 0.000000
# 2 -0.001181 0.018707 -0.004065 0.000000 0.000000 0.000000
# 3 -0.004065 -0.004065 0.007973 0.000000 0.000000 0.000000
# 4 0.000000 0.000000 0.000000 0.034221 0.000000 0.000000
# 5 0.000000 0.000000 0.000000 0.000000 0.034221 0.000000
# 6 0.000000 0.000000 0.000000 0.000000 0.000000 0.033164
#
#
# Mechanical properties :
#
#
# Convention : Reuss Voigt Hill
#
# Bulk Modulus (GPa) = 37.35900 51.78991 44.57446
# Shear Modulus (GPa) = 28.64701 31.10970 29.87836
#
# Velocity S-wave (km/s) = 3.63758 3.79072 3.71494
# Velocity P-wave (km/s) = 5.90752 6.56362 6.24419
#
# Compressibility (1/GPa) = 0.02676731
#
# Stress axis : x y z
#
# Youngs Moduli (GPa) = 53.45443 53.45460 125.42119
#
# Poissons Ratio (x) = 0.06311 0.50982
# Poissons Ratio (y) = 0.06311 0.50982
# Poissons Ratio (z) = 0.21729 0.21729
#
# Static dielectric constant tensor:
#      x y z
#    x 3.752260 0.000000 0.000000 
#    y 0.000000 3.752260 0.000000 
#    z 0.000000 0.000000 4.013310 
# 
# 
# High freq. dielectric constant tensor:
#      x y z
#    x 1.846680 0.000000 0.000000 
#    y 0.000000 1.846680 0.000000 
#    z 0.000000 0.000000 1.866030 
# 
# From -- ./inp_files/3121.got.cif
#   From: 2010.03.12/outbox.cif.g09.slc.cpg/sg90_2_cif.got.tgz:3121.got - 2010.04.08 20:26:03.
