data_PCOD8304700
_publ_section_title
;
Structure prediction by ZEFSAII (Michael W. Deem and Ramdas Pophale) SiO2 
 PCOD8304700
Probable space group: P 41 2 2
;
_chemical_formula_sum "Si O2"
_cell_formula_units_Z 56
_cell_length_a 24.760133
_cell_length_b 24.760133
_cell_length_c 5.297991
_cell_angle_alpha 90.000000
_cell_angle_beta 90.000000
_cell_angle_gamma 90.000000
_cell_volume 3248.008541
_symmetry_space_group_name_H-M "P 41 2 2"
_symmetry_group_IT_number 91
_symmetry_cell_setting 'tetragonal'
loop_
_space_group_symop_operation_xyz
x,y,z
-y,x,1/4+z
-x,-y,1/2+z
y,-x,3/4+z
x,-y,1/2-z
-x,y,-z
y,x,3/4-z
-y,-x,1/4-z
loop_
_atom_site_type_symbol
_atom_site_label
_atom_site_fract_x
_atom_site_fract_y
_atom_site_fract_z
Si Si1 0.033350 0.266728 0.752470
Si Si2 0.170120 0.558716 0.671782
Si Si3 0.940236 0.438680 0.654949
Si Si4 0.817620 0.402615 0.666110
Si Si5 0.943443 0.389496 0.157416
Si Si6 0.146257 0.233059 0.870543
Si Si7 0.720656 0.807527 0.878216
O O1 0.052707 0.328705 0.745257
O O2 0.084178 0.226790 0.786964
O O3 0.000000 0.252530 0.500000
O O4 0.000000 0.255357 0.000000
O O5 0.148156 0.500000 0.750000
O O6 0.202791 0.561662 0.405609
O O7 0.119354 0.597295 0.607007
O O8 0.209060 0.578793 0.899551
O O9 0.937141 0.500000 0.750000
O O10 0.880989 0.413837 0.606185
O O11 0.966768 0.431898 0.372489
O O12 0.968556 0.399838 0.870928
O O13 0.801162 0.341148 0.705288
O O14 0.174441 0.174441 0.875000
O O15 0.170501 0.272616 0.655768
O O16 0.152587 0.256048 0.154832
O O17 0.749248 0.749248 0.875000
#
# Coordination Sequence:
#
# PCOD8304700 Si02
#       7
#     8   8   8   8   8   8   8
#     4  12  24  37  53  74  99 124 153 183 223 284
#     4  10  18  28  45  64  83 115 163 207 240 272
#     4  10  17  27  46  64  81 112 159 204 237 268
#     4  10  16  25  40  62  89 114 143 191 247 282
#     4  10  18  30  45  61  85 114 146 186 233 270
#     4  10  20  36  55  74  97 124 152 185 223 272
#     4  10  19  31  50  75  98 121 154 192 238 298
#
# _framework density 17.241333999999998
#
# number of rings (size 3 to 8) (size 9 to 14) (size 15 to 20)
#    0.000    1.714    0.000   10.286    0.000    0.000 
#    0.000    0.000    0.000   14.571    0.000    0.000 
#    0.000    1.143    0.000    0.000    0.000    0.000 
#
# Total GULP energy -693988.106690 kJ/mol
# GULP energy per Si atom -12392.644762 kJ/mol
# Density = 1.720209 g / cm^3
# Si number density = 17.241334 Si / 1000 Ang^3
#
#
#
# Elastic Constant Matrix: (Units=GPa)
#
#
# Indices 1 2 3 4 5 6 
#
# 1 58.1251 35.5098 30.3944 0.0000 0.0000 0.0000
# 2 35.5098 58.1251 30.3944 0.0000 0.0000 0.0000
# 3 30.3944 30.3944 160.9317 0.0000 0.0000 0.0000
# 4 0.0000 0.0000 0.0000 25.8451 0.0000 0.0000
# 5 0.0000 0.0000 0.0000 0.0000 25.8451 0.0000
# 6 0.0000 0.0000 0.0000 0.0000 0.0000 20.0370
#
#
#
# Elastic Compliance Matrix: (Units=1/GPa)
#
#
# Indices 1 2 3 4 5 6 
#
# 1 0.028195 -0.016023 -0.002299 0.000000 0.000000 0.000000
# 2 -0.016023 0.028195 -0.002299 0.000000 0.000000 0.000000
# 3 -0.002299 -0.002299 0.007082 0.000000 0.000000 0.000000
# 4 0.000000 0.000000 0.000000 0.038692 0.000000 0.000000
# 5 0.000000 0.000000 0.000000 0.000000 0.038692 0.000000
# 6 0.000000 0.000000 0.000000 0.000000 0.000000 0.049908
#
#
# Mechanical properties :
#
#
# Convention : Reuss Voigt Hill
#
# Bulk Modulus (GPa) = 44.98215 52.19768 48.58992
# Shear Modulus (GPa) = 20.88415 26.40430 23.64422
#
# Velocity S-wave (km/s) = 3.48413 3.91762 3.70722
# Velocity P-wave (km/s) = 6.50629 7.12770 6.82408
#
# Compressibility (1/GPa) = 0.02223104
#
# Stress axis : x y z
#
# Youngs Moduli (GPa) = 35.46713 35.46713 141.19926
#
# Poissons Ratio (x) = 0.56828 0.32461
# Poissons Ratio (y) = 0.56828 0.32461
# Poissons Ratio (z) = 0.08154 0.08154
#
# Static dielectric constant tensor:
#      x y z
#    x 2.923030 0.000000 0.000000 
#    y 0.000000 2.923030 0.000000 
#    z 0.000000 0.000000 4.270860 
# 
# 
# High freq. dielectric constant tensor:
#      x y z
#    x 1.618120 0.000000 0.000000 
#    y 0.000000 1.618120 0.000000 
#    z 0.000000 0.000000 1.726090 
# 
# From -- ./inp_files/9162.got.cif
#   From: 2010.03.12/outbox.cif.g09.slc.cpg/sg91_5_cif.got.tgz:9162.got - 2010.04.08 20:27:58.
