data_PCOD8304964
_publ_section_title
;
Structure prediction by ZEFSAII (Michael W. Deem and Ramdas Pophale) SiO2 
 PCOD8304964
Probable space group: P 41 2 2
;
_chemical_formula_sum "Si O2"
_cell_formula_units_Z 44
_cell_length_a 9.142402
_cell_length_b 9.142402
_cell_length_c 25.278641
_cell_angle_alpha 90.000000
_cell_angle_beta 90.000000
_cell_angle_gamma 90.000000
_cell_volume 2112.877652
_symmetry_space_group_name_H-M "P 41 2 2"
_symmetry_group_IT_number 91
_symmetry_cell_setting 'tetragonal'
loop_
_space_group_symop_operation_xyz
x,y,z
-y,x,1/4+z
-x,-y,1/2+z
y,-x,3/4+z
x,-y,1/2-z
-x,y,-z
y,x,3/4-z
-y,-x,1/4-z
loop_
_atom_site_type_symbol
_atom_site_label
_atom_site_fract_x
_atom_site_fract_y
_atom_site_fract_z
Si Si1 0.219623 0.079260 0.072864
Si Si2 0.107855 0.539949 0.550604
Si Si3 0.350507 0.248516 0.982560
Si Si4 0.779366 0.771482 0.066888
Si Si5 0.064675 0.000000 0.250000
Si Si6 0.468460 0.021014 0.586107
O O1 0.356839 0.963915 0.075450
O O2 0.181373 0.134572 0.130746
O O3 0.065537 0.024816 0.049247
O O4 0.271033 0.213278 0.037342
O O5 0.231106 0.664184 0.550514
O O6 0.212461 0.399857 0.556659
O O7 0.000000 0.534819 0.500000
O O8 0.008154 0.560764 0.602050
O O9 0.396186 0.105870 0.949308
O O10 0.500000 0.334086 0.000000
O O11 0.611454 0.827337 0.070141
O O12 0.861097 0.843151 0.017660
#
# Coordination Sequence:
#
# PCOD8304964 Si02
#       6
#     8   8   8   8   4   8
#     4  10  23  38  63  93 121 160 219 256 309 380
#     4  11  23  39  61  92 127 161 208 265 313 371
#     4  10  21  39  59  90 120 163 214 259 304 383
#     4  11  23  40  60  93 126 163 204 260 316 379
#     4  12  22  38  62  92 128 158 208 264 312 374
#     4  10  22  41  64  87 126 167 210 256 316 380
#
# _framework density 20.824679
#
# number of rings (size 3 to 8) (size 9 to 14) (size 15 to 20)
#    0.000    1.455    2.727    2.182    3.818    1.455 
#    3.273    0.000    0.000    4.364    0.000    0.000 
#    0.000    0.000    0.000    0.000    0.000    0.000 
#
# Total GULP energy -545239.445079 kJ/mol
# GULP energy per Si atom -12391.805570 kJ/mol
# Density = 2.077728 g / cm^3
# Si number density = 20.824679 Si / 1000 Ang^3
#
#
#
# Elastic Constant Matrix: (Units=GPa)
#
#
# Indices 1 2 3 4 5 6 
#
# 1 65.9472 34.6420 6.6867 0.0000 0.0000 0.0000
# 2 34.6420 65.9472 6.6867 0.0000 0.0000 0.0000
# 3 6.6867 6.6867 88.1213 0.0000 0.0000 0.0000
# 4 0.0000 0.0000 0.0000 21.7021 0.0000 0.0000
# 5 0.0000 0.0000 0.0000 0.0000 21.7021 0.0000
# 6 0.0000 0.0000 0.0000 0.0000 0.0000 28.2337
#
#
#
# Elastic Compliance Matrix: (Units=1/GPa)
#
#
# Indices 1 2 3 4 5 6 
#
# 1 0.020993 -0.010950 -0.000762 0.000000 0.000000 0.000000
# 2 -0.010950 0.020993 -0.000762 0.000000 0.000000 0.000000
# 3 -0.000762 -0.000762 0.011464 0.000000 0.000000 0.000000
# 4 0.000000 0.000000 0.000000 0.046078 0.000000 0.000000
# 5 0.000000 0.000000 0.000000 0.000000 0.046078 0.000000
# 6 0.000000 0.000000 0.000000 0.000000 0.000000 0.035419
#
#
# Mechanical properties :
#
#
# Convention : Reuss Voigt Hill
#
# Bulk Modulus (GPa) = 35.08660 35.11629 35.10144
# Shear Modulus (GPa) = 23.20457 25.79427 24.49942
#
# Velocity S-wave (km/s) = 3.34171 3.52325 3.43368
# Velocity P-wave (km/s) = 5.63689 5.78364 5.71073
#
# Compressibility (1/GPa) = 0.02850091
#
# Stress axis : x y z
#
# Youngs Moduli (GPa) = 47.63462 47.63462 87.23231
#
# Poissons Ratio (x) = 0.52162 0.06648
# Poissons Ratio (y) = 0.52162 0.06648
# Poissons Ratio (z) = 0.03630 0.03630
#
# Static dielectric constant tensor:
#      x y z
#    x 3.779390 0.000000 0.000000 
#    y 0.000000 3.779390 0.000000 
#    z 0.000000 0.000000 4.021890 
# 
# 
# High freq. dielectric constant tensor:
#      x y z
#    x 1.802520 0.000000 0.000000 
#    y 0.000000 1.802520 0.000000 
#    z 0.000000 0.000000 1.837710 
# 
# From -- ./inp_files/7814.got.cif
#   From: 2010.03.12/outbox.cif.g09.slc.cpg/sg91_4_cif.got.tgz:7814.got - 2010.04.08 20:27:58.
