data_PCOD8304045
_publ_section_title
;
Structure prediction by ZEFSAII (Michael W. Deem and Ramdas Pophale) SiO2 
 PCOD8304045
Probable space group: I 4/M
;
_chemical_formula_sum "Si O2"
_cell_formula_units_Z 96
_cell_length_a 15.849649
_cell_length_b 15.849649
_cell_length_c 19.979439
_cell_angle_alpha 90.000000
_cell_angle_beta 90.000000
_cell_angle_gamma 90.000000
_cell_volume 5019.062311
_symmetry_space_group_name_H-M "I 4/M"
_symmetry_group_IT_number 87
_symmetry_cell_setting 'tetragonal'
loop_
_space_group_symop_operation_xyz
x,y,z
-y,x,z
-x,-y,z
y,-x,z
-x,-y,-z
y,-x,-z
x,y,-z
-y,x,-z
1/2+x,1/2+y,1/2+z
1/2-y,1/2+x,1/2+z
1/2-x,1/2-y,1/2+z
1/2+y,1/2-x,1/2+z
1/2-x,1/2-y,1/2-z
1/2+y,1/2-x,1/2-z
1/2+x,1/2+y,1/2-z
1/2-y,1/2+x,1/2-z
loop_
_atom_site_type_symbol
_atom_site_label
_atom_site_fract_x
_atom_site_fract_y
_atom_site_fract_z
Si Si1 0.953261 0.275936 0.274957
Si Si2 0.102600 0.255802 0.077492
Si Si3 0.986849 0.408493 0.924352
Si Si4 0.215359 0.756719 0.325155
Si Si5 0.640182 0.488211 0.672047
Si Si6 0.652556 0.117549 0.671795
O O1 0.886635 0.232426 0.326484
O O2 0.891968 0.338585 0.234847
O O3 0.007218 0.207937 0.232318
O O4 0.018998 0.333498 0.314467
O O5 0.069930 0.351574 0.082485
O O6 0.181841 0.249947 0.127301
O O7 0.028820 0.191769 0.103238
O O8 0.124925 0.233452 0.000000
O O9 0.000000 0.500000 0.890523
O O10 0.908896 0.364094 0.889307
O O11 0.958847 0.420964 0.000000
O O12 0.250000 0.750000 0.250000
O O13 0.258194 0.842573 0.351086
O O14 0.590498 0.576156 0.676027
#
# Coordination Sequence:
#
# PCOD8304045 Si02
#       6
#    16  16  16  16  16  16
#     4  11  21  36  57  86 117 149 202 248 316 351
#     4  11  23  40  60  85 122 164 204 252 307 375
#     4  10  22  38  56  82 115 150 193 242 297 359
#     4  10  22  39  57  88 119 157 207 258 308 363
#     4  11  22  38  58  85 120 160 206 253 300 365
#     4  11  22  34  59  82 114 150 193 245 298 363
#
# _framework density 19.127078000000001
#
# number of rings (size 3 to 8) (size 9 to 14) (size 15 to 20)
#    0.000    1.333    1.667    6.000    2.333    1.333 
#    0.000    0.833    0.000    0.000    0.000    0.000 
#    0.000    0.000    0.000   24.500    0.000    0.000 
#
# Total GULP energy -594797.861829 kJ/mol
# GULP energy per Si atom -12391.622121 kJ/mol
# Density = 1.908354 g / cm^3
# Si number density = 19.127078 Si / 1000 Ang^3
#
#
#
# Elastic Constant Matrix: (Units=GPa)
#
#
# Indices 1 2 3 4 5 6 
#
# 1 95.6388 27.5167 29.4311 0.0000 0.0000 8.4825
# 2 27.5167 95.6388 29.4311 0.0000 0.0000 -8.4825
# 3 29.4311 29.4311 75.1178 0.0000 0.0000 0.0000
# 4 0.0000 0.0000 0.0000 20.5688 0.0000 0.0000
# 5 0.0000 0.0000 0.0000 0.0000 20.5688 0.0000
# 6 8.4825 -8.4825 0.0000 0.0000 0.0000 38.9084
#
#
#
# Elastic Compliance Matrix: (Units=1/GPa)
#
#
# Indices 1 2 3 4 5 6 
#
# 1 0.012756 -0.002766 -0.003914 0.000000 0.000000 -0.003384
# 2 -0.002766 0.012756 -0.003914 0.000000 0.000000 0.003384
# 3 -0.003914 -0.003914 0.016380 0.000000 0.000000 0.000000
# 4 0.000000 0.000000 0.000000 0.048617 0.000000 0.000000
# 5 0.000000 0.000000 0.000000 0.000000 0.048617 0.000000
# 6 -0.003384 0.003384 0.000000 0.000000 0.000000 0.027177
#
#
# Mechanical properties :
#
#
# Convention : Reuss Voigt Hill
#
# Bulk Modulus (GPa) = 48.30059 48.79481 48.54770
# Shear Modulus (GPa) = 25.72092 28.01030 26.86561
#
# Velocity S-wave (km/s) = 3.67105 3.83094 3.75185
# Velocity P-wave (km/s) = 6.57845 6.71821 6.64870
#
# Compressibility (1/GPa) = 0.02070368
#
# Stress axis : x y z
#
# Youngs Moduli (GPa) = 78.39153 78.39153 61.05120
#
# Poissons Ratio (x) = 0.21682 0.23898
# Poissons Ratio (y) = 0.21682 0.23898
# Poissons Ratio (z) = 0.30685 0.30685
#
# Static dielectric constant tensor:
#      x y z
#    x 3.940840 0.000000 0.000000 
#    y 0.000000 3.940840 0.000000 
#    z 0.000000 0.000000 3.425050 
# 
# 
# High freq. dielectric constant tensor:
#      x y z
#    x 1.752030 0.000000 0.000000 
#    y 0.000000 1.752030 0.000000 
#    z 0.000000 0.000000 1.717530 
# 
# From -- ./inp_files/5291.got.cif
#   From: 2010.03.12/outbox.cif.g09.slc.cpg/sg87_3_cif.got.tgz:5291.got - 2010.04.08 20:16:13.
