data_PCOD8304597
_publ_section_title
;
Structure prediction by ZEFSAII (Michael W. Deem and Ramdas Pophale) SiO2 
 PCOD8304597
Probable space group: P 4 21 2
;
_chemical_formula_sum "Si O2"
_cell_formula_units_Z 48
_cell_length_a 8.103701
_cell_length_b 8.103701
_cell_length_c 33.486564
_cell_angle_alpha 90.000000
_cell_angle_beta 90.000000
_cell_angle_gamma 90.000000
_cell_volume 2199.061650
_symmetry_space_group_name_H-M "P 4 21 2"
_symmetry_group_IT_number 90
_symmetry_cell_setting 'tetragonal'
loop_
_space_group_symop_operation_xyz
x,y,z
1/2-y,1/2+x,z
-x,-y,z
1/2+y,1/2-x,z
1/2+x,1/2-y,-z
1/2-x,1/2+y,-z
y,x,-z
-y,-x,-z
loop_
_atom_site_type_symbol
_atom_site_label
_atom_site_fract_x
_atom_site_fract_y
_atom_site_fract_z
Si Si1 0.500000 0.500000 0.813805
Si Si2 0.422299 0.259174 0.877742
Si Si3 0.423887 0.736506 0.252971
Si Si4 0.251065 0.390009 0.460036
Si Si5 0.757407 0.092578 0.382114
Si Si6 0.070541 0.761581 0.033998
Si Si7 0.500000 0.500000 0.319612
O O1 0.386055 0.387721 0.842523
O O2 0.625339 0.394628 0.786333
O O3 0.297810 0.109998 0.872721
O O4 0.402045 0.339778 0.921845
O O5 0.297204 0.886426 0.253547
O O6 0.392662 0.623276 0.291854
O O7 0.214408 0.583575 0.457972
O O8 0.350163 0.350163 0.500000
O O9 0.373350 0.342483 0.424330
O O10 0.599141 0.208429 0.377741
O O11 0.891889 0.124726 0.347280
O O12 0.198294 0.613293 0.028705
O O13 0.102712 0.897289 0.000000
#
# Coordination Sequence:
#
# PCOD8304597 Si02
#       7
#     4   8   8   8   8   8   4
#     4  11  20  34  61  88 110 146 191 232 280 343
#     4   9  19  35  53  78 114 150 186 232 287 344
#     4  10  22  40  61  87 118 149 185 233 290 354
#     4  11  24  41  62  92 130 173 220 267 314 366
#     4  11  23  40  64  93 125 163 207 257 313 369
#     4   9  19  34  51  74 106 145 189 236 284 337
#     4  11  22  38  63  88 114 152 193 234 292 361
#
# _framework density 21.827490000000001
#
# number of rings (size 3 to 8) (size 9 to 14) (size 15 to 20)
#    0.000    1.833    0.000    5.000    0.000    7.333 
#    0.000    0.000    0.000   20.500    0.000    0.000 
#    0.000    0.000    0.000    0.000    0.000    0.000 
#
# Total GULP energy -595160.868246 kJ/mol
# GULP energy per Si atom -12399.184755 kJ/mol
# Density = 2.177781 g / cm^3
# Si number density = 21.827490 Si / 1000 Ang^3
#
#
#
# Elastic Constant Matrix: (Units=GPa)
#
#
# Indices 1 2 3 4 5 6 
#
# 1 74.8066 27.2891 52.4546 0.0000 0.0000 0.0000
# 2 27.2891 74.8055 52.4541 0.0000 0.0000 0.0000
# 3 52.4546 52.4541 193.5814 0.0000 0.0000 0.0000
# 4 0.0000 0.0000 0.0000 36.5651 0.0000 0.0000
# 5 0.0000 0.0000 0.0000 0.0000 36.5648 0.0000
# 6 0.0000 0.0000 0.0000 0.0000 0.0000 31.0239
#
#
#
# Elastic Compliance Matrix: (Units=1/GPa)
#
#
# Indices 1 2 3 4 5 6 
#
# 1 0.017310 -0.003735 -0.003678 0.000000 0.000000 0.000000
# 2 -0.003735 0.017310 -0.003678 0.000000 0.000000 0.000000
# 3 -0.003678 -0.003678 0.007159 0.000000 0.000000 0.000000
# 4 0.000000 0.000000 0.000000 0.027348 0.000000 0.000000
# 5 0.000000 0.000000 0.000000 0.000000 0.027349 0.000000
# 6 0.000000 0.000000 0.000000 0.000000 0.000000 0.032233
#
#
# Mechanical properties :
#
#
# Convention : Reuss Voigt Hill
#
# Bulk Modulus (GPa) = 51.03343 67.50991 59.27167
# Shear Modulus (GPa) = 31.76127 34.89712 33.32920
#
# Velocity S-wave (km/s) = 3.81872 4.00280 3.91184
# Velocity P-wave (km/s) = 6.54787 7.23597 6.90050
#
# Compressibility (1/GPa) = 0.01959500
#
# Stress axis : x y z
#
# Youngs Moduli (GPa) = 57.77132 57.77047 139.68144
#
# Poissons Ratio (x) = 0.21580 0.51378
# Poissons Ratio (y) = 0.21580 0.51378
# Poissons Ratio (z) = 0.21250 0.21249
#
# Static dielectric constant tensor:
#      x y z
#    x 3.834700 0.000000 0.000000 
#    y 0.000000 3.834700 0.000000 
#    z 0.000000 0.000000 4.185940 
# 
# 
# High freq. dielectric constant tensor:
#      x y z
#    x 1.848030 0.000000 0.000000 
#    y 0.000000 1.848030 0.000000 
#    z 0.000000 0.000000 1.879070 
# 
# From -- ./inp_files/3073.got.cif
#   From: 2010.03.12/outbox.cif.g09.slc.cpg/sg90_2_cif.got.tgz:3073.got - 2010.04.08 20:26:03.
