data_PCOD8304680
_publ_section_title
;
Structure prediction by ZEFSAII (Michael W. Deem and Ramdas Pophale) SiO2 
 PCOD8304680
Probable space group: P 4 21 2
;
_chemical_formula_sum "Si O2"
_cell_formula_units_Z 28
_cell_length_a 7.980239
_cell_length_b 7.980239
_cell_length_c 19.223172
_cell_angle_alpha 90.000000
_cell_angle_beta 90.000000
_cell_angle_gamma 90.000000
_cell_volume 1224.212609
_symmetry_space_group_name_H-M "P 4 21 2"
_symmetry_group_IT_number 90
_symmetry_cell_setting 'tetragonal'
loop_
_space_group_symop_operation_xyz
x,y,z
1/2-y,1/2+x,z
-x,-y,z
1/2+y,1/2-x,z
1/2+x,1/2-y,-z
1/2-x,1/2+y,-z
y,x,-z
-y,-x,-z
loop_
_atom_site_type_symbol
_atom_site_label
_atom_site_fract_x
_atom_site_fract_y
_atom_site_fract_z
Si Si1 0.500000 0.500000 0.682903
Si Si2 0.264249 0.582963 0.799677
Si Si3 0.411052 0.736945 0.932714
Si Si4 0.234782 0.919590 0.565490
O O1 0.374570 0.609984 0.730498
O O2 0.608456 0.626460 0.635210
O O3 0.208063 0.390834 0.800597
O O4 0.378632 0.620914 0.866106
O O5 0.603175 0.790401 0.932540
O O6 0.375176 0.624825 0.000000
O O7 0.388725 0.792836 0.563959
O O8 0.115759 0.884242 0.500000
#
# Coordination Sequence:
#
# PCOD8304680 Si02
#       4
#     4   8   8   8
#     4  12  23  42  65  94 132 172 214 266 325 392
#     4  11  24  41  63  93 128 169 216 267 327 393
#     4  11  24  42  65  93 126 167 217 273 332 394
#     4  11  24  43  69  99 132 172 219 271 328 393
#
# _framework density 22.871842000000001
#
# number of rings (size 3 to 8) (size 9 to 14) (size 15 to 20)
#    0.000    0.857    0.000    7.286    0.000    5.143 
#    0.000    5.714    0.000    0.000    0.000    0.000 
#    0.000    0.000    0.000    0.000    0.000    0.000 
#
# Total GULP energy -347373.395743 kJ/mol
# GULP energy per Si atom -12406.192705 kJ/mol
# Density = 2.281978 g / cm^3
# Si number density = 22.871842 Si / 1000 Ang^3
#
#
#
# Elastic Constant Matrix: (Units=GPa)
#
#
# Indices 1 2 3 4 5 6 
#
# 1 104.3735 45.0994 64.5344 0.0000 0.0000 0.0000
# 2 45.0994 104.3735 64.5353 0.0000 0.0000 0.0000
# 3 64.5344 64.5353 210.2015 0.0000 0.0000 0.0000
# 4 0.0000 0.0000 0.0000 -123.6378 0.0000 0.0000
# 5 0.0000 0.0000 0.0000 0.0000 -123.5635 0.0000
# 6 0.0000 0.0000 0.0000 0.0000 0.0000 39.6092
#
#
#
# Elastic Compliance Matrix: (Units=1/GPa)
#
#
# Indices 1 2 3 4 5 6 
#
# 1 0.012987 -0.003884 -0.002795 0.000000 0.000000 0.000000
# 2 -0.003884 0.012987 -0.002795 0.000000 0.000000 0.000000
# 3 -0.002795 -0.002795 0.006474 0.000000 0.000000 0.000000
# 4 0.000000 0.000000 0.000000 -0.008088 0.000000 0.000000
# 5 0.000000 0.000000 0.000000 0.000000 -0.008093 0.000000
# 6 0.000000 0.000000 0.000000 0.000000 0.000000 0.025247
#
#
# Mechanical properties :
#
#
# Convention : Reuss Voigt Hill
#
# Bulk Modulus (GPa) = 74.06877 85.25408 79.66143
# Shear Modulus (GPa) = 76.96966 -25.19981 25.88493
#
# Velocity S-wave (km/s) = 5.80738 -3.32291 3.36778
# Velocity P-wave (km/s) = 8.79898 4.75744 7.07302
#
# Compressibility (1/GPa) = 0.01350097
#
# Stress axis : x y z
#
# Youngs Moduli (GPa) = 76.99927 76.99869 154.47570
#
# Poissons Ratio (x) = 0.29903 0.43174
# Poissons Ratio (y) = 0.29903 0.43176
# Poissons Ratio (z) = 0.21520 0.21521
#
# Static dielectric constant tensor:
#      x y z
#    x 4.107440 0.000000 0.000000 
#    y 0.000000 4.107440 0.000000 
#    z 0.000000 0.000000 4.190910 
# 
# 
# High freq. dielectric constant tensor:
#      x y z
#    x 1.914710 0.000000 0.000000 
#    y 0.000000 1.914710 0.000000 
#    z 0.000000 0.000000 1.913090 
# 
# From -- ./inp_files/2594.got.cif
#   From: 2010.03.12/outbox.cif.g09.slc.cpg/sg90_2_cif.got.tgz:2594.got - 2010.04.08 20:26:03.
