data_PCOD8304198
_publ_section_title
;
Structure prediction by ZEFSAII (Michael W. Deem and Ramdas Pophale) SiO2 
 PCOD8304198
Probable space group: I 41/A
;
_chemical_formula_sum "Si O2"
_cell_formula_units_Z 84
_cell_length_a 15.169003
_cell_length_b 15.169003
_cell_length_c 20.411542
_cell_angle_alpha 90.000000
_cell_angle_beta 90.000000
_cell_angle_gamma 90.000000
_cell_volume 4696.668300
_symmetry_space_group_name_H-M "I 41/A"
_symmetry_group_IT_number 88
_space_group.IT_coordinate_system_code '2'
_symmetry_cell_setting 'tetragonal'
loop_
_space_group_symop_operation_xyz
x,y,z
3/4-y,1/4+x,1/4+z
-x,1/2-y,z
1/4+y,1/4-x,1/4+z
-x,-y,-z
1/4+y,3/4-x,3/4-z
x,1/2+y,-z
3/4-y,3/4+x,3/4-z
1/2+x,1/2+y,1/2+z
1/4-y,3/4+x,3/4+z
1/2-x,-y,1/2+z
3/4+y,3/4-x,3/4+z
1/2-x,1/2-y,1/2-z
3/4+y,1/4-x,1/4-z
1/2+x,y,1/2-z
1/4-y,1/4+x,1/4-z
loop_
_atom_site_type_symbol
_atom_site_label
_atom_site_fract_x
_atom_site_fract_y
_atom_site_fract_z
Si Si1 0.181285 0.066728 0.715169
Si Si2 0.981832 0.150295 0.850748
Si Si3 0.000000 0.750000 0.375000
Si Si4 0.673400 0.107039 0.638190
Si Si5 0.979509 0.599426 0.288877
Si Si6 0.202962 0.310249 0.869917
O O1 0.193414 0.053071 0.794106
O O2 0.255244 0.133971 0.689437
O O3 0.084967 0.106778 0.703879
O O4 0.186075 0.975363 0.673130
O O5 0.951137 0.099733 0.785837
O O6 0.892393 0.151110 0.893974
O O7 0.000000 0.250000 0.829224
O O8 0.068504 0.104100 0.881667
O O9 0.056474 0.817245 0.329913
O O10 0.698392 0.208430 0.652644
O O11 0.933596 0.511734 0.315441
#
# Coordination Sequence:
#
# PCOD8304198 Si02
#       6
#    16  16   4  16  16  16
#     4  10  19  30  46  70  98 127 167 197 239 292
#     4   9  18  32  46  64  99 134 161 197 239 288
#     4  12  16  24  36  60 100 128 156 180 228 282
#     4   9  20  33  46  70 101 133 160 202 245 287
#     4  10  19  27  41  68  98 133 161 192 233 282
#     4  10  19  28  47  70  97 131 166 195 232 293
#
# _framework density 17.885017999999999
#
# number of rings (size 3 to 8) (size 9 to 14) (size 15 to 20)
#    0.000    2.286    2.857    0.571    2.667    0.000 
#    0.000    0.000    0.000    1.143    0.000    0.000 
#    0.000    0.000    0.000    0.000    0.000    0.000 
#
# Total GULP energy -520301.786467 kJ/mol
# GULP energy per Si atom -12388.137773 kJ/mol
# Density = 1.784431 g / cm^3
# Si number density = 17.885018 Si / 1000 Ang^3
#
#
#
# Elastic Constant Matrix: (Units=GPa)
#
#
# Indices 1 2 3 4 5 6 
#
# 1 78.2645 28.2161 30.6002 0.0000 0.0000 -1.1712
# 2 28.2161 78.2645 30.6002 0.0000 0.0000 1.1712
# 3 30.6002 30.6002 66.0497 0.0000 0.0000 0.0000
# 4 0.0000 0.0000 0.0000 18.7790 0.0000 0.0000
# 5 0.0000 0.0000 0.0000 0.0000 18.7790 0.0000
# 6 -1.1712 1.1712 0.0000 0.0000 0.0000 14.7988
#
#
#
# Elastic Compliance Matrix: (Units=1/GPa)
#
#
# Indices 1 2 3 4 5 6 
#
# 1 0.016427 -0.003628 -0.005930 0.000000 0.000000 0.001587
# 2 -0.003628 0.016427 -0.005930 0.000000 0.000000 -0.001587
# 3 -0.005930 -0.005930 0.020635 0.000000 0.000000 0.000000
# 4 0.000000 0.000000 0.000000 0.053251 0.000000 0.000000
# 5 0.000000 0.000000 0.000000 0.000000 0.053251 0.000000
# 6 0.001587 -0.001587 0.000000 0.000000 0.000000 0.067824
#
#
# Mechanical properties :
#
#
# Convention : Reuss Voigt Hill
#
# Bulk Modulus (GPa) = 44.41646 44.60131 44.50888
# Shear Modulus (GPa) = 18.77614 19.34884 19.06249
#
# Velocity S-wave (km/s) = 3.24362 3.29271 3.26826
# Velocity P-wave (km/s) = 6.23830 6.28075 6.25956
#
# Compressibility (1/GPa) = 0.02251418
#
# Stress axis : x y z
#
# Youngs Moduli (GPa) = 60.87421 60.87421 48.46197
#
# Poissons Ratio (x) = 0.22083 0.28738
# Poissons Ratio (y) = 0.22083 0.28738
# Poissons Ratio (z) = 0.36098 0.36098
#
# Static dielectric constant tensor:
#      x y z
#    x 3.353530 0.000000 0.000000 
#    y 0.000000 3.353530 0.000000 
#    z 0.000000 0.000000 3.090480 
# 
# 
# High freq. dielectric constant tensor:
#      x y z
#    x 1.678350 0.000000 0.000000 
#    y 0.000000 1.678350 0.000000 
#    z 0.000000 0.000000 1.659010 
# 
# From -- ./inp_files/4584.got.cif
#   From: 2010.03.12/outbox.cif.g09.slc.cpg/sg88_3_cif.got.tgz:4584.got - 2010.04.08 20:20:55.
