data_PCOD8304302
_publ_section_title
;
Structure prediction by ZEFSAII (Michael W. Deem and Ramdas Pophale) SiO2 
 PCOD8304302
Probable space group: I 41/A
;
_chemical_formula_sum "Si O2"
_cell_formula_units_Z 88
_cell_length_a 16.396018
_cell_length_b 16.396018
_cell_length_c 13.141718
_cell_angle_alpha 90.000000
_cell_angle_beta 90.000000
_cell_angle_gamma 90.000000
_cell_volume 3532.880247
_symmetry_space_group_name_H-M "I 41/A"
_symmetry_group_IT_number 88
_space_group.IT_coordinate_system_code '2'
_symmetry_cell_setting 'tetragonal'
loop_
_space_group_symop_operation_xyz
x,y,z
3/4-y,1/4+x,1/4+z
-x,1/2-y,z
1/4+y,1/4-x,1/4+z
-x,-y,-z
1/4+y,3/4-x,3/4-z
x,1/2+y,-z
3/4-y,3/4+x,3/4-z
1/2+x,1/2+y,1/2+z
1/4-y,3/4+x,3/4+z
1/2-x,-y,1/2+z
3/4+y,3/4-x,3/4+z
1/2-x,1/2-y,1/2-z
3/4+y,1/4-x,1/4-z
1/2+x,y,1/2-z
1/4-y,1/4+x,1/4-z
loop_
_atom_site_type_symbol
_atom_site_label
_atom_site_fract_x
_atom_site_fract_y
_atom_site_fract_z
Si Si1 0.655722 0.173560 0.679591
Si Si2 0.891902 0.289360 0.176684
Si Si3 0.218696 0.601485 0.583267
Si Si4 0.571434 0.495755 0.869737
Si Si5 0.500000 0.750000 0.858580
Si Si6 0.238208 0.891172 0.702674
O O1 0.679110 0.151675 0.795574
O O2 0.729726 0.226761 0.631822
O O3 0.575296 0.229062 0.681491
O O4 0.640280 0.094162 0.610977
O O5 0.894918 0.210704 0.104633
O O6 0.917320 0.266067 0.292099
O O7 0.803518 0.327677 0.157578
O O8 0.208616 0.667470 0.493177
O O9 0.128553 0.575877 0.619835
O O10 0.271862 0.636520 0.678974
O O11 0.266393 0.521883 0.541580
#
# Coordination Sequence:
#
# PCOD8304302 Si02
#       6
#    16  16  16  16   8  16
#     4  11  24  44  73 103 150 196 247 303 371 447
#     4   9  22  44  67 102 156 180 225 315 382 430
#     4  10  22  45  71 106 145 182 248 306 367 443
#     4  10  23  48  71 100 148 199 242 313 364 431
#     4  10  21  42  66 109 146 190 240 301 379 450
#     4  11  23  42  74 109 138 189 249 294 374 451
#
# _framework density 24.908854000000002
#
# number of rings (size 3 to 8) (size 9 to 14) (size 15 to 20)
#    0.000    2.000    0.000    4.364    5.091    0.727 
#    3.273   10.909    0.000    3.273    0.000    0.000 
#    0.000    0.000    0.000    0.000    0.000    0.000 
#
# Total GULP energy -545438.767233 kJ/mol
# GULP energy per Si atom -12396.335619 kJ/mol
# Density = 2.485216 g / cm^3
# Si number density = 24.908854 Si / 1000 Ang^3
#
#
#
# Elastic Constant Matrix: (Units=GPa)
#
#
# Indices 1 2 3 4 5 6 
#
# 1 103.8800 28.5725 43.8924 0.0000 0.0000 -11.2483
# 2 28.5725 103.8800 43.8924 0.0000 0.0000 11.2483
# 3 43.8924 43.8924 171.4468 0.0000 0.0000 0.0000
# 4 0.0000 0.0000 0.0000 22.2260 0.0000 0.0000
# 5 0.0000 0.0000 0.0000 0.0000 22.2260 0.0000
# 6 -11.2483 11.2483 0.0000 0.0000 0.0000 29.5315
#
#
#
# Elastic Compliance Matrix: (Units=1/GPa)
#
#
# Indices 1 2 3 4 5 6 
#
# 1 0.012038 -0.002946 -0.002328 0.000000 0.000000 0.005707
# 2 -0.002946 0.012038 -0.002328 0.000000 0.000000 -0.005707
# 3 -0.002328 -0.002328 0.007025 0.000000 0.000000 0.000000
# 4 0.000000 0.000000 0.000000 0.044992 0.000000 0.000000
# 5 0.000000 0.000000 0.000000 0.000000 0.044992 0.000000
# 6 0.005707 -0.005707 0.000000 0.000000 0.000000 0.038210
#
#
# Mechanical properties :
#
#
# Convention : Reuss Voigt Hill
#
# Bulk Modulus (GPa) = 62.89844 67.99127 65.44486
# Shear Modulus (GPa) = 27.80908 32.32002 30.06455
#
# Velocity S-wave (km/s) = 3.34493 3.60603 3.47793
# Velocity P-wave (km/s) = 6.34227 6.68530 6.51604
#
# Compressibility (1/GPa) = 0.01589865
#
# Stress axis : x y z
#
# Youngs Moduli (GPa) = 83.06861 83.06861 142.35648
#
# Poissons Ratio (x) = 0.24468 0.33138
# Poissons Ratio (y) = 0.24468 0.33138
# Poissons Ratio (z) = 0.19337 0.19337
#
# Static dielectric constant tensor:
#      x y z
#    x 4.366540 0.000000 0.000000 
#    y 0.000000 4.366540 0.000000 
#    z 0.000000 0.000000 4.563770 
# 
# 
# High freq. dielectric constant tensor:
#      x y z
#    x 1.987200 0.000000 0.000000 
#    y 0.000000 1.987200 0.000000 
#    z 0.000000 0.000000 1.989960 
# 
# From -- ./inp_files/3194.got.cif
#   From: 2010.03.12/outbox.cif.g09.slc.cpg/sg88_2_cif.got.tgz:3194.got - 2010.04.08 20:20:55.
