data_PCOD8304188
_publ_section_title
;
Structure prediction by ZEFSAII (Michael W. Deem and Ramdas Pophale) SiO2 
 PCOD8304188
Probable space group: I 41/A
;
_chemical_formula_sum "Si O2"
_cell_formula_units_Z 112
_cell_length_a 13.648368
_cell_length_b 13.648368
_cell_length_c 30.432414
_cell_angle_alpha 90.000000
_cell_angle_beta 90.000000
_cell_angle_gamma 90.000000
_cell_volume 5668.887665
_symmetry_space_group_name_H-M "I 41/A"
_symmetry_group_IT_number 88
_space_group.IT_coordinate_system_code '2'
_symmetry_cell_setting 'tetragonal'
loop_
_space_group_symop_operation_xyz
x,y,z
3/4-y,1/4+x,1/4+z
-x,1/2-y,z
1/4+y,1/4-x,1/4+z
-x,-y,-z
1/4+y,3/4-x,3/4-z
x,1/2+y,-z
3/4-y,3/4+x,3/4-z
1/2+x,1/2+y,1/2+z
1/4-y,3/4+x,3/4+z
1/2-x,-y,1/2+z
3/4+y,3/4-x,3/4+z
1/2-x,1/2-y,1/2-z
3/4+y,1/4-x,1/4-z
1/2+x,y,1/2-z
1/4-y,1/4+x,1/4-z
loop_
_atom_site_type_symbol
_atom_site_label
_atom_site_fract_x
_atom_site_fract_y
_atom_site_fract_z
Si Si1 0.438846 0.339092 0.430822
Si Si2 0.706990 0.721291 0.851113
Si Si3 0.990765 0.467074 0.720734
Si Si4 0.933914 0.338609 0.969763
Si Si5 0.718554 0.832009 0.935851
Si Si6 0.890741 0.154169 0.608980
Si Si7 0.247491 0.561507 0.421321
O O1 0.500000 0.250000 0.412802
O O2 0.464068 0.426015 0.397679
O O3 0.464878 0.368475 0.481033
O O4 0.329340 0.300694 0.429909
O O5 0.680226 0.792470 0.810973
O O6 0.665077 0.776393 0.894938
O O7 0.670351 0.610168 0.842787
O O8 0.939929 0.571387 0.715118
O O9 0.968659 0.426904 0.769827
O O10 0.934603 0.391941 0.689335
O O11 0.107293 0.471278 0.708961
O O12 0.000000 0.250000 0.952134
O O13 0.718277 0.951869 0.937780
O O14 0.875284 0.244785 0.642847
O O15 0.828020 0.063813 0.627002
#
# Coordination Sequence:
#
# PCOD8304188 Si02
#       7
#    16  16  16  16  16  16  16
#     4   9  21  34  51  77 111 153 196 237 281 339
#     4  11  21  34  56  82 118 151 192 239 293 341
#     4  10  20  39  59  81 119 149 191 241 289 356
#     4  10  18  35  54  79 108 152 196 231 281 349
#     4  10  23  35  53  87 117 152 191 240 296 346
#     4   9  19  38  66  86 105 148 200 240 291 350
#     4  10  21  38  59  84 115 153 193 244 287 340
#
# _framework density 19.756962999999999
#
# number of rings (size 3 to 8) (size 9 to 14) (size 15 to 20)
#    0.000    2.143    1.429    1.286    4.000    1.143 
#    0.000    0.714    6.286    0.000    0.000    0.000 
#    0.000    0.000    0.000    0.000    0.000    0.000 
#
# Total GULP energy -693938.674675 kJ/mol
# GULP energy per Si atom -12391.762048 kJ/mol
# Density = 1.971200 g / cm^3
# Si number density = 19.756963 Si / 1000 Ang^3
#
#
#
# Elastic Constant Matrix: (Units=GPa)
#
#
# Indices 1 2 3 4 5 6 
#
# 1 55.4025 22.2906 32.1453 0.0000 0.0000 1.4486
# 2 22.2906 55.4025 32.1453 0.0000 0.0000 -1.4486
# 3 32.1453 32.1453 124.4047 0.0000 0.0000 0.0000
# 4 0.0000 0.0000 0.0000 14.0337 0.0000 0.0000
# 5 0.0000 0.0000 0.0000 0.0000 14.0337 0.0000
# 6 1.4486 -1.4486 0.0000 0.0000 0.0000 25.1389
#
#
#
# Elastic Compliance Matrix: (Units=1/GPa)
#
#
# Indices 1 2 3 4 5 6 
#
# 1 0.023363 -0.006991 -0.004230 0.000000 0.000000 -0.001749
# 2 -0.006991 0.023363 -0.004230 0.000000 0.000000 0.001749
# 3 -0.004230 -0.004230 0.010224 0.000000 0.000000 0.000000
# 4 0.000000 0.000000 0.000000 0.071257 0.000000 0.000000
# 5 0.000000 0.000000 0.000000 0.000000 0.071257 0.000000
# 6 -0.001749 0.001749 0.000000 0.000000 0.000000 0.039981
#
#
# Mechanical properties :
#
#
# Convention : Reuss Voigt Hill
#
# Bulk Modulus (GPa) = 38.39276 45.37469 41.88373
# Shear Modulus (GPa) = 17.91924 20.54983 19.23454
#
# Velocity S-wave (km/s) = 3.01488 3.22861 3.12357
# Velocity P-wave (km/s) = 5.62086 6.07576 5.85273
#
# Compressibility (1/GPa) = 0.02604658
#
# Stress axis : x y z
#
# Youngs Moduli (GPa) = 42.80325 42.80325 97.80462
#
# Poissons Ratio (x) = 0.29924 0.41375
# Poissons Ratio (y) = 0.29924 0.41375
# Poissons Ratio (z) = 0.18107 0.18107
#
# Static dielectric constant tensor:
#      x y z
#    x 3.584860 0.000000 0.000000 
#    y 0.000000 3.584860 0.000000 
#    z 0.000000 0.000000 3.805410 
# 
# 
# High freq. dielectric constant tensor:
#      x y z
#    x 1.764940 0.000000 0.000000 
#    y 0.000000 1.764940 0.000000 
#    z 0.000000 0.000000 1.768880 
# 
# From -- ./inp_files/6571.got.cif
#   From: 2010.03.12/outbox.cif.g09.slc.cpg/sg88_4_cif.got.tgz:6571.got - 2010.04.08 20:20:55.
