data_PCOD8304436
_publ_section_title
;
Structure prediction by ZEFSAII (Michael W. Deem and Ramdas Pophale) SiO2 
 PCOD8304436
Probable space group: I 41/A
;
_chemical_formula_sum "Si O2"
_cell_formula_units_Z 48
_cell_length_a 8.430618
_cell_length_b 8.430618
_cell_length_c 29.128893
_cell_angle_alpha 90.000000
_cell_angle_beta 90.000000
_cell_angle_gamma 90.000000
_cell_volume 2070.345387
_symmetry_space_group_name_H-M "I 41/A"
_symmetry_group_IT_number 88
_space_group.IT_coordinate_system_code '2'
_symmetry_cell_setting 'tetragonal'
loop_
_space_group_symop_operation_xyz
x,y,z
3/4-y,1/4+x,1/4+z
-x,1/2-y,z
1/4+y,1/4-x,1/4+z
-x,-y,-z
1/4+y,3/4-x,3/4-z
x,1/2+y,-z
3/4-y,3/4+x,3/4-z
1/2+x,1/2+y,1/2+z
1/4-y,3/4+x,3/4+z
1/2-x,-y,1/2+z
3/4+y,3/4-x,3/4+z
1/2-x,1/2-y,1/2-z
3/4+y,1/4-x,1/4-z
1/2+x,y,1/2-z
1/4-y,1/4+x,1/4-z
loop_
_atom_site_type_symbol
_atom_site_label
_atom_site_fract_x
_atom_site_fract_y
_atom_site_fract_z
Si Si1 0.669128 0.508423 0.024039
Si Si2 0.263585 0.359286 0.383886
Si Si3 0.569296 0.418581 0.201998
O O1 0.691511 0.381858 0.065362
O O2 0.696596 0.685499 0.042541
O O3 0.500000 0.500000 0.000000
O O4 0.799471 0.466090 0.985786
O O5 0.424774 0.458701 0.377316
O O6 0.130052 0.425111 0.349940
O O7 0.500000 0.250000 0.215792
#
# Coordination Sequence:
#
# PCOD8304436 Si02
#       3
#    16  16  16
#     4  12  28  48  77 112 159 200 258 326 389 464
#     4  11  26  48  79 112 151 201 260 321 388 469
#     4  12  26  48  77 111 150 205 260 310 391 472
#
# _framework density 23.184536999999999
#
# number of rings (size 3 to 8) (size 9 to 14) (size 15 to 20)
#    0.000    0.333    3.333    4.000    9.333    2.667 
#    0.000    0.000    0.000    0.000    0.000    0.000 
#    0.000    0.000    0.000    0.000    0.000    0.000 
#
# Total GULP energy -297763.003813 kJ/mol
# GULP energy per Si atom -12406.791826 kJ/mol
# Density = 2.313177 g / cm^3
# Si number density = 23.184537 Si / 1000 Ang^3
#
#
#
# Elastic Constant Matrix: (Units=GPa)
#
#
# Indices 1 2 3 4 5 6 
#
# 1 132.7643 43.3331 52.2926 0.0000 0.0000 -11.3905
# 2 43.3331 132.7643 52.2926 0.0000 0.0000 11.3905
# 3 52.2926 52.2926 120.4791 0.0000 0.0000 0.0000
# 4 0.0000 0.0000 0.0000 48.9649 0.0000 0.0000
# 5 0.0000 0.0000 0.0000 0.0000 48.9649 0.0000
# 6 -11.3905 11.3905 0.0000 0.0000 0.0000 40.3712
#
#
#
# Elastic Compliance Matrix: (Units=1/GPa)
#
#
# Indices 1 2 3 4 5 6 
#
# 1 0.009849 -0.002198 -0.003321 0.000000 0.000000 0.003399
# 2 -0.002198 0.009849 -0.003321 0.000000 0.000000 -0.003399
# 3 -0.003321 -0.003321 0.011183 0.000000 0.000000 0.000000
# 4 0.000000 0.000000 0.000000 0.020423 0.000000 0.000000
# 5 0.000000 0.000000 0.000000 0.000000 0.020423 0.000000
# 6 0.003399 -0.003399 0.000000 0.000000 0.000000 0.026688
#
#
# Mechanical properties :
#
#
# Convention : Reuss Voigt Hill
#
# Bulk Modulus (GPa) = 75.74863 75.76045 75.75454
# Shear Modulus (GPa) = 41.49525 43.53285 42.51405
#
# Velocity S-wave (km/s) = 4.23517 4.33791 4.28685
# Velocity P-wave (km/s) = 7.52719 7.60513 7.56626
#
# Compressibility (1/GPa) = 0.01320156
#
# Stress axis : x y z
#
# Youngs Moduli (GPa) = 101.53022 101.53022 89.42226
#
# Poissons Ratio (x) = 0.22320 0.29695
# Poissons Ratio (y) = 0.22320 0.29695
# Poissons Ratio (z) = 0.33716 0.33716
#
# Static dielectric constant tensor:
#      x y z
#    x 4.307670 0.000000 0.000000 
#    y 0.000000 4.307670 0.000000 
#    z 0.000000 0.000000 4.280140 
# 
# 
# High freq. dielectric constant tensor:
#      x y z
#    x 1.923210 0.000000 0.000000 
#    y 0.000000 1.923210 0.000000 
#    z 0.000000 0.000000 1.929140 
# 
# From -- ./inp_files/6016.got.cif
#   From: 2010.03.12/outbox.cif.g09.slc.cpg/sg88_4_cif.got.tgz:6016.got - 2010.04.08 20:20:55.
