data_PCOD8304723
_publ_section_title
;
Structure prediction by ZEFSAII (Michael W. Deem and Ramdas Pophale) SiO2 
 PCOD8304723
Probable space group: P 41 2 2
;
_chemical_formula_sum "Si O2"
_cell_formula_units_Z 40
_cell_length_a 14.483566
_cell_length_b 14.483566
_cell_length_c 9.370080
_cell_angle_alpha 90.000000
_cell_angle_beta 90.000000
_cell_angle_gamma 90.000000
_cell_volume 1965.596202
_symmetry_space_group_name_H-M "P 41 2 2"
_symmetry_group_IT_number 91
_symmetry_cell_setting 'tetragonal'
loop_
_space_group_symop_operation_xyz
x,y,z
-y,x,1/4+z
-x,-y,1/2+z
y,-x,3/4+z
x,-y,1/2-z
-x,y,-z
y,x,3/4-z
-y,-x,1/4-z
loop_
_atom_site_type_symbol
_atom_site_label
_atom_site_fract_x
_atom_site_fract_y
_atom_site_fract_z
Si Si1 0.596598 0.602016 0.223307
Si Si2 0.858697 0.200063 0.273291
Si Si3 0.657056 0.101621 0.742433
Si Si4 0.179138 0.068272 0.475760
Si Si5 0.580107 0.289904 0.707525
O O1 0.552256 0.500000 0.250000
O O2 0.637023 0.637023 0.375000
O O3 0.518785 0.670067 0.156141
O O4 0.683835 0.594442 0.122066
O O5 0.864607 0.298284 0.356666
O O6 0.813378 0.125891 0.379174
O O7 0.962083 0.170859 0.231584
O O8 0.799068 0.200933 0.125000
O O9 0.733140 0.093183 0.620430
O O10 0.582175 0.178722 0.694933
O O11 0.608945 0.000000 0.750000
O O12 0.091444 0.091444 0.375000
O O13 0.665940 0.334061 0.625000
#
# Coordination Sequence:
#
# PCOD8304723 Si02
#       5
#     8   8   8   8   8
#     4   9  19  34  54  87 119 133 156 214 284 331
#     4  10  18  27  42  65  92 124 173 228 271 315
#     4   9  20  35  48  67 102 146 182 211 250 309
#     4   9  17  29  41  61  93 127 167 218 276 324
#     4  11  18  31  57  82 107 138 175 217 265 321
#
# _framework density 20.350059999999999
#
# number of rings (size 3 to 8) (size 9 to 14) (size 15 to 20)
#    0.000    2.400    0.000    6.600    0.000    3.200 
#    0.000    0.000    0.000    7.200    0.000    5.600 
#    0.000    0.000    0.000    0.000    0.000    0.000 
#
# Total GULP energy -495620.136316 kJ/mol
# GULP energy per Si atom -12390.503408 kJ/mol
# Density = 2.030374 g / cm^3
# Si number density = 20.350060 Si / 1000 Ang^3
#
#
#
# Elastic Constant Matrix: (Units=GPa)
#
#
# Indices 1 2 3 4 5 6 
#
# 1 78.3942 41.8122 -1.3561 0.0000 0.0000 0.0000
# 2 41.8122 78.3952 -1.3540 0.0000 0.0000 0.0000
# 3 -1.3561 -1.3540 90.3003 0.0000 0.0000 0.0000
# 4 0.0000 0.0000 0.0000 11.0760 0.0000 0.0000
# 5 0.0000 0.0000 0.0000 0.0000 11.0762 0.0000
# 6 0.0000 0.0000 0.0000 0.0000 0.0000 30.0013
#
#
#
# Elastic Compliance Matrix: (Units=1/GPa)
#
#
# Indices 1 2 3 4 5 6 
#
# 1 0.017829 -0.009507 0.000125 0.000000 0.000000 0.000000
# 2 -0.009507 0.017828 0.000125 0.000000 0.000000 0.000000
# 3 0.000125 0.000125 0.011078 0.000000 0.000000 0.000000
# 4 0.000000 0.000000 0.000000 0.090285 0.000000 0.000000
# 5 0.000000 0.000000 0.000000 0.000000 0.090284 0.000000
# 6 0.000000 0.000000 0.000000 0.000000 0.000000 0.033332
#
#
# Mechanical properties :
#
#
# Convention : Reuss Voigt Hill
#
# Bulk Modulus (GPa) = 35.43453 36.14373 35.78913
# Shear Modulus (GPa) = 17.32757 24.29655 20.81206
#
# Velocity S-wave (km/s) = 2.92117 3.45908 3.20144
# Velocity P-wave (km/s) = 5.36917 5.80975 5.59380
#
# Compressibility (1/GPa) = 0.02822106
#
# Stress axis : x y z
#
# Youngs Moduli (GPa) = 56.08918 56.08997 90.26971
#
# Poissons Ratio (x) = 0.53324 -0.01130
# Poissons Ratio (y) = 0.53323 -0.01124
# Poissons Ratio (z) = -0.00702 -0.00699
#
# Static dielectric constant tensor:
#      x y z
#    x 3.455440 0.000000 0.000000 
#    y 0.000000 3.455430 0.000000 
#    z 0.000000 0.000000 4.622830 
# 
# 
# High freq. dielectric constant tensor:
#      x y z
#    x 1.764690 0.000000 0.000000 
#    y 0.000000 1.764690 0.000000 
#    z 0.000000 0.000000 1.808730 
# 
# From -- ./inp_files/19412.got.cif
#   From: 2010.03.12/outbox.cif.g09.slc.cpg/sg91_10_cif.got.tgz:19412.got - 2010.04.08 20:27:58.
