data_PCOD8304180
_publ_section_title
;
Structure prediction by ZEFSAII (Michael W. Deem and Ramdas Pophale) SiO2 
 PCOD8304180
Probable space group: I 41/A
;
_chemical_formula_sum "Si O2"
_cell_formula_units_Z 128
_cell_length_a 20.978986
_cell_length_b 20.978986
_cell_length_c 17.515173
_cell_angle_alpha 90.000000
_cell_angle_beta 90.000000
_cell_angle_gamma 90.000000
_cell_volume 7708.740346
_symmetry_space_group_name_H-M "I 41/A"
_symmetry_group_IT_number 88
_space_group.IT_coordinate_system_code '2'
_symmetry_cell_setting 'tetragonal'
loop_
_space_group_symop_operation_xyz
x,y,z
3/4-y,1/4+x,1/4+z
-x,1/2-y,z
1/4+y,1/4-x,1/4+z
-x,-y,-z
1/4+y,3/4-x,3/4-z
x,1/2+y,-z
3/4-y,3/4+x,3/4-z
1/2+x,1/2+y,1/2+z
1/4-y,3/4+x,3/4+z
1/2-x,-y,1/2+z
3/4+y,3/4-x,3/4+z
1/2-x,1/2-y,1/2-z
3/4+y,1/4-x,1/4-z
1/2+x,y,1/2-z
1/4-y,1/4+x,1/4-z
loop_
_atom_site_type_symbol
_atom_site_label
_atom_site_fract_x
_atom_site_fract_y
_atom_site_fract_z
Si Si1 0.172508 0.508077 0.693472
Si Si2 0.681755 0.684323 0.583288
Si Si3 0.251701 0.365085 0.182448
Si Si4 0.946398 0.619390 0.995816
Si Si5 0.773684 0.467480 0.706405
Si Si6 0.931590 0.934103 0.782368
Si Si7 0.298511 0.592318 0.890668
Si Si8 0.585848 0.615592 0.473380
O O1 0.230184 0.560370 0.686041
O O2 0.167309 0.471301 0.613216
O O3 0.200459 0.465220 0.762252
O O4 0.102167 0.533409 0.709945
O O5 0.658835 0.713628 0.663183
O O6 0.706286 0.745238 0.534780
O O7 0.733647 0.632187 0.602942
O O8 0.624930 0.656455 0.533477
O O9 0.318043 0.326968 0.191392
O O10 0.210215 0.354966 0.106462
O O11 0.208865 0.340263 0.252490
O O12 0.892498 0.673429 0.979839
O O13 0.014058 0.644477 0.028809
O O14 0.818599 0.440264 0.773237
O O15 0.792430 0.536748 0.672764
O O16 0.359986 0.634518 0.862691
#
# Coordination Sequence:
#
# PCOD8304180 Si02
#       8
#    16  16  16  16  16  16  16  16
#     4  10  18  30  47  71  95 124 156 201 259 304
#     4  12  20  31  47  67 102 137 172 206 237 286
#     4  11  17  29  45  67  95 131 167 205 238 292
#     4  11  21  30  46  66 101 143 175 204 236 283
#     4  10  18  29  51  75  98 118 159 212 258 307
#     4  11  22  32  44  68 101 137 172 198 241 291
#     4  11  19  31  50  77  96 126 164 212 256 294
#     4  12  20  31  45  67  99 134 175 209 237 288
#
# _framework density 16.60453
#
# number of rings (size 3 to 8) (size 9 to 14) (size 15 to 20)
#    0.000    1.000    7.500    2.625    0.000    0.500 
#    0.000    1.250    0.000    0.750    0.000    0.000 
#    0.000    0.000    0.000    0.000    0.000    0.000 
#
# Total GULP energy -792849.225680 kJ/mol
# GULP energy per Si atom -12388.269151 kJ/mol
# Density = 1.656674 g / cm^3
# Si number density = 16.604530 Si / 1000 Ang^3
#
#
#
# Elastic Constant Matrix: (Units=GPa)
#
#
# Indices 1 2 3 4 5 6 
#
# 1 47.3990 13.9172 28.1143 0.0000 0.0000 -3.4096
# 2 13.9172 47.3990 28.1143 0.0000 0.0000 3.4096
# 3 28.1143 28.1143 93.8916 0.0000 0.0000 0.0000
# 4 0.0000 0.0000 0.0000 21.4695 0.0000 0.0000
# 5 0.0000 0.0000 0.0000 0.0000 21.4695 0.0000
# 6 -3.4096 3.4096 0.0000 0.0000 0.0000 11.0599
#
#
#
# Elastic Compliance Matrix: (Units=1/GPa)
#
#
# Indices 1 2 3 4 5 6 
#
# 1 0.027175 -0.004693 -0.006732 0.000000 0.000000 0.009824
# 2 -0.004693 0.027175 -0.006732 0.000000 0.000000 -0.009824
# 3 -0.006732 -0.006732 0.014682 0.000000 0.000000 0.000000
# 4 0.000000 0.000000 0.000000 0.046578 0.000000 0.000000
# 5 0.000000 0.000000 0.000000 0.000000 0.046578 0.000000
# 6 0.009824 -0.009824 0.000000 0.000000 0.000000 0.096474
#
#
# Mechanical properties :
#
#
# Convention : Reuss Voigt Hill
#
# Bulk Modulus (GPa) = 30.56336 36.55345 33.55840
# Shear Modulus (GPa) = 16.34620 18.70269 17.52444
#
# Velocity S-wave (km/s) = 3.14099 3.35977 3.25222
# Velocity P-wave (km/s) = 5.62148 6.09202 5.86147
#
# Compressibility (1/GPa) = 0.03271892
#
# Stress axis : x y z
#
# Youngs Moduli (GPa) = 36.79842 36.79842 68.11007
#
# Poissons Ratio (x) = 0.17269 0.45851
# Poissons Ratio (y) = 0.17269 0.45851
# Poissons Ratio (z) = 0.24773 0.24773
#
# Static dielectric constant tensor:
#      x y z
#    x 2.985340 0.000000 0.000000 
#    y 0.000000 2.985340 0.000000 
#    z 0.000000 0.000000 3.268770 
# 
# 
# High freq. dielectric constant tensor:
#      x y z
#    x 1.612950 0.000000 0.000000 
#    y 0.000000 1.612950 0.000000 
#    z 0.000000 0.000000 1.633940 
# 
# From -- ./inp_files/4081.got.cif
#   From: 2010.03.12/outbox.cif.g09.slc.cpg/sg88_3_cif.got.tgz:4081.got - 2010.04.08 20:20:55.
