data_PCOD8304075
_publ_section_title
;
Structure prediction by ZEFSAII (Michael W. Deem and Ramdas Pophale) SiO2 
 PCOD8304075
Probable space group: I 4/M
;
_chemical_formula_sum "Si O2"
_cell_formula_units_Z 72
_cell_length_a 14.923935
_cell_length_b 14.923935
_cell_length_c 16.442016
_cell_angle_alpha 90.000000
_cell_angle_beta 90.000000
_cell_angle_gamma 90.000000
_cell_volume 3662.028873
_symmetry_space_group_name_H-M "I 4/M"
_symmetry_group_IT_number 87
_symmetry_cell_setting 'tetragonal'
loop_
_space_group_symop_operation_xyz
x,y,z
-y,x,z
-x,-y,z
y,-x,z
-x,-y,-z
y,-x,-z
x,y,-z
-y,x,-z
1/2+x,1/2+y,1/2+z
1/2-y,1/2+x,1/2+z
1/2-x,1/2-y,1/2+z
1/2+y,1/2-x,1/2+z
1/2-x,1/2-y,1/2-z
1/2+y,1/2-x,1/2-z
1/2+x,1/2+y,1/2-z
1/2-y,1/2+x,1/2-z
loop_
_atom_site_type_symbol
_atom_site_label
_atom_site_fract_x
_atom_site_fract_y
_atom_site_fract_z
Si Si1 0.836335 0.638039 0.735160
Si Si2 0.002517 0.393712 0.355206
Si Si3 0.121282 0.915370 0.000000
Si Si4 0.817617 0.797005 0.500000
Si Si5 0.979031 0.270125 0.500000
Si Si6 0.308120 0.282719 0.636151
O O1 0.865163 0.542017 0.769854
O O2 0.735454 0.646408 0.700353
O O3 0.855703 0.708565 0.807702
O O4 0.897575 0.646058 0.654595
O O5 0.000000 0.500000 0.373974
O O6 0.957508 0.336809 0.426061
O O7 0.170619 0.883320 0.081548
O O8 0.021924 0.875922 0.000000
O O9 0.922525 0.772957 0.500000
O O10 0.769825 0.759153 0.580499
O O11 0.808913 0.905356 0.500000
#
# Coordination Sequence:
#
# PCOD8304075 Si02
#       6
#    16  16   8   8   8  16
#     4  11  21  38  62  92 123 155 202 244 314 379
#     4  12  23  38  63  97 131 156 194 260 315 368
#     4  10  24  43  60  87 124 164 216 264 300 368
#     4  11  22  42  62  86 122 167 204 252 302 375
#     4  12  25  43  62  88 130 164 214 249 299 376
#     4  10  23  40  63  89 116 168 201 256 316 362
#
# _framework density 19.661234
#
# number of rings (size 3 to 8) (size 9 to 14) (size 15 to 20)
#    0.000    1.000    6.667    0.333    3.111    0.222 
#    0.000    0.000    0.000    0.000    0.000    0.000 
#    0.000    0.000    0.000    0.000    0.000    0.000 
#
# Total GULP energy -446153.964998 kJ/mol
# GULP energy per Si atom -12393.165694 kJ/mol
# Density = 1.961648 g / cm^3
# Si number density = 19.661234 Si / 1000 Ang^3
#
#
#
# Elastic Constant Matrix: (Units=GPa)
#
#
# Indices 1 2 3 4 5 6 
#
# 1 76.7469 40.9781 22.4352 0.0000 0.0000 -0.5306
# 2 40.9781 76.7469 22.4352 0.0000 0.0000 0.5306
# 3 22.4352 22.4352 79.4402 0.0000 0.0000 0.0000
# 4 0.0000 0.0000 0.0000 24.2402 0.0000 0.0000
# 5 0.0000 0.0000 0.0000 0.0000 24.2402 0.0000
# 6 -0.5306 0.5306 0.0000 0.0000 0.0000 28.9181
#
#
#
# Elastic Compliance Matrix: (Units=1/GPa)
#
#
# Indices 1 2 3 4 5 6 
#
# 1 0.018746 -0.009227 -0.002688 0.000000 0.000000 0.000513
# 2 -0.009227 0.018746 -0.002688 0.000000 0.000000 -0.000513
# 3 -0.002688 -0.002688 0.014107 0.000000 0.000000 0.000000
# 4 0.000000 0.000000 0.000000 0.041254 0.000000 0.000000
# 5 0.000000 0.000000 0.000000 0.000000 0.041254 0.000000
# 6 0.000513 -0.000513 0.000000 0.000000 0.000000 0.034599
#
#
# Mechanical properties :
#
#
# Convention : Reuss Voigt Hill
#
# Bulk Modulus (GPa) = 44.66025 44.95899 44.80962
# Shear Modulus (GPa) = 24.34564 25.28539 24.81552
#
# Velocity S-wave (km/s) = 3.52270 3.59005 3.55654
# Velocity P-wave (km/s) = 6.26978 6.33254 6.30124
#
# Compressibility (1/GPa) = 0.02239128
#
# Stress axis : x y z
#
# Youngs Moduli (GPa) = 53.34536 53.34536 70.88913
#
# Poissons Ratio (x) = 0.49220 0.19057
# Poissons Ratio (y) = 0.49220 0.19057
# Poissons Ratio (z) = 0.14341 0.14341
#
# Static dielectric constant tensor:
#      x y z
#    x 3.444680 0.000000 0.000000 
#    y 0.000000 3.444680 0.000000 
#    z 0.000000 0.000000 3.682710 
# 
# 
# High freq. dielectric constant tensor:
#      x y z
#    x 1.759440 0.000000 0.000000 
#    y 0.000000 1.759440 0.000000 
#    z 0.000000 0.000000 1.784450 
# 
# From -- ./inp_files/4302.got.cif
#   From: 2010.03.12/outbox.cif.g09.slc.cpg/sg87_3_cif.got.tgz:4302.got - 2010.04.08 20:16:13.
