data_PCOD8304731
_publ_section_title
;
Structure prediction by ZEFSAII (Michael W. Deem and Ramdas Pophale) SiO2 
 PCOD8304731
Probable space group: P 41 2 2
;
_chemical_formula_sum "Si O2"
_cell_formula_units_Z 40
_cell_length_a 11.719232
_cell_length_b 11.719232
_cell_length_c 13.882042
_cell_angle_alpha 90.000000
_cell_angle_beta 90.000000
_cell_angle_gamma 90.000000
_cell_volume 1906.565183
_symmetry_space_group_name_H-M "P 41 2 2"
_symmetry_group_IT_number 91
_symmetry_cell_setting 'tetragonal'
loop_
_space_group_symop_operation_xyz
x,y,z
-y,x,1/4+z
-x,-y,1/2+z
y,-x,3/4+z
x,-y,1/2-z
-x,y,-z
y,x,3/4-z
-y,-x,1/4-z
loop_
_atom_site_type_symbol
_atom_site_label
_atom_site_fract_x
_atom_site_fract_y
_atom_site_fract_z
Si Si1 0.237677 0.166174 0.530164
Si Si2 0.678419 0.678419 0.875000
Si Si3 0.000000 0.278632 0.500000
Si Si4 0.496495 0.367095 0.229958
Si Si5 0.659921 0.722282 0.562100
Si Si6 0.621686 0.022898 0.959672
O O1 0.322150 0.220350 0.451567
O O2 0.107877 0.193235 0.499541
O O3 0.264452 0.218495 0.634497
O O4 0.273690 0.033327 0.521910
O O5 0.559652 0.698380 0.819845
O O6 0.001560 0.359814 0.594506
O O7 0.474359 0.500000 0.250000
O O8 0.440133 0.326901 0.130926
O O9 0.629735 0.331611 0.226523
O O10 0.624881 0.842731 0.517826
O O11 0.500000 0.976808 0.000000
#
# Coordination Sequence:
#
# PCOD8304731 Si02
#       6
#     8   4   4   8   8   8
#     4  10  21  35  60  85 114 150 204 254 299 345
#     4  10  18  30  52  86 106 140 190 234 288 336
#     4  10  20  42  58  90 118 158 204 260 298 352
#     4  11  19  34  55  84 120 157 192 236 298 370
#     4  10  23  35  58  86 119 158 199 245 303 364
#     4  11  23  37  60  90 123 156 197 253 314 353
#
# _framework density 20.980139000000001
#
# number of rings (size 3 to 8) (size 9 to 14) (size 15 to 20)
#    0.000    1.600    4.000    0.600    2.800    0.000 
#    0.000    0.000    0.000    9.600    0.000    1.400 
#    0.000    0.000    0.000    0.000    0.000    0.000 
#
# Total GULP energy -495723.811778 kJ/mol
# GULP energy per Si atom -12393.095294 kJ/mol
# Density = 2.093239 g / cm^3
# Si number density = 20.980139 Si / 1000 Ang^3
#
#
#
# Elastic Constant Matrix: (Units=GPa)
#
#
# Indices 1 2 3 4 5 6 
#
# 1 126.4874 52.9473 29.3966 0.0000 0.0000 0.0000
# 2 52.9473 126.4874 29.3966 0.0000 0.0000 0.0000
# 3 29.3966 29.3966 49.5718 0.0000 0.0000 0.0000
# 4 0.0000 0.0000 0.0000 21.6037 0.0000 0.0000
# 5 0.0000 0.0000 0.0000 0.0000 21.6037 0.0000
# 6 0.0000 0.0000 0.0000 0.0000 0.0000 5.0175
#
#
#
# Elastic Compliance Matrix: (Units=1/GPa)
#
#
# Indices 1 2 3 4 5 6 
#
# 1 0.010258 -0.003340 -0.004102 0.000000 0.000000 0.000000
# 2 -0.003340 0.010258 -0.004102 0.000000 0.000000 0.000000
# 3 -0.004102 -0.004102 0.025038 0.000000 0.000000 0.000000
# 4 0.000000 0.000000 0.000000 0.046288 0.000000 0.000000
# 5 0.000000 0.000000 0.000000 0.000000 0.046288 0.000000
# 6 0.000000 0.000000 0.000000 0.000000 0.000000 0.199303
#
#
# Mechanical properties :
#
#
# Convention : Reuss Voigt Hill
#
# Bulk Modulus (GPa) = 44.51516 58.44750 51.48133
# Shear Modulus (GPa) = 13.58661 22.36541 17.97601
#
# Velocity S-wave (km/s) = 2.54755 3.26855 2.93031
# Velocity P-wave (km/s) = 5.46966 6.49334 6.00336
#
# Compressibility (1/GPa) = 0.02246425
#
# Stress axis : x y z
#
# Youngs Moduli (GPa) = 97.48921 97.48922 39.93982
#
# Poissons Ratio (x) = 0.32566 0.16383
# Poissons Ratio (y) = 0.32566 0.16383
# Poissons Ratio (z) = 0.39989 0.39989
#
# Static dielectric constant tensor:
#      x y z
#    x 4.058720 0.000000 0.000000 
#    y 0.000000 4.058720 0.000000 
#    z 0.000000 0.000000 3.777430 
# 
# 
# High freq. dielectric constant tensor:
#      x y z
#    x 1.813660 0.000000 0.000000 
#    y 0.000000 1.813660 0.000000 
#    z 0.000000 0.000000 1.814540 
# 
# From -- ./inp_files/20672.got.cif
#   From: 2010.03.12/outbox.cif.g09.slc.cpg/sg91_11_cif.got.tgz:20672.got - 2010.04.08 20:27:58.
