data_PCOD8304420
_publ_section_title
;
Structure prediction by ZEFSAII (Michael W. Deem and Ramdas Pophale) SiO2 
 PCOD8304420
Probable space group: I 41/A
;
_chemical_formula_sum "Si O2"
_cell_formula_units_Z 108
_cell_length_a 13.764915
_cell_length_b 13.764915
_cell_length_c 28.937203
_cell_angle_alpha 90.000000
_cell_angle_beta 90.000000
_cell_angle_gamma 90.000000
_cell_volume 5482.815335
_symmetry_space_group_name_H-M "I 41/A"
_symmetry_group_IT_number 88
_space_group.IT_coordinate_system_code '2'
_symmetry_cell_setting 'tetragonal'
loop_
_space_group_symop_operation_xyz
x,y,z
3/4-y,1/4+x,1/4+z
-x,1/2-y,z
1/4+y,1/4-x,1/4+z
-x,-y,-z
1/4+y,3/4-x,3/4-z
x,1/2+y,-z
3/4-y,3/4+x,3/4-z
1/2+x,1/2+y,1/2+z
1/4-y,3/4+x,3/4+z
1/2-x,-y,1/2+z
3/4+y,3/4-x,3/4+z
1/2-x,1/2-y,1/2-z
3/4+y,1/4-x,1/4-z
1/2+x,y,1/2-z
1/4-y,1/4+x,1/4-z
loop_
_atom_site_type_symbol
_atom_site_label
_atom_site_fract_x
_atom_site_fract_y
_atom_site_fract_z
Si Si1 0.000000 0.750000 0.604192
Si Si2 0.610375 0.973994 0.498003
Si Si3 0.828013 0.160590 0.446484
Si Si4 0.419552 0.930394 0.674115
Si Si5 0.500000 0.750000 0.625000
Si Si6 0.889034 0.513790 0.712239
Si Si7 0.262132 0.493990 0.877943
Si Si8 0.415021 0.910814 0.830168
O O1 0.935413 0.684376 0.570635
O O2 0.939236 0.821234 0.636790
O O3 0.643224 0.890823 0.532667
O O4 0.630095 0.931025 0.447891
O O5 0.500000 0.000000 0.500000
O O6 0.661361 0.076569 0.507521
O O7 0.763359 0.254671 0.436653
O O8 0.828088 0.145907 0.502504
O O9 0.797636 0.062934 0.419414
O O10 0.484977 0.843259 0.656321
O O11 0.344037 0.968924 0.636487
O O12 0.838532 0.491037 0.663897
O O13 0.994564 0.558778 0.701588
O O14 0.253112 0.379709 0.892042
#
# Coordination Sequence:
#
# PCOD8304420 Si02
#       8
#     8  16  16  16   4  16  16  16
#     4  12  26  41  70 102 135 185 242 285 352 408
#     4  11  25  37  61  99 137 177 222 271 338 424
#     4  12  23  45  66  98 138 181 233 286 341 421
#     4  11  24  36  58  92 139 176 219 266 333 411
#     4  12  24  30  56  92 132 184 200 262 324 412
#     4  11  25  45  66  97 131 180 231 281 346 413
#     4  11  24  43  64  95 136 180 223 284 345 404
#     4  12  23  42  67  97 137 179 222 282 343 412
#
# _framework density 19.697908999999999
#
# number of rings (size 3 to 8) (size 9 to 14) (size 15 to 20)
#    0.000    0.593    7.407    0.889    6.222    0.593 
#    0.000    2.222    0.000    0.000    0.000    0.000 
#    0.000    0.000    0.000    0.000    0.000    0.000 
#
# Total GULP energy -669359.663847 kJ/mol
# GULP energy per Si atom -12395.549330 kJ/mol
# Density = 1.965308 g / cm^3
# Si number density = 19.697909 Si / 1000 Ang^3
#
#
#
# Elastic Constant Matrix: (Units=GPa)
#
#
# Indices 1 2 3 4 5 6 
#
# 1 100.6268 35.1312 33.9982 0.0000 0.0000 0.0757
# 2 35.1312 100.6268 33.9982 0.0000 0.0000 -0.0757
# 3 33.9982 33.9982 94.7762 0.0000 0.0000 0.0000
# 4 0.0000 0.0000 0.0000 37.4075 0.0000 0.0000
# 5 0.0000 0.0000 0.0000 0.0000 37.4075 0.0000
# 6 0.0757 -0.0757 0.0000 0.0000 0.0000 13.2483
#
#
#
# Elastic Compliance Matrix: (Units=1/GPa)
#
#
# Indices 1 2 3 4 5 6 
#
# 1 0.012124 -0.003145 -0.003221 0.000000 0.000000 -0.000087
# 2 -0.003145 0.012124 -0.003221 0.000000 0.000000 0.000087
# 3 -0.003221 -0.003221 0.012862 0.000000 0.000000 0.000000
# 4 0.000000 0.000000 0.000000 0.026733 0.000000 0.000000
# 5 0.000000 0.000000 0.000000 0.000000 0.026733 0.000000
# 6 -0.000087 0.000087 0.000000 0.000000 0.000000 0.075482
#
#
# Mechanical properties :
#
#
# Convention : Reuss Voigt Hill
#
# Bulk Modulus (GPa) = 55.75219 55.80944 55.78082
# Shear Modulus (GPa) = 26.14933 30.47282 28.31107
#
# Velocity S-wave (km/s) = 3.64746 3.93747 3.79524
# Velocity P-wave (km/s) = 6.78997 7.00469 6.89817
#
# Compressibility (1/GPa) = 0.01793651
#
# Stress axis : x y z
#
# Youngs Moduli (GPa) = 82.48170 82.48170 77.74764
#
# Poissons Ratio (x) = 0.25937 0.25043
# Poissons Ratio (y) = 0.25937 0.25043
# Poissons Ratio (z) = 0.26568 0.26568
#
# Static dielectric constant tensor:
#      x y z
#    x 3.675150 0.000000 0.000000 
#    y 0.000000 3.675150 0.000000 
#    z 0.000000 0.000000 3.890840 
# 
# 
# High freq. dielectric constant tensor:
#      x y z
#    x 1.765790 0.000000 0.000000 
#    y 0.000000 1.765790 0.000000 
#    z 0.000000 0.000000 1.782650 
# 
# From -- ./inp_files/5897.got.cif
#   From: 2010.03.12/outbox.cif.g09.slc.cpg/sg88_3_cif.got.tgz:5897.got - 2010.04.08 20:20:55.
