data_PCOD8304314
_publ_section_title
;
Structure prediction by ZEFSAII (Michael W. Deem and Ramdas Pophale) SiO2 
 PCOD8304314
Probable space group: I 41/A
;
_chemical_formula_sum "Si O2"
_cell_formula_units_Z 96
_cell_length_a 22.832988
_cell_length_b 22.832988
_cell_length_c 9.523967
_cell_angle_alpha 90.000000
_cell_angle_beta 90.000000
_cell_angle_gamma 90.000000
_cell_volume 4965.275823
_symmetry_space_group_name_H-M "I 41/A"
_symmetry_group_IT_number 88
_space_group.IT_coordinate_system_code '2'
_symmetry_cell_setting 'tetragonal'
loop_
_space_group_symop_operation_xyz
x,y,z
3/4-y,1/4+x,1/4+z
-x,1/2-y,z
1/4+y,1/4-x,1/4+z
-x,-y,-z
1/4+y,3/4-x,3/4-z
x,1/2+y,-z
3/4-y,3/4+x,3/4-z
1/2+x,1/2+y,1/2+z
1/4-y,3/4+x,3/4+z
1/2-x,-y,1/2+z
3/4+y,3/4-x,3/4+z
1/2-x,1/2-y,1/2-z
3/4+y,1/4-x,1/4-z
1/2+x,y,1/2-z
1/4-y,1/4+x,1/4-z
loop_
_atom_site_type_symbol
_atom_site_label
_atom_site_fract_x
_atom_site_fract_y
_atom_site_fract_z
Si Si1 0.123197 0.432023 0.529124
Si Si2 0.179407 0.874671 0.725589
Si Si3 0.182784 0.874897 0.232301
Si Si4 0.809882 0.251263 0.332347
Si Si5 0.625586 0.931254 0.514172
Si Si6 0.189623 0.752814 0.332046
O O1 0.166253 0.396352 0.430122
O O2 0.123273 0.499052 0.482702
O O3 0.150819 0.426499 0.683388
O O4 0.056772 0.405938 0.536061
O O5 0.157712 0.806934 0.725817
O O6 0.138555 0.913690 0.826020
O O7 0.248781 0.882450 0.756983
O O8 0.155941 0.811266 0.278435
O O9 0.172626 0.892212 0.070946
O O10 0.750000 0.250000 0.250000
O O11 0.841529 0.311432 0.286073
O O12 0.800436 0.247201 0.499956
O O13 0.250000 0.750000 0.250000
#
# Coordination Sequence:
#
# PCOD8304314 Si02
#       6
#    16  16  16  16  16  16
#     4  11  22  37  60  88 123 158 201 247 303 360
#     4  11  24  39  61  90 125 161 200 248 304 362
#     4  11  22  37  60  88 123 158 201 247 303 360
#     4  10  22  40  60  85 120 160 211 248 288 361
#     4  11  24  39  61  90 125 161 200 248 304 362
#     4  10  22  38  62  87 116 162 213 244 290 361
#
# _framework density 19.334274000000001
#
# number of rings (size 3 to 8) (size 9 to 14) (size 15 to 20)
#    0.000    1.333    3.333    2.000   14.000    4.000 
#    0.000    0.000    0.000    6.000    0.000    0.000 
#    0.000    0.000    0.000    0.000    0.000    0.000 
#
# Total GULP energy -594783.358622 kJ/mol
# GULP energy per Si atom -12391.319971 kJ/mol
# Density = 1.929027 g / cm^3
# Si number density = 19.334274 Si / 1000 Ang^3
#
#
#
# Elastic Constant Matrix: (Units=GPa)
#
#
# Indices 1 2 3 4 5 6 
#
# 1 99.6921 33.3558 25.2955 0.0000 0.0000 0.5486
# 2 33.3558 99.6921 25.2955 0.0000 0.0000 -0.5486
# 3 25.2955 25.2955 81.3230 0.0000 0.0000 0.0000
# 4 0.0000 0.0000 0.0000 31.9638 0.0000 0.0000
# 5 0.0000 0.0000 0.0000 0.0000 31.9638 0.0000
# 6 0.5486 -0.5486 0.0000 0.0000 0.0000 5.6923
#
#
#
# Elastic Compliance Matrix: (Units=1/GPa)
#
#
# Indices 1 2 3 4 5 6 
#
# 1 0.011812 -0.003287 -0.002651 0.000000 0.000000 -0.001455
# 2 -0.003287 0.011812 -0.002651 0.000000 0.000000 0.001455
# 3 -0.002651 -0.002651 0.013946 0.000000 0.000000 0.000000
# 4 0.000000 0.000000 0.000000 0.031285 0.000000 0.000000
# 5 0.000000 0.000000 0.000000 0.000000 0.031285 0.000000
# 6 -0.001455 0.001455 0.000000 0.000000 0.000000 0.175956
#
#
# Mechanical properties :
#
#
# Convention : Reuss Voigt Hill
#
# Bulk Modulus (GPa) = 49.04652 49.84454 49.44553
# Shear Modulus (GPa) = 16.66262 27.04135 21.85199
#
# Velocity S-wave (km/s) = 2.93886 3.74387 3.36552
# Velocity P-wave (km/s) = 6.07771 6.67272 6.38215
#
# Compressibility (1/GPa) = 0.02038881
#
# Stress axis : x y z
#
# Youngs Moduli (GPa) = 84.66298 84.66298 71.70443
#
# Poissons Ratio (x) = 0.27831 0.19012
# Poissons Ratio (y) = 0.27831 0.19012
# Poissons Ratio (z) = 0.22448 0.22448
#
# Static dielectric constant tensor:
#      x y z
#    x 4.005650 0.000000 0.000000 
#    y 0.000000 4.005650 0.000000 
#    z 0.000000 0.000000 3.543010 
# 
# 
# High freq. dielectric constant tensor:
#      x y z
#    x 1.739850 0.000000 0.000000 
#    y 0.000000 1.739850 0.000000 
#    z 0.000000 0.000000 1.770390 
# 
# From -- ./inp_files/1708.got.cif
#   From: 2010.03.12/outbox.cif.g09.slc.cpg/sg88_1_cif.got.tgz:1708.got - 2010.04.08 20:20:55.
