data_PCOD8304171
_publ_section_title
;
Structure prediction by ZEFSAII (Michael W. Deem and Ramdas Pophale) SiO2 
 PCOD8304171
Probable space group: I 4/M
;
_chemical_formula_sum "Si O2"
_cell_formula_units_Z 72
_cell_length_a 10.844438
_cell_length_b 10.844438
_cell_length_c 34.259004
_cell_angle_alpha 90.000000
_cell_angle_beta 90.000000
_cell_angle_gamma 90.000000
_cell_volume 4028.921754
_symmetry_space_group_name_H-M "I 4/M"
_symmetry_group_IT_number 87
_symmetry_cell_setting 'tetragonal'
loop_
_space_group_symop_operation_xyz
x,y,z
-y,x,z
-x,-y,z
y,-x,z
-x,-y,-z
y,-x,-z
x,y,-z
-y,x,-z
1/2+x,1/2+y,1/2+z
1/2-y,1/2+x,1/2+z
1/2-x,1/2-y,1/2+z
1/2+y,1/2-x,1/2+z
1/2-x,1/2-y,1/2-z
1/2+y,1/2-x,1/2-z
1/2+x,1/2+y,1/2-z
1/2-y,1/2+x,1/2-z
loop_
_atom_site_type_symbol
_atom_site_label
_atom_site_fract_x
_atom_site_fract_y
_atom_site_fract_z
Si Si1 0.697655 0.459898 0.700231
Si Si2 0.299679 0.523641 0.789298
Si Si3 0.118197 0.430920 0.848485
Si Si4 0.809293 0.931798 0.500000
Si Si5 0.931062 0.193301 0.584411
O O1 0.643035 0.594578 0.692194
O O2 0.744578 0.459683 0.744936
O O3 0.808663 0.428653 0.672262
O O4 0.365665 0.393229 0.798277
O O5 0.182577 0.525436 0.817839
O O6 0.208014 0.392879 0.883423
O O7 0.000000 0.500000 0.866242
O O8 0.741787 0.907668 0.541611
O O9 0.927279 0.846302 0.500000
O O10 0.073528 0.154725 0.589512
#
# Coordination Sequence:
#
# PCOD8304171 Si02
#       5
#    16  16  16   8  16
#     4   9  22  40  53  67  98 146 184 216 258 306
#     4   9  20  38  56  71  94 132 177 229 280 306
#     4  12  25  30  51  81 108 134 178 216 257 309
#     4   7  12  28  57  84 104 133 164 198 264 333
#     4   9  18  35  58  83 110 135 165 213 269 318
#
# _framework density 17.870785999999999
#
# number of rings (size 3 to 8) (size 9 to 14) (size 15 to 20)
#    0.000    2.556    0.000    4.000    9.333    3.556 
#    0.000    0.556    0.000    0.000    0.000    0.000 
#    0.000    1.778    0.000    0.000    0.000    0.000 
#
# Total GULP energy -446133.505776 kJ/mol
# GULP energy per Si atom -12392.597383 kJ/mol
# Density = 1.783011 g / cm^3
# Si number density = 17.870786 Si / 1000 Ang^3
#
#
#
# Elastic Constant Matrix: (Units=GPa)
#
#
# Indices 1 2 3 4 5 6 
#
# 1 53.9871 10.0116 34.8359 0.0000 0.0000 -6.8921
# 2 10.0116 53.9871 34.8359 0.0000 0.0000 6.8921
# 3 34.8359 34.8359 114.8297 0.0000 0.0000 0.0000
# 4 0.0000 0.0000 0.0000 9.5094 0.0000 0.0000
# 5 0.0000 0.0000 0.0000 0.0000 9.5094 0.0000
# 6 -6.8921 6.8921 0.0000 0.0000 0.0000 8.4019
#
#
#
# Elastic Compliance Matrix: (Units=1/GPa)
#
#
# Indices 1 2 3 4 5 6 
#
# 1 0.026971 -0.003640 -0.007078 0.000000 0.000000 0.025110
# 2 -0.003640 0.026971 -0.007078 0.000000 0.000000 -0.025110
# 3 -0.007078 -0.007078 0.013003 0.000000 0.000000 0.000000
# 4 0.000000 0.000000 0.000000 0.105159 0.000000 0.000000
# 5 0.000000 0.000000 0.000000 0.000000 0.105159 0.000000
# 6 0.025110 -0.025110 0.000000 0.000000 0.000000 0.160216
#
#
# Mechanical properties :
#
#
# Convention : Reuss Voigt Hill
#
# Bulk Modulus (GPa) = 31.89510 42.46344 37.17927
# Shear Modulus (GPa) = 10.34084 15.02552 12.68318
#
# Velocity S-wave (km/s) = 2.40811 2.90278 2.66694
# Velocity P-wave (km/s) = 5.06146 5.92012 5.50755
#
# Compressibility (1/GPa) = 0.03135277
#
# Stress axis : x y z
#
# Youngs Moduli (GPa) = 37.07750 37.07750 76.90584
#
# Poissons Ratio (x) = 0.13496 0.54432
# Poissons Ratio (y) = 0.13496 0.54432
# Poissons Ratio (z) = 0.26243 0.26243
#
# Static dielectric constant tensor:
#      x y z
#    x 3.162810 0.000000 0.000000 
#    y 0.000000 3.162810 0.000000 
#    z 0.000000 0.000000 3.565190 
# 
# 
# High freq. dielectric constant tensor:
#      x y z
#    x 1.673690 0.000000 0.000000 
#    y 0.000000 1.673690 0.000000 
#    z 0.000000 0.000000 1.689280 
# 
# From -- ./inp_files/6445.got.cif
#   From: 2010.03.12/outbox.cif.g09.slc.cpg/sg87_4_cif.got.tgz:6445.got - 2010.04.08 20:16:13.
