data_PCOD8304728
_publ_section_title
;
Structure prediction by ZEFSAII (Michael W. Deem and Ramdas Pophale) SiO2 
 PCOD8304728
Probable space group: P 41 2 2
;
_chemical_formula_sum "Si O2"
_cell_formula_units_Z 56
_cell_length_a 15.487224
_cell_length_b 15.487224
_cell_length_c 14.041714
_cell_angle_alpha 90.000000
_cell_angle_beta 90.000000
_cell_angle_gamma 90.000000
_cell_volume 3367.962775
_symmetry_space_group_name_H-M "P 41 2 2"
_symmetry_group_IT_number 91
_symmetry_cell_setting 'tetragonal'
loop_
_space_group_symop_operation_xyz
x,y,z
-y,x,1/4+z
-x,-y,1/2+z
y,-x,3/4+z
x,-y,1/2-z
-x,y,-z
y,x,3/4-z
-y,-x,1/4-z
loop_
_atom_site_type_symbol
_atom_site_label
_atom_site_fract_x
_atom_site_fract_y
_atom_site_fract_z
Si Si1 0.702717 0.577410 0.815199
Si Si2 0.979636 0.593571 0.227171
Si Si3 0.059271 0.651971 0.412540
Si Si4 0.855142 0.144859 0.625000
Si Si5 0.538051 0.872824 0.834928
Si Si6 0.329160 0.867947 0.330049
Si Si7 0.203338 0.727812 0.290965
Si Si8 0.802672 0.000000 0.750000
O O1 0.661828 0.500000 0.750000
O O2 0.628296 0.628296 0.875000
O O3 0.772407 0.534615 0.886011
O O4 0.761419 0.638305 0.749632
O O5 0.943570 0.500000 0.250000
O O6 0.898554 0.642567 0.183167
O O7 0.999017 0.647602 0.320739
O O8 0.066922 0.585623 0.163462
O O9 0.095252 0.557692 0.438595
O O10 0.138507 0.714398 0.380855
O O11 0.000000 0.687814 0.500000
O O12 0.842350 0.219329 0.704912
O O13 0.951116 0.143640 0.581252
O O14 0.589593 0.880599 0.737798
O O15 0.290438 0.772248 0.331098
O O16 0.251588 0.926900 0.298767
#
# Coordination Sequence:
#
# PCOD8304728 Si02
#       8
#     8   8   8   4   8   8   8   4
#     4  12  20  34  56  88 117 145 182 242 286 340
#     4  10  18  30  49  78 112 139 172 221 283 349
#     4  11  22  34  50  78 115 147 179 226 285 348
#     4  10  20  34  58  82 108 144 178 238 282 320
#     4  11  17  30  56  86 113 134 172 230 302 337
#     4  11  19  30  54  82 108 140 178 226 285 334
#     4  11  20  33  53  83 110 142 181 231 289 325
#     4  10  18  30  52  78 110 132 172 214 276 324
#
# _framework density 16.627262999999999
#
# number of rings (size 3 to 8) (size 9 to 14) (size 15 to 20)
#    0.000    1.143    6.429    3.857    0.000    0.000 
#    0.000    0.714    6.286    0.857    0.000    0.000 
#    0.000    0.000    0.000    0.000    0.000    0.000 
#
# Total GULP energy -693990.281492 kJ/mol
# GULP energy per Si atom -12392.683598 kJ/mol
# Density = 1.658942 g / cm^3
# Si number density = 16.627263 Si / 1000 Ang^3
#
#
#
# Elastic Constant Matrix: (Units=GPa)
#
#
# Indices 1 2 3 4 5 6 
#
# 1 59.7364 22.7378 27.6748 0.0000 0.0000 0.0000
# 2 22.7378 59.7368 27.6754 0.0000 0.0000 0.0000
# 3 27.6748 27.6754 74.7206 0.0000 0.0000 0.0000
# 4 0.0000 0.0000 0.0000 34.2022 0.0000 0.0000
# 5 0.0000 0.0000 0.0000 0.0000 34.2021 0.0000
# 6 0.0000 0.0000 0.0000 0.0000 0.0000 114.2956
#
#
#
# Elastic Compliance Matrix: (Units=1/GPa)
#
#
# Indices 1 2 3 4 5 6 
#
# 1 0.021582 -0.005446 -0.005976 0.000000 0.000000 0.000000
# 2 -0.005446 0.021582 -0.005977 0.000000 0.000000 0.000000
# 3 -0.005976 -0.005977 0.017810 0.000000 0.000000 0.000000
# 4 0.000000 0.000000 0.000000 0.029238 0.000000 0.000000
# 5 0.000000 0.000000 0.000000 0.000000 0.029238 0.000000
# 6 0.000000 0.000000 0.000000 0.000000 0.000000 0.008749
#
#
# Mechanical properties :
#
#
# Convention : Reuss Voigt Hill
#
# Bulk Modulus (GPa) = 38.20243 38.92998 38.56621
# Shear Modulus (GPa) = 29.11674 44.28034 36.69854
#
# Velocity S-wave (km/s) = 4.18921 5.16614 4.70311
# Velocity P-wave (km/s) = 6.81358 7.68437 7.26204
#
# Compressibility (1/GPa) = 0.02617634
#
# Stress axis : x y z
#
# Youngs Moduli (GPa) = 46.33513 46.33509 56.14724
#
# Poissons Ratio (x) = 0.25234 0.33555
# Poissons Ratio (y) = 0.25234 0.33557
# Poissons Ratio (z) = 0.27691 0.27692
#
# Static dielectric constant tensor:
#      x y z
#    x 3.262970 0.000000 0.000000 
#    y 0.000000 3.262990 0.000000 
#    z 0.000000 0.000000 3.789860 
# 
# 
# High freq. dielectric constant tensor:
#      x y z
#    x 1.629280 0.000000 0.000000 
#    y 0.000000 1.629280 0.000000 
#    z 0.000000 0.000000 1.630620 
# 
# From -- ./inp_files/5002.got.cif
#   From: 2010.03.12/outbox.cif.g09.slc.cpg/sg91_3_cif.got.tgz:5002.got - 2010.04.08 20:27:58.
