data_PCOD8304300
_publ_section_title
;
Structure prediction by ZEFSAII (Michael W. Deem and Ramdas Pophale) SiO2 
 PCOD8304300
Probable space group: I 41/A
;
_chemical_formula_sum "Si O2"
_cell_formula_units_Z 96
_cell_length_a 13.553648
_cell_length_b 13.553648
_cell_length_c 24.295860
_cell_angle_alpha 90.000000
_cell_angle_beta 90.000000
_cell_angle_gamma 90.000000
_cell_volume 4463.182867
_symmetry_space_group_name_H-M "I 41/A"
_symmetry_group_IT_number 88
_space_group.IT_coordinate_system_code '2'
_symmetry_cell_setting 'tetragonal'
loop_
_space_group_symop_operation_xyz
x,y,z
3/4-y,1/4+x,1/4+z
-x,1/2-y,z
1/4+y,1/4-x,1/4+z
-x,-y,-z
1/4+y,3/4-x,3/4-z
x,1/2+y,-z
3/4-y,3/4+x,3/4-z
1/2+x,1/2+y,1/2+z
1/4-y,3/4+x,3/4+z
1/2-x,-y,1/2+z
3/4+y,3/4-x,3/4+z
1/2-x,1/2-y,1/2-z
3/4+y,1/4-x,1/4-z
1/2+x,y,1/2-z
1/4-y,1/4+x,1/4-z
loop_
_atom_site_type_symbol
_atom_site_label
_atom_site_fract_x
_atom_site_fract_y
_atom_site_fract_z
Si Si1 0.293739 0.357577 0.757578
Si Si2 0.051924 0.355007 0.033966
Si Si3 0.157523 0.991210 0.170670
Si Si4 0.156065 0.933768 0.613472
Si Si5 0.629274 0.306796 0.897579
Si Si6 0.309060 0.763853 0.831442
O O1 0.250000 0.250000 0.750000
O O2 0.207415 0.427429 0.781149
O O3 0.336757 0.401835 0.701234
O O4 0.390057 0.354424 0.795528
O O5 0.164901 0.351304 0.053651
O O6 0.993785 0.442898 0.065338
O O7 0.000000 0.250000 0.047069
O O8 0.054302 0.376935 0.969013
O O9 0.080447 0.927281 0.135591
O O10 0.238107 0.020276 0.125620
O O11 0.142255 0.839542 0.652042
O O12 0.068362 0.007805 0.630078
O O13 0.605141 0.190271 0.900570
#
# Coordination Sequence:
#
# PCOD8304300 Si02
#       6
#    16  16  16  16  16  16
#     4  11  22  41  65  96 130 173 221 267 334 404
#     4  10  23  42  68  97 130 172 225 273 335 405
#     4  10  23  41  66  93 132 175 217 275 329 397
#     4  10  22  41  63  91 132 168 212 276 323 390
#     4  10  21  41  65  91 124 171 214 267 320 390
#     4  10  23  43  63  99 132 170 220 273 336 397
#
# _framework density 21.509312999999999
#
# number of rings (size 3 to 8) (size 9 to 14) (size 15 to 20)
#    0.000    1.833    1.667    1.000    4.667    4.000 
#    3.000    0.000    0.000    0.000    0.000    0.000 
#    0.000    0.000    0.000    0.000    0.000    0.000 
#
# Total GULP energy -595214.373245 kJ/mol
# GULP energy per Si atom -12400.299443 kJ/mol
# Density = 2.146036 g / cm^3
# Si number density = 21.509313 Si / 1000 Ang^3
#
#
#
# Elastic Constant Matrix: (Units=GPa)
#
#
# Indices 1 2 3 4 5 6 
#
# 1 69.7129 28.9475 32.8189 0.0000 0.0000 1.1838
# 2 28.9475 69.7129 32.8189 0.0000 0.0000 -1.1838
# 3 32.8189 32.8189 132.0959 0.0000 0.0000 0.0000
# 4 0.0000 0.0000 0.0000 34.8738 0.0000 0.0000
# 5 0.0000 0.0000 0.0000 0.0000 34.8738 0.0000
# 6 1.1838 -1.1838 0.0000 0.0000 0.0000 34.7930
#
#
#
# Elastic Compliance Matrix: (Units=1/GPa)
#
#
# Indices 1 2 3 4 5 6 
#
# 1 0.018361 -0.006218 -0.003017 0.000000 0.000000 -0.000836
# 2 -0.006218 0.018361 -0.003017 0.000000 0.000000 0.000836
# 3 -0.003017 -0.003017 0.009069 0.000000 0.000000 0.000000
# 4 0.000000 0.000000 0.000000 0.028675 0.000000 0.000000
# 5 0.000000 0.000000 0.000000 0.000000 0.028675 0.000000
# 6 -0.000836 0.000836 0.000000 0.000000 0.000000 0.028798
#
#
# Mechanical properties :
#
#
# Convention : Reuss Voigt Hill
#
# Bulk Modulus (GPa) = 46.97571 51.18804 49.08188
# Shear Modulus (GPa) = 30.57377 32.70391 31.63884
#
# Velocity S-wave (km/s) = 3.77426 3.90353 3.83944
# Velocity P-wave (km/s) = 6.39379 6.64579 6.52100
#
# Compressibility (1/GPa) = 0.02128760
#
# Stress axis : x y z
#
# Youngs Moduli (GPa) = 54.46321 54.46321 110.26177
#
# Poissons Ratio (x) = 0.33866 0.33265
# Poissons Ratio (y) = 0.33866 0.33265
# Poissons Ratio (z) = 0.16431 0.16431
#
# Static dielectric constant tensor:
#      x y z
#    x 3.928320 0.000000 0.000000 
#    y 0.000000 3.928320 0.000000 
#    z 0.000000 0.000000 3.965600 
# 
# 
# High freq. dielectric constant tensor:
#      x y z
#    x 1.842660 0.000000 0.000000 
#    y 0.000000 1.842660 0.000000 
#    z 0.000000 0.000000 1.850320 
# 
# From -- ./inp_files/4688.got.cif
#   From: 2010.03.12/outbox.cif.g09.slc.cpg/sg88_3_cif.got.tgz:4688.got - 2010.04.08 20:20:55.
