data_PCOD8304715
_publ_section_title
;
Structure prediction by ZEFSAII (Michael W. Deem and Ramdas Pophale) SiO2 
 PCOD8304715
Probable space group: P 41 2 2
;
_chemical_formula_sum "Si O2"
_cell_formula_units_Z 40
_cell_length_a 14.804031
_cell_length_b 14.804031
_cell_length_c 9.866002
_cell_angle_alpha 90.000000
_cell_angle_beta 90.000000
_cell_angle_gamma 90.000000
_cell_volume 2162.226426
_symmetry_space_group_name_H-M "P 41 2 2"
_symmetry_group_IT_number 91
_symmetry_cell_setting 'tetragonal'
loop_
_space_group_symop_operation_xyz
x,y,z
-y,x,1/4+z
-x,-y,1/2+z
y,-x,3/4+z
x,-y,1/2-z
-x,y,-z
y,x,3/4-z
-y,-x,1/4-z
loop_
_atom_site_type_symbol
_atom_site_label
_atom_site_fract_x
_atom_site_fract_y
_atom_site_fract_z
Si Si1 0.102795 0.763233 0.853602
Si Si2 0.031496 0.348387 0.203021
Si Si3 0.000000 0.091103 0.500000
Si Si4 0.409104 0.897835 0.218923
Si Si5 0.133243 0.598400 0.551175
Si Si6 0.241385 0.758616 0.625000
O O1 0.183158 0.790543 0.753969
O O2 0.009482 0.743416 0.769363
O O3 0.083831 0.846533 0.952967
O O4 0.133247 0.677046 0.944434
O O5 0.103139 0.392185 0.307753
O O6 0.940201 0.407809 0.173558
O O7 0.088106 0.338585 0.065539
O O8 0.028764 0.028764 0.375000
O O9 0.497989 0.838055 0.253531
O O10 0.436757 0.000000 0.250000
O O11 0.223037 0.652189 0.598488
#
# Coordination Sequence:
#
# PCOD8304715 Si02
#       6
#     8   8   4   8   8   4
#     4  10  22  39  55  74 109 146 200 247 296 324
#     4   9  17  30  50  78  98 139 184 240 289 334
#     4  12  28  44  56  78 108 166 216 250 278 344
#     4  10  17  31  57  84 101 139 185 253 305 344
#     4  10  19  30  51  80 116 140 179 230 301 374
#     4  10  24  34  50  78 116 160 176 236 292 364
#
# _framework density 18.499451000000001
#
# number of rings (size 3 to 8) (size 9 to 14) (size 15 to 20)
#    0.000    2.000    5.000    0.600    7.000    2.400 
#    0.000    0.000    0.000    0.000    0.000    0.000 
#    0.000    0.000   68.000    0.000    0.000    0.000 
#
# Total GULP energy -495569.136498 kJ/mol
# GULP energy per Si atom -12389.228412 kJ/mol
# Density = 1.845735 g / cm^3
# Si number density = 18.499451 Si / 1000 Ang^3
#
#
#
# Elastic Constant Matrix: (Units=GPa)
#
#
# Indices 1 2 3 4 5 6 
#
# 1 67.1695 43.8116 36.1444 0.0000 0.0000 0.0000
# 2 43.8116 67.1694 36.1450 0.0000 0.0000 0.0000
# 3 36.1444 36.1450 107.3977 0.0000 0.0000 0.0000
# 4 0.0000 0.0000 0.0000 27.2394 0.0000 0.0000
# 5 0.0000 0.0000 0.0000 0.0000 27.2393 0.0000
# 6 0.0000 0.0000 0.0000 0.0000 0.0000 14.4219
#
#
#
# Elastic Compliance Matrix: (Units=1/GPa)
#
#
# Indices 1 2 3 4 5 6 
#
# 1 0.027176 -0.015636 -0.003884 0.000000 0.000000 0.000000
# 2 -0.015636 0.027176 -0.003884 0.000000 0.000000 0.000000
# 3 -0.003884 -0.003884 0.011925 0.000000 0.000000 0.000000
# 4 0.000000 0.000000 0.000000 0.036712 0.000000 0.000000
# 5 0.000000 0.000000 0.000000 0.000000 0.036712 0.000000
# 6 0.000000 0.000000 0.000000 0.000000 0.000000 0.069339
#
#
# Mechanical properties :
#
#
# Convention : Reuss Voigt Hill
#
# Bulk Modulus (GPa) = 51.35955 52.65984 52.00970
# Shear Modulus (GPa) = 19.05939 22.15583 20.60761
#
# Velocity S-wave (km/s) = 3.21326 3.46446 3.34122
# Velocity P-wave (km/s) = 6.44901 6.67313 6.56203
#
# Compressibility (1/GPa) = 0.01947057
#
# Stress axis : x y z
#
# Youngs Moduli (GPa) = 36.79703 36.79671 83.85429
#
# Poissons Ratio (x) = 0.57535 0.32567
# Poissons Ratio (y) = 0.57535 0.32570
# Poissons Ratio (z) = 0.14291 0.14292
#
# Static dielectric constant tensor:
#      x y z
#    x 3.050720 0.000000 0.000000 
#    y 0.000000 3.050720 0.000000 
#    z 0.000000 0.000000 3.936000 
# 
# 
# High freq. dielectric constant tensor:
#      x y z
#    x 1.670480 0.000000 0.000000 
#    y 0.000000 1.670480 0.000000 
#    z 0.000000 0.000000 1.749250 
# 
# From -- ./inp_files/15758.got.cif
#   From: 2010.03.12/outbox.cif.g09.slc.cpg/sg91_8_cif.got.tgz:15758.got - 2010.04.08 20:27:58.
