data_PCOD8304274
_publ_section_title
;
Structure prediction by ZEFSAII (Michael W. Deem and Ramdas Pophale) SiO2 
 PCOD8304274
Probable space group: I 41/A
;
_chemical_formula_sum "Si O2"
_cell_formula_units_Z 112
_cell_length_a 13.999740
_cell_length_b 13.999740
_cell_length_c 28.691172
_cell_angle_alpha 90.000000
_cell_angle_beta 90.000000
_cell_angle_gamma 90.000000
_cell_volume 5623.260842
_symmetry_space_group_name_H-M "I 41/A"
_symmetry_group_IT_number 88
_space_group.IT_coordinate_system_code '2'
_symmetry_cell_setting 'tetragonal'
loop_
_space_group_symop_operation_xyz
x,y,z
3/4-y,1/4+x,1/4+z
-x,1/2-y,z
1/4+y,1/4-x,1/4+z
-x,-y,-z
1/4+y,3/4-x,3/4-z
x,1/2+y,-z
3/4-y,3/4+x,3/4-z
1/2+x,1/2+y,1/2+z
1/4-y,3/4+x,3/4+z
1/2-x,-y,1/2+z
3/4+y,3/4-x,3/4+z
1/2-x,1/2-y,1/2-z
3/4+y,1/4-x,1/4-z
1/2+x,y,1/2-z
1/4-y,1/4+x,1/4-z
loop_
_atom_site_type_symbol
_atom_site_label
_atom_site_fract_x
_atom_site_fract_y
_atom_site_fract_z
Si Si1 0.960836 0.020297 0.226742
Si Si2 0.280040 0.449107 0.538603
Si Si3 0.890325 0.728973 0.688980
Si Si4 0.795402 0.046029 0.872528
Si Si5 0.180206 0.891673 0.029711
Si Si6 0.100311 0.649659 0.892603
Si Si7 0.104586 0.721873 0.587772
O O1 0.869465 0.974198 0.252857
O O2 0.930526 0.107436 0.192649
O O3 0.030808 0.058386 0.267348
O O4 0.007014 0.932627 0.200490
O O5 0.384390 0.401120 0.538574
O O6 0.224380 0.456080 0.587912
O O7 0.285513 0.553641 0.516236
O O8 0.831185 0.820778 0.707355
O O9 0.876497 0.714830 0.633631
O O10 0.000000 0.750000 0.701439
O O11 0.758930 0.077663 0.923967
O O12 0.860403 0.132789 0.852284
O O13 0.852125 0.945837 0.873299
O O14 0.118224 0.735465 0.854842
O O15 0.000000 0.750000 0.568120
#
# Coordination Sequence:
#
# PCOD8304274 Si02
#       7
#    16  16  16  16  16  16  16
#     4  12  23  41  64  97 126 174 223 268 328 398
#     4  12  23  36  64  92 127 166 219 267 320 391
#     4  10  21  36  58  93 130 171 200 248 321 394
#     4  11  23  41  61  92 128 176 221 269 325 386
#     4  11  23  40  59  89 135 172 218 262 319 399
#     4  11  22  36  60  94 141 173 200 248 325 403
#     4  10  22  42  64  83 124 172 218 267 324 385
#
# _framework density 19.917268
#
# number of rings (size 3 to 8) (size 9 to 14) (size 15 to 20)
#    0.000    1.000    5.714    1.286    2.000    3.429 
#    0.000    0.714    3.143    0.000    0.000    0.000 
#    0.000    0.000    0.000    0.000    0.000    0.000 
#
# Total GULP energy -694159.825399 kJ/mol
# GULP energy per Si atom -12395.711168 kJ/mol
# Density = 1.987194 g / cm^3
# Si number density = 19.917268 Si / 1000 Ang^3
#
#
#
# Elastic Constant Matrix: (Units=GPa)
#
#
# Indices 1 2 3 4 5 6 
#
# 1 72.1137 13.4634 37.0913 0.0000 0.0000 -4.2956
# 2 13.4634 72.1137 37.0913 0.0000 0.0000 4.2956
# 3 37.0913 37.0913 111.0569 0.0000 0.0000 0.0000
# 4 0.0000 0.0000 0.0000 28.4082 0.0000 0.0000
# 5 0.0000 0.0000 0.0000 0.0000 28.4082 0.0000
# 6 -4.2956 4.2956 0.0000 0.0000 0.0000 19.5929
#
#
#
# Elastic Compliance Matrix: (Units=1/GPa)
#
#
# Indices 1 2 3 4 5 6 
#
# 1 0.017031 -0.000584 -0.005493 0.000000 0.000000 0.003862
# 2 -0.000584 0.017031 -0.005493 0.000000 0.000000 -0.003862
# 3 -0.005493 -0.005493 0.012674 0.000000 0.000000 0.000000
# 4 0.000000 0.000000 0.000000 0.035201 0.000000 0.000000
# 5 0.000000 0.000000 0.000000 0.000000 0.035201 0.000000
# 6 0.003862 -0.003862 0.000000 0.000000 0.000000 0.052733
#
#
# Mechanical properties :
#
#
# Convention : Reuss Voigt Hill
#
# Bulk Modulus (GPa) = 42.38110 47.84182 45.11146
# Shear Modulus (GPa) = 24.89077 26.45772 25.67425
#
# Velocity S-wave (km/s) = 3.53896 3.64865 3.59422
# Velocity P-wave (km/s) = 6.16634 6.46704 6.31848
#
# Compressibility (1/GPa) = 0.02359542
#
# Stress axis : x y z
#
# Youngs Moduli (GPa) = 58.71478 58.71478 78.90419
#
# Poissons Ratio (x) = 0.03432 0.43343
# Poissons Ratio (y) = 0.03432 0.43343
# Poissons Ratio (z) = 0.32252 0.32252
#
# Static dielectric constant tensor:
#      x y z
#    x 3.535370 0.000000 0.000000 
#    y 0.000000 3.535370 0.000000 
#    z 0.000000 0.000000 3.719840 
# 
# 
# High freq. dielectric constant tensor:
#      x y z
#    x 1.754770 0.000000 0.000000 
#    y 0.000000 1.754770 0.000000 
#    z 0.000000 0.000000 1.783500 
# 
# From -- ./inp_files/5860.got.cif
#   From: 2010.03.12/outbox.cif.g09.slc.cpg/sg88_3_cif.got.tgz:5860.got - 2010.04.08 20:20:55.
