data_PCOD8304795
_publ_section_title
;
Structure prediction by ZEFSAII (Michael W. Deem and Ramdas Pophale) SiO2 
 PCOD8304795
Probable space group: P 41 2 2
;
_chemical_formula_sum "Si O2"
_cell_formula_units_Z 48
_cell_length_a 13.813662
_cell_length_b 13.813662
_cell_length_c 12.753995
_cell_angle_alpha 90.000000
_cell_angle_beta 90.000000
_cell_angle_gamma 90.000000
_cell_volume 2433.682353
_symmetry_space_group_name_H-M "P 41 2 2"
_symmetry_group_IT_number 91
_symmetry_cell_setting 'tetragonal'
loop_
_space_group_symop_operation_xyz
x,y,z
-y,x,1/4+z
-x,-y,1/2+z
y,-x,3/4+z
x,-y,1/2-z
-x,y,-z
y,x,3/4-z
-y,-x,1/4-z
loop_
_atom_site_type_symbol
_atom_site_label
_atom_site_fract_x
_atom_site_fract_y
_atom_site_fract_z
Si Si1 0.612935 0.610108 0.493583
Si Si2 0.073669 0.549376 0.585767
Si Si3 0.706469 0.238615 0.861717
Si Si4 0.692246 0.828503 0.942320
Si Si5 0.236805 0.461744 0.454234
Si Si6 0.650685 0.952850 0.550140
O O1 0.500000 0.593965 0.500000
O O2 0.635530 0.635530 0.375000
O O3 0.650153 0.705729 0.548742
O O4 0.659537 0.514657 0.547973
O O5 0.172678 0.538143 0.520214
O O6 0.078437 0.625843 0.680689
O O7 0.041174 0.445772 0.630055
O O8 0.000000 0.589645 0.500000
O O9 0.802568 0.291725 0.816729
O O10 0.639698 0.242129 0.760752
O O11 0.722762 0.128797 0.902177
O O12 0.778529 0.778529 0.875000
O O13 0.580070 0.799889 0.908998
O O14 0.703840 0.944517 0.938524
#
# Coordination Sequence:
#
# PCOD8304795 Si02
#       6
#     8   8   8   8   8   8
#     4  12  24  39  57  78 120 175 209 240 296 359
#     4  10  19  33  62  86 118 158 203 267 310 359
#     4  10  23  39  57  86 121 156 207 252 304 380
#     4  10  22  39  62  92 122 157 201 266 314 367
#     4  10  21  39  56  84 121 157 206 250 300 357
#     4  10  21  37  60  89 120 156 206 256 328 373
#
# _framework density 19.723198
#
# number of rings (size 3 to 8) (size 9 to 14) (size 15 to 20)
#    0.000    1.667    3.333    1.000    4.667    2.667 
#    0.000    0.000    0.000    0.000    0.000   10.500 
#    0.000    0.000    0.000    0.000    0.000    0.000 
#
# Total GULP energy -594635.578953 kJ/mol
# GULP energy per Si atom -12388.241228 kJ/mol
# Density = 1.967831 g / cm^3
# Si number density = 19.723198 Si / 1000 Ang^3
#
#
#
# Elastic Constant Matrix: (Units=GPa)
#
#
# Indices 1 2 3 4 5 6 
#
# 1 86.9988 78.6162 43.2741 0.0000 0.0000 0.0000
# 2 78.6162 86.9988 43.2741 0.0000 0.0000 0.0000
# 3 43.2741 43.2741 99.8544 0.0000 0.0000 0.0000
# 4 0.0000 0.0000 0.0000 23.1122 0.0000 0.0000
# 5 0.0000 0.0000 0.0000 0.0000 23.1122 0.0000
# 6 0.0000 0.0000 0.0000 0.0000 0.0000 20.2909
#
#
#
# Elastic Compliance Matrix: (Units=1/GPa)
#
#
# Indices 1 2 3 4 5 6 
#
# 1 0.063550 -0.055744 -0.003383 0.000000 0.000000 0.000000
# 2 -0.055744 0.063550 -0.003383 0.000000 0.000000 0.000000
# 3 -0.003383 -0.003383 0.012947 0.000000 0.000000 0.000000
# 4 0.000000 0.000000 0.000000 0.043267 0.000000 0.000000
# 5 0.000000 0.000000 0.000000 0.000000 0.043267 0.000000
# 6 0.000000 0.000000 0.000000 0.000000 0.000000 0.049283
#
#
# Mechanical properties :
#
#
# Convention : Reuss Voigt Hill
#
# Bulk Modulus (GPa) = 66.54667 67.13122 66.83894
# Shear Modulus (GPa) = 12.31851 20.54890 16.43371
#
# Velocity S-wave (km/s) = 2.50185 3.23129 2.88968
# Velocity P-wave (km/s) = 6.49301 6.93053 6.71534
#
# Compressibility (1/GPa) = 0.01502705
#
# Stress axis : x y z
#
# Youngs Moduli (GPa) = 15.73561 15.73561 77.23987
#
# Poissons Ratio (x) = 0.87717 0.26129
# Poissons Ratio (y) = 0.87717 0.26129
# Poissons Ratio (z) = 0.05323 0.05323
#
# Static dielectric constant tensor:
#      x y z
#    x 3.436590 0.000000 0.000000 
#    y 0.000000 3.436590 0.000000 
#    z 0.000000 0.000000 3.912620 
# 
# 
# High freq. dielectric constant tensor:
#      x y z
#    x 1.745010 0.000000 0.000000 
#    y 0.000000 1.745010 0.000000 
#    z 0.000000 0.000000 1.786640 
# 
# From -- ./inp_files/15892.got.cif
#   From: 2010.03.12/outbox.cif.g09.slc.cpg/sg91_8_cif.got.tgz:15892.got - 2010.04.08 20:27:58.
