data_PCOD8304037
_publ_section_title
;
Structure prediction by ZEFSAII (Michael W. Deem and Ramdas Pophale) SiO2 
 PCOD8304037
Probable space group: I 4/M
;
_chemical_formula_sum "Si O2"
_cell_formula_units_Z 96
_cell_length_a 23.722221
_cell_length_b 23.722221
_cell_length_c 8.573439
_cell_angle_alpha 90.000000
_cell_angle_beta 90.000000
_cell_angle_gamma 90.000000
_cell_volume 4824.649378
_symmetry_space_group_name_H-M "I 4/M"
_symmetry_group_IT_number 87
_symmetry_cell_setting 'tetragonal'
loop_
_space_group_symop_operation_xyz
x,y,z
-y,x,z
-x,-y,z
y,-x,z
-x,-y,-z
y,-x,-z
x,y,-z
-y,x,-z
1/2+x,1/2+y,1/2+z
1/2-y,1/2+x,1/2+z
1/2-x,1/2-y,1/2+z
1/2+y,1/2-x,1/2+z
1/2-x,1/2-y,1/2-z
1/2+y,1/2-x,1/2-z
1/2+x,1/2+y,1/2-z
1/2-y,1/2+x,1/2-z
loop_
_atom_site_type_symbol
_atom_site_label
_atom_site_fract_x
_atom_site_fract_y
_atom_site_fract_z
Si Si1 0.014541 0.087523 0.685228
Si Si2 0.210041 0.952218 0.316470
Si Si3 0.475012 0.919607 0.681096
Si Si4 0.046820 0.699774 0.319835
Si Si5 0.266644 0.161256 0.180464
Si Si6 0.242035 0.834055 0.818867
O O1 0.014101 0.088033 0.500000
O O2 0.024708 0.150378 0.748106
O O3 0.954130 0.064249 0.745437
O O4 0.207549 0.938977 0.500000
O O5 0.223721 0.896478 0.221907
O O6 0.257220 0.997658 0.275082
O O7 0.466472 0.931613 0.500000
O O8 0.539513 0.932322 0.727036
O O9 0.459648 0.855578 0.716137
O O10 0.043778 0.682554 0.500000
O O11 0.105701 0.729953 0.284777
O O12 0.207889 0.191074 0.224547
O O13 0.318412 0.202742 0.219746
O O14 0.270040 0.144429 0.000000
O O15 0.257541 0.828793 0.000000
#
# Coordination Sequence:
#
# PCOD8304037 Si02
#       6
#    16  16  16  16  16  16
#     4   8  15  30  54  84 116 151 193 241 290 339
#     4  10  22  36  58  89 120 155 198 245 293 350
#     4  11  23  42  66  90 120 158 199 247 299 358
#     4  11  24  39  59  91 124 158 199 247 300 357
#     4  10  22  41  63  87 116 156 201 248 299 357
#     4  10  22  40  62  87 118 157 197 245 304 359
#
# _framework density 19.897819999999999
#
# number of rings (size 3 to 8) (size 9 to 14) (size 15 to 20)
#    0.000    2.000    0.000    4.000    4.667    3.333 
#    0.000    0.000    0.000    0.000    0.000    1.167 
#    0.000    0.000    0.000    0.000    0.000    0.000 
#
# Total GULP energy -595390.397889 kJ/mol
# GULP energy per Si atom -12403.966623 kJ/mol
# Density = 1.985253 g / cm^3
# Si number density = 19.897820 Si / 1000 Ang^3
#
#
#
# Elastic Constant Matrix: (Units=GPa)
#
#
# Indices 1 2 3 4 5 6 
#
# 1 109.9546 40.0362 23.6234 0.0000 0.0000 0.1672
# 2 40.0362 109.9546 23.6234 0.0000 0.0000 -0.1672
# 3 23.6234 23.6234 44.2654 0.0000 0.0000 0.0000
# 4 0.0000 0.0000 0.0000 25.9359 0.0000 0.0000
# 5 0.0000 0.0000 0.0000 0.0000 25.9359 0.0000
# 6 0.1672 -0.1672 0.0000 0.0000 0.0000 23.6298
#
#
#
# Elastic Compliance Matrix: (Units=1/GPa)
#
#
# Indices 1 2 3 4 5 6 
#
# 1 0.011159 -0.003144 -0.004277 0.000000 0.000000 -0.000101
# 2 -0.003144 0.011159 -0.004277 0.000000 0.000000 0.000101
# 3 -0.004277 -0.004277 0.027156 0.000000 0.000000 0.000000
# 4 0.000000 0.000000 0.000000 0.038557 0.000000 0.000000
# 5 0.000000 0.000000 0.000000 0.000000 0.038557 0.000000
# 6 -0.000101 0.000101 0.000000 0.000000 0.000000 0.042321
#
#
# Mechanical properties :
#
#
# Convention : Reuss Voigt Hill
#
# Bulk Modulus (GPa) = 38.34864 48.74896 43.54880
# Shear Modulus (GPa) = 24.87605 26.89307 25.88456
#
# Velocity S-wave (km/s) = 3.53964 3.68034 3.61068
# Velocity P-wave (km/s) = 6.00167 6.52784 6.27028
#
# Compressibility (1/GPa) = 0.02607654
#
# Stress axis : x y z
#
# Youngs Moduli (GPa) = 89.61688 89.61688 36.82410
#
# Poissons Ratio (x) = 0.28178 0.15750
# Poissons Ratio (y) = 0.28178 0.15750
# Poissons Ratio (z) = 0.38330 0.38330
#
# Static dielectric constant tensor:
#      x y z
#    x 3.692180 0.000000 0.000000 
#    y 0.000000 3.692180 0.000000 
#    z 0.000000 0.000000 3.423410 
# 
# 
# High freq. dielectric constant tensor:
#      x y z
#    x 1.782780 0.000000 0.000000 
#    y 0.000000 1.782780 0.000000 
#    z 0.000000 0.000000 1.763960 
# 
# From -- ./inp_files/1377.got.cif
#   From: 2010.03.12/outbox.cif.g09.slc.cpg/sg87_1_cif.got.tgz:1377.got - 2010.04.08 20:16:13.
