data_PCOD8304686
_publ_section_title
;
Structure prediction by ZEFSAII (Michael W. Deem and Ramdas Pophale) SiO2 
 PCOD8304686
Probable space group: P 4 21 2
;
_chemical_formula_sum "Si O2"
_cell_formula_units_Z 44
_cell_length_a 8.314936
_cell_length_b 8.314936
_cell_length_c 29.369814
_cell_angle_alpha 90.000000
_cell_angle_beta 90.000000
_cell_angle_gamma 90.000000
_cell_volume 2030.574920
_symmetry_space_group_name_H-M "P 4 21 2"
_symmetry_group_IT_number 90
_symmetry_cell_setting 'tetragonal'
loop_
_space_group_symop_operation_xyz
x,y,z
1/2-y,1/2+x,z
-x,-y,z
1/2+y,1/2-x,z
1/2+x,1/2-y,-z
1/2-x,1/2+y,-z
y,x,-z
-y,-x,-z
loop_
_atom_site_type_symbol
_atom_site_label
_atom_site_fract_x
_atom_site_fract_y
_atom_site_fract_z
Si Si1 0.568905 0.745350 0.138495
Si Si2 0.246373 0.928896 0.686608
Si Si3 0.745048 0.569544 0.211818
Si Si4 0.242270 0.078893 0.458619
Si Si5 0.931384 0.245275 0.963516
Si Si6 0.000000 0.000000 0.615550
O O1 0.389761 0.806512 0.146181
O O2 0.607000 0.606258 0.174941
O O3 0.589462 0.675162 0.087490
O O4 0.389556 0.805046 0.679877
O O5 0.172972 0.908540 0.737328
O O6 0.115564 0.894322 0.647923
O O7 0.806408 0.390205 0.204527
O O8 0.393825 0.199068 0.459860
O O9 0.124105 0.124105 0.500000
O O10 0.129905 0.099475 0.414216
O O11 0.806679 0.389575 0.971214
O O12 0.893921 0.106080 0.000000
#
# Coordination Sequence:
#
# PCOD8304686 Si02
#       6
#     8   8   8   8   8   4
#     4   9  19  35  53  74 102 136 174 218 270 326
#     4   9  20  37  55  79 113 150 187 231 284 341
#     4   9  19  35  53  76 106 139 180 225 268 323
#     4  11  24  42  64  92 126 162 204 252 300 354
#     4   9  19  35  52  73 103 135 169 214 267 324
#     4  12  21  36  62  90 118 154 197 242 292 344
#
# _framework density 21.66874
#
# number of rings (size 3 to 8) (size 9 to 14) (size 15 to 20)
#    0.000    2.364    0.000    4.636    0.000    5.455 
#    0.000    7.273    0.000    2.182    0.000    0.000 
#    0.000    0.000    0.000    0.000    0.000    0.000 
#
# Total GULP energy -545506.664171 kJ/mol
# GULP energy per Si atom -12397.878731 kJ/mol
# Density = 2.161942 g / cm^3
# Si number density = 21.668740 Si / 1000 Ang^3
#
#
#
# Elastic Constant Matrix: (Units=GPa)
#
#
# Indices 1 2 3 4 5 6 
#
# 1 58.8908 26.4057 49.5109 0.0000 0.0000 0.0000
# 2 26.4057 58.8913 49.5113 0.0000 0.0000 0.0000
# 3 49.5109 49.5113 169.0835 0.0000 0.0000 0.0000
# 4 0.0000 0.0000 0.0000 -239.1929 0.0000 0.0000
# 5 0.0000 0.0000 0.0000 0.0000 -239.1598 0.0000
# 6 0.0000 0.0000 0.0000 0.0000 0.0000 35.3002
#
#
#
# Elastic Compliance Matrix: (Units=1/GPa)
#
#
# Indices 1 2 3 4 5 6 
#
# 1 0.024272 -0.006511 -0.005201 0.000000 0.000000 0.000000
# 2 -0.006511 0.024272 -0.005201 0.000000 0.000000 0.000000
# 3 -0.005201 -0.005201 0.008960 0.000000 0.000000 0.000000
# 4 0.000000 0.000000 0.000000 -0.004181 0.000000 0.000000
# 5 0.000000 0.000000 0.000000 0.000000 -0.004181 0.000000
# 6 0.000000 0.000000 0.000000 0.000000 0.000000 0.028328
#
#
# Mechanical properties :
#
#
# Convention : Reuss Voigt Hill
#
# Bulk Modulus (GPa) = 42.23051 59.74683 50.98867
# Shear Modulus (GPa) = 41.94988 -77.84798 -17.94905
#
# Velocity S-wave (km/s) = 4.40473 -6.00037 -2.88121
# Velocity P-wave (km/s) = 6.73798 4.51367 3.53745
#
# Compressibility (1/GPa) = 0.02367956
#
# Stress axis : x y z
#
# Youngs Moduli (GPa) = 41.19895 41.19924 111.60536
#
# Poissons Ratio (x) = 0.26824 0.58046
# Poissons Ratio (y) = 0.26823 0.58046
# Poissons Ratio (z) = 0.21427 0.21428
#
# Static dielectric constant tensor:
#      x y z
#    x 3.726790 0.000000 0.000000 
#    y 0.000000 3.726790 0.000000 
#    z 0.000000 0.000000 4.006450 
# 
# 
# High freq. dielectric constant tensor:
#      x y z
#    x 1.844730 0.000000 0.000000 
#    y 0.000000 1.844730 0.000000 
#    z 0.000000 0.000000 1.860190 
# 
# From -- ./inp_files/3011.got.cif
#   From: 2010.03.12/outbox.cif.g09.slc.cpg/sg90_2_cif.got.tgz:3011.got - 2010.04.08 20:26:03.
