data_PCOD8304652
_publ_section_title
;
Structure prediction by ZEFSAII (Michael W. Deem and Ramdas Pophale) SiO2 
 PCOD8304652
Probable space group: P 4 21 2
;
_chemical_formula_sum "Si O2"
_cell_formula_units_Z 44
_cell_length_a 8.399598
_cell_length_b 8.399598
_cell_length_c 29.224755
_cell_angle_alpha 90.000000
_cell_angle_beta 90.000000
_cell_angle_gamma 90.000000
_cell_volume 2061.901345
_symmetry_space_group_name_H-M "P 4 21 2"
_symmetry_group_IT_number 90
_symmetry_cell_setting 'tetragonal'
loop_
_space_group_symop_operation_xyz
x,y,z
1/2-y,1/2+x,z
-x,-y,z
1/2+y,1/2-x,z
1/2+x,1/2-y,-z
1/2-x,1/2+y,-z
y,x,-z
-y,-x,-z
loop_
_atom_site_type_symbol
_atom_site_label
_atom_site_fract_x
_atom_site_fract_y
_atom_site_fract_z
Si Si1 0.000000 0.000000 0.290996
Si Si2 0.245516 0.927112 0.781978
Si Si3 0.922538 0.252144 0.963358
Si Si4 0.748247 0.429468 0.536254
Si Si5 0.412004 0.247153 0.140076
Si Si6 0.569983 0.251140 0.361194
O O1 0.900697 0.125514 0.260387
O O2 0.884595 0.895842 0.323391
O O3 0.391586 0.804710 0.780363
O O4 0.144403 0.891962 0.827827
O O5 0.804371 0.398286 0.971693
O O6 0.895637 0.189543 0.911794
O O7 0.884944 0.115057 0.000000
O O8 0.807553 0.607412 0.528402
O O9 0.609727 0.390274 0.500000
O O10 0.679165 0.409430 0.587585
O O11 0.594240 0.199328 0.149605
O O12 0.692876 0.109644 0.353839
#
# Coordination Sequence:
#
# PCOD8304652 Si02
#       6
#     4   8   8   8   8   8
#     4  12  22  38  61  82 107 148 190 228 282 344
#     4  11  24  39  56  83 115 143 180 237 294 339
#     4   9  19  35  55  82 115 148 184 225 269 323
#     4   9  19  35  55  82 114 145 182 225 267 318
#     4   9  19  38  61  82 108 148 194 233 276 340
#     4   9  20  38  58  83 114 147 187 231 272 326
#
# _framework density 21.339525999999999
#
# number of rings (size 3 to 8) (size 9 to 14) (size 15 to 20)
#    0.000    2.364    0.000    4.364    0.000    5.091 
#    0.000    7.273    0.000    2.182    0.000    0.000 
#    0.000    0.000    0.000    0.000    0.000    0.000 
#
# Total GULP energy -545578.338003 kJ/mol
# GULP energy per Si atom -12399.507682 kJ/mol
# Density = 2.129096 g / cm^3
# Si number density = 21.339526 Si / 1000 Ang^3
#
#
#
# Elastic Constant Matrix: (Units=GPa)
#
#
# Indices 1 2 3 4 5 6 
#
# 1 61.7342 26.4745 55.0800 0.0000 0.0000 0.0000
# 2 26.4745 61.7339 55.0801 0.0000 0.0000 0.0000
# 3 55.0800 55.0801 164.2634 0.0000 0.0000 0.0000
# 4 0.0000 0.0000 0.0000 41.8448 0.0000 0.0000
# 5 0.0000 0.0000 0.0000 0.0000 41.8448 0.0000
# 6 0.0000 0.0000 0.0000 0.0000 0.0000 39.0291
#
#
#
# Elastic Compliance Matrix: (Units=1/GPa)
#
#
# Indices 1 2 3 4 5 6 
#
# 1 0.023933 -0.004428 -0.006540 0.000000 0.000000 0.000000
# 2 -0.004428 0.023933 -0.006540 0.000000 0.000000 0.000000
# 3 -0.006540 -0.006540 0.010474 0.000000 0.000000 0.000000
# 4 0.000000 0.000000 0.000000 0.023898 0.000000 0.000000
# 5 0.000000 0.000000 0.000000 0.000000 0.023898 0.000000
# 6 0.000000 0.000000 0.000000 0.000000 0.000000 0.025622
#
#
# Mechanical properties :
#
#
# Convention : Reuss Voigt Hill
#
# Bulk Modulus (GPa) = 42.87761 62.33342 52.60552
# Shear Modulus (GPa) = 28.64537 34.61686 31.63112
#
# Velocity S-wave (km/s) = 3.66780 4.03202 3.85421
# Velocity P-wave (km/s) = 6.17039 7.13792 6.67172
#
# Compressibility (1/GPa) = 0.02332219
#
# Stress axis : x y z
#
# Youngs Moduli (GPa) = 41.78388 41.78347 95.47617
#
# Poissons Ratio (x) = 0.18503 0.62443
# Poissons Ratio (y) = 0.18503 0.62443
# Poissons Ratio (z) = 0.27327 0.27327
#
# Static dielectric constant tensor:
#      x y z
#    x 3.654490 0.000000 0.000000 
#    y 0.000000 3.654490 0.000000 
#    z 0.000000 0.000000 3.902090 
# 
# 
# High freq. dielectric constant tensor:
#      x y z
#    x 1.829480 0.000000 0.000000 
#    y 0.000000 1.829480 0.000000 
#    z 0.000000 0.000000 1.844900 
# 
# From -- ./inp_files/3022.got.cif
#   From: 2010.03.12/outbox.cif.g09.slc.cpg/sg90_2_cif.got.tgz:3022.got - 2010.04.08 20:26:03.
