data_PCOD8304082
_publ_section_title
;
Structure prediction by ZEFSAII (Michael W. Deem and Ramdas Pophale) SiO2 
 PCOD8304082
Probable space group: I 4/M
;
_chemical_formula_sum "Si O2"
_cell_formula_units_Z 96
_cell_length_a 13.702666
_cell_length_b 13.702666
_cell_length_c 21.124291
_cell_angle_alpha 90.000000
_cell_angle_beta 90.000000
_cell_angle_gamma 90.000000
_cell_volume 3966.361424
_symmetry_space_group_name_H-M "I 4/M"
_symmetry_group_IT_number 87
_symmetry_cell_setting 'tetragonal'
loop_
_space_group_symop_operation_xyz
x,y,z
-y,x,z
-x,-y,z
y,-x,z
-x,-y,-z
y,-x,-z
x,y,-z
-y,x,-z
1/2+x,1/2+y,1/2+z
1/2-y,1/2+x,1/2+z
1/2-x,1/2-y,1/2+z
1/2+y,1/2-x,1/2+z
1/2-x,1/2-y,1/2-z
1/2+y,1/2-x,1/2-z
1/2+x,1/2+y,1/2-z
1/2-y,1/2+x,1/2-z
loop_
_atom_site_type_symbol
_atom_site_label
_atom_site_fract_x
_atom_site_fract_y
_atom_site_fract_z
Si Si1 0.607427 0.615819 0.073590
Si Si2 0.082778 0.639863 0.000000
Si Si3 0.848911 0.971132 0.195167
Si Si4 0.176031 0.706538 0.379681
Si Si5 0.882133 0.178192 0.070761
Si Si6 0.637003 0.930875 0.500000
Si Si7 0.357627 0.057942 0.741015
O O1 0.495867 0.635162 0.089895
O O2 0.674827 0.681757 0.120715
O O3 0.628720 0.638607 0.000000
O O4 0.105206 0.705151 0.061852
O O5 0.152792 0.547062 0.000000
O O6 0.973155 0.603714 0.000000
O O7 0.854647 0.969582 0.117465
O O8 0.740522 0.944313 0.217456
O O9 0.924016 0.886688 0.219633
O O10 0.281086 0.657560 0.391796
O O11 0.105968 0.689997 0.438442
O O12 0.127286 0.659001 0.318826
O O13 0.883647 0.127244 0.000000
O O14 0.447952 0.109302 0.778699
#
# Coordination Sequence:
#
# PCOD8304082 Si02
#       7
#    16   8  16  16  16   8  16
#     4   9  19  34  56  95 143 184 227 291 371 441
#     4   9  25  38  64  99 150 182 223 295 365 436
#     4  11  27  50  74 104 147 193 253 308 360 436
#     4  12  24  40  73 102 142 182 246 295 362 441
#     4  10  24  41  70 103 139 180 234 298 363 433
#     4  11  23  40  66 109 138 190 227 299 369 425
#     4  11  29  49  76 106 147 197 245 303 368 444
#
# _framework density 24.203541999999999
#
# number of rings (size 3 to 8) (size 9 to 14) (size 15 to 20)
#    0.500    1.000    1.667    1.500    9.333    6.000 
#    0.000    2.500    0.000    0.000    0.000    0.000 
#    0.000    0.000    0.000    0.000    0.000    0.000 
#
# Total GULP energy -594830.462776 kJ/mol
# GULP energy per Si atom -12392.301308 kJ/mol
# Density = 2.414845 g / cm^3
# Si number density = 24.203542 Si / 1000 Ang^3
#
#
#
# Elastic Constant Matrix: (Units=GPa)
#
#
# Indices 1 2 3 4 5 6 
#
# 1 104.6502 28.4161 25.7450 0.0000 0.0000 4.2426
# 2 28.4161 104.6502 25.7450 0.0000 0.0000 -4.2426
# 3 25.7450 25.7450 80.7325 0.0000 0.0000 0.0000
# 4 0.0000 0.0000 0.0000 34.2065 0.0000 0.0000
# 5 0.0000 0.0000 0.0000 0.0000 34.2065 0.0000
# 6 4.2426 -4.2426 0.0000 0.0000 0.0000 34.2969
#
#
#
# Elastic Compliance Matrix: (Units=1/GPa)
#
#
# Indices 1 2 3 4 5 6 
#
# 1 0.010937 -0.002364 -0.002734 0.000000 0.000000 -0.001645
# 2 -0.002364 0.010937 -0.002734 0.000000 0.000000 0.001645
# 3 -0.002734 -0.002734 0.014130 0.000000 0.000000 0.000000
# 4 0.000000 0.000000 0.000000 0.029234 0.000000 0.000000
# 5 0.000000 0.000000 0.000000 0.000000 0.029234 0.000000
# 6 -0.001645 0.001645 0.000000 0.000000 0.000000 0.029564
#
#
# Mechanical properties :
#
#
# Convention : Reuss Voigt Hill
#
# Bulk Modulus (GPa) = 49.16262 49.98279 49.57271
# Shear Modulus (GPa) = 34.13444 34.55044 34.34244
#
# Velocity S-wave (km/s) = 3.75948 3.78232 3.77092
# Velocity P-wave (km/s) = 6.26108 6.30638 6.28377
#
# Compressibility (1/GPa) = 0.02034066
#
# Stress axis : x y z
#
# Youngs Moduli (GPa) = 91.43477 91.43477 70.77048
#
# Poissons Ratio (x) = 0.21614 0.19347
# Poissons Ratio (y) = 0.21614 0.19347
# Poissons Ratio (z) = 0.24997 0.24997
#
# Static dielectric constant tensor:
#      x y z
#    x 4.544040 0.000000 0.000000 
#    y 0.000000 4.544040 0.000000 
#    z 0.000000 0.000000 3.384410 
# 
# 
# High freq. dielectric constant tensor:
#      x y z
#    x 1.975280 0.000000 0.000000 
#    y 0.000000 1.975280 0.000000 
#    z 0.000000 0.000000 1.924820 
# 
# From -- ./inp_files/5845.got.cif
#   From: 2010.03.12/outbox.cif.g09.slc.cpg/sg87_3_cif.got.tgz:5845.got - 2010.04.08 20:16:13.
