data_PCOD8304404
_publ_section_title
;
Structure prediction by ZEFSAII (Michael W. Deem and Ramdas Pophale) SiO2 
 PCOD8304404
Probable space group: I 41/A
;
_chemical_formula_sum "Si O2"
_cell_formula_units_Z 72
_cell_length_a 14.992834
_cell_length_b 14.992834
_cell_length_c 14.882645
_cell_angle_alpha 90.000000
_cell_angle_beta 90.000000
_cell_angle_gamma 90.000000
_cell_volume 3345.396418
_symmetry_space_group_name_H-M "I 41/A"
_symmetry_group_IT_number 88
_space_group.IT_coordinate_system_code '2'
_symmetry_cell_setting 'tetragonal'
loop_
_space_group_symop_operation_xyz
x,y,z
3/4-y,1/4+x,1/4+z
-x,1/2-y,z
1/4+y,1/4-x,1/4+z
-x,-y,-z
1/4+y,3/4-x,3/4-z
x,1/2+y,-z
3/4-y,3/4+x,3/4-z
1/2+x,1/2+y,1/2+z
1/4-y,3/4+x,3/4+z
1/2-x,-y,1/2+z
3/4+y,3/4-x,3/4+z
1/2-x,1/2-y,1/2-z
3/4+y,1/4-x,1/4-z
1/2+x,y,1/2-z
1/4-y,1/4+x,1/4-z
loop_
_atom_site_type_symbol
_atom_site_label
_atom_site_fract_x
_atom_site_fract_y
_atom_site_fract_z
Si Si1 0.351708 0.493595 0.775323
Si Si2 0.057727 0.424153 0.955440
Si Si3 0.500000 0.750000 0.375081
Si Si4 0.200832 0.419477 0.100794
Si Si5 0.054901 0.929621 0.557553
O O1 0.355154 0.563408 0.692427
O O2 0.258305 0.497400 0.825710
O O3 0.427112 0.521786 0.846861
O O4 0.360147 0.392679 0.740558
O O5 0.097143 0.470970 0.865911
O O6 0.994661 0.340646 0.933448
O O7 0.135233 0.388532 0.021677
O O8 0.000000 0.500000 0.000000
O O9 0.408209 0.743444 0.319359
O O10 0.000000 0.000000 0.500000
#
# Coordination Sequence:
#
# PCOD8304404 Si02
#       5
#    16  16   8  16  16
#     4   9  19  40  63  86 119 163 211 256 317 383
#     4  11  23  39  61  93 129 166 211 268 325 383
#     4  12  26  40  62 100 130 164 226 268 307 390
#     4   9  19  38  63  85 116 164 205 255 324 382
#     4  11  24  41  63  92 128 168 213 267 318 377
#
# _framework density 21.522114999999999
#
# number of rings (size 3 to 8) (size 9 to 14) (size 15 to 20)
#    0.000    1.778    0.000    5.333    0.000    7.111 
#    0.000    1.111    0.000    0.000    0.000    0.000 
#    0.000    0.000    0.000    0.000    0.000    0.000 
#
# Total GULP energy -446348.191783 kJ/mol
# GULP energy per Si atom -12398.560883 kJ/mol
# Density = 2.147313 g / cm^3
# Si number density = 21.522115 Si / 1000 Ang^3
#
#
#
# Elastic Constant Matrix: (Units=GPa)
#
#
# Indices 1 2 3 4 5 6 
#
# 1 105.4715 42.0029 30.9332 0.0000 0.0000 -3.8160
# 2 42.0029 105.4714 30.9332 0.0000 0.0000 3.8160
# 3 30.9332 30.9332 85.9985 0.0000 0.0000 0.0000
# 4 0.0000 0.0000 0.0000 33.9255 0.0000 0.0000
# 5 0.0000 0.0000 0.0000 0.0000 33.9255 0.0000
# 6 -3.8160 3.8160 0.0000 0.0000 0.0000 38.7556
#
#
#
# Elastic Compliance Matrix: (Units=1/GPa)
#
#
# Indices 1 2 3 4 5 6 
#
# 1 0.011965 -0.003979 -0.002872 0.000000 0.000000 0.001570
# 2 -0.003979 0.011965 -0.002872 0.000000 0.000000 -0.001570
# 3 -0.002872 -0.002872 0.013695 0.000000 0.000000 0.000000
# 4 0.000000 0.000000 0.000000 0.029476 0.000000 0.000000
# 5 0.000000 0.000000 0.000000 0.000000 0.029476 0.000000
# 6 0.001570 -0.001570 0.000000 0.000000 0.000000 0.026112
#
#
# Mechanical properties :
#
#
# Convention : Reuss Voigt Hill
#
# Bulk Modulus (GPa) = 55.01649 56.07557 55.54603
# Shear Modulus (GPa) = 33.73884 34.19276 33.96580
#
# Velocity S-wave (km/s) = 3.96363 3.99021 3.97694
# Velocity P-wave (km/s) = 6.82389 6.88044 6.85222
#
# Compressibility (1/GPa) = 0.01817637
#
# Stress axis : x y z
#
# Youngs Moduli (GPa) = 83.57540 83.57540 73.02178
#
# Poissons Ratio (x) = 0.33258 0.20975
# Poissons Ratio (y) = 0.33258 0.20975
# Poissons Ratio (z) = 0.24007 0.24007
#
# Static dielectric constant tensor:
#      x y z
#    x 4.226390 0.000000 0.000000 
#    y 0.000000 4.226390 0.000000 
#    z 0.000000 0.000000 4.210340 
# 
# 
# High freq. dielectric constant tensor:
#      x y z
#    x 1.845010 0.000000 0.000000 
#    y 0.000000 1.845010 0.000000 
#    z 0.000000 0.000000 1.843060 
# 
# From -- ./inp_files/3793.got.cif
#   From: 2010.03.12/outbox.cif.g09.slc.cpg/sg88_2_cif.got.tgz:3793.got - 2010.04.08 20:20:55.
