data_PCOD8304308
_publ_section_title
;
Structure prediction by ZEFSAII (Michael W. Deem and Ramdas Pophale) SiO2 
 PCOD8304308
Probable space group: I 41/A
;
_chemical_formula_sum "Si O2"
_cell_formula_units_Z 88
_cell_length_a 14.780931
_cell_length_b 14.780931
_cell_length_c 15.660127
_cell_angle_alpha 90.000000
_cell_angle_beta 90.000000
_cell_angle_gamma 90.000000
_cell_volume 3421.360673
_symmetry_space_group_name_H-M "I 41/A"
_symmetry_group_IT_number 88
_space_group.IT_coordinate_system_code '2'
_symmetry_cell_setting 'tetragonal'
loop_
_space_group_symop_operation_xyz
x,y,z
3/4-y,1/4+x,1/4+z
-x,1/2-y,z
1/4+y,1/4-x,1/4+z
-x,-y,-z
1/4+y,3/4-x,3/4-z
x,1/2+y,-z
3/4-y,3/4+x,3/4-z
1/2+x,1/2+y,1/2+z
1/4-y,3/4+x,3/4+z
1/2-x,-y,1/2+z
3/4+y,3/4-x,3/4+z
1/2-x,1/2-y,1/2-z
3/4+y,1/4-x,1/4-z
1/2+x,y,1/2-z
1/4-y,1/4+x,1/4-z
loop_
_atom_site_type_symbol
_atom_site_label
_atom_site_fract_x
_atom_site_fract_y
_atom_site_fract_z
Si Si1 0.118138 0.608993 0.099830
Si Si2 0.334316 0.853334 0.708731
Si Si3 0.500000 0.250000 0.501242
Si Si4 0.834518 0.866273 0.441003
Si Si5 0.690100 0.334852 0.961200
Si Si6 0.834897 0.052013 0.864162
O O1 0.068917 0.513623 0.074909
O O2 0.070106 0.698186 0.063377
O O3 0.217962 0.609330 0.056808
O O4 0.903603 0.580314 0.061801
O O5 0.423252 0.793415 0.688139
O O6 0.353576 0.950632 0.667476
O O7 0.787199 0.771203 0.463182
O O8 0.909928 0.867450 0.367303
O O9 0.763759 0.938695 0.403436
O O10 0.869518 0.903973 0.532610
O O11 0.640415 0.370442 0.046798
#
# Coordination Sequence:
#
# PCOD8304308 Si02
#       6
#    16  16   8  16  16  16
#     4  12  26  51  75 113 156 213 261 336 402 491
#     4  11  23  46  77 108 151 202 258 324 399 482
#     4  12  28  44  73 115 158 198 268 338 406 473
#     4  11  24  42  70 107 143 197 252 324 383 476
#     4  12  27  46  76 108 154 201 269 321 409 477
#     4  10  21  44  73 100 140 199 253 305 392 474
#
# _framework density 25.720761
#
# number of rings (size 3 to 8) (size 9 to 14) (size 15 to 20)
#    0.000    0.727    1.818    6.000    0.000    6.182 
#    0.000    9.091    0.000    0.000    0.000    0.000 
#    0.000    0.000    0.000    0.000    0.000    0.000 
#
# Total GULP energy -545159.006827 kJ/mol
# GULP energy per Si atom -12389.977428 kJ/mol
# Density = 2.566222 g / cm^3
# Si number density = 25.720761 Si / 1000 Ang^3
#
#
#
# Elastic Constant Matrix: (Units=GPa)
#
#
# Indices 1 2 3 4 5 6 
#
# 1 101.6170 27.2577 9.1909 0.0000 0.0000 -1.3367
# 2 27.2577 101.6170 9.1909 0.0000 0.0000 1.3367
# 3 9.1909 9.1909 108.2170 0.0000 0.0000 0.0000
# 4 0.0000 0.0000 0.0000 33.5538 0.0000 0.0000
# 5 0.0000 0.0000 0.0000 0.0000 33.5538 0.0000
# 6 -1.3367 1.3367 0.0000 0.0000 0.0000 45.1114
#
#
#
# Elastic Compliance Matrix: (Units=1/GPa)
#
#
# Indices 1 2 3 4 5 6 
#
# 1 0.010659 -0.002804 -0.000667 0.000000 0.000000 0.000399
# 2 -0.002804 0.010659 -0.000667 0.000000 0.000000 -0.000399
# 3 -0.000667 -0.000667 0.009354 0.000000 0.000000 0.000000
# 4 0.000000 0.000000 0.000000 0.029803 0.000000 0.000000
# 5 0.000000 0.000000 0.000000 0.000000 0.029803 0.000000
# 6 0.000399 -0.000399 0.000000 0.000000 0.000000 0.022191
#
#
# Mechanical properties :
#
#
# Convention : Reuss Voigt Hill
#
# Bulk Modulus (GPa) = 44.65309 44.74779 44.70044
# Shear Modulus (GPa) = 38.99878 40.16459 39.58168
#
# Velocity S-wave (km/s) = 3.89811 3.95595 3.92714
# Velocity P-wave (km/s) = 6.13668 6.18881 6.16280
#
# Compressibility (1/GPa) = 0.02239487
#
# Stress axis : x y z
#
# Youngs Moduli (GPa) = 93.82106 93.82105 106.90609
#
# Poissons Ratio (x) = 0.26307 0.07132
# Poissons Ratio (y) = 0.26307 0.07132
# Poissons Ratio (z) = 0.06259 0.06259
#
# Static dielectric constant tensor:
#      x y z
#    x 4.641120 0.000000 0.000000 
#    y 0.000000 4.641120 0.000000 
#    z 0.000000 0.000000 5.267780 
# 
# 
# High freq. dielectric constant tensor:
#      x y z
#    x 2.020800 0.000000 0.000000 
#    y 0.000000 2.020800 0.000000 
#    z 0.000000 0.000000 2.047810 
# 
# From -- ./inp_files/5786.got.cif
#   From: 2010.03.12/outbox.cif.g09.slc.cpg/sg88_3_cif.got.tgz:5786.got - 2010.04.08 20:20:55.
