data_PCOD8304602
_publ_section_title
;
Structure prediction by ZEFSAII (Michael W. Deem and Ramdas Pophale) SiO2 
 PCOD8304602
Probable space group: P 4 21 2
;
_chemical_formula_sum "Si O2"
_cell_formula_units_Z 40
_cell_length_a 14.689960
_cell_length_b 14.689960
_cell_length_c 8.397323
_cell_angle_alpha 90.000000
_cell_angle_beta 90.000000
_cell_angle_gamma 90.000000
_cell_volume 1812.099685
_symmetry_space_group_name_H-M "P 4 21 2"
_symmetry_group_IT_number 90
_symmetry_cell_setting 'tetragonal'
loop_
_space_group_symop_operation_xyz
x,y,z
1/2-y,1/2+x,z
-x,-y,z
1/2+y,1/2-x,z
1/2+x,1/2-y,-z
1/2-x,1/2+y,-z
y,x,-z
-y,-x,-z
loop_
_atom_site_type_symbol
_atom_site_label
_atom_site_fract_x
_atom_site_fract_y
_atom_site_fract_z
Si Si1 0.391407 0.227206 0.358302
Si Si2 0.307375 0.175559 0.902767
Si Si3 0.575955 0.219322 0.201478
Si Si4 0.706564 0.585848 0.301311
Si Si5 0.342421 0.613816 0.317667
O O1 0.475577 0.191689 0.253098
O O2 0.313717 0.152376 0.329139
O O3 0.359817 0.327331 0.304394
O O4 0.420688 0.231050 0.541423
O O5 0.401295 0.224696 0.848954
O O6 0.259020 0.141723 0.740227
O O7 0.247182 0.247182 0.000000
O O8 0.323092 0.092431 0.025737
O O9 0.585591 0.330116 0.208001
O O10 0.646204 0.494448 0.286987
O O11 0.360387 0.639614 0.500000
#
# Coordination Sequence:
#
# PCOD8304602 Si02
#       5
#     8   8   8   8   8
#     4  11  24  42  69  96 133 177 228 284 342 416
#     4  10  22  40  68  95 133 183 224 276 344 412
#     4  11  24  44  66  97 136 177 228 282 348 404
#     4  11  23  39  70 101 130 178 225 278 353 418
#     4  11  21  41  67  98 136 172 223 279 343 415
#
# _framework density 22.073840000000001
#
# number of rings (size 3 to 8) (size 9 to 14) (size 15 to 20)
#    0.000    1.200    6.000    1.200    2.800    1.200 
#    0.000    0.000    0.000    4.200    0.000    0.000 
#    0.000    0.000    0.000    0.000    0.000    0.000 
#
# Total GULP energy -495781.682816 kJ/mol
# GULP energy per Si atom -12394.542070 kJ/mol
# Density = 2.202360 g / cm^3
# Si number density = 22.073840 Si / 1000 Ang^3
#
#
#
# Elastic Constant Matrix: (Units=GPa)
#
#
# Indices 1 2 3 4 5 6 
#
# 1 95.2335 43.1771 40.0152 0.0000 0.0000 0.0000
# 2 43.1771 95.2336 40.0150 0.0000 0.0000 0.0000
# 3 40.0152 40.0150 121.4782 0.0000 0.0000 0.0000
# 4 0.0000 0.0000 0.0000 28.2352 0.0000 0.0000
# 5 0.0000 0.0000 0.0000 0.0000 28.2354 0.0000
# 6 0.0000 0.0000 0.0000 0.0000 0.0000 16.8505
#
#
#
# Elastic Compliance Matrix: (Units=1/GPa)
#
#
# Indices 1 2 3 4 5 6 
#
# 1 0.014067 -0.005143 -0.002940 0.000000 0.000000 0.000000
# 2 -0.005143 0.014067 -0.002940 0.000000 0.000000 0.000000
# 3 -0.002940 -0.002940 0.010169 0.000000 0.000000 0.000000
# 4 0.000000 0.000000 0.000000 0.035417 0.000000 0.000000
# 5 0.000000 0.000000 0.000000 0.000000 0.035417 0.000000
# 6 0.000000 0.000000 0.000000 0.000000 0.000000 0.059345
#
#
# Mechanical properties :
#
#
# Convention : Reuss Voigt Hill
#
# Bulk Modulus (GPa) = 61.50496 62.03998 61.77247
# Shear Modulus (GPa) = 25.51724 27.24676 26.38200
#
# Velocity S-wave (km/s) = 3.40368 3.51714 3.46087
# Velocity P-wave (km/s) = 6.58563 6.68284 6.63441
#
# Compressibility (1/GPa) = 0.01625885
#
# Stress axis : x y z
#
# Youngs Moduli (GPa) = 71.08671 71.08695 98.34112
#
# Poissons Ratio (x) = 0.36557 0.28911
# Poissons Ratio (y) = 0.36557 0.28910
# Poissons Ratio (z) = 0.20898 0.20898
#
# Static dielectric constant tensor:
#      x y z
#    x 3.849850 0.000000 0.000000 
#    y 0.000000 3.849850 0.000000 
#    z 0.000000 0.000000 4.387510 
# 
# 
# High freq. dielectric constant tensor:
#      x y z
#    x 1.848370 0.000000 0.000000 
#    y 0.000000 1.848370 0.000000 
#    z 0.000000 0.000000 1.879230 
# 
# From -- ./inp_files/1326.got.cif
#   From: 2010.03.12/outbox.cif.g09.slc.cpg/sg90_1_cif.got.tgz:1326.got - 2010.04.08 20:26:03.
