data_PCOD8304129
_publ_section_title
;
Structure prediction by ZEFSAII (Michael W. Deem and Ramdas Pophale) SiO2 
 PCOD8304129
Probable space group: I 4/M
;
_chemical_formula_sum "Si O2"
_cell_formula_units_Z 80
_cell_length_a 10.615675
_cell_length_b 10.615675
_cell_length_c 32.026663
_cell_angle_alpha 90.000000
_cell_angle_beta 90.000000
_cell_angle_gamma 90.000000
_cell_volume 3609.166504
_symmetry_space_group_name_H-M "I 4/M"
_symmetry_group_IT_number 87
_symmetry_cell_setting 'tetragonal'
loop_
_space_group_symop_operation_xyz
x,y,z
-y,x,z
-x,-y,z
y,-x,z
-x,-y,-z
y,-x,-z
x,y,-z
-y,x,-z
1/2+x,1/2+y,1/2+z
1/2-y,1/2+x,1/2+z
1/2-x,1/2-y,1/2+z
1/2+y,1/2-x,1/2+z
1/2-x,1/2-y,1/2-z
1/2+y,1/2-x,1/2-z
1/2+x,1/2+y,1/2-z
1/2-y,1/2+x,1/2-z
loop_
_atom_site_type_symbol
_atom_site_label
_atom_site_fract_x
_atom_site_fract_y
_atom_site_fract_z
Si Si1 0.697848 0.532479 0.910275
Si Si2 0.947729 0.193796 0.909812
Si Si3 0.306498 0.041310 0.500000
Si Si4 0.290011 0.033947 0.000000
Si Si5 0.848856 0.361444 0.763421
Si Si6 0.383250 0.926065 0.353111
O O1 0.603877 0.642715 0.898542
O O2 0.721603 0.545719 0.959176
O O3 0.815066 0.538619 0.879041
O O4 0.917399 0.322168 0.887080
O O5 0.087790 0.152291 0.896649
O O6 0.935020 0.208196 0.959567
O O7 0.388589 0.168109 0.500000
O O8 0.385361 0.915592 0.500000
O O9 0.750000 0.250000 0.750000
O O10 0.822053 0.502784 0.744161
O O11 0.815751 0.368289 0.812797
O O12 0.500000 0.000000 0.333457
#
# Coordination Sequence:
#
# PCOD8304129 Si02
#       6
#    16  16   8   8  16  16
#     4  11  26  42  65 100 136 179 229 285 338 404
#     4  11  26  42  65 100 136 179 229 285 338 404
#     4  11  22  39  62  93 131 182 232 277 341 401
#     4  11  22  39  62  93 131 182 232 277 341 401
#     4  11  27  52  78 112 149 192 237 300 374 451
#     4  12  26  44  77 100 140 176 229 279 350 416
#
# _framework density 22.165780000000002
#
# number of rings (size 3 to 8) (size 9 to 14) (size 15 to 20)
#    0.000    0.800    4.000    2.400   11.200    3.600 
#    0.000    0.000    0.000    0.000    0.000    0.000 
#    0.000    0.000    0.000    0.000    0.000    0.000 
#
# Total GULP energy -495756.001610 kJ/mol
# GULP energy per Si atom -12393.900040 kJ/mol
# Density = 2.211533 g / cm^3
# Si number density = 22.165780 Si / 1000 Ang^3
#
#
#
# Elastic Constant Matrix: (Units=GPa)
#
#
# Indices 1 2 3 4 5 6 
#
# 1 72.1135 16.9459 9.9288 0.0000 0.0000 0.6169
# 2 16.9459 72.1135 9.9288 0.0000 0.0000 -0.6169
# 3 9.9288 9.9288 122.5623 0.0000 0.0000 0.0000
# 4 0.0000 0.0000 0.0000 25.6824 0.0000 0.0000
# 5 0.0000 0.0000 0.0000 0.0000 25.6824 0.0000
# 6 0.6169 -0.6169 0.0000 0.0000 0.0000 23.4018
#
#
#
# Elastic Compliance Matrix: (Units=1/GPa)
#
#
# Indices 1 2 3 4 5 6 
#
# 1 0.014786 -0.003351 -0.000926 0.000000 0.000000 -0.000478
# 2 -0.003351 0.014786 -0.000926 0.000000 0.000000 0.000478
# 3 -0.000926 -0.000926 0.008309 0.000000 0.000000 0.000000
# 4 0.000000 0.000000 0.000000 0.038937 0.000000 0.000000
# 5 0.000000 0.000000 0.000000 0.000000 0.038937 0.000000
# 6 -0.000478 0.000478 0.000000 0.000000 0.000000 0.042757
#
#
# Mechanical properties :
#
#
# Convention : Reuss Voigt Hill
#
# Bulk Modulus (GPa) = 36.39830 37.82182 37.11006
# Shear Modulus (GPa) = 28.07752 30.28571 29.18161
#
# Velocity S-wave (km/s) = 3.56294 3.70040 3.63232
# Velocity P-wave (km/s) = 5.77777 5.94621 5.86260
#
# Compressibility (1/GPa) = 0.02747381
#
# Stress axis : x y z
#
# Youngs Moduli (GPa) = 67.63088 67.63089 120.34845
#
# Poissons Ratio (x) = 0.22664 0.11149
# Poissons Ratio (y) = 0.22664 0.11149
# Poissons Ratio (z) = 0.06265 0.06265
#
# Static dielectric constant tensor:
#      x y z
#    x 4.181370 0.000000 0.000000 
#    y 0.000000 4.181370 0.000000 
#    z 0.000000 0.000000 3.983280 
# 
# 
# High freq. dielectric constant tensor:
#      x y z
#    x 1.881070 0.000000 0.000000 
#    y 0.000000 1.881070 0.000000 
#    z 0.000000 0.000000 1.872580 
# 
# From -- ./inp_files/6547.got.cif
#   From: 2010.03.12/outbox.cif.g09.slc.cpg/sg87_4_cif.got.tgz:6547.got - 2010.04.08 20:16:13.
