data_PCOD8304424
_publ_section_title
;
Structure prediction by ZEFSAII (Michael W. Deem and Ramdas Pophale) SiO2 
 PCOD8304424
Probable space group: I 41/A
;
_chemical_formula_sum "Si O2"
_cell_formula_units_Z 96
_cell_length_a 13.934855
_cell_length_b 13.934855
_cell_length_c 22.256163
_cell_angle_alpha 90.000000
_cell_angle_beta 90.000000
_cell_angle_gamma 90.000000
_cell_volume 4321.705824
_symmetry_space_group_name_H-M "I 41/A"
_symmetry_group_IT_number 88
_space_group.IT_coordinate_system_code '2'
_symmetry_cell_setting 'tetragonal'
loop_
_space_group_symop_operation_xyz
x,y,z
3/4-y,1/4+x,1/4+z
-x,1/2-y,z
1/4+y,1/4-x,1/4+z
-x,-y,-z
1/4+y,3/4-x,3/4-z
x,1/2+y,-z
3/4-y,3/4+x,3/4-z
1/2+x,1/2+y,1/2+z
1/4-y,3/4+x,3/4+z
1/2-x,-y,1/2+z
3/4+y,3/4-x,3/4+z
1/2-x,1/2-y,1/2-z
3/4+y,1/4-x,1/4-z
1/2+x,y,1/2-z
1/4-y,1/4+x,1/4-z
loop_
_atom_site_type_symbol
_atom_site_label
_atom_site_fract_x
_atom_site_fract_y
_atom_site_fract_z
Si Si1 0.751605 0.846708 0.945657
Si Si2 0.139371 0.184715 0.618333
Si Si3 0.449118 0.848218 0.493995
Si Si4 0.730383 0.641350 0.235828
Si Si5 0.267836 0.348529 0.006034
Si Si6 0.295393 0.341135 0.313205
O O1 0.837121 0.834638 0.993892
O O2 0.715224 0.737356 0.946418
O O3 0.794047 0.878757 0.881396
O O4 0.668251 0.921144 0.963749
O O5 0.118504 0.289683 0.646900
O O6 0.180615 0.122401 0.672501
O O7 0.215711 0.186622 0.563295
O O8 0.500000 0.750000 0.468577
O O9 0.504037 0.879206 0.555226
O O10 0.451560 0.938599 0.448659
O O11 0.750000 0.750000 0.250000
O O12 0.836947 0.606455 0.228517
O O13 0.172238 0.414183 0.016819
#
# Coordination Sequence:
#
# PCOD8304424 Si02
#       6
#    16  16  16  16  16  16
#     4  12  26  47  71 106 148 190 250 306 373 455
#     4  11  24  46  74 100 149 194 246 311 370 456
#     4  11  24  45  71 106 144 190 241 304 377 436
#     4  12  27  45  70 107 144 192 244 303 375 446
#     4  12  25  44  75 107 139 204 244 301 384 443
#     4  11  26  45  73 107 146 190 248 306 370 461
#
# _framework density 22.213452
#
# number of rings (size 3 to 8) (size 9 to 14) (size 15 to 20)
#    0.000    0.500    6.667    1.000    2.333    4.667 
#    3.000    0.000    0.000    0.000    0.000    0.000 
#    0.000    0.000    0.000    0.000    0.000    0.000 
#
# Total GULP energy -594638.628661 kJ/mol
# GULP energy per Si atom -12388.304764 kJ/mol
# Density = 2.216289 g / cm^3
# Si number density = 22.213452 Si / 1000 Ang^3
#
#
#
# Elastic Constant Matrix: (Units=GPa)
#
#
# Indices 1 2 3 4 5 6 
#
# 1 126.6368 43.9871 19.4365 0.0000 0.0000 -9.9854
# 2 43.9871 126.6368 19.4365 0.0000 0.0000 9.9854
# 3 19.4365 19.4365 95.4717 0.0000 0.0000 0.0000
# 4 0.0000 0.0000 0.0000 33.1449 0.0000 0.0000
# 5 0.0000 0.0000 0.0000 0.0000 33.1449 0.0000
# 6 -9.9854 9.9854 0.0000 0.0000 0.0000 39.8204
#
#
#
# Elastic Compliance Matrix: (Units=1/GPa)
#
#
# Indices 1 2 3 4 5 6 
#
# 1 0.009513 -0.003367 -0.001251 0.000000 0.000000 0.003230
# 2 -0.003367 0.009513 -0.001251 0.000000 0.000000 -0.003230
# 3 -0.001251 -0.001251 0.010984 0.000000 0.000000 0.000000
# 4 0.000000 0.000000 0.000000 0.030171 0.000000 0.000000
# 5 0.000000 0.000000 0.000000 0.000000 0.030171 0.000000
# 6 0.003230 -0.003230 0.000000 0.000000 0.000000 0.026733
#
#
# Mechanical properties :
#
#
# Convention : Reuss Voigt Hill
#
# Bulk Modulus (GPa) = 54.73234 57.16286 55.94760
# Shear Modulus (GPa) = 37.06123 38.94770 38.00447
#
# Velocity S-wave (km/s) = 4.08905 4.19183 4.14076
# Velocity P-wave (km/s) = 6.85468 7.01555 6.93558
#
# Compressibility (1/GPa) = 0.01827073
#
# Stress axis : x y z
#
# Youngs Moduli (GPa) = 105.12173 105.12173 91.04347
#
# Poissons Ratio (x) = 0.35393 0.11391
# Poissons Ratio (y) = 0.35393 0.11391
# Poissons Ratio (z) = 0.13153 0.13153
#
# Static dielectric constant tensor:
#      x y z
#    x 3.944030 0.000000 0.000000 
#    y 0.000000 3.944030 0.000000 
#    z 0.000000 0.000000 3.235370 
# 
# 
# High freq. dielectric constant tensor:
#      x y z
#    x 1.890170 0.000000 0.000000 
#    y 0.000000 1.890170 0.000000 
#    z 0.000000 0.000000 1.850740 
# 
# From -- ./inp_files/4706.got.cif
#   From: 2010.03.12/outbox.cif.g09.slc.cpg/sg88_3_cif.got.tgz:4706.got - 2010.04.08 20:20:55.
