data_PCOD8304435
_publ_section_title
;
Structure prediction by ZEFSAII (Michael W. Deem and Ramdas Pophale) SiO2 
 PCOD8304435
Probable space group: I 41/A
;
_chemical_formula_sum "Si O2"
_cell_formula_units_Z 52
_cell_length_a 14.359696
_cell_length_b 14.359696
_cell_length_c 10.231685
_cell_angle_alpha 90.000000
_cell_angle_beta 90.000000
_cell_angle_gamma 90.000000
_cell_volume 2109.782341
_symmetry_space_group_name_H-M "I 41/A"
_symmetry_group_IT_number 88
_space_group.IT_coordinate_system_code '2'
_symmetry_cell_setting 'tetragonal'
loop_
_space_group_symop_operation_xyz
x,y,z
3/4-y,1/4+x,1/4+z
-x,1/2-y,z
1/4+y,1/4-x,1/4+z
-x,-y,-z
1/4+y,3/4-x,3/4-z
x,1/2+y,-z
3/4-y,3/4+x,3/4-z
1/2+x,1/2+y,1/2+z
1/4-y,3/4+x,3/4+z
1/2-x,-y,1/2+z
3/4+y,3/4-x,3/4+z
1/2-x,1/2-y,1/2-z
3/4+y,1/4-x,1/4-z
1/2+x,y,1/2-z
1/4-y,1/4+x,1/4-z
loop_
_atom_site_type_symbol
_atom_site_label
_atom_site_fract_x
_atom_site_fract_y
_atom_site_fract_z
Si Si1 0.000000 0.750000 0.875000
Si Si2 0.504420 0.097290 0.572261
Si Si3 0.102290 0.334098 0.678584
Si Si4 0.315119 0.037913 0.145299
O O1 0.917314 0.785120 0.784490
O O2 0.436092 0.110012 0.695674
O O3 0.611825 0.115465 0.613152
O O4 0.500000 0.000000 0.500000
O O5 0.105097 0.220937 0.691706
O O6 0.206025 0.363990 0.642643
O O7 0.281123 0.021316 0.294075
#
# Coordination Sequence:
#
# PCOD8304435 Si02
#       4
#     4  16  16  16
#     4  12  28  48  78 112 164 204 256 338 404 464
#     4  12  27  52  78 117 161 206 261 333 402 480
#     4  11  25  50  77 113 157 207 270 325 386 474
#     4  12  26  49  80 119 157 212 264 324 405 480
#
# _framework density 24.647093000000002
#
# number of rings (size 3 to 8) (size 9 to 14) (size 15 to 20)
#    0.000    0.308    3.077    5.538    0.000    3.692 
#    0.000    0.000    0.000    0.000    0.000    0.000 
#    0.000    0.000    0.000    0.000    0.000    0.000 
#
# Total GULP energy -322201.598374 kJ/mol
# GULP energy per Si atom -12392.369168 kJ/mol
# Density = 2.459100 g / cm^3
# Si number density = 24.647093 Si / 1000 Ang^3
#
#
#
# Elastic Constant Matrix: (Units=GPa)
#
#
# Indices 1 2 3 4 5 6 
#
# 1 127.7395 17.0972 28.0459 0.0000 0.0000 8.4279
# 2 17.0972 127.7395 28.0459 0.0000 0.0000 -8.4279
# 3 28.0459 28.0459 141.3029 0.0000 0.0000 0.0000
# 4 0.0000 0.0000 0.0000 33.5790 0.0000 0.0000
# 5 0.0000 0.0000 0.0000 0.0000 33.5790 0.0000
# 6 8.4279 -8.4279 0.0000 0.0000 0.0000 28.3784
#
#
#
# Elastic Compliance Matrix: (Units=1/GPa)
#
#
# Indices 1 2 3 4 5 6 
#
# 1 0.008473 -0.000994 -0.001484 0.000000 0.000000 -0.002811
# 2 -0.000994 0.008473 -0.001484 0.000000 0.000000 0.002811
# 3 -0.001484 -0.001484 0.007666 0.000000 0.000000 0.000000
# 4 0.000000 0.000000 0.000000 0.029781 0.000000 0.000000
# 5 0.000000 0.000000 0.000000 0.000000 0.029781 0.000000
# 6 -0.002811 0.002811 0.000000 0.000000 0.000000 0.036908
#
#
# Mechanical properties :
#
#
# Convention : Reuss Voigt Hill
#
# Bulk Modulus (GPa) = 59.92758 60.35111 60.13935
# Shear Modulus (GPa) = 37.15582 40.68012 38.91797
#
# Velocity S-wave (km/s) = 3.88688 4.06705 3.97798
# Velocity P-wave (km/s) = 6.67165 6.82596 6.74924
#
# Compressibility (1/GPa) = 0.01668681
#
# Stress axis : x y z
#
# Youngs Moduli (GPa) = 118.02425 118.02425 130.44138
#
# Poissons Ratio (x) = 0.11727 0.19364
# Poissons Ratio (y) = 0.11727 0.19364
# Poissons Ratio (z) = 0.17521 0.17521
#
# Static dielectric constant tensor:
#      x y z
#    x 4.422750 0.000000 0.000000 
#    y 0.000000 4.422750 0.000000 
#    z 0.000000 0.000000 4.859480 
# 
# 
# High freq. dielectric constant tensor:
#      x y z
#    x 1.980090 0.000000 0.000000 
#    y 0.000000 1.980090 0.000000 
#    z 0.000000 0.000000 1.999480 
# 
# From -- ./inp_files/2201.got.cif
#   From: 2010.03.12/outbox.cif.g09.slc.cpg/sg88_2_cif.got.tgz:2201.got - 2010.04.08 20:20:55.
