data_PCOD8304722
_publ_section_title
;
Structure prediction by ZEFSAII (Michael W. Deem and Ramdas Pophale) SiO2 
 PCOD8304722
Probable space group: P 41 2 2
;
_chemical_formula_sum "Si O2"
_cell_formula_units_Z 56
_cell_length_a 28.950026
_cell_length_b 28.950026
_cell_length_c 5.191414
_cell_angle_alpha 90.000000
_cell_angle_beta 90.000000
_cell_angle_gamma 90.000000
_cell_volume 4350.944867
_symmetry_space_group_name_H-M "P 41 2 2"
_symmetry_group_IT_number 91
_symmetry_cell_setting 'tetragonal'
loop_
_space_group_symop_operation_xyz
x,y,z
-y,x,1/4+z
-x,-y,1/2+z
y,-x,3/4+z
x,-y,1/2-z
-x,y,-z
y,x,3/4-z
-y,-x,1/4-z
loop_
_atom_site_type_symbol
_atom_site_label
_atom_site_fract_x
_atom_site_fract_y
_atom_site_fract_z
Si Si1 0.049183 0.695770 0.916884
Si Si2 0.731502 0.086672 0.332595
Si Si3 0.530954 0.948010 0.747891
Si Si4 0.762998 0.724107 0.625331
Si Si5 0.651305 0.161657 0.324054
Si Si6 0.614379 0.878791 0.675031
Si Si7 0.839776 0.802722 0.624671
O O1 0.062403 0.730518 0.142983
O O2 0.083551 0.653710 0.898249
O O3 0.049901 0.724523 0.649387
O O4 0.000000 0.674996 0.000000
O O5 0.692349 0.125202 0.302809
O O6 0.781757 0.109568 0.333482
O O7 0.500000 0.944323 0.500000
O O8 0.567617 0.907114 0.716217
O O9 0.553177 0.000000 0.750000
O O10 0.500000 0.939269 0.000000
O O11 0.731611 0.731611 0.375000
O O12 0.786984 0.673593 0.596756
O O13 0.802734 0.762017 0.646106
O O14 0.729517 0.729517 0.875000
O O15 0.621169 0.153806 0.578859
O O16 0.617192 0.154421 0.077534
O O17 0.833328 0.833328 0.375000
O O18 0.835412 0.835412 0.875000
#
# Coordination Sequence:
#
# PCOD8304722 Si02
#       7
#     8   8   8   8   8   8   8
#     4  10  18  27  38  50  66  87 107 130 164 196
#     4   9  17  26  35  50  67  82 106 132 153 186
#     4  10  20  32  44  56  68  84 110 146 190 236
#     4   9  15  23  35  51  71  91 109 127 150 186
#     4   9  17  26  38  54  70  89 109 132 162 196
#     4  10  18  29  41  53  69  86 110 141 173 214
#     4   9  15  23  35  48  63  83 103 126 156 178
#
# _framework density 12.870767000000001
#
# number of rings (size 3 to 8) (size 9 to 14) (size 15 to 20)
#    0.000    2.571    0.000    3.429    0.000    6.857 
#    0.000    4.286    0.000    0.000    0.000    0.000 
#    0.000    0.000    0.000    0.000    0.000    0.000 
#
# Total GULP energy -693874.026871 kJ/mol
# GULP energy per Si atom -12390.607623 kJ/mol
# Density = 1.284147 g / cm^3
# Si number density = 12.870767 Si / 1000 Ang^3
#
#
#
# Elastic Constant Matrix: (Units=GPa)
#
#
# Indices 1 2 3 4 5 6 
#
# 1 39.3781 23.3791 32.3277 0.0000 0.0000 0.0000
# 2 23.3791 39.3781 32.3277 0.0000 0.0000 0.0000
# 3 32.3277 32.3277 110.9452 0.0000 0.0000 0.0000
# 4 0.0000 0.0000 0.0000 12.9906 0.0000 0.0000
# 5 0.0000 0.0000 0.0000 0.0000 12.9906 0.0000
# 6 0.0000 0.0000 0.0000 0.0000 0.0000 35.4884
#
#
#
# Elastic Compliance Matrix: (Units=1/GPa)
#
#
# Indices 1 2 3 4 5 6 
#
# 1 0.042637 -0.019867 -0.006635 0.000000 0.000000 0.000000
# 2 -0.019867 0.042637 -0.006635 0.000000 0.000000 0.000000
# 3 -0.006635 -0.006635 0.012880 0.000000 0.000000 0.000000
# 4 0.000000 0.000000 0.000000 0.076979 0.000000 0.000000
# 5 0.000000 0.000000 0.000000 0.000000 0.076979 0.000000
# 6 0.000000 0.000000 0.000000 0.000000 0.000000 0.028178
#
#
# Mechanical properties :
#
#
# Convention : Reuss Voigt Hill
#
# Bulk Modulus (GPa) = 31.36699 40.64117 36.00408
# Shear Modulus (GPa) = 13.99817 19.07171 16.53494
#
# Velocity S-wave (km/s) = 3.30145 3.85357 3.58814
# Velocity P-wave (km/s) = 6.24150 7.17251 6.72314
#
# Compressibility (1/GPa) = 0.03188065
#
# Stress axis : x y z
#
# Youngs Moduli (GPa) = 23.45385 23.45385 77.63966
#
# Poissons Ratio (x) = 0.46596 0.51512
# Poissons Ratio (y) = 0.46596 0.51512
# Poissons Ratio (z) = 0.15561 0.15561
#
# Static dielectric constant tensor:
#      x y z
#    x 2.363850 0.000000 0.000000 
#    y 0.000000 2.363850 0.000000 
#    z 0.000000 0.000000 2.868310 
# 
# 
# High freq. dielectric constant tensor:
#      x y z
#    x 1.446180 0.000000 0.000000 
#    y 0.000000 1.446180 0.000000 
#    z 0.000000 0.000000 1.517650 
# 
# From -- ./inp_files/19019.got.cif
#   From: 2010.03.12/outbox.cif.g09.slc.cpg/sg91_10_cif.got.tgz:19019.got - 2010.04.08 20:27:58.
