data_PCOD8304391
_publ_section_title
;
Structure prediction by ZEFSAII (Michael W. Deem and Ramdas Pophale) SiO2 
 PCOD8304391
Probable space group: I 41/A
;
_chemical_formula_sum "Si O2"
_cell_formula_units_Z 52
_cell_length_a 9.258691
_cell_length_b 9.258691
_cell_length_c 28.134148
_cell_angle_alpha 90.000000
_cell_angle_beta 90.000000
_cell_angle_gamma 90.000000
_cell_volume 2411.753670
_symmetry_space_group_name_H-M "I 41/A"
_symmetry_group_IT_number 88
_space_group.IT_coordinate_system_code '2'
_symmetry_cell_setting 'tetragonal'
loop_
_space_group_symop_operation_xyz
x,y,z
3/4-y,1/4+x,1/4+z
-x,1/2-y,z
1/4+y,1/4-x,1/4+z
-x,-y,-z
1/4+y,3/4-x,3/4-z
x,1/2+y,-z
3/4-y,3/4+x,3/4-z
1/2+x,1/2+y,1/2+z
1/4-y,3/4+x,3/4+z
1/2-x,-y,1/2+z
3/4+y,3/4-x,3/4+z
1/2-x,1/2-y,1/2-z
3/4+y,1/4-x,1/4-z
1/2+x,y,1/2-z
1/4-y,1/4+x,1/4-z
loop_
_atom_site_type_symbol
_atom_site_label
_atom_site_fract_x
_atom_site_fract_y
_atom_site_fract_z
Si Si1 0.500000 0.750000 0.625000
Si Si2 0.536432 0.411287 0.226532
Si Si3 0.724178 0.399188 0.441098
Si Si4 0.223851 0.183616 0.620233
O O1 0.388916 0.840773 0.656915
O O2 0.500000 0.250000 0.242444
O O3 0.476855 0.507570 0.270548
O O4 0.705463 0.437225 0.220087
O O5 0.446844 0.443134 0.179066
O O6 0.868149 0.419539 0.409757
O O7 0.172402 0.339071 0.638616
#
# Coordination Sequence:
#
# PCOD8304391 Si02
#       4
#     4  16  16  16
#     4  12  24  40  64  92 132 172 216 256 324 380
#     4  11  22  40  61  93 127 164 214 264 320 377
#     4  11  24  38  65  92 126 169 212 266 318 378
#     4   9  21  42  64  89 129 172 211 262 315 383
#
# _framework density 21.561071999999999
#
# number of rings (size 3 to 8) (size 9 to 14) (size 15 to 20)
#    0.000    1.538    1.538    2.769    4.308    1.231 
#    0.000    0.000    0.000    0.000    0.000    0.000 
#    0.000    0.000    0.000    0.000    0.000    0.000 
#
# Total GULP energy -322496.884154 kJ/mol
# GULP energy per Si atom -12403.726314 kJ/mol
# Density = 2.151200 g / cm^3
# Si number density = 21.561072 Si / 1000 Ang^3
#
#
#
# Elastic Constant Matrix: (Units=GPa)
#
#
# Indices 1 2 3 4 5 6 
#
# 1 79.7798 39.5675 55.1355 0.0000 0.0000 -2.7675
# 2 39.5675 79.7798 55.1354 0.0000 0.0000 2.7675
# 3 55.1355 55.1354 131.2440 0.0000 0.0000 0.0000
# 4 0.0000 0.0000 0.0000 36.7585 0.0000 0.0000
# 5 0.0000 0.0000 0.0000 0.0000 36.7585 0.0000
# 6 -2.7675 2.7675 0.0000 0.0000 0.0000 29.1393
#
#
#
# Elastic Compliance Matrix: (Units=1/GPa)
#
#
# Indices 1 2 3 4 5 6 
#
# 1 0.019446 -0.005752 -0.005753 0.000000 0.000000 0.002393
# 2 -0.005752 0.019446 -0.005753 0.000000 0.000000 -0.002393
# 3 -0.005753 -0.005753 0.012453 0.000000 0.000000 0.000000
# 4 0.000000 0.000000 0.000000 0.027205 0.000000 0.000000
# 5 0.000000 0.000000 0.000000 0.000000 0.027205 0.000000
# 6 0.002393 -0.002393 0.000000 0.000000 0.000000 0.034772
#
#
# Mechanical properties :
#
#
# Convention : Reuss Voigt Hill
#
# Bulk Modulus (GPa) = 59.41827 65.60894 62.51360
# Shear Modulus (GPa) = 27.67760 29.92893 28.80326
#
# Velocity S-wave (km/s) = 3.58674 3.72976 3.65895
# Velocity P-wave (km/s) = 6.69111 7.00311 6.84889
#
# Compressibility (1/GPa) = 0.01682984
#
# Stress axis : x y z
#
# Youngs Moduli (GPa) = 51.42472 51.42470 80.30165
#
# Poissons Ratio (x) = 0.29577 0.46197
# Poissons Ratio (y) = 0.29577 0.46197
# Poissons Ratio (z) = 0.29585 0.29585
#
# Static dielectric constant tensor:
#      x y z
#    x 3.908540 0.000000 0.000000 
#    y 0.000000 3.908540 0.000000 
#    z 0.000000 0.000000 4.021420 
# 
# 
# High freq. dielectric constant tensor:
#      x y z
#    x 1.843000 0.000000 0.000000 
#    y 0.000000 1.843000 0.000000 
#    z 0.000000 0.000000 1.861020 
# 
# From -- ./inp_files/6138.got.cif
#   From: 2010.03.12/outbox.cif.g09.slc.cpg/sg88_4_cif.got.tgz:6138.got - 2010.04.08 20:20:55.
