data_PCOD8304784
_publ_section_title
;
Structure prediction by ZEFSAII (Michael W. Deem and Ramdas Pophale) SiO2 
 PCOD8304784
Probable space group: P 41 2 2
;
_chemical_formula_sum "Si O2"
_cell_formula_units_Z 64
_cell_length_a 11.371343
_cell_length_b 11.371343
_cell_length_c 24.491084
_cell_angle_alpha 90.000000
_cell_angle_beta 90.000000
_cell_angle_gamma 90.000000
_cell_volume 3166.879415
_symmetry_space_group_name_H-M "P 41 2 2"
_symmetry_group_IT_number 91
_symmetry_cell_setting 'tetragonal'
loop_
_space_group_symop_operation_xyz
x,y,z
-y,x,1/4+z
-x,-y,1/2+z
y,-x,3/4+z
x,-y,1/2-z
-x,y,-z
y,x,3/4-z
-y,-x,1/4-z
loop_
_atom_site_type_symbol
_atom_site_label
_atom_site_fract_x
_atom_site_fract_y
_atom_site_fract_z
Si Si1 0.898688 0.534703 0.351256
Si Si2 0.693201 0.625297 0.776046
Si Si3 0.256416 0.457947 0.039848
Si Si4 0.264283 0.159246 0.559615
Si Si5 0.143561 0.523514 0.142816
Si Si6 0.323029 0.890772 0.709056
Si Si7 0.102181 0.258734 0.773281
Si Si8 0.303822 0.788258 0.409008
O O1 0.926015 0.626702 0.400173
O O2 0.871455 0.611965 0.297802
O O3 0.796740 0.439786 0.360858
O O4 0.008975 0.444551 0.343594
O O5 0.717409 0.500000 0.750000
O O6 0.553238 0.641111 0.780966
O O7 0.749771 0.732362 0.741195
O O8 0.763442 0.617757 0.833493
O O9 0.158914 0.521709 0.077422
O O10 0.304122 0.346484 0.072404
O O11 0.202763 0.416124 0.982694
O O12 0.394651 0.152906 0.581936
O O13 0.185367 0.213586 0.608833
O O14 0.218800 0.031140 0.538844
O O15 0.193683 0.835114 0.701226
O O16 0.311899 0.000000 0.750000
O O17 0.124414 0.267095 0.708264
#
# Coordination Sequence:
#
# PCOD8304784 Si02
#       8
#     8   8   8   8   8   8   8   8
#     4  11  20  37  60  91 117 157 208 261 314 386
#     4  10  19  32  55  85 118 163 198 243 310 392
#     4  10  20  35  53  85 119 158 200 249 318 384
#     4   9  19  37  56  84 118 159 205 245 315 376
#     4   9  18  33  55  78 111 156 201 242 293 375
#     4  11  22  38  60  86 118 165 214 266 326 372
#     4  10  22  37  62  88 120 161 215 260 310 385
#     4  10  21  36  60  90 128 160 194 269 319 374
#
# _framework density 20.209167999999998
#
# number of rings (size 3 to 8) (size 9 to 14) (size 15 to 20)
#    0.000    2.000    1.250    2.625    1.750    4.000 
#    0.000    3.750    2.750    0.000    0.000    0.000 
#    0.000    0.000    0.000    0.000    0.000    0.000 
#
# Total GULP energy -793013.465563 kJ/mol
# GULP energy per Si atom -12390.835399 kJ/mol
# Density = 2.016317 g / cm^3
# Si number density = 20.209168 Si / 1000 Ang^3
#
#
#
# Elastic Constant Matrix: (Units=GPa)
#
#
# Indices 1 2 3 4 5 6 
#
# 1 94.9261 39.6844 36.9681 0.0000 0.0000 0.0000
# 2 39.6844 94.9261 36.9681 0.0000 0.0000 0.0000
# 3 36.9681 36.9681 96.8835 0.0000 0.0000 0.0000
# 4 0.0000 0.0000 0.0000 29.3522 0.0000 0.0000
# 5 0.0000 0.0000 0.0000 0.0000 29.3522 0.0000
# 6 0.0000 0.0000 0.0000 0.0000 0.0000 17.6593
#
#
#
# Elastic Compliance Matrix: (Units=1/GPa)
#
#
# Indices 1 2 3 4 5 6 
#
# 1 0.013750 -0.004352 -0.003586 0.000000 0.000000 0.000000
# 2 -0.004352 0.013750 -0.003586 0.000000 0.000000 0.000000
# 3 -0.003586 -0.003586 0.013059 0.000000 0.000000 0.000000
# 4 0.000000 0.000000 0.000000 0.034069 0.000000 0.000000
# 5 0.000000 0.000000 0.000000 0.000000 0.034069 0.000000
# 6 0.000000 0.000000 0.000000 0.000000 0.000000 0.056628
#
#
# Mechanical properties :
#
#
# Convention : Reuss Voigt Hill
#
# Bulk Modulus (GPa) = 57.10782 57.10853 57.10818
# Shear Modulus (GPa) = 25.74526 26.81374 26.27950
#
# Velocity S-wave (km/s) = 3.57310 3.64649 3.60998
# Velocity P-wave (km/s) = 6.73368 6.78596 6.75987
#
# Compressibility (1/GPa) = 0.01751074
#
# Stress axis : x y z
#
# Youngs Moduli (GPa) = 72.72491 72.72491 76.57839
#
# Poissons Ratio (x) = 0.31649 0.27463
# Poissons Ratio (y) = 0.31649 0.27463
# Poissons Ratio (z) = 0.26081 0.26081
#
# Static dielectric constant tensor:
#      x y z
#    x 3.684700 0.000000 0.000000 
#    y 0.000000 3.684700 0.000000 
#    z 0.000000 0.000000 3.982450 
# 
# 
# High freq. dielectric constant tensor:
#      x y z
#    x 1.772010 0.000000 0.000000 
#    y 0.000000 1.772010 0.000000 
#    z 0.000000 0.000000 1.800390 
# 
# From -- ./inp_files/7043.got.cif
#   From: 2010.03.12/outbox.cif.g09.slc.cpg/sg91_4_cif.got.tgz:7043.got - 2010.04.08 20:27:58.
