data_PCOD8304623
_publ_section_title
;
Structure prediction by ZEFSAII (Michael W. Deem and Ramdas Pophale) SiO2 
 PCOD8304623
Probable space group: P 4 21 2
;
_chemical_formula_sum "Si O2"
_cell_formula_units_Z 32
_cell_length_a 9.758188
_cell_length_b 9.758188
_cell_length_c 18.171754
_cell_angle_alpha 90.000000
_cell_angle_beta 90.000000
_cell_angle_gamma 90.000000
_cell_volume 1730.354994
_symmetry_space_group_name_H-M "P 4 21 2"
_symmetry_group_IT_number 90
_symmetry_cell_setting 'tetragonal'
loop_
_space_group_symop_operation_xyz
x,y,z
1/2-y,1/2+x,z
-x,-y,z
1/2+y,1/2-x,z
1/2+x,1/2-y,-z
1/2-x,1/2+y,-z
y,x,-z
-y,-x,-z
loop_
_atom_site_type_symbol
_atom_site_label
_atom_site_fract_x
_atom_site_fract_y
_atom_site_fract_z
Si Si1 0.363158 0.639703 0.584683
Si Si2 0.191486 0.380243 0.047983
Si Si3 0.387857 0.193692 0.784269
Si Si4 0.349060 0.342086 0.642053
O O1 0.393715 0.606286 0.500000
O O2 0.327404 0.502572 0.629769
O O3 0.236831 0.741601 0.591194
O O4 0.499735 0.706971 0.618222
O O5 0.185867 0.542822 0.031456
O O6 0.237487 0.357514 0.132201
O O7 0.308131 0.308131 0.000000
O O8 0.549233 0.183966 0.769481
O O9 0.325534 0.305592 0.728154
#
# Coordination Sequence:
#
# PCOD8304623 Si02
#       4
#     8   8   8   8
#     4  11  23  38  57  82 113 149 192 241 287 338
#     4   9  19  37  59  86 118 149 190 235 279 337
#     4   9  17  35  60  83 108 149 197 233 267 335
#     4  11  21  38  57  82 114 148 192 235 286 337
#
# _framework density 18.493314000000002
#
# number of rings (size 3 to 8) (size 9 to 14) (size 15 to 20)
#    0.000    2.000    2.500    4.500    0.000    1.500 
#    4.500    2.500    0.000    0.000    0.000    0.000 
#    0.000    0.000    0.000    0.000    0.000    0.000 
#
# Total GULP energy -396788.644905 kJ/mol
# GULP energy per Si atom -12399.645153 kJ/mol
# Density = 1.845122 g / cm^3
# Si number density = 18.493314 Si / 1000 Ang^3
#
#
#
# Elastic Constant Matrix: (Units=GPa)
#
#
# Indices 1 2 3 4 5 6 
#
# 1 67.3825 71.2605 50.2068 0.0000 0.0000 0.0000
# 2 71.2605 67.3829 50.2071 0.0000 0.0000 0.0000
# 3 50.2068 50.2071 133.8919 0.0000 0.0000 0.0000
# 4 0.0000 0.0000 0.0000 32.1914 0.0000 0.0000
# 5 0.0000 0.0000 0.0000 0.0000 32.1914 0.0000
# 6 0.0000 0.0000 0.0000 0.0000 0.0000 29.6307
#
#
#
# Elastic Compliance Matrix: (Units=1/GPa)
#
#
# Indices 1 2 3 4 5 6 
#
# 1 -0.123987 0.133888 -0.003713 0.000000 0.000000 0.000000
# 2 0.133888 -0.123986 -0.003713 0.000000 0.000000 0.000000
# 3 -0.003713 -0.003713 0.010253 0.000000 0.000000 0.000000
# 4 0.000000 0.000000 0.000000 0.031064 0.000000 0.000000
# 5 0.000000 0.000000 0.000000 0.000000 0.031064 0.000000
# 6 0.000000 0.000000 0.000000 0.000000 0.000000 0.033749
#
#
# Mechanical properties :
#
#
# Convention : Reuss Voigt Hill
#
# Bulk Modulus (GPa) = 65.76741 68.00068 66.88404
# Shear Modulus (GPa) = -12.83045 25.26824 6.21890
#
# Velocity S-wave (km/s) = -2.63684 3.70042 1.83578
# Velocity P-wave (km/s) = 5.13512 7.42346 6.38268
#
# Compressibility (1/GPa) = 0.01520510
#
# Stress axis : x y z
#
# Youngs Moduli (GPa) = -8.06539 -8.06543 97.52898
#
# Poissons Ratio (x) = 1.07987 0.36214
# Poissons Ratio (y) = 1.07986 0.36212
# Poissons Ratio (z) = -0.02995 -0.02995
#
# Static dielectric constant tensor:
#      x y z
#    x 3.219480 0.000000 0.000000 
#    y 0.000000 3.219480 0.000000 
#    z 0.000000 0.000000 3.429010 
# 
# 
# High freq. dielectric constant tensor:
#      x y z
#    x 1.706630 0.000000 0.000000 
#    y 0.000000 1.706630 0.000000 
#    z 0.000000 0.000000 1.726400 
# 
# From -- ./inp_files/2700.got.cif
#   From: 2010.03.12/outbox.cif.g09.slc.cpg/sg90_2_cif.got.tgz:2700.got - 2010.04.08 20:26:03.
