data_PCOD8304459
_publ_section_title
;
Structure prediction by ZEFSAII (Michael W. Deem and Ramdas Pophale) SiO2 
 PCOD8304459
Probable space group: P 4 2 2
;
_chemical_formula_sum "Si O2"
_cell_formula_units_Z 48
_cell_length_a 15.078369
_cell_length_b 15.078369
_cell_length_c 13.690734
_cell_angle_alpha 90.000000
_cell_angle_beta 90.000000
_cell_angle_gamma 90.000000
_cell_volume 3112.687108
_symmetry_space_group_name_H-M "P 4 2 2"
_symmetry_group_IT_number 89
_symmetry_cell_setting 'tetragonal'
loop_
_space_group_symop_operation_xyz
x,y,z
-y,x,z
-x,-y,z
y,-x,z
x,-y,-z
-x,y,-z
y,x,-z
-y,-x,-z
loop_
_atom_site_type_symbol
_atom_site_label
_atom_site_fract_x
_atom_site_fract_y
_atom_site_fract_z
Si Si1 0.510442 0.256209 0.105448
Si Si2 0.763544 0.983150 0.886217
Si Si3 0.427763 0.056033 0.899118
Si Si4 0.897055 0.896444 0.610435
Si Si5 0.682399 0.694848 0.117816
Si Si6 0.836191 0.816545 0.798741
O O1 0.534571 0.153957 0.089181
O O2 0.414274 0.271041 0.155117
O O3 0.593557 0.305411 0.157036
O O4 0.500000 0.301820 0.000000
O O5 0.768726 0.073984 0.828415
O O6 0.669354 0.940539 0.853253
O O7 0.835876 0.910891 0.854729
O O8 0.774286 0.000000 0.000000
O O9 0.500000 0.000000 0.834980
O O10 0.418116 0.000000 0.000000
O O11 0.870798 0.870798 0.500000
O O12 0.837687 0.836162 0.682608
O O13 0.000400 0.877029 0.629560
O O14 0.754825 0.754357 0.172208
O O15 0.699680 0.699680 0.000000
#
# Coordination Sequence:
#
# PCOD8304459 Si02
#       6
#     8   8   8   8   8   8
#     4  10  18  32  45  65  91 133 169 208 236 277
#     4  11  22  29  42  66 101 135 162 196 237 285
#     4  10  17  28  45  59  86 129 175 197 230 279
#     4   9  18  34  51  66  88 124 169 210 241 282
#     4  10  21  32  48  68 101 128 168 206 243 288
#     4  12  20  32  46  71  97 128 165 201 243 286
#
# _framework density 15.42076
#
# number of rings (size 3 to 8) (size 9 to 14) (size 15 to 20)
#    0.000    1.667    5.000    3.000    4.667    0.667 
#    0.000    2.500    0.000    0.000    0.000    1.167 
#    0.000    4.000    0.000    1.500    0.000    0.167 
#
# Total GULP energy -594661.626907 kJ/mol
# GULP energy per Si atom -12388.783894 kJ/mol
# Density = 1.538566 g / cm^3
# Si number density = 15.420760 Si / 1000 Ang^3
#
#
#
# Elastic Constant Matrix: (Units=GPa)
#
#
# Indices 1 2 3 4 5 6 
#
# 1 101.5287 42.6300 33.2150 0.0000 0.0000 0.0000
# 2 42.6300 101.5287 33.2150 0.0000 0.0000 0.0000
# 3 33.2150 33.2150 71.9157 0.0000 0.0000 0.0000
# 4 0.0000 0.0000 0.0000 7.6897 0.0000 0.0000
# 5 0.0000 0.0000 0.0000 0.0000 7.6897 0.0000
# 6 0.0000 0.0000 0.0000 0.0000 0.0000 30.5369
#
#
#
# Elastic Compliance Matrix: (Units=1/GPa)
#
#
# Indices 1 2 3 4 5 6 
#
# 1 0.012895 -0.004083 -0.004070 0.000000 0.000000 0.000000
# 2 -0.004083 0.012895 -0.004070 0.000000 0.000000 0.000000
# 3 -0.004070 -0.004070 0.017665 0.000000 0.000000 0.000000
# 4 0.000000 0.000000 0.000000 0.130045 0.000000 0.000000
# 5 0.000000 0.000000 0.000000 0.000000 0.130045 0.000000
# 6 0.000000 0.000000 0.000000 0.000000 0.000000 0.032747
#
#
# Mechanical properties :
#
#
# Convention : Reuss Voigt Hill
#
# Bulk Modulus (GPa) = 52.60618 54.78812 53.69715
# Shear Modulus (GPa) = 13.62120 20.24410 16.93265
#
# Velocity S-wave (km/s) = 2.97526 3.62716 3.31727
# Velocity P-wave (km/s) = 6.78166 7.29025 7.04055
#
# Compressibility (1/GPa) = 0.01900917
#
# Stress axis : x y z
#
# Youngs Moduli (GPa) = 77.54750 77.54750 56.60977
#
# Poissons Ratio (x) = 0.31662 0.23041
# Poissons Ratio (y) = 0.31662 0.23041
# Poissons Ratio (z) = 0.31562 0.31562
#
# Static dielectric constant tensor:
#      x y z
#    x 3.282570 0.000000 0.000000 
#    y 0.000000 3.282570 0.000000 
#    z 0.000000 0.000000 2.410990 
# 
# 
# High freq. dielectric constant tensor:
#      x y z
#    x 1.601780 0.000000 0.000000 
#    y 0.000000 1.601780 0.000000 
#    z 0.000000 0.000000 1.522920 
# 
# From -- ./inp_files/2189.got.cif
#   From: 2010.03.12/outbox.cif.g09.slc.cpg/sg89_2_cif.got.tgz:2189.got - 2010.04.08 20:24:03.
