data_PCOD8304566
_publ_section_title
;
Structure prediction by ZEFSAII (Michael W. Deem and Ramdas Pophale) SiO2 
 PCOD8304566
Probable space group: P 4 21 2
;
_chemical_formula_sum "Si O2"
_cell_formula_units_Z 40
_cell_length_a 12.385331
_cell_length_b 12.385331
_cell_length_c 13.365813
_cell_angle_alpha 90.000000
_cell_angle_beta 90.000000
_cell_angle_gamma 90.000000
_cell_volume 2050.267918
_symmetry_space_group_name_H-M "P 4 21 2"
_symmetry_group_IT_number 90
_symmetry_cell_setting 'tetragonal'
loop_
_space_group_symop_operation_xyz
x,y,z
1/2-y,1/2+x,z
-x,-y,z
1/2+y,1/2-x,z
1/2+x,1/2-y,-z
1/2-x,1/2+y,-z
y,x,-z
-y,-x,-z
loop_
_atom_site_type_symbol
_atom_site_label
_atom_site_fract_x
_atom_site_fract_y
_atom_site_fract_z
Si Si1 0.597671 0.720832 0.825073
Si Si2 0.366350 0.707422 0.892644
Si Si3 0.372990 0.503560 0.758474
Si Si4 0.673713 0.026802 0.630699
Si Si5 0.494070 0.666431 0.465296
O O1 0.496054 0.722758 0.901490
O O2 0.681979 0.812883 0.854245
O O3 0.656105 0.603594 0.823456
O O4 0.545239 0.735842 0.714823
O O5 0.336947 0.609215 0.818735
O O6 0.318694 0.681307 0.000000
O O7 0.500000 0.500000 0.736213
O O8 0.310438 0.503604 0.653025
O O9 0.589156 0.121489 0.646249
O O10 0.722826 0.026521 0.519726
O O11 0.579280 0.579280 0.500000
O O12 0.375186 0.624815 0.500000
#
# Coordination Sequence:
#
# PCOD8304566 Si02
#       5
#     8   8   8   8   8
#     4  11  22  41  67  90 127 164 214 269 323 388
#     4  11  26  41  66  96 123 170 218 274 334 384
#     4  10  21  39  62  95 128 162 215 269 319 390
#     4  11  23  38  57  91 128 166 211 262 318 390
#     4  11  19  34  59  91 124 161 205 252 313 381
#
# _framework density 19.509646
#
# number of rings (size 3 to 8) (size 9 to 14) (size 15 to 20)
#    0.000    1.200    6.000    1.200    2.800    5.600 
#    0.000    0.000    0.000    0.600    0.000    0.000 
#    0.000    0.000    0.000    0.000    0.000    0.000 
#
# Total GULP energy -496028.982583 kJ/mol
# GULP energy per Si atom -12400.724565 kJ/mol
# Density = 1.946524 g / cm^3
# Si number density = 19.509646 Si / 1000 Ang^3
#
#
#
# Elastic Constant Matrix: (Units=GPa)
#
#
# Indices 1 2 3 4 5 6 
#
# 1 94.3211 32.1442 34.6012 0.0000 0.0000 0.0000
# 2 32.1442 94.3211 34.6008 0.0000 0.0000 0.0000
# 3 34.6012 34.6008 109.7044 0.0000 0.0000 0.0000
# 4 0.0000 0.0000 0.0000 27.9365 0.0000 0.0000
# 5 0.0000 0.0000 0.0000 0.0000 27.9369 0.0000
# 6 0.0000 0.0000 0.0000 0.0000 0.0000 -11.8358
#
#
#
# Elastic Compliance Matrix: (Units=1/GPa)
#
#
# Indices 1 2 3 4 5 6 
#
# 1 0.012820 -0.003263 -0.003014 0.000000 0.000000 0.000000
# 2 -0.003263 0.012820 -0.003014 0.000000 0.000000 0.000000
# 3 -0.003014 -0.003014 0.011017 0.000000 0.000000 0.000000
# 4 0.000000 0.000000 0.000000 0.035796 0.000000 0.000000
# 5 0.000000 0.000000 0.000000 0.000000 0.035795 0.000000
# 6 0.000000 0.000000 0.000000 0.000000 0.000000 -0.084490
#
#
# Mechanical properties :
#
#
# Convention : Reuss Voigt Hill
#
# Bulk Modulus (GPa) = 55.33010 55.67100 55.50055
# Shear Modulus (GPa) = 103.38050 21.94088 62.66069
#
# Velocity S-wave (km/s) = 7.28728 3.35717 5.67340
# Velocity P-wave (km/s) = 9.96132 6.60488 8.45140
#
# Compressibility (1/GPa) = 0.01807335
#
# Stress axis : x y z
#
# Youngs Moduli (GPa) = 78.00361 78.00373 90.77070
#
# Poissons Ratio (x) = 0.25454 0.27360
# Poissons Ratio (y) = 0.25454 0.27360
# Poissons Ratio (z) = 0.23512 0.23512
#
# Static dielectric constant tensor:
#      x y z
#    x 3.634380 0.000000 0.000000 
#    y 0.000000 3.634370 0.000000 
#    z 0.000000 0.000000 3.572430 
# 
# 
# High freq. dielectric constant tensor:
#      x y z
#    x 1.752600 0.000000 0.000000 
#    y 0.000000 1.752600 0.000000 
#    z 0.000000 0.000000 1.757330 
# 
# From -- ./inp_files/2469.got.cif
#   From: 2010.03.12/outbox.cif.g09.slc.cpg/sg90_2_cif.got.tgz:2469.got - 2010.04.08 20:26:03.
