data_PCOD8304461
_publ_section_title
;
Structure prediction by ZEFSAII (Michael W. Deem and Ramdas Pophale) SiO2 
 PCOD8304461
Probable space group: P 4 2 2
;
_chemical_formula_sum "Si O2"
_cell_formula_units_Z 48
_cell_length_a 15.081505
_cell_length_b 15.081505
_cell_length_c 13.652000
_cell_angle_alpha 90.000000
_cell_angle_beta 90.000000
_cell_angle_gamma 90.000000
_cell_volume 3105.171879
_symmetry_space_group_name_H-M "P 4 2 2"
_symmetry_group_IT_number 89
_symmetry_cell_setting 'tetragonal'
loop_
_space_group_symop_operation_xyz
x,y,z
-y,x,z
-x,-y,z
y,-x,z
x,-y,-z
-x,y,-z
y,x,-z
-y,-x,-z
loop_
_atom_site_type_symbol
_atom_site_label
_atom_site_fract_x
_atom_site_fract_y
_atom_site_fract_z
Si Si1 0.194542 0.826450 0.116965
Si Si2 0.518676 0.259591 0.801921
Si Si3 0.313254 0.663033 0.885656
Si Si4 0.646149 0.500037 0.609595
Si Si5 0.552260 0.079507 0.897433
Si Si6 0.983242 0.246634 0.105683
O O1 0.263474 0.753823 0.157289
O O2 0.095960 0.806593 0.160978
O O3 0.231857 0.921144 0.157484
O O4 0.186016 0.813985 0.000000
O O5 0.432825 0.272942 0.867807
O O6 0.592312 0.330980 0.832696
O O7 0.498577 0.272885 0.686684
O O8 0.554681 0.161772 0.824016
O O9 0.324812 0.675189 0.000000
O O10 0.586900 0.587025 0.625779
O O11 0.686498 0.500000 0.500000
O O12 0.652503 0.047668 0.913536
O O13 0.500000 0.000000 0.843665
O O14 0.500000 0.100185 0.000000
O O15 0.000000 0.202461 0.000000
#
# Coordination Sequence:
#
# PCOD8304461 Si02
#       6
#     8   8   8   8   8   8
#     4   9  19  30  45  61  89 123 168 209 239 272
#     4  12  21  31  49  71  95 127 166 204 241 290
#     4  11  21  31  41  67 103 134 158 193 239 287
#     4   9  18  35  53  68  91 124 163 210 253 297
#     4  11  20  31  48  66  98 138 173 190 228 305
#     4  10  17  31  44  62  86 125 168 210 238 271
#
# _framework density 15.458081
#
# number of rings (size 3 to 8) (size 9 to 14) (size 15 to 20)
#    0.000    1.667    5.000    3.000    2.333    0.667 
#    0.000    2.500    0.000    0.500    0.000    0.000 
#    0.000    0.000    0.000    0.000    0.000    0.000 
#
# Total GULP energy -594787.576898 kJ/mol
# GULP energy per Si atom -12391.407852 kJ/mol
# Density = 1.542290 g / cm^3
# Si number density = 15.458081 Si / 1000 Ang^3
#
#
#
# Elastic Constant Matrix: (Units=GPa)
#
#
# Indices 1 2 3 4 5 6 
#
# 1 103.5499 34.5670 26.0500 0.0000 0.0000 0.0000
# 2 34.5670 103.5497 26.0499 0.0000 0.0000 0.0000
# 3 26.0500 26.0499 61.0947 0.0000 0.0000 0.0000
# 4 0.0000 0.0000 0.0000 10.9620 0.0000 0.0000
# 5 0.0000 0.0000 0.0000 0.0000 10.9620 0.0000
# 6 0.0000 0.0000 0.0000 0.0000 0.0000 27.0355
#
#
#
# Elastic Compliance Matrix: (Units=1/GPa)
#
#
# Indices 1 2 3 4 5 6 
#
# 1 0.011562 -0.002934 -0.003679 0.000000 0.000000 0.000000
# 2 -0.002934 0.011562 -0.003679 0.000000 0.000000 0.000000
# 3 -0.003679 -0.003679 0.019505 0.000000 0.000000 0.000000
# 4 0.000000 0.000000 0.000000 0.091224 0.000000 0.000000
# 5 0.000000 0.000000 0.000000 0.000000 0.091224 0.000000
# 6 0.000000 0.000000 0.000000 0.000000 0.000000 0.036988
#
#
# Mechanical properties :
#
#
# Convention : Reuss Voigt Hill
#
# Bulk Modulus (GPa) = 45.36011 49.05866 47.20938
# Shear Modulus (GPa) = 17.24147 21.89373 19.56760
#
# Velocity S-wave (km/s) = 3.34334 3.76750 3.56174
# Velocity P-wave (km/s) = 6.65669 7.12256 6.89356
#
# Compressibility (1/GPa) = 0.02204580
#
# Stress axis : x y z
#
# Youngs Moduli (GPa) = 86.48901 86.48891 51.26825
#
# Poissons Ratio (x) = 0.25378 0.18861
# Poissons Ratio (y) = 0.25378 0.18861
# Poissons Ratio (z) = 0.31818 0.31818
#
# Static dielectric constant tensor:
#      x y z
#    x 3.172320 0.000000 0.000000 
#    y 0.000000 3.172330 0.000000 
#    z 0.000000 0.000000 2.440010 
# 
# 
# High freq. dielectric constant tensor:
#      x y z
#    x 1.602230 0.000000 0.000000 
#    y 0.000000 1.602230 0.000000 
#    z 0.000000 0.000000 1.522970 
# 
# From -- ./inp_files/1770.got.cif
#   From: 2010.03.12/outbox.cif.g09.slc.cpg/sg89_1_cif.got.tgz:1770.got - 2010.04.08 20:24:03.
