data_PCOD8304147
_publ_section_title
;
Structure prediction by ZEFSAII (Michael W. Deem and Ramdas Pophale) SiO2 
 PCOD8304147
Probable space group: I 4/M
;
_chemical_formula_sum "Si O2"
_cell_formula_units_Z 80
_cell_length_a 11.264876
_cell_length_b 11.264876
_cell_length_c 27.669516
_cell_angle_alpha 90.000000
_cell_angle_beta 90.000000
_cell_angle_gamma 90.000000
_cell_volume 3511.190506
_symmetry_space_group_name_H-M "I 4/M"
_symmetry_group_IT_number 87
_symmetry_cell_setting 'tetragonal'
loop_
_space_group_symop_operation_xyz
x,y,z
-y,x,z
-x,-y,z
y,-x,z
-x,-y,-z
y,-x,-z
x,y,-z
-y,x,-z
1/2+x,1/2+y,1/2+z
1/2-y,1/2+x,1/2+z
1/2-x,1/2-y,1/2+z
1/2+y,1/2-x,1/2+z
1/2-x,1/2-y,1/2-z
1/2+y,1/2-x,1/2-z
1/2+x,1/2+y,1/2-z
1/2-y,1/2+x,1/2-z
loop_
_atom_site_type_symbol
_atom_site_label
_atom_site_fract_x
_atom_site_fract_y
_atom_site_fract_z
Si Si1 0.697756 0.501681 0.638087
Si Si2 0.169881 0.910550 0.310987
Si Si3 0.317986 0.576173 0.081326
Si Si4 0.442819 0.165292 0.265737
Si Si5 0.623842 0.941072 0.945826
O O1 0.616621 0.618530 0.639331
O O2 0.783644 0.494103 0.684406
O O3 0.775113 0.508578 0.589523
O O4 0.246307 0.861856 0.266163
O O5 0.049327 0.843381 0.304608
O O6 0.223553 0.892186 0.364203
O O7 0.347583 0.437305 0.070735
O O8 0.203016 0.614537 0.051180
O O9 0.547411 0.133756 0.226648
O O10 0.500000 0.000000 0.929204
O O11 0.656751 0.983466 0.000000
#
# Coordination Sequence:
#
# PCOD8304147 Si02
#       5
#    16  16  16  16  16
#     4  11  27  48  71 101 140 187 238 289 346 421
#     4   9  18  34  57  86 123 167 210 253 314 394
#     4   9  20  39  68 103 137 173 216 281 356 419
#     4  11  24  37  60  98 135 179 222 275 334 395
#     4  11  27  46  70  99 131 179 239 297 357 422
#
# _framework density 22.784296000000001
#
# number of rings (size 3 to 8) (size 9 to 14) (size 15 to 20)
#    0.000    1.800    0.000    3.600    8.400    8.000 
#    0.000    2.000    0.000    0.000    0.000    0.000 
#    0.000    0.000    0.000    0.000    0.000    0.000 
#
# Total GULP energy -495589.095311 kJ/mol
# GULP energy per Si atom -12389.727383 kJ/mol
# Density = 2.273244 g / cm^3
# Si number density = 22.784296 Si / 1000 Ang^3
#
#
#
# Elastic Constant Matrix: (Units=GPa)
#
#
# Indices 1 2 3 4 5 6 
#
# 1 95.6241 13.7456 47.9710 0.0000 0.0000 -0.0394
# 2 13.7456 95.6241 47.9710 0.0000 0.0000 0.0394
# 3 47.9710 47.9710 123.2460 0.0000 0.0000 0.0000
# 4 0.0000 0.0000 0.0000 -8.1645 0.0000 0.0000
# 5 0.0000 0.0000 0.0000 0.0000 -8.1645 0.0000
# 6 -0.0394 0.0394 0.0000 0.0000 0.0000 -1.4958
#
#
#
# Elastic Compliance Matrix: (Units=1/GPa)
#
#
# Indices 1 2 3 4 5 6 
#
# 1 0.013048 0.000835 -0.005404 0.000000 0.000000 -0.000322
# 2 0.000835 0.013048 -0.005404 0.000000 0.000000 0.000322
# 3 -0.005404 -0.005404 0.012321 0.000000 0.000000 0.000000
# 4 0.000000 0.000000 0.000000 -0.122482 0.000000 0.000000
# 5 0.000000 0.000000 0.000000 0.000000 -0.122482 0.000000
# 6 -0.000322 0.000322 0.000000 0.000000 0.000000 -0.668509
#
#
# Mechanical properties :
#
#
# Convention : Reuss Voigt Hill
#
# Bulk Modulus (GPa) = 54.13507 59.31880 56.72694
# Shear Modulus (GPa) = -5.88961 10.08883 2.09961
#
# Velocity S-wave (km/s) = -1.60952 2.10656 0.96100
# Velocity P-wave (km/s) = 4.51191 5.65758 5.11691
#
# Compressibility (1/GPa) = 0.01847232
#
# Stress axis : x y z
#
# Youngs Moduli (GPa) = 76.63797 76.63797 81.16462
#
# Poissons Ratio (x) = -0.06403 0.43861
# Poissons Ratio (y) = -0.06403 0.43861
# Poissons Ratio (z) = 0.41415 0.41415
#
# Static dielectric constant tensor:
#      x y z
#    x 4.175960 0.000000 0.000000 
#    y 0.000000 4.175960 0.000000 
#    z 0.000000 0.000000 4.095080 
# 
# 
# High freq. dielectric constant tensor:
#      x y z
#    x 1.905560 0.000000 0.000000 
#    y 0.000000 1.905560 0.000000 
#    z 0.000000 0.000000 1.894760 
# 
# From -- ./inp_files/6473.got.cif
#   From: 2010.03.12/outbox.cif.g09.slc.cpg/sg87_4_cif.got.tgz:6473.got - 2010.04.08 20:16:13.
