data_PCOD8304701
_publ_section_title
;
Structure prediction by ZEFSAII (Michael W. Deem and Ramdas Pophale) SiO2 
 PCOD8304701
Probable space group: P 41 2 2
;
_chemical_formula_sum "Si O2"
_cell_formula_units_Z 40
_cell_length_a 22.926688
_cell_length_b 22.926688
_cell_length_c 5.231258
_cell_angle_alpha 90.000000
_cell_angle_beta 90.000000
_cell_angle_gamma 90.000000
_cell_volume 2749.721955
_symmetry_space_group_name_H-M "P 41 2 2"
_symmetry_group_IT_number 91
_symmetry_cell_setting 'tetragonal'
loop_
_space_group_symop_operation_xyz
x,y,z
-y,x,1/4+z
-x,-y,1/2+z
y,-x,3/4+z
x,-y,1/2-z
-x,y,-z
y,x,3/4-z
-y,-x,1/4-z
loop_
_atom_site_type_symbol
_atom_site_label
_atom_site_fract_x
_atom_site_fract_y
_atom_site_fract_z
Si Si1 0.781392 0.564281 0.665152
Si Si2 0.610109 0.838484 0.585299
Si Si3 0.281932 0.239185 0.121510
Si Si4 0.962865 0.567493 0.248434
Si Si5 0.663717 0.635451 0.627142
O O1 0.763175 0.500000 0.750000
O O2 0.808936 0.569765 0.383592
O O3 0.723134 0.601332 0.651605
O O4 0.826447 0.585946 0.880565
O O5 0.677297 0.817570 0.590239
O O6 0.609052 0.906798 0.521523
O O7 0.241021 0.241021 0.375000
O O8 0.324709 0.294821 0.122926
O O9 0.239916 0.239916 0.875000
O O10 0.942639 0.500000 0.250000
O O11 0.000000 0.583009 0.500000
O O12 0.000000 0.581205 0.000000
O O13 0.624168 0.624168 0.375000
O O14 0.623258 0.623258 0.875000
#
# Coordination Sequence:
#
# PCOD8304701 Si02
#       5
#     8   8   8   8   8
#     4  12  21  28  43  68  88 106 138 169 206 270
#     4  12  20  32  48  63  83 115 144 175 219 266
#     4  10  16  29  46  63  83 108 131 165 222 269
#     4  10  21  35  45  57  82 114 149 187 216 241
#     4  10  16  30  43  57  86 113 122 159 216 260
#
# _framework density 14.546925999999999
#
# number of rings (size 3 to 8) (size 9 to 14) (size 15 to 20)
#    0.000    1.200    8.000    3.000    0.000    1.600 
#    0.000    0.000    0.000    0.000    0.000    0.000 
#    0.000    1.600    0.000    0.000    0.000    0.000 
#
# Total GULP energy -495623.804133 kJ/mol
# GULP energy per Si atom -12390.595103 kJ/mol
# Density = 1.451382 g / cm^3
# Si number density = 14.546926 Si / 1000 Ang^3
#
#
#
# Elastic Constant Matrix: (Units=GPa)
#
#
# Indices 1 2 3 4 5 6 
#
# 1 53.0882 54.4414 29.7505 0.0000 0.0000 0.0000
# 2 54.4414 53.0882 29.7505 0.0000 0.0000 0.0000
# 3 29.7505 29.7505 140.9136 0.0000 0.0000 0.0000
# 4 0.0000 0.0000 0.0000 17.8625 0.0000 0.0000
# 5 0.0000 0.0000 0.0000 0.0000 17.8625 0.0000
# 6 0.0000 0.0000 0.0000 0.0000 0.0000 21.2724
#
#
#
# Elastic Compliance Matrix: (Units=1/GPa)
#
#
# Indices 1 2 3 4 5 6 
#
# 1 -0.364242 0.374772 -0.002223 0.000000 0.000000 0.000000
# 2 0.374772 -0.364242 -0.002223 0.000000 0.000000 0.000000
# 3 -0.002223 -0.002223 0.008035 0.000000 0.000000 0.000000
# 4 0.000000 0.000000 0.000000 0.055983 0.000000 0.000000
# 5 0.000000 0.000000 0.000000 0.000000 0.055983 0.000000
# 6 0.000000 0.000000 0.000000 0.000000 0.000000 0.047009
#
#
# Mechanical properties :
#
#
# Convention : Reuss Voigt Hill
#
# Bulk Modulus (GPa) = 49.49866 52.77499 51.13683
# Shear Modulus (GPa) = -3.85984 20.27600 8.20808
#
# Velocity S-wave (km/s) = -1.63068 3.73746 2.37797
# Velocity P-wave (km/s) = 5.52768 7.41503 6.53980
#
# Compressibility (1/GPa) = 0.02020257
#
# Stress axis : x y z
#
# Youngs Moduli (GPa) = -2.74543 -2.74543 124.45126
#
# Poissons Ratio (x) = 1.02891 0.27667
# Poissons Ratio (y) = 1.02891 0.27667
# Poissons Ratio (z) = -0.00610 -0.00610
#
# Static dielectric constant tensor:
#      x y z
#    x 2.484070 0.000000 0.000000 
#    y 0.000000 2.484070 0.000000 
#    z 0.000000 0.000000 4.171170 
# 
# 
# High freq. dielectric constant tensor:
#      x y z
#    x 1.512790 0.000000 0.000000 
#    y 0.000000 1.512790 0.000000 
#    z 0.000000 0.000000 1.598730 
# 
# From -- ./inp_files/1053.got.cif
#   From: 2010.03.12/outbox.cif.g09.slc.cpg/sg91_1_cif.got.tgz:1053.got - 2010.04.08 20:27:58.
