data_PCOD8304032
_publ_section_title
;
Structure prediction by ZEFSAII (Michael W. Deem and Ramdas Pophale) SiO2 
 PCOD8304032
Probable space group: I 4/M
;
_chemical_formula_sum "Si O2"
_cell_formula_units_Z 96
_cell_length_a 14.491707
_cell_length_b 14.491707
_cell_length_c 22.739531
_cell_angle_alpha 90.000000
_cell_angle_beta 90.000000
_cell_angle_gamma 90.000000
_cell_volume 4775.519168
_symmetry_space_group_name_H-M "I 4/M"
_symmetry_group_IT_number 87
_symmetry_cell_setting 'tetragonal'
loop_
_space_group_symop_operation_xyz
x,y,z
-y,x,z
-x,-y,z
y,-x,z
-x,-y,-z
y,-x,-z
x,y,-z
-y,x,-z
1/2+x,1/2+y,1/2+z
1/2-y,1/2+x,1/2+z
1/2-x,1/2-y,1/2+z
1/2+y,1/2-x,1/2+z
1/2-x,1/2-y,1/2-z
1/2+y,1/2-x,1/2-z
1/2+x,1/2+y,1/2-z
1/2-y,1/2+x,1/2-z
loop_
_atom_site_type_symbol
_atom_site_label
_atom_site_fract_x
_atom_site_fract_y
_atom_site_fract_z
Si Si1 0.897505 0.463852 0.434079
Si Si2 0.326854 0.072305 0.827525
Si Si3 0.905712 0.114444 0.568783
Si Si4 0.822352 0.798348 0.208936
Si Si5 0.712693 0.867642 0.634309
Si Si6 0.967288 0.712424 0.721435
O O1 0.855454 0.467524 0.500000
O O2 0.834371 0.527464 0.391885
O O3 0.907929 0.358524 0.412865
O O4 0.000000 0.500000 0.433438
O O5 0.219949 0.105638 0.815707
O O6 0.398216 0.156985 0.821139
O O7 0.350873 0.996163 0.777734
O O8 0.892876 0.129295 0.500000
O O9 0.845211 0.189745 0.603094
O O10 0.012938 0.128451 0.586673
O O11 0.750000 0.750000 0.250000
O O12 0.834673 0.727285 0.154951
O O13 0.916236 0.803038 0.248855
O O14 0.737078 0.939396 0.686745
#
# Coordination Sequence:
#
# PCOD8304032 Si02
#       6
#    16  16  16  16  16  16
#     4  11  23  37  55  84 115 150 194 240 288 345
#     4  11  21  38  56  82 116 149 188 230 288 343
#     4   9  21  39  55  76 112 155 191 223 265 329
#     4  10  22  35  52  88 115 146 184 230 287 353
#     4  12  21  34  60  86 113 147 187 234 290 345
#     4  11  20  34  59  83 112 149 178 228 293 348
#
# _framework density 20.102525
#
# number of rings (size 3 to 8) (size 9 to 14) (size 15 to 20)
#    0.000    1.333    6.667    1.000    4.667    0.000 
#    0.000    1.667    0.000    0.500    0.000    0.000 
#    0.000    1.333    0.000    0.000    0.000    0.000 
#
# Total GULP energy -594760.920910 kJ/mol
# GULP energy per Si atom -12390.852519 kJ/mol
# Density = 2.005677 g / cm^3
# Si number density = 20.102525 Si / 1000 Ang^3
#
#
#
# Elastic Constant Matrix: (Units=GPa)
#
#
# Indices 1 2 3 4 5 6 
#
# 1 59.3524 7.5217 29.7023 0.0000 0.0000 0.8711
# 2 7.5217 59.3524 29.7023 0.0000 0.0000 -0.8711
# 3 29.7023 29.7023 117.6145 0.0000 0.0000 0.0000
# 4 0.0000 0.0000 0.0000 22.3887 0.0000 0.0000
# 5 0.0000 0.0000 0.0000 0.0000 22.3887 0.0000
# 6 0.8711 -0.8711 0.0000 0.0000 0.0000 26.3839
#
#
#
# Elastic Compliance Matrix: (Units=1/GPa)
#
#
# Indices 1 2 3 4 5 6 
#
# 1 0.019297 -0.000018 -0.004869 0.000000 0.000000 -0.000638
# 2 -0.000018 0.019297 -0.004869 0.000000 0.000000 0.000638
# 3 -0.004869 -0.004869 0.010961 0.000000 0.000000 0.000000
# 4 0.000000 0.000000 0.000000 0.044665 0.000000 0.000000
# 5 0.000000 0.000000 0.000000 0.000000 0.044665 0.000000
# 6 -0.000638 0.000638 0.000000 0.000000 0.000000 0.037944
#
#
# Mechanical properties :
#
#
# Convention : Reuss Voigt Hill
#
# Bulk Modulus (GPa) = 33.28483 41.13021 37.20752
# Shear Modulus (GPa) = 24.23012 25.52513 24.87762
#
# Velocity S-wave (km/s) = 3.47555 3.56722 3.52168
# Velocity P-wave (km/s) = 5.71834 6.12138 5.92329
#
# Compressibility (1/GPa) = 0.03004372
#
# Stress axis : x y z
#
# Youngs Moduli (GPa) = 51.82257 51.82257 91.22976
#
# Poissons Ratio (x) = 0.00095 0.44415
# Poissons Ratio (y) = 0.00095 0.44415
# Poissons Ratio (z) = 0.25230 0.25230
#
# Static dielectric constant tensor:
#      x y z
#    x 3.435760 0.000000 0.000000 
#    y 0.000000 3.435760 0.000000 
#    z 0.000000 0.000000 3.673090 
# 
# 
# High freq. dielectric constant tensor:
#      x y z
#    x 1.765120 0.000000 0.000000 
#    y 0.000000 1.765120 0.000000 
#    z 0.000000 0.000000 1.785270 
# 
# From -- ./inp_files/5264.got.cif
#   From: 2010.03.12/outbox.cif.g09.slc.cpg/sg87_3_cif.got.tgz:5264.got - 2010.04.08 20:16:13.
