data_PCOD8304501
_publ_section_title
;
Structure prediction by ZEFSAII (Michael W. Deem and Ramdas Pophale) SiO2 
 PCOD8304501
Probable space group: P 4 2 2
;
_chemical_formula_sum "Si O2"
_cell_formula_units_Z 48
_cell_length_a 9.311322
_cell_length_b 9.311322
_cell_length_c 28.995076
_cell_angle_alpha 90.000000
_cell_angle_beta 90.000000
_cell_angle_gamma 90.000000
_cell_volume 2513.893890
_symmetry_space_group_name_H-M "P 4 2 2"
_symmetry_group_IT_number 89
_symmetry_cell_setting 'tetragonal'
loop_
_space_group_symop_operation_xyz
x,y,z
-y,x,z
-x,-y,z
y,-x,z
x,-y,-z
-x,y,-z
y,x,-z
-y,-x,-z
loop_
_atom_site_type_symbol
_atom_site_label
_atom_site_fract_x
_atom_site_fract_y
_atom_site_fract_z
Si Si1 0.353872 0.146189 0.022020
Si Si2 0.853800 0.809581 0.708170
Si Si3 0.710561 0.604183 0.887805
Si Si4 0.630943 0.696445 0.217125
Si Si5 0.831123 0.840286 0.445950
Si Si6 0.681338 0.343581 0.372625
O O1 0.349586 0.159433 0.077993
O O2 0.500000 0.195070 0.000000
O O3 0.249789 0.249789 0.000000
O O4 0.303730 0.000000 0.000000
O O5 0.808805 0.723381 0.753879
O O6 0.780242 0.729699 0.665642
O O7 0.026106 0.800988 0.706814
O O8 0.563864 0.688487 0.897486
O O9 0.750861 0.642747 0.835448
O O10 0.461167 0.694830 0.228251
O O11 0.813960 0.813960 0.500000
O O12 0.715303 0.738138 0.421467
O O13 0.994393 0.800543 0.431824
O O14 0.699949 0.514708 0.368061
#
# Coordination Sequence:
#
# PCOD8304501 Si02
#       6
#     8   8   8   8   8   8
#     4  11  22  36  56  83 114 149 191 232 277 335
#     4  11  24  41  59  84 117 152 193 235 286 351
#     4   9  17  34  60  86 111 145 186 234 283 327
#     4   9  19  37  61  88 115 143 184 235 288 344
#     4   9  19  37  60  87 120 159 202 246 293 348
#     4  11  24  39  58  86 119 154 197 249 299 346
#
# _framework density 19.093885
#
# number of rings (size 3 to 8) (size 9 to 14) (size 15 to 20)
#    0.000    2.000    1.667    3.500    0.000    8.333 
#    3.000    2.500    0.000    0.000    0.000    0.000 
#    0.000    0.000    0.000    0.000    0.000    0.000 
#
# Total GULP energy -594694.264338 kJ/mol
# GULP energy per Si atom -12389.463840 kJ/mol
# Density = 1.905043 g / cm^3
# Si number density = 19.093885 Si / 1000 Ang^3
#
#
#
# Elastic Constant Matrix: (Units=GPa)
#
#
# Indices 1 2 3 4 5 6 
#
# 1 121.9518 49.8143 60.0794 0.0000 0.0000 0.0000
# 2 49.8143 121.9518 60.0794 0.0000 0.0000 0.0000
# 3 60.0794 60.0794 122.7754 0.0000 0.0000 0.0000
# 4 0.0000 0.0000 0.0000 36.4008 0.0000 0.0000
# 5 0.0000 0.0000 0.0000 0.0000 36.4008 0.0000
# 6 0.0000 0.0000 0.0000 0.0000 0.0000 34.9902
#
#
#
# Elastic Compliance Matrix: (Units=1/GPa)
#
#
# Indices 1 2 3 4 5 6 
#
# 1 0.011357 -0.002505 -0.004332 0.000000 0.000000 0.000000
# 2 -0.002505 0.011357 -0.004332 0.000000 0.000000 0.000000
# 3 -0.004332 -0.004332 0.012384 0.000000 0.000000 0.000000
# 4 0.000000 0.000000 0.000000 0.027472 0.000000 0.000000
# 5 0.000000 0.000000 0.000000 0.000000 0.027472 0.000000
# 6 0.000000 0.000000 0.000000 0.000000 0.000000 0.028579
#
#
# Mechanical properties :
#
#
# Convention : Reuss Voigt Hill
#
# Bulk Modulus (GPa) = 78.35951 78.51389 78.43670
# Shear Modulus (GPa) = 34.43210 34.67208 34.55209
#
# Velocity S-wave (km/s) = 4.25114 4.26593 4.25854
# Velocity P-wave (km/s) = 8.07616 8.09156 8.08387
#
# Compressibility (1/GPa) = 0.01276169
#
# Stress axis : x y z
#
# Youngs Moduli (GPa) = 88.04933 88.04933 80.74696
#
# Poissons Ratio (x) = 0.22058 0.34977
# Poissons Ratio (y) = 0.22058 0.34977
# Poissons Ratio (z) = 0.38141 0.38141
#
# Static dielectric constant tensor:
#      x y z
#    x 3.676640 0.000000 0.000000 
#    y 0.000000 3.676640 0.000000 
#    z 0.000000 0.000000 3.641720 
# 
# 
# High freq. dielectric constant tensor:
#      x y z
#    x 1.738060 0.000000 0.000000 
#    y 0.000000 1.738060 0.000000 
#    z 0.000000 0.000000 1.755830 
# 
# From -- ./inp_files/2968.got.cif
#   From: 2010.03.12/outbox.cif.g09.slc.cpg/sg89_2_cif.got.tgz:2968.got - 2010.04.08 20:24:03.
