data_PCOD8304470
_publ_section_title
;
Structure prediction by ZEFSAII (Michael W. Deem and Ramdas Pophale) SiO2 
 PCOD8304470
Probable space group: P 4 2 2
;
_chemical_formula_sum "Si O2"
_cell_formula_units_Z 48
_cell_length_a 17.638643
_cell_length_b 17.638643
_cell_length_c 9.056385
_cell_angle_alpha 90.000000
_cell_angle_beta 90.000000
_cell_angle_gamma 90.000000
_cell_volume 2817.638141
_symmetry_space_group_name_H-M "P 4 2 2"
_symmetry_group_IT_number 89
_symmetry_cell_setting 'tetragonal'
loop_
_space_group_symop_operation_xyz
x,y,z
-y,x,z
-x,-y,z
y,-x,z
x,-y,-z
-x,y,-z
y,x,-z
-y,-x,-z
loop_
_atom_site_type_symbol
_atom_site_label
_atom_site_fract_x
_atom_site_fract_y
_atom_site_fract_z
Si Si1 0.704350 0.584290 0.207862
Si Si2 0.665839 0.223171 0.953461
Si Si3 0.306502 0.586866 0.283025
Si Si4 0.921170 0.578721 0.926035
Si Si5 0.655361 0.773830 0.527623
Si Si6 0.079495 0.579752 0.427777
O O1 0.723530 0.606288 0.041187
O O2 0.709596 0.495211 0.221868
O O3 0.618163 0.609079 0.250836
O O4 0.767773 0.630818 0.301600
O O5 0.752346 0.247655 0.000000
O O6 0.647802 0.246391 0.785629
O O7 0.647824 0.134470 0.971677
O O8 0.284337 0.593685 0.454433
O O9 0.928522 0.569651 0.749096
O O10 0.892151 0.500000 0.000000
O O11 0.000000 0.601627 0.000000
O O12 0.741185 0.741185 0.500000
O O13 0.644989 0.859576 0.468630
O O14 0.105634 0.500000 0.500000
O O15 0.000000 0.605064 0.500000
#
# Coordination Sequence:
#
# PCOD8304470 Si02
#       6
#     8   8   8   8   8   8
#     4  10  20  29  49  63  93 123 170 206 258 288
#     4  10  21  34  50  69  95 130 168 207 250 301
#     4  10  18  33  43  69  87 127 164 214 250 296
#     4  11  22  35  52  77 104 132 167 209 258 308
#     4  10  21  34  50  69  95 130 168 207 250 301
#     4  11  22  35  52  77 104 132 167 209 258 308
#
# _framework density 17.035543000000001
#
# number of rings (size 3 to 8) (size 9 to 14) (size 15 to 20)
#    0.000    1.667    1.667    5.000    4.667    0.333 
#    0.000    0.000    0.000    6.000    0.000    0.000 
#    0.000    0.667    0.000    3.000    0.000    0.333 
#
# Total GULP energy -594726.777338 kJ/mol
# GULP energy per Si atom -12390.141195 kJ/mol
# Density = 1.699677 g / cm^3
# Si number density = 17.035543 Si / 1000 Ang^3
#
#
#
# Elastic Constant Matrix: (Units=GPa)
#
#
# Indices 1 2 3 4 5 6 
#
# 1 93.0472 45.8289 25.4894 0.0000 0.0000 0.0000
# 2 45.8289 93.0479 25.4894 0.0000 0.0000 0.0000
# 3 25.4894 25.4894 74.6453 0.0000 0.0000 0.0000
# 4 0.0000 0.0000 0.0000 20.5427 0.0000 0.0000
# 5 0.0000 0.0000 0.0000 0.0000 20.5424 0.0000
# 6 0.0000 0.0000 0.0000 0.0000 0.0000 27.2229
#
#
#
# Elastic Compliance Matrix: (Units=1/GPa)
#
#
# Indices 1 2 3 4 5 6 
#
# 1 0.014705 -0.006473 -0.002811 0.000000 0.000000 0.000000
# 2 -0.006473 0.014705 -0.002811 0.000000 0.000000 0.000000
# 3 -0.002811 -0.002811 0.015317 0.000000 0.000000 0.000000
# 4 0.000000 0.000000 0.000000 0.048679 0.000000 0.000000
# 5 0.000000 0.000000 0.000000 0.000000 0.048680 0.000000
# 6 0.000000 0.000000 0.000000 0.000000 0.000000 0.036734
#
#
# Mechanical properties :
#
#
# Convention : Reuss Voigt Hill
#
# Bulk Modulus (GPa) = 48.69276 50.48397 49.58837
# Shear Modulus (GPa) = 23.82586 24.59044 24.20815
#
# Velocity S-wave (km/s) = 3.74384 3.80344 3.77376
# Velocity P-wave (km/s) = 6.87994 6.99907 6.93976
#
# Compressibility (1/GPa) = 0.02053693
#
# Stress axis : x y z
#
# Youngs Moduli (GPa) = 68.00227 68.00286 65.28861
#
# Poissons Ratio (x) = 0.44016 0.18354
# Poissons Ratio (y) = 0.44016 0.18354
# Poissons Ratio (z) = 0.19117 0.19117
#
# Static dielectric constant tensor:
#      x y z
#    x 3.041020 0.000000 0.000000 
#    y 0.000000 3.041010 0.000000 
#    z 0.000000 0.000000 3.458650 
# 
# 
# High freq. dielectric constant tensor:
#      x y z
#    x 1.622190 0.000000 0.000000 
#    y 0.000000 1.622190 0.000000 
#    z 0.000000 0.000000 1.692700 
# 
# From -- ./inp_files/1180.got.cif
#   From: 2010.03.12/outbox.cif.g09.slc.cpg/sg89_1_cif.got.tgz:1180.got - 2010.04.08 20:24:03.
