data_PCOD8304484
_publ_section_title
;
Structure prediction by ZEFSAII (Michael W. Deem and Ramdas Pophale) SiO2 
 PCOD8304484
Probable space group: P 4 2 2
;
_chemical_formula_sum "Si O2"
_cell_formula_units_Z 48
_cell_length_a 13.779182
_cell_length_b 13.779182
_cell_length_c 11.764242
_cell_angle_alpha 90.000000
_cell_angle_beta 90.000000
_cell_angle_gamma 90.000000
_cell_volume 2233.627884
_symmetry_space_group_name_H-M "P 4 2 2"
_symmetry_group_IT_number 89
_symmetry_cell_setting 'tetragonal'
loop_
_space_group_symop_operation_xyz
x,y,z
-y,x,z
-x,-y,z
y,-x,z
x,-y,-z
-x,y,-z
y,x,-z
-y,-x,-z
loop_
_atom_site_type_symbol
_atom_site_label
_atom_site_fract_x
_atom_site_fract_y
_atom_site_fract_z
Si Si1 0.904269 0.230602 0.060494
Si Si2 0.000000 0.158920 0.500000
Si Si3 0.174946 0.648513 0.703559
Si Si4 0.671899 0.286163 0.885664
Si Si5 0.219415 0.570959 0.322462
Si Si6 0.707662 0.964466 0.291287
Si Si7 0.710639 0.289362 0.500000
O O1 0.818795 0.309647 0.055248
O O2 0.930141 0.217781 0.193337
O O3 0.870043 0.129958 0.000000
O O4 0.000000 0.272057 0.000000
O O5 0.004550 0.227136 0.606495
O O6 0.904080 0.095921 0.500000
O O7 0.234042 0.679686 0.815032
O O8 0.201612 0.541534 0.659990
O O9 0.202205 0.717076 0.594154
O O10 0.063002 0.650424 0.740851
O O11 0.582867 0.277985 0.797460
O O12 0.648868 0.351133 0.000000
O O13 0.118728 0.630403 0.320924
O O14 0.284319 0.610746 0.427221
#
# Coordination Sequence:
#
# PCOD8304484 Si02
#       7
#     8   4   8   8   8   8   4
#     4  10  21  37  58  86 119 166 213 254 299 351
#     4  11  28  40  55  84 126 172 209 252 310 363
#     4  11  22  39  63  90 125 156 206 261 320 380
#     4   9  20  38  61  89 121 163 202 248 316 385
#     4  10  22  38  62  94 119 160 202 260 321 375
#     4  11  23  37  65  86 127 158 212 260 308 375
#     4  10  22  38  60  85 119 162 200 250 316 390
#
# _framework density 21.489704
#
# number of rings (size 3 to 8) (size 9 to 14) (size 15 to 20)
#    0.000    1.750    0.000    4.000   11.667    0.833 
#    0.000    2.500    0.000   25.500    0.000    4.667 
#    0.000    0.000    0.000    0.000    0.000    0.000 
#
# Total GULP energy -594781.754981 kJ/mol
# GULP energy per Si atom -12391.286562 kJ/mol
# Density = 2.144079 g / cm^3
# Si number density = 21.489704 Si / 1000 Ang^3
#
#
#
# Elastic Constant Matrix: (Units=GPa)
#
#
# Indices 1 2 3 4 5 6 
#
# 1 81.0190 29.2052 27.1041 0.0000 0.0000 0.0000
# 2 29.2052 81.0191 27.1046 0.0000 0.0000 0.0000
# 3 27.1041 27.1046 150.2793 0.0000 0.0000 0.0000
# 4 0.0000 0.0000 0.0000 26.7878 0.0000 0.0000
# 5 0.0000 0.0000 0.0000 0.0000 26.7879 0.0000
# 6 0.0000 0.0000 0.0000 0.0000 0.0000 17.3187
#
#
#
# Elastic Compliance Matrix: (Units=1/GPa)
#
#
# Indices 1 2 3 4 5 6 
#
# 1 0.014628 -0.004672 -0.001796 0.000000 0.000000 0.000000
# 2 -0.004672 0.014628 -0.001796 0.000000 0.000000 0.000000
# 3 -0.001796 -0.001796 0.007302 0.000000 0.000000 0.000000
# 4 0.000000 0.000000 0.000000 0.037330 0.000000 0.000000
# 5 0.000000 0.000000 0.000000 0.000000 0.037330 0.000000
# 6 0.000000 0.000000 0.000000 0.000000 0.000000 0.057741
#
#
# Mechanical properties :
#
#
# Convention : Reuss Voigt Hill
#
# Bulk Modulus (GPa) = 49.92344 53.23833 51.58089
# Shear Modulus (GPa) = 26.01962 29.43911 27.72937
#
# Velocity S-wave (km/s) = 3.48342 3.70525 3.59605
# Velocity P-wave (km/s) = 6.28178 6.56756 6.42626
#
# Compressibility (1/GPa) = 0.02003067
#
# Stress axis : x y z
#
# Youngs Moduli (GPa) = 68.36362 68.36356 136.94927
#
# Poissons Ratio (x) = 0.31941 0.24590
# Poissons Ratio (y) = 0.31941 0.24591
# Poissons Ratio (z) = 0.12275 0.12275
#
# Static dielectric constant tensor:
#      x y z
#    x 3.806270 0.000000 0.000000 
#    y 0.000000 3.806270 0.000000 
#    z 0.000000 0.000000 4.406110 
# 
# 
# High freq. dielectric constant tensor:
#      x y z
#    x 1.820900 0.000000 0.000000 
#    y 0.000000 1.820900 0.000000 
#    z 0.000000 0.000000 1.873080 
# 
# From -- ./inp_files/1814.got.cif
#   From: 2010.03.12/outbox.cif.g09.slc.cpg/sg89_1_cif.got.tgz:1814.got - 2010.04.08 20:24:03.
