data_PCOD8304007
_publ_section_title
;
Structure prediction by ZEFSAII (Michael W. Deem and Ramdas Pophale) SiO2 
 PCOD8304007
Probable space group: I 4/M
;
_chemical_formula_sum "Si O2"
_cell_formula_units_Z 80
_cell_length_a 12.458792
_cell_length_b 12.458792
_cell_length_c 27.272445
_cell_angle_alpha 90.000000
_cell_angle_beta 90.000000
_cell_angle_gamma 90.000000
_cell_volume 4233.269770
_symmetry_space_group_name_H-M "I 4/M"
_symmetry_group_IT_number 87
_symmetry_cell_setting 'tetragonal'
loop_
_space_group_symop_operation_xyz
x,y,z
-y,x,z
-x,-y,z
y,-x,z
-x,-y,-z
y,-x,-z
x,y,-z
-y,x,-z
1/2+x,1/2+y,1/2+z
1/2-y,1/2+x,1/2+z
1/2-x,1/2-y,1/2+z
1/2+y,1/2-x,1/2+z
1/2-x,1/2-y,1/2-z
1/2+y,1/2-x,1/2-z
1/2+x,1/2+y,1/2-z
1/2-y,1/2+x,1/2-z
loop_
_atom_site_type_symbol
_atom_site_label
_atom_site_fract_x
_atom_site_fract_y
_atom_site_fract_z
Si Si1 0.339078 0.962973 0.231938
Si Si2 0.225544 0.610327 0.093874
Si Si3 0.996038 0.626366 0.877577
Si Si4 0.832785 0.056857 0.693519
Si Si5 0.295655 0.122879 0.443951
O O1 0.430013 0.872794 0.238566
O O2 0.315767 0.984557 0.174828
O O3 0.228272 0.921275 0.255452
O O4 0.252483 0.581882 0.149632
O O5 0.230710 0.502625 0.061714
O O6 0.308580 0.692453 0.070685
O O7 0.105614 0.660789 0.094724
O O8 0.896363 0.659561 0.911304
O O9 0.000000 0.500000 0.867433
O O10 0.933347 0.134410 0.690075
O O11 0.325629 0.146056 0.500000
#
# Coordination Sequence:
#
# PCOD8304007 Si02
#       5
#    16  16  16  16  16
#     4  11  19  34  58  86 112 149 196 230 276 346
#     4  11  21  39  60  86 119 155 195 243 298 350
#     4  10  21  38  60  87 118 151 200 248 288 346
#     4  11  23  37  54  84 125 157 184 232 294 358
#     4  11  24  39  60  87 116 155 200 246 300 349
#
# _framework density 18.897922999999999
#
# number of rings (size 3 to 8) (size 9 to 14) (size 15 to 20)
#    0.000    1.200    6.000    1.800    0.000    7.200 
#    0.000    1.000    0.000    0.600    0.000    1.400 
#    0.000    0.000    0.000    0.000    0.000    0.000 
#
# Total GULP energy -496184.556087 kJ/mol
# GULP energy per Si atom -12404.613902 kJ/mol
# Density = 1.885491 g / cm^3
# Si number density = 18.897923 Si / 1000 Ang^3
#
#
#
# Elastic Constant Matrix: (Units=GPa)
#
#
# Indices 1 2 3 4 5 6 
#
# 1 79.8934 37.6490 35.9491 0.0000 0.0000 2.9660
# 2 37.6490 79.8934 35.9491 0.0000 0.0000 -2.9660
# 3 35.9491 35.9491 119.3447 0.0000 0.0000 0.0000
# 4 0.0000 0.0000 0.0000 19.1999 0.0000 0.0000
# 5 0.0000 0.0000 0.0000 0.0000 19.1999 0.0000
# 6 2.9660 -2.9660 0.0000 0.0000 0.0000 7.3703
#
#
#
# Elastic Compliance Matrix: (Units=1/GPa)
#
#
# Indices 1 2 3 4 5 6 
#
# 1 0.017759 -0.007330 -0.003141 0.000000 0.000000 -0.010097
# 2 -0.007330 0.017759 -0.003141 0.000000 0.000000 0.010097
# 3 -0.003141 -0.003141 0.010272 0.000000 0.000000 0.000000
# 4 0.000000 0.000000 0.000000 0.052084 0.000000 0.000000
# 5 0.000000 0.000000 0.000000 0.000000 0.052084 0.000000
# 6 -0.010097 0.010097 0.000000 0.000000 0.000000 0.143806
#
#
# Mechanical properties :
#
#
# Convention : Reuss Voigt Hill
#
# Bulk Modulus (GPa) = 53.86758 55.35841 54.61299
# Shear Modulus (GPa) = 15.28220 20.45964 17.87092
#
# Velocity S-wave (km/s) = 2.84680 3.29392 3.07849
# Velocity P-wave (km/s) = 6.27472 6.61993 6.44963
#
# Compressibility (1/GPa) = 0.01856404
#
# Stress axis : x y z
#
# Youngs Moduli (GPa) = 56.30836 56.30836 97.35545
#
# Poissons Ratio (x) = 0.41275 0.30584
# Poissons Ratio (y) = 0.41275 0.30584
# Poissons Ratio (z) = 0.17689 0.17689
#
# Static dielectric constant tensor:
#      x y z
#    x 3.446510 0.000000 0.000000 
#    y 0.000000 3.446510 0.000000 
#    z 0.000000 0.000000 3.428850 
# 
# 
# High freq. dielectric constant tensor:
#      x y z
#    x 1.724550 0.000000 0.000000 
#    y 0.000000 1.724550 0.000000 
#    z 0.000000 0.000000 1.738590 
# 
# From -- ./inp_files/6488.got.cif
#   From: 2010.03.12/outbox.cif.g09.slc.cpg/sg87_4_cif.got.tgz:6488.got - 2010.04.08 20:16:13.
