data_PCOD8304099
_publ_section_title
;
Structure prediction by ZEFSAII (Michael W. Deem and Ramdas Pophale) SiO2 
 PCOD8304099
Probable space group: I 4/M
;
_chemical_formula_sum "Si O2"
_cell_formula_units_Z 72
_cell_length_a 14.487031
_cell_length_b 14.487031
_cell_length_c 15.892211
_cell_angle_alpha 90.000000
_cell_angle_beta 90.000000
_cell_angle_gamma 90.000000
_cell_volume 3335.362959
_symmetry_space_group_name_H-M "I 4/M"
_symmetry_group_IT_number 87
_symmetry_cell_setting 'tetragonal'
loop_
_space_group_symop_operation_xyz
x,y,z
-y,x,z
-x,-y,z
y,-x,z
-x,-y,-z
y,-x,-z
x,y,-z
-y,x,-z
1/2+x,1/2+y,1/2+z
1/2-y,1/2+x,1/2+z
1/2-x,1/2-y,1/2+z
1/2+y,1/2-x,1/2+z
1/2-x,1/2-y,1/2-z
1/2+y,1/2-x,1/2-z
1/2+x,1/2+y,1/2-z
1/2-y,1/2+x,1/2-z
loop_
_atom_site_type_symbol
_atom_site_label
_atom_site_fract_x
_atom_site_fract_y
_atom_site_fract_z
Si Si1 0.868523 0.922541 0.321200
Si Si2 0.898431 0.609326 0.752102
Si Si3 0.577469 0.368779 0.000000
Si Si4 0.606659 0.270351 0.346913
Si Si5 0.242096 0.596956 0.594831
O O1 0.820919 0.893947 0.411475
O O2 0.806457 0.883666 0.248112
O O3 0.967854 0.875790 0.312863
O O4 0.876279 0.503408 0.776315
O O5 0.837051 0.635360 0.669056
O O6 0.875423 0.666309 0.836242
O O7 0.622652 0.468446 0.000000
O O8 0.676292 0.327138 0.405037
O O9 0.504956 0.282474 0.385814
O O10 0.200377 0.596789 0.500000
#
# Coordination Sequence:
#
# PCOD8304099 Si02
#       5
#    16  16   8  16  16
#     4   9  15  27  47  79 119 162 195 224 283 361
#     4   9  21  43  66  82 106 156 215 257 301 342
#     4   7  12  22  40  66 108 155 195 231 255 317
#     4  11  20  36  61  88 126 164 191 233 303 369
#     4  11  23  39  60  93 124 155 198 248 295 362
#
# _framework density 21.586857999999999
#
# number of rings (size 3 to 8) (size 9 to 14) (size 15 to 20)
#    0.000    2.333    2.222    2.667    0.000    0.444 
#    2.000   11.111    0.000    0.000    0.000    0.000 
#    0.000    0.000    0.000    0.000    0.000    0.000 
#
# Total GULP energy -446035.752154 kJ/mol
# GULP energy per Si atom -12389.882004 kJ/mol
# Density = 2.153773 g / cm^3
# Si number density = 21.586858 Si / 1000 Ang^3
#
#
#
# Elastic Constant Matrix: (Units=GPa)
#
#
# Indices 1 2 3 4 5 6 
#
# 1 637.5306 -532.7021 20.7921 -0.0001 0.0000 -407.5636
# 2 -532.7021 637.5307 20.7922 0.0001 0.0000 407.5636
# 3 20.7921 20.7922 110.4238 0.0000 0.0000 0.0000
# 4 -0.0001 0.0001 0.0000 20.4335 0.0000 0.0001
# 5 0.0000 0.0000 0.0000 0.0000 20.4335 0.0000
# 6 -407.5636 407.5636 0.0000 0.0001 0.0000 321.4025
#
#
#
# Elastic Compliance Matrix: (Units=1/GPa)
#
#
# Indices 1 2 3 4 5 6 
#
# 1 0.008815 0.001494 -0.001941 0.000000 0.000000 0.009284
# 2 0.001494 0.008815 -0.001941 0.000000 0.000000 -0.009284
# 3 -0.001941 -0.001941 0.009787 0.000000 0.000000 0.000000
# 4 0.000000 0.000000 0.000000 0.048939 0.000000 0.000000
# 5 0.000000 0.000000 0.000000 0.000000 0.048939 0.000000
# 6 0.009284 -0.009284 0.000000 0.000000 0.000000 0.026657
#
#
# Mechanical properties :
#
#
# Convention : Reuss Voigt Hill
#
# Bulk Modulus (GPa) = 44.16745 44.80550 44.48648
# Shear Modulus (GPa) = 30.43638 197.56076 113.99857
#
# Velocity S-wave (km/s) = 3.75900 9.57693 7.27488
# Velocity P-wave (km/s) = 6.27255 11.96207 9.55081
#
# Compressibility (1/GPa) = 0.02264111
#
# Stress axis : x y z
#
# Youngs Moduli (GPa) = 113.43819 113.43820 102.17575
#
# Poissons Ratio (x) = -0.16948 0.19834
# Poissons Ratio (y) = -0.16948 0.19834
# Poissons Ratio (z) = 0.22021 0.22021
#
# Static dielectric constant tensor:
#      x y z
#    x 3.874780 0.000000 0.000000 
#    y 0.000000 3.874780 0.000000 
#    z 0.000000 0.000000 4.077120 
# 
# 
# High freq. dielectric constant tensor:
#      x y z
#    x 1.836060 0.000000 0.000000 
#    y 0.000000 1.836060 0.000000 
#    z 0.000000 0.000000 1.847430 
# 
# From -- ./inp_files/4264.got.cif
#   From: 2010.03.12/outbox.cif.g09.slc.cpg/sg87_3_cif.got.tgz:4264.got - 2010.04.08 20:16:13.
