data_PCOD8304275
_publ_section_title
;
Structure prediction by ZEFSAII (Michael W. Deem and Ramdas Pophale) SiO2 
 PCOD8304275
Probable space group: I 41/A
;
_chemical_formula_sum "Si O2"
_cell_formula_units_Z 64
_cell_length_a 22.176616
_cell_length_b 22.176616
_cell_length_c 6.870791
_cell_angle_alpha 90.000000
_cell_angle_beta 90.000000
_cell_angle_gamma 90.000000
_cell_volume 3379.070797
_symmetry_space_group_name_H-M "I 41/A"
_symmetry_group_IT_number 88
_space_group.IT_coordinate_system_code '2'
_symmetry_cell_setting 'tetragonal'
loop_
_space_group_symop_operation_xyz
x,y,z
3/4-y,1/4+x,1/4+z
-x,1/2-y,z
1/4+y,1/4-x,1/4+z
-x,-y,-z
1/4+y,3/4-x,3/4-z
x,1/2+y,-z
3/4-y,3/4+x,3/4-z
1/2+x,1/2+y,1/2+z
1/4-y,3/4+x,3/4+z
1/2-x,-y,1/2+z
3/4+y,3/4-x,3/4+z
1/2-x,1/2-y,1/2-z
3/4+y,1/4-x,1/4-z
1/2+x,y,1/2-z
1/4-y,1/4+x,1/4-z
loop_
_atom_site_type_symbol
_atom_site_label
_atom_site_fract_x
_atom_site_fract_y
_atom_site_fract_z
Si Si1 0.535044 0.342259 0.367161
Si Si2 0.305450 0.298166 0.071481
Si Si3 0.107736 0.414445 0.423607
Si Si4 0.773793 0.165237 0.415144
O O1 0.576099 0.284464 0.406300
O O2 0.544687 0.384788 0.550339
O O3 0.553796 0.374918 0.167648
O O4 0.250259 0.326426 0.194554
O O5 0.288355 0.231333 0.996599
O O6 0.318509 0.342067 0.893121
O O7 0.168556 0.376815 0.412663
O O8 0.117414 0.475000 0.300427
#
# Coordination Sequence:
#
# PCOD8304275 Si02
#       4
#    16  16  16  16
#     4  10  21  36  59  95 131 158 200 260 308 366
#     4  10  22  41  66  87 128 163 202 255 306 374
#     4  11  23  40  66  90 122 168 210 250 311 371
#     4  10  23  43  59  95 123 162 209 254 306 362
#
# _framework density 18.940117999999998
#
# number of rings (size 3 to 8) (size 9 to 14) (size 15 to 20)
#    0.000    1.750    2.500    0.750    3.500    4.000 
#    4.500    2.500    0.000    0.000    0.000    0.000 
#    0.000    0.000    0.000    0.000    0.000    0.000 
#
# Total GULP energy -396939.542533 kJ/mol
# GULP energy per Si atom -12404.360704 kJ/mol
# Density = 1.889701 g / cm^3
# Si number density = 18.940118 Si / 1000 Ang^3
#
#
#
# Elastic Constant Matrix: (Units=GPa)
#
#
# Indices 1 2 3 4 5 6 
#
# 1 92.4341 62.4233 56.1199 0.0000 0.0000 -18.0745
# 2 62.4233 92.4341 56.1199 0.0000 0.0000 18.0745
# 3 56.1199 56.1199 80.4256 0.0000 0.0000 0.0000
# 4 0.0000 0.0000 0.0000 16.3214 0.0000 0.0000
# 5 0.0000 0.0000 0.0000 0.0000 16.3214 0.0000
# 6 -18.0745 18.0745 0.0000 0.0000 0.0000 32.6836
#
#
#
# Elastic Compliance Matrix: (Units=1/GPa)
#
#
# Indices 1 2 3 4 5 6 
#
# 1 0.056433 -0.043367 -0.009117 0.000000 0.000000 0.055191
# 2 -0.043367 0.056433 -0.009117 0.000000 0.000000 -0.055191
# 3 -0.009117 -0.009117 0.025157 0.000000 0.000000 0.000000
# 4 0.000000 0.000000 0.000000 0.061269 0.000000 0.000000
# 5 0.000000 0.000000 0.000000 0.000000 0.061269 0.000000
# 6 0.055191 -0.055191 0.000000 0.000000 0.000000 0.091639
#
#
# Mechanical properties :
#
#
# Convention : Reuss Voigt Hill
#
# Bulk Modulus (GPa) = 67.47430 68.29112 67.88271
# Shear Modulus (GPa) = 10.40922 19.10731 14.75826
#
# Velocity S-wave (km/s) = 2.34687 3.17965 2.79446
# Velocity P-wave (km/s) = 6.56095 7.04378 6.80665
#
# Compressibility (1/GPa) = 0.01482046
#
# Stress axis : x y z
#
# Youngs Moduli (GPa) = 17.72015 17.72015 39.75011
#
# Poissons Ratio (x) = 0.76848 0.36240
# Poissons Ratio (y) = 0.76848 0.36240
# Poissons Ratio (z) = 0.16155 0.16155
#
# Static dielectric constant tensor:
#      x y z
#    x 3.575940 0.000000 0.000000 
#    y 0.000000 3.575940 0.000000 
#    z 0.000000 0.000000 3.282070 
# 
# 
# High freq. dielectric constant tensor:
#      x y z
#    x 1.744640 0.000000 0.000000 
#    y 0.000000 1.744640 0.000000 
#    z 0.000000 0.000000 1.731710 
# 
# From -- ./inp_files/554.got.cif
#   From: 2010.03.12/outbox.cif.g09.slc.cpg/sg88_1_cif.got.tgz:554.got - 2010.04.08 20:20:55.
