data_PCOD8304159
_publ_section_title
;
Structure prediction by ZEFSAII (Michael W. Deem and Ramdas Pophale) SiO2 
 PCOD8304159
Probable space group: I 4/M
;
_chemical_formula_sum "Si O2"
_cell_formula_units_Z 48
_cell_length_a 10.162534
_cell_length_b 10.162534
_cell_length_c 18.060509
_cell_angle_alpha 90.000000
_cell_angle_beta 90.000000
_cell_angle_gamma 90.000000
_cell_volume 1865.236945
_symmetry_space_group_name_H-M "I 4/M"
_symmetry_group_IT_number 87
_symmetry_cell_setting 'tetragonal'
loop_
_space_group_symop_operation_xyz
x,y,z
-y,x,z
-x,-y,z
y,-x,z
-x,-y,-z
y,-x,-z
x,y,-z
-y,x,-z
1/2+x,1/2+y,1/2+z
1/2-y,1/2+x,1/2+z
1/2-x,1/2-y,1/2+z
1/2+y,1/2-x,1/2+z
1/2-x,1/2-y,1/2-z
1/2+y,1/2-x,1/2-z
1/2+x,1/2+y,1/2-z
1/2-y,1/2+x,1/2-z
loop_
_atom_site_type_symbol
_atom_site_label
_atom_site_fract_x
_atom_site_fract_y
_atom_site_fract_z
Si Si1 0.780216 0.693191 0.417524
Si Si2 0.705714 0.556346 0.273554
Si Si3 0.851927 0.549594 0.130006
O O1 0.767824 0.633058 0.500000
O O2 0.750115 0.575443 0.358626
O O3 0.682704 0.817512 0.413630
O O4 0.930582 0.739843 0.400612
O O5 0.591098 0.659902 0.258313
O O6 0.824814 0.583839 0.216659
O O7 0.000000 0.500000 0.116586
#
# Coordination Sequence:
#
# PCOD8304159 Si02
#       3
#    16  16  16
#     4  12  28  48  75 115 158 201 257 319 387 458
#     4  11  25  47  76 112 150 202 258 315 381 458
#     4  12  27  47  80 112 153 208 259 314 384 458
#
# _framework density 25.733995
#
# number of rings (size 3 to 8) (size 9 to 14) (size 15 to 20)
#    0.000    0.333    3.333    4.000    4.667    7.333 
#    0.000    3.333    0.000    0.000    0.000    0.000 
#    0.000    0.000    0.000    0.000    0.000    0.000 
#
# Total GULP energy -297535.762534 kJ/mol
# GULP energy per Si atom -12397.323439 kJ/mol
# Density = 2.567542 g / cm^3
# Si number density = 25.733995 Si / 1000 Ang^3
#
#
#
# Elastic Constant Matrix: (Units=GPa)
#
#
# Indices 1 2 3 4 5 6 
#
# 1 93.5610 11.0095 23.0924 0.0000 0.0000 -26.0361
# 2 11.0095 93.5610 23.0924 0.0000 0.0000 26.0361
# 3 23.0924 23.0924 199.2954 0.0000 0.0000 0.0000
# 4 0.0000 0.0000 0.0000 33.4908 0.0000 0.0000
# 5 0.0000 0.0000 0.0000 0.0000 33.4908 0.0000
# 6 -26.0361 26.0361 0.0000 0.0000 0.0000 27.0230
#
#
#
# Elastic Compliance Matrix: (Units=1/GPa)
#
#
# Indices 1 2 3 4 5 6 
#
# 1 0.020481 -0.010402 -0.001168 0.000000 0.000000 0.029755
# 2 -0.010402 0.020481 -0.001168 0.000000 0.000000 -0.029755
# 3 -0.001168 -0.001168 0.005288 0.000000 0.000000 0.000000
# 4 0.000000 0.000000 0.000000 0.029859 0.000000 0.000000
# 5 0.000000 0.000000 0.000000 0.000000 0.029859 0.000000
# 6 0.029755 -0.029755 0.000000 0.000000 0.000000 0.094342
#
#
# Mechanical properties :
#
#
# Convention : Reuss Voigt Hill
#
# Bulk Modulus (GPa) = 48.13609 55.64514 51.89062
# Shear Modulus (GPa) = 21.48606 40.74911 31.11759
#
# Velocity S-wave (km/s) = 2.89265 3.98361 3.48113
# Velocity P-wave (km/s) = 5.46831 6.54438 6.03040
#
# Compressibility (1/GPa) = 0.02077443
#
# Stress axis : x y z
#
# Youngs Moduli (GPa) = 48.82672 48.82672 189.09634
#
# Poissons Ratio (x) = 0.50789 0.22083
# Poissons Ratio (y) = 0.50789 0.22083
# Poissons Ratio (z) = 0.05702 0.05702
#
# Static dielectric constant tensor:
#      x y z
#    x 4.944910 0.000000 0.000000 
#    y 0.000000 4.944910 0.000000 
#    z 0.000000 0.000000 4.497550 
# 
# 
# High freq. dielectric constant tensor:
#      x y z
#    x 2.038960 0.000000 0.000000 
#    y 0.000000 2.038960 0.000000 
#    z 0.000000 0.000000 2.022730 
# 
# From -- ./inp_files/4072.got.cif
#   From: 2010.03.12/outbox.cif.g09.slc.cpg/sg87_3_cif.got.tgz:4072.got - 2010.04.08 20:16:13.
