data_PCOD8304318
_publ_section_title
;
Structure prediction by ZEFSAII (Michael W. Deem and Ramdas Pophale) SiO2 
 PCOD8304318
Probable space group: I 41/A
;
_chemical_formula_sum "Si O2"
_cell_formula_units_Z 96
_cell_length_a 15.777505
_cell_length_b 15.777505
_cell_length_c 19.213090
_cell_angle_alpha 90.000000
_cell_angle_beta 90.000000
_cell_angle_gamma 90.000000
_cell_volume 4782.708039
_symmetry_space_group_name_H-M "I 41/A"
_symmetry_group_IT_number 88
_space_group.IT_coordinate_system_code '2'
_symmetry_cell_setting 'tetragonal'
loop_
_space_group_symop_operation_xyz
x,y,z
3/4-y,1/4+x,1/4+z
-x,1/2-y,z
1/4+y,1/4-x,1/4+z
-x,-y,-z
1/4+y,3/4-x,3/4-z
x,1/2+y,-z
3/4-y,3/4+x,3/4-z
1/2+x,1/2+y,1/2+z
1/4-y,3/4+x,3/4+z
1/2-x,-y,1/2+z
3/4+y,3/4-x,3/4+z
1/2-x,1/2-y,1/2-z
3/4+y,1/4-x,1/4-z
1/2+x,y,1/2-z
1/4-y,1/4+x,1/4-z
loop_
_atom_site_type_symbol
_atom_site_label
_atom_site_fract_x
_atom_site_fract_y
_atom_site_fract_z
Si Si1 0.066532 0.489869 0.939595
Si Si2 0.806922 0.005444 0.228350
Si Si3 0.247327 0.725492 0.393430
Si Si4 0.495897 0.965908 0.298520
Si Si5 0.568410 0.818974 0.374748
Si Si6 0.338725 0.945980 0.124127
O O1 0.086858 0.389025 0.934907
O O2 0.029323 0.520582 0.864643
O O3 0.147585 0.546884 0.955891
O O4 0.000000 0.500000 0.000000
O O5 0.894303 0.966565 0.200238
O O6 0.730798 0.950151 0.197209
O O7 0.802725 0.001655 0.311905
O O8 0.255430 0.719559 0.477166
O O9 0.341210 0.724990 0.359310
O O10 0.199363 0.810208 0.370252
O O11 0.190309 0.650077 0.363721
O O12 0.529647 0.868303 0.307133
O O13 0.500000 0.750000 0.400574
#
# Coordination Sequence:
#
# PCOD8304318 Si02
#       6
#    16  16  16  16  16  16
#     4  10  22  38  68  96 125 168 213 268 325 395
#     4  11  22  42  68  95 134 173 222 264 338 396
#     4  11  24  44  64  98 131 173 223 270 331 391
#     4   9  23  40  62  95 129 169 211 274 322 393
#     4  10  22  41  67  92 127 169 214 269 329 389
#     4  11  25  41  67  94 131 177 219 276 326 402
#
# _framework density 20.072310000000002
#
# number of rings (size 3 to 8) (size 9 to 14) (size 15 to 20)
#    1.000    0.667    1.667    2.000    9.333    2.333 
#    6.000    0.000    0.000    0.000    0.000    0.000 
#    0.000    0.000    0.000    0.000    0.000    0.000 
#
# Total GULP energy -595070.139402 kJ/mol
# GULP energy per Si atom -12397.294571 kJ/mol
# Density = 2.002662 g / cm^3
# Si number density = 20.072310 Si / 1000 Ang^3
#
#
#
# Elastic Constant Matrix: (Units=GPa)
#
#
# Indices 1 2 3 4 5 6 
#
# 1 119.8440 55.1694 14.1337 0.0000 0.0000 5.0526
# 2 55.1694 119.8440 14.1337 0.0000 0.0000 -5.0526
# 3 14.1337 14.1337 42.7069 0.0000 0.0000 0.0000
# 4 0.0000 0.0000 0.0000 30.4699 0.0000 0.0000
# 5 0.0000 0.0000 0.0000 0.0000 30.4699 0.0000
# 6 5.0526 -5.0526 0.0000 0.0000 0.0000 40.9003
#
#
#
# Elastic Compliance Matrix: (Units=1/GPa)
#
#
# Indices 1 2 3 4 5 6 
#
# 1 0.010901 -0.004865 -0.001998 0.000000 0.000000 -0.001948
# 2 -0.004865 0.010901 -0.001998 0.000000 0.000000 0.001948
# 3 -0.001998 -0.001998 0.024738 0.000000 0.000000 0.000000
# 4 0.000000 0.000000 0.000000 0.032819 0.000000 0.000000
# 5 0.000000 0.000000 0.000000 0.000000 0.032819 0.000000
# 6 -0.001948 0.001948 0.000000 0.000000 0.000000 0.024931
#
#
# Mechanical properties :
#
#
# Convention : Reuss Voigt Hill
#
# Bulk Modulus (GPa) = 34.69850 49.91872 42.30861
# Shear Modulus (GPa) = 30.40667 33.63187 32.01927
#
# Velocity S-wave (km/s) = 3.89634 4.09777 3.99832
# Velocity P-wave (km/s) = 6.12913 6.87840 6.51455
#
# Compressibility (1/GPa) = 0.02881969
#
# Stress axis : x y z
#
# Youngs Moduli (GPa) = 91.73108 91.73108 40.42413
#
# Poissons Ratio (x) = 0.44626 0.08076
# Poissons Ratio (y) = 0.44626 0.08076
# Poissons Ratio (z) = 0.18326 0.18326
#
# Static dielectric constant tensor:
#      x y z
#    x 3.670310 0.000000 0.000000 
#    y 0.000000 3.670310 0.000000 
#    z 0.000000 0.000000 3.558730 
# 
# 
# High freq. dielectric constant tensor:
#      x y z
#    x 1.784490 0.000000 0.000000 
#    y 0.000000 1.784490 0.000000 
#    z 0.000000 0.000000 1.773620 
# 
# From -- ./inp_files/4709.got.cif
#   From: 2010.03.12/outbox.cif.g09.slc.cpg/sg88_3_cif.got.tgz:4709.got - 2010.04.08 20:20:55.
