data_PCOD8304286
_publ_section_title
;
Structure prediction by ZEFSAII (Michael W. Deem and Ramdas Pophale) SiO2 
 PCOD8304286
Probable space group: I 41/A
;
_chemical_formula_sum "Si O2"
_cell_formula_units_Z 56
_cell_length_a 12.691728
_cell_length_b 12.691728
_cell_length_c 15.414713
_cell_angle_alpha 90.000000
_cell_angle_beta 90.000000
_cell_angle_gamma 90.000000
_cell_volume 2483.001348
_symmetry_space_group_name_H-M "I 41/A"
_symmetry_group_IT_number 88
_space_group.IT_coordinate_system_code '2'
_symmetry_cell_setting 'tetragonal'
loop_
_space_group_symop_operation_xyz
x,y,z
3/4-y,1/4+x,1/4+z
-x,1/2-y,z
1/4+y,1/4-x,1/4+z
-x,-y,-z
1/4+y,3/4-x,3/4-z
x,1/2+y,-z
3/4-y,3/4+x,3/4-z
1/2+x,1/2+y,1/2+z
1/4-y,3/4+x,3/4+z
1/2-x,-y,1/2+z
3/4+y,3/4-x,3/4+z
1/2-x,1/2-y,1/2-z
3/4+y,1/4-x,1/4-z
1/2+x,y,1/2-z
1/4-y,1/4+x,1/4-z
loop_
_atom_site_type_symbol
_atom_site_label
_atom_site_fract_x
_atom_site_fract_y
_atom_site_fract_z
Si Si1 0.000000 0.250000 0.322783
Si Si2 0.840059 0.109282 0.412001
Si Si3 0.934656 0.615532 0.919763
Si Si4 0.851901 0.665060 0.394708
O O1 0.949291 0.162047 0.383666
O O2 0.908564 0.309790 0.268037
O O3 0.750126 0.135886 0.340556
O O4 0.810377 0.152745 0.506663
O O5 0.858442 0.983828 0.416494
O O6 0.863761 0.695046 0.863680
O O7 0.857871 0.787467 0.369936
#
# Coordination Sequence:
#
# PCOD8304286 Si02
#       4
#     8  16  16  16
#     4  10  21  38  63 100 136 166 214 272 319 380
#     4  12  24  42  70  95 127 177 216 267 326 383
#     4   9  20  39  61  96 134 167 214 269 323 384
#     4  11  26  46  64  94 131 168 217 269 325 390
#
# _framework density 22.553349000000001
#
# number of rings (size 3 to 8) (size 9 to 14) (size 15 to 20)
#    0.000    1.714    0.000    6.857    0.000    6.857 
#    0.000    0.000    0.000    0.000    0.000    0.000 
#    0.000    0.000    0.000    0.000    0.000    0.000 
#
# Total GULP energy -347265.632561 kJ/mol
# GULP energy per Si atom -12402.344020 kJ/mol
# Density = 2.250202 g / cm^3
# Si number density = 22.553349 Si / 1000 Ang^3
#
#
#
# Elastic Constant Matrix: (Units=GPa)
#
#
# Indices 1 2 3 4 5 6 
#
# 1 110.9608 56.9134 8.4510 0.0000 0.0000 2.5010
# 2 56.9134 110.9608 8.4510 0.0000 0.0000 -2.5010
# 3 8.4510 8.4510 71.1901 0.0000 0.0000 0.0000
# 4 0.0000 0.0000 0.0000 27.5169 0.0000 0.0000
# 5 0.0000 0.0000 0.0000 0.0000 27.5169 0.0000
# 6 2.5010 -2.5010 0.0000 0.0000 0.0000 29.7926
#
#
#
# Elastic Compliance Matrix: (Units=1/GPa)
#
#
# Indices 1 2 3 4 5 6 
#
# 1 0.012338 -0.006309 -0.000716 0.000000 0.000000 -0.001565
# 2 -0.006309 0.012338 -0.000716 0.000000 0.000000 0.001565
# 3 -0.000716 -0.000716 0.014217 0.000000 0.000000 0.000000
# 4 0.000000 0.000000 0.000000 0.036341 0.000000 0.000000
# 5 0.000000 0.000000 0.000000 0.000000 0.036341 0.000000
# 6 -0.001565 0.001565 0.000000 0.000000 0.000000 0.033828
#
#
# Mechanical properties :
#
#
# Convention : Reuss Voigt Hill
#
# Bulk Modulus (GPa) = 42.71342 48.97139 45.84241
# Shear Modulus (GPa) = 29.64043 31.58505 30.61274
#
# Velocity S-wave (km/s) = 3.62917 3.74633 3.68822
# Velocity P-wave (km/s) = 6.04493 6.36192 6.20545
#
# Compressibility (1/GPa) = 0.02341185
#
# Stress axis : x y z
#
# Youngs Moduli (GPa) = 81.05027 81.05028 70.33922
#
# Poissons Ratio (x) = 0.51136 0.05034
# Poissons Ratio (y) = 0.51136 0.05034
# Poissons Ratio (z) = 0.05801 0.05801
#
# Static dielectric constant tensor:
#      x y z
#    x 3.938600 0.000000 0.000000 
#    y 0.000000 3.938600 0.000000 
#    z 0.000000 0.000000 3.956430 
# 
# 
# High freq. dielectric constant tensor:
#      x y z
#    x 1.887470 0.000000 0.000000 
#    y 0.000000 1.887470 0.000000 
#    z 0.000000 0.000000 1.884190 
# 
# From -- ./inp_files/3008.got.cif
#   From: 2010.03.12/outbox.cif.g09.slc.cpg/sg88_2_cif.got.tgz:3008.got - 2010.04.08 20:20:55.
