data_PCOD8304285
_publ_section_title
;
Structure prediction by ZEFSAII (Michael W. Deem and Ramdas Pophale) SiO2 
 PCOD8304285
Probable space group: I 41/A
;
_chemical_formula_sum "Si O2"
_cell_formula_units_Z 88
_cell_length_a 16.100122
_cell_length_b 16.100122
_cell_length_c 16.397879
_cell_angle_alpha 90.000000
_cell_angle_beta 90.000000
_cell_angle_gamma 90.000000
_cell_volume 4250.558633
_symmetry_space_group_name_H-M "I 41/A"
_symmetry_group_IT_number 88
_space_group.IT_coordinate_system_code '2'
_symmetry_cell_setting 'tetragonal'
loop_
_space_group_symop_operation_xyz
x,y,z
3/4-y,1/4+x,1/4+z
-x,1/2-y,z
1/4+y,1/4-x,1/4+z
-x,-y,-z
1/4+y,3/4-x,3/4-z
x,1/2+y,-z
3/4-y,3/4+x,3/4-z
1/2+x,1/2+y,1/2+z
1/4-y,3/4+x,3/4+z
1/2-x,-y,1/2+z
3/4+y,3/4-x,3/4+z
1/2-x,1/2-y,1/2-z
3/4+y,1/4-x,1/4-z
1/2+x,y,1/2-z
1/4-y,1/4+x,1/4-z
loop_
_atom_site_type_symbol
_atom_site_label
_atom_site_fract_x
_atom_site_fract_y
_atom_site_fract_z
Si Si1 0.496501 0.950672 0.624865
Si Si2 0.100062 0.662103 0.999346
Si Si3 0.352446 0.357172 0.059426
Si Si4 0.235555 0.422730 0.322722
Si Si5 0.500000 0.750000 0.363378
Si Si6 0.825822 0.996226 0.679920
O O1 0.510087 0.887873 0.700432
O O2 0.465704 0.893249 0.551062
O O3 0.432064 0.023710 0.643292
O O4 0.582313 0.995341 0.606243
O O5 0.174661 0.601280 0.024515
O O6 0.060095 0.696537 0.080774
O O7 0.434982 0.300726 0.057137
O O8 0.373507 0.442070 0.110779
O O9 0.326928 0.373561 0.964222
O O10 0.311571 0.444634 0.263148
O O11 0.224469 0.487420 0.395785
#
# Coordination Sequence:
#
# PCOD8304285 Si02
#       6
#    16  16  16  16   8  16
#     4  12  21  37  61  88 134 162 205 260 326 393
#     4  12  22  36  58  94 126 169 196 252 333 387
#     4  11  22  40  61  92 124 168 211 265 317 374
#     4  11  19  36  58  88 119 167 210 257 301 377
#     4  12  24  35  56  90 137 154 206 270 326 360
#     4  10  21  38  62  85 121 168 220 246 305 391
#
# _framework density 20.703161000000001
#
# number of rings (size 3 to 8) (size 9 to 14) (size 15 to 20)
#    0.000    0.727    5.455    4.909    0.000    0.000 
#    0.000    0.909    0.000    0.000    0.000    5.091 
#    0.000    0.000    0.000    0.000    0.000    0.000 
#
# Total GULP energy -545434.404221 kJ/mol
# GULP energy per Si atom -12396.236460 kJ/mol
# Density = 2.065604 g / cm^3
# Si number density = 20.703161 Si / 1000 Ang^3
#
#
#
# Elastic Constant Matrix: (Units=GPa)
#
#
# Indices 1 2 3 4 5 6 
#
# 1 94.5349 48.3655 38.9271 0.0000 0.0000 -4.1718
# 2 48.3655 94.5349 38.9271 0.0000 0.0000 4.1718
# 3 38.9271 38.9271 68.2220 0.0000 0.0000 0.0000
# 4 0.0000 0.0000 0.0000 24.8930 0.0000 0.0000
# 5 0.0000 0.0000 0.0000 0.0000 24.8930 0.0000
# 6 -4.1718 4.1718 0.0000 0.0000 0.0000 38.5916
#
#
#
# Elastic Compliance Matrix: (Units=1/GPa)
#
#
# Indices 1 2 3 4 5 6 
#
# 1 0.016123 -0.005968 -0.005794 0.000000 0.000000 0.002388
# 2 -0.005968 0.016123 -0.005794 0.000000 0.000000 -0.002388
# 3 -0.005794 -0.005794 0.021270 0.000000 0.000000 0.000000
# 4 0.000000 0.000000 0.000000 0.040172 0.000000 0.000000
# 5 0.000000 0.000000 0.000000 0.000000 0.040172 0.000000
# 6 0.002388 -0.002388 0.000000 0.000000 0.000000 0.026429
#
#
# Mechanical properties :
#
#
# Convention : Reuss Voigt Hill
#
# Bulk Modulus (GPa) = 54.33946 56.63680 55.48813
# Shear Modulus (GPa) = 24.80950 26.41366 25.61158
#
# Velocity S-wave (km/s) = 3.46547 3.57575 3.52104
# Velocity P-wave (km/s) = 6.50512 6.66813 6.58713
#
# Compressibility (1/GPa) = 0.01840283
#
# Stress axis : x y z
#
# Youngs Moduli (GPa) = 62.02408 62.02408 47.01400
#
# Poissons Ratio (x) = 0.37017 0.27241
# Poissons Ratio (y) = 0.37017 0.27241
# Poissons Ratio (z) = 0.35938 0.35938
#
# Static dielectric constant tensor:
#      x y z
#    x 3.957740 0.000000 0.000000 
#    y 0.000000 3.957740 0.000000 
#    z 0.000000 0.000000 3.779500 
# 
# 
# High freq. dielectric constant tensor:
#      x y z
#    x 1.804460 0.000000 0.000000 
#    y 0.000000 1.804460 0.000000 
#    z 0.000000 0.000000 1.794870 
# 
# From -- ./inp_files/3214.got.cif
#   From: 2010.03.12/outbox.cif.g09.slc.cpg/sg88_2_cif.got.tgz:3214.got - 2010.04.08 20:20:55.
