data_PCOD8304278
_publ_section_title
;
Structure prediction by ZEFSAII (Michael W. Deem and Ramdas Pophale) SiO2 
 PCOD8304278
Probable space group: I 41/A
;
_chemical_formula_sum "Si O2"
_cell_formula_units_Z 64
_cell_length_a 20.852855
_cell_length_b 20.852855
_cell_length_c 7.333202
_cell_angle_alpha 90.000000
_cell_angle_beta 90.000000
_cell_angle_gamma 90.000000
_cell_volume 3188.781010
_symmetry_space_group_name_H-M "I 41/A"
_symmetry_group_IT_number 88
_space_group.IT_coordinate_system_code '2'
_symmetry_cell_setting 'tetragonal'
loop_
_space_group_symop_operation_xyz
x,y,z
3/4-y,1/4+x,1/4+z
-x,1/2-y,z
1/4+y,1/4-x,1/4+z
-x,-y,-z
1/4+y,3/4-x,3/4-z
x,1/2+y,-z
3/4-y,3/4+x,3/4-z
1/2+x,1/2+y,1/2+z
1/4-y,3/4+x,3/4+z
1/2-x,-y,1/2+z
3/4+y,3/4-x,3/4+z
1/2-x,1/2-y,1/2-z
3/4+y,1/4-x,1/4-z
1/2+x,y,1/2-z
1/4-y,1/4+x,1/4-z
loop_
_atom_site_type_symbol
_atom_site_label
_atom_site_fract_x
_atom_site_fract_y
_atom_site_fract_z
Si Si1 0.700599 0.706568 0.061443
Si Si2 0.371864 0.856933 0.729630
Si Si3 0.506708 0.915616 0.806056
Si Si4 0.764160 0.078491 0.886410
O O1 0.759606 0.751020 0.992413
O O2 0.659674 0.738740 0.223583
O O3 0.737311 0.647963 0.160444
O O4 0.654271 0.687204 0.895960
O O5 0.447101 0.871080 0.749595
O O6 0.361878 0.820413 0.539672
O O7 0.333550 0.924657 0.726007
O O8 0.786573 0.044654 0.704816
#
# Coordination Sequence:
#
# PCOD8304278 Si02
#       4
#    16  16  16  16
#     4   9  20  39  56  80 113 149 187 228 286 343
#     4  10  21  37  54  83 110 145 194 228 277 342
#     4  10  21  37  59  79 112 152 185 235 286 331
#     4   9  19  33  53  84 111 139 183 233 285 339
#
# _framework density 20.070366
#
# number of rings (size 3 to 8) (size 9 to 14) (size 15 to 20)
#    0.000    2.500    0.000    0.750    3.500    2.500 
#    0.000    0.000    0.000    0.000    0.000    0.000 
#    0.000    0.000    0.000    0.000    0.000    0.000 
#
# Total GULP energy -396618.101822 kJ/mol
# GULP energy per Si atom -12394.315682 kJ/mol
# Density = 2.002469 g / cm^3
# Si number density = 20.070366 Si / 1000 Ang^3
#
#
#
# Elastic Constant Matrix: (Units=GPa)
#
#
# Indices 1 2 3 4 5 6 
#
# 1 53.9540 29.3224 20.4017 0.0000 0.0000 -4.3687
# 2 29.3224 53.9540 20.4017 0.0000 0.0000 4.3687
# 3 20.4017 20.4017 58.8580 0.0000 0.0000 0.0000
# 4 0.0000 0.0000 0.0000 29.0479 0.0000 0.0000
# 5 0.0000 0.0000 0.0000 0.0000 29.0479 0.0000
# 6 -4.3687 4.3687 0.0000 0.0000 0.0000 33.8105
#
#
#
# Elastic Compliance Matrix: (Units=1/GPa)
#
#
# Indices 1 2 3 4 5 6 
#
# 1 0.028507 -0.014042 -0.005014 0.000000 0.000000 0.005498
# 2 -0.014042 0.028507 -0.005014 0.000000 0.000000 -0.005498
# 3 -0.005014 -0.005014 0.020466 0.000000 0.000000 0.000000
# 4 0.000000 0.000000 0.000000 0.034426 0.000000 0.000000
# 5 0.000000 0.000000 0.000000 0.000000 0.034426 0.000000
# 6 0.005498 -0.005498 0.000000 0.000000 0.000000 0.030997
#
#
# Mechanical properties :
#
#
# Convention : Reuss Voigt Hill
#
# Bulk Modulus (GPa) = 34.08306 34.11309 34.09807
# Shear Modulus (GPa) = 21.25420 24.82392 23.03906
#
# Velocity S-wave (km/s) = 3.25773 3.52070 3.39176
# Velocity P-wave (km/s) = 5.58293 5.79316 5.68902
#
# Compressibility (1/GPa) = 0.02934009
#
# Stress axis : x y z
#
# Youngs Moduli (GPa) = 35.07953 35.07953 48.86166
#
# Poissons Ratio (x) = 0.49258 0.24499
# Poissons Ratio (y) = 0.49258 0.24499
# Poissons Ratio (z) = 0.17589 0.17589
#
# Static dielectric constant tensor:
#      x y z
#    x 3.771730 0.000000 0.000000 
#    y 0.000000 3.771730 0.000000 
#    z 0.000000 0.000000 3.227550 
# 
# 
# High freq. dielectric constant tensor:
#      x y z
#    x 1.785060 0.000000 0.000000 
#    y 0.000000 1.785060 0.000000 
#    z 0.000000 0.000000 1.760540 
# 
# From -- ./inp_files/540.got.cif
#   From: 2010.03.12/outbox.cif.g09.slc.cpg/sg88_1_cif.got.tgz:540.got - 2010.04.08 20:20:55.
