data_PCOD8304292
_publ_section_title
;
Structure prediction by ZEFSAII (Michael W. Deem and Ramdas Pophale) SiO2 
 PCOD8304292
Probable space group: I 41/A
;
_chemical_formula_sum "Si O2"
_cell_formula_units_Z 100
_cell_length_a 28.685561
_cell_length_b 28.685561
_cell_length_c 6.433741
_cell_angle_alpha 90.000000
_cell_angle_beta 90.000000
_cell_angle_gamma 90.000000
_cell_volume 5294.077190
_symmetry_space_group_name_H-M "I 41/A"
_symmetry_group_IT_number 88
_space_group.IT_coordinate_system_code '2'
_symmetry_cell_setting 'tetragonal'
loop_
_space_group_symop_operation_xyz
x,y,z
3/4-y,1/4+x,1/4+z
-x,1/2-y,z
1/4+y,1/4-x,1/4+z
-x,-y,-z
1/4+y,3/4-x,3/4-z
x,1/2+y,-z
3/4-y,3/4+x,3/4-z
1/2+x,1/2+y,1/2+z
1/4-y,3/4+x,3/4+z
1/2-x,-y,1/2+z
3/4+y,3/4-x,3/4+z
1/2-x,1/2-y,1/2-z
3/4+y,1/4-x,1/4-z
1/2+x,y,1/2-z
1/4-y,1/4+x,1/4-z
loop_
_atom_site_type_symbol
_atom_site_label
_atom_site_fract_x
_atom_site_fract_y
_atom_site_fract_z
Si Si1 0.584603 0.018166 0.542330
Si Si2 0.716735 0.626732 0.088328
Si Si3 0.000000 0.750000 0.375000
Si Si4 0.805844 0.617045 0.325030
Si Si5 0.966378 0.035911 0.389905
Si Si6 0.057161 0.279830 0.004969
Si Si7 0.339839 0.699354 0.462949
O O1 0.558600 0.058751 0.416743
O O2 0.610642 0.982158 0.392924
O O3 0.548521 0.987529 0.673724
O O4 0.622606 0.043493 0.686797
O O5 0.759109 0.600627 0.205584
O O6 0.701576 0.672482 0.216815
O O7 0.673037 0.593462 0.066672
O O8 0.020861 0.708738 0.517773
O O9 0.824717 0.664223 0.218836
O O10 0.996746 0.082536 0.354708
O O11 0.000000 0.000000 0.500000
O O12 0.061761 0.230793 0.127300
O O13 0.105717 0.307464 0.010939
#
# Coordination Sequence:
#
# PCOD8304292 Si02
#       7
#    16  16   4  16  16  16  16
#     4  10  21  39  63  79 124 154 190 253 307 357
#     4  10  23  40  61  88 123 159 204 253 309 370
#     4   8  18  40  56  66 124 156 178 244 280 330
#     4  10  23  41  57  91 120 154 210 250 301 379
#     4  11  20  39  59  89 117 154 197 246 304 368
#     4   9  21  39  54  83 117 157 202 233 293 359
#     4  11  22  35  61  90 117 154 203 246 305 363
#
# _framework density 18.889035
#
# number of rings (size 3 to 8) (size 9 to 14) (size 15 to 20)
#    0.000    2.080    4.800    0.480    0.000   11.520 
#    2.880    0.000    0.000    0.000    0.000    0.000 
#    0.000    0.000    0.000    0.000    0.000    0.000 
#
# Total GULP energy -619975.159438 kJ/mol
# GULP energy per Si atom -12399.503189 kJ/mol
# Density = 1.884604 g / cm^3
# Si number density = 18.889035 Si / 1000 Ang^3
#
#
#
# Elastic Constant Matrix: (Units=GPa)
#
#
# Indices 1 2 3 4 5 6 
#
# 1 102.5116 56.1361 53.8680 0.0000 0.0000 15.2446
# 2 56.1361 102.5116 53.8680 0.0000 0.0000 -15.2446
# 3 53.8680 53.8680 140.4842 0.0000 0.0000 0.0000
# 4 0.0000 0.0000 0.0000 12.9641 0.0000 0.0000
# 5 0.0000 0.0000 0.0000 0.0000 12.9641 0.0000
# 6 15.2446 -15.2446 0.0000 0.0000 0.0000 43.7253
#
#
#
# Elastic Compliance Matrix: (Units=1/GPa)
#
#
# Indices 1 2 3 4 5 6 
#
# 1 0.018249 -0.009727 -0.003268 0.000000 0.000000 -0.009754
# 2 -0.009727 0.018249 -0.003268 0.000000 0.000000 0.009754
# 3 -0.003268 -0.003268 0.009624 0.000000 0.000000 0.000000
# 4 0.000000 0.000000 0.000000 0.077136 0.000000 0.000000
# 5 0.000000 0.000000 0.000000 0.000000 0.077136 0.000000
# 6 -0.009754 0.009754 0.000000 0.000000 0.000000 0.029671
#
#
# Mechanical properties :
#
#
# Convention : Reuss Voigt Hill
#
# Bulk Modulus (GPa) = 73.54183 74.80571 74.17377
# Shear Modulus (GPa) = 18.71797 26.03972 22.37884
#
# Velocity S-wave (km/s) = 3.15134 3.71693 3.44576
# Velocity P-wave (km/s) = 7.22907 7.62295 7.42862
#
# Compressibility (1/GPa) = 0.01359770
#
# Stress axis : x y z
#
# Youngs Moduli (GPa) = 54.79760 54.79760 103.90306
#
# Poissons Ratio (x) = 0.53299 0.33954
# Poissons Ratio (y) = 0.53299 0.33954
# Poissons Ratio (z) = 0.17907 0.17907
#
# Static dielectric constant tensor:
#      x y z
#    x 3.352920 0.000000 0.000000 
#    y 0.000000 3.352920 0.000000 
#    z 0.000000 0.000000 3.154550 
# 
# 
# High freq. dielectric constant tensor:
#      x y z
#    x 1.726050 0.000000 0.000000 
#    y 0.000000 1.726050 0.000000 
#    z 0.000000 0.000000 1.749760 
# 
# From -- ./inp_files/778.got.cif
#   From: 2010.03.12/outbox.cif.g09.slc.cpg/sg88_1_cif.got.tgz:778.got - 2010.04.08 20:20:55.
