data_PCOD8304614
_publ_section_title
;
Structure prediction by ZEFSAII (Michael W. Deem and Ramdas Pophale) SiO2 
 PCOD8304614
Probable space group: P 4 21 2
;
_chemical_formula_sum "Si O2"
_cell_formula_units_Z 56
_cell_length_a 14.619417
_cell_length_b 14.619417
_cell_length_c 12.678522
_cell_angle_alpha 90.000000
_cell_angle_beta 90.000000
_cell_angle_gamma 90.000000
_cell_volume 2709.746952
_symmetry_space_group_name_H-M "P 4 21 2"
_symmetry_group_IT_number 90
_symmetry_cell_setting 'tetragonal'
loop_
_space_group_symop_operation_xyz
x,y,z
1/2-y,1/2+x,z
-x,-y,z
1/2+y,1/2-x,z
1/2+x,1/2-y,-z
1/2-x,1/2+y,-z
y,x,-z
-y,-x,-z
loop_
_atom_site_type_symbol
_atom_site_label
_atom_site_fract_x
_atom_site_fract_y
_atom_site_fract_z
Si Si1 0.941497 0.085728 0.621807
Si Si2 0.637828 0.744197 0.717734
Si Si3 0.759074 0.616898 0.037321
Si Si4 0.976564 0.753110 0.735934
Si Si5 0.151661 0.686973 0.666515
Si Si6 0.069588 0.633134 0.459704
Si Si7 0.260036 0.592845 0.965033
O O1 0.912153 0.087848 0.500000
O O2 0.851971 0.087934 0.695030
O O3 0.011110 0.165622 0.652853
O O4 0.000000 0.000000 0.653284
O O5 0.631630 0.771212 0.838804
O O6 0.744185 0.736667 0.681433
O O7 0.590570 0.824982 0.653953
O O8 0.664568 0.664568 0.000000
O O9 0.846289 0.668064 0.982716
O O10 0.753476 0.507476 0.017501
O O11 0.917521 0.678256 0.675083
O O12 0.924570 0.779343 0.842196
O O13 0.076764 0.709909 0.758033
O O14 0.105362 0.701509 0.551586
O O15 0.122064 0.538065 0.469840
O O16 0.350465 0.649536 0.000000
#
# Coordination Sequence:
#
# PCOD8304614 Si02
#       7
#     8   8   8   8   8   8   8
#     4  10  23  42  64 101 138 171 223 276 326 416
#     4  11  24  41  68  88 140 175 220 273 342 397
#     4  11  25  47  67 103 139 178 239 296 335 418
#     4  11  22  40  69  92 135 175 222 278 344 392
#     4  11  21  41  64  97 127 175 219 276 336 403
#     4  11  24  41  62  98 133 168 222 272 327 417
#     4  11  25  45  71 102 140 180 239 290 352 414
#
# _framework density 20.666136000000002
#
# number of rings (size 3 to 8) (size 9 to 14) (size 15 to 20)
#    0.000    1.143    1.429    6.429    4.000    2.000 
#    2.571    1.429    0.000    0.000    0.000    0.000 
#    0.000    0.000    0.000    0.000    0.000    0.000 
#
# Total GULP energy -694143.926163 kJ/mol
# GULP energy per Si atom -12395.427253 kJ/mol
# Density = 2.061910 g / cm^3
# Si number density = 20.666136 Si / 1000 Ang^3
#
#
#
# Elastic Constant Matrix: (Units=GPa)
#
#
# Indices 1 2 3 4 5 6 
#
# 1 118.6541 56.1171 39.2784 0.0000 0.0000 0.0000
# 2 56.1171 118.6544 39.2783 0.0000 0.0000 0.0000
# 3 39.2784 39.2783 133.8467 0.0000 0.0000 0.0000
# 4 0.0000 0.0000 0.0000 29.9148 0.0000 0.0000
# 5 0.0000 0.0000 0.0000 0.0000 29.9151 0.0000
# 6 0.0000 0.0000 0.0000 0.0000 0.0000 75.0324
#
#
#
# Elastic Compliance Matrix: (Units=1/GPa)
#
#
# Indices 1 2 3 4 5 6 
#
# 1 0.011291 -0.004700 -0.001934 0.000000 0.000000 0.000000
# 2 -0.004700 0.011291 -0.001934 0.000000 0.000000 0.000000
# 3 -0.001934 -0.001934 0.008606 0.000000 0.000000 0.000000
# 4 0.000000 0.000000 0.000000 0.033428 0.000000 0.000000
# 5 0.000000 0.000000 0.000000 0.000000 0.033428 0.000000
# 6 0.000000 0.000000 0.000000 0.000000 0.000000 0.013328
#
#
# Mechanical properties :
#
#
# Convention : Reuss Voigt Hill
#
# Bulk Modulus (GPa) = 71.16486 71.16697 71.16591
# Shear Modulus (GPa) = 37.53978 42.73790 40.13884
#
# Velocity S-wave (km/s) = 4.26665 4.55248 4.41188
# Velocity P-wave (km/s) = 7.66699 7.88319 7.77584
#
# Compressibility (1/GPa) = 0.01405188
#
# Stress axis : x y z
#
# Youngs Moduli (GPa) = 88.56734 88.56764 116.19174
#
# Poissons Ratio (x) = 0.41624 0.22474
# Poissons Ratio (y) = 0.41624 0.22474
# Poissons Ratio (z) = 0.17131 0.17131
#
# Static dielectric constant tensor:
#      x y z
#    x 3.863790 0.000000 0.000000 
#    y 0.000000 3.863790 0.000000 
#    z 0.000000 0.000000 3.860530 
# 
# 
# High freq. dielectric constant tensor:
#      x y z
#    x 1.812860 0.000000 0.000000 
#    y 0.000000 1.812860 0.000000 
#    z 0.000000 0.000000 1.816770 
# 
# From -- ./inp_files/2274.got.cif
#   From: 2010.03.12/outbox.cif.g09.slc.cpg/sg90_2_cif.got.tgz:2274.got - 2010.04.08 20:26:03.
