data_PCOD8304827
_publ_section_title
;
Structure prediction by ZEFSAII (Michael W. Deem and Ramdas Pophale) SiO2 
 PCOD8304827
Probable space group: P 41 2 2
;
_chemical_formula_sum "Si O2"
_cell_formula_units_Z 44
_cell_length_a 8.568321
_cell_length_b 8.568321
_cell_length_c 27.801827
_cell_angle_alpha 90.000000
_cell_angle_beta 90.000000
_cell_angle_gamma 90.000000
_cell_volume 2041.102400
_symmetry_space_group_name_H-M "P 41 2 2"
_symmetry_group_IT_number 91
_symmetry_cell_setting 'tetragonal'
loop_
_space_group_symop_operation_xyz
x,y,z
-y,x,1/4+z
-x,-y,1/2+z
y,-x,3/4+z
x,-y,1/2-z
-x,y,-z
y,x,3/4-z
-y,-x,1/4-z
loop_
_atom_site_type_symbol
_atom_site_label
_atom_site_fract_x
_atom_site_fract_y
_atom_site_fract_z
Si Si1 0.877862 0.877862 0.875000
Si Si2 0.159523 0.601882 0.609092
Si Si3 0.772683 0.317219 0.709741
Si Si4 0.588884 0.875711 0.545333
Si Si5 0.149915 0.239560 0.100385
Si Si6 0.663505 0.348114 0.810813
O O1 0.821591 0.769535 0.920163
O O2 0.057832 0.856064 0.864306
O O3 0.242711 0.757290 0.625000
O O4 0.109861 0.507393 0.655819
O O5 0.274782 0.503750 0.574844
O O6 0.004984 0.670108 0.582873
O O7 0.712814 0.259042 0.761760
O O8 0.661124 0.463523 0.695108
O O9 0.950260 0.365597 0.719171
O O10 0.500000 0.799627 0.500000
O O11 0.733001 0.757083 0.554883
O O12 0.210798 0.324159 0.147643
#
# Coordination Sequence:
#
# PCOD8304827 Si02
#       6
#     4   8   8   8   8   8
#     4  10  22  34  64  92 122 172 220 276 318 408
#     4  11  22  39  61  94 137 173 211 271 347 401
#     4  10  19  39  63  92 120 164 231 260 325 391
#     4  10  19  39  67  88 120 172 219 274 322 401
#     4  10  20  38  63  91 127 170 216 264 341 388
#     4  10  21  38  64  89 126 171 210 281 318 401
#
# _framework density 21.556978000000001
#
# number of rings (size 3 to 8) (size 9 to 14) (size 15 to 20)
#    0.000    1.818    4.545    0.000    1.273    0.727 
#    3.273    0.909   12.000    0.000    0.000    0.000 
#    0.000    0.000    0.000    0.000    0.000    0.000 
#
# Total GULP energy -545234.739031 kJ/mol
# GULP energy per Si atom -12391.698614 kJ/mol
# Density = 2.150791 g / cm^3
# Si number density = 21.556978 Si / 1000 Ang^3
#
#
#
# Elastic Constant Matrix: (Units=GPa)
#
#
# Indices 1 2 3 4 5 6 
#
# 1 97.3276 45.1543 34.8607 0.0000 0.0000 0.0000
# 2 45.1543 97.3269 34.8609 0.0000 0.0000 0.0000
# 3 34.8607 34.8609 97.3228 0.0000 0.0000 0.0000
# 4 0.0000 0.0000 0.0000 25.5657 0.0000 0.0000
# 5 0.0000 0.0000 0.0000 0.0000 25.5648 0.0000
# 6 0.0000 0.0000 0.0000 0.0000 0.0000 40.6011
#
#
#
# Elastic Compliance Matrix: (Units=1/GPa)
#
#
# Indices 1 2 3 4 5 6 
#
# 1 0.013838 -0.005328 -0.003048 0.000000 0.000000 0.000000
# 2 -0.005328 0.013839 -0.003048 0.000000 0.000000 0.000000
# 3 -0.003048 -0.003048 0.012459 0.000000 0.000000 0.000000
# 4 0.000000 0.000000 0.000000 0.039115 0.000000 0.000000
# 5 0.000000 0.000000 0.000000 0.000000 0.039116 0.000000
# 6 0.000000 0.000000 0.000000 0.000000 0.000000 0.024630
#
#
# Mechanical properties :
#
#
# Convention : Reuss Voigt Hill
#
# Bulk Modulus (GPa) = 57.85071 57.96992 57.91032
# Shear Modulus (GPa) = 29.13600 30.15310 29.64455
#
# Velocity S-wave (km/s) = 3.68037 3.74406 3.71235
# Velocity P-wave (km/s) = 6.70482 6.75578 6.73035
#
# Compressibility (1/GPa) = 0.01728587
#
# Stress axis : x y z
#
# Youngs Moduli (GPa) = 72.26225 72.26156 80.26411
#
# Poissons Ratio (x) = 0.38504 0.24467
# Poissons Ratio (y) = 0.38505 0.24467
# Poissons Ratio (z) = 0.22027 0.22028
#
# Static dielectric constant tensor:
#      x y z
#    x 3.895880 0.000000 0.000000 
#    y 0.000000 3.895880 0.000000 
#    z 0.000000 0.000000 4.070610 
# 
# 
# High freq. dielectric constant tensor:
#      x y z
#    x 1.843870 0.000000 0.000000 
#    y 0.000000 1.843870 0.000000 
#    z 0.000000 0.000000 1.843760 
# 
# From -- ./inp_files/7868.got.cif
#   From: 2010.03.12/outbox.cif.g09.slc.cpg/sg91_4_cif.got.tgz:7868.got - 2010.04.08 20:27:58.
