data_PCOD8304235
_publ_section_title
;
Structure prediction by ZEFSAII (Michael W. Deem and Ramdas Pophale) SiO2 
 PCOD8304235
Probable space group: I 41/A
;
_chemical_formula_sum "Si O2"
_cell_formula_units_Z 88
_cell_length_a 18.166849
_cell_length_b 18.166849
_cell_length_c 12.350409
_cell_angle_alpha 90.000000
_cell_angle_beta 90.000000
_cell_angle_gamma 90.000000
_cell_volume 4076.059856
_symmetry_space_group_name_H-M "I 41/A"
_symmetry_group_IT_number 88
_space_group.IT_coordinate_system_code '2'
_symmetry_cell_setting 'tetragonal'
loop_
_space_group_symop_operation_xyz
x,y,z
3/4-y,1/4+x,1/4+z
-x,1/2-y,z
1/4+y,1/4-x,1/4+z
-x,-y,-z
1/4+y,3/4-x,3/4-z
x,1/2+y,-z
3/4-y,3/4+x,3/4-z
1/2+x,1/2+y,1/2+z
1/4-y,3/4+x,3/4+z
1/2-x,-y,1/2+z
3/4+y,3/4-x,3/4+z
1/2-x,1/2-y,1/2-z
3/4+y,1/4-x,1/4-z
1/2+x,y,1/2-z
1/4-y,1/4+x,1/4-z
loop_
_atom_site_type_symbol
_atom_site_label
_atom_site_fract_x
_atom_site_fract_y
_atom_site_fract_z
Si Si1 0.429375 0.974856 0.435948
Si Si2 0.885239 0.738537 0.031954
Si Si3 0.875899 0.870336 0.894869
Si Si4 0.500000 0.250000 0.713542
Si Si5 0.937282 0.517645 0.583217
Si Si6 0.864307 0.157425 0.514197
O O1 0.376007 0.938385 0.523568
O O2 0.449515 0.918436 0.340165
O O3 0.500000 0.000000 0.500000
O O4 0.388440 0.041166 0.379793
O O5 0.917832 0.800027 0.949323
O O6 0.863643 0.665231 0.968646
O O7 0.937026 0.718107 0.133100
O O8 0.808876 0.775822 0.066776
O O9 0.541431 0.187454 0.787628
O O10 0.880154 0.572413 0.521486
O O11 0.904132 0.440688 0.631803
O O12 0.000000 0.500000 0.500000
#
# Coordination Sequence:
#
# PCOD8304235 Si02
#       6
#    16  16  16   8  16  16
#     4  12  21  39  64  97 137 174 222 284 346 413
#     4  11  21  38  63 102 130 176 225 276 342 403
#     4  12  21  37  66  95 137 174 222 283 346 409
#     4  10  20  35  69  96 136 174 226 278 338 404
#     4  11  25  45  70  93 137 182 235 282 341 415
#     4  11  22  45  65 100 136 182 228 287 346 405
#
# _framework density 21.589476999999999
#
# number of rings (size 3 to 8) (size 9 to 14) (size 15 to 20)
#    0.000    0.727    7.273    2.182    0.000    2.909 
#    0.000    6.364    0.000    0.000    0.000    0.000 
#    0.000    0.000    0.000    0.000    0.000    0.000 
#
# Total GULP energy -545235.032769 kJ/mol
# GULP energy per Si atom -12391.705290 kJ/mol
# Density = 2.154034 g / cm^3
# Si number density = 21.589477 Si / 1000 Ang^3
#
#
#
# Elastic Constant Matrix: (Units=GPa)
#
#
# Indices 1 2 3 4 5 6 
#
# 1 112.5762 56.3029 47.1494 0.0000 0.0000 -2.6408
# 2 56.3029 112.5762 47.1494 0.0000 0.0000 2.6408
# 3 47.1494 47.1494 78.3595 0.0000 0.0000 0.0000
# 4 0.0000 0.0000 0.0000 39.0680 0.0000 0.0000
# 5 0.0000 0.0000 0.0000 0.0000 39.0680 0.0000
# 6 -2.6408 2.6408 0.0000 0.0000 0.0000 23.2866
#
#
#
# Elastic Compliance Matrix: (Units=1/GPa)
#
#
# Indices 1 2 3 4 5 6 
#
# 1 0.013440 -0.004522 -0.005366 0.000000 0.000000 0.002037
# 2 -0.004522 0.013440 -0.005366 0.000000 0.000000 -0.002037
# 3 -0.005366 -0.005366 0.019219 0.000000 0.000000 0.000000
# 4 0.000000 0.000000 0.000000 0.025596 0.000000 0.000000
# 5 0.000000 0.000000 0.000000 0.000000 0.025596 0.000000
# 6 0.002037 -0.002037 0.000000 0.000000 0.000000 0.043405
#
#
# Mechanical properties :
#
#
# Convention : Reuss Voigt Hill
#
# Bulk Modulus (GPa) = 64.13955 67.19058 65.66506
# Shear Modulus (GPa) = 28.34470 30.47854 29.41162
#
# Velocity S-wave (km/s) = 3.62732 3.76138 3.69496
# Velocity P-wave (km/s) = 6.87870 7.07484 6.97746
#
# Compressibility (1/GPa) = 0.01559101
#
# Stress axis : x y z
#
# Youngs Moduli (GPa) = 74.40727 74.40727 52.03221
#
# Poissons Ratio (x) = 0.33647 0.27919
# Poissons Ratio (y) = 0.33647 0.27919
# Poissons Ratio (z) = 0.39925 0.39925
#
# Static dielectric constant tensor:
#      x y z
#    x 3.802690 0.000000 0.000000 
#    y 0.000000 3.802690 0.000000 
#    z 0.000000 0.000000 3.791920 
# 
# 
# High freq. dielectric constant tensor:
#      x y z
#    x 1.839120 0.000000 0.000000 
#    y 0.000000 1.839120 0.000000 
#    z 0.000000 0.000000 1.861030 
# 
# From -- ./inp_files/3193.got.cif
#   From: 2010.03.12/outbox.cif.g09.slc.cpg/sg88_2_cif.got.tgz:3193.got - 2010.04.08 20:20:55.
