data_PCOD8304955
_publ_section_title
;
Structure prediction by ZEFSAII (Michael W. Deem and Ramdas Pophale) SiO2 
 PCOD8304955
Probable space group: P 41 2 2
;
_chemical_formula_sum "Si O2"
_cell_formula_units_Z 60
_cell_length_a 18.337332
_cell_length_b 18.337332
_cell_length_c 8.645878
_cell_angle_alpha 90.000000
_cell_angle_beta 90.000000
_cell_angle_gamma 90.000000
_cell_volume 2907.243439
_symmetry_space_group_name_H-M "P 41 2 2"
_symmetry_group_IT_number 91
_symmetry_cell_setting 'tetragonal'
loop_
_space_group_symop_operation_xyz
x,y,z
-y,x,1/4+z
-x,-y,1/2+z
y,-x,3/4+z
x,-y,1/2-z
-x,y,-z
y,x,3/4-z
-y,-x,1/4-z
loop_
_atom_site_type_symbol
_atom_site_label
_atom_site_fract_x
_atom_site_fract_y
_atom_site_fract_z
Si Si1 0.804976 0.348352 0.044229
Si Si2 0.583672 0.328573 0.024334
Si Si3 0.246641 0.161317 0.052033
Si Si4 0.004343 0.299238 0.672628
Si Si5 0.823706 0.103552 0.475360
Si Si6 0.434497 0.054180 0.881270
Si Si7 0.293296 0.300675 0.554179
Si Si8 0.910958 0.000000 0.250000
O O1 0.739703 0.384560 0.135850
O O2 0.824625 0.269677 0.122799
O O3 0.872882 0.404150 0.047941
O O4 0.773379 0.330202 0.874302
O O5 0.598576 0.401425 0.125000
O O6 0.500000 0.317540 0.000000
O O7 0.626358 0.333948 0.861935
O O8 0.170707 0.194013 0.113286
O O9 0.305862 0.206809 0.153047
O O10 0.246634 0.074793 0.076927
O O11 0.933379 0.251712 0.717865
O O12 0.000000 0.330893 0.500000
O O13 0.013190 0.367631 0.785440
O O14 0.872250 0.127751 0.625000
O O15 0.863242 0.049812 0.359562
O O16 0.465254 0.000000 0.750000
O O17 0.500000 0.073104 0.000000
O O18 0.300402 0.300402 0.375000
O O19 0.957615 0.957615 0.375000
#
# Coordination Sequence:
#
# PCOD8304955 Si02
#       8
#     8   8   8   8   8   8   8   4
#     4   9  21  40  66  90 125 173 217 259 324 398
#     4   9  18  38  63  91 128 172 210 248 313 387
#     4  10  21  39  62  87 124 165 211 265 328 387
#     4  11  24  41  65  95 127 167 210 269 338 403
#     4  12  25  42  64  92 123 164 219 275 328 390
#     4  11  25  44  66  96 131 171 216 271 336 408
#     4  10  21  37  63  97 128 163 218 278 315 378
#     4  12  28  42  60  82 126 170 216 266 330 398
#
# _framework density 20.638104999999999
#
# number of rings (size 3 to 8) (size 9 to 14) (size 15 to 20)
#    0.000    1.600    1.333    3.600    2.800    3.200 
#    0.000    6.000    0.000    0.000    0.000    0.000 
#    0.000    0.000    0.000    0.000    0.000    0.000 
#
# Total GULP energy -743374.498808 kJ/mol
# GULP energy per Si atom -12389.574980 kJ/mol
# Density = 2.059113 g / cm^3
# Si number density = 20.638105 Si / 1000 Ang^3
#
#
#
# Elastic Constant Matrix: (Units=GPa)
#
#
# Indices 1 2 3 4 5 6 
#
# 1 102.5768 20.4638 41.7437 0.0000 0.0000 0.0000
# 2 20.4638 102.5759 41.7435 0.0000 0.0000 0.0000
# 3 41.7437 41.7435 150.0083 0.0000 0.0000 0.0000
# 4 0.0000 0.0000 0.0000 23.9026 0.0000 0.0000
# 5 0.0000 0.0000 0.0000 0.0000 23.9028 0.0000
# 6 0.0000 0.0000 0.0000 0.0000 0.0000 21.0081
#
#
#
# Elastic Compliance Matrix: (Units=1/GPa)
#
#
# Indices 1 2 3 4 5 6 
#
# 1 0.011099 -0.001080 -0.002788 0.000000 0.000000 0.000000
# 2 -0.001080 0.011099 -0.002788 0.000000 0.000000 0.000000
# 3 -0.002788 -0.002788 0.008218 0.000000 0.000000 0.000000
# 4 0.000000 0.000000 0.000000 0.041836 0.000000 0.000000
# 5 0.000000 0.000000 0.000000 0.000000 0.041836 0.000000
# 6 0.000000 0.000000 0.000000 0.000000 0.000000 0.047601
#
#
# Mechanical properties :
#
#
# Convention : Reuss Voigt Hill
#
# Bulk Modulus (GPa) = 58.46552 62.56256 60.51404
# Shear Modulus (GPa) = 27.66988 30.51003 29.08995
#
# Velocity S-wave (km/s) = 3.66555 3.84908 3.75844
# Velocity P-wave (km/s) = 6.80481 7.08052 6.94404
#
# Compressibility (1/GPa) = 0.01710410
#
# Stress axis : x y z
#
# Youngs Moduli (GPa) = 90.09990 90.09914 121.68374
#
# Poissons Ratio (x) = 0.09727 0.33927
# Poissons Ratio (y) = 0.09727 0.33927
# Poissons Ratio (z) = 0.25121 0.25121
#
# Static dielectric constant tensor:
#      x y z
#    x 3.883970 0.000000 0.000000 
#    y 0.000000 3.884000 0.000000 
#    z 0.000000 0.000000 4.072850 
# 
# 
# High freq. dielectric constant tensor:
#      x y z
#    x 1.800860 0.000000 0.000000 
#    y 0.000000 1.800860 0.000000 
#    z 0.000000 0.000000 1.816810 
# 
# From -- ./inp_files/10064.got.cif
#   From: 2010.03.12/outbox.cif.g09.slc.cpg/sg91_6_cif.got.tgz:10064.got - 2010.04.08 20:27:58.
