data_PCOD8304954
_publ_section_title
;
Structure prediction by ZEFSAII (Michael W. Deem and Ramdas Pophale) SiO2 
 PCOD8304954
Probable space group: P 41 2 2
;
_chemical_formula_sum "Si O2"
_cell_formula_units_Z 56
_cell_length_a 15.592789
_cell_length_b 15.592789
_cell_length_c 10.930376
_cell_angle_alpha 90.000000
_cell_angle_beta 90.000000
_cell_angle_gamma 90.000000
_cell_volume 2657.557721
_symmetry_space_group_name_H-M "P 41 2 2"
_symmetry_group_IT_number 91
_symmetry_cell_setting 'tetragonal'
loop_
_space_group_symop_operation_xyz
x,y,z
-y,x,1/4+z
-x,-y,1/2+z
y,-x,3/4+z
x,-y,1/2-z
-x,y,-z
y,x,3/4-z
-y,-x,1/4-z
loop_
_atom_site_type_symbol
_atom_site_label
_atom_site_fract_x
_atom_site_fract_y
_atom_site_fract_z
Si Si1 0.372066 0.060284 0.447265
Si Si2 0.121434 0.408158 0.790053
Si Si3 0.500000 0.453654 0.500000
Si Si4 0.216324 0.743858 0.825317
Si Si5 0.817407 0.500000 0.750000
Si Si6 0.358344 0.316819 0.505919
Si Si7 0.091299 0.794603 0.038370
Si Si8 0.906688 0.320217 0.971474
O O1 0.453429 0.118387 0.401491
O O2 0.294131 0.074264 0.357256
O O3 0.350848 0.097254 0.581974
O O4 0.399226 0.961787 0.453166
O O5 0.163264 0.500000 0.750000
O O6 0.179308 0.324171 0.770163
O O7 0.101228 0.401834 0.935284
O O8 0.492229 0.507772 0.625000
O O9 0.410143 0.404473 0.501258
O O10 0.253962 0.828091 0.757621
O O11 0.286495 0.685345 0.892372
O O12 0.145064 0.778155 0.917495
O O13 0.756984 0.424331 0.798418
O O14 0.308620 0.308620 0.375000
O O15 0.138006 0.861995 0.125000
O O16 0.000000 0.834831 0.000000
O O17 0.000000 0.276082 0.000000
#
# Coordination Sequence:
#
# PCOD8304954 Si02
#       8
#     8   8   4   8   4   8   8   8
#     4  11  21  40  66  99 128 169 215 283 347 409
#     4  11  25  43  61  97 137 180 226 276 342 416
#     4   9  20  42  64  91 130 172 232 281 336 400
#     4  12  22  43  66  97 137 173 225 279 350 411
#     4  11  18  34  66  91 128 160 214 271 336 396
#     4  10  21  37  63  97 126 171 223 277 333 406
#     4  12  24  43  72 101 136 171 227 294 354 421
#     4  10  23  42  67  93 132 181 224 269 343 420
#
# _framework density 21.071978999999999
#
# number of rings (size 3 to 8) (size 9 to 14) (size 15 to 20)
#    0.000    1.143    5.000    1.714    0.000    2.286 
#    6.429    0.714    0.000    0.000    0.000    0.000 
#    0.000    0.000    0.000    0.000    0.000    0.000 
#
# Total GULP energy -693768.393368 kJ/mol
# GULP energy per Si atom -12388.721310 kJ/mol
# Density = 2.102402 g / cm^3
# Si number density = 21.071979 Si / 1000 Ang^3
#
#
#
# Elastic Constant Matrix: (Units=GPa)
#
#
# Indices 1 2 3 4 5 6 
#
# 1 103.1107 27.3227 27.8350 0.0000 0.0000 0.0000
# 2 27.3227 103.1125 27.8357 0.0000 0.0000 0.0000
# 3 27.8350 27.8357 84.8124 0.0000 0.0000 0.0000
# 4 0.0000 0.0000 0.0000 29.3075 0.0000 0.0000
# 5 0.0000 0.0000 0.0000 0.0000 29.3074 0.0000
# 6 0.0000 0.0000 0.0000 0.0000 0.0000 32.3126
#
#
#
# Elastic Compliance Matrix: (Units=1/GPa)
#
#
# Indices 1 2 3 4 5 6 
#
# 1 0.011055 -0.002139 -0.002926 0.000000 0.000000 0.000000
# 2 -0.002139 0.011055 -0.002926 0.000000 0.000000 0.000000
# 3 -0.002926 -0.002926 0.013711 0.000000 0.000000 0.000000
# 4 0.000000 0.000000 0.000000 0.034121 0.000000 0.000000
# 5 0.000000 0.000000 0.000000 0.000000 0.034121 0.000000
# 6 0.000000 0.000000 0.000000 0.000000 0.000000 0.030948
#
#
# Mechanical properties :
#
#
# Convention : Reuss Voigt Hill
#
# Bulk Modulus (GPa) = 50.40772 50.78025 50.59399
# Shear Modulus (GPa) = 31.72445 32.05501 31.88973
#
# Velocity S-wave (km/s) = 3.88432 3.90451 3.89443
# Velocity P-wave (km/s) = 6.64010 6.66916 6.65464
#
# Compressibility (1/GPa) = 0.01983823
#
# Stress axis : x y z
#
# Youngs Moduli (GPa) = 90.45571 90.45694 72.93207
#
# Poissons Ratio (x) = 0.19353 0.21340
# Poissons Ratio (y) = 0.19353 0.21341
# Poissons Ratio (z) = 0.26468 0.26469
#
# Static dielectric constant tensor:
#      x y z
#    x 4.019880 0.000000 0.000000 
#    y 0.000000 4.019890 0.000000 
#    z 0.000000 0.000000 9.718950 
# 
# 
# High freq. dielectric constant tensor:
#      x y z
#    x 1.827090 0.000000 0.000000 
#    y 0.000000 1.827090 0.000000 
#    z 0.000000 0.000000 1.817280 
# 
# From -- ./inp_files/3974.got.cif
#   From: 2010.03.12/outbox.cif.g09.slc.cpg/sg91_2_cif.got.tgz:3974.got - 2010.04.08 20:27:58.
