data_PCOD8304936
_publ_section_title
;
Structure prediction by ZEFSAII (Michael W. Deem and Ramdas Pophale) SiO2 
 PCOD8304936
Probable space group: P 41 2 2
;
_chemical_formula_sum "Si O2"
_cell_formula_units_Z 48
_cell_length_a 12.501966
_cell_length_b 12.501966
_cell_length_c 18.599740
_cell_angle_alpha 90.000000
_cell_angle_beta 90.000000
_cell_angle_gamma 90.000000
_cell_volume 2907.123624
_symmetry_space_group_name_H-M "P 41 2 2"
_symmetry_group_IT_number 91
_symmetry_cell_setting 'tetragonal'
loop_
_space_group_symop_operation_xyz
x,y,z
-y,x,1/4+z
-x,-y,1/2+z
y,-x,3/4+z
x,-y,1/2-z
-x,y,-z
y,x,3/4-z
-y,-x,1/4-z
loop_
_atom_site_type_symbol
_atom_site_label
_atom_site_fract_x
_atom_site_fract_y
_atom_site_fract_z
Si Si1 0.897327 0.709170 0.950381
Si Si2 0.921592 0.239478 0.706774
Si Si3 0.111909 0.135086 0.035830
Si Si4 0.817767 0.305061 0.072950
Si Si5 0.119900 0.474541 0.028866
Si Si6 0.949254 0.312280 0.860907
O O1 0.818921 0.807700 0.963183
O O2 0.928862 0.694479 0.866883
O O3 0.838868 0.596298 0.967738
O O4 0.000000 0.726263 0.000000
O O5 0.935884 0.317464 0.774900
O O6 0.018285 0.156922 0.700466
O O7 0.100144 0.200136 0.110487
O O8 0.181746 0.204025 0.980560
O O9 0.000000 0.114109 0.000000
O O10 0.716135 0.283866 0.125000
O O11 0.926429 0.315244 0.118390
O O12 0.801607 0.412966 0.026710
O O13 0.116445 0.412033 0.105212
O O14 0.000000 0.469550 0.000000
#
# Coordination Sequence:
#
# PCOD8304936 Si02
#       6
#     8   8   8   8   8   8
#     4  10  21  33  41  59  96 137 165 188 230 283
#     4  11  19  28  45  65  91 128 167 194 222 284
#     4   9  17  25  40  68 102 126 150 197 242 278
#     4   9  14  27  48  71  94 118 155 195 242 289
#     4   8  17  32  46  62  95 132 153 187 239 283
#     4   9  17  28  45  69  93 124 158 195 234 278
#
# _framework density 16.511165999999999
#
# number of rings (size 3 to 8) (size 9 to 14) (size 15 to 20)
#    0.000    2.667    1.667    3.500    0.000    2.000 
#    0.000    0.000    0.000    0.000    0.000    0.000 
#   15.000    0.000    0.000    0.000    0.000    0.000 
#
# Total GULP energy -594780.557693 kJ/mol
# GULP energy per Si atom -12391.261619 kJ/mol
# Density = 1.647359 g / cm^3
# Si number density = 16.511166 Si / 1000 Ang^3
#
#
#
# Elastic Constant Matrix: (Units=GPa)
#
#
# Indices 1 2 3 4 5 6 
#
# 1 72.9329 35.9434 30.1436 0.0000 0.0000 0.0000
# 2 35.9434 72.9332 30.1432 0.0000 0.0000 0.0000
# 3 30.1436 30.1432 116.5514 0.0000 0.0000 0.0000
# 4 0.0000 0.0000 0.0000 12.9512 0.0000 0.0000
# 5 0.0000 0.0000 0.0000 0.0000 12.9513 0.0000
# 6 0.0000 0.0000 0.0000 0.0000 0.0000 6.6592
#
#
#
# Elastic Compliance Matrix: (Units=1/GPa)
#
#
# Indices 1 2 3 4 5 6 
#
# 1 0.018877 -0.008157 -0.002773 0.000000 0.000000 0.000000
# 2 -0.008157 0.018877 -0.002772 0.000000 0.000000 0.000000
# 3 -0.002773 -0.002772 0.010014 0.000000 0.000000 0.000000
# 4 0.000000 0.000000 0.000000 0.077213 0.000000 0.000000
# 5 0.000000 0.000000 0.000000 0.000000 0.077212 0.000000
# 6 0.000000 0.000000 0.000000 0.000000 0.000000 0.150169
#
#
# Mechanical properties :
#
#
# Convention : Reuss Voigt Hill
#
# Bulk Modulus (GPa) = 49.10647 50.54197 49.82422
# Shear Modulus (GPa) = 12.93475 17.59147 15.26311
#
# Velocity S-wave (km/s) = 2.80195 3.26763 3.04371
# Velocity P-wave (km/s) = 6.34617 6.70178 6.52639
#
# Compressibility (1/GPa) = 0.02036392
#
# Stress axis : x y z
#
# Youngs Moduli (GPa) = 52.97366 52.97403 99.86045
#
# Poissons Ratio (x) = 0.43213 0.27686
# Poissons Ratio (y) = 0.43212 0.27685
# Poissons Ratio (z) = 0.14687 0.14687
#
# Static dielectric constant tensor:
#      x y z
#    x 3.004370 0.000000 0.000000 
#    y 0.000000 3.004370 0.000000 
#    z 0.000000 0.000000 3.344670 
# 
# 
# High freq. dielectric constant tensor:
#      x y z
#    x 1.604010 0.000000 0.000000 
#    y 0.000000 1.604010 0.000000 
#    z 0.000000 0.000000 1.650190 
# 
# From -- ./inp_files/5585.got.cif
#   From: 2010.03.12/outbox.cif.g09.slc.cpg/sg91_3_cif.got.tgz:5585.got - 2010.04.08 20:27:58.
