data_PCOD8304248
_publ_section_title
;
Structure prediction by ZEFSAII (Michael W. Deem and Ramdas Pophale) SiO2 
 PCOD8304248
Probable space group: I 41/A
;
_chemical_formula_sum "Si O2"
_cell_formula_units_Z 64
_cell_length_a 8.934673
_cell_length_b 8.934673
_cell_length_c 38.487393
_cell_angle_alpha 90.000000
_cell_angle_beta 90.000000
_cell_angle_gamma 90.000000
_cell_volume 3072.386296
_symmetry_space_group_name_H-M "I 41/A"
_symmetry_group_IT_number 88
_space_group.IT_coordinate_system_code '2'
_symmetry_cell_setting 'tetragonal'
loop_
_space_group_symop_operation_xyz
x,y,z
3/4-y,1/4+x,1/4+z
-x,1/2-y,z
1/4+y,1/4-x,1/4+z
-x,-y,-z
1/4+y,3/4-x,3/4-z
x,1/2+y,-z
3/4-y,3/4+x,3/4-z
1/2+x,1/2+y,1/2+z
1/4-y,3/4+x,3/4+z
1/2-x,-y,1/2+z
3/4+y,3/4-x,3/4+z
1/2-x,1/2-y,1/2-z
3/4+y,1/4-x,1/4-z
1/2+x,y,1/2-z
1/4-y,1/4+x,1/4-z
loop_
_atom_site_type_symbol
_atom_site_label
_atom_site_fract_x
_atom_site_fract_y
_atom_site_fract_z
Si Si1 0.973523 0.421453 0.259379
Si Si2 0.233261 0.518637 0.798840
Si Si3 0.374661 0.540764 0.118102
Si Si4 0.662083 0.180475 0.175621
O O1 0.912534 0.506830 0.225267
O O2 0.847419 0.423347 0.289885
O O3 0.000000 0.250000 0.248718
O O4 0.123139 0.498548 0.273702
O O5 0.237441 0.391513 0.828313
O O6 0.225012 0.681622 0.817694
O O7 0.296152 0.701085 0.122351
O O8 0.290009 0.422130 0.143087
O O9 0.500000 0.250000 0.168095
#
# Coordination Sequence:
#
# PCOD8304248 Si02
#       4
#    16  16  16  16
#     4   9  17  36  61  86 112 156 190 236 296 343
#     4  10  20  38  63  87 117 155 196 244 287 352
#     4  11  21  38  63  82 118 163 191 233 305 354
#     4   9  17  37  57  84 113 148 191 232 287 349
#
# _framework density 20.830715000000001
#
# number of rings (size 3 to 8) (size 9 to 14) (size 15 to 20)
#    0.000    2.750    5.000    3.000    0.000    0.000 
#    9.000    1.250    0.000    0.000    0.000    0.000 
#    0.000    0.000    0.000    0.000    0.000    0.000 
#
# Total GULP energy -396613.910447 kJ/mol
# GULP energy per Si atom -12394.184701 kJ/mol
# Density = 2.078330 g / cm^3
# Si number density = 20.830715 Si / 1000 Ang^3
#
#
#
# Elastic Constant Matrix: (Units=GPa)
#
#
# Indices 1 2 3 4 5 6 
#
# 1 39.3347 13.1274 47.7951 0.0000 0.0000 -3.5656
# 2 13.1274 39.3347 47.7951 0.0000 0.0000 3.5656
# 3 47.7951 47.7951 165.3647 0.0000 0.0000 0.0000
# 4 0.0000 0.0000 0.0000 31.2425 0.0000 0.0000
# 5 0.0000 0.0000 0.0000 0.0000 31.2425 0.0000
# 6 -3.5656 3.5656 0.0000 0.0000 0.0000 11.8086
#
#
#
# Elastic Compliance Matrix: (Units=1/GPa)
#
#
# Indices 1 2 3 4 5 6 
#
# 1 0.040920 -0.000653 -0.011638 0.000000 0.000000 0.012553
# 2 -0.000653 0.040920 -0.011639 0.000000 0.000000 -0.012553
# 3 -0.011638 -0.011639 0.012775 0.000000 0.000000 0.000000
# 4 0.000000 0.000000 0.000000 0.032008 0.000000 0.000000
# 5 0.000000 0.000000 0.000000 0.000000 0.032008 0.000000
# 6 0.012553 -0.012553 0.000000 0.000000 0.000000 0.092265
#
#
# Mechanical properties :
#
#
# Convention : Reuss Voigt Hill
#
# Bulk Modulus (GPa) = 21.38752 51.27440 36.33096
# Shear Modulus (GPa) = 15.90630 23.87980 19.89305
#
# Velocity S-wave (km/s) = 2.76633 3.38949 3.09364
# Velocity P-wave (km/s) = 4.52692 6.32348 5.49906
#
# Compressibility (1/GPa) = 0.04675624
#
# Stress axis : x y z
#
# Youngs Moduli (GPa) = 24.43772 24.43769 78.27813
#
# Poissons Ratio (x) = 0.01595 0.91104
# Poissons Ratio (y) = 0.01595 0.91104
# Poissons Ratio (z) = 0.28442 0.28442
#
# Static dielectric constant tensor:
#      x y z
#    x 3.411340 0.000000 0.000000 
#    y 0.000000 3.411340 0.000000 
#    z 0.000000 0.000000 3.975030 
# 
# 
# High freq. dielectric constant tensor:
#      x y z
#    x 1.777970 0.000000 0.000000 
#    y 0.000000 1.777970 0.000000 
#    z 0.000000 0.000000 1.827510 
# 
# From -- ./inp_files/6184.got.cif
#   From: 2010.03.12/outbox.cif.g09.slc.cpg/sg88_4_cif.got.tgz:6184.got - 2010.04.08 20:20:55.
