data_PCOD8304519
_publ_section_title
;
Structure prediction by ZEFSAII (Michael W. Deem and Ramdas Pophale) SiO2 
 PCOD8304519
Probable space group: P 4 2 2
;
_chemical_formula_sum "Si O2"
_cell_formula_units_Z 32
_cell_length_a 9.066958
_cell_length_b 9.066958
_cell_length_c 19.092065
_cell_angle_alpha 90.000000
_cell_angle_beta 90.000000
_cell_angle_gamma 90.000000
_cell_volume 1569.553459
_symmetry_space_group_name_H-M "P 4 2 2"
_symmetry_group_IT_number 89
_symmetry_cell_setting 'tetragonal'
loop_
_space_group_symop_operation_xyz
x,y,z
-y,x,z
-x,-y,z
y,-x,z
x,-y,-z
-x,y,-z
y,x,-z
-y,-x,-z
loop_
_atom_site_type_symbol
_atom_site_label
_atom_site_fract_x
_atom_site_fract_y
_atom_site_fract_z
Si Si1 0.841591 0.360906 0.467264
Si Si2 0.860355 0.200274 0.197785
Si Si3 0.342043 0.320396 0.081477
Si Si4 0.283494 0.616028 0.318713
O O1 0.748872 0.500000 0.500000
O O2 0.790073 0.209928 0.500000
O O3 0.823858 0.348599 0.383916
O O4 0.000000 0.380934 0.500000
O O5 0.805180 0.249478 0.121128
O O6 0.798345 0.321401 0.251228
O O7 0.035928 0.202475 0.207902
O O8 0.513210 0.296039 0.101900
O O9 0.304810 0.304810 0.000000
O O10 0.302742 0.440518 0.319450
#
# Coordination Sequence:
#
# PCOD8304519 Si02
#       4
#     8   8   8   8
#     4  11  24  41  64  94 124 160 206 256 318 375
#     4  11  26  42  59  90 132 172 209 256 315 378
#     4   9  19  39  67  97 127 162 210 263 311 368
#     4  11  24  42  67  93 122 161 210 268 316 370
#
# _framework density 20.387965000000001
#
# number of rings (size 3 to 8) (size 9 to 14) (size 15 to 20)
#    0.000    1.500    2.500    2.250    3.500    7.500 
#    0.000    3.750    0.000    0.000    0.000    0.000 
#    0.000    0.000    0.000    0.000    0.000    0.000 
#
# Total GULP energy -396466.050264 kJ/mol
# GULP energy per Si atom -12389.564071 kJ/mol
# Density = 2.034156 g / cm^3
# Si number density = 20.387965 Si / 1000 Ang^3
#
#
#
# Elastic Constant Matrix: (Units=GPa)
#
#
# Indices 1 2 3 4 5 6 
#
# 1 90.2834 50.5613 47.4803 0.0000 0.0000 0.0000
# 2 50.5613 90.2844 47.4807 0.0000 0.0000 0.0000
# 3 47.4803 47.4807 118.6343 0.0000 0.0000 0.0000
# 4 0.0000 0.0000 0.0000 38.4584 0.0000 0.0000
# 5 0.0000 0.0000 0.0000 0.0000 38.4580 0.0000
# 6 0.0000 0.0000 0.0000 0.0000 0.0000 31.7638
#
#
#
# Elastic Compliance Matrix: (Units=1/GPa)
#
#
# Indices 1 2 3 4 5 6 
#
# 1 0.017449 -0.007725 -0.003892 0.000000 0.000000 0.000000
# 2 -0.007725 0.017449 -0.003892 0.000000 0.000000 0.000000
# 3 -0.003892 -0.003892 0.011544 0.000000 0.000000 0.000000
# 4 0.000000 0.000000 0.000000 0.026002 0.000000 0.000000
# 5 0.000000 0.000000 0.000000 0.000000 0.026002 0.000000
# 6 0.000000 0.000000 0.000000 0.000000 0.000000 0.031482
#
#
# Mechanical properties :
#
#
# Convention : Reuss Voigt Hill
#
# Bulk Modulus (GPa) = 64.82895 65.58297 65.20596
# Shear Modulus (GPa) = 30.10428 31.98135 31.04281
#
# Velocity S-wave (km/s) = 3.84679 3.96490 3.90629
# Velocity P-wave (km/s) = 7.18311 7.29369 7.23861
#
# Compressibility (1/GPa) = 0.01542521
#
# Stress axis : x y z
#
# Youngs Moduli (GPa) = 57.30879 57.30930 86.62181
#
# Poissons Ratio (x) = 0.44273 0.33711
# Poissons Ratio (y) = 0.44273 0.33711
# Poissons Ratio (z) = 0.22303 0.22303
#
# Static dielectric constant tensor:
#      x y z
#    x 3.714440 0.000000 0.000000 
#    y 0.000000 3.714440 0.000000 
#    z 0.000000 0.000000 3.738800 
# 
# 
# High freq. dielectric constant tensor:
#      x y z
#    x 1.798610 0.000000 0.000000 
#    y 0.000000 1.798610 0.000000 
#    z 0.000000 0.000000 1.804280 
# 
# From -- ./inp_files/2490.got.cif
#   From: 2010.03.12/outbox.cif.g09.slc.cpg/sg89_2_cif.got.tgz:2490.got - 2010.04.08 20:24:03.
