data_PCOD8304403
_publ_section_title
;
Structure prediction by ZEFSAII (Michael W. Deem and Ramdas Pophale) SiO2 
 PCOD8304403
Probable space group: I 41/A
;
_chemical_formula_sum "Si O2"
_cell_formula_units_Z 96
_cell_length_a 14.052135
_cell_length_b 14.052135
_cell_length_c 20.598067
_cell_angle_alpha 90.000000
_cell_angle_beta 90.000000
_cell_angle_gamma 90.000000
_cell_volume 4067.345765
_symmetry_space_group_name_H-M "I 41/A"
_symmetry_group_IT_number 88
_space_group.IT_coordinate_system_code '2'
_symmetry_cell_setting 'tetragonal'
loop_
_space_group_symop_operation_xyz
x,y,z
3/4-y,1/4+x,1/4+z
-x,1/2-y,z
1/4+y,1/4-x,1/4+z
-x,-y,-z
1/4+y,3/4-x,3/4-z
x,1/2+y,-z
3/4-y,3/4+x,3/4-z
1/2+x,1/2+y,1/2+z
1/4-y,3/4+x,3/4+z
1/2-x,-y,1/2+z
3/4+y,3/4-x,3/4+z
1/2-x,1/2-y,1/2-z
3/4+y,1/4-x,1/4-z
1/2+x,y,1/2-z
1/4-y,1/4+x,1/4-z
loop_
_atom_site_type_symbol
_atom_site_label
_atom_site_fract_x
_atom_site_fract_y
_atom_site_fract_z
Si Si1 0.600101 0.795253 0.769216
Si Si2 0.024267 0.601553 0.887370
Si Si3 0.077786 0.402571 0.864876
Si Si4 0.741364 0.900825 0.025917
Si Si5 0.395952 0.775901 0.021986
Si Si6 0.723252 0.061962 0.915216
O O1 0.500000 0.750000 0.746464
O O2 0.675061 0.758512 0.713772
O O3 0.623575 0.760892 0.841031
O O4 0.597436 0.908864 0.770315
O O5 0.109157 0.678558 0.893600
O O6 0.062238 0.513367 0.845705
O O7 0.075993 0.343001 0.798674
O O8 0.174282 0.387856 0.905340
O O9 0.736812 0.945701 0.097565
O O10 0.661301 0.821821 0.015384
O O11 0.727376 0.984231 0.972602
O O12 0.500000 0.750000 0.048909
O O13 0.349876 0.852972 0.070005
#
# Coordination Sequence:
#
# PCOD8304403 Si02
#       6
#    16  16  16  16  16  16
#     4  12  24  44  71 112 153 197 244 320 399 473
#     4  11  23  38  68 106 155 197 235 297 389 481
#     4  12  26  45  77 110 153 197 263 319 392 474
#     4  12  28  51  79 113 160 204 264 327 403 476
#     4  12  30  53  79 108 150 206 269 337 392 461
#     4  12  28  50  80 115 151 210 267 327 398 479
#
# _framework density 23.602616999999999
#
# number of rings (size 3 to 8) (size 9 to 14) (size 15 to 20)
#    0.000    0.167    5.000    4.000    7.000    2.000 
#    0.000    0.000    0.000    0.000    0.000    0.000 
#    0.000    0.000    0.000    0.000    0.000    0.000 
#
# Total GULP energy -595283.346253 kJ/mol
# GULP energy per Si atom -12401.736380 kJ/mol
# Density = 2.354890 g / cm^3
# Si number density = 23.602617 Si / 1000 Ang^3
#
#
#
# Elastic Constant Matrix: (Units=GPa)
#
#
# Indices 1 2 3 4 5 6 
#
# 1 121.0857 48.3958 23.0913 0.0000 0.0000 -0.3739
# 2 48.3958 121.0857 23.0913 0.0000 0.0000 0.3739
# 3 23.0913 23.0913 132.1163 0.0000 0.0000 0.0000
# 4 0.0000 0.0000 0.0000 35.4530 0.0000 0.0000
# 5 0.0000 0.0000 0.0000 0.0000 35.4530 0.0000
# 6 -0.3739 0.3739 0.0000 0.0000 0.0000 36.5217
#
#
#
# Elastic Compliance Matrix: (Units=1/GPa)
#
#
# Indices 1 2 3 4 5 6 
#
# 1 0.009977 -0.003782 -0.001083 0.000000 0.000000 0.000141
# 2 -0.003782 0.009977 -0.001083 0.000000 0.000000 -0.000141
# 3 -0.001083 -0.001083 0.007948 0.000000 0.000000 0.000000
# 4 0.000000 0.000000 0.000000 0.028206 0.000000 0.000000
# 5 0.000000 0.000000 0.000000 0.000000 0.028206 0.000000
# 6 0.000141 -0.000141 0.000000 0.000000 0.000000 0.027384
#
#
# Mechanical properties :
#
#
# Convention : Reuss Voigt Hill
#
# Bulk Modulus (GPa) = 62.47231 62.60494 62.53863
# Shear Modulus (GPa) = 38.78124 40.13281 39.45703
#
# Velocity S-wave (km/s) = 4.05790 4.12801 4.09311
# Velocity P-wave (km/s) = 6.96285 7.02159 6.99228
#
# Compressibility (1/GPa) = 0.01600709
#
# Stress axis : x y z
#
# Youngs Moduli (GPa) = 100.23083 100.23083 125.82405
#
# Poissons Ratio (x) = 0.37903 0.13625
# Poissons Ratio (y) = 0.37903 0.13625
# Poissons Ratio (z) = 0.10853 0.10853
#
# Static dielectric constant tensor:
#      x y z
#    x 4.294890 0.000000 0.000000 
#    y 0.000000 4.294890 0.000000 
#    z 0.000000 0.000000 4.420290 
# 
# 
# High freq. dielectric constant tensor:
#      x y z
#    x 1.934910 0.000000 0.000000 
#    y 0.000000 1.934910 0.000000 
#    z 0.000000 0.000000 1.956370 
# 
# From -- ./inp_files/4712.got.cif
#   From: 2010.03.12/outbox.cif.g09.slc.cpg/sg88_3_cif.got.tgz:4712.got - 2010.04.08 20:20:55.
