data_PCOD8304329
_publ_section_title
;
Structure prediction by ZEFSAII (Michael W. Deem and Ramdas Pophale) SiO2 
 PCOD8304329
Probable space group: I 41/A
;
_chemical_formula_sum "Si O2"
_cell_formula_units_Z 48
_cell_length_a 15.292544
_cell_length_b 15.292544
_cell_length_c 9.187552
_cell_angle_alpha 90.000000
_cell_angle_beta 90.000000
_cell_angle_gamma 90.000000
_cell_volume 2148.618385
_symmetry_space_group_name_H-M "I 41/A"
_symmetry_group_IT_number 88
_space_group.IT_coordinate_system_code '2'
_symmetry_cell_setting 'tetragonal'
loop_
_space_group_symop_operation_xyz
x,y,z
3/4-y,1/4+x,1/4+z
-x,1/2-y,z
1/4+y,1/4-x,1/4+z
-x,-y,-z
1/4+y,3/4-x,3/4-z
x,1/2+y,-z
3/4-y,3/4+x,3/4-z
1/2+x,1/2+y,1/2+z
1/4-y,3/4+x,3/4+z
1/2-x,-y,1/2+z
3/4+y,3/4-x,3/4+z
1/2-x,1/2-y,1/2-z
3/4+y,1/4-x,1/4-z
1/2+x,y,1/2-z
1/4-y,1/4+x,1/4-z
loop_
_atom_site_type_symbol
_atom_site_label
_atom_site_fract_x
_atom_site_fract_y
_atom_site_fract_z
Si Si1 0.473571 0.379737 0.930223
Si Si2 0.831978 0.942326 0.873463
Si Si3 0.196023 0.236991 0.976196
O O1 0.564786 0.353726 0.858185
O O2 0.447785 0.472703 0.864234
O O3 0.482218 0.376427 0.105012
O O4 0.760475 0.948342 0.746166
O O5 0.929140 0.970388 0.823519
O O6 0.840794 0.842695 0.929184
#
# Coordination Sequence:
#
# PCOD8304329 Si02
#       3
#    16  16  16
#     4  10  22  41  68  98 133 182 232 288 357 437
#     4  12  28  45  72 104 143 190 242 300 368 432
#     4  11  25  43  68 100 145 180 239 290 365 423
#
# _framework density 22.339935000000001
#
# number of rings (size 3 to 8) (size 9 to 14) (size 15 to 20)
#    0.000    1.000    0.000    5.000   14.000    6.000 
#    0.000    0.000    0.000    0.000    0.000    0.000 
#    0.000    0.000    0.000    0.000    0.000    0.000 
#
# Total GULP energy -297681.623681 kJ/mol
# GULP energy per Si atom -12403.400987 kJ/mol
# Density = 2.228909 g / cm^3
# Si number density = 22.339935 Si / 1000 Ang^3
#
#
#
# Elastic Constant Matrix: (Units=GPa)
#
#
# Indices 1 2 3 4 5 6 
#
# 1 83.3644 -6.3627 28.7479 0.0000 0.0000 -3.3809
# 2 -6.3627 83.3644 28.7479 0.0000 0.0000 3.3809
# 3 28.7479 28.7479 124.6815 0.0000 0.0000 0.0000
# 4 0.0000 0.0000 0.0000 40.9263 0.0000 0.0000
# 5 0.0000 0.0000 0.0000 0.0000 40.9263 0.0000
# 6 -3.3809 3.3809 0.0000 0.0000 0.0000 26.3854
#
#
#
# Elastic Compliance Matrix: (Units=1/GPa)
#
#
# Indices 1 2 3 4 5 6 
#
# 1 0.013471 0.002217 -0.003617 0.000000 0.000000 0.001442
# 2 0.002217 0.013471 -0.003617 0.000000 0.000000 -0.001442
# 3 -0.003617 -0.003617 0.009688 0.000000 0.000000 0.000000
# 4 0.000000 0.000000 0.000000 0.024434 0.000000 0.000000
# 5 0.000000 0.000000 0.000000 0.000000 0.024434 0.000000
# 6 0.001442 -0.001442 0.000000 0.000000 0.000000 0.038269
#
#
# Mechanical properties :
#
#
# Convention : Reuss Voigt Hill
#
# Bulk Modulus (GPa) = 37.60082 43.74184 40.67133
# Shear Modulus (GPa) = 35.04674 37.66607 36.35641
#
# Velocity S-wave (km/s) = 3.96510 4.11060 4.03850
# Velocity P-wave (km/s) = 6.15064 6.49246 6.32386
#
# Compressibility (1/GPa) = 0.02659516
#
# Stress axis : x y z
#
# Youngs Moduli (GPa) = 74.23592 74.23592 103.21586
#
# Poissons Ratio (x) = -0.16458 0.37334
# Poissons Ratio (y) = -0.16458 0.37334
# Poissons Ratio (z) = 0.26852 0.26852
#
# Static dielectric constant tensor:
#      x y z
#    x 3.918430 0.000000 0.000000 
#    y 0.000000 3.918430 0.000000 
#    z 0.000000 0.000000 4.243780 
# 
# 
# High freq. dielectric constant tensor:
#      x y z
#    x 1.883250 0.000000 0.000000 
#    y 0.000000 1.883250 0.000000 
#    z 0.000000 0.000000 1.894990 
# 
# From -- ./inp_files/1135.got.cif
#   From: 2010.03.12/outbox.cif.g09.slc.cpg/sg88_1_cif.got.tgz:1135.got - 2010.04.08 20:20:55.
