data_PCOD8304189
_publ_section_title
;
Structure prediction by ZEFSAII (Michael W. Deem and Ramdas Pophale) SiO2 
 PCOD8304189
Probable space group: I 41/A
;
_chemical_formula_sum "Si O2"
_cell_formula_units_Z 80
_cell_length_a 27.027687
_cell_length_b 27.027687
_cell_length_c 5.417040
_cell_angle_alpha 90.000000
_cell_angle_beta 90.000000
_cell_angle_gamma 90.000000
_cell_volume 3957.125318
_symmetry_space_group_name_H-M "I 41/A"
_symmetry_group_IT_number 88
_space_group.IT_coordinate_system_code '2'
_symmetry_cell_setting 'tetragonal'
loop_
_space_group_symop_operation_xyz
x,y,z
3/4-y,1/4+x,1/4+z
-x,1/2-y,z
1/4+y,1/4-x,1/4+z
-x,-y,-z
1/4+y,3/4-x,3/4-z
x,1/2+y,-z
3/4-y,3/4+x,3/4-z
1/2+x,1/2+y,1/2+z
1/4-y,3/4+x,3/4+z
1/2-x,-y,1/2+z
3/4+y,3/4-x,3/4+z
1/2-x,1/2-y,1/2-z
3/4+y,1/4-x,1/4-z
1/2+x,y,1/2-z
1/4-y,1/4+x,1/4-z
loop_
_atom_site_type_symbol
_atom_site_label
_atom_site_fract_x
_atom_site_fract_y
_atom_site_fract_z
Si Si1 0.819247 0.194406 0.489051
Si Si2 0.442546 0.540811 0.288309
Si Si3 0.087880 0.070656 0.263423
Si Si4 0.713279 0.645902 0.459153
Si Si5 0.303065 0.450764 0.312719
O O1 0.807344 0.251263 0.452009
O O2 0.848827 0.186059 0.748916
O O3 0.770583 0.160995 0.536595
O O4 0.848795 0.172966 0.248657
O O5 0.440631 0.481372 0.284156
O O6 0.415782 0.561923 0.535410
O O7 0.417096 0.562431 0.038844
O O8 0.145699 0.063503 0.316836
O O9 0.707155 0.586104 0.455498
O O10 0.307259 0.508073 0.376952
#
# Coordination Sequence:
#
# PCOD8304189 Si02
#       5
#    16  16  16  16  16
#     4  10  18  35  55  72  90 116 180 241 272 309
#     4  10  18  35  55  72  90 116 180 241 272 309
#     4  10  20  34  48  75  91 131 178 219 264 301
#     4  10  20  34  48  75  91 131 178 219 264 301
#     4  12  26  36  50  70 114 160 190 223 232 303
#
# _framework density 20.216697
#
# number of rings (size 3 to 8) (size 9 to 14) (size 15 to 20)
#    0.000    1.600    4.000    6.000    5.600    1.600 
#    0.000    0.000    0.000    0.000    0.000    0.000 
#    0.000    0.000    0.000    0.000    0.000  195.000 
#
# Total GULP energy -495547.738071 kJ/mol
# GULP energy per Si atom -12388.693452 kJ/mol
# Density = 2.017068 g / cm^3
# Si number density = 20.216697 Si / 1000 Ang^3
#
#
#
# Elastic Constant Matrix: (Units=GPa)
#
#
# Indices 1 2 3 4 5 6 
#
# 1 61.1900 -11.1541 16.6175 0.0000 0.0000 2.0771
# 2 -11.1541 61.1900 16.6175 0.0000 0.0000 -2.0771
# 3 16.6175 16.6175 191.6719 0.0000 0.0000 0.0000
# 4 0.0000 0.0000 0.0000 13.8804 0.0000 0.0000
# 5 0.0000 0.0000 0.0000 0.0000 13.8804 0.0000
# 6 2.0771 -2.0771 0.0000 0.0000 0.0000 0.7122
#
#
#
# Elastic Compliance Matrix: (Units=1/GPa)
#
#
# Indices 1 2 3 4 5 6 
#
# 1 0.018905 0.002302 -0.001839 0.000000 0.000000 -0.048424
# 2 0.002302 0.018905 -0.001839 0.000000 0.000000 0.048424
# 3 -0.001839 -0.001839 0.005536 0.000000 0.000000 0.000000
# 4 0.000000 0.000000 0.000000 0.072044 0.000000 0.000000
# 5 0.000000 0.000000 0.000000 0.000000 0.072044 0.000000
# 6 -0.048424 0.048424 0.000000 0.000000 0.000000 1.686585
#
#
# Mechanical properties :
#
#
# Convention : Reuss Voigt Hill
#
# Bulk Modulus (GPa) = 24.63333 39.80155 32.21744
# Shear Modulus (GPa) = 2.64508 25.15931 13.90219
#
# Velocity S-wave (km/s) = 1.14508 3.53155 2.62517
# Velocity P-wave (km/s) = 3.73622 6.02987 5.01591
#
# Compressibility (1/GPa) = 0.04059541
#
# Stress axis : x y z
#
# Youngs Moduli (GPa) = 52.89562 52.89562 180.63410
#
# Poissons Ratio (x) = -0.12175 0.33211
# Poissons Ratio (y) = -0.12175 0.33211
# Poissons Ratio (z) = 0.09725 0.09725
#
# Static dielectric constant tensor:
#      x y z
#    x 3.375660 0.000000 0.000000 
#    y 0.000000 3.375660 0.000000 
#    z 0.000000 0.000000 5.216090 
# 
# 
# High freq. dielectric constant tensor:
#      x y z
#    x 1.734340 0.000000 0.000000 
#    y 0.000000 1.734340 0.000000 
#    z 0.000000 0.000000 1.829600 
# 
# From -- ./inp_files/698.got.cif
#   From: 2010.03.12/outbox.cif.g09.slc.cpg/sg88_1_cif.got.tgz:698.got - 2010.04.08 20:20:55.
