data_PCOD8304727
_publ_section_title
;
Structure prediction by ZEFSAII (Michael W. Deem and Ramdas Pophale) SiO2 
 PCOD8304727
Probable space group: P 41 2 2
;
_chemical_formula_sum "Si O2"
_cell_formula_units_Z 64
_cell_length_a 15.968072
_cell_length_b 15.968072
_cell_length_c 15.709585
_cell_angle_alpha 90.000000
_cell_angle_beta 90.000000
_cell_angle_gamma 90.000000
_cell_volume 4005.619354
_symmetry_space_group_name_H-M "P 41 2 2"
_symmetry_group_IT_number 91
_symmetry_cell_setting 'tetragonal'
loop_
_space_group_symop_operation_xyz
x,y,z
-y,x,1/4+z
-x,-y,1/2+z
y,-x,3/4+z
x,-y,1/2-z
-x,y,-z
y,x,3/4-z
-y,-x,1/4-z
loop_
_atom_site_type_symbol
_atom_site_label
_atom_site_fract_x
_atom_site_fract_y
_atom_site_fract_z
Si Si1 0.803640 0.858921 0.611239
Si Si2 0.549057 0.124354 0.083426
Si Si3 0.479439 0.099222 0.260439
Si Si4 0.953210 0.830230 0.851101
Si Si5 0.098474 0.294346 0.482465
Si Si6 0.261372 0.863360 0.576838
Si Si7 0.247780 0.945493 0.922808
Si Si8 0.926451 0.562694 0.677884
O O1 0.740624 0.843532 0.690226
O O2 0.753686 0.857572 0.523543
O O3 0.880691 0.793054 0.605444
O O4 0.835979 0.951669 0.630207
O O5 0.504927 0.146966 0.173219
O O6 0.642189 0.163189 0.088832
O O7 0.549553 0.025068 0.076822
O O8 0.500000 0.160606 0.000000
O O9 0.387493 0.131757 0.286573
O O10 0.542362 0.119690 0.338374
O O11 0.479919 0.000000 0.250000
O O12 0.921933 0.921933 0.875000
O O13 0.893921 0.763233 0.899510
O O14 0.943340 0.813708 0.752142
O O15 0.000000 0.300028 0.500000
O O16 0.199446 0.800555 0.625000
O O17 0.249623 0.958745 0.612233
O O18 0.339687 0.911734 0.948934
O O19 0.889839 0.500000 0.750000
#
# Coordination Sequence:
#
# PCOD8304727 Si02
#       8
#     8   8   8   8   8   8   8   8
#     4  10  20  31  45  62  87 123 162 198 228 259
#     4   9  17  31  48  65  86 114 150 188 229 276
#     4   9  16  26  46  67  83 109 142 184 233 280
#     4  10  18  30  45  63  87 119 160 202 231 254
#     4   9  16  28  46  67  87 109 150 198 234 268
#     4  10  22  34  45  64  92 125 157 194 233 271
#     4  10  20  32  46  64  89 124 160 193 230 275
#     4   9  17  29  45  66  89 111 145 189 233 284
#
# _framework density 15.977553
#
# number of rings (size 3 to 8) (size 9 to 14) (size 15 to 20)
#    0.000    2.500    1.250    1.500    1.750    7.000 
#    0.000    2.500    0.000    0.000    0.000    0.000 
#    0.000    0.000    0.000    5.625    0.500    0.875 
#
# Total GULP energy -793058.574402 kJ/mol
# GULP energy per Si atom -12391.540225 kJ/mol
# Density = 1.594119 g / cm^3
# Si number density = 15.977553 Si / 1000 Ang^3
#
#
#
# Elastic Constant Matrix: (Units=GPa)
#
#
# Indices 1 2 3 4 5 6 
#
# 1 62.5126 35.1103 18.3484 0.0000 0.0000 0.0000
# 2 35.1103 62.5122 18.3489 0.0000 0.0000 0.0000
# 3 18.3484 18.3489 64.5530 0.0000 0.0000 0.0000
# 4 0.0000 0.0000 0.0000 20.6422 0.0000 0.0000
# 5 0.0000 0.0000 0.0000 0.0000 20.6421 0.0000
# 6 0.0000 0.0000 0.0000 0.0000 0.0000 5.8025
#
#
#
# Elastic Compliance Matrix: (Units=1/GPa)
#
#
# Indices 1 2 3 4 5 6 
#
# 1 0.023981 -0.012512 -0.003260 0.000000 0.000000 0.000000
# 2 -0.012512 0.023981 -0.003260 0.000000 0.000000 0.000000
# 3 -0.003260 -0.003260 0.017344 0.000000 0.000000 0.000000
# 4 0.000000 0.000000 0.000000 0.048445 0.000000 0.000000
# 5 0.000000 0.000000 0.000000 0.000000 0.048445 0.000000
# 6 0.000000 0.000000 0.000000 0.000000 0.000000 0.172339
#
#
# Mechanical properties :
#
#
# Convention : Reuss Voigt Hill
#
# Bulk Modulus (GPa) = 36.70737 37.02144 36.86441
# Shear Modulus (GPa) = 13.09998 17.26872 15.18435
#
# Velocity S-wave (km/s) = 2.86649 3.29114 3.08613
# Velocity P-wave (km/s) = 5.82923 6.13704 5.98512
#
# Compressibility (1/GPa) = 0.02724248
#
# Stress axis : x y z
#
# Youngs Moduli (GPa) = 41.69954 41.69895 57.65559
#
# Poissons Ratio (x) = 0.52175 0.18794
# Poissons Ratio (y) = 0.52176 0.18797
# Poissons Ratio (z) = 0.13593 0.13595
#
# Static dielectric constant tensor:
#      x y z
#    x 2.899880 0.000000 0.000000 
#    y 0.000000 2.899880 0.000000 
#    z 0.000000 0.000000 3.187410 
# 
# 
# High freq. dielectric constant tensor:
#      x y z
#    x 1.578980 0.000000 0.000000 
#    y 0.000000 1.578980 0.000000 
#    z 0.000000 0.000000 1.626410 
# 
# From -- ./inp_files/12064.got.cif
#   From: 2010.03.12/outbox.cif.g09.slc.cpg/sg91_7_cif.got.tgz:12064.got - 2010.04.08 20:27:58.
