data_PCOD8304626
_publ_section_title
;
Structure prediction by ZEFSAII (Michael W. Deem and Ramdas Pophale) SiO2 
 PCOD8304626
Probable space group: P 4 21 2
;
_chemical_formula_sum "Si O2"
_cell_formula_units_Z 40
_cell_length_a 14.501293
_cell_length_b 14.501293
_cell_length_c 9.108397
_cell_angle_alpha 90.000000
_cell_angle_beta 90.000000
_cell_angle_gamma 90.000000
_cell_volume 1915.382022
_symmetry_space_group_name_H-M "P 4 21 2"
_symmetry_group_IT_number 90
_symmetry_cell_setting 'tetragonal'
loop_
_space_group_symop_operation_xyz
x,y,z
1/2-y,1/2+x,z
-x,-y,z
1/2+y,1/2-x,z
1/2+x,1/2-y,-z
1/2-x,1/2+y,-z
y,x,-z
-y,-x,-z
loop_
_atom_site_type_symbol
_atom_site_label
_atom_site_fract_x
_atom_site_fract_y
_atom_site_fract_z
Si Si1 0.135574 0.140693 0.164032
Si Si2 0.297917 0.467516 0.662265
Si Si3 0.929890 0.366701 0.844802
Si Si4 0.335897 0.227085 0.897091
Si Si5 0.179058 0.952302 0.665656
O O1 0.190839 0.236033 0.152317
O O2 0.043985 0.155979 0.251277
O O3 0.195933 0.063371 0.247581
O O4 0.108352 0.108352 0.000000
O O5 0.216888 0.403654 0.733504
O O6 0.395150 0.415358 0.662371
O O7 0.276723 0.481575 0.490147
O O8 0.877660 0.461393 0.814555
O O9 0.899776 0.342942 0.010616
O O10 0.392740 0.245317 0.750707
O O11 0.317522 0.317522 0.000000
#
# Coordination Sequence:
#
# PCOD8304626 Si02
#       5
#     8   8   8   8   8
#     4  11  24  40  67  98 129 174 226 282 336 403
#     4  11  24  42  62  95 137 174 225 275 348 412
#     4  11  23  41  67  95 131 176 226 284 338 406
#     4  11  21  41  65  94 126 169 225 278 338 401
#     4  11  24  41  64  95 134 179 217 283 341 412
#
# _framework density 20.883564
#
# number of rings (size 3 to 8) (size 9 to 14) (size 15 to 20)
#    0.000    1.000    2.000    6.000    0.000    4.000 
#    3.600    0.000    0.000    2.400    0.000    0.000 
#    0.000    0.000    0.000    0.000    0.000    0.000 
#
# Total GULP energy -495806.600126 kJ/mol
# GULP energy per Si atom -12395.165003 kJ/mol
# Density = 2.083603 g / cm^3
# Si number density = 20.883564 Si / 1000 Ang^3
#
#
#
# Elastic Constant Matrix: (Units=GPa)
#
#
# Indices 1 2 3 4 5 6 
#
# 1 93.5695 -1.9828 34.2446 0.0000 0.0000 0.0000
# 2 -1.9828 93.5695 34.2446 0.0000 0.0000 0.0000
# 3 34.2446 34.2446 146.9277 0.0000 0.0000 0.0000
# 4 0.0000 0.0000 0.0000 7.0089 0.0000 0.0000
# 5 0.0000 0.0000 0.0000 0.0000 7.0089 0.0000
# 6 0.0000 0.0000 0.0000 0.0000 0.0000 -5.2165
#
#
#
# Elastic Compliance Matrix: (Units=1/GPa)
#
#
# Indices 1 2 3 4 5 6 
#
# 1 0.011844 0.001379 -0.003082 0.000000 0.000000 0.000000
# 2 0.001379 0.011844 -0.003082 0.000000 0.000000 0.000000
# 3 -0.003082 -0.003082 0.008243 0.000000 0.000000 0.000000
# 4 0.000000 0.000000 0.000000 0.142675 0.000000 0.000000
# 5 0.000000 0.000000 0.000000 0.000000 0.142675 0.000000
# 6 0.000000 0.000000 0.000000 0.000000 0.000000 -0.191699
#
#
# Mechanical properties :
#
#
# Convention : Reuss Voigt Hill
#
# Bulk Modulus (GPa) = 44.71978 51.89773 48.30876
# Shear Modulus (GPa) = 35.06170 19.59764 27.32967
#
# Velocity S-wave (km/s) = 4.10190 3.06669 3.62148
# Velocity P-wave (km/s) = 6.62529 6.11919 6.37726
#
# Compressibility (1/GPa) = 0.02236147
#
# Stress axis : x y z
#
# Youngs Moduli (GPa) = 84.42806 84.42806 121.31937
#
# Poissons Ratio (x) = -0.11642 0.37390
# Poissons Ratio (y) = -0.11642 0.37390
# Poissons Ratio (z) = 0.26021 0.26021
#
# Static dielectric constant tensor:
#      x y z
#    x 3.895770 0.000000 0.000000 
#    y 0.000000 3.895770 0.000000 
#    z 0.000000 0.000000 5.681280 
# 
# 
# High freq. dielectric constant tensor:
#      x y z
#    x 1.820940 0.000000 0.000000 
#    y 0.000000 1.820940 0.000000 
#    z 0.000000 0.000000 1.822450 
# 
# From -- ./inp_files/1274.got.cif
#   From: 2010.03.12/outbox.cif.g09.slc.cpg/sg90_1_cif.got.tgz:1274.got - 2010.04.08 20:26:03.
