data_PCOD8304200
_publ_section_title
;
Structure prediction by ZEFSAII (Michael W. Deem and Ramdas Pophale) SiO2 
 PCOD8304200
Probable space group: I 41/A
;
_chemical_formula_sum "Si O2"
_cell_formula_units_Z 64
_cell_length_a 18.299078
_cell_length_b 18.299078
_cell_length_c 10.366618
_cell_angle_alpha 90.000000
_cell_angle_beta 90.000000
_cell_angle_gamma 90.000000
_cell_volume 3471.326887
_symmetry_space_group_name_H-M "I 41/A"
_symmetry_group_IT_number 88
_space_group.IT_coordinate_system_code '2'
_symmetry_cell_setting 'tetragonal'
loop_
_space_group_symop_operation_xyz
x,y,z
3/4-y,1/4+x,1/4+z
-x,1/2-y,z
1/4+y,1/4-x,1/4+z
-x,-y,-z
1/4+y,3/4-x,3/4-z
x,1/2+y,-z
3/4-y,3/4+x,3/4-z
1/2+x,1/2+y,1/2+z
1/4-y,3/4+x,3/4+z
1/2-x,-y,1/2+z
3/4+y,3/4-x,3/4+z
1/2-x,1/2-y,1/2-z
3/4+y,1/4-x,1/4-z
1/2+x,y,1/2-z
1/4-y,1/4+x,1/4-z
loop_
_atom_site_type_symbol
_atom_site_label
_atom_site_fract_x
_atom_site_fract_y
_atom_site_fract_z
Si Si1 0.971003 0.520122 0.143492
Si Si2 0.649651 0.679055 0.579114
Si Si3 0.582673 0.261600 0.183361
Si Si4 0.773053 0.555580 0.906629
O O1 0.885651 0.511447 0.165142
O O2 0.014404 0.460206 0.228941
O O3 0.990870 0.605202 0.172944
O O4 0.000000 0.500000 0.000000
O O5 0.597294 0.655773 0.462625
O O6 0.597263 0.712716 0.689842
O O7 0.691924 0.609596 0.634748
O O8 0.500000 0.250000 0.131658
O O9 0.735555 0.509333 0.791862
#
# Coordination Sequence:
#
# PCOD8304200 Si02
#       4
#    16  16  16  16
#     4  10  19  30  49  82 107 143 181 241 279 338
#     4  11  16  30  49  80 110 133 180 239 289 316
#     4  11  16  25  47  77 109 136 174 237 288 322
#     4  12  22  35  54  82 118 152 185 235 290 342
#
# _framework density 18.436754000000001
#
# number of rings (size 3 to 8) (size 9 to 14) (size 15 to 20)
#    0.000    1.000   12.500    0.000    0.000    0.000 
#    0.000    0.000    0.000    1.500    0.000    0.000 
#    0.000    0.000    0.000    0.000    0.000    0.000 
#
# Total GULP energy -396541.622853 kJ/mol
# GULP energy per Si atom -12391.925714 kJ/mol
# Density = 1.839479 g / cm^3
# Si number density = 18.436754 Si / 1000 Ang^3
#
#
#
# Elastic Constant Matrix: (Units=GPa)
#
#
# Indices 1 2 3 4 5 6 
#
# 1 133.3025 38.0191 36.8029 0.0000 0.0000 5.9286
# 2 38.0191 133.3025 36.8029 0.0000 0.0000 -5.9286
# 3 36.8029 36.8029 43.2084 0.0000 0.0000 0.0000
# 4 0.0000 0.0000 0.0000 10.5602 0.0000 0.0000
# 5 0.0000 0.0000 0.0000 0.0000 10.5602 0.0000
# 6 5.9286 -5.9286 0.0000 0.0000 0.0000 34.5521
#
#
#
# Elastic Compliance Matrix: (Units=1/GPa)
#
#
# Indices 1 2 3 4 5 6 
#
# 1 0.009965 -0.000759 -0.007841 0.000000 0.000000 -0.001840
# 2 -0.000759 0.009965 -0.007841 0.000000 0.000000 0.001840
# 3 -0.007841 -0.007841 0.036501 0.000000 0.000000 0.000000
# 4 0.000000 0.000000 0.000000 0.094695 0.000000 0.000000
# 5 0.000000 0.000000 0.000000 0.000000 0.094695 0.000000
# 6 -0.001840 0.001840 0.000000 0.000000 0.000000 0.029573
#
#
# Mechanical properties :
#
#
# Convention : Reuss Voigt Hill
#
# Bulk Modulus (GPa) = 42.46596 59.22923 50.84760
# Shear Modulus (GPa) = 15.81651 24.34707 20.08179
#
# Velocity S-wave (km/s) = 2.93214 3.63791 3.30392
# Velocity P-wave (km/s) = 5.87763 7.05983 6.49568
#
# Compressibility (1/GPa) = 0.02354827
#
# Stress axis : x y z
#
# Youngs Moduli (GPa) = 100.35248 100.35248 27.39659
#
# Poissons Ratio (x) = 0.07618 0.21482
# Poissons Ratio (y) = 0.07618 0.21482
# Poissons Ratio (z) = 0.78687 0.78687
#
# Static dielectric constant tensor:
#      x y z
#    x 3.896470 0.000000 0.000000 
#    y 0.000000 3.896470 0.000000 
#    z 0.000000 0.000000 2.739870 
# 
# 
# High freq. dielectric constant tensor:
#      x y z
#    x 1.734720 0.000000 0.000000 
#    y 0.000000 1.734720 0.000000 
#    z 0.000000 0.000000 1.614520 
# 
# From -- ./inp_files/2337.got.cif
#   From: 2010.03.12/outbox.cif.g09.slc.cpg/sg88_2_cif.got.tgz:2337.got - 2010.04.08 20:20:55.
