data_PCOD8304616
_publ_section_title
;
Structure prediction by ZEFSAII (Michael W. Deem and Ramdas Pophale) SiO2 
 PCOD8304616
Probable space group: P 4 21 2
;
_chemical_formula_sum "Si O2"
_cell_formula_units_Z 48
_cell_length_a 11.985097
_cell_length_b 11.985097
_cell_length_c 15.878283
_cell_angle_alpha 90.000000
_cell_angle_beta 90.000000
_cell_angle_gamma 90.000000
_cell_volume 2280.797061
_symmetry_space_group_name_H-M "P 4 21 2"
_symmetry_group_IT_number 90
_symmetry_cell_setting 'tetragonal'
loop_
_space_group_symop_operation_xyz
x,y,z
1/2-y,1/2+x,z
-x,-y,z
1/2+y,1/2-x,z
1/2+x,1/2-y,-z
1/2-x,1/2+y,-z
y,x,-z
-y,-x,-z
loop_
_atom_site_type_symbol
_atom_site_label
_atom_site_fract_x
_atom_site_fract_y
_atom_site_fract_z
Si Si1 0.096225 0.227857 0.651601
Si Si2 0.630948 0.502298 0.284865
Si Si3 0.682652 0.988629 0.177753
Si Si4 0.994665 0.318171 0.147947
Si Si5 0.000218 0.818380 0.986673
Si Si6 0.868669 0.202539 0.590436
O O1 0.020045 0.258615 0.732237
O O2 0.181375 0.323657 0.627165
O O3 0.002827 0.211088 0.578903
O O4 0.162248 0.112870 0.667834
O O5 0.500000 0.500000 0.260043
O O6 0.704427 0.512303 0.200979
O O7 0.663045 0.602088 0.347227
O O8 0.603508 0.882680 0.167584
O O9 0.778189 0.990210 0.108607
O O10 0.886845 0.393257 0.168804
O O11 0.997513 0.286749 0.049509
O O12 0.891185 0.891185 0.000000
O O13 0.112993 0.887007 0.000000
O O14 0.814883 0.185118 0.500000
#
# Coordination Sequence:
#
# PCOD8304616 Si02
#       6
#     8   8   8   8   8   8
#     4  11  23  44  71  98 138 174 230 282 345 413
#     4  10  24  41  69  99 133 179 228 278 345 413
#     4  11  23  42  66  96 132 177 231 289 350 402
#     4  11  24  43  65  95 136 179 225 279 342 410
#     4  11  26  40  63  96 135 179 234 286 343 403
#     4  11  26  43  70 102 135 180 224 291 348 415
#
# _framework density 21.045272000000001
#
# number of rings (size 3 to 8) (size 9 to 14) (size 15 to 20)
#    0.000    1.167    1.667    3.000    9.333    8.000 
#    0.000    0.000    0.000    0.000    0.000    0.000 
#    0.000    0.000    0.000    0.000    0.000    0.000 
#
# Total GULP energy -595435.163391 kJ/mol
# GULP energy per Si atom -12404.899237 kJ/mol
# Density = 2.099737 g / cm^3
# Si number density = 21.045272 Si / 1000 Ang^3
#
#
#
# Elastic Constant Matrix: (Units=GPa)
#
#
# Indices 1 2 3 4 5 6 
#
# 1 98.4953 33.9768 37.1681 0.0000 0.0000 0.0000
# 2 33.9768 98.4955 37.1679 0.0000 0.0000 0.0000
# 3 37.1681 37.1679 105.2417 0.0000 0.0000 0.0000
# 4 0.0000 0.0000 0.0000 27.4769 0.0000 0.0000
# 5 0.0000 0.0000 0.0000 0.0000 27.4768 0.0000
# 6 0.0000 0.0000 0.0000 0.0000 0.0000 26.1285
#
#
#
# Elastic Compliance Matrix: (Units=1/GPa)
#
#
# Indices 1 2 3 4 5 6 
#
# 1 0.012457 -0.003042 -0.003325 0.000000 0.000000 0.000000
# 2 -0.003042 0.012457 -0.003325 0.000000 0.000000 0.000000
# 3 -0.003325 -0.003325 0.011850 0.000000 0.000000 0.000000
# 4 0.000000 0.000000 0.000000 0.036394 0.000000 0.000000
# 5 0.000000 0.000000 0.000000 0.000000 0.036394 0.000000
# 6 0.000000 0.000000 0.000000 0.000000 0.000000 0.038272
#
#
# Mechanical properties :
#
#
# Convention : Reuss Voigt Hill
#
# Bulk Modulus (GPa) = 57.53796 57.65091 57.59444
# Shear Modulus (GPa) = 28.90122 29.14442 29.02282
#
# Velocity S-wave (km/s) = 3.70981 3.72539 3.71761
# Velocity P-wave (km/s) = 6.76385 6.77923 6.77154
#
# Compressibility (1/GPa) = 0.01737983
#
# Stress axis : x y z
#
# Youngs Moduli (GPa) = 80.27634 80.27664 84.38514
#
# Poissons Ratio (x) = 0.24424 0.28057
# Poissons Ratio (y) = 0.24424 0.28057
# Poissons Ratio (z) = 0.26691 0.26691
#
# Static dielectric constant tensor:
#      x y z
#    x 3.921200 0.000000 0.000000 
#    y 0.000000 3.921200 0.000000 
#    z 0.000000 0.000000 3.707330 
# 
# 
# High freq. dielectric constant tensor:
#      x y z
#    x 1.836030 0.000000 0.000000 
#    y 0.000000 1.836030 0.000000 
#    z 0.000000 0.000000 1.818860 
# 
# From -- ./inp_files/2646.got.cif
#   From: 2010.03.12/outbox.cif.g09.slc.cpg/sg90_2_cif.got.tgz:2646.got - 2010.04.08 20:26:03.
