data_PCOD8304406
_publ_section_title
;
Structure prediction by ZEFSAII (Michael W. Deem and Ramdas Pophale) SiO2 
 PCOD8304406
Probable space group: I 41/A
;
_chemical_formula_sum "Si O2"
_cell_formula_units_Z 80
_cell_length_a 26.860350
_cell_length_b 26.860350
_cell_length_c 4.871909
_cell_angle_alpha 90.000000
_cell_angle_beta 90.000000
_cell_angle_gamma 90.000000
_cell_volume 3514.977121
_symmetry_space_group_name_H-M "I 41/A"
_symmetry_group_IT_number 88
_space_group.IT_coordinate_system_code '2'
_symmetry_cell_setting 'tetragonal'
loop_
_space_group_symop_operation_xyz
x,y,z
3/4-y,1/4+x,1/4+z
-x,1/2-y,z
1/4+y,1/4-x,1/4+z
-x,-y,-z
1/4+y,3/4-x,3/4-z
x,1/2+y,-z
3/4-y,3/4+x,3/4-z
1/2+x,1/2+y,1/2+z
1/4-y,3/4+x,3/4+z
1/2-x,-y,1/2+z
3/4+y,3/4-x,3/4+z
1/2-x,1/2-y,1/2-z
3/4+y,1/4-x,1/4-z
1/2+x,y,1/2-z
1/4-y,1/4+x,1/4-z
loop_
_atom_site_type_symbol
_atom_site_label
_atom_site_fract_x
_atom_site_fract_y
_atom_site_fract_z
Si Si1 0.598267 0.520850 0.749179
Si Si2 0.402165 0.101756 0.273955
Si Si3 0.832122 0.674836 0.508982
Si Si4 0.774121 0.928174 0.141603
Si Si5 0.824067 0.789680 0.471200
O O1 0.600697 0.537844 0.434406
O O2 0.550593 0.484733 0.759377
O O3 0.589322 0.569534 0.943873
O O4 0.649495 0.493331 0.831711
O O5 0.382918 0.152572 0.133247
O O6 0.358990 0.059622 0.280065
O O7 0.422834 0.106148 0.583444
O O8 0.450084 0.087235 0.093910
O O9 0.835698 0.733533 0.551899
O O10 0.805862 0.976528 0.216655
#
# Coordination Sequence:
#
# PCOD8304406 Si02
#       5
#    16  16  16  16  16
#     4  11  23  40  63  96 125 170 223 256 310 373
#     4  11  25  43  62  98 127 168 219 255 320 386
#     4  12  23  43  67  92 127 166 214 274 318 368
#     4  11  25  38  60  93 137 183 208 250 302 379
#     4  11  24  42  67  92 128 166 213 271 321 370
#
# _framework density 22.75975
#
# number of rings (size 3 to 8) (size 9 to 14) (size 15 to 20)
#    0.000    0.800    2.000    6.000    5.600    0.000 
#    0.000    0.000    0.000    3.600    0.000    0.000 
#    0.000    0.000    0.000    0.000    0.000    0.000 
#
# Total GULP energy -495969.815741 kJ/mol
# GULP energy per Si atom -12399.245394 kJ/mol
# Density = 2.270795 g / cm^3
# Si number density = 22.759750 Si / 1000 Ang^3
#
#
#
# Elastic Constant Matrix: (Units=GPa)
#
#
# Indices 1 2 3 4 5 6 
#
# 1 105.2377 19.3897 2.9854 0.0000 0.0000 6.9987
# 2 19.3897 105.2377 2.9854 0.0000 0.0000 -6.9987
# 3 2.9854 2.9854 59.4000 0.0000 0.0000 0.0000
# 4 0.0000 0.0000 0.0000 18.9940 0.0000 0.0000
# 5 0.0000 0.0000 0.0000 0.0000 18.9940 0.0000
# 6 6.9987 -6.9987 0.0000 0.0000 0.0000 18.0566
#
#
#
# Elastic Compliance Matrix: (Units=1/GPa)
#
#
# Indices 1 2 3 4 5 6 
#
# 1 0.010239 -0.002196 -0.000404 0.000000 0.000000 -0.004820
# 2 -0.002196 0.010239 -0.000404 0.000000 0.000000 0.004820
# 3 -0.000404 -0.000404 0.016876 0.000000 0.000000 0.000000
# 4 0.000000 0.000000 0.000000 0.052648 0.000000 0.000000
# 5 0.000000 0.000000 0.000000 0.000000 0.052648 0.000000
# 6 -0.004820 0.004820 0.000000 0.000000 0.000000 0.059118
#
#
# Mechanical properties :
#
#
# Convention : Reuss Voigt Hill
#
# Bulk Modulus (GPa) = 31.90279 35.62183 33.76231
# Shear Modulus (GPa) = 22.91226 27.50990 25.21108
#
# Velocity S-wave (km/s) = 3.17630 3.48042 3.33183
# Velocity P-wave (km/s) = 5.24399 5.64237 5.44682
#
# Compressibility (1/GPa) = 0.03134522
#
# Stress axis : x y z
#
# Youngs Moduli (GPa) = 97.66773 97.66773 59.25700
#
# Poissons Ratio (x) = 0.21443 0.02395
# Poissons Ratio (y) = 0.21443 0.02395
# Poissons Ratio (z) = 0.03948 0.03948
#
# Static dielectric constant tensor:
#      x y z
#    x 3.980260 0.000000 0.000000 
#    y 0.000000 3.980260 0.000000 
#    z 0.000000 0.000000 4.139060 
# 
# 
# High freq. dielectric constant tensor:
#      x y z
#    x 1.881480 0.000000 0.000000 
#    y 0.000000 1.881480 0.000000 
#    z 0.000000 0.000000 1.915140 
# 
# From -- ./inp_files/681.got.cif
#   From: 2010.03.12/outbox.cif.g09.slc.cpg/sg88_1_cif.got.tgz:681.got - 2010.04.08 20:20:55.
