data_PCOD8304370
_publ_section_title
;
Structure prediction by ZEFSAII (Michael W. Deem and Ramdas Pophale) SiO2 
 PCOD8304370
Probable space group: I 41/A
;
_chemical_formula_sum "Si O2"
_cell_formula_units_Z 60
_cell_length_a 11.704970
_cell_length_b 11.704970
_cell_length_c 19.985335
_cell_angle_alpha 90.000000
_cell_angle_beta 90.000000
_cell_angle_gamma 90.000000
_cell_volume 2738.117256
_symmetry_space_group_name_H-M "I 41/A"
_symmetry_group_IT_number 88
_space_group.IT_coordinate_system_code '2'
_symmetry_cell_setting 'tetragonal'
loop_
_space_group_symop_operation_xyz
x,y,z
3/4-y,1/4+x,1/4+z
-x,1/2-y,z
1/4+y,1/4-x,1/4+z
-x,-y,-z
1/4+y,3/4-x,3/4-z
x,1/2+y,-z
3/4-y,3/4+x,3/4-z
1/2+x,1/2+y,1/2+z
1/4-y,3/4+x,3/4+z
1/2-x,-y,1/2+z
3/4+y,3/4-x,3/4+z
1/2-x,1/2-y,1/2-z
3/4+y,1/4-x,1/4-z
1/2+x,y,1/2-z
1/4-y,1/4+x,1/4-z
loop_
_atom_site_type_symbol
_atom_site_label
_atom_site_fract_x
_atom_site_fract_y
_atom_site_fract_z
Si Si1 0.828592 0.030349 0.553102
Si Si2 0.574540 0.444442 0.090977
Si Si3 0.905673 0.589892 0.979002
Si Si4 0.500000 0.250000 0.169885
Si Si5 0.000000 0.250000 0.125000
O O1 0.792528 0.122550 0.610257
O O2 0.863343 0.077197 0.479916
O O3 0.721664 0.950465 0.536456
O O4 0.938935 0.965074 0.581667
O O5 0.590421 0.321569 0.126103
O O6 0.953903 0.641126 0.912264
O O7 0.000000 0.500000 0.000000
O O8 0.903024 0.686583 0.036344
#
# Coordination Sequence:
#
# PCOD8304370 Si02
#       5
#    16  16  16   8   4
#     4  11  26  46  72 104 148 194 244 300 365 442
#     4  11  26  45  72 104 146 194 242 304 361 441
#     4  11  24  44  69 102 138 185 238 303 363 432
#     4  11  24  41  70 103 134 185 244 302 368 423
#     4  10  28  40  72 104 136 186 236 310 364 434
#
# _framework density 21.912869000000001
#
# number of rings (size 3 to 8) (size 9 to 14) (size 15 to 20)
#    0.000    1.067    2.667    1.600    7.467    6.933 
#    0.000    0.000    0.000    0.000    0.000    0.000 
#    0.000    0.000    0.000    0.000    0.000    0.000 
#
# Total GULP energy -371669.771111 kJ/mol
# GULP energy per Si atom -12388.992370 kJ/mol
# Density = 2.186299 g / cm^3
# Si number density = 21.912869 Si / 1000 Ang^3
#
#
#
# Elastic Constant Matrix: (Units=GPa)
#
#
# Indices 1 2 3 4 5 6 
#
# 1 118.4960 39.7377 54.9102 0.0000 0.0000 0.1768
# 2 39.7377 118.4960 54.9102 0.0000 0.0000 -0.1768
# 3 54.9102 54.9102 160.2560 0.0000 0.0000 0.0000
# 4 0.0000 0.0000 0.0000 7.4245 0.0000 0.0000
# 5 0.0000 0.0000 0.0000 0.0000 7.4245 0.0000
# 6 0.1768 -0.1768 0.0000 0.0000 0.0000 33.2320
#
#
#
# Elastic Compliance Matrix: (Units=1/GPa)
#
#
# Indices 1 2 3 4 5 6 
#
# 1 0.010494 -0.002203 -0.002841 0.000000 0.000000 -0.000068
# 2 -0.002203 0.010494 -0.002841 0.000000 0.000000 0.000068
# 3 -0.002841 -0.002841 0.008187 0.000000 0.000000 0.000000
# 4 0.000000 0.000000 0.000000 0.134689 0.000000 0.000000
# 5 0.000000 0.000000 0.000000 0.000000 0.134689 0.000000
# 6 -0.000068 0.000068 0.000000 0.000000 0.000000 0.030092
#
#
# Mechanical properties :
#
#
# Convention : Reuss Voigt Hill
#
# Bulk Modulus (GPa) = 74.59387 77.37378 75.98382
# Shear Modulus (GPa) = 14.33138 26.12887 20.23012
#
# Velocity S-wave (km/s) = 2.56015 3.45686 3.04173
# Velocity P-wave (km/s) = 6.54631 7.16377 6.86199
#
# Compressibility (1/GPa) = 0.01340593
#
# Stress axis : x y z
#
# Youngs Moduli (GPa) = 95.28835 95.28835 122.14619
#
# Poissons Ratio (x) = 0.20991 0.34702
# Poissons Ratio (y) = 0.20991 0.34702
# Poissons Ratio (z) = 0.27072 0.27072
#
# Static dielectric constant tensor:
#      x y z
#    x 5.068030 0.000000 0.000000 
#    y 0.000000 5.068030 0.000000 
#    z 0.000000 0.000000 4.568720 
# 
# 
# High freq. dielectric constant tensor:
#      x y z
#    x 1.861940 0.000000 0.000000 
#    y 0.000000 1.861940 0.000000 
#    z 0.000000 0.000000 1.894310 
# 
# From -- ./inp_files/4434.got.cif
#   From: 2010.03.12/outbox.cif.g09.slc.cpg/sg88_3_cif.got.tgz:4434.got - 2010.04.08 20:20:55.
