data_PCOD8304673
_publ_section_title
;
Structure prediction by ZEFSAII (Michael W. Deem and Ramdas Pophale) SiO2 
 PCOD8304673
Probable space group: P 4 21 2
;
_chemical_formula_sum "Si O2"
_cell_formula_units_Z 48
_cell_length_a 9.249245
_cell_length_b 9.249245
_cell_length_c 27.505774
_cell_angle_alpha 90.000000
_cell_angle_beta 90.000000
_cell_angle_gamma 90.000000
_cell_volume 2353.078617
_symmetry_space_group_name_H-M "P 4 21 2"
_symmetry_group_IT_number 90
_symmetry_cell_setting 'tetragonal'
loop_
_space_group_symop_operation_xyz
x,y,z
1/2-y,1/2+x,z
-x,-y,z
1/2+y,1/2-x,z
1/2+x,1/2-y,-z
1/2-x,1/2+y,-z
y,x,-z
-y,-x,-z
loop_
_atom_site_type_symbol
_atom_site_label
_atom_site_fract_x
_atom_site_fract_y
_atom_site_fract_z
Si Si1 0.901746 0.712121 0.468041
Si Si2 0.900149 0.713901 0.354998
Si Si3 0.904581 0.282455 0.034057
Si Si4 0.339514 0.636310 0.817356
Si Si5 0.336985 0.377031 0.141667
Si Si6 0.275424 0.085168 0.288047
O O1 0.811441 0.568841 0.481152
O O2 0.844774 0.844774 0.500000
O O3 0.883671 0.749409 0.411606
O O4 0.810859 0.568607 0.341549
O O5 0.839105 0.854200 0.327043
O O6 0.811993 0.426889 0.023690
O O7 0.889772 0.230350 0.088891
O O8 0.845790 0.154211 0.000000
O O9 0.205881 0.728255 0.833935
O O10 0.362386 0.509755 0.857226
O O11 0.492639 0.720699 0.823236
O O12 0.308090 0.588257 0.762967
O O13 0.417739 0.183740 0.294418
#
# Coordination Sequence:
#
# PCOD8304673 Si02
#       6
#     8   8   8   8   8   8
#     4   9  19  37  59  86 122 160 206 258 311 371
#     4   9  21  40  61  87 121 163 208 258 311 369
#     4  11  26  46  69  99 132 167 207 258 313 368
#     4  11  24  41  65  94 125 167 205 255 309 363
#     4  11  24  43  67  95 129 164 206 254 305 365
#     4  11  24  41  60  89 127 163 203 256 312 372
#
# _framework density 20.398807999999999
#
# number of rings (size 3 to 8) (size 9 to 14) (size 15 to 20)
#    0.000    1.667    3.333    1.000    4.667    3.333 
#    0.000    5.000    0.000    0.000    0.000    0.000 
#    0.000    0.000    0.000    0.000    0.000    0.000 
#
# Total GULP energy -594959.020953 kJ/mol
# GULP energy per Si atom -12394.979603 kJ/mol
# Density = 2.035238 g / cm^3
# Si number density = 20.398808 Si / 1000 Ang^3
#
#
#
# Elastic Constant Matrix: (Units=GPa)
#
#
# Indices 1 2 3 4 5 6 
#
# 1 69.5977 25.5829 27.9549 0.0000 0.0000 0.0000
# 2 25.5829 69.5985 27.9548 0.0000 0.0000 0.0000
# 3 27.9549 27.9548 65.5473 0.0000 0.0000 0.0000
# 4 0.0000 0.0000 0.0000 35.8410 0.0000 0.0000
# 5 0.0000 0.0000 0.0000 0.0000 35.8409 0.0000
# 6 0.0000 0.0000 0.0000 0.0000 0.0000 39.0750
#
#
#
# Elastic Compliance Matrix: (Units=1/GPa)
#
#
# Indices 1 2 3 4 5 6 
#
# 1 0.018369 -0.004351 -0.005979 0.000000 0.000000 0.000000
# 2 -0.004351 0.018369 -0.005978 0.000000 0.000000 0.000000
# 3 -0.005979 -0.005978 0.020356 0.000000 0.000000 0.000000
# 4 0.000000 0.000000 0.000000 0.027901 0.000000 0.000000
# 5 0.000000 0.000000 0.000000 0.000000 0.027901 0.000000
# 6 0.000000 0.000000 0.000000 0.000000 0.000000 0.025592
#
#
# Mechanical properties :
#
#
# Convention : Reuss Voigt Hill
#
# Bulk Modulus (GPa) = 40.85326 40.85873 40.85599
# Shear Modulus (GPa) = 27.89221 30.36812 29.13017
#
# Velocity S-wave (km/s) = 3.70177 3.86258 3.78303
# Velocity P-wave (km/s) = 6.19206 6.32188 6.25731
#
# Compressibility (1/GPa) = 0.02447785
#
# Stress axis : x y z
#
# Youngs Moduli (GPa) = 54.43984 54.44071 49.12656
#
# Poissons Ratio (x) = 0.23685 0.29371
# Poissons Ratio (y) = 0.23685 0.29370
# Poissons Ratio (z) = 0.32547 0.32547
#
# Static dielectric constant tensor:
#      x y z
#    x 3.862300 0.000000 0.000000 
#    y 0.000000 3.862300 0.000000 
#    z 0.000000 0.000000 3.557670 
# 
# 
# High freq. dielectric constant tensor:
#      x y z
#    x 1.804630 0.000000 0.000000 
#    y 0.000000 1.804630 0.000000 
#    z 0.000000 0.000000 1.788450 
# 
# From -- ./inp_files/3048.got.cif
#   From: 2010.03.12/outbox.cif.g09.slc.cpg/sg90_2_cif.got.tgz:3048.got - 2010.04.08 20:26:03.
