data_PCOD8304463
_publ_section_title
;
Structure prediction by ZEFSAII (Michael W. Deem and Ramdas Pophale) SiO2 
 PCOD8304463
Probable space group: P 4 2 2
;
_chemical_formula_sum "Si O2"
_cell_formula_units_Z 40
_cell_length_a 15.099635
_cell_length_b 15.099635
_cell_length_c 8.491072
_cell_angle_alpha 90.000000
_cell_angle_beta 90.000000
_cell_angle_gamma 90.000000
_cell_volume 1935.955731
_symmetry_space_group_name_H-M "P 4 2 2"
_symmetry_group_IT_number 89
_symmetry_cell_setting 'tetragonal'
loop_
_space_group_symop_operation_xyz
x,y,z
-y,x,z
-x,-y,z
y,-x,z
x,-y,-z
-x,y,-z
y,x,-z
-y,-x,-z
loop_
_atom_site_type_symbol
_atom_site_label
_atom_site_fract_x
_atom_site_fract_y
_atom_site_fract_z
Si Si1 0.946591 0.577632 0.163794
Si Si2 0.838102 0.813733 0.815701
Si Si3 0.515985 0.745905 0.830177
Si Si4 0.241823 0.980003 0.317498
Si Si5 0.694518 0.674151 0.811942
O O1 0.847233 0.543712 0.138313
O O2 0.941151 0.662873 0.272669
O O3 0.000000 0.500000 0.254649
O O4 0.000000 0.596110 0.000000
O O5 0.831068 0.906304 0.723644
O O6 0.764927 0.745726 0.749311
O O7 0.933956 0.773710 0.786661
O O8 0.827997 0.827997 0.000000
O O9 0.596380 0.694959 0.740810
O O10 0.420804 0.730336 0.746211
O O11 0.500000 0.701085 0.000000
O O12 0.236237 0.000000 0.500000
O O13 0.686128 0.686128 0.000000
#
# Coordination Sequence:
#
# PCOD8304463 Si02
#       5
#     8   8   8   8   8
#     4  11  20  35  63  88 120 164 227 273 318 377
#     4  11  22  42  66  92 121 168 222 259 302 387
#     4  10  17  32  52  91 125 162 204 273 326 364
#     4  12  26  41  61  93 132 166 202 265 337 388
#     4   9  19  31  56  88 127 158 208 262 324 372
#
# _framework density 20.661628
#
# number of rings (size 3 to 8) (size 9 to 14) (size 15 to 20)
#    0.000    1.400    4.000    3.600    2.800    1.200 
#    0.000    4.000    0.000    0.000    0.000    0.000 
#    0.000    0.000    0.000    0.400    0.000    0.000 
#
# Total GULP energy -495728.881279 kJ/mol
# GULP energy per Si atom -12393.222032 kJ/mol
# Density = 2.061460 g / cm^3
# Si number density = 20.661628 Si / 1000 Ang^3
#
#
#
# Elastic Constant Matrix: (Units=GPa)
#
#
# Indices 1 2 3 4 5 6 
#
# 1 150.0976 58.5437 25.9049 0.0000 0.0000 0.0000
# 2 58.5437 150.0976 25.9049 0.0000 0.0000 0.0000
# 3 25.9049 25.9049 55.7844 0.0000 0.0000 0.0000
# 4 0.0000 0.0000 0.0000 10.6829 0.0000 0.0000
# 5 0.0000 0.0000 0.0000 0.0000 10.6829 0.0000
# 6 0.0000 0.0000 0.0000 0.0000 0.0000 42.3215
#
#
#
# Elastic Compliance Matrix: (Units=1/GPa)
#
#
# Indices 1 2 3 4 5 6 
#
# 1 0.008170 -0.002752 -0.002516 0.000000 0.000000 0.000000
# 2 -0.002752 0.008170 -0.002516 0.000000 0.000000 0.000000
# 3 -0.002516 -0.002516 0.020263 0.000000 0.000000 0.000000
# 4 0.000000 0.000000 0.000000 0.093608 0.000000 0.000000
# 5 0.000000 0.000000 0.000000 0.000000 0.093608 0.000000
# 6 0.000000 0.000000 0.000000 0.000000 0.000000 0.023629
#
#
# Mechanical properties :
#
#
# Convention : Reuss Voigt Hill
#
# Bulk Modulus (GPa) = 47.54041 64.07628 55.80834
# Shear Modulus (GPa) = 18.51669 29.11252 23.81461
#
# Velocity S-wave (km/s) = 2.99689 3.75776 3.39868
# Velocity P-wave (km/s) = 5.91896 7.06450 6.51695
#
# Compressibility (1/GPa) = 0.02103474
#
# Stress axis : x y z
#
# Youngs Moduli (GPa) = 122.39769 122.39769 49.35167
#
# Poissons Ratio (x) = 0.33689 0.12416
# Poissons Ratio (y) = 0.33689 0.12416
# Poissons Ratio (z) = 0.30793 0.30793
#
# Static dielectric constant tensor:
#      x y z
#    x 4.344590 0.000000 0.000000 
#    y 0.000000 4.344590 0.000000 
#    z 0.000000 0.000000 3.124900 
# 
# 
# High freq. dielectric constant tensor:
#      x y z
#    x 1.824840 0.000000 0.000000 
#    y 0.000000 1.824840 0.000000 
#    z 0.000000 0.000000 1.747220 
# 
# From -- ./inp_files/977.got.cif
#   From: 2010.03.12/outbox.cif.g09.slc.cpg/sg89_1_cif.got.tgz:977.got - 2010.04.08 20:24:03.
