data_PCOD8304097
_publ_section_title
;
Structure prediction by ZEFSAII (Michael W. Deem and Ramdas Pophale) SiO2 
 PCOD8304097
Probable space group: I 4/M
;
_chemical_formula_sum "Si O2"
_cell_formula_units_Z 96
_cell_length_a 15.699363
_cell_length_b 15.699363
_cell_length_c 19.805899
_cell_angle_alpha 90.000000
_cell_angle_beta 90.000000
_cell_angle_gamma 90.000000
_cell_volume 4881.559899
_symmetry_space_group_name_H-M "I 4/M"
_symmetry_group_IT_number 87
_symmetry_cell_setting 'tetragonal'
loop_
_space_group_symop_operation_xyz
x,y,z
-y,x,z
-x,-y,z
y,-x,z
-x,-y,-z
y,-x,-z
x,y,-z
-y,x,-z
1/2+x,1/2+y,1/2+z
1/2-y,1/2+x,1/2+z
1/2-x,1/2-y,1/2+z
1/2+y,1/2-x,1/2+z
1/2-x,1/2-y,1/2-z
1/2+y,1/2-x,1/2-z
1/2+x,1/2+y,1/2-z
1/2-y,1/2+x,1/2-z
loop_
_atom_site_type_symbol
_atom_site_label
_atom_site_fract_x
_atom_site_fract_y
_atom_site_fract_z
Si Si1 0.954009 0.632793 0.000000
Si Si2 0.634233 0.303283 0.420301
Si Si3 0.787305 0.371233 0.120576
Si Si4 0.445089 0.126760 0.749763
Si Si5 0.384113 0.574534 0.078418
Si Si6 0.872436 0.449842 0.000000
Si Si7 0.050701 0.250852 0.122737
O O1 0.922874 0.682393 0.065363
O O2 0.914648 0.540687 0.000000
O O3 0.056866 0.625718 0.000000
O O4 0.629846 0.323773 0.500000
O O5 0.692835 0.222070 0.406557
O O6 0.540988 0.289638 0.390277
O O7 0.674363 0.381695 0.378742
O O8 0.834305 0.389880 0.190058
O O9 0.685190 0.380004 0.126432
O O10 0.816349 0.442064 0.066713
O O11 0.540615 0.102888 0.774306
O O12 0.447946 0.197705 0.692233
O O13 0.384401 0.474618 0.095585
O O14 0.361756 0.589422 0.000000
#
# Coordination Sequence:
#
# PCOD8304097 Si02
#       7
#     8  16  16  16  16   8  16
#     4  11  20  37  63  91 124 168 210 277 340 391
#     4  12  23  44  70  99 133 172 225 290 333 400
#     4  12  21  39  64  93 132 163 220 278 326 401
#     4  11  24  44  67  95 133 175 213 272 349 414
#     4   9  19  37  59  87 127 170 210 257 320 394
#     4  11  20  33  63  97 127 161 213 279 339 390
#     4  12  24  44  66  95 135 174 230 274 339 404
#
# _framework density 19.665845000000001
#
# number of rings (size 3 to 8) (size 9 to 14) (size 15 to 20)
#    0.000    0.833    6.667    1.500    0.000    6.333 
#    3.000    0.833    0.000    0.000    0.000    0.000 
#    0.000    0.000    0.000    0.000    0.000    0.000 
#
# Total GULP energy -595357.797903 kJ/mol
# GULP energy per Si atom -12403.287456 kJ/mol
# Density = 1.962108 g / cm^3
# Si number density = 19.665845 Si / 1000 Ang^3
#
#
#
# Elastic Constant Matrix: (Units=GPa)
#
#
# Indices 1 2 3 4 5 6 
#
# 1 97.4478 50.5148 26.0149 0.0000 0.0000 -8.7282
# 2 50.5148 97.4478 26.0148 0.0000 0.0000 8.7282
# 3 26.0149 26.0148 83.5695 0.0000 0.0000 0.0000
# 4 0.0000 0.0000 0.0000 32.4233 0.0000 0.0000
# 5 0.0000 0.0000 0.0000 0.0000 32.4233 0.0000
# 6 -8.7282 8.7282 0.0000 0.0000 0.0000 28.5589
#
#
#
# Elastic Compliance Matrix: (Units=1/GPa)
#
#
# Indices 1 2 3 4 5 6 
#
# 1 0.015814 -0.008225 -0.002362 0.000000 0.000000 0.007347
# 2 -0.008225 0.015814 -0.002362 0.000000 0.000000 -0.007347
# 3 -0.002362 -0.002362 0.013437 0.000000 0.000000 0.000000
# 4 0.000000 0.000000 0.000000 0.030842 0.000000 0.000000
# 5 0.000000 0.000000 0.000000 0.000000 0.030842 0.000000
# 6 0.007347 -0.007347 0.000000 0.000000 0.000000 0.039506
#
#
# Mechanical properties :
#
#
# Convention : Reuss Voigt Hill
#
# Bulk Modulus (GPa) = 52.17733 53.72824 52.95278
# Shear Modulus (GPa) = 28.00414 30.40913 29.20663
#
# Velocity S-wave (km/s) = 3.77768 3.93656 3.85794
# Velocity P-wave (km/s) = 6.75407 6.93122 6.84322
#
# Compressibility (1/GPa) = 0.01916541
#
# Stress axis : x y z
#
# Youngs Moduli (GPa) = 63.23330 63.23329 74.42165
#
# Poissons Ratio (x) = 0.52011 0.17582
# Poissons Ratio (y) = 0.52011 0.17582
# Poissons Ratio (z) = 0.14939 0.14939
#
# Static dielectric constant tensor:
#      x y z
#    x 3.672360 0.000000 0.000000 
#    y 0.000000 3.672360 0.000000 
#    z 0.000000 0.000000 3.534070 
# 
# 
# High freq. dielectric constant tensor:
#      x y z
#    x 1.773170 0.000000 0.000000 
#    y 0.000000 1.773170 0.000000 
#    z 0.000000 0.000000 1.749490 
# 
# From -- ./inp_files/5366.got.cif
#   From: 2010.03.12/outbox.cif.g09.slc.cpg/sg87_3_cif.got.tgz:5366.got - 2010.04.08 20:16:13.
