data_PCOD8304228
_publ_section_title
;
Structure prediction by ZEFSAII (Michael W. Deem and Ramdas Pophale) SiO2 
 PCOD8304228
Probable space group: I 41/A
;
_chemical_formula_sum "Si O2"
_cell_formula_units_Z 48
_cell_length_a 22.304427
_cell_length_b 22.304427
_cell_length_c 5.238224
_cell_angle_alpha 90.000000
_cell_angle_beta 90.000000
_cell_angle_gamma 90.000000
_cell_volume 2605.950773
_symmetry_space_group_name_H-M "I 41/A"
_symmetry_group_IT_number 88
_space_group.IT_coordinate_system_code '2'
_symmetry_cell_setting 'tetragonal'
loop_
_space_group_symop_operation_xyz
x,y,z
3/4-y,1/4+x,1/4+z
-x,1/2-y,z
1/4+y,1/4-x,1/4+z
-x,-y,-z
1/4+y,3/4-x,3/4-z
x,1/2+y,-z
3/4-y,3/4+x,3/4-z
1/2+x,1/2+y,1/2+z
1/4-y,3/4+x,3/4+z
1/2-x,-y,1/2+z
3/4+y,3/4-x,3/4+z
1/2-x,1/2-y,1/2-z
3/4+y,1/4-x,1/4-z
1/2+x,y,1/2-z
1/4-y,1/4+x,1/4-z
loop_
_atom_site_type_symbol
_atom_site_label
_atom_site_fract_x
_atom_site_fract_y
_atom_site_fract_z
Si Si1 0.145982 0.168249 0.968737
Si Si2 0.664637 0.788481 0.691734
Si Si3 0.211007 0.680490 0.541979
O O1 0.184893 0.153614 0.718407
O O2 0.082160 0.135890 0.948738
O O3 0.135040 0.240139 0.996232
O O4 0.182138 0.144470 0.217973
O O5 0.716937 0.825834 0.547326
O O6 0.694246 0.751673 0.929579
#
# Coordination Sequence:
#
# PCOD8304228 Si02
#       3
#    16  16  16
#     4  10  20  33  56  78 108 142 174 227 263 325
#     4   9  21  35  55  79 110 137 186 213 276 315
#     4   9  21  34  54  79 104 147 177 214 267 324
#
# _framework density 18.419381999999999
#
# number of rings (size 3 to 8) (size 9 to 14) (size 15 to 20)
#    2.000    0.667    0.000    1.000    4.667    0.667 
#    0.000    0.000    0.000    4.000    0.000    0.000 
#    0.000    0.000    0.000    0.000    0.000    0.000 
#
# Total GULP energy -297321.059552 kJ/mol
# GULP energy per Si atom -12388.377481 kJ/mol
# Density = 1.837746 g / cm^3
# Si number density = 18.419382 Si / 1000 Ang^3
#
#
#
# Elastic Constant Matrix: (Units=GPa)
#
#
# Indices 1 2 3 4 5 6 
#
# 1 57.1180 43.1196 25.0819 0.0000 0.0000 4.5202
# 2 43.1196 57.1180 25.0819 0.0000 0.0000 -4.5202
# 3 25.0819 25.0819 126.2323 0.0000 0.0000 0.0000
# 4 0.0000 0.0000 0.0000 15.7969 0.0000 0.0000
# 5 0.0000 0.0000 0.0000 0.0000 15.7969 0.0000
# 6 4.5202 -4.5202 0.0000 0.0000 0.0000 11.5704
#
#
#
# Elastic Compliance Matrix: (Units=1/GPa)
#
#
# Indices 1 2 3 4 5 6 
#
# 1 0.053310 -0.042232 -0.002201 0.000000 0.000000 -0.037325
# 2 -0.042232 0.053310 -0.002201 0.000000 0.000000 0.037325
# 3 -0.002201 -0.002201 0.008797 0.000000 0.000000 0.000000
# 4 0.000000 0.000000 0.000000 0.063304 0.000000 0.000000
# 5 0.000000 0.000000 0.000000 0.000000 0.063304 0.000000
# 6 -0.037325 0.037325 0.000000 0.000000 0.000000 0.115591
#
#
# Mechanical properties :
#
#
# Convention : Reuss Voigt Hill
#
# Bulk Modulus (GPa) = 45.15118 47.44831 46.29975
# Shear Modulus (GPa) = 10.91070 18.44515 14.67792
#
# Velocity S-wave (km/s) = 2.43646 3.16792 2.82596
# Velocity P-wave (km/s) = 5.69923 6.26074 5.98657
#
# Compressibility (1/GPa) = 0.02214782
#
# Stress axis : x y z
#
# Youngs Moduli (GPa) = 18.75828 18.75828 113.68010
#
# Poissons Ratio (x) = 0.79220 0.25022
# Poissons Ratio (y) = 0.79220 0.25022
# Poissons Ratio (z) = 0.04129 0.04129
#
# Static dielectric constant tensor:
#      x y z
#    x 3.063500 0.000000 0.000000 
#    y 0.000000 3.063500 0.000000 
#    z 0.000000 0.000000 3.198140 
# 
# 
# High freq. dielectric constant tensor:
#      x y z
#    x 1.685120 0.000000 0.000000 
#    y 0.000000 1.685120 0.000000 
#    z 0.000000 0.000000 1.711200 
# 
# From -- ./inp_files/369.got.cif
#   From: 2010.03.12/outbox.cif.g09.slc.cpg/sg88_1_cif.got.tgz:369.got - 2010.04.08 20:20:55.
