data_PCOD8304378
_publ_section_title
;
Structure prediction by ZEFSAII (Michael W. Deem and Ramdas Pophale) SiO2 
 PCOD8304378
Probable space group: I 41/A
;
_chemical_formula_sum "Si O2"
_cell_formula_units_Z 108
_cell_length_a 13.975710
_cell_length_b 13.975710
_cell_length_c 28.196334
_cell_angle_alpha 90.000000
_cell_angle_beta 90.000000
_cell_angle_gamma 90.000000
_cell_volume 5507.321209
_symmetry_space_group_name_H-M "I 41/A"
_symmetry_group_IT_number 88
_space_group.IT_coordinate_system_code '2'
_symmetry_cell_setting 'tetragonal'
loop_
_space_group_symop_operation_xyz
x,y,z
3/4-y,1/4+x,1/4+z
-x,1/2-y,z
1/4+y,1/4-x,1/4+z
-x,-y,-z
1/4+y,3/4-x,3/4-z
x,1/2+y,-z
3/4-y,3/4+x,3/4-z
1/2+x,1/2+y,1/2+z
1/4-y,3/4+x,3/4+z
1/2-x,-y,1/2+z
3/4+y,3/4-x,3/4+z
1/2-x,1/2-y,1/2-z
3/4+y,1/4-x,1/4-z
1/2+x,y,1/2-z
1/4-y,1/4+x,1/4-z
loop_
_atom_site_type_symbol
_atom_site_label
_atom_site_fract_x
_atom_site_fract_y
_atom_site_fract_z
Si Si1 0.568719 0.594167 0.834318
Si Si2 0.298421 0.717757 0.626838
Si Si3 0.000000 0.250000 0.841388
Si Si4 0.308553 0.163236 0.057358
Si Si5 0.245914 0.997001 0.874017
Si Si6 0.218761 0.136539 0.957643
Si Si7 0.500000 0.750000 0.625000
Si Si8 0.331682 0.244095 0.211736
O O1 0.533000 0.661413 0.876688
O O2 0.650917 0.522703 0.851849
O O3 0.487757 0.519165 0.818482
O O4 0.600132 0.662071 0.789305
O O5 0.276649 0.766710 0.576046
O O6 0.306184 0.604563 0.619199
O O7 0.398295 0.750913 0.652570
O O8 0.211994 0.754600 0.658884
O O9 0.034220 0.161580 0.808576
O O10 0.312142 0.066476 0.088544
O O11 0.283906 0.132849 0.004030
O O12 0.253343 0.049264 0.924692
O O13 0.105420 0.134802 0.969766
O O14 0.250000 0.250000 0.250000
#
# Coordination Sequence:
#
# PCOD8304378 Si02
#       8
#    16  16   8  16  16  16   4  16
#     4  11  21  42  71  90 130 188 215 269 347 409
#     4  11  21  37  58  90 133 176 200 261 341 405
#     4  12  20  48  69  88 131 193 220 270 351 402
#     4  12  24  41  69  96 134 177 227 274 338 407
#     4  11  22  43  64  95 133 171 221 285 332 390
#     4  12  23  41  64  99 126 174 231 279 331 408
#     4  12  20  28  54  84 128 164 192 236 330 404
#     4  11  21  38  62  94 132 169 221 265 335 424
#
# _framework density 19.610258999999999
#
# number of rings (size 3 to 8) (size 9 to 14) (size 15 to 20)
#    0.000    0.593    8.889    1.778    0.000    3.556 
#    0.000    2.222    0.000    0.000    0.000    0.000 
#    0.000    0.000    0.000    0.000    0.000    0.000 
#
# Total GULP energy -669267.698833 kJ/mol
# GULP energy per Si atom -12393.846275 kJ/mol
# Density = 1.956563 g / cm^3
# Si number density = 19.610259 Si / 1000 Ang^3
#
#
#
# Elastic Constant Matrix: (Units=GPa)
#
#
# Indices 1 2 3 4 5 6 
#
# 1 104.2742 33.2731 42.2617 0.0000 0.0000 9.8349
# 2 33.2731 104.2742 42.2617 0.0000 0.0000 -9.8349
# 3 42.2617 42.2617 111.1786 0.0000 0.0000 0.0000
# 4 0.0000 0.0000 0.0000 29.9746 0.0000 0.0000
# 5 0.0000 0.0000 0.0000 0.0000 29.9746 0.0000
# 6 9.8349 -9.8349 0.0000 0.0000 0.0000 36.3221
#
#
#
# Elastic Compliance Matrix: (Units=1/GPa)
#
#
# Indices 1 2 3 4 5 6 
#
# 1 0.012356 -0.002870 -0.003606 0.000000 0.000000 -0.004123
# 2 -0.002870 0.012356 -0.003606 0.000000 0.000000 0.004123
# 3 -0.003606 -0.003606 0.011736 0.000000 0.000000 0.000000
# 4 0.000000 0.000000 0.000000 0.033362 0.000000 0.000000
# 5 0.000000 0.000000 0.000000 0.000000 0.033362 0.000000
# 6 -0.004123 0.004123 0.000000 0.000000 0.000000 0.029764
#
#
# Mechanical properties :
#
#
# Convention : Reuss Voigt Hill
#
# Bulk Modulus (GPa) = 61.40811 61.70220 61.55515
# Shear Modulus (GPa) = 31.54020 32.71629 32.12824
#
# Velocity S-wave (km/s) = 4.01478 4.08895 4.05203
# Velocity P-wave (km/s) = 7.27142 7.33656 7.30406
#
# Compressibility (1/GPa) = 0.01628450
#
# Stress axis : x y z
#
# Youngs Moduli (GPa) = 80.93063 80.93063 85.20865
#
# Poissons Ratio (x) = 0.23229 0.30725
# Poissons Ratio (y) = 0.23229 0.30725
# Poissons Ratio (z) = 0.29183 0.29183
#
# Static dielectric constant tensor:
#      x y z
#    x 3.873570 0.000000 0.000000 
#    y 0.000000 3.873570 0.000000 
#    z 0.000000 0.000000 3.358750 
# 
# 
# High freq. dielectric constant tensor:
#      x y z
#    x 1.767020 0.000000 0.000000 
#    y 0.000000 1.767020 0.000000 
#    z 0.000000 0.000000 1.736400 
# 
# From -- ./inp_files/5906.got.cif
#   From: 2010.03.12/outbox.cif.g09.slc.cpg/sg88_3_cif.got.tgz:5906.got - 2010.04.08 20:20:55.
