data_PCOD8304788
_publ_section_title
;
Structure prediction by ZEFSAII (Michael W. Deem and Ramdas Pophale) SiO2 
 PCOD8304788
Probable space group: P 41 2 2
;
_chemical_formula_sum "Si O2"
_cell_formula_units_Z 28
_cell_length_a 13.163144
_cell_length_b 13.163144
_cell_length_c 9.344788
_cell_angle_alpha 90.000000
_cell_angle_beta 90.000000
_cell_angle_gamma 90.000000
_cell_volume 1619.156091
_symmetry_space_group_name_H-M "P 41 2 2"
_symmetry_group_IT_number 91
_symmetry_cell_setting 'tetragonal'
loop_
_space_group_symop_operation_xyz
x,y,z
-y,x,1/4+z
-x,-y,1/2+z
y,-x,3/4+z
x,-y,1/2-z
-x,y,-z
y,x,3/4-z
-y,-x,1/4-z
loop_
_atom_site_type_symbol
_atom_site_label
_atom_site_fract_x
_atom_site_fract_y
_atom_site_fract_z
Si Si1 0.838433 0.251610 0.842252
Si Si2 0.885642 0.000000 0.250000
Si Si3 0.535790 0.096801 0.343389
Si Si4 0.881702 0.320097 0.530779
O O1 0.828171 0.366453 0.904753
O O2 0.875501 0.261849 0.680391
O O3 0.732254 0.189764 0.839151
O O4 0.913827 0.186354 0.937403
O O5 0.956947 0.956947 0.375000
O O6 0.500000 0.058025 0.500000
O O7 0.437659 0.155546 0.280136
O O8 0.567411 0.000000 0.250000
O O9 0.000000 0.315624 0.500000
#
# Coordination Sequence:
#
# PCOD8304788 Si02
#       4
#     8   4   8   8
#     4  10  19  33  50  73 103 137 177 208 256 312
#     4  12  26  34  48  70 110 146 174 206 246 312
#     4   9  17  32  51  73 101 132 173 217 251 300
#     4   9  18  31  53  74 105 134 171 215 261 303
#
# _framework density 17.292957999999999
#
# number of rings (size 3 to 8) (size 9 to 14) (size 15 to 20)
#    0.000    2.286    1.429    1.714    6.000    0.000 
#    0.000    0.000    0.000    0.000    0.000    0.000 
#   51.429    0.000    0.000    0.000    0.000    0.000 
#
# Total GULP energy -346892.699062 kJ/mol
# GULP energy per Si atom -12389.024966 kJ/mol
# Density = 1.725360 g / cm^3
# Si number density = 17.292958 Si / 1000 Ang^3
#
#
#
# Elastic Constant Matrix: (Units=GPa)
#
#
# Indices 1 2 3 4 5 6 
#
# 1 129.2715 79.6759 47.1537 0.0000 0.0000 0.0000
# 2 79.6759 129.2715 47.1537 0.0000 0.0000 0.0000
# 3 47.1537 47.1537 54.4401 0.0000 0.0000 0.0000
# 4 0.0000 0.0000 0.0000 26.0867 0.0000 0.0000
# 5 0.0000 0.0000 0.0000 0.0000 26.0867 0.0000
# 6 0.0000 0.0000 0.0000 0.0000 0.0000 -3.4230
#
#
#
# Elastic Compliance Matrix: (Units=1/GPa)
#
#
# Indices 1 2 3 4 5 6 
#
# 1 0.014010 -0.006153 -0.006806 0.000000 0.000000 0.000000
# 2 -0.006153 0.014010 -0.006806 0.000000 0.000000 0.000000
# 3 -0.006806 -0.006806 0.030159 0.000000 0.000000 0.000000
# 4 0.000000 0.000000 0.000000 0.038334 0.000000 0.000000
# 5 0.000000 0.000000 0.000000 0.000000 0.038334 0.000000
# 6 0.000000 0.000000 0.000000 0.000000 0.000000 -0.292146
#
#
# Mechanical properties :
#
#
# Convention : Reuss Voigt Hill
#
# Bulk Modulus (GPa) = 53.61830 73.43884 63.52857
# Shear Modulus (GPa) = -44.82231 19.01673 -12.90279
#
# Velocity S-wave (km/s) = -5.09663 3.31974 -2.73450
# Velocity P-wave (km/s) = 1.88708 7.56663 5.18135
#
# Compressibility (1/GPa) = 0.01865035
#
# Stress axis : x y z
#
# Youngs Moduli (GPa) = 71.37535 71.37535 33.15744
#
# Poissons Ratio (x) = 0.43915 0.22567
# Poissons Ratio (y) = 0.43915 0.22567
# Poissons Ratio (z) = 0.48579 0.48579
#
# Static dielectric constant tensor:
#      x y z
#    x 3.500170 0.000000 0.000000 
#    y 0.000000 3.500170 0.000000 
#    z 0.000000 0.000000 3.369590 
# 
# 
# High freq. dielectric constant tensor:
#      x y z
#    x 1.657510 0.000000 0.000000 
#    y 0.000000 1.657510 0.000000 
#    z 0.000000 0.000000 1.670080 
# 
# From -- ./inp_files/1993.got.cif
#   From: 2010.03.12/outbox.cif.g09.slc.cpg/sg91_1_cif.got.tgz:1993.got - 2010.04.08 20:27:58.
