data_PCOD8304817
_publ_section_title
;
Structure prediction by ZEFSAII (Michael W. Deem and Ramdas Pophale) SiO2 
 PCOD8304817
Probable space group: P 41 2 2
;
_chemical_formula_sum "Si O2"
_cell_formula_units_Z 36
_cell_length_a 11.616179
_cell_length_b 11.616179
_cell_length_c 12.278959
_cell_angle_alpha 90.000000
_cell_angle_beta 90.000000
_cell_angle_gamma 90.000000
_cell_volume 1656.868879
_symmetry_space_group_name_H-M "P 41 2 2"
_symmetry_group_IT_number 91
_symmetry_cell_setting 'tetragonal'
loop_
_space_group_symop_operation_xyz
x,y,z
-y,x,1/4+z
-x,-y,1/2+z
y,-x,3/4+z
x,-y,1/2-z
-x,y,-z
y,x,3/4-z
-y,-x,1/4-z
loop_
_atom_site_type_symbol
_atom_site_label
_atom_site_fract_x
_atom_site_fract_y
_atom_site_fract_z
Si Si1 0.294816 0.294816 0.375000
Si Si2 0.516083 0.168520 0.340987
Si Si3 0.789120 0.929211 0.453891
Si Si4 0.226277 0.187298 0.586070
Si Si5 0.540023 0.091468 0.112231
O O1 0.429534 0.261696 0.397434
O O2 0.216825 0.269329 0.481100
O O3 0.647319 0.202579 0.363166
O O4 0.493702 0.167973 0.211156
O O5 0.491723 0.039607 0.385155
O O6 0.892860 0.892860 0.375000
O O7 0.783792 0.868325 0.571909
O O8 0.677224 0.903831 0.381398
O O9 0.798910 0.064696 0.469060
O O10 0.500000 0.150100 0.000000
#
# Coordination Sequence:
#
# PCOD8304817 Si02
#       5
#     4   8   8   8   8
#     4  12  24  40  64  96 134 170 224 286 328 394
#     4  10  21  39  63  93 128 169 219 273 333 391
#     4  11  21  41  66  96 133 177 218 266 329 400
#     4  11  24  42  65  98 135 178 222 269 337 399
#     4  10  19  36  66  93 121 168 226 268 316 402
#
# _framework density 21.727732
#
# number of rings (size 3 to 8) (size 9 to 14) (size 15 to 20)
#    0.000    1.333    2.222    5.333    0.000    2.667 
#    6.000    0.000    0.000   13.333    0.000    0.000 
#    0.000    0.000    0.000    0.000    0.000    0.000 
#
# Total GULP energy -446200.990342 kJ/mol
# GULP energy per Si atom -12394.471954 kJ/mol
# Density = 2.167828 g / cm^3
# Si number density = 21.727732 Si / 1000 Ang^3
#
#
#
# Elastic Constant Matrix: (Units=GPa)
#
#
# Indices 1 2 3 4 5 6 
#
# 1 85.9508 51.2745 23.5760 0.0000 0.0000 0.0000
# 2 51.2745 85.9508 23.5760 0.0000 0.0000 0.0000
# 3 23.5760 23.5760 152.7051 0.0000 0.0000 0.0000
# 4 0.0000 0.0000 0.0000 30.0578 0.0000 0.0000
# 5 0.0000 0.0000 0.0000 0.0000 30.0578 0.0000
# 6 0.0000 0.0000 0.0000 0.0000 0.0000 30.3467
#
#
#
# Elastic Compliance Matrix: (Units=1/GPa)
#
#
# Indices 1 2 3 4 5 6 
#
# 1 0.018267 -0.010571 -0.001188 0.000000 0.000000 0.000000
# 2 -0.010571 0.018267 -0.001188 0.000000 0.000000 0.000000
# 3 -0.001188 -0.001188 0.006915 0.000000 0.000000 0.000000
# 4 0.000000 0.000000 0.000000 0.033269 0.000000 0.000000
# 5 0.000000 0.000000 0.000000 0.000000 0.033269 0.000000
# 6 0.000000 0.000000 0.000000 0.000000 0.000000 0.032953
#
#
# Mechanical properties :
#
#
# Convention : Reuss Voigt Hill
#
# Bulk Modulus (GPa) = 56.96686 57.93999 57.45343
# Shear Modulus (GPa) = 28.62270 33.17112 30.89691
#
# Velocity S-wave (km/s) = 3.63345 3.91150 3.77504
# Velocity P-wave (km/s) = 6.62405 6.86470 6.74545
#
# Compressibility (1/GPa) = 0.01755406
#
# Stress axis : x y z
#
# Youngs Moduli (GPa) = 54.74404 54.74404 144.60417
#
# Poissons Ratio (x) = 0.57872 0.17181
# Poissons Ratio (y) = 0.57872 0.17181
# Poissons Ratio (z) = 0.06504 0.06504
#
# Static dielectric constant tensor:
#      x y z
#    x 3.755900 0.000000 0.000000 
#    y 0.000000 3.755900 0.000000 
#    z 0.000000 0.000000 4.113960 
# 
# 
# High freq. dielectric constant tensor:
#      x y z
#    x 1.833770 0.000000 0.000000 
#    y 0.000000 1.833770 0.000000 
#    z 0.000000 0.000000 1.880880 
# 
# From -- ./inp_files/10488.got.cif
#   From: 2010.03.12/outbox.cif.g09.slc.cpg/sg91_6_cif.got.tgz:10488.got - 2010.04.08 20:27:58.
