data_PCOD8304960
_publ_section_title
;
Structure prediction by ZEFSAII (Michael W. Deem and Ramdas Pophale) SiO2 
 PCOD8304960
Probable space group: P 41 2 2
;
_chemical_formula_sum "Si O2"
_cell_formula_units_Z 48
_cell_length_a 8.818500
_cell_length_b 8.818500
_cell_length_c 29.952969
_cell_angle_alpha 90.000000
_cell_angle_beta 90.000000
_cell_angle_gamma 90.000000
_cell_volume 2329.320857
_symmetry_space_group_name_H-M "P 41 2 2"
_symmetry_group_IT_number 91
_symmetry_cell_setting 'tetragonal'
loop_
_space_group_symop_operation_xyz
x,y,z
-y,x,1/4+z
-x,-y,1/2+z
y,-x,3/4+z
x,-y,1/2-z
-x,y,-z
y,x,3/4-z
-y,-x,1/4-z
loop_
_atom_site_type_symbol
_atom_site_label
_atom_site_fract_x
_atom_site_fract_y
_atom_site_fract_z
Si Si1 0.184164 0.330777 0.761654
Si Si2 0.338792 0.180419 0.837544
Si Si3 0.602446 0.856973 0.042813
Si Si4 0.833860 0.712150 0.574043
Si Si5 0.321790 0.842625 0.344527
Si Si6 0.834489 0.585579 0.883712
O O1 0.222614 0.500000 0.750000
O O2 0.314220 0.289090 0.796056
O O3 0.202299 0.223450 0.719260
O O4 0.015664 0.315864 0.781648
O O5 0.216209 0.216209 0.875000
O O6 0.507702 0.212238 0.855582
O O7 0.309490 0.012348 0.820556
O O8 0.742965 0.740555 0.052352
O O9 0.495404 0.881148 0.086575
O O10 0.500000 0.804346 0.000000
O O11 0.791799 0.819858 0.614861
O O12 0.765105 0.543874 0.583511
O O13 0.333396 0.025659 0.339941
O O14 0.706700 0.706700 0.875000
#
# Coordination Sequence:
#
# PCOD8304960 Si02
#       6
#     8   8   8   8   8   8
#     4  11  22  39  62  86 117 155 202 253 301 359
#     4  11  22  38  61  90 121 154 198 246 298 361
#     4  10  22  41  61  88 124 162 209 261 311 371
#     4  10  22  40  60  87 119 155 200 246 298 363
#     4  10  21  38  61  87 120 159 200 246 301 364
#     4  10  22  40  62  90 125 161 203 256 314 378
#
# _framework density 20.606866
#
# number of rings (size 3 to 8) (size 9 to 14) (size 15 to 20)
#    0.000    1.667    0.000    6.500    0.000    9.333 
#    0.000    5.833    0.000    0.000    0.000    0.000 
#    0.000    0.000    0.000    0.000    0.000    0.000 
#
# Total GULP energy -594819.767990 kJ/mol
# GULP energy per Si atom -12392.078500 kJ/mol
# Density = 2.055996 g / cm^3
# Si number density = 20.606866 Si / 1000 Ang^3
#
#
#
# Elastic Constant Matrix: (Units=GPa)
#
#
# Indices 1 2 3 4 5 6 
#
# 1 317.5980 -147.0200 34.4445 0.0000 0.0000 0.0000
# 2 -147.0200 317.5980 34.4445 0.0000 0.0000 0.0000
# 3 34.4445 34.4445 94.5575 0.0000 0.0000 0.0000
# 4 0.0000 0.0000 0.0000 57.0754 0.0000 0.0000
# 5 0.0000 0.0000 0.0000 0.0000 57.0754 0.0000
# 6 0.0000 0.0000 0.0000 0.0000 0.0000 -48.8628
#
#
#
# Elastic Compliance Matrix: (Units=1/GPa)
#
#
# Indices 1 2 3 4 5 6 
#
# 1 0.004513 0.002361 -0.002504 0.000000 0.000000 0.000000
# 2 0.002361 0.004513 -0.002504 0.000000 0.000000 0.000000
# 3 -0.002504 -0.002504 0.012400 0.000000 0.000000 0.000000
# 4 0.000000 0.000000 0.000000 0.017521 0.000000 0.000000
# 5 0.000000 0.000000 0.000000 0.000000 0.017521 0.000000
# 6 0.000000 0.000000 0.000000 0.000000 0.000000 -0.020465
#
#
# Mechanical properties :
#
#
# Convention : Reuss Voigt Hill
#
# Bulk Modulus (GPa) = 61.99031 63.72127 62.85579
# Shear Modulus (GPa) = 107.12873 66.91658 87.02266
#
# Velocity S-wave (km/s) = 7.21802 5.70469 6.50551
# Velocity P-wave (km/s) = 9.98068 8.62443 9.32724
#
# Compressibility (1/GPa) = 0.01613155
#
# Stress axis : x y z
#
# Youngs Moduli (GPa) = 221.58400 221.58400 80.64689
#
# Poissons Ratio (x) = -0.52308 0.20193
# Poissons Ratio (y) = -0.52308 0.20193
# Poissons Ratio (z) = 0.55481 0.55481
#
# Static dielectric constant tensor:
#      x y z
#    x 3.904800 0.000000 0.000000 
#    y 0.000000 3.904800 0.000000 
#    z 0.000000 0.000000 3.601960 
# 
# 
# High freq. dielectric constant tensor:
#      x y z
#    x 1.809960 0.000000 0.000000 
#    y 0.000000 1.809960 0.000000 
#    z 0.000000 0.000000 1.803340 
# 
# From -- ./inp_files/13609.got.cif
#   From: 2010.03.12/outbox.cif.g09.slc.cpg/sg91_7_cif.got.tgz:13609.got - 2010.04.08 20:27:58.
