data_PCOD8304084
_publ_section_title
;
Structure prediction by ZEFSAII (Michael W. Deem and Ramdas Pophale) SiO2 
 PCOD8304084
Probable space group: I 4/M
;
_chemical_formula_sum "Si O2"
_cell_formula_units_Z 112
_cell_length_a 14.975377
_cell_length_b 14.975377
_cell_length_c 22.422517
_cell_angle_alpha 90.000000
_cell_angle_beta 90.000000
_cell_angle_gamma 90.000000
_cell_volume 5028.516631
_symmetry_space_group_name_H-M "I 4/M"
_symmetry_group_IT_number 87
_symmetry_cell_setting 'tetragonal'
loop_
_space_group_symop_operation_xyz
x,y,z
-y,x,z
-x,-y,z
y,-x,z
-x,-y,-z
y,-x,-z
x,y,-z
-y,x,-z
1/2+x,1/2+y,1/2+z
1/2-y,1/2+x,1/2+z
1/2-x,1/2-y,1/2+z
1/2+y,1/2-x,1/2+z
1/2-x,1/2-y,1/2-z
1/2+y,1/2-x,1/2-z
1/2+x,1/2+y,1/2-z
1/2-y,1/2+x,1/2-z
loop_
_atom_site_type_symbol
_atom_site_label
_atom_site_fract_x
_atom_site_fract_y
_atom_site_fract_z
Si Si1 0.932822 0.332853 0.722595
Si Si2 0.361652 0.521893 0.637742
Si Si3 0.861249 0.987751 0.277954
Si Si4 0.111411 0.767847 0.431410
Si Si5 0.083728 0.591359 0.155436
Si Si6 0.168615 0.590463 0.374448
Si Si7 0.251069 0.911145 0.571263
O O1 0.921843 0.329776 0.794050
O O2 0.838969 0.361519 0.691231
O O3 0.966524 0.237464 0.698441
O O4 0.003890 0.403651 0.696266
O O5 0.399020 0.426964 0.613986
O O6 0.360591 0.506783 0.707913
O O7 0.264886 0.548204 0.612755
O O8 0.904460 0.079672 0.301793
O O9 0.113163 0.789144 0.500000
O O10 0.143693 0.666109 0.422067
O O11 0.178445 0.840906 0.403560
O O12 0.009845 0.781758 0.409074
O O13 0.158208 0.611019 0.106416
O O14 0.988769 0.594560 0.120751
O O15 0.269121 0.905011 0.500000
#
# Coordination Sequence:
#
# PCOD8304084 Si02
#       7
#    16  16  16  16  16  16  16
#     4  12  23  39  60  95 138 178 223 266 327 412
#     4   9  19  38  60  85 117 165 219 261 315 384
#     4   9  19  38  58  82 123 173 220 268 320 381
#     4  10  24  46  71 100 132 170 226 283 337 402
#     4  12  24  40  64  95 138 180 219 271 333 393
#     4  12  24  38  65  95 131 173 218 271 331 395
#     4  10  24  47  73 100 132 175 228 285 337 398
#
# _framework density 22.272970000000001
#
# number of rings (size 3 to 8) (size 9 to 14) (size 15 to 20)
#    0.000    1.429    4.286    1.286    2.000    2.000 
#    0.000    5.714    0.000    0.000    0.000    1.000 
#    0.000    0.000    0.000    0.000    0.000    0.000 
#
# Total GULP energy -693798.980769 kJ/mol
# GULP energy per Si atom -12389.267514 kJ/mol
# Density = 2.222228 g / cm^3
# Si number density = 22.272970 Si / 1000 Ang^3
#
#
#
# Elastic Constant Matrix: (Units=GPa)
#
#
# Indices 1 2 3 4 5 6 
#
# 1 150.4773 75.5872 23.2246 0.0000 0.0000 -8.3336
# 2 75.5872 150.4773 23.2246 0.0000 0.0000 8.3336
# 3 23.2246 23.2246 50.9364 0.0000 0.0000 0.0000
# 4 0.0000 0.0000 0.0000 26.1633 0.0000 0.0000
# 5 0.0000 0.0000 0.0000 0.0000 26.1633 0.0000
# 6 -8.3336 8.3336 0.0000 0.0000 0.0000 35.8954
#
#
#
# Elastic Compliance Matrix: (Units=1/GPa)
#
#
# Indices 1 2 3 4 5 6 
#
# 1 0.009481 -0.004600 -0.002225 0.000000 0.000000 0.003269
# 2 -0.004600 0.009481 -0.002225 0.000000 0.000000 -0.003269
# 3 -0.002225 -0.002225 0.021662 0.000000 0.000000 0.000000
# 4 0.000000 0.000000 0.000000 0.038221 0.000000 0.000000
# 5 0.000000 0.000000 0.000000 0.000000 0.038221 0.000000
# 6 0.003269 -0.003269 0.000000 0.000000 0.000000 0.029377
#
#
# Mechanical properties :
#
#
# Convention : Reuss Voigt Hill
#
# Bulk Modulus (GPa) = 44.40183 66.21822 55.31003
# Shear Modulus (GPa) = 29.06121 32.96807 31.01464
#
# Velocity S-wave (km/s) = 3.61609 3.85149 3.73564
# Velocity P-wave (km/s) = 6.11664 7.04084 6.59495
#
# Compressibility (1/GPa) = 0.02252159
#
# Stress axis : x y z
#
# Youngs Moduli (GPa) = 105.47865 105.47865 46.16450
#
# Poissons Ratio (x) = 0.48518 0.10273
# Poissons Ratio (y) = 0.48518 0.10273
# Poissons Ratio (z) = 0.23473 0.23473
#
# Static dielectric constant tensor:
#      x y z
#    x 4.237640 0.000000 0.000000 
#    y 0.000000 4.237640 0.000000 
#    z 0.000000 0.000000 3.711170 
# 
# 
# High freq. dielectric constant tensor:
#      x y z
#    x 1.882330 0.000000 0.000000 
#    y 0.000000 1.882330 0.000000 
#    z 0.000000 0.000000 1.849250 
# 
# From -- ./inp_files/5901.got.cif
#   From: 2010.03.12/outbox.cif.g09.slc.cpg/sg87_3_cif.got.tgz:5901.got - 2010.04.08 20:16:13.
