data_PCOD8304362
_publ_section_title
;
Structure prediction by ZEFSAII (Michael W. Deem and Ramdas Pophale) SiO2 
 PCOD8304362
Probable space group: I 41/A
;
_chemical_formula_sum "Si O2"
_cell_formula_units_Z 64
_cell_length_a 13.929340
_cell_length_b 13.929340
_cell_length_c 15.026549
_cell_angle_alpha 90.000000
_cell_angle_beta 90.000000
_cell_angle_gamma 90.000000
_cell_volume 2915.548902
_symmetry_space_group_name_H-M "I 41/A"
_symmetry_group_IT_number 88
_space_group.IT_coordinate_system_code '2'
_symmetry_cell_setting 'tetragonal'
loop_
_space_group_symop_operation_xyz
x,y,z
3/4-y,1/4+x,1/4+z
-x,1/2-y,z
1/4+y,1/4-x,1/4+z
-x,-y,-z
1/4+y,3/4-x,3/4-z
x,1/2+y,-z
3/4-y,3/4+x,3/4-z
1/2+x,1/2+y,1/2+z
1/4-y,3/4+x,3/4+z
1/2-x,-y,1/2+z
3/4+y,3/4-x,3/4+z
1/2-x,1/2-y,1/2-z
3/4+y,1/4-x,1/4-z
1/2+x,y,1/2-z
1/4-y,1/4+x,1/4-z
loop_
_atom_site_type_symbol
_atom_site_label
_atom_site_fract_x
_atom_site_fract_y
_atom_site_fract_z
Si Si1 0.571096 0.979567 0.580634
Si Si2 0.071708 0.407756 0.398159
Si Si3 0.890269 0.718570 0.976545
Si Si4 0.627803 0.273233 0.829830
O O1 0.524979 0.937843 0.669640
O O2 0.635072 0.893117 0.540977
O O3 0.500000 0.000000 0.500000
O O4 0.628151 0.074317 0.609715
O O5 0.074605 0.521020 0.412772
O O6 0.989480 0.376762 0.329736
O O7 0.040361 0.361054 0.491062
O O8 0.000000 0.750000 0.951457
O O9 0.608286 0.201235 0.913442
#
# Coordination Sequence:
#
# PCOD8304362 Si02
#       4
#    16  16  16  16
#     4  12  23  42  72 101 147 190 238 307 365 449
#     4  11  25  45  72 107 140 194 248 301 372 448
#     4  12  23  44  68 106 146 186 242 304 379 432
#     4  10  24  48  73  99 146 190 242 303 370 449
#
# _framework density 21.951270000000001
#
# number of rings (size 3 to 8) (size 9 to 14) (size 15 to 20)
#    0.000    0.750    5.000    1.500    3.500    2.000 
#   18.000    0.000    0.000    0.000    0.000    0.000 
#    0.000    0.000    0.000    0.000    0.000    0.000 
#
# Total GULP energy -396497.457225 kJ/mol
# GULP energy per Si atom -12390.545538 kJ/mol
# Density = 2.190131 g / cm^3
# Si number density = 21.951270 Si / 1000 Ang^3
#
#
#
# Elastic Constant Matrix: (Units=GPa)
#
#
# Indices 1 2 3 4 5 6 
#
# 1 112.9908 44.3667 67.6856 0.0000 0.0000 -3.7864
# 2 44.3667 112.9908 67.6856 0.0000 0.0000 3.7864
# 3 67.6856 67.6856 125.6018 0.0000 0.0000 0.0000
# 4 0.0000 0.0000 0.0000 37.4527 0.0000 0.0000
# 5 0.0000 0.0000 0.0000 0.0000 37.4527 0.0000
# 6 -3.7864 3.7864 0.0000 0.0000 0.0000 32.7687
#
#
#
# Elastic Compliance Matrix: (Units=1/GPa)
#
#
# Indices 1 2 3 4 5 6 
#
# 1 0.013304 -0.001457 -0.006384 0.000000 0.000000 0.001706
# 2 -0.001457 0.013304 -0.006384 0.000000 0.000000 -0.001706
# 3 -0.006384 -0.006384 0.014843 0.000000 0.000000 0.000000
# 4 0.000000 0.000000 0.000000 0.026700 0.000000 0.000000
# 5 0.000000 0.000000 0.000000 0.000000 0.026700 0.000000
# 6 0.001706 -0.001706 0.000000 0.000000 0.000000 0.030911
#
#
# Mechanical properties :
#
#
# Convention : Reuss Voigt Hill
#
# Bulk Modulus (GPa) = 76.92499 79.00657 77.96578
# Shear Modulus (GPa) = 31.53658 32.99119 32.26389
#
# Velocity S-wave (km/s) = 3.79445 3.88097 3.83795
# Velocity P-wave (km/s) = 7.36999 7.49350 7.43200
#
# Compressibility (1/GPa) = 0.01299968
#
# Stress axis : x y z
#
# Youngs Moduli (GPa) = 75.16626 75.16626 67.37327
#
# Poissons Ratio (x) = 0.10948 0.43014
# Poissons Ratio (y) = 0.10948 0.43014
# Poissons Ratio (z) = 0.47989 0.47989
#
# Static dielectric constant tensor:
#      x y z
#    x 3.267540 0.000000 0.000000 
#    y 0.000000 3.267540 0.000000 
#    z 0.000000 0.000000 4.364090 
# 
# 
# High freq. dielectric constant tensor:
#      x y z
#    x 1.860210 0.000000 0.000000 
#    y 0.000000 1.860210 0.000000 
#    z 0.000000 0.000000 1.887410 
# 
# From -- ./inp_files/3063.got.cif
#   From: 2010.03.12/outbox.cif.g09.slc.cpg/sg88_2_cif.got.tgz:3063.got - 2010.04.08 20:20:55.
