data_PCOD8304776
_publ_section_title
;
Structure prediction by ZEFSAII (Michael W. Deem and Ramdas Pophale) SiO2 
 PCOD8304776
Probable space group: P 41 2 2
;
_chemical_formula_sum "Si O2"
_cell_formula_units_Z 56
_cell_length_a 20.761576
_cell_length_b 20.761576
_cell_length_c 9.523085
_cell_angle_alpha 90.000000
_cell_angle_beta 90.000000
_cell_angle_gamma 90.000000
_cell_volume 4104.859490
_symmetry_space_group_name_H-M "P 41 2 2"
_symmetry_group_IT_number 91
_symmetry_cell_setting 'tetragonal'
loop_
_space_group_symop_operation_xyz
x,y,z
-y,x,1/4+z
-x,-y,1/2+z
y,-x,3/4+z
x,-y,1/2-z
-x,y,-z
y,x,3/4-z
-y,-x,1/4-z
loop_
_atom_site_type_symbol
_atom_site_label
_atom_site_fract_x
_atom_site_fract_y
_atom_site_fract_z
Si Si1 0.675015 0.603870 0.995275
Si Si2 0.183108 0.565546 0.081131
Si Si3 0.645704 0.304745 0.256655
Si Si4 0.059486 0.420799 0.910823
Si Si5 0.426002 0.939958 0.341651
Si Si6 0.624768 0.522990 0.397662
Si Si7 0.583609 0.821911 0.151224
O O1 0.646399 0.646399 0.875000
O O2 0.749187 0.595301 0.958871
O O3 0.673723 0.643333 0.137705
O O4 0.630770 0.539157 0.001398
O O5 0.159711 0.585634 0.236986
O O6 0.195508 0.489671 0.062604
O O7 0.127963 0.593163 0.978658
O O8 0.576278 0.328447 0.207339
O O9 0.634994 0.234953 0.323002
O O10 0.695422 0.304578 0.125000
O O11 0.058021 0.396203 0.749181
O O12 0.056044 0.497408 0.906199
O O13 0.121243 0.394644 0.994964
O O14 0.000000 0.392971 0.000000
O O15 0.398756 0.000000 0.250000
O O16 0.653463 0.500000 0.250000
O O17 0.551946 0.551946 0.375000
#
# Coordination Sequence:
#
# PCOD8304776 Si02
#       7
#     8   8   8   8   8   8   8
#     4  12  23  36  50  62  81 103 144 180 226 275
#     4  10  20  31  48  63  83 107 133 171 210 263
#     4  11  22  35  48  60  80 105 135 181 220 270
#     4   9  17  28  45  67  88 107 126 154 193 252
#     4   9  17  29  45  68  88 107 128 155 196 246
#     4  11  22  37  46  59  73  98 133 181 230 271
#     4  10  19  32  46  63  82 106 135 163 217 258
#
# _framework density 13.642367
#
# number of rings (size 3 to 8) (size 9 to 14) (size 15 to 20)
#    0.000    1.714    5.714    0.857    2.000    4.571 
#    0.000    0.000    0.000    0.000    0.000    0.000 
#    0.000    0.000    0.000    0.000    0.000    0.000 
#
# Total GULP energy -694002.415372 kJ/mol
# GULP energy per Si atom -12392.900275 kJ/mol
# Density = 1.361132 g / cm^3
# Si number density = 13.642367 Si / 1000 Ang^3
#
#
#
# Elastic Constant Matrix: (Units=GPa)
#
#
# Indices 1 2 3 4 5 6 
#
# 1 65.2874 18.0660 30.0087 0.0000 0.0000 0.0000
# 2 18.0660 65.2881 30.0088 0.0000 0.0000 0.0000
# 3 30.0087 30.0088 99.1160 0.0000 0.0000 0.0000
# 4 0.0000 0.0000 0.0000 2.3508 0.0000 0.0000
# 5 0.0000 0.0000 0.0000 0.0000 2.3513 0.0000
# 6 0.0000 0.0000 0.0000 0.0000 0.0000 5.5184
#
#
#
# Elastic Compliance Matrix: (Units=1/GPa)
#
#
# Indices 1 2 3 4 5 6 
#
# 1 0.018259 -0.002918 -0.004645 0.000000 0.000000 0.000000
# 2 -0.002918 0.018259 -0.004645 0.000000 0.000000 0.000000
# 3 -0.004645 -0.004645 0.012902 0.000000 0.000000 0.000000
# 4 0.000000 0.000000 0.000000 0.425385 0.000000 0.000000
# 5 0.000000 0.000000 0.000000 0.000000 0.425294 0.000000
# 6 0.000000 0.000000 0.000000 0.000000 0.000000 0.181213
#
#
# Mechanical properties :
#
#
# Convention : Reuss Voigt Hill
#
# Bulk Modulus (GPa) = 39.99140 42.87317 41.43228
# Shear Modulus (GPa) = 4.48808 12.15130 8.31969
#
# Velocity S-wave (km/s) = 1.81575 2.98770 2.47218
# Velocity P-wave (km/s) = 5.81151 6.58760 6.21169
#
# Compressibility (1/GPa) = 0.02500538
#
# Stress axis : x y z
#
# Youngs Moduli (GPa) = 54.76688 54.76751 77.50873
#
# Poissons Ratio (x) = 0.15979 0.36002
# Poissons Ratio (y) = 0.15979 0.36002
# Poissons Ratio (z) = 0.25439 0.25439
#
# Static dielectric constant tensor:
#      x y z
#    x 2.555560 0.000000 0.000000 
#    y 0.000000 2.555560 0.000000 
#    z 0.000000 0.000000 3.374160 
# 
# 
# High freq. dielectric constant tensor:
#      x y z
#    x 1.482310 0.000000 0.000000 
#    y 0.000000 1.482310 0.000000 
#    z 0.000000 0.000000 1.545710 
# 
# From -- ./inp_files/2915.got.cif
#   From: 2010.03.12/outbox.cif.g09.slc.cpg/sg91_2_cif.got.tgz:2915.got - 2010.04.08 20:27:58.
