data_PCOD8304947
_publ_section_title
;
Structure prediction by ZEFSAII (Michael W. Deem and Ramdas Pophale) SiO2 
 PCOD8304947
Probable space group: P 41 2 2
;
_chemical_formula_sum "Si O2"
_cell_formula_units_Z 44
_cell_length_a 14.611984
_cell_length_b 14.611984
_cell_length_c 11.433777
_cell_angle_alpha 90.000000
_cell_angle_beta 90.000000
_cell_angle_gamma 90.000000
_cell_volume 2441.226601
_symmetry_space_group_name_H-M "P 41 2 2"
_symmetry_group_IT_number 91
_symmetry_cell_setting 'tetragonal'
loop_
_space_group_symop_operation_xyz
x,y,z
-y,x,1/4+z
-x,-y,1/2+z
y,-x,3/4+z
x,-y,1/2-z
-x,y,-z
y,x,3/4-z
-y,-x,1/4-z
loop_
_atom_site_type_symbol
_atom_site_label
_atom_site_fract_x
_atom_site_fract_y
_atom_site_fract_z
Si Si1 0.599963 0.162072 0.503341
Si Si2 0.409161 0.251238 0.070030
Si Si3 0.566170 0.107445 0.748145
Si Si4 0.631706 0.599652 0.746457
Si Si5 0.261494 0.738507 0.625000
Si Si6 0.895302 0.650621 0.519773
O O1 0.500000 0.112740 0.500000
O O2 0.625475 0.149695 0.639564
O O3 0.590045 0.264630 0.453376
O O4 0.670012 0.117896 0.409495
O O5 0.388849 0.156565 0.139027
O O6 0.424735 0.333819 0.161848
O O7 0.500000 0.235498 0.000000
O O8 0.329371 0.278304 0.982070
O O9 0.456950 0.129911 0.750054
O O10 0.584732 0.000000 0.750000
O O11 0.583124 0.500000 0.750000
O O12 0.640028 0.640028 0.875000
O O13 0.281773 0.838064 0.683358
O O14 0.000000 0.673363 0.500000
#
# Coordination Sequence:
#
# PCOD8304947 Si02
#       6
#     8   8   8   8   4   8
#     4   9  18  34  53  74 108 148 194 240 288 343
#     4  12  25  38  57  84 121 159 199 253 298 341
#     4  10  21  36  59  85 112 153 198 246 305 356
#     4  11  23  38  54  72 108 161 207 236 276 336
#     4  12  24  38  56  86 124 154 198 246 300 364
#     4  10  21  37  58  85 116 152 192 246 301 357
#
# _framework density 18.023727000000001
#
# number of rings (size 3 to 8) (size 9 to 14) (size 15 to 20)
#    0.000    1.455    5.455    0.000    5.091    1.455 
#    0.000    0.000    0.000    0.000    0.000    1.273 
#    0.000    0.000    0.000    0.000    0.000    0.000 
#
# Total GULP energy -545143.578800 kJ/mol
# GULP energy per Si atom -12389.626791 kJ/mol
# Density = 1.798270 g / cm^3
# Si number density = 18.023727 Si / 1000 Ang^3
#
#
#
# Elastic Constant Matrix: (Units=GPa)
#
#
# Indices 1 2 3 4 5 6 
#
# 1 70.2903 18.0194 42.6183 0.0000 0.0000 0.0000
# 2 18.0194 70.2908 42.6185 0.0000 0.0000 0.0000
# 3 42.6183 42.6185 140.9089 0.0000 0.0000 0.0000
# 4 0.0000 0.0000 0.0000 23.4276 0.0000 0.0000
# 5 0.0000 0.0000 0.0000 0.0000 23.4279 0.0000
# 6 0.0000 0.0000 0.0000 0.0000 0.0000 12.6877
#
#
#
# Elastic Compliance Matrix: (Units=1/GPa)
#
#
# Indices 1 2 3 4 5 6 
#
# 1 0.017562 -0.001569 -0.004837 0.000000 0.000000 0.000000
# 2 -0.001569 0.017562 -0.004837 0.000000 0.000000 0.000000
# 3 -0.004837 -0.004837 0.010023 0.000000 0.000000 0.000000
# 4 0.000000 0.000000 0.000000 0.042685 0.000000 0.000000
# 5 0.000000 0.000000 0.000000 0.000000 0.042684 0.000000
# 6 0.000000 0.000000 0.000000 0.000000 0.000000 0.078817
#
#
# Mechanical properties :
#
#
# Convention : Reuss Voigt Hill
#
# Bulk Modulus (GPa) = 44.13134 54.22251 49.17692
# Shear Modulus (GPa) = 20.88807 23.79090 22.33948
#
# Velocity S-wave (km/s) = 3.40799 3.63709 3.52440
# Velocity P-wave (km/s) = 6.32646 6.91283 6.62613
#
# Compressibility (1/GPa) = 0.02265964
#
# Stress axis : x y z
#
# Youngs Moduli (GPa) = 56.94190 56.94229 99.77361
#
# Poissons Ratio (x) = 0.08936 0.48260
# Poissons Ratio (y) = 0.08936 0.48260
# Poissons Ratio (z) = 0.27543 0.27543
#
# Static dielectric constant tensor:
#      x y z
#    x 3.174580 0.000000 0.000000 
#    y 0.000000 3.174560 0.000000 
#    z 0.000000 0.000000 3.690100 
# 
# 
# High freq. dielectric constant tensor:
#      x y z
#    x 1.663080 0.000000 0.000000 
#    y 0.000000 1.663080 0.000000 
#    z 0.000000 0.000000 1.727990 
# 
# From -- ./inp_files/3729.got.cif
#   From: 2010.03.12/outbox.cif.g09.slc.cpg/sg91_2_cif.got.tgz:3729.got - 2010.04.08 20:27:58.
