data_PCOD8304864
_publ_section_title
;
Structure prediction by ZEFSAII (Michael W. Deem and Ramdas Pophale) SiO2 
 PCOD8304864
Probable space group: P 41 2 2
;
_chemical_formula_sum "Si O2"
_cell_formula_units_Z 52
_cell_length_a 21.384655
_cell_length_b 21.384655
_cell_length_c 6.198141
_cell_angle_alpha 90.000000
_cell_angle_beta 90.000000
_cell_angle_gamma 90.000000
_cell_volume 2834.431384
_symmetry_space_group_name_H-M "P 41 2 2"
_symmetry_group_IT_number 91
_symmetry_cell_setting 'tetragonal'
loop_
_space_group_symop_operation_xyz
x,y,z
-y,x,1/4+z
-x,-y,1/2+z
y,-x,3/4+z
x,-y,1/2-z
-x,y,-z
y,x,3/4-z
-y,-x,1/4-z
loop_
_atom_site_type_symbol
_atom_site_label
_atom_site_fract_x
_atom_site_fract_y
_atom_site_fract_z
Si Si1 0.428330 0.342119 0.027990
Si Si2 0.734451 0.171796 0.058885
Si Si3 0.436987 0.563014 0.125000
Si Si4 0.362168 0.849208 0.929747
Si Si5 0.745429 0.343366 0.502000
Si Si6 0.066686 0.681386 0.938383
Si Si7 0.436514 0.934768 0.625517
O O1 0.434819 0.372917 0.255316
O O2 0.388457 0.279028 0.059767
O O3 0.500000 0.322362 0.000000
O O4 0.393551 0.393551 0.875000
O O5 0.803860 0.196141 0.125000
O O6 0.690661 0.174928 0.267129
O O7 0.709858 0.215817 0.867673
O O8 0.733895 0.102287 0.955821
O O9 0.437134 0.500000 0.250000
O O10 0.420325 0.879384 0.797299
O O11 0.381614 0.789391 0.077831
O O12 0.333070 0.901136 0.084982
O O13 0.687103 0.312898 0.625000
O O14 0.059521 0.618223 0.799585
O O15 0.000000 0.710167 0.000000
O O16 0.500000 0.916809 0.500000
O O17 0.445458 0.000000 0.750000
#
# Coordination Sequence:
#
# PCOD8304864 Si02
#       7
#     8   8   4   8   8   8   8
#     4  12  25  40  62  82 104 134 178 231 303 372
#     4  10  20  36  60  85 112 152 199 236 286 350
#     4  12  22  40  62  84  98 122 162 224 294 372
#     4  10  22  39  59  84 113 147 201 240 287 348
#     4  11  22  39  64  78 111 150 188 237 299 365
#     4  10  20  36  57  86 115 153 197 240 295 343
#     4  11  22  36  61  82 115 157 200 247 297 352
#
# _framework density 18.345832999999999
#
# number of rings (size 3 to 8) (size 9 to 14) (size 15 to 20)
#    0.000    1.231    5.385    1.385    0.000    0.000 
#    0.000    8.462    3.385    0.000    0.000    0.000 
#    0.000    0.000    0.000    0.000   40.923    0.000 
#
# Total GULP energy -644198.988252 kJ/mol
# GULP energy per Si atom -12388.442082 kJ/mol
# Density = 1.830408 g / cm^3
# Si number density = 18.345833 Si / 1000 Ang^3
#
#
#
# Elastic Constant Matrix: (Units=GPa)
#
#
# Indices 1 2 3 4 5 6 
#
# 1 103.4635 49.2281 35.7692 0.0000 0.0000 0.0000
# 2 49.2281 103.4630 35.7681 0.0000 0.0000 0.0000
# 3 35.7692 35.7681 87.9968 0.0000 0.0000 0.0000
# 4 0.0000 0.0000 0.0000 36.2966 0.0000 0.0000
# 5 0.0000 0.0000 0.0000 0.0000 36.2963 0.0000
# 6 0.0000 0.0000 0.0000 0.0000 0.0000 24.2599
#
#
#
# Elastic Compliance Matrix: (Units=1/GPa)
#
#
# Indices 1 2 3 4 5 6 
#
# 1 0.013264 -0.005174 -0.003288 0.000000 0.000000 0.000000
# 2 -0.005174 0.013264 -0.003288 0.000000 0.000000 0.000000
# 3 -0.003288 -0.003288 0.014037 0.000000 0.000000 0.000000
# 4 0.000000 0.000000 0.000000 0.027551 0.000000 0.000000
# 5 0.000000 0.000000 0.000000 0.000000 0.027551 0.000000
# 6 0.000000 0.000000 0.000000 0.000000 0.000000 0.041220
#
#
# Mechanical properties :
#
#
# Convention : Reuss Voigt Hill
#
# Bulk Modulus (GPa) = 58.60424 59.60599 59.10512
# Shear Modulus (GPa) = 30.10653 30.98108 30.54380
#
# Velocity S-wave (km/s) = 4.05539 4.11387 4.08473
# Velocity P-wave (km/s) = 7.34451 7.42469 7.38470
#
# Compressibility (1/GPa) = 0.01706361
#
# Stress axis : x y z
#
# Youngs Moduli (GPa) = 75.39193 75.39219 71.23884
#
# Poissons Ratio (x) = 0.39010 0.23426
# Poissons Ratio (y) = 0.39010 0.23425
# Poissons Ratio (z) = 0.24792 0.24790
#
# Static dielectric constant tensor:
#      x y z
#    x 3.422660 0.000000 0.000000 
#    y 0.000000 3.422650 0.000000 
#    z 0.000000 0.000000 3.672120 
# 
# 
# High freq. dielectric constant tensor:
#      x y z
#    x 1.689870 0.000000 0.000000 
#    y 0.000000 1.689870 0.000000 
#    z 0.000000 0.000000 1.738880 
# 
# From -- ./inp_files/18921.got.cif
#   From: 2010.03.12/outbox.cif.g09.slc.cpg/sg91_10_cif.got.tgz:18921.got - 2010.04.08 20:27:58.
