data_PCOD8304875
_publ_section_title
;
Structure prediction by ZEFSAII (Michael W. Deem and Ramdas Pophale) SiO2 
 PCOD8304875
Probable space group: P 41 2 2
;
_chemical_formula_sum "Si O2"
_cell_formula_units_Z 48
_cell_length_a 12.113167
_cell_length_b 12.113167
_cell_length_c 17.000376
_cell_angle_alpha 90.000000
_cell_angle_beta 90.000000
_cell_angle_gamma 90.000000
_cell_volume 2494.445021
_symmetry_space_group_name_H-M "P 41 2 2"
_symmetry_group_IT_number 91
_symmetry_cell_setting 'tetragonal'
loop_
_space_group_symop_operation_xyz
x,y,z
-y,x,1/4+z
-x,-y,1/2+z
y,-x,3/4+z
x,-y,1/2-z
-x,y,-z
y,x,3/4-z
-y,-x,1/4-z
loop_
_atom_site_type_symbol
_atom_site_label
_atom_site_fract_x
_atom_site_fract_y
_atom_site_fract_z
Si Si1 0.112885 0.286972 0.850516
Si Si2 0.564382 0.668294 0.236181
Si Si3 0.677589 0.809051 0.565930
Si Si4 0.971150 0.000000 0.750000
Si Si5 0.508472 0.508472 0.375000
Si Si6 0.506005 0.891725 0.697874
Si Si7 0.137779 0.094008 0.633572
O O1 0.230535 0.230535 0.875000
O O2 0.106340 0.315709 0.757726
O O3 0.088489 0.397292 0.897692
O O4 0.017341 0.206292 0.878322
O O5 0.693978 0.642344 0.222952
O O6 0.523694 0.607010 0.313851
O O7 0.508301 0.613507 0.160907
O O8 0.523334 0.794079 0.240780
O O9 0.600777 0.857105 0.635316
O O10 0.798969 0.787874 0.602294
O O11 0.049663 0.083749 0.703175
O O12 0.889131 0.070961 0.803248
O O13 0.538171 0.000000 0.750000
#
# Coordination Sequence:
#
# PCOD8304875 Si02
#       7
#     8   8   8   4   4   8   8
#     4  12  22  38  69  98 125 161 216 276 319 373
#     4  11  21  41  65  97 122 166 212 280 312 386
#     4  12  24  40  63  96 131 171 214 261 328 393
#     4  10  20  36  62  90 126 158 224 252 302 366
#     4  10  22  38  72  96 120 154 230 272 318 356
#     4  12  27  42  63  97 137 169 209 271 337 388
#     4  11  21  38  60  94 124 168 206 263 308 380
#
# _framework density 19.242759
#
# number of rings (size 3 to 8) (size 9 to 14) (size 15 to 20)
#    0.000    0.667    6.667    2.500    4.667    0.000 
#    0.000    1.667    3.667    0.000    0.000    0.000 
#    0.000    0.000    0.000    0.000    0.000    0.000 
#
# Total GULP energy -594955.832060 kJ/mol
# GULP energy per Si atom -12394.913168 kJ/mol
# Density = 1.919896 g / cm^3
# Si number density = 19.242759 Si / 1000 Ang^3
#
#
#
# Elastic Constant Matrix: (Units=GPa)
#
#
# Indices 1 2 3 4 5 6 
#
# 1 73.7056 28.6950 53.5975 0.0000 0.0000 0.0000
# 2 28.6950 73.7056 53.5975 0.0000 0.0000 0.0000
# 3 53.5975 53.5975 128.8458 0.0000 0.0000 0.0000
# 4 0.0000 0.0000 0.0000 6.6302 0.0000 0.0000
# 5 0.0000 0.0000 0.0000 0.0000 6.6302 0.0000
# 6 0.0000 0.0000 0.0000 0.0000 0.0000 14.7506
#
#
#
# Elastic Compliance Matrix: (Units=1/GPa)
#
#
# Indices 1 2 3 4 5 6 
#
# 1 0.019758 -0.002459 -0.007196 0.000000 0.000000 0.000000
# 2 -0.002459 0.019758 -0.007196 0.000000 0.000000 0.000000
# 3 -0.007196 -0.007196 0.013748 0.000000 0.000000 0.000000
# 4 0.000000 0.000000 0.000000 0.150825 0.000000 0.000000
# 5 0.000000 0.000000 0.000000 0.000000 0.150825 0.000000
# 6 0.000000 0.000000 0.000000 0.000000 0.000000 0.067794
#
#
# Mechanical properties :
#
#
# Convention : Reuss Voigt Hill
#
# Bulk Modulus (GPa) = 51.12145 60.89304 56.00724
# Shear Modulus (GPa) = 10.80079 14.96000 12.88040
#
# Velocity S-wave (km/s) = 2.37173 2.79128 2.59001
# Velocity P-wave (km/s) = 5.84161 6.48858 6.17357
#
# Compressibility (1/GPa) = 0.01956126
#
# Stress axis : x y z
#
# Youngs Moduli (GPa) = 50.61341 50.61341 72.73881
#
# Poissons Ratio (x) = 0.12448 0.52341
# Poissons Ratio (y) = 0.12448 0.52341
# Poissons Ratio (z) = 0.36420 0.36420
#
# Static dielectric constant tensor:
#      x y z
#    x 3.706200 0.000000 0.000000 
#    y 0.000000 3.706200 0.000000 
#    z 0.000000 0.000000 3.835470 
# 
# 
# High freq. dielectric constant tensor:
#      x y z
#    x 1.741510 0.000000 0.000000 
#    y 0.000000 1.741510 0.000000 
#    z 0.000000 0.000000 1.762950 
# 
# From -- ./inp_files/21160.got.cif
#   From: 2010.03.12/outbox.cif.g09.slc.cpg/sg91_11_cif.got.tgz:21160.got - 2010.04.08 20:27:58.
