data_PCOD8304332
_publ_section_title
;
Structure prediction by ZEFSAII (Michael W. Deem and Ramdas Pophale) SiO2 
 PCOD8304332
Probable space group: I 41/A
;
_chemical_formula_sum "Si O2"
_cell_formula_units_Z 96
_cell_length_a 15.785080
_cell_length_b 15.785080
_cell_length_c 18.028851
_cell_angle_alpha 90.000000
_cell_angle_beta 90.000000
_cell_angle_gamma 90.000000
_cell_volume 4492.226279
_symmetry_space_group_name_H-M "I 41/A"
_symmetry_group_IT_number 88
_space_group.IT_coordinate_system_code '2'
_symmetry_cell_setting 'tetragonal'
loop_
_space_group_symop_operation_xyz
x,y,z
3/4-y,1/4+x,1/4+z
-x,1/2-y,z
1/4+y,1/4-x,1/4+z
-x,-y,-z
1/4+y,3/4-x,3/4-z
x,1/2+y,-z
3/4-y,3/4+x,3/4-z
1/2+x,1/2+y,1/2+z
1/4-y,3/4+x,3/4+z
1/2-x,-y,1/2+z
3/4+y,3/4-x,3/4+z
1/2-x,1/2-y,1/2-z
3/4+y,1/4-x,1/4-z
1/2+x,y,1/2-z
1/4-y,1/4+x,1/4-z
loop_
_atom_site_type_symbol
_atom_site_label
_atom_site_fract_x
_atom_site_fract_y
_atom_site_fract_z
Si Si1 0.518607 0.456925 0.156509
Si Si2 0.545848 0.635838 0.094253
Si Si3 0.672478 0.199189 0.319141
Si Si4 0.430254 0.460268 0.307688
Si Si5 0.102503 0.662091 0.571109
Si Si6 0.372291 0.701166 0.813921
O O1 0.561584 0.537675 0.115726
O O2 0.463238 0.484701 0.226500
O O3 0.454133 0.414128 0.100024
O O4 0.592084 0.393672 0.183910
O O5 0.445063 0.656151 0.095220
O O6 0.584144 0.665530 0.015966
O O7 0.649393 0.100978 0.314064
O O8 0.662896 0.243595 0.398818
O O9 0.608082 0.246546 0.261370
O O10 0.772063 0.199150 0.305698
O O11 0.395419 0.548650 0.340545
O O12 0.086027 0.751053 0.614641
#
# Coordination Sequence:
#
# PCOD8304332 Si02
#       6
#    16  16  16  16  16  16
#     4  12  24  41  68 102 128 179 228 277 343 410
#     4  11  26  45  69  93 135 176 229 283 342 407
#     4  10  22  42  64 100 137 174 216 281 338 404
#     4  11  23  42  67 100 138 174 227 279 338 411
#     4  11  24  45  67  97 136 179 223 285 335 411
#     4  10  23  40  69  97 133 176 225 273 344 404
#
# _framework density 21.370249999999999
#
# number of rings (size 3 to 8) (size 9 to 14) (size 15 to 20)
#    0.000    1.167    3.333    2.000    4.667    3.000 
#    0.000    1.667    0.000    0.000    0.000    0.000 
#    0.000    0.000    0.000    0.000    0.000    0.000 
#
# Total GULP energy -594784.584674 kJ/mol
# GULP energy per Si atom -12391.345514 kJ/mol
# Density = 2.132161 g / cm^3
# Si number density = 21.370250 Si / 1000 Ang^3
#
#
#
# Elastic Constant Matrix: (Units=GPa)
#
#
# Indices 1 2 3 4 5 6 
#
# 1 106.2672 45.4188 32.1435 0.0000 0.0000 -6.5565
# 2 45.4188 106.2672 32.1435 0.0000 0.0000 6.5565
# 3 32.1435 32.1435 81.8679 0.0000 0.0000 0.0000
# 4 0.0000 0.0000 0.0000 24.1631 0.0000 0.0000
# 5 0.0000 0.0000 0.0000 0.0000 24.1631 0.0000
# 6 -6.5565 6.5565 0.0000 0.0000 0.0000 27.9096
#
#
#
# Elastic Compliance Matrix: (Units=1/GPa)
#
#
# Indices 1 2 3 4 5 6 
#
# 1 0.012610 -0.004701 -0.003105 0.000000 0.000000 0.004067
# 2 -0.004701 0.012610 -0.003105 0.000000 0.000000 -0.004067
# 3 -0.003105 -0.003105 0.014653 0.000000 0.000000 0.000000
# 4 0.000000 0.000000 0.000000 0.041385 0.000000 0.000000
# 5 0.000000 0.000000 0.000000 0.000000 0.041385 0.000000
# 6 0.004067 -0.004067 0.000000 0.000000 0.000000 0.037741
#
#
# Mechanical properties :
#
#
# Convention : Reuss Voigt Hill
#
# Bulk Modulus (GPa) = 55.40236 57.09045 56.24641
# Shear Modulus (GPa) = 26.56425 27.56026 27.06225
#
# Velocity S-wave (km/s) = 3.52951 3.59507 3.56244
# Velocity P-wave (km/s) = 6.52620 6.63368 6.58016
#
# Compressibility (1/GPa) = 0.01804977
#
# Stress axis : x y z
#
# Youngs Moduli (GPa) = 79.30457 79.30457 68.24496
#
# Poissons Ratio (x) = 0.37281 0.21191
# Poissons Ratio (y) = 0.37281 0.21191
# Poissons Ratio (z) = 0.24625 0.24625
#
# Static dielectric constant tensor:
#      x y z
#    x 3.832130 0.000000 0.000000 
#    y 0.000000 3.832130 0.000000 
#    z 0.000000 0.000000 5.226230 
# 
# 
# High freq. dielectric constant tensor:
#      x y z
#    x 1.837030 0.000000 0.000000 
#    y 0.000000 1.837030 0.000000 
#    z 0.000000 0.000000 1.844800 
# 
# From -- ./inp_files/4659.got.cif
#   From: 2010.03.12/outbox.cif.g09.slc.cpg/sg88_3_cif.got.tgz:4659.got - 2010.04.08 20:20:55.
