data_PCOD8304706
_publ_section_title
;
Structure prediction by ZEFSAII (Michael W. Deem and Ramdas Pophale) SiO2 
 PCOD8304706
Probable space group: P 41 2 2
;
_chemical_formula_sum "Si O2"
_cell_formula_units_Z 44
_cell_length_a 8.423163
_cell_length_b 8.423163
_cell_length_c 31.020142
_cell_angle_alpha 90.000000
_cell_angle_beta 90.000000
_cell_angle_gamma 90.000000
_cell_volume 2200.868991
_symmetry_space_group_name_H-M "P 41 2 2"
_symmetry_group_IT_number 91
_symmetry_cell_setting 'tetragonal'
loop_
_space_group_symop_operation_xyz
x,y,z
-y,x,1/4+z
-x,-y,1/2+z
y,-x,3/4+z
x,-y,1/2-z
-x,y,-z
y,x,3/4-z
-y,-x,1/4-z
loop_
_atom_site_type_symbol
_atom_site_label
_atom_site_fract_x
_atom_site_fract_y
_atom_site_fract_z
Si Si1 0.709658 0.533876 0.603072
Si Si2 0.424053 0.802135 0.454744
Si Si3 0.168413 0.022158 0.493310
Si Si4 0.159458 0.372907 0.475201
Si Si5 0.393708 0.903445 0.932297
Si Si6 0.674920 0.500000 0.750000
O O1 0.594663 0.405338 0.625000
O O2 0.600216 0.651220 0.575362
O O3 0.837495 0.451790 0.571764
O O4 0.815680 0.634365 0.636925
O O5 0.500000 0.746552 0.500000
O O6 0.263969 0.894136 0.466231
O O7 0.532944 0.921723 0.427153
O O8 0.146526 0.185143 0.466998
O O9 0.234189 0.075015 0.540202
O O10 0.000000 0.938067 0.500000
O O11 0.329843 0.419576 0.499614
O O12 0.000000 0.434566 0.500000
O O13 0.515156 0.790840 0.958753
#
# Coordination Sequence:
#
# PCOD8304706 Si02
#       6
#     8   8   8   8   8   4
#     4  12  24  37  60  93 125 158 209 267 307 379
#     4  10  21  39  61  84 122 169 198 250 332 391
#     4   9  18  38  64  84 112 163 208 250 317 383
#     4  10  21  37  62  91 120 168 212 253 317 391
#     4  10  19  39  59  84 118 159 202 260 313 377
#     4  10  16  38  64  80 124 164 208 254 330 366
#
# _framework density 19.992101999999999
#
# number of rings (size 3 to 8) (size 9 to 14) (size 15 to 20)
#    0.000    1.818    6.364    0.000    1.273    5.091 
#    0.000    6.364    0.000    0.000    0.000    0.000 
#    0.000    0.000    0.000    0.000    0.000    0.000 
#
# Total GULP energy -545155.318639 kJ/mol
# GULP energy per Si atom -12389.893605 kJ/mol
# Density = 1.994660 g / cm^3
# Si number density = 19.992102 Si / 1000 Ang^3
#
#
#
# Elastic Constant Matrix: (Units=GPa)
#
#
# Indices 1 2 3 4 5 6 
#
# 1 93.1608 28.0025 43.1916 0.0000 0.0000 0.0000
# 2 28.0025 93.1616 43.1919 0.0000 0.0000 0.0000
# 3 43.1916 43.1919 108.1903 0.0000 0.0000 0.0000
# 4 0.0000 0.0000 0.0000 32.6144 0.0000 0.0000
# 5 0.0000 0.0000 0.0000 0.0000 32.6143 0.0000
# 6 0.0000 0.0000 0.0000 0.0000 0.0000 20.5555
#
#
#
# Elastic Compliance Matrix: (Units=1/GPa)
#
#
# Indices 1 2 3 4 5 6 
#
# 1 0.013442 -0.001905 -0.004606 0.000000 0.000000 0.000000
# 2 -0.001905 0.013442 -0.004606 0.000000 0.000000 0.000000
# 3 -0.004606 -0.004606 0.012920 0.000000 0.000000 0.000000
# 4 0.000000 0.000000 0.000000 0.030661 0.000000 0.000000
# 5 0.000000 0.000000 0.000000 0.000000 0.030661 0.000000
# 6 0.000000 0.000000 0.000000 0.000000 0.000000 0.048649
#
#
# Mechanical properties :
#
#
# Convention : Reuss Voigt Hill
#
# Bulk Modulus (GPa) = 56.91127 58.14276 57.52701
# Shear Modulus (GPa) = 28.11097 29.16528 28.63812
#
# Velocity S-wave (km/s) = 3.75387 3.82362 3.78891
# Velocity P-wave (km/s) = 6.87877 6.97420 6.92665
#
# Compressibility (1/GPa) = 0.01757121
#
# Stress axis : x y z
#
# Youngs Moduli (GPa) = 74.39304 74.39352 77.39672
#
# Poissons Ratio (x) = 0.14173 0.35647
# Poissons Ratio (y) = 0.14172 0.35647
# Poissons Ratio (z) = 0.34264 0.34264
#
# Static dielectric constant tensor:
#      x y z
#    x 3.630180 0.000000 0.000000 
#    y 0.000000 3.630180 0.000000 
#    z 0.000000 0.000000 3.614060 
# 
# 
# High freq. dielectric constant tensor:
#      x y z
#    x 1.775590 0.000000 0.000000 
#    y 0.000000 1.775590 0.000000 
#    z 0.000000 0.000000 1.761620 
# 
# From -- ./inp_files/18106.got.cif
#   From: 2010.03.12/outbox.cif.g09.slc.cpg/sg91_10_cif.got.tgz:18106.got - 2010.04.08 20:27:58.
