data_PCOD8304536
_publ_section_title
;
Structure prediction by ZEFSAII (Michael W. Deem and Ramdas Pophale) SiO2 
 PCOD8304536
Probable space group: P 4 21 2
;
_chemical_formula_sum "Si O2"
_cell_formula_units_Z 56
_cell_length_a 14.503101
_cell_length_b 14.503101
_cell_length_c 14.239169
_cell_angle_alpha 90.000000
_cell_angle_beta 90.000000
_cell_angle_gamma 90.000000
_cell_volume 2995.065933
_symmetry_space_group_name_H-M "P 4 21 2"
_symmetry_group_IT_number 90
_symmetry_cell_setting 'tetragonal'
loop_
_space_group_symop_operation_xyz
x,y,z
1/2-y,1/2+x,z
-x,-y,z
1/2+y,1/2-x,z
1/2+x,1/2-y,-z
1/2-x,1/2+y,-z
y,x,-z
-y,-x,-z
loop_
_atom_site_type_symbol
_atom_site_label
_atom_site_fract_x
_atom_site_fract_y
_atom_site_fract_z
Si Si1 0.010521 0.651761 0.018220
Si Si2 0.731631 0.997540 0.782188
Si Si3 0.495506 0.639088 0.044598
Si Si4 0.429102 0.572247 0.238502
Si Si5 0.803141 0.845054 0.398951
Si Si6 0.377326 0.075981 0.466740
Si Si7 0.153250 0.655690 0.336789
O O1 0.097452 0.584896 0.993714
O O2 0.027204 0.675918 0.126572
O O3 0.009649 0.750567 0.965291
O O4 0.722954 0.072065 0.697871
O O5 0.839453 0.980429 0.803691
O O6 0.683997 0.903333 0.751941
O O7 0.485873 0.622686 0.155963
O O8 0.582080 0.582080 0.000000
O O9 0.399661 0.600340 0.000000
O O10 0.500000 0.500000 0.284581
O O11 0.399662 0.640711 0.320772
O O12 0.854399 0.854399 0.500000
O O13 0.701475 0.882376 0.403872
O O14 0.784603 0.738950 0.372776
O O15 0.470429 0.125186 0.436290
O O16 0.372435 0.086516 0.579207
#
# Coordination Sequence:
#
# PCOD8304536 Si02
#       7
#     8   8   8   8   8   8   8
#     4  11  23  37  58  95 132 159 201 267 323 373
#     4  11  19  32  58  89 118 152 193 256 319 363
#     4  11  21  42  65  88 122 170 219 258 309 390
#     4  11  22  40  64  86 118 164 211 256 307 366
#     4   9  22  39  55  88 126 154 200 256 310 377
#     4  10  19  34  57  80 112 162 203 241 301 368
#     4  10  19  32  54  85 119 152 193 251 314 369
#
# _framework density 18.697417999999999
#
# number of rings (size 3 to 8) (size 9 to 14) (size 15 to 20)
#    0.000    1.571    5.714    0.000    0.000    2.286 
#    0.000    2.857    0.000    1.714    0.000    0.000 
#    0.000    0.000    0.000    0.000    0.000    0.000 
#
# Total GULP energy -693944.473732 kJ/mol
# GULP energy per Si atom -12391.865602 kJ/mol
# Density = 1.865486 g / cm^3
# Si number density = 18.697418 Si / 1000 Ang^3
#
#
#
# Elastic Constant Matrix: (Units=GPa)
#
#
# Indices 1 2 3 4 5 6 
#
# 1 129.4792 71.3873 42.0377 0.0000 0.0000 0.0000
# 2 71.3873 129.4786 42.0378 0.0000 0.0000 0.0000
# 3 42.0377 42.0378 83.4170 0.0000 0.0000 0.0000
# 4 0.0000 0.0000 0.0000 25.5490 0.0000 0.0000
# 5 0.0000 0.0000 0.0000 0.0000 25.5491 0.0000
# 6 0.0000 0.0000 0.0000 0.0000 0.0000 28.6338
#
#
#
# Elastic Compliance Matrix: (Units=1/GPa)
#
#
# Indices 1 2 3 4 5 6 
#
# 1 0.011762 -0.005452 -0.003180 0.000000 0.000000 0.000000
# 2 -0.005452 0.011762 -0.003180 0.000000 0.000000 0.000000
# 3 -0.003180 -0.003180 0.015193 0.000000 0.000000 0.000000
# 4 0.000000 0.000000 0.000000 0.039140 0.000000 0.000000
# 5 0.000000 0.000000 0.000000 0.000000 0.039140 0.000000
# 6 0.000000 0.000000 0.000000 0.000000 0.000000 0.034924
#
#
# Mechanical properties :
#
#
# Convention : Reuss Voigt Hill
#
# Bulk Modulus (GPa) = 66.25588 72.58892 69.42240
# Shear Modulus (GPa) = 27.68937 28.40719 28.04828
#
# Velocity S-wave (km/s) = 3.85245 3.90206 3.87733
# Velocity P-wave (km/s) = 7.43648 7.69472 7.56670
#
# Compressibility (1/GPa) = 0.01509300
#
# Stress axis : x y z
#
# Youngs Moduli (GPa) = 85.02176 85.02120 65.82146
#
# Poissons Ratio (x) = 0.46357 0.20928
# Poissons Ratio (y) = 0.46358 0.20928
# Poissons Ratio (z) = 0.27033 0.27033
#
# Static dielectric constant tensor:
#      x y z
#    x 3.501110 0.000000 0.000000 
#    y 0.000000 3.501110 0.000000 
#    z 0.000000 0.000000 3.346990 
# 
# 
# High freq. dielectric constant tensor:
#      x y z
#    x 1.725700 0.000000 0.000000 
#    y 0.000000 1.725700 0.000000 
#    z 0.000000 0.000000 1.716200 
# 
# From -- ./inp_files/2270.got.cif
#   From: 2010.03.12/outbox.cif.g09.slc.cpg/sg90_2_cif.got.tgz:2270.got - 2010.04.08 20:26:03.
