data_PCOD8304896
_publ_section_title
;
Structure prediction by ZEFSAII (Michael W. Deem and Ramdas Pophale) SiO2 
 PCOD8304896
Probable space group: P 41 2 2
;
_chemical_formula_sum "Si O2"
_cell_formula_units_Z 48
_cell_length_a 8.822569
_cell_length_b 8.822569
_cell_length_c 30.816111
_cell_angle_alpha 90.000000
_cell_angle_beta 90.000000
_cell_angle_gamma 90.000000
_cell_volume 2398.655935
_symmetry_space_group_name_H-M "P 41 2 2"
_symmetry_group_IT_number 91
_symmetry_cell_setting 'tetragonal'
loop_
_space_group_symop_operation_xyz
x,y,z
-y,x,1/4+z
-x,-y,1/2+z
y,-x,3/4+z
x,-y,1/2-z
-x,y,-z
y,x,3/4-z
-y,-x,1/4-z
loop_
_atom_site_type_symbol
_atom_site_label
_atom_site_fract_x
_atom_site_fract_y
_atom_site_fract_z
Si Si1 0.812187 0.680201 0.251813
Si Si2 0.312383 0.662266 0.077521
Si Si3 0.828934 0.345972 0.921784
Si Si4 0.332438 0.657907 0.915851
Si Si5 0.848900 0.679084 0.746956
Si Si6 0.338996 0.186127 0.834929
O O1 0.801607 0.500000 0.250000
O O2 0.765445 0.752503 0.206224
O O3 0.705852 0.733002 0.290520
O O4 0.982155 0.738905 0.261408
O O5 0.271866 0.728135 0.125000
O O6 0.215613 0.515842 0.065359
O O7 0.490719 0.618134 0.076801
O O8 0.261453 0.788306 0.043070
O O9 0.771748 0.307937 0.873800
O O10 0.008173 0.327623 0.922402
O O11 0.265040 0.739196 0.958498
O O12 0.237182 0.509290 0.904537
O O13 0.851496 0.500000 0.750000
O O14 0.232286 0.232286 0.875000
#
# Coordination Sequence:
#
# PCOD8304896 Si02
#       6
#     8   8   8   8   8   8
#     4  11  22  39  62  88 119 158 198 239 293 350
#     4   9  18  35  59  88 116 150 199 249 289 343
#     4  11  23  38  58  89 121 154 199 245 292 349
#     4  10  20  38  64  88 114 152 199 245 291 346
#     4   9  19  36  61  89 116 150 196 246 291 341
#     4  12  24  40  61  88 121 156 195 242 293 349
#
# _framework density 20.011208
#
# number of rings (size 3 to 8) (size 9 to 14) (size 15 to 20)
#    0.000    1.667    0.000    6.000    0.000    6.667 
#    0.000    5.833    0.000    0.000    0.000    0.000 
#    0.000    0.000    0.000    0.000    0.000    0.000 
#
# Total GULP energy -595328.428904 kJ/mol
# GULP energy per Si atom -12402.675602 kJ/mol
# Density = 1.996566 g / cm^3
# Si number density = 20.011208 Si / 1000 Ang^3
#
#
#
# Elastic Constant Matrix: (Units=GPa)
#
#
# Indices 1 2 3 4 5 6 
#
# 1 99.4875 43.4712 38.7166 0.0000 0.0000 0.0000
# 2 43.4712 99.4873 38.7166 0.0000 0.0000 0.0000
# 3 38.7166 38.7166 127.3988 0.0000 0.0000 0.0000
# 4 0.0000 0.0000 0.0000 26.5927 0.0000 0.0000
# 5 0.0000 0.0000 0.0000 0.0000 26.5926 0.0000
# 6 0.0000 0.0000 0.0000 0.0000 0.0000 2.6607
#
#
#
# Elastic Compliance Matrix: (Units=1/GPa)
#
#
# Indices 1 2 3 4 5 6 
#
# 1 0.013113 -0.004739 -0.002545 0.000000 0.000000 0.000000
# 2 -0.004739 0.013113 -0.002545 0.000000 0.000000 0.000000
# 3 -0.002545 -0.002545 0.009396 0.000000 0.000000 0.000000
# 4 0.000000 0.000000 0.000000 0.037604 0.000000 0.000000
# 5 0.000000 0.000000 0.000000 0.000000 0.037604 0.000000
# 6 0.000000 0.000000 0.000000 0.000000 0.000000 0.375845
#
#
# Mechanical properties :
#
#
# Convention : Reuss Voigt Hill
#
# Bulk Modulus (GPa) = 62.64079 63.13139 62.88609
# Shear Modulus (GPa) = 9.77224 24.86715 17.31970
#
# Velocity S-wave (km/s) = 2.21224 3.52896 2.94513
# Velocity P-wave (km/s) = 6.15598 6.94415 6.56191
#
# Compressibility (1/GPa) = 0.01596404
#
# Stress axis : x y z
#
# Youngs Moduli (GPa) = 76.26226 76.26210 106.42804
#
# Poissons Ratio (x) = 0.36143 0.27082
# Poissons Ratio (y) = 0.36143 0.27082
# Poissons Ratio (z) = 0.19406 0.19406
#
# Static dielectric constant tensor:
#      x y z
#    x 3.585640 0.000000 0.000000 
#    y 0.000000 3.585640 0.000000 
#    z 0.000000 0.000000 3.894910 
# 
# 
# High freq. dielectric constant tensor:
#      x y z
#    x 1.770520 0.000000 0.000000 
#    y 0.000000 1.770520 0.000000 
#    z 0.000000 0.000000 1.802600 
# 
# From -- ./inp_files/7976.got.cif
#   From: 2010.03.12/outbox.cif.g09.slc.cpg/sg91_4_cif.got.tgz:7976.got - 2010.04.08 20:27:58.
