data_PCOD8304853
_publ_section_title
;
Structure prediction by ZEFSAII (Michael W. Deem and Ramdas Pophale) SiO2 
 PCOD8304853
Probable space group: P 41 2 2
;
_chemical_formula_sum "Si O2"
_cell_formula_units_Z 40
_cell_length_a 15.158619
_cell_length_b 15.158619
_cell_length_c 10.010799
_cell_angle_alpha 90.000000
_cell_angle_beta 90.000000
_cell_angle_gamma 90.000000
_cell_volume 2300.318734
_symmetry_space_group_name_H-M "P 41 2 2"
_symmetry_group_IT_number 91
_symmetry_cell_setting 'tetragonal'
loop_
_space_group_symop_operation_xyz
x,y,z
-y,x,1/4+z
-x,-y,1/2+z
y,-x,3/4+z
x,-y,1/2-z
-x,y,-z
y,x,3/4-z
-y,-x,1/4-z
loop_
_atom_site_type_symbol
_atom_site_label
_atom_site_fract_x
_atom_site_fract_y
_atom_site_fract_z
Si Si1 0.334766 0.729349 0.262908
Si Si2 0.745313 0.658219 0.489705
Si Si3 0.923697 0.391879 0.403090
Si Si4 0.928835 0.598928 0.398001
Si Si5 0.365545 0.497751 0.896469
O O1 0.259855 0.709582 0.371355
O O2 0.371330 0.828445 0.281752
O O3 0.412502 0.656233 0.276098
O O4 0.284186 0.715815 0.125000
O O5 0.730001 0.730001 0.375000
O O6 0.838058 0.613399 0.473059
O O7 0.670929 0.582252 0.486331
O O8 0.940783 0.494929 0.388277
O O9 0.931935 0.355708 0.249839
O O10 0.000000 0.351326 0.500000
O O11 0.000000 0.640724 0.500000
O O12 0.317595 0.500000 0.750000
O O13 0.470354 0.470354 0.875000
#
# Coordination Sequence:
#
# PCOD8304853 Si02
#       5
#     8   8   8   8   8
#     4  12  25  38  55  81 113 149 193 245 281 334
#     4  11  20  37  59  73 106 153 188 229 279 329
#     4  10  21  38  56  80 113 144 181 238 298 338
#     4  10  20  35  60  81 104 143 192 232 284 346
#     4  11  20  36  53  69 103 151 194 229 272 318
#
# _framework density 17.388895999999999
#
# number of rings (size 3 to 8) (size 9 to 14) (size 15 to 20)
#    0.000    1.200    8.000    0.000    2.800    1.600 
#    0.000    0.000    0.000    0.000    0.000    0.000 
#    0.000    4.800    0.000    0.000    0.000    0.000 
#
# Total GULP energy -495618.236997 kJ/mol
# GULP energy per Si atom -12390.455925 kJ/mol
# Density = 1.734932 g / cm^3
# Si number density = 17.388896 Si / 1000 Ang^3
#
#
#
# Elastic Constant Matrix: (Units=GPa)
#
#
# Indices 1 2 3 4 5 6 
#
# 1 50.5449 10.6794 32.5540 0.0000 0.0000 0.0000
# 2 10.6794 50.5443 32.5532 0.0000 0.0000 0.0000
# 3 32.5540 32.5532 145.8046 0.0000 0.0000 0.0000
# 4 0.0000 0.0000 0.0000 17.6698 0.0000 0.0000
# 5 0.0000 0.0000 0.0000 0.0000 17.6695 0.0000
# 6 0.0000 0.0000 0.0000 0.0000 0.0000 14.3241
#
#
#
# Elastic Compliance Matrix: (Units=1/GPa)
#
#
# Indices 1 2 3 4 5 6 
#
# 1 0.023252 -0.001833 -0.004782 0.000000 0.000000 0.000000
# 2 -0.001833 0.023252 -0.004782 0.000000 0.000000 0.000000
# 3 -0.004782 -0.004782 0.008994 0.000000 0.000000 0.000000
# 4 0.000000 0.000000 0.000000 0.056594 0.000000 0.000000
# 5 0.000000 0.000000 0.000000 0.000000 0.056595 0.000000
# 6 0.000000 0.000000 0.000000 0.000000 0.000000 0.069812
#
#
# Mechanical properties :
#
#
# Convention : Reuss Voigt Hill
#
# Bulk Modulus (GPa) = 30.57814 44.27410 37.42612
# Shear Modulus (GPa) = 18.36928 21.33983 19.85456
#
# Velocity S-wave (km/s) = 3.25373 3.50696 3.38271
# Velocity P-wave (km/s) = 5.63371 6.47416 6.06850
#
# Compressibility (1/GPa) = 0.03270311
#
# Stress axis : x y z
#
# Youngs Moduli (GPa) = 43.00764 43.00743 111.18639
#
# Poissons Ratio (x) = 0.07882 0.53172
# Poissons Ratio (y) = 0.07882 0.53171
# Poissons Ratio (z) = 0.20567 0.20567
#
# Static dielectric constant tensor:
#      x y z
#    x 3.099750 0.000000 0.000000 
#    y 0.000000 3.099750 0.000000 
#    z 0.000000 0.000000 3.652240 
# 
# 
# High freq. dielectric constant tensor:
#      x y z
#    x 1.638100 0.000000 0.000000 
#    y 0.000000 1.638100 0.000000 
#    z 0.000000 0.000000 1.691770 
# 
# From -- ./inp_files/2579.got.cif
#   From: 2010.03.12/outbox.cif.g09.slc.cpg/sg91_2_cif.got.tgz:2579.got - 2010.04.08 20:27:58.
