data_PCOD8304434
_publ_section_title
;
Structure prediction by ZEFSAII (Michael W. Deem and Ramdas Pophale) SiO2 
 PCOD8304434
Probable space group: I 41/A
;
_chemical_formula_sum "Si O2"
_cell_formula_units_Z 52
_cell_length_a 16.250191
_cell_length_b 16.250191
_cell_length_c 8.079281
_cell_angle_alpha 90.000000
_cell_angle_beta 90.000000
_cell_angle_gamma 90.000000
_cell_volume 2133.485291
_symmetry_space_group_name_H-M "I 41/A"
_symmetry_group_IT_number 88
_space_group.IT_coordinate_system_code '2'
_symmetry_cell_setting 'tetragonal'
loop_
_space_group_symop_operation_xyz
x,y,z
3/4-y,1/4+x,1/4+z
-x,1/2-y,z
1/4+y,1/4-x,1/4+z
-x,-y,-z
1/4+y,3/4-x,3/4-z
x,1/2+y,-z
3/4-y,3/4+x,3/4-z
1/2+x,1/2+y,1/2+z
1/4-y,3/4+x,3/4+z
1/2-x,-y,1/2+z
3/4+y,3/4-x,3/4+z
1/2-x,1/2-y,1/2-z
3/4+y,1/4-x,1/4-z
1/2+x,y,1/2-z
1/4-y,1/4+x,1/4-z
loop_
_atom_site_type_symbol
_atom_site_label
_atom_site_fract_x
_atom_site_fract_y
_atom_site_fract_z
Si Si1 0.740069 0.096094 0.021385
Si Si2 0.000000 0.250000 0.125000
Si Si3 0.405354 0.832286 0.151737
Si Si4 0.053233 0.583316 0.019192
O O1 0.816116 0.124734 0.136448
O O2 0.688515 0.024100 0.102514
O O3 0.673653 0.165109 0.969155
O O4 0.915390 0.248886 0.229705
O O5 0.486971 0.845904 0.037157
O O6 0.404598 0.898454 0.302242
O O7 0.000000 0.500000 0.000000
#
# Coordination Sequence:
#
# PCOD8304434 Si02
#       4
#    16   4  16  16
#     4  12  27  48  74 112 160 207 267 338 399 487
#     4  12  28  48  86 108 168 212 262 344 408 504
#     4  11  25  48  78 113 158 209 266 336 407 487
#     4  12  26  48  78 120 156 211 272 330 415 487
#
# _framework density 24.373263000000001
#
# number of rings (size 3 to 8) (size 9 to 14) (size 15 to 20)
#    0.000    0.308    3.077    5.538    4.308    3.692 
#    0.000    0.000    0.000    0.000    0.000    0.000 
#    0.000    0.000    0.000    0.000    0.000    0.000 
#
# Total GULP energy -322176.298149 kJ/mol
# GULP energy per Si atom -12391.396083 kJ/mol
# Density = 2.431779 g / cm^3
# Si number density = 24.373263 Si / 1000 Ang^3
#
#
#
# Elastic Constant Matrix: (Units=GPa)
#
#
# Indices 1 2 3 4 5 6 
#
# 1 131.9024 41.3187 40.8763 0.0000 0.0000 -6.8040
# 2 41.3187 131.9024 40.8763 0.0000 0.0000 6.8040
# 3 40.8763 40.8763 98.6495 0.0000 0.0000 0.0000
# 4 0.0000 0.0000 0.0000 43.2442 0.0000 0.0000
# 5 0.0000 0.0000 0.0000 0.0000 43.2442 0.0000
# 6 -6.8040 6.8040 0.0000 0.0000 0.0000 40.3570
#
#
#
# Elastic Compliance Matrix: (Units=1/GPa)
#
#
# Indices 1 2 3 4 5 6 
#
# 1 0.009251 -0.002075 -0.002974 0.000000 0.000000 0.001910
# 2 -0.002075 0.009251 -0.002974 0.000000 0.000000 -0.001910
# 3 -0.002974 -0.002974 0.012601 0.000000 0.000000 0.000000
# 4 0.000000 0.000000 0.000000 0.023124 0.000000 0.000000
# 5 0.000000 0.000000 0.000000 0.000000 0.023124 0.000000
# 6 0.001910 -0.001910 0.000000 0.000000 0.000000 0.025423
#
#
# Mechanical properties :
#
#
# Convention : Reuss Voigt Hill
#
# Bulk Modulus (GPa) = 66.40309 67.62187 67.01248
# Shear Modulus (GPa) = 40.37472 41.32795 40.85134
#
# Velocity S-wave (km/s) = 4.07445 4.12227 4.09843
# Velocity P-wave (km/s) = 7.03123 7.10366 7.06754
#
# Compressibility (1/GPa) = 0.01505954
#
# Stress axis : x y z
#
# Youngs Moduli (GPa) = 108.09202 108.09202 79.35768
#
# Poissons Ratio (x) = 0.22429 0.23598
# Poissons Ratio (y) = 0.22429 0.23598
# Poissons Ratio (z) = 0.32142 0.32142
#
# Static dielectric constant tensor:
#      x y z
#    x 4.559580 0.000000 0.000000 
#    y 0.000000 4.559580 0.000000 
#    z 0.000000 0.000000 4.298510 
# 
# 
# High freq. dielectric constant tensor:
#      x y z
#    x 1.977580 0.000000 0.000000 
#    y 0.000000 1.977580 0.000000 
#    z 0.000000 0.000000 1.962210 
# 
# From -- ./inp_files/1200.got.cif
#   From: 2010.03.12/outbox.cif.g09.slc.cpg/sg88_1_cif.got.tgz:1200.got - 2010.04.08 20:20:55.
