data_PCOD8304053
_publ_section_title
;
Structure prediction by ZEFSAII (Michael W. Deem and Ramdas Pophale) SiO2 
 PCOD8304053
Probable space group: I 4/M
;
_chemical_formula_sum "Si O2"
_cell_formula_units_Z 48
_cell_length_a 16.793629
_cell_length_b 16.793629
_cell_length_c 8.810353
_cell_angle_alpha 90.000000
_cell_angle_beta 90.000000
_cell_angle_gamma 90.000000
_cell_volume 2484.748395
_symmetry_space_group_name_H-M "I 4/M"
_symmetry_group_IT_number 87
_symmetry_cell_setting 'tetragonal'
loop_
_space_group_symop_operation_xyz
x,y,z
-y,x,z
-x,-y,z
y,-x,z
-x,-y,-z
y,-x,-z
x,y,-z
-y,x,-z
1/2+x,1/2+y,1/2+z
1/2-y,1/2+x,1/2+z
1/2-x,1/2-y,1/2+z
1/2+y,1/2-x,1/2+z
1/2-x,1/2-y,1/2-z
1/2+y,1/2-x,1/2-z
1/2+x,1/2+y,1/2-z
1/2-y,1/2+x,1/2-z
loop_
_atom_site_type_symbol
_atom_site_label
_atom_site_fract_x
_atom_site_fract_y
_atom_site_fract_z
Si Si1 0.574745 0.606044 0.674403
Si Si2 0.937143 0.601037 0.680739
Si Si3 0.835853 0.752197 0.677326
O O1 0.481123 0.609094 0.709671
O O2 0.590937 0.628809 0.500000
O O3 0.619116 0.666988 0.782528
O O4 0.946998 0.595671 0.500000
O O5 0.891569 0.523349 0.741754
O O6 0.887109 0.677203 0.734256
O O7 0.823647 0.747550 0.500000
O O8 0.750000 0.750000 0.750000
#
# Coordination Sequence:
#
# PCOD8304053 Si02
#       3
#    16  16  16
#     4   9  20  40  64  89 119 157 197 240 295 353
#     4  10  22  40  62  88 117 154 197 242 295 350
#     4  11  25  40  59  90 122 156 199 244 294 349
#
# _framework density 19.317851999999998
#
# number of rings (size 3 to 8) (size 9 to 14) (size 15 to 20)
#    0.000    2.000    0.000    4.000    4.667    6.667 
#    0.000    1.667    0.000    0.000    0.000    0.000 
#    0.000    0.000    0.000    0.000    0.000    0.000 
#
# Total GULP energy -297687.930239 kJ/mol
# GULP energy per Si atom -12403.663760 kJ/mol
# Density = 1.927388 g / cm^3
# Si number density = 19.317852 Si / 1000 Ang^3
#
#
#
# Elastic Constant Matrix: (Units=GPa)
#
#
# Indices 1 2 3 4 5 6 
#
# 1 116.0597 74.9241 32.3118 0.0000 0.0000 -0.1751
# 2 74.9241 116.0597 32.3118 0.0000 0.0000 0.1751
# 3 32.3118 32.3118 48.3896 0.0000 0.0000 0.0000
# 4 0.0000 0.0000 0.0000 36.7143 0.0000 0.0000
# 5 0.0000 0.0000 0.0000 0.0000 36.7143 0.0000
# 6 -0.1751 0.1751 0.0000 0.0000 0.0000 33.1866
#
#
#
# Elastic Compliance Matrix: (Units=1/GPa)
#
#
# Indices 1 2 3 4 5 6 
#
# 1 0.015538 -0.008773 -0.004517 0.000000 0.000000 0.000128
# 2 -0.008773 0.015538 -0.004517 0.000000 0.000000 -0.000128
# 3 -0.004517 -0.004517 0.026698 0.000000 0.000000 0.000000
# 4 0.000000 0.000000 0.000000 0.027237 0.000000 0.000000
# 5 0.000000 0.000000 0.000000 0.000000 0.027237 0.000000
# 6 0.000128 -0.000128 0.000000 0.000000 0.000000 0.030134
#
#
# Mechanical properties :
#
#
# Convention : Reuss Voigt Hill
#
# Bulk Modulus (GPa) = 45.12813 62.17827 53.65320
# Shear Modulus (GPa) = 26.97128 30.72047 28.84588
#
# Velocity S-wave (km/s) = 3.74061 3.99214 3.86842
# Velocity P-wave (km/s) = 6.48597 7.31480 6.91282
#
# Compressibility (1/GPa) = 0.02215913
#
# Stress axis : x y z
#
# Youngs Moduli (GPa) = 64.35965 64.35965 37.45620
#
# Poissons Ratio (x) = 0.56464 0.16919
# Poissons Ratio (y) = 0.56464 0.16919
# Poissons Ratio (z) = 0.29071 0.29071
#
# Static dielectric constant tensor:
#      x y z
#    x 3.659600 0.000000 0.000000 
#    y 0.000000 3.659600 0.000000 
#    z 0.000000 0.000000 3.511050 
# 
# 
# High freq. dielectric constant tensor:
#      x y z
#    x 1.761770 0.000000 0.000000 
#    y 0.000000 1.761770 0.000000 
#    z 0.000000 0.000000 1.756020 
# 
# From -- ./inp_files/565.got.cif
#   From: 2010.03.12/outbox.cif.g09.slc.cpg/sg87_1_cif.got.tgz:565.got - 2010.04.08 20:16:13.
