data_PCOD8304151
_publ_section_title
;
Structure prediction by ZEFSAII (Michael W. Deem and Ramdas Pophale) SiO2 
 PCOD8304151
Probable space group: I 4/M
;
_chemical_formula_sum "Si O2"
_cell_formula_units_Z 88
_cell_length_a 11.846432
_cell_length_b 11.846432
_cell_length_c 26.928331
_cell_angle_alpha 90.000000
_cell_angle_beta 90.000000
_cell_angle_gamma 90.000000
_cell_volume 3779.066800
_symmetry_space_group_name_H-M "I 4/M"
_symmetry_group_IT_number 87
_symmetry_cell_setting 'tetragonal'
loop_
_space_group_symop_operation_xyz
x,y,z
-y,x,z
-x,-y,z
y,-x,z
-x,-y,-z
y,-x,-z
x,y,-z
-y,x,-z
1/2+x,1/2+y,1/2+z
1/2-y,1/2+x,1/2+z
1/2-x,1/2-y,1/2+z
1/2+y,1/2-x,1/2+z
1/2-x,1/2-y,1/2-z
1/2+y,1/2-x,1/2-z
1/2+x,1/2+y,1/2-z
1/2-y,1/2+x,1/2-z
loop_
_atom_site_type_symbol
_atom_site_label
_atom_site_fract_x
_atom_site_fract_y
_atom_site_fract_z
Si Si1 0.175246 0.060869 0.854951
Si Si2 0.741516 0.175485 0.602261
Si Si3 0.500000 0.000000 0.414101
Si Si4 0.700924 0.940885 0.645688
Si Si5 0.470109 0.836436 0.500000
Si Si6 0.752422 0.224109 0.000000
Si Si7 0.318763 0.465828 0.241725
O O1 0.277676 0.113262 0.887249
O O2 0.217923 0.056451 0.798171
O O3 0.067718 0.141460 0.867455
O O4 0.751494 0.042794 0.612580
O O5 0.788464 0.206768 0.547804
O O6 0.824881 0.233688 0.640571
O O7 0.575868 0.926617 0.376308
O O8 0.563013 0.088058 0.451418
O O9 0.709979 0.960795 0.705113
O O10 0.390406 0.725772 0.500000
O O11 0.599281 0.798417 0.500000
O O12 0.412117 0.371242 0.230835
#
# Coordination Sequence:
#
# PCOD8304151 Si02
#       7
#    16  16   8  16   8   8  16
#     4   9  22  45  69  96 135 181 226 285 350 415
#     4  12  27  42  70 102 138 183 236 288 348 418
#     4  11  24  42  66  97 138 182 215 289 358 404
#     4  12  24  43  68  99 137 183 228 286 349 416
#     4  11  24  45  68  92 138 179 230 277 354 410
#     4  12  26  45  68 101 132 184 232 286 344 423
#     4   9  18  40  71  95 126 175 227 275 338 413
#
# _framework density 23.286173999999999
#
# number of rings (size 3 to 8) (size 9 to 14) (size 15 to 20)
#    0.000    1.273    5.455    1.091    5.091    2.000 
#    0.000    0.000    0.000    1.091    0.000    0.000 
#    0.000    0.000    0.000    0.000    0.000    0.000 
#
# Total GULP energy -545174.281179 kJ/mol
# GULP energy per Si atom -12390.324572 kJ/mol
# Density = 2.323317 g / cm^3
# Si number density = 23.286174 Si / 1000 Ang^3
#
#
#
# Elastic Constant Matrix: (Units=GPa)
#
#
# Indices 1 2 3 4 5 6 
#
# 1 59.8377 -3.7025 9.6525 0.0000 0.0000 0.4741
# 2 -3.7025 59.8377 9.6525 0.0000 0.0000 -0.4741
# 3 9.6525 9.6525 111.8285 0.0000 0.0000 0.0000
# 4 0.0000 0.0000 0.0000 30.0459 0.0000 0.0000
# 5 0.0000 0.0000 0.0000 0.0000 30.0459 0.0000
# 6 0.4741 -0.4741 0.0000 0.0000 0.0000 34.4233
#
#
#
# Elastic Compliance Matrix: (Units=1/GPa)
#
#
# Indices 1 2 3 4 5 6 
#
# 1 0.017050 0.001309 -0.001585 0.000000 0.000000 -0.000217
# 2 0.001309 0.017050 -0.001585 0.000000 0.000000 0.000217
# 3 -0.001585 -0.001585 0.009216 0.000000 0.000000 0.000000
# 4 0.000000 0.000000 0.000000 0.033282 0.000000 0.000000
# 5 0.000000 0.000000 0.000000 0.000000 0.033282 0.000000
# 6 -0.000217 0.000217 0.000000 0.000000 0.000000 0.029056
#
#
# Mechanical properties :
#
#
# Convention : Reuss Voigt Hill
#
# Bulk Modulus (GPa) = 25.25547 29.18986 27.22266
# Shear Modulus (GPa) = 32.08080 33.29644 32.68862
#
# Velocity S-wave (km/s) = 3.71573 3.78548 3.75077
# Velocity P-wave (km/s) = 5.41093 5.62752 5.52028
#
# Compressibility (1/GPa) = 0.03959538
#
# Stress axis : x y z
#
# Youngs Moduli (GPa) = 58.65031 58.65031 108.50898
#
# Poissons Ratio (x) = -0.07677 0.17195
# Poissons Ratio (y) = -0.07677 0.17195
# Poissons Ratio (z) = 0.09294 0.09294
#
# Static dielectric constant tensor:
#      x y z
#    x 4.071430 0.000000 0.000000 
#    y 0.000000 4.071430 0.000000 
#    z 0.000000 0.000000 4.314960 
# 
# 
# High freq. dielectric constant tensor:
#      x y z
#    x 1.911410 0.000000 0.000000 
#    y 0.000000 1.911410 0.000000 
#    z 0.000000 0.000000 1.935310 
# 
# From -- ./inp_files/6640.got.cif
#   From: 2010.03.12/outbox.cif.g09.slc.cpg/sg87_4_cif.got.tgz:6640.got - 2010.04.08 20:16:13.
