data_PCOD8304569
_publ_section_title
;
Structure prediction by ZEFSAII (Michael W. Deem and Ramdas Pophale) SiO2 
 PCOD8304569
Probable space group: P 4 21 2
;
_chemical_formula_sum "Si O2"
_cell_formula_units_Z 56
_cell_length_a 13.793966
_cell_length_b 13.793966
_cell_length_c 13.007345
_cell_angle_alpha 90.000000
_cell_angle_beta 90.000000
_cell_angle_gamma 90.000000
_cell_volume 2474.953033
_symmetry_space_group_name_H-M "P 4 21 2"
_symmetry_group_IT_number 90
_symmetry_cell_setting 'tetragonal'
loop_
_space_group_symop_operation_xyz
x,y,z
1/2-y,1/2+x,z
-x,-y,z
1/2+y,1/2-x,z
1/2+x,1/2-y,-z
1/2-x,1/2+y,-z
y,x,-z
-y,-x,-z
loop_
_atom_site_type_symbol
_atom_site_label
_atom_site_fract_x
_atom_site_fract_y
_atom_site_fract_z
Si Si1 0.504210 0.641387 0.708052
Si Si2 0.148436 0.704939 0.237331
Si Si3 0.617695 0.248716 0.562731
Si Si4 0.840870 0.987349 0.241914
Si Si5 0.773271 0.140400 0.095265
Si Si6 0.397204 0.884094 0.964601
Si Si7 0.536737 0.153982 0.372742
O O1 0.543097 0.744380 0.749872
O O2 0.451958 0.663467 0.599445
O O3 0.418177 0.599083 0.782536
O O4 0.594652 0.567549 0.695452
O O5 0.187896 0.661907 0.342908
O O6 0.218913 0.786536 0.190595
O O7 0.140598 0.619733 0.154328
O O8 0.708171 0.291830 0.500000
O O9 0.552102 0.177553 0.493067
O O10 0.752968 0.945078 0.310136
O O11 0.795124 0.032439 0.138222
O O12 0.847957 0.152044 0.000000
O O13 0.668476 0.169002 0.048968
O O14 0.506768 0.864123 0.988655
O O15 0.429102 0.115479 0.345720
#
# Coordination Sequence:
#
# PCOD8304569 Si02
#       7
#     8   8   8   8   8   8   8
#     4  10  22  41  63  97 130 183 237 282 359 427
#     4  10  22  42  67  93 135 179 233 297 355 431
#     4  12  24  41  67 101 136 189 244 293 361 425
#     4  10  22  42  65  93 138 178 229 293 359 426
#     4   9  21  41  66  97 129 174 229 289 361 437
#     4  10  21  39  64  95 128 173 229 285 362 437
#     4  11  26  45  65  99 143 188 240 294 359 434
#
# _framework density 22.626693
#
# number of rings (size 3 to 8) (size 9 to 14) (size 15 to 20)
#    0.000    1.714    1.429    1.714    4.000    2.857 
#    0.000   16.429    0.000    0.000    0.000    0.000 
#    0.000    0.000    0.000    0.000    0.000    0.000 
#
# Total GULP energy -693928.961104 kJ/mol
# GULP energy per Si atom -12391.588591 kJ/mol
# Density = 2.257519 g / cm^3
# Si number density = 22.626693 Si / 1000 Ang^3
#
#
#
# Elastic Constant Matrix: (Units=GPa)
#
#
# Indices 1 2 3 4 5 6 
#
# 1 89.9309 3.0353 27.3187 0.0000 0.0000 0.0000
# 2 3.0353 89.9302 27.3183 0.0000 0.0000 0.0000
# 3 27.3187 27.3183 102.4271 0.0000 0.0000 0.0000
# 4 0.0000 0.0000 0.0000 37.2857 0.0000 0.0000
# 5 0.0000 0.0000 0.0000 0.0000 37.2862 0.0000
# 6 0.0000 0.0000 0.0000 0.0000 0.0000 47.8108
#
#
#
# Elastic Compliance Matrix: (Units=1/GPa)
#
#
# Indices 1 2 3 4 5 6 
#
# 1 0.012132 0.000624 -0.003402 0.000000 0.000000 0.000000
# 2 0.000624 0.012132 -0.003402 0.000000 0.000000 0.000000
# 3 -0.003402 -0.003402 0.011578 0.000000 0.000000 0.000000
# 4 0.000000 0.000000 0.000000 0.026820 0.000000 0.000000
# 5 0.000000 0.000000 0.000000 0.000000 0.026820 0.000000
# 6 0.000000 0.000000 0.000000 0.000000 0.000000 0.020916
#
#
# Mechanical properties :
#
#
# Convention : Reuss Voigt Hill
#
# Bulk Modulus (GPa) = 42.58706 44.18143 43.38425
# Shear Modulus (GPa) = 38.28916 39.45095 38.87005
#
# Velocity S-wave (km/s) = 4.11811 4.18012 4.14923
# Velocity P-wave (km/s) = 6.44005 6.54725 6.49387
#
# Compressibility (1/GPa) = 0.02348131
#
# Stress axis : x y z
#
# Youngs Moduli (GPa) = 82.42604 82.42550 86.37179
#
# Poissons Ratio (x) = -0.05144 0.29386
# Poissons Ratio (y) = -0.05144 0.29385
# Poissons Ratio (z) = 0.28043 0.28043
#
# Static dielectric constant tensor:
#      x y z
#    x 4.170370 0.000000 0.000000 
#    y 0.000000 4.170370 0.000000 
#    z 0.000000 0.000000 3.930670 
# 
# 
# High freq. dielectric constant tensor:
#      x y z
#    x 1.897550 0.000000 0.000000 
#    y 0.000000 1.897550 0.000000 
#    z 0.000000 0.000000 1.877170 
# 
# From -- ./inp_files/2256.got.cif
#   From: 2010.03.12/outbox.cif.g09.slc.cpg/sg90_2_cif.got.tgz:2256.got - 2010.04.08 20:26:03.
