data_PCOD8304237
_publ_section_title
;
Structure prediction by ZEFSAII (Michael W. Deem and Ramdas Pophale) SiO2 
 PCOD8304237
Probable space group: I 41/A
;
_chemical_formula_sum "Si O2"
_cell_formula_units_Z 68
_cell_length_a 26.068119
_cell_length_b 26.068119
_cell_length_c 5.017972
_cell_angle_alpha 90.000000
_cell_angle_beta 90.000000
_cell_angle_gamma 90.000000
_cell_volume 3409.946957
_symmetry_space_group_name_H-M "I 41/A"
_symmetry_group_IT_number 88
_space_group.IT_coordinate_system_code '2'
_symmetry_cell_setting 'tetragonal'
loop_
_space_group_symop_operation_xyz
x,y,z
3/4-y,1/4+x,1/4+z
-x,1/2-y,z
1/4+y,1/4-x,1/4+z
-x,-y,-z
1/4+y,3/4-x,3/4-z
x,1/2+y,-z
3/4-y,3/4+x,3/4-z
1/2+x,1/2+y,1/2+z
1/4-y,3/4+x,3/4+z
1/2-x,-y,1/2+z
3/4+y,3/4-x,3/4+z
1/2-x,1/2-y,1/2-z
3/4+y,1/4-x,1/4-z
1/2+x,y,1/2-z
1/4-y,1/4+x,1/4-z
loop_
_atom_site_type_symbol
_atom_site_label
_atom_site_fract_x
_atom_site_fract_y
_atom_site_fract_z
Si Si1 0.410960 0.818457 0.474550
Si Si2 0.744448 0.309873 0.682859
Si Si3 0.046575 0.401451 0.759816
Si Si4 0.000000 0.250000 0.125000
Si Si5 0.182240 0.814116 0.666965
O O1 0.385201 0.820720 0.766045
O O2 0.468794 0.794673 0.469499
O O3 0.411009 0.876638 0.371561
O O4 0.380124 0.784684 0.260014
O O5 0.750000 0.250000 0.750000
O O6 0.799721 0.331818 0.582841
O O7 0.702019 0.323104 0.463006
O O8 0.723060 0.336888 0.952457
O O9 0.996410 0.426809 0.880581
#
# Coordination Sequence:
#
# PCOD8304237 Si02
#       5
#    16  16  16   4  16
#     4  12  25  36  55  80 117 159 198 220 263 341
#     4  10  20  36  58  76 102 143 193 250 290 313
#     4  11  22  37  55  78 109 148 196 237 280 324
#     4  12  28  38  52  74 132 170 196 218 248 322
#     4  11  21  36  56  79 109 147 196 234 282 323
#
# _framework density 19.941659999999999
#
# number of rings (size 3 to 8) (size 9 to 14) (size 15 to 20)
#    0.000    0.941    2.353    8.471    3.294    0.941 
#    0.000    0.000    0.000    0.000    0.000    0.000 
#    0.000   52.706    0.000    0.000    0.000    0.000 
#
# Total GULP energy -421314.425484 kJ/mol
# GULP energy per Si atom -12391.600750 kJ/mol
# Density = 1.989627 g / cm^3
# Si number density = 19.941660 Si / 1000 Ang^3
#
#
#
# Elastic Constant Matrix: (Units=GPa)
#
#
# Indices 1 2 3 4 5 6 
#
# 1 78.4655 7.8112 25.6156 0.0000 0.0000 -2.1287
# 2 7.8112 78.4655 25.6156 0.0000 0.0000 2.1287
# 3 25.6156 25.6156 126.6060 0.0000 0.0000 0.0000
# 4 0.0000 0.0000 0.0000 24.3944 0.0000 0.0000
# 5 0.0000 0.0000 0.0000 0.0000 24.3944 0.0000
# 6 -2.1287 2.1287 0.0000 0.0000 0.0000 9.6766
#
#
#
# Elastic Compliance Matrix: (Units=1/GPa)
#
#
# Indices 1 2 3 4 5 6 
#
# 1 0.013758 -0.000585 -0.002665 0.000000 0.000000 0.003155
# 2 -0.000585 0.013758 -0.002665 0.000000 0.000000 -0.003155
# 3 -0.002665 -0.002665 0.008977 0.000000 0.000000 0.000000
# 4 0.000000 0.000000 0.000000 0.040993 0.000000 0.000000
# 5 0.000000 0.000000 0.000000 0.000000 0.040993 0.000000
# 6 0.003155 -0.003155 0.000000 0.000000 0.000000 0.104731
#
#
# Mechanical properties :
#
#
# Convention : Reuss Voigt Hill
#
# Bulk Modulus (GPa) = 40.54754 44.62466 42.58610
# Shear Modulus (GPa) = 20.55389 26.65936 23.60663
#
# Velocity S-wave (km/s) = 3.21394 3.66029 3.44435
# Velocity P-wave (km/s) = 5.84378 6.34742 6.10080
#
# Compressibility (1/GPa) = 0.02466241
#
# Stress axis : x y z
#
# Youngs Moduli (GPa) = 72.68279 72.68279 111.39538
#
# Poissons Ratio (x) = 0.04253 0.29690
# Poissons Ratio (y) = 0.04253 0.29690
# Poissons Ratio (z) = 0.19372 0.19372
#
# Static dielectric constant tensor:
#      x y z
#    x 3.691710 0.000000 0.000000 
#    y 0.000000 3.691710 0.000000 
#    z 0.000000 0.000000 4.122950 
# 
# 
# High freq. dielectric constant tensor:
#      x y z
#    x 1.746180 0.000000 0.000000 
#    y 0.000000 1.746180 0.000000 
#    z 0.000000 0.000000 1.801840 
# 
# From -- ./inp_files/645.got.cif
#   From: 2010.03.12/outbox.cif.g09.slc.cpg/sg88_1_cif.got.tgz:645.got - 2010.04.08 20:20:55.
