data_PCOD8304668
_publ_section_title
;
Structure prediction by ZEFSAII (Michael W. Deem and Ramdas Pophale) SiO2 
 PCOD8304668
Probable space group: P 4 21 2
;
_chemical_formula_sum "Si O2"
_cell_formula_units_Z 34
_cell_length_a 8.141405
_cell_length_b 8.141405
_cell_length_c 22.149769
_cell_angle_alpha 90.000000
_cell_angle_beta 90.000000
_cell_angle_gamma 90.000000
_cell_volume 1468.141518
_symmetry_space_group_name_H-M "P 4 21 2"
_symmetry_group_IT_number 90
_symmetry_cell_setting 'tetragonal'
loop_
_space_group_symop_operation_xyz
x,y,z
1/2-y,1/2+x,z
-x,-y,z
1/2+y,1/2-x,z
1/2+x,1/2-y,-z
1/2-x,1/2+y,-z
y,x,-z
-y,-x,-z
loop_
_atom_site_type_symbol
_atom_site_label
_atom_site_fract_x
_atom_site_fract_y
_atom_site_fract_z
Si Si1 0.928862 0.763250 0.206064
Si Si2 0.256931 0.586373 0.685897
Si Si3 0.458735 0.734576 0.107416
Si Si4 0.500000 0.500000 0.000000
Si Si5 0.573110 0.258021 0.449244
O O1 0.801041 0.613329 0.200753
O O2 0.901409 0.857272 0.269430
O O3 0.906919 0.900026 0.153562
O O4 0.203201 0.399507 0.697409
O O5 0.328684 0.602551 0.618073
O O6 0.633033 0.816325 0.118851
O O7 0.481949 0.662391 0.040506
O O8 0.389703 0.198930 0.458461
O O9 0.605256 0.394745 0.500000
#
# Coordination Sequence:
#
# PCOD8304668 Si02
#       5
#     8   8   8   2   8
#     4  11  24  40  60  91 129 166 208 262 320 378
#     4   9  19  37  59  83 115 159 210 263 322 386
#     4  11  24  42  66  94 125 164 205 248 304 368
#     4  12  24  44  68  96 128 160 202 252 296 356
#     4   9  19  35  54  79 114 156 205 262 322 386
#
# _framework density 23.158532000000001
#
# number of rings (size 3 to 8) (size 9 to 14) (size 15 to 20)
#    0.000    1.882    0.000    4.941    0.000    7.059 
#    0.000    9.412    0.000    0.000    0.000    0.000 
#    0.000    0.000    0.000    0.000    0.000    0.000 
#
# Total GULP energy -421413.962991 kJ/mol
# GULP energy per Si atom -12394.528323 kJ/mol
# Density = 2.310582 g / cm^3
# Si number density = 23.158532 Si / 1000 Ang^3
#
#
#
# Elastic Constant Matrix: (Units=GPa)
#
#
# Indices 1 2 3 4 5 6 
#
# 1 76.0033 25.0311 38.5577 0.0000 0.0000 0.0000
# 2 25.0311 76.0028 38.5575 0.0000 0.0000 0.0000
# 3 38.5577 38.5575 158.1049 0.0000 0.0000 0.0000
# 4 0.0000 0.0000 0.0000 9.2026 0.0000 0.0000
# 5 0.0000 0.0000 0.0000 0.0000 9.2026 0.0000
# 6 0.0000 0.0000 0.0000 0.0000 0.0000 43.5373
#
#
#
# Elastic Compliance Matrix: (Units=1/GPa)
#
#
# Indices 1 2 3 4 5 6 
#
# 1 0.015890 -0.003729 -0.002966 0.000000 0.000000 0.000000
# 2 -0.003729 0.015890 -0.002966 0.000000 0.000000 0.000000
# 3 -0.002966 -0.002966 0.007771 0.000000 0.000000 0.000000
# 4 0.000000 0.000000 0.000000 0.108665 0.000000 0.000000
# 5 0.000000 0.000000 0.000000 0.000000 0.108665 0.000000
# 6 0.000000 0.000000 0.000000 0.000000 0.000000 0.022969
#
#
# Mechanical properties :
#
#
# Convention : Reuss Voigt Hill
#
# Bulk Modulus (GPa) = 49.42948 57.15598 53.29273
# Shear Modulus (GPa) = 16.34445 26.25282 21.29863
#
# Velocity S-wave (km/s) = 2.65950 3.37057 3.03593
# Velocity P-wave (km/s) = 5.55166 6.31518 5.94569
#
# Compressibility (1/GPa) = 0.02023084
#
# Stress axis : x y z
#
# Youngs Moduli (GPa) = 62.93289 62.93251 128.67545
#
# Poissons Ratio (x) = 0.23465 0.38163
# Poissons Ratio (y) = 0.23465 0.38163
# Poissons Ratio (z) = 0.18665 0.18665
#
# Static dielectric constant tensor:
#      x y z
#    x 4.107570 0.000000 0.000000 
#    y 0.000000 4.107570 0.000000 
#    z 0.000000 0.000000 4.138120 
# 
# 
# High freq. dielectric constant tensor:
#      x y z
#    x 1.924350 0.000000 0.000000 
#    y 0.000000 1.924350 0.000000 
#    z 0.000000 0.000000 1.915920 
# 
# From -- ./inp_files/2736.got.cif
#   From: 2010.03.12/outbox.cif.g09.slc.cpg/sg90_2_cif.got.tgz:2736.got - 2010.04.08 20:26:03.
