data_PCOD8304497
_publ_section_title
;
Structure prediction by ZEFSAII (Michael W. Deem and Ramdas Pophale) SiO2 
 PCOD8304497
Probable space group: P 4 2 2
;
_chemical_formula_sum "Si O2"
_cell_formula_units_Z 60
_cell_length_a 11.989928
_cell_length_b 11.989928
_cell_length_c 21.543049
_cell_angle_alpha 90.000000
_cell_angle_beta 90.000000
_cell_angle_gamma 90.000000
_cell_volume 3096.993683
_symmetry_space_group_name_H-M "P 4 2 2"
_symmetry_group_IT_number 89
_symmetry_cell_setting 'tetragonal'
loop_
_space_group_symop_operation_xyz
x,y,z
-y,x,z
-x,-y,z
y,-x,z
x,-y,-z
-x,y,-z
y,x,-z
-y,-x,-z
loop_
_atom_site_type_symbol
_atom_site_label
_atom_site_fract_x
_atom_site_fract_y
_atom_site_fract_z
Si Si1 0.945148 0.176746 0.665656
Si Si2 0.640175 0.380687 0.932255
Si Si3 0.542892 0.678811 0.376661
Si Si4 0.769428 0.389531 0.814205
Si Si5 0.987661 0.625025 0.248070
Si Si6 0.233878 0.613641 0.249054
Si Si7 0.500000 0.804174 0.500000
Si Si8 0.110018 0.730208 0.533090
O O1 0.927735 0.281560 0.710539
O O2 0.906167 0.227494 0.601628
O O3 0.072605 0.137477 0.675103
O O4 0.653792 0.512812 0.924738
O O5 0.724421 0.337283 0.879173
O O6 0.670801 0.329199 0.000000
O O7 0.418439 0.633279 0.370570
O O8 0.568859 0.764540 0.320402
O O9 0.556333 0.732864 0.444607
O O10 0.904641 0.383940 0.811506
O O11 0.731777 0.516372 0.799621
O O12 0.715276 0.318140 0.758748
O O13 0.000000 0.500000 0.278572
O O14 0.112209 0.661919 0.230875
O O15 0.596206 0.879811 0.530597
O O16 0.217248 0.782753 0.500000
O O17 0.000000 0.773382 0.500000
#
# Coordination Sequence:
#
# PCOD8304497 Si02
#       8
#     8   8   8   8   8   8   4   8
#     4  11  24  44  69  86 106 145 202 263 308 359
#     4   9  17  30  55  93 128 156 199 246 286 332
#     4  11  23  40  60  84 115 154 204 249 312 380
#     4  11  20  36  59  87 124 159 197 242 295 350
#     4  10  25  38  56  87 123 161 189 239 301 367
#     4  11  22  36  59  89 116 157 203 245 300 367
#     4  12  29  41  60  86 118 155 184 253 324 402
#     4  12  26  44  64  86 110 143 192 247 318 385
#
# _framework density 19.373625000000001
#
# number of rings (size 3 to 8) (size 9 to 14) (size 15 to 20)
#    0.000    1.200    4.000    2.600    5.600    3.067 
#    0.000    0.000    0.000    0.800    0.000    0.000 
#    0.000    0.000    0.000    1.333    1.067    0.000 
#
# Total GULP energy -743386.124268 kJ/mol
# GULP energy per Si atom -12389.768738 kJ/mol
# Density = 1.932953 g / cm^3
# Si number density = 19.373625 Si / 1000 Ang^3
#
#
#
# Elastic Constant Matrix: (Units=GPa)
#
#
# Indices 1 2 3 4 5 6 
#
# 1 108.3723 15.5201 31.9877 0.0000 0.0000 0.0000
# 2 15.5201 108.3677 31.9888 0.0000 0.0000 0.0000
# 3 31.9877 31.9888 118.4811 0.0000 0.0000 0.0000
# 4 0.0000 0.0000 0.0000 26.5396 0.0000 0.0000
# 5 0.0000 0.0000 0.0000 0.0000 26.5404 0.0000
# 6 0.0000 0.0000 0.0000 0.0000 0.0000 13.4937
#
#
#
# Elastic Compliance Matrix: (Units=1/GPa)
#
#
# Indices 1 2 3 4 5 6 
#
# 1 0.010074 -0.000695 -0.002532 0.000000 0.000000 0.000000
# 2 -0.000695 0.010075 -0.002532 0.000000 0.000000 0.000000
# 3 -0.002532 -0.002532 0.009808 0.000000 0.000000 0.000000
# 4 0.000000 0.000000 0.000000 0.037680 0.000000 0.000000
# 5 0.000000 0.000000 0.000000 0.000000 0.037678 0.000000
# 6 0.000000 0.000000 0.000000 0.000000 0.000000 0.074108
#
#
# Mechanical properties :
#
#
# Convention : Reuss Voigt Hill
#
# Bulk Modulus (GPa) = 54.23862 54.91268 54.57565
# Shear Modulus (GPa) = 25.36926 30.36305 27.86616
#
# Velocity S-wave (km/s) = 3.62259 3.96313 3.79668
# Velocity P-wave (km/s) = 6.74940 7.02477 6.88846
#
# Compressibility (1/GPa) = 0.01843705
#
# Stress axis : x y z
#
# Youngs Moduli (GPa) = 99.26104 99.25597 101.96242
#
# Poissons Ratio (x) = 0.06902 0.25819
# Poissons Ratio (y) = 0.06902 0.25821
# Poissons Ratio (z) = 0.25135 0.25136
#
# Static dielectric constant tensor:
#      x y z
#    x 3.501840 0.000000 0.000000 
#    y 0.000000 3.501810 0.000000 
#    z 0.000000 0.000000 3.396010 
# 
# 
# High freq. dielectric constant tensor:
#      x y z
#    x 1.755280 0.000000 0.000000 
#    y 0.000000 1.755280 0.000000 
#    z 0.000000 0.000000 1.725900 
# 
# From -- ./inp_files/2656.got.cif
#   From: 2010.03.12/outbox.cif.g09.slc.cpg/sg89_2_cif.got.tgz:2656.got - 2010.04.08 20:24:03.
