data_PCOD8304643
_publ_section_title
;
Structure prediction by ZEFSAII (Michael W. Deem and Ramdas Pophale) SiO2 
 PCOD8304643
Probable space group: P 4 21 2
;
_chemical_formula_sum "Si O2"
_cell_formula_units_Z 40
_cell_length_a 8.285013
_cell_length_b 8.285013
_cell_length_c 26.391087
_cell_angle_alpha 90.000000
_cell_angle_beta 90.000000
_cell_angle_gamma 90.000000
_cell_volume 1811.522226
_symmetry_space_group_name_H-M "P 4 21 2"
_symmetry_group_IT_number 90
_symmetry_cell_setting 'tetragonal'
loop_
_space_group_symop_operation_xyz
x,y,z
1/2-y,1/2+x,z
-x,-y,z
1/2+y,1/2-x,z
1/2+x,1/2-y,-z
1/2-x,1/2+y,-z
y,x,-z
-y,-x,-z
loop_
_atom_site_type_symbol
_atom_site_label
_atom_site_fract_x
_atom_site_fract_y
_atom_site_fract_z
Si Si1 0.252542 0.099387 0.357240
Si Si2 0.087437 0.247538 0.044733
Si Si3 0.247548 0.603917 0.262803
Si Si4 0.251603 0.099329 0.547746
Si Si5 0.252557 0.096244 0.846555
O O1 0.412110 0.207100 0.361606
O O2 0.160885 0.124746 0.304260
O O3 0.132268 0.149664 0.401831
O O4 0.201540 0.402649 0.039891
O O5 0.125742 0.160366 0.099716
O O6 0.122392 0.122392 0.000000
O O7 0.206794 0.415784 0.269307
O O8 0.333993 0.634195 0.207356
O O9 0.411691 0.206953 0.546375
O O10 0.140500 0.140500 0.500000
O O11 0.410348 0.203546 0.846686
#
# Coordination Sequence:
#
# PCOD8304643 Si02
#       5
#     8   8   8   8   8
#     4  11  24  39  54  77 111 147 179 211 252 305
#     4   9  17  30  48  70  97 130 167 208 256 308
#     4   9  17  32  56  81 100 125 169 220 264 308
#     4  11  24  41  62  88 114 141 177 218 258 302
#     4   7  12  26  48  71  95 125 164 210 256 304
#
# _framework density 22.080878999999999
#
# number of rings (size 3 to 8) (size 9 to 14) (size 15 to 20)
#    0.000    2.600    0.000    4.800    0.000    8.800 
#    0.000    2.000    0.000    9.600    0.000    0.000 
#    0.000    0.000    0.000    0.000    0.000    0.000 
#
# Total GULP energy -495617.259047 kJ/mol
# GULP energy per Si atom -12390.431476 kJ/mol
# Density = 2.203062 g / cm^3
# Si number density = 22.080879 Si / 1000 Ang^3
#
#
#
# Elastic Constant Matrix: (Units=GPa)
#
#
# Indices 1 2 3 4 5 6 
#
# 1 22.4367 -6.3269 6.6146 0.0000 0.0000 0.0000
# 2 -6.3269 22.4367 6.6146 0.0000 0.0000 0.0000
# 3 6.6146 6.6146 186.7100 0.0000 0.0000 0.0000
# 4 0.0000 0.0000 0.0000 -55.3849 0.0000 0.0000
# 5 0.0000 0.0000 0.0000 0.0000 -55.3849 0.0000
# 6 0.0000 0.0000 0.0000 0.0000 0.0000 28.5642
#
#
#
# Elastic Compliance Matrix: (Units=1/GPa)
#
#
# Indices 1 2 3 4 5 6 
#
# 1 0.049350 0.014584 -0.002265 0.000000 0.000000 0.000000
# 2 0.014584 0.049350 -0.002265 0.000000 0.000000 0.000000
# 3 -0.002265 -0.002265 0.005516 0.000000 0.000000 0.000000
# 4 0.000000 0.000000 0.000000 -0.018055 0.000000 0.000000
# 5 0.000000 0.000000 0.000000 0.000000 -0.018055 0.000000
# 6 0.000000 0.000000 0.000000 0.000000 0.000000 0.035009
#
#
# Mechanical properties :
#
#
# Convention : Reuss Voigt Hill
#
# Bulk Modulus (GPa) = 8.04345 27.26533 17.65439
# Shear Modulus (GPa) = 40.17732 -1.46240 19.35746
#
# Velocity S-wave (km/s) = 4.27025 -0.81470 2.96406
# Velocity P-wave (km/s) = 5.28810 3.38966 4.44150
#
# Compressibility (1/GPa) = 0.12432474
#
# Stress axis : x y z
#
# Youngs Moduli (GPa) = 20.26335 20.26335 181.27810
#
# Poissons Ratio (x) = -0.29552 0.41060
# Poissons Ratio (y) = -0.29552 0.41060
# Poissons Ratio (z) = 0.04590 0.04590
#
# Static dielectric constant tensor:
#      x y z
#    x 3.654310 0.000000 0.000000 
#    y 0.000000 3.654310 0.000000 
#    z 0.000000 0.000000 4.621570 
# 
# 
# High freq. dielectric constant tensor:
#      x y z
#    x 1.844160 0.000000 0.000000 
#    y 0.000000 1.844160 0.000000 
#    z 0.000000 0.000000 1.898140 
# 
# From -- ./inp_files/2882.got.cif
#   From: 2010.03.12/outbox.cif.g09.slc.cpg/sg90_2_cif.got.tgz:2882.got - 2010.04.08 20:26:03.
