data_PCOD8304949
_publ_section_title
;
Structure prediction by ZEFSAII (Michael W. Deem and Ramdas Pophale) SiO2 
 PCOD8304949
Probable space group: P 41 2 2
;
_chemical_formula_sum "Si O2"
_cell_formula_units_Z 40
_cell_length_a 15.563414
_cell_length_b 15.563414
_cell_length_c 9.874134
_cell_angle_alpha 90.000000
_cell_angle_beta 90.000000
_cell_angle_gamma 90.000000
_cell_volume 2391.711309
_symmetry_space_group_name_H-M "P 41 2 2"
_symmetry_group_IT_number 91
_symmetry_cell_setting 'tetragonal'
loop_
_space_group_symop_operation_xyz
x,y,z
-y,x,1/4+z
-x,-y,1/2+z
y,-x,3/4+z
x,-y,1/2-z
-x,y,-z
y,x,3/4-z
-y,-x,1/4-z
loop_
_atom_site_type_symbol
_atom_site_label
_atom_site_fract_x
_atom_site_fract_y
_atom_site_fract_z
Si Si1 0.640847 0.267297 0.245922
Si Si2 0.661918 0.527022 0.895156
Si Si3 0.587878 0.080423 0.159683
Si Si4 0.611673 0.924271 0.649294
Si Si5 0.308296 0.755198 0.254875
O O1 0.555444 0.327167 0.257654
O O2 0.628368 0.167744 0.213344
O O3 0.693091 0.268530 0.384100
O O4 0.694640 0.305361 0.125000
O O5 0.700023 0.500000 0.750000
O O6 0.563680 0.563680 0.875000
O O7 0.720088 0.600163 0.958070
O O8 0.487011 0.099458 0.173530
O O9 0.616628 0.000000 0.250000
O O10 0.620435 0.054726 0.009777
O O11 0.677730 0.848705 0.684206
O O12 0.639601 0.000000 0.750000
O O13 0.244254 0.755747 0.125000
#
# Coordination Sequence:
#
# PCOD8304949 Si02
#       5
#     8   8   8   8   8
#     4  12  23  38  59  77 114 148 191 251 276 334
#     4  11  22  37  49  74 106 150 202 232 270 324
#     4  10  22  37  57  82 108 145 187 237 300 339
#     4  10  21  37  56  81 109 140 191 235 285 353
#     4  11  22  37  56  78 109 152 190 231 286 327
#
# _framework density 16.724426999999999
#
# number of rings (size 3 to 8) (size 9 to 14) (size 15 to 20)
#    0.000    1.200    8.000    0.000    2.800    1.600 
#    0.000    0.000    0.000    0.000    0.000    0.000 
#    0.000    4.800    0.000    0.000    0.000    0.000 
#
# Total GULP energy -495772.439671 kJ/mol
# GULP energy per Si atom -12394.310992 kJ/mol
# Density = 1.668636 g / cm^3
# Si number density = 16.724427 Si / 1000 Ang^3
#
#
#
# Elastic Constant Matrix: (Units=GPa)
#
#
# Indices 1 2 3 4 5 6 
#
# 1 92.4305 35.3322 44.0447 0.0000 0.0000 0.0000
# 2 35.3322 92.4296 44.0435 0.0000 0.0000 0.0000
# 3 44.0447 44.0435 123.7136 0.0000 0.0000 0.0000
# 4 0.0000 0.0000 0.0000 18.3312 0.0000 0.0000
# 5 0.0000 0.0000 0.0000 0.0000 18.3398 0.0000
# 6 0.0000 0.0000 0.0000 0.0000 0.0000 14.0104
#
#
#
# Elastic Compliance Matrix: (Units=1/GPa)
#
#
# Indices 1 2 3 4 5 6 
#
# 1 0.013944 -0.003570 -0.003693 0.000000 0.000000 0.000000
# 2 -0.003570 0.013944 -0.003693 0.000000 0.000000 0.000000
# 3 -0.003693 -0.003693 0.010713 0.000000 0.000000 0.000000
# 4 0.000000 0.000000 0.000000 0.054552 0.000000 0.000000
# 5 0.000000 0.000000 0.000000 0.000000 0.054526 0.000000
# 6 0.000000 0.000000 0.000000 0.000000 0.000000 0.071376
#
#
# Mechanical properties :
#
#
# Convention : Reuss Voigt Hill
#
# Bulk Modulus (GPa) = 59.92654 61.71272 60.81963
# Shear Modulus (GPa) = 20.28160 22.47981 21.38071
#
# Velocity S-wave (km/s) = 3.48615 3.67022 3.57937
# Velocity P-wave (km/s) = 7.21899 7.41219 7.31623
#
# Compressibility (1/GPa) = 0.01668710
#
# Stress axis : x y z
#
# Youngs Moduli (GPa) = 71.71779 71.71773 93.34654
#
# Poissons Ratio (x) = 0.25605 0.34474
# Poissons Ratio (y) = 0.25605 0.34473
# Poissons Ratio (z) = 0.26486 0.26485
#
# Static dielectric constant tensor:
#      x y z
#    x 2.635020 0.000000 0.000000 
#    y 0.000000 2.634370 0.000000 
#    z 0.000000 0.000000 3.532800 
# 
# 
# High freq. dielectric constant tensor:
#      x y z
#    x 1.620430 0.000000 0.000000 
#    y 0.000000 1.620430 0.000000 
#    z 0.000000 0.000000 1.670380 
# 
# From -- ./inp_files/2371.got.cif
#   From: 2010.03.12/outbox.cif.g09.slc.cpg/sg91_2_cif.got.tgz:2371.got - 2010.04.08 20:27:58.
