data_PCOD8304719
_publ_section_title
;
Structure prediction by ZEFSAII (Michael W. Deem and Ramdas Pophale) SiO2 
 PCOD8304719
Probable space group: P 41 2 2
;
_chemical_formula_sum "Si O2"
_cell_formula_units_Z 40
_cell_length_a 15.090956
_cell_length_b 15.090956
_cell_length_c 8.858693
_cell_angle_alpha 90.000000
_cell_angle_beta 90.000000
_cell_angle_gamma 90.000000
_cell_volume 2017.451751
_symmetry_space_group_name_H-M "P 41 2 2"
_symmetry_group_IT_number 91
_symmetry_cell_setting 'tetragonal'
loop_
_space_group_symop_operation_xyz
x,y,z
-y,x,1/4+z
-x,-y,1/2+z
y,-x,3/4+z
x,-y,1/2-z
-x,y,-z
y,x,3/4-z
-y,-x,1/4-z
loop_
_atom_site_type_symbol
_atom_site_label
_atom_site_fract_x
_atom_site_fract_y
_atom_site_fract_z
Si Si1 0.990221 0.359966 0.174328
Si Si2 0.000000 0.901826 0.000000
Si Si3 0.259945 0.259945 0.875000
Si Si4 0.811429 0.552624 0.384498
Si Si5 0.245975 0.885872 0.377901
Si Si6 0.095898 0.585845 0.067993
O O1 0.902630 0.418716 0.197975
O O2 0.970865 0.270520 0.267619
O O3 0.078038 0.405279 0.249693
O O4 0.000000 0.336908 0.000000
O O5 0.085942 0.844663 0.950675
O O6 0.968590 0.968590 0.875000
O O7 0.245722 0.361355 0.929252
O O8 0.201429 0.233578 0.729957
O O9 0.760291 0.500000 0.250000
O O10 0.832679 0.491376 0.530795
O O11 0.321815 0.869415 0.251497
O O12 0.000000 0.557678 0.000000
#
# Coordination Sequence:
#
# PCOD8304719 Si02
#       6
#     8   4   4   8   8   8
#     4  10  20  31  60  97 121 157 201 269 341 390
#     4  12  28  46  60  84 124 184 228 268 320 390
#     4  10  22  36  64  96 128 170 218 270 330 408
#     4  11  19  33  56  93 137 157 210 268 334 410
#     4  10  21  43  61  84 126 162 218 273 326 381
#     4  10  17  35  61  90 125 159 198 280 338 380
#
# _framework density 19.826993000000002
#
# number of rings (size 3 to 8) (size 9 to 14) (size 15 to 20)
#    0.000    1.600    9.000    0.600    1.400    3.200 
#    0.000    0.000    0.000    0.000    0.000    0.000 
#   15.000    0.000    0.000    0.000    0.000    0.000 
#
# Total GULP energy -495664.101899 kJ/mol
# GULP energy per Si atom -12391.602547 kJ/mol
# Density = 1.978187 g / cm^3
# Si number density = 19.826993 Si / 1000 Ang^3
#
#
#
# Elastic Constant Matrix: (Units=GPa)
#
#
# Indices 1 2 3 4 5 6 
#
# 1 92.8476 49.1753 38.4231 0.0000 0.0000 0.0000
# 2 49.1753 92.8476 38.4231 0.0000 0.0000 0.0000
# 3 38.4231 38.4231 120.2856 0.0000 0.0000 0.0000
# 4 0.0000 0.0000 0.0000 26.2941 0.0000 0.0000
# 5 0.0000 0.0000 0.0000 0.0000 26.2941 0.0000
# 6 0.0000 0.0000 0.0000 0.0000 0.0000 32.4057
#
#
#
# Elastic Compliance Matrix: (Units=1/GPa)
#
#
# Indices 1 2 3 4 5 6 
#
# 1 0.015705 -0.007193 -0.002719 0.000000 0.000000 0.000000
# 2 -0.007193 0.015705 -0.002719 0.000000 0.000000 0.000000
# 3 -0.002719 -0.002719 0.010051 0.000000 0.000000 0.000000
# 4 0.000000 0.000000 0.000000 0.038031 0.000000 0.000000
# 5 0.000000 0.000000 0.000000 0.000000 0.038031 0.000000
# 6 0.000000 0.000000 0.000000 0.000000 0.000000 0.030859
#
#
# Mechanical properties :
#
#
# Convention : Reuss Voigt Hill
#
# Bulk Modulus (GPa) = 61.73237 62.00266 61.86751
# Shear Modulus (GPa) = 27.92611 28.99607 28.46109
#
# Velocity S-wave (km/s) = 3.75706 3.82835 3.79287
# Velocity P-wave (km/s) = 7.07275 7.13312 7.10300
#
# Compressibility (1/GPa) = 0.01619896
#
# Stress axis : x y z
#
# Youngs Moduli (GPa) = 63.67364 63.67364 99.49541
#
# Poissons Ratio (x) = 0.45798 0.27054
# Poissons Ratio (y) = 0.45798 0.27054
# Poissons Ratio (z) = 0.17314 0.17314
#
# Static dielectric constant tensor:
#      x y z
#    x 3.474070 0.000000 0.000000 
#    y 0.000000 3.474070 0.000000 
#    z 0.000000 0.000000 3.855620 
# 
# 
# High freq. dielectric constant tensor:
#      x y z
#    x 1.740290 0.000000 0.000000 
#    y 0.000000 1.740290 0.000000 
#    z 0.000000 0.000000 1.785670 
# 
# From -- ./inp_files/15038.got.cif
#   From: 2010.03.12/outbox.cif.g09.slc.cpg/sg91_8_cif.got.tgz:15038.got - 2010.04.08 20:27:58.
