data_PCOD8304450
_publ_section_title
;
Structure prediction by ZEFSAII (Michael W. Deem and Ramdas Pophale) SiO2 
 PCOD8304450
Probable space group: I 41/A
;
_chemical_formula_sum "Si O2"
_cell_formula_units_Z 36
_cell_length_a 16.263142
_cell_length_b 16.263142
_cell_length_c 4.854239
_cell_angle_alpha 90.000000
_cell_angle_beta 90.000000
_cell_angle_gamma 90.000000
_cell_volume 1283.896643
_symmetry_space_group_name_H-M "I 41/A"
_symmetry_group_IT_number 88
_space_group.IT_coordinate_system_code '2'
_symmetry_cell_setting 'tetragonal'
loop_
_space_group_symop_operation_xyz
x,y,z
3/4-y,1/4+x,1/4+z
-x,1/2-y,z
1/4+y,1/4-x,1/4+z
-x,-y,-z
1/4+y,3/4-x,3/4-z
x,1/2+y,-z
3/4-y,3/4+x,3/4-z
1/2+x,1/2+y,1/2+z
1/4-y,3/4+x,3/4+z
1/2-x,-y,1/2+z
3/4+y,3/4-x,3/4+z
1/2-x,1/2-y,1/2-z
3/4+y,1/4-x,1/4-z
1/2+x,y,1/2-z
1/4-y,1/4+x,1/4-z
loop_
_atom_site_type_symbol
_atom_site_label
_atom_site_fract_x
_atom_site_fract_y
_atom_site_fract_z
Si Si1 0.000000 0.250000 0.625000
Si Si2 0.042268 0.083536 0.396067
Si Si3 0.304793 0.110969 0.134994
O O1 0.009996 0.332063 0.432973
O O2 0.124435 0.096255 0.585923
O O3 0.058883 0.068477 0.074226
O O4 0.000000 0.000000 0.500000
O O5 0.344844 0.040135 0.318099
#
# Coordination Sequence:
#
# PCOD8304450 Si02
#       3
#     4  16  16
#     4  12  28  50  80 114 156 214 264 330 416 490
#     4  12  27  47  73 111 156 205 267 330 399 484
#     4  12  24  45  74 108 152 206 262 327 399 476
#
# _framework density 28.039639999999999
#
# number of rings (size 3 to 8) (size 9 to 14) (size 15 to 20)
#    0.000    0.000    0.000   12.000    0.000    5.333 
#    0.000    0.000    0.000    0.000    0.000    0.000 
#    0.000    0.000    0.000    0.000    0.000    0.000 
#
# Total GULP energy -223038.122135 kJ/mol
# GULP energy per Si atom -12391.006785 kJ/mol
# Density = 2.797582 g / cm^3
# Si number density = 28.039640 Si / 1000 Ang^3
#
#
#
# Elastic Constant Matrix: (Units=GPa)
#
#
# Indices 1 2 3 4 5 6 
#
# 1 1732.3398-1585.8594 18.3945 0.0000 0.0000 1341.7429
# 2 -1585.8594 1732.3398 18.3945 0.0000 0.0000-1341.7429
# 3 18.3945 18.3945 138.9831 0.0000 0.0000 0.0000
# 4 0.0000 0.0000 0.0000 49.1532 0.0000 0.0000
# 5 0.0000 0.0000 0.0000 0.0000 49.1532 0.0000
# 6 1341.7429-1341.7429 0.0000 0.0000 0.0000 1172.3859
#
#
#
# Elastic Compliance Matrix: (Units=1/GPa)
#
#
# Indices 1 2 3 4 5 6 
#
# 1 0.005555 0.001507 -0.000935 0.000000 0.000000 -0.004632
# 2 0.001507 0.005555 -0.000935 0.000000 0.000000 0.004632
# 3 -0.000935 -0.000935 0.007443 0.000000 0.000000 0.000000
# 4 0.000000 0.000000 0.000000 0.020345 0.000000 0.000000
# 5 0.000000 0.000000 0.000000 0.000000 0.020345 0.000000
# 6 -0.004632 0.004632 0.000000 0.000000 0.000000 0.011455
#
#
# Mechanical properties :
#
#
# Convention : Reuss Voigt Hill
#
# Bulk Modulus (GPa) = 56.09389 56.16910 56.13149
# Shear Modulus (GPa) = 64.63063 597.65402 331.14232
#
# Velocity S-wave (km/s) = 4.80622 14.61536 10.87908
# Velocity P-wave (km/s) = 7.13080 17.46102 13.33671
#
# Compressibility (1/GPa) = 0.01782725
#
# Stress axis : x y z
#
# Youngs Moduli (GPa) = 180.03415 180.03415 134.36333
#
# Poissons Ratio (x) = -0.27133 0.12558
# Poissons Ratio (y) = -0.27133 0.12558
# Poissons Ratio (z) = 0.16826 0.16826
#
# Static dielectric constant tensor:
#      x y z
#    x 5.293320 0.000000 0.000000 
#    y 0.000000 5.293320 0.000000 
#    z 0.000000 0.000000 5.522140 
# 
# 
# High freq. dielectric constant tensor:
#      x y z
#    x 2.137760 0.000000 0.000000 
#    y 0.000000 2.137760 0.000000 
#    z 0.000000 0.000000 2.144470 
# 
# From -- ./inp_files/226.got.cif
#   From: 2010.03.12/outbox.cif.g09.slc.cpg/sg88_1_cif.got.tgz:226.got - 2010.04.08 20:20:55.
