data_PCOD8304880
_publ_section_title
;
Structure prediction by ZEFSAII (Michael W. Deem and Ramdas Pophale) SiO2 
 PCOD8304880
Probable space group: P 41 2 2
;
_chemical_formula_sum "Si O2"
_cell_formula_units_Z 44
_cell_length_a 9.443283
_cell_length_b 9.443283
_cell_length_c 25.044627
_cell_angle_alpha 90.000000
_cell_angle_beta 90.000000
_cell_angle_gamma 90.000000
_cell_volume 2233.369485
_symmetry_space_group_name_H-M "P 41 2 2"
_symmetry_group_IT_number 91
_symmetry_cell_setting 'tetragonal'
loop_
_space_group_symop_operation_xyz
x,y,z
-y,x,1/4+z
-x,-y,1/2+z
y,-x,3/4+z
x,-y,1/2-z
-x,y,-z
y,x,3/4-z
-y,-x,1/4-z
loop_
_atom_site_type_symbol
_atom_site_label
_atom_site_fract_x
_atom_site_fract_y
_atom_site_fract_z
Si Si1 0.293510 0.872692 0.529660
Si Si2 0.500000 0.890035 0.000000
Si Si3 0.916562 0.916562 0.375000
Si Si4 0.650210 0.500000 0.250000
Si Si5 0.235408 0.143466 0.091909
Si Si6 0.147801 0.361354 0.355770
Si Si7 0.649521 0.558448 0.595688
O O1 0.171858 0.866775 0.573780
O O2 0.407983 0.748384 0.540302
O O3 0.219992 0.849498 0.472048
O O4 0.380626 0.019014 0.530987
O O5 0.582123 0.801035 0.953506
O O6 0.082050 0.885194 0.383289
O O7 0.554878 0.393102 0.283741
O O8 0.313026 0.282694 0.115402
O O9 0.345539 0.020072 0.107642
O O10 0.212220 0.212220 0.375000
O O11 0.203772 0.473815 0.398825
O O12 0.518545 0.481456 0.625000
#
# Coordination Sequence:
#
# PCOD8304880 Si02
#       7
#     8   4   4   4   8   8   8
#     4   9  20  35  59  88 123 165 199 248 317 367
#     4   9  18  37  58  82 124 168 202 238 316 392
#     4  12  20  34  66  96 122 160 208 262 310 382
#     4   9  20  41  56  88 128 156 208 270 290 378
#     4  10  21  39  59  93 127 154 206 269 303 370
#     4  10  20  37  60  86 119 166 199 253 315 377
#     4  10  22  38  64  84 117 170 209 247 318 374
#
# _framework density 19.701174999999999
#
# number of rings (size 3 to 8) (size 9 to 14) (size 15 to 20)
#    0.000    2.182    0.909    2.727    1.273    2.909 
#    0.000    0.000    0.000    0.000    0.000    0.000 
#    0.000    0.000    0.000    0.000    0.000    0.000 
#
# Total GULP energy -545149.583347 kJ/mol
# GULP energy per Si atom -12389.763258 kJ/mol
# Density = 1.965633 g / cm^3
# Si number density = 19.701175 Si / 1000 Ang^3
#
#
#
# Elastic Constant Matrix: (Units=GPa)
#
#
# Indices 1 2 3 4 5 6 
#
# 1 123.2002 56.1789 49.1976 0.0000 0.0000 0.0000
# 2 56.1789 123.1998 49.1978 0.0000 0.0000 0.0000
# 3 49.1976 49.1978 80.9194 0.0000 0.0000 0.0000
# 4 0.0000 0.0000 0.0000 32.2484 0.0000 0.0000
# 5 0.0000 0.0000 0.0000 0.0000 32.2485 0.0000
# 6 0.0000 0.0000 0.0000 0.0000 0.0000 32.0782
#
#
#
# Elastic Compliance Matrix: (Units=1/GPa)
#
#
# Indices 1 2 3 4 5 6 
#
# 1 0.011642 -0.003278 -0.005085 0.000000 0.000000 0.000000
# 2 -0.003278 0.011643 -0.005085 0.000000 0.000000 0.000000
# 3 -0.005085 -0.005085 0.018542 0.000000 0.000000 0.000000
# 4 0.000000 0.000000 0.000000 0.031009 0.000000 0.000000
# 5 0.000000 0.000000 0.000000 0.000000 0.031009 0.000000
# 6 0.000000 0.000000 0.000000 0.000000 0.000000 0.031174
#
#
# Mechanical properties :
#
#
# Convention : Reuss Voigt Hill
#
# Bulk Modulus (GPa) = 66.98478 70.71866 68.85172
# Shear Modulus (GPa) = 29.95935 30.83137 30.39536
#
# Velocity S-wave (km/s) = 3.90383 3.96024 3.93214
# Velocity P-wave (km/s) = 7.37523 7.54221 7.45919
#
# Compressibility (1/GPa) = 0.01492876
#
# Stress axis : x y z
#
# Youngs Moduli (GPa) = 85.89271 85.89219 53.93281
#
# Poissons Ratio (x) = 0.28157 0.27426
# Poissons Ratio (y) = 0.28157 0.27427
# Poissons Ratio (z) = 0.43679 0.43679
#
# Static dielectric constant tensor:
#      x y z
#    x 3.640930 0.000000 0.000000 
#    y 0.000000 3.640930 0.000000 
#    z 0.000000 0.000000 3.477310 
# 
# 
# High freq. dielectric constant tensor:
#      x y z
#    x 1.770860 0.000000 0.000000 
#    y 0.000000 1.770860 0.000000 
#    z 0.000000 0.000000 1.749190 
# 
# From -- ./inp_files/7896.got.cif
#   From: 2010.03.12/outbox.cif.g09.slc.cpg/sg91_4_cif.got.tgz:7896.got - 2010.04.08 20:27:58.
