data_PCOD8304699
_publ_section_title
;
Structure prediction by ZEFSAII (Michael W. Deem and Ramdas Pophale) SiO2 
 PCOD8304699
Probable space group: P 41 2 2
;
_chemical_formula_sum "Si O2"
_cell_formula_units_Z 40
_cell_length_a 10.341721
_cell_length_b 10.341721
_cell_length_c 17.374248
_cell_angle_alpha 90.000000
_cell_angle_beta 90.000000
_cell_angle_gamma 90.000000
_cell_volume 1858.196555
_symmetry_space_group_name_H-M "P 41 2 2"
_symmetry_group_IT_number 91
_symmetry_cell_setting 'tetragonal'
loop_
_space_group_symop_operation_xyz
x,y,z
-y,x,1/4+z
-x,-y,1/2+z
y,-x,3/4+z
x,-y,1/2-z
-x,y,-z
y,x,3/4-z
-y,-x,1/4-z
loop_
_atom_site_type_symbol
_atom_site_label
_atom_site_fract_x
_atom_site_fract_y
_atom_site_fract_z
Si Si1 0.451131 0.048833 0.079560
Si Si2 0.791526 0.619959 0.430089
Si Si3 0.001653 0.202223 0.408283
Si Si4 0.249608 0.244197 0.668657
Si Si5 0.590608 0.583104 0.678798
O O1 0.570698 0.078641 0.137054
O O2 0.345467 0.961670 0.125405
O O3 0.382096 0.185371 0.055563
O O4 0.500000 0.982597 0.000000
O O5 0.715866 0.715866 0.375000
O O6 0.832187 0.697725 0.507085
O O7 0.704132 0.497575 0.455437
O O8 0.859083 0.160477 0.376863
O O9 0.000000 0.202463 0.500000
O O10 0.103810 0.103810 0.375000
O O11 0.368020 0.278256 0.612061
O O12 0.639890 0.500000 0.750000
O O13 0.507846 0.492155 0.625000
#
# Coordination Sequence:
#
# PCOD8304699 Si02
#       5
#     8   8   8   8   8
#     4   9  18  34  62  98 131 168 206 265 344 392
#     4  10  15  26  52  94 137 155 193 245 317 401
#     4  10  23  46  67  85 120 179 237 290 333 378
#     4   9  19  32  57  90 125 176 211 247 328 388
#     4  10  17  24  45  86 137 165 187 229 314 399
#
# _framework density 21.526247000000001
#
# number of rings (size 3 to 8) (size 9 to 14) (size 15 to 20)
#    1.200    1.200    4.000    0.000    0.000    0.000 
#    0.000    8.000    0.000    0.000    0.000    0.000 
#    0.000    0.000    0.000    0.400    0.000    0.000 
#
# Total GULP energy -495715.653551 kJ/mol
# GULP energy per Si atom -12392.891339 kJ/mol
# Density = 2.147725 g / cm^3
# Si number density = 21.526247 Si / 1000 Ang^3
#
#
#
# Elastic Constant Matrix: (Units=GPa)
#
#
# Indices 1 2 3 4 5 6 
#
# 1 64.8232 51.7185 63.8697 0.0000 0.0000 0.0000
# 2 51.7185 64.8230 63.8688 0.0000 0.0000 0.0000
# 3 63.8697 63.8688 195.7375 0.0000 0.0000 0.0000
# 4 0.0000 0.0000 0.0000 20.2742 0.0000 0.0000
# 5 0.0000 0.0000 0.0000 0.0000 20.2742 0.0000
# 6 0.0000 0.0000 0.0000 0.0000 0.0000 39.0949
#
#
#
# Elastic Compliance Matrix: (Units=1/GPa)
#
#
# Indices 1 2 3 4 5 6 
#
# 1 0.044834 -0.031475 -0.004359 0.000000 0.000000 0.000000
# 2 -0.031475 0.044833 -0.004359 0.000000 0.000000 0.000000
# 3 -0.004359 -0.004359 0.007953 0.000000 0.000000 0.000000
# 4 0.000000 0.000000 0.000000 0.049324 0.000000 0.000000
# 5 0.000000 0.000000 0.000000 0.000000 0.049324 0.000000
# 6 0.000000 0.000000 0.000000 0.000000 0.000000 0.025579
#
#
# Mechanical properties :
#
#
# Convention : Reuss Voigt Hill
#
# Bulk Modulus (GPa) = 58.02256 76.03307 67.02781
# Shear Modulus (GPa) = 16.23495 25.65710 20.94602
#
# Velocity S-wave (km/s) = 2.74924 3.45613 3.12275
# Velocity P-wave (km/s) = 6.09020 7.16409 6.64887
#
# Compressibility (1/GPa) = 0.01723468
#
# Stress axis : x y z
#
# Youngs Moduli (GPa) = 22.30468 22.30482 125.73185
#
# Poissons Ratio (x) = 0.70205 0.54807
# Poissons Ratio (y) = 0.70205 0.54801
# Poissons Ratio (z) = 0.09723 0.09722
#
# Static dielectric constant tensor:
#      x y z
#    x 3.515150 0.000000 0.000000 
#    y 0.000000 3.515150 0.000000 
#    z 0.000000 0.000000 3.929710 
# 
# 
# High freq. dielectric constant tensor:
#      x y z
#    x 1.813080 0.000000 0.000000 
#    y 0.000000 1.813080 0.000000 
#    z 0.000000 0.000000 1.854570 
# 
# From -- ./inp_files/11349.got.cif
#   From: 2010.03.12/outbox.cif.g09.slc.cpg/sg91_6_cif.got.tgz:11349.got - 2010.04.08 20:27:58.
