data_PCOD8304087
_publ_section_title
;
Structure prediction by ZEFSAII (Michael W. Deem and Ramdas Pophale) SiO2 
 PCOD8304087
Probable space group: I 4/M
;
_chemical_formula_sum "Si O2"
_cell_formula_units_Z 80
_cell_length_a 11.825062
_cell_length_b 11.825062
_cell_length_c 32.443852
_cell_angle_alpha 90.000000
_cell_angle_beta 90.000000
_cell_angle_gamma 90.000000
_cell_volume 4536.691675
_symmetry_space_group_name_H-M "I 4/M"
_symmetry_group_IT_number 87
_symmetry_cell_setting 'tetragonal'
loop_
_space_group_symop_operation_xyz
x,y,z
-y,x,z
-x,-y,z
y,-x,z
-x,-y,-z
y,-x,-z
x,y,-z
-y,x,-z
1/2+x,1/2+y,1/2+z
1/2-y,1/2+x,1/2+z
1/2-x,1/2-y,1/2+z
1/2+y,1/2-x,1/2+z
1/2-x,1/2-y,1/2-z
1/2+y,1/2-x,1/2-z
1/2+x,1/2+y,1/2-z
1/2-y,1/2+x,1/2-z
loop_
_atom_site_type_symbol
_atom_site_label
_atom_site_fract_x
_atom_site_fract_y
_atom_site_fract_z
Si Si1 0.416819 0.332916 0.546131
Si Si2 0.370464 0.008092 0.680887
Si Si3 0.895918 0.709808 0.874071
Si Si4 0.881726 0.259905 0.168727
Si Si5 0.318865 0.458180 0.756235
O O1 0.549888 0.351725 0.553016
O O2 0.394090 0.286986 0.500000
O O3 0.368979 0.239189 0.578245
O O4 0.324145 0.883017 0.672263
O O5 0.500000 0.000000 0.697764
O O6 0.369080 0.080070 0.638141
O O7 0.288130 0.066841 0.714210
O O8 0.827431 0.785498 0.842048
O O9 0.027398 0.737453 0.867856
O O10 0.947434 0.224650 0.209906
O O11 0.416051 0.365864 0.764442
#
# Coordination Sequence:
#
# PCOD8304087 Si02
#       5
#    16  16  16  16  16
#     4   9  17  30  54  86 110 129 164 217 271 319
#     4  10  25  36  49  73 105 145 179 213 259 309
#     4  11  20  35  55  76 108 139 170 214 263 318
#     4  11  22  34  53  77 103 139 180 217 260 314
#     4  11  23  38  55  74  99 137 192 233 260 292
#
# _framework density 17.633994999999999
#
# number of rings (size 3 to 8) (size 9 to 14) (size 15 to 20)
#    0.000    1.600    4.000    1.800    5.600    2.000 
#    0.000    0.000    0.000    6.600    0.000    0.000 
#    0.000    0.000    0.000    6.200    0.000    0.000 
#
# Total GULP energy -495873.184873 kJ/mol
# GULP energy per Si atom -12396.829622 kJ/mol
# Density = 1.759386 g / cm^3
# Si number density = 17.633995 Si / 1000 Ang^3
#
#
#
# Elastic Constant Matrix: (Units=GPa)
#
#
# Indices 1 2 3 4 5 6 
#
# 1 74.6214 25.0832 40.1710 0.0000 0.0000 -1.3560
# 2 25.0832 74.6214 40.1710 0.0000 0.0000 1.3560
# 3 40.1710 40.1710 122.0670 0.0000 0.0000 0.0000
# 4 0.0000 0.0000 0.0000 24.6007 0.0000 0.0000
# 5 0.0000 0.0000 0.0000 0.0000 24.6007 0.0000
# 6 -1.3560 1.3560 0.0000 0.0000 0.0000 17.4787
#
#
#
# Elastic Compliance Matrix: (Units=1/GPa)
#
#
# Indices 1 2 3 4 5 6 
#
# 1 0.016961 -0.003312 -0.004492 0.000000 0.000000 0.001573
# 2 -0.003312 0.016961 -0.004492 0.000000 0.000000 -0.001573
# 3 -0.004492 -0.004492 0.011149 0.000000 0.000000 0.000000
# 4 0.000000 0.000000 0.000000 0.040649 0.000000 0.000000
# 5 0.000000 0.000000 0.000000 0.000000 0.040649 0.000000
# 6 0.001573 -0.001573 0.000000 0.000000 0.000000 0.057457
#
#
# Mechanical properties :
#
#
# Convention : Reuss Voigt Hill
#
# Bulk Modulus (GPa) = 48.82882 53.57334 51.20108
# Shear Modulus (GPa) = 23.22964 24.39502 23.81233
#
# Velocity S-wave (km/s) = 3.63343 3.72345 3.67872
# Velocity P-wave (km/s) = 6.73444 6.99515 6.86603
#
# Compressibility (1/GPa) = 0.02047971
#
# Stress axis : x y z
#
# Youngs Moduli (GPa) = 58.95945 58.95945 89.69725
#
# Poissons Ratio (x) = 0.19526 0.40290
# Poissons Ratio (y) = 0.19526 0.40290
# Poissons Ratio (z) = 0.26483 0.26483
#
# Static dielectric constant tensor:
#      x y z
#    x 3.268370 0.000000 0.000000 
#    y 0.000000 3.268370 0.000000 
#    z 0.000000 0.000000 3.107050 
# 
# 
# High freq. dielectric constant tensor:
#      x y z
#    x 1.675560 0.000000 0.000000 
#    y 0.000000 1.675560 0.000000 
#    z 0.000000 0.000000 1.661920 
# 
# From -- ./inp_files/6472.got.cif
#   From: 2010.03.12/outbox.cif.g09.slc.cpg/sg87_4_cif.got.tgz:6472.got - 2010.04.08 20:16:13.
