data_PCOD8304908
_publ_section_title
;
Structure prediction by ZEFSAII (Michael W. Deem and Ramdas Pophale) SiO2 
 PCOD8304908
Probable space group: P 41 2 2
;
_chemical_formula_sum "Si O2"
_cell_formula_units_Z 60
_cell_length_a 17.942448
_cell_length_b 17.942448
_cell_length_c 9.464250
_cell_angle_alpha 90.000000
_cell_angle_beta 90.000000
_cell_angle_gamma 90.000000
_cell_volume 3046.839633
_symmetry_space_group_name_H-M "P 41 2 2"
_symmetry_group_IT_number 91
_symmetry_cell_setting 'tetragonal'
loop_
_space_group_symop_operation_xyz
x,y,z
-y,x,1/4+z
-x,-y,1/2+z
y,-x,3/4+z
x,-y,1/2-z
-x,y,-z
y,x,3/4-z
-y,-x,1/4-z
loop_
_atom_site_type_symbol
_atom_site_label
_atom_site_fract_x
_atom_site_fract_y
_atom_site_fract_z
Si Si1 0.795569 0.144665 0.270868
Si Si2 0.694339 0.724952 0.213931
Si Si3 0.914082 0.332833 0.538717
Si Si4 0.835588 0.087512 0.743516
Si Si5 0.578963 0.067509 0.442095
Si Si6 0.205622 0.599417 0.850964
Si Si7 0.197549 0.555691 0.530886
Si Si8 0.693276 0.000000 0.250000
O O1 0.738353 0.202652 0.343983
O O2 0.868951 0.136697 0.367131
O O3 0.748308 0.070079 0.243379
O O4 0.825559 0.174442 0.125000
O O5 0.716254 0.716254 0.375000
O O6 0.721115 0.651515 0.130548
O O7 0.605188 0.738737 0.202485
O O8 0.890757 0.247201 0.557384
O O9 0.891699 0.378726 0.679079
O O10 0.868488 0.362513 0.406555
O O11 0.000000 0.344012 0.500000
O O12 0.893478 0.106523 0.625000
O O13 0.840861 0.000000 0.750000
O O14 0.500000 0.033640 0.500000
O O15 0.559635 0.123262 0.313442
O O16 0.637016 0.004879 0.385074
O O17 0.183421 0.586167 0.688416
O O18 0.225996 0.528174 0.947204
#
# Coordination Sequence:
#
# PCOD8304908 Si02
#       8
#     8   8   8   8   8   8   8   4
#     4  11  24  42  70  92 120 167 225 270 324 394
#     4   9  18  36  61  92 124 160 209 258 305 377
#     4  11  25  39  63  88 125 164 206 259 329 386
#     4  11  26  47  67  92 125 163 219 278 335 386
#     4  12  26  40  60  94 133 167 206 260 322 399
#     4  10  20  39  62  91 129 163 207 268 314 374
#     4  10  21  39  61  91 128 165 215 257 315 387
#     4  12  28  44  66  92 132 174 216 268 330 390
#
# _framework density 19.692536
#
# number of rings (size 3 to 8) (size 9 to 14) (size 15 to 20)
#    0.000    1.333    4.000    0.800    8.400    0.000 
#    1.200    0.000    0.000    0.000    0.000    0.000 
#   24.000    0.000    0.000    0.000    0.000    0.000 
#
# Total GULP energy -743504.826815 kJ/mol
# GULP energy per Si atom -12391.747114 kJ/mol
# Density = 1.964771 g / cm^3
# Si number density = 19.692536 Si / 1000 Ang^3
#
#
#
# Elastic Constant Matrix: (Units=GPa)
#
#
# Indices 1 2 3 4 5 6 
#
# 1 114.2947 92.9887 43.1272 0.0000 0.0000 0.0000
# 2 92.9887 114.3043 43.1294 0.0000 0.0000 0.0000
# 3 43.1272 43.1294 78.7947 0.0000 0.0000 0.0000
# 4 0.0000 0.0000 0.0000 27.7762 0.0000 0.0000
# 5 0.0000 0.0000 0.0000 0.0000 27.7755 0.0000
# 6 0.0000 0.0000 0.0000 0.0000 0.0000 19.6218
#
#
#
# Elastic Compliance Matrix: (Units=1/GPa)
#
#
# Indices 1 2 3 4 5 6 
#
# 1 0.026587 -0.020339 -0.003419 0.000000 0.000000 0.000000
# 2 -0.020339 0.026585 -0.003419 0.000000 0.000000 0.000000
# 3 -0.003419 -0.003419 0.016434 0.000000 0.000000 0.000000
# 4 0.000000 0.000000 0.000000 0.036002 0.000000 0.000000
# 5 0.000000 0.000000 0.000000 0.000000 0.036003 0.000000
# 6 0.000000 0.000000 0.000000 0.000000 0.000000 0.050964
#
#
# Mechanical properties :
#
#
# Convention : Reuss Voigt Hill
#
# Bulk Modulus (GPa) = 65.56884 73.98716 69.77800
# Shear Modulus (GPa) = 19.84024 23.57794 21.70909
#
# Velocity S-wave (km/s) = 3.17756 3.46396 3.32385
# Velocity P-wave (km/s) = 6.84332 7.32471 7.08811
#
# Compressibility (1/GPa) = 0.01525115
#
# Stress axis : x y z
#
# Youngs Moduli (GPa) = 37.61258 37.61555 60.84820
#
# Poissons Ratio (x) = 0.76505 0.20805
# Poissons Ratio (y) = 0.76499 0.20807
# Poissons Ratio (z) = 0.12861 0.12862
#
# Static dielectric constant tensor:
#      x y z
#    x 3.856860 0.000000 0.000000 
#    y 0.000000 3.856860 0.000000 
#    z 0.000000 0.000000 3.652030 
# 
# 
# High freq. dielectric constant tensor:
#      x y z
#    x 1.761600 0.000000 0.000000 
#    y 0.000000 1.761600 0.000000 
#    z 0.000000 0.000000 1.767360 
# 
# From -- ./inp_files/19692.got.cif
#   From: 2010.03.12/outbox.cif.g09.slc.cpg/sg91_10_cif.got.tgz:19692.got - 2010.04.08 20:27:58.
