data_PCOD8304987
_publ_section_title
;
Structure prediction by ZEFSAII (Michael W. Deem and Ramdas Pophale) SiO2 
 PCOD8304987
Probable space group: P 41 2 2
;
_chemical_formula_sum "Si O2"
_cell_formula_units_Z 48
_cell_length_a 13.977809
_cell_length_b 13.977809
_cell_length_c 12.000693
_cell_angle_alpha 90.000000
_cell_angle_beta 90.000000
_cell_angle_gamma 90.000000
_cell_volume 2344.685131
_symmetry_space_group_name_H-M "P 41 2 2"
_symmetry_group_IT_number 91
_symmetry_cell_setting 'tetragonal'
loop_
_space_group_symop_operation_xyz
x,y,z
-y,x,1/4+z
-x,-y,1/2+z
y,-x,3/4+z
x,-y,1/2-z
-x,y,-z
y,x,3/4-z
-y,-x,1/4-z
loop_
_atom_site_type_symbol
_atom_site_label
_atom_site_fract_x
_atom_site_fract_y
_atom_site_fract_z
Si Si1 0.833711 0.478681 0.378442
Si Si2 0.040996 0.412947 0.320574
Si Si3 0.171117 0.165111 0.617494
Si Si4 0.232995 0.029254 0.952768
Si Si5 0.191330 0.311051 0.946988
Si Si6 0.788900 0.674321 0.958957
O O1 0.803101 0.500000 0.250000
O O2 0.825648 0.575914 0.449328
O O3 0.764667 0.398000 0.436572
O O4 0.942935 0.441410 0.384211
O O5 0.083092 0.500000 0.250000
O O6 0.123804 0.379735 0.401626
O O7 0.019271 0.332880 0.230205
O O8 0.077702 0.190027 0.687813
O O9 0.270163 0.197057 0.678269
O O10 0.171854 0.224377 0.502902
O O11 0.162535 0.052889 0.591221
O O12 0.250494 0.104562 0.855655
O O13 0.286764 0.286764 0.875000
O O14 0.699127 0.699127 0.875000
#
# Coordination Sequence:
#
# PCOD8304987 Si02
#       6
#     8   8   8   8   8   8
#     4  11  21  40  67 102 131 168 223 282 349 409
#     4  11  22  38  67 101 129 168 228 287 352 401
#     4  11  24  39  64  88 134 188 226 277 337 401
#     4  11  21  41  65  91 133 177 235 278 334 400
#     4  10  21  40  68  98 135 171 220 286 343 414
#     4  12  25  39  62  98 141 180 216 280 352 413
#
# _framework density 20.471831999999999
#
# number of rings (size 3 to 8) (size 9 to 14) (size 15 to 20)
#    0.000    1.000    6.667    2.000    2.333    1.333 
#    0.000    0.000   36.667    0.000    0.000   16.333 
#    0.000    0.000    0.000    0.000    0.000    0.000 
#
# Total GULP energy -595048.123892 kJ/mol
# GULP energy per Si atom -12396.835914 kJ/mol
# Density = 2.042524 g / cm^3
# Si number density = 20.471832 Si / 1000 Ang^3
#
#
#
# Elastic Constant Matrix: (Units=GPa)
#
#
# Indices 1 2 3 4 5 6 
#
# 1 84.1798 36.3610 41.8167 0.0000 0.0000 0.0000
# 2 36.3610 84.1798 41.8167 0.0000 0.0000 0.0000
# 3 41.8167 41.8167 93.9762 0.0000 0.0000 0.0000
# 4 0.0000 0.0000 0.0000 38.8335 0.0000 0.0000
# 5 0.0000 0.0000 0.0000 0.0000 38.8335 0.0000
# 6 0.0000 0.0000 0.0000 0.0000 0.0000 -16.5790
#
#
#
# Elastic Compliance Matrix: (Units=1/GPa)
#
#
# Indices 1 2 3 4 5 6 
#
# 1 0.016457 -0.004456 -0.005340 0.000000 0.000000 0.000000
# 2 -0.004456 0.016457 -0.005340 0.000000 0.000000 0.000000
# 3 -0.005340 -0.005340 0.015393 0.000000 0.000000 0.000000
# 4 0.000000 0.000000 0.000000 0.025751 0.000000 0.000000
# 5 0.000000 0.000000 0.000000 0.000000 0.025751 0.000000
# 6 0.000000 0.000000 0.000000 0.000000 0.000000 -0.060317
#
#
# Mechanical properties :
#
#
# Convention : Reuss Voigt Hill
#
# Bulk Modulus (GPa) = 55.44783 55.81387 55.63085
# Shear Modulus (GPa) = 65.98530 21.70705 43.84618
#
# Velocity S-wave (km/s) = 5.68350 3.25981 4.63296
# Velocity P-wave (km/s) = 8.37934 6.44139 7.47345
#
# Compressibility (1/GPa) = 0.01803497
#
# Stress axis : x y z
#
# Youngs Moduli (GPa) = 60.76575 60.76575 64.96298
#
# Poissons Ratio (x) = 0.27075 0.34691
# Poissons Ratio (y) = 0.27075 0.34691
# Poissons Ratio (z) = 0.32450 0.32450
#
# Static dielectric constant tensor:
#      x y z
#    x 3.886610 0.000000 0.000000 
#    y 0.000000 3.886610 0.000000 
#    z 0.000000 0.000000 3.928750 
# 
# 
# High freq. dielectric constant tensor:
#      x y z
#    x 1.781150 0.000000 0.000000 
#    y 0.000000 1.781150 0.000000 
#    z 0.000000 0.000000 1.815390 
# 
# From -- ./inp_files/10781.got.cif
#   From: 2010.03.12/outbox.cif.g09.slc.cpg/sg91_6_cif.got.tgz:10781.got - 2010.04.08 20:27:58.
