data_PCOD8304973
_publ_section_title
;
Structure prediction by ZEFSAII (Michael W. Deem and Ramdas Pophale) SiO2 
 PCOD8304973
Probable space group: P 41 2 2
;
_chemical_formula_sum "Si O2"
_cell_formula_units_Z 48
_cell_length_a 8.238927
_cell_length_b 8.238927
_cell_length_c 34.412976
_cell_angle_alpha 90.000000
_cell_angle_beta 90.000000
_cell_angle_gamma 90.000000
_cell_volume 2335.949993
_symmetry_space_group_name_H-M "P 41 2 2"
_symmetry_group_IT_number 91
_symmetry_cell_setting 'tetragonal'
loop_
_space_group_symop_operation_xyz
x,y,z
-y,x,1/4+z
-x,-y,1/2+z
y,-x,3/4+z
x,-y,1/2-z
-x,y,-z
y,x,3/4-z
-y,-x,1/4-z
loop_
_atom_site_type_symbol
_atom_site_label
_atom_site_fract_x
_atom_site_fract_y
_atom_site_fract_z
Si Si1 0.710832 0.680598 0.765421
Si Si2 0.496517 0.378558 0.333742
Si Si3 0.081632 0.285489 0.731838
Si Si4 0.919471 0.711219 0.568726
Si Si5 0.196072 0.196072 0.875000
Si Si6 0.232270 0.415704 0.803815
Si Si7 0.000000 0.486497 0.500000
O O1 0.669712 0.500000 0.750000
O O2 0.666901 0.676947 0.811486
O O3 0.895392 0.728327 0.756317
O O4 0.611834 0.830412 0.746718
O O5 0.454079 0.454079 0.375000
O O6 0.620422 0.229578 0.339915
O O7 0.586664 0.509237 0.305450
O O8 0.132478 0.133384 0.706119
O O9 0.206493 0.285220 0.769008
O O10 0.099379 0.447614 0.706161
O O11 0.030537 0.788433 0.601644
O O12 0.009635 0.588090 0.539869
O O13 0.196341 0.347300 0.846114
#
# Coordination Sequence:
#
# PCOD8304973 Si02
#       7
#     8   8   8   8   4   8   4
#     4  11  24  41  73 101 133 179 227 282 344 409
#     4  10  23  41  64  96 132 173 220 280 342 399
#     4  10  22  45  64  96 136 175 224 276 338 412
#     4  10  24  42  65  93 137 174 220 278 336 408
#     4  12  24  38  64 100 124 180 226 270 348 392
#     4  10  21  39  67  94 129 169 229 273 320 413
#     4  10  24  44  66 106 134 176 232 286 334 408
#
# _framework density 20.548383000000001
#
# number of rings (size 3 to 8) (size 9 to 14) (size 15 to 20)
#    0.000    1.667    2.500    1.000   11.667    2.000 
#    1.500    3.333    0.000    0.000    0.000    0.000 
#    0.000    0.000    0.000    0.000    0.000    0.000 
#
# Total GULP energy -594897.916899 kJ/mol
# GULP energy per Si atom -12393.706602 kJ/mol
# Density = 2.050161 g / cm^3
# Si number density = 20.548383 Si / 1000 Ang^3
#
#
#
# Elastic Constant Matrix: (Units=GPa)
#
#
# Indices 1 2 3 4 5 6 
#
# 1 108.3479 55.4885 61.8286 0.0000 0.0000 0.0000
# 2 55.4885 108.3479 61.8286 0.0000 0.0000 0.0000
# 3 61.8286 61.8286 137.0691 0.0000 0.0000 0.0000
# 4 0.0000 0.0000 0.0000 37.5942 0.0000 0.0000
# 5 0.0000 0.0000 0.0000 0.0000 37.5942 0.0000
# 6 0.0000 0.0000 0.0000 0.0000 0.0000 24.4486
#
#
#
# Elastic Compliance Matrix: (Units=1/GPa)
#
#
# Indices 1 2 3 4 5 6 
#
# 1 0.014086 -0.004832 -0.004174 0.000000 0.000000 0.000000
# 2 -0.004832 0.014086 -0.004174 0.000000 0.000000 0.000000
# 3 -0.004174 -0.004174 0.011062 0.000000 0.000000 0.000000
# 4 0.000000 0.000000 0.000000 0.026600 0.000000 0.000000
# 5 0.000000 0.000000 0.000000 0.000000 0.026600 0.000000
# 6 0.000000 0.000000 0.000000 0.000000 0.000000 0.040902
#
#
# Mechanical properties :
#
#
# Convention : Reuss Voigt Hill
#
# Bulk Modulus (GPa) = 77.68459 79.11738 78.40099
# Shear Modulus (GPa) = 30.49001 31.56867 31.02934
#
# Velocity S-wave (km/s) = 3.85621 3.92383 3.89017
# Velocity P-wave (km/s) = 7.59703 7.68864 7.64297
#
# Compressibility (1/GPa) = 0.01287257
#
# Stress axis : x y z
#
# Youngs Moduli (GPa) = 70.99141 70.99141 90.40330
#
# Poissons Ratio (x) = 0.34302 0.37738
# Poissons Ratio (y) = 0.34302 0.37738
# Poissons Ratio (z) = 0.29635 0.29635
#
# Static dielectric constant tensor:
#      x y z
#    x 3.740230 0.000000 0.000000 
#    y 0.000000 3.740230 0.000000 
#    z 0.000000 0.000000 3.676870 
# 
# 
# High freq. dielectric constant tensor:
#      x y z
#    x 1.806640 0.000000 0.000000 
#    y 0.000000 1.806640 0.000000 
#    z 0.000000 0.000000 1.797540 
# 
# From -- ./inp_files/22288.got.cif
#   From: 2010.03.12/outbox.cif.g09.slc.cpg/sg91_12_cif.got.tgz:22288.got - 2010.04.08 20:27:58.
