data_PCOD8304446
_publ_section_title
;
Structure prediction by ZEFSAII (Michael W. Deem and Ramdas Pophale) SiO2 
 PCOD8304446
Probable space group: I 41/A
;
_chemical_formula_sum "Si O2"
_cell_formula_units_Z 96
_cell_length_a 14.898344
_cell_length_b 14.898344
_cell_length_c 19.113082
_cell_angle_alpha 90.000000
_cell_angle_beta 90.000000
_cell_angle_gamma 90.000000
_cell_volume 4242.352180
_symmetry_space_group_name_H-M "I 41/A"
_symmetry_group_IT_number 88
_space_group.IT_coordinate_system_code '2'
_symmetry_cell_setting 'tetragonal'
loop_
_space_group_symop_operation_xyz
x,y,z
3/4-y,1/4+x,1/4+z
-x,1/2-y,z
1/4+y,1/4-x,1/4+z
-x,-y,-z
1/4+y,3/4-x,3/4-z
x,1/2+y,-z
3/4-y,3/4+x,3/4-z
1/2+x,1/2+y,1/2+z
1/4-y,3/4+x,3/4+z
1/2-x,-y,1/2+z
3/4+y,3/4-x,3/4+z
1/2-x,1/2-y,1/2-z
3/4+y,1/4-x,1/4-z
1/2+x,y,1/2-z
1/4-y,1/4+x,1/4-z
loop_
_atom_site_type_symbol
_atom_site_label
_atom_site_fract_x
_atom_site_fract_y
_atom_site_fract_z
Si Si1 0.926935 0.317495 0.897409
Si Si2 0.259182 0.064018 0.390686
Si Si3 0.800291 0.765688 0.540226
Si Si4 0.654238 0.947588 0.752962
Si Si5 0.252906 0.230105 0.830487
Si Si6 0.684564 0.619302 0.086802
O O1 0.970337 0.372437 0.834381
O O2 0.898061 0.382936 0.960995
O O3 0.844324 0.260855 0.865847
O O4 0.000000 0.250000 0.928994
O O5 0.262726 0.169494 0.411731
O O6 0.335718 0.055635 0.331180
O O7 0.265823 0.993804 0.457040
O O8 0.167546 0.036366 0.349679
O O9 0.753906 0.689429 0.491457
O O10 0.839494 0.842171 0.489094
O O11 0.250000 0.250000 0.750000
O O12 0.327117 0.299381 0.859086
O O13 0.284874 0.129918 0.850280
#
# Coordination Sequence:
#
# PCOD8304446 Si02
#       6
#    16  16  16  16  16  16
#     4  12  26  48  72 109 157 195 255 329 385 461
#     4  12  25  48  80 106 152 203 261 325 389 470
#     4  12  26  45  76 109 146 211 256 313 399 466
#     4  12  25  51  76 110 155 201 261 325 394 469
#     4  12  27  42  70 106 151 199 250 319 382 467
#     4  12  23  44  70 105 151 199 256 308 390 464
#
# _framework density 22.628955000000001
#
# number of rings (size 3 to 8) (size 9 to 14) (size 15 to 20)
#    0.000    0.000    6.667    3.000    4.667    1.000 
#    3.000    0.000    0.000    0.000    0.000    0.000 
#    0.000    0.000    0.000    0.000    0.000    0.000 
#
# Total GULP energy -594703.283622 kJ/mol
# GULP energy per Si atom -12389.651742 kJ/mol
# Density = 2.257745 g / cm^3
# Si number density = 22.628955 Si / 1000 Ang^3
#
#
#
# Elastic Constant Matrix: (Units=GPa)
#
#
# Indices 1 2 3 4 5 6 
#
# 1 101.8640 36.4232 30.9480 0.0000 0.0000 -3.3385
# 2 36.4232 101.8640 30.9480 0.0000 0.0000 3.3385
# 3 30.9480 30.9480 94.7136 0.0000 0.0000 0.0000
# 4 0.0000 0.0000 0.0000 36.4626 0.0000 0.0000
# 5 0.0000 0.0000 0.0000 0.0000 36.4626 0.0000
# 6 -3.3385 3.3385 0.0000 0.0000 0.0000 41.6863
#
#
#
# Elastic Compliance Matrix: (Units=1/GPa)
#
#
# Indices 1 2 3 4 5 6 
#
# 1 0.011938 -0.003468 -0.002768 0.000000 0.000000 0.001234
# 2 -0.003468 0.011938 -0.002768 0.000000 0.000000 -0.001234
# 3 -0.002768 -0.002768 0.012367 0.000000 0.000000 0.000000
# 4 0.000000 0.000000 0.000000 0.027425 0.000000 0.000000
# 5 0.000000 0.000000 0.000000 0.000000 0.027425 0.000000
# 6 0.001234 -0.001234 0.000000 0.000000 0.000000 0.024186
#
#
# Mechanical properties :
#
#
# Convention : Reuss Voigt Hill
#
# Bulk Modulus (GPa) = 54.83519 55.00890 54.92204
# Shear Modulus (GPa) = 35.87652 36.26381 36.07016
#
# Velocity S-wave (km/s) = 3.98606 4.00752 3.99680
# Velocity P-wave (km/s) = 6.74313 6.76575 6.75445
#
# Compressibility (1/GPa) = 0.01823647
#
# Stress axis : x y z
#
# Youngs Moduli (GPa) = 83.76270 83.76270 80.86151
#
# Poissons Ratio (x) = 0.29052 0.22380
# Poissons Ratio (y) = 0.29052 0.22380
# Poissons Ratio (z) = 0.23182 0.23182
#
# Static dielectric constant tensor:
#      x y z
#    x 3.504700 0.000000 0.000000 
#    y 0.000000 3.504700 0.000000 
#    z 0.000000 0.000000 4.222460 
# 
# 
# High freq. dielectric constant tensor:
#      x y z
#    x 1.885180 0.000000 0.000000 
#    y 0.000000 1.885180 0.000000 
#    z 0.000000 0.000000 1.909890 
# 
# From -- ./inp_files/4684.got.cif
#   From: 2010.03.12/outbox.cif.g09.slc.cpg/sg88_3_cif.got.tgz:4684.got - 2010.04.08 20:20:55.
