data_PCOD8304218
_publ_section_title
;
Structure prediction by ZEFSAII (Michael W. Deem and Ramdas Pophale) SiO2 
 PCOD8304218
Probable space group: I 41/A
;
_chemical_formula_sum "Si O2"
_cell_formula_units_Z 96
_cell_length_a 21.233868
_cell_length_b 21.233868
_cell_length_c 9.979719
_cell_angle_alpha 90.000000
_cell_angle_beta 90.000000
_cell_angle_gamma 90.000000
_cell_volume 4499.627263
_symmetry_space_group_name_H-M "I 41/A"
_symmetry_group_IT_number 88
_space_group.IT_coordinate_system_code '2'
_symmetry_cell_setting 'tetragonal'
loop_
_space_group_symop_operation_xyz
x,y,z
3/4-y,1/4+x,1/4+z
-x,1/2-y,z
1/4+y,1/4-x,1/4+z
-x,-y,-z
1/4+y,3/4-x,3/4-z
x,1/2+y,-z
3/4-y,3/4+x,3/4-z
1/2+x,1/2+y,1/2+z
1/4-y,3/4+x,3/4+z
1/2-x,-y,1/2+z
3/4+y,3/4-x,3/4+z
1/2-x,1/2-y,1/2-z
3/4+y,1/4-x,1/4-z
1/2+x,y,1/2-z
1/4-y,1/4+x,1/4-z
loop_
_atom_site_type_symbol
_atom_site_label
_atom_site_fract_x
_atom_site_fract_y
_atom_site_fract_z
Si Si1 0.652231 0.837266 0.699217
Si Si2 0.162307 0.207696 0.083974
Si Si3 0.845561 0.840698 0.612277
Si Si4 0.586065 0.299562 0.841624
Si Si5 0.963735 0.949728 0.223640
Si Si6 0.752134 0.056876 0.122489
O O1 0.582178 0.859296 0.744736
O O2 0.646731 0.781548 0.589134
O O3 0.688363 0.811626 0.825623
O O4 0.690254 0.894673 0.634609
O O5 0.158459 0.176833 0.232247
O O6 0.227360 0.196294 0.002069
O O7 0.917372 0.841262 0.554528
O O8 0.806964 0.789040 0.527103
O O9 0.812553 0.907389 0.585192
O O10 0.577271 0.224161 0.825983
O O11 0.650831 0.316163 0.920735
O O12 0.743825 0.017705 0.258649
#
# Coordination Sequence:
#
# PCOD8304218 Si02
#       6
#    16  16  16  16  16  16
#     4  11  21  38  62  91 120 161 208 268 311 376
#     4  11  21  37  65  86 124 163 211 255 323 371
#     4  10  19  38  63  81 124 170 200 255 326 377
#     4   9  20  37  61  94 127 163 210 265 323 385
#     4  10  19  38  62  88 121 168 208 251 325 384
#     4  12  24  41  64  93 127 170 218 265 320 385
#
# _framework density 21.335099
#
# number of rings (size 3 to 8) (size 9 to 14) (size 15 to 20)
#    0.000    1.500    5.000    1.000    0.000    4.333 
#    0.000    3.333    0.000    5.000    0.000    0.000 
#    0.000    0.000    0.000    0.000    0.000    0.000 
#
# Total GULP energy -594905.358716 kJ/mol
# GULP energy per Si atom -12393.861640 kJ/mol
# Density = 2.128654 g / cm^3
# Si number density = 21.335099 Si / 1000 Ang^3
#
#
#
# Elastic Constant Matrix: (Units=GPa)
#
#
# Indices 1 2 3 4 5 6 
#
# 1 99.6231 54.2018 27.4387 0.0000 0.0000 -0.6782
# 2 54.2018 99.6231 27.4387 0.0000 0.0000 0.6782
# 3 27.4387 27.4387 59.0293 0.0000 0.0000 0.0000
# 4 0.0000 0.0000 0.0000 28.2873 0.0000 0.0000
# 5 0.0000 0.0000 0.0000 0.0000 28.2873 0.0000
# 6 -0.6782 0.6782 0.0000 0.0000 0.0000 33.2641
#
#
#
# Elastic Compliance Matrix: (Units=1/GPa)
#
#
# Indices 1 2 3 4 5 6 
#
# 1 0.014911 -0.007118 -0.003623 0.000000 0.000000 0.000449
# 2 -0.007118 0.014911 -0.003623 0.000000 0.000000 -0.000449
# 3 -0.003623 -0.003623 0.020308 0.000000 0.000000 0.000000
# 4 0.000000 0.000000 0.000000 0.035352 0.000000 0.000000
# 5 0.000000 0.000000 0.000000 0.000000 0.035352 0.000000
# 6 0.000449 -0.000449 0.000000 0.000000 0.000000 0.030081
#
#
# Mechanical properties :
#
#
# Convention : Reuss Voigt Hill
#
# Bulk Modulus (GPa) = 46.71854 52.93712 49.82783
# Shear Modulus (GPa) = 26.76995 27.91415 27.34205
#
# Velocity S-wave (km/s) = 3.54607 3.62106 3.58376
# Velocity P-wave (km/s) = 6.22183 6.50760 6.36632
#
# Compressibility (1/GPa) = 0.02140478
#
# Stress axis : x y z
#
# Youngs Moduli (GPa) = 67.06284 67.06284 49.24049
#
# Poissons Ratio (x) = 0.47736 0.17838
# Poissons Ratio (y) = 0.47736 0.17838
# Poissons Ratio (z) = 0.24294 0.24294
#
# Static dielectric constant tensor:
#      x y z
#    x 4.102730 0.000000 0.000000 
#    y 0.000000 4.102730 0.000000 
#    z 0.000000 0.000000 3.512400 
# 
# 
# High freq. dielectric constant tensor:
#      x y z
#    x 1.842800 0.000000 0.000000 
#    y 0.000000 1.842800 0.000000 
#    z 0.000000 0.000000 1.801640 
# 
# From -- ./inp_files/2636.got.cif
#   From: 2010.03.12/outbox.cif.g09.slc.cpg/sg88_2_cif.got.tgz:2636.got - 2010.04.08 20:20:55.
