data_PCOD8304524
_publ_section_title
;
Structure prediction by ZEFSAII (Michael W. Deem and Ramdas Pophale) SiO2 
 PCOD8304524
Probable space group: P 4 2 2
;
_chemical_formula_sum "Si O2"
_cell_formula_units_Z 42
_cell_length_a 9.202280
_cell_length_b 9.202280
_cell_length_c 26.311346
_cell_angle_alpha 90.000000
_cell_angle_beta 90.000000
_cell_angle_gamma 90.000000
_cell_volume 2228.096276
_symmetry_space_group_name_H-M "P 4 2 2"
_symmetry_group_IT_number 89
_symmetry_cell_setting 'tetragonal'
loop_
_space_group_symop_operation_xyz
x,y,z
-y,x,z
-x,-y,z
y,-x,z
x,-y,-z
-x,y,-z
y,x,-z
-y,-x,-z
loop_
_atom_site_type_symbol
_atom_site_label
_atom_site_fract_x
_atom_site_fract_y
_atom_site_fract_z
Si Si1 0.000000 0.500000 0.000000
Si Si2 0.726472 0.425564 0.943434
Si Si3 0.804400 0.866021 0.640110
Si Si4 0.318777 0.654559 0.555971
Si Si5 0.209669 0.886472 0.246066
Si Si6 0.403785 0.711334 0.175844
O O1 0.889233 0.601252 0.033715
O O2 0.683203 0.593095 0.959933
O O3 0.741932 0.401142 0.883851
O O4 0.708822 0.789553 0.598378
O O5 0.742212 0.841426 0.696934
O O6 0.963035 0.801602 0.631972
O O7 0.299651 0.483841 0.563040
O O8 0.281124 0.718877 0.500000
O O9 0.334589 0.843293 0.206574
O O10 0.057247 0.807129 0.236747
O O11 0.310691 0.570286 0.191396
#
# Coordination Sequence:
#
# PCOD8304524 Si02
#       6
#     2   8   8   8   8   8
#     4  12  20  30  60  86 100 138 184 214 256 312
#     4   9  20  38  56  78 110 143 177 218 261 309
#     4   9  19  35  52  73 103 137 173 213 260 316
#     4   9  19  35  52  72 101 135 171 215 265 312
#     4   9  19  35  53  75 106 140 172 213 266 318
#     4   9  19  35  54  77 105 137 176 219 259 306
#
# _framework density 18.850171
#
# number of rings (size 3 to 8) (size 9 to 14) (size 15 to 20)
#    0.000    2.857    0.000    3.429    0.000    7.619 
#    0.000    8.571    0.000    4.571    0.000    0.000 
#    0.000    0.000    0.000    0.000    0.000    0.000 
#
# Total GULP energy -520318.044266 kJ/mol
# GULP energy per Si atom -12388.524863 kJ/mol
# Density = 1.880727 g / cm^3
# Si number density = 18.850171 Si / 1000 Ang^3
#
#
#
# Elastic Constant Matrix: (Units=GPa)
#
#
# Indices 1 2 3 4 5 6 
#
# 1 67.8733 29.6629 51.2128 0.0000 0.0000 0.0000
# 2 29.6629 67.8733 51.2128 0.0000 0.0000 0.0000
# 3 51.2128 51.2128 92.5496 0.0000 0.0000 0.0000
# 4 0.0000 0.0000 0.0000 38.5894 0.0000 0.0000
# 5 0.0000 0.0000 0.0000 0.0000 38.5894 0.0000
# 6 0.0000 0.0000 0.0000 0.0000 0.0000 36.3371
#
#
#
# Elastic Compliance Matrix: (Units=1/GPa)
#
#
# Indices 1 2 3 4 5 6 
#
# 1 0.025323 -0.000848 -0.013543 0.000000 0.000000 0.000000
# 2 -0.000848 0.025323 -0.013543 0.000000 0.000000 0.000000
# 3 -0.013543 -0.013543 0.025793 0.000000 0.000000 0.000000
# 4 0.000000 0.000000 0.000000 0.025914 0.000000 0.000000
# 5 0.000000 0.000000 0.000000 0.000000 0.025914 0.000000
# 6 0.000000 0.000000 0.000000 0.000000 0.000000 0.027520
#
#
# Mechanical properties :
#
#
# Convention : Reuss Voigt Hill
#
# Bulk Modulus (GPa) = 48.61442 54.71923 51.66683
# Shear Modulus (GPa) = 22.88199 29.11703 25.99951
#
# Velocity S-wave (km/s) = 3.48787 3.93447 3.71788
# Velocity P-wave (km/s) = 6.48585 7.05207 6.77487
#
# Compressibility (1/GPa) = 0.02057003
#
# Stress axis : x y z
#
# Youngs Moduli (GPa) = 39.49018 39.49005 38.76956
#
# Poissons Ratio (x) = 0.03349 0.52506
# Poissons Ratio (y) = 0.03349 0.52507
# Poissons Ratio (z) = 0.53482 0.53482
#
# Static dielectric constant tensor:
#      x y z
#    x 3.333510 0.000000 0.000000 
#    y 0.000000 3.333510 0.000000 
#    z 0.000000 0.000000 3.603260 
# 
# 
# High freq. dielectric constant tensor:
#      x y z
#    x 1.718660 0.000000 0.000000 
#    y 0.000000 1.718660 0.000000 
#    z 0.000000 0.000000 1.751710 
# 
# From -- ./inp_files/2849.got.cif
#   From: 2010.03.12/outbox.cif.g09.slc.cpg/sg89_2_cif.got.tgz:2849.got - 2010.04.08 20:24:03.
