data_PCOD8304642
_publ_section_title
;
Structure prediction by ZEFSAII (Michael W. Deem and Ramdas Pophale) SiO2 
 PCOD8304642
Probable space group: P 4 21 2
;
_chemical_formula_sum "Si O2"
_cell_formula_units_Z 44
_cell_length_a 8.100397
_cell_length_b 8.100397
_cell_length_c 30.134754
_cell_angle_alpha 90.000000
_cell_angle_beta 90.000000
_cell_angle_gamma 90.000000
_cell_volume 1977.335023
_symmetry_space_group_name_H-M "P 4 21 2"
_symmetry_group_IT_number 90
_symmetry_cell_setting 'tetragonal'
loop_
_space_group_symop_operation_xyz
x,y,z
1/2-y,1/2+x,z
-x,-y,z
1/2+y,1/2-x,z
1/2+x,1/2-y,-z
1/2-x,1/2+y,-z
y,x,-z
-y,-x,-z
loop_
_atom_site_type_symbol
_atom_site_label
_atom_site_fract_x
_atom_site_fract_y
_atom_site_fract_z
Si Si1 0.755904 0.909308 0.281229
Si Si2 0.500000 0.500000 0.884967
Si Si3 0.741664 0.407421 0.623104
Si Si4 0.759675 0.914724 0.185984
Si Si5 0.240269 0.082311 0.540818
Si Si6 0.916996 0.238090 0.041829
O O1 0.597973 0.794866 0.281090
O O2 0.847187 0.876219 0.328390
O O3 0.850263 0.880141 0.234179
O O4 0.386808 0.616913 0.853816
O O5 0.389849 0.376484 0.914965
O O6 0.793528 0.597153 0.617571
O O7 0.608118 0.359751 0.586339
O O8 0.604809 0.795061 0.181638
O O9 0.394580 0.204731 0.538282
O O10 0.119152 0.119152 0.500000
O O11 0.794489 0.392837 0.041488
O O12 0.877500 0.122501 0.000000
#
# Coordination Sequence:
#
# PCOD8304642 Si02
#       6
#     8   4   8   8   8   8
#     4   7  12  27  50  75 104 138 178 222 265 313
#     4  12  21  34  56  88 120 150 191 240 294 348
#     4   9  17  32  56  82 106 136 176 222 269 318
#     4   9  18  33  53  78 111 150 189 231 278 333
#     4  11  24  39  54  76 106 137 172 217 269 327
#     4  11  24  42  63  87 119 158 201 250 302 358
#
# _framework density 22.252174
#
# number of rings (size 3 to 8) (size 9 to 14) (size 15 to 20)
#    0.000    2.364    0.000    5.727    0.000    4.000 
#    0.000    7.273    0.000    0.000    0.000    2.545 
#    0.000    0.000    0.000    0.000    0.000    0.000 
#
# Total GULP energy -545152.812882 kJ/mol
# GULP energy per Si atom -12389.836656 kJ/mol
# Density = 2.220153 g / cm^3
# Si number density = 22.252174 Si / 1000 Ang^3
#
#
#
# Elastic Constant Matrix: (Units=GPa)
#
#
# Indices 1 2 3 4 5 6 
#
# 1 54.0211 9.1368 33.1506 0.0000 0.0000 0.0000
# 2 9.1368 54.0214 33.1507 0.0000 0.0000 0.0000
# 3 33.1506 33.1507 211.7673 0.0000 0.0000 0.0000
# 4 0.0000 0.0000 0.0000 35.1875 0.0000 0.0000
# 5 0.0000 0.0000 0.0000 0.0000 35.1880 0.0000
# 6 0.0000 0.0000 0.0000 0.0000 0.0000 26.8518
#
#
#
# Elastic Compliance Matrix: (Units=1/GPa)
#
#
# Indices 1 2 3 4 5 6 
#
# 1 0.020613 -0.001666 -0.002966 0.000000 0.000000 0.000000
# 2 -0.001666 0.020613 -0.002966 0.000000 0.000000 0.000000
# 3 -0.002966 -0.002966 0.005651 0.000000 0.000000 0.000000
# 4 0.000000 0.000000 0.000000 0.028419 0.000000 0.000000
# 5 0.000000 0.000000 0.000000 0.000000 0.028419 0.000000
# 6 0.000000 0.000000 0.000000 0.000000 0.000000 0.037241
#
#
# Mechanical properties :
#
#
# Convention : Reuss Voigt Hill
#
# Bulk Modulus (GPa) = 31.56507 52.29844 41.93176
# Shear Modulus (GPa) = 29.99162 35.73691 32.86426
#
# Velocity S-wave (km/s) = 3.67523 4.01184 3.84722
# Velocity P-wave (km/s) = 5.67677 6.70920 6.21446
#
# Compressibility (1/GPa) = 0.03168059
#
# Stress axis : x y z
#
# Youngs Moduli (GPa) = 48.51254 48.51283 176.96680
#
# Poissons Ratio (x) = 0.08083 0.52489
# Poissons Ratio (y) = 0.08083 0.52488
# Poissons Ratio (z) = 0.14389 0.14389
#
# Static dielectric constant tensor:
#      x y z
#    x 3.672150 0.000000 0.000000 
#    y 0.000000 3.672150 0.000000 
#    z 0.000000 0.000000 4.624020 
# 
# 
# High freq. dielectric constant tensor:
#      x y z
#    x 1.851130 0.000000 0.000000 
#    y 0.000000 1.851130 0.000000 
#    z 0.000000 0.000000 1.905330 
# 
# From -- ./inp_files/3012.got.cif
#   From: 2010.03.12/outbox.cif.g09.slc.cpg/sg90_2_cif.got.tgz:3012.got - 2010.04.08 20:26:03.
