data_PCOD8304757
_publ_section_title
;
Structure prediction by ZEFSAII (Michael W. Deem and Ramdas Pophale) SiO2 
 PCOD8304757
Probable space group: P 41 2 2
;
_chemical_formula_sum "Si O2"
_cell_formula_units_Z 44
_cell_length_a 15.540625
_cell_length_b 15.540625
_cell_length_c 10.302979
_cell_angle_alpha 90.000000
_cell_angle_beta 90.000000
_cell_angle_gamma 90.000000
_cell_volume 2488.283023
_symmetry_space_group_name_H-M "P 41 2 2"
_symmetry_group_IT_number 91
_symmetry_cell_setting 'tetragonal'
loop_
_space_group_symop_operation_xyz
x,y,z
-y,x,1/4+z
-x,-y,1/2+z
y,-x,3/4+z
x,-y,1/2-z
-x,y,-z
y,x,3/4-z
-y,-x,1/4-z
loop_
_atom_site_type_symbol
_atom_site_label
_atom_site_fract_x
_atom_site_fract_y
_atom_site_fract_z
Si Si1 0.600075 0.681708 0.000126
Si Si2 0.748251 0.182674 0.492810
Si Si3 0.268574 0.819062 0.503623
Si Si4 0.325809 0.598986 0.753311
Si Si5 0.247605 0.004811 0.896873
Si Si6 0.951880 0.951880 0.375000
O O1 0.656427 0.768715 0.008941
O O2 0.615190 0.622237 0.124640
O O3 0.500000 0.708364 0.000000
O O4 0.626076 0.626076 0.875000
O O5 0.799024 0.200977 0.625000
O O6 0.809521 0.211431 0.375101
O O7 0.731299 0.081455 0.476435
O O8 0.213531 0.786470 0.625000
O O9 0.355716 0.766260 0.487190
O O10 0.295056 0.918115 0.526181
O O11 0.304120 0.500000 0.750000
O O12 0.376326 0.623675 0.625000
O O13 0.283743 0.000000 0.750000
O O14 0.147685 0.028443 0.894549
O O15 0.000000 0.989276 0.500000
#
# Coordination Sequence:
#
# PCOD8304757 Si02
#       6
#     8   8   8   8   8   4
#     4  10  21  38  58  82 116 148 181 227 283 346
#     4  10  22  36  54  82 112 150 186 226 287 330
#     4  10  18  36  54  75 109 143 182 229 269 328
#     4  10  21  34  56  85 110 139 179 227 281 332
#     4  11  19  35  55  76 105 149 189 224 276 329
#     4  10  20  30  46  74 104 128 174 224 264 306
#
# _framework density 17.682874999999999
#
# number of rings (size 3 to 8) (size 9 to 14) (size 15 to 20)
#    0.000    1.818    2.727    2.182    1.273    2.909 
#    0.000    0.909    0.000    0.000    0.000    0.000 
#    0.000    0.000    0.000    0.000    0.000    0.000 
#
# Total GULP energy -545687.412123 kJ/mol
# GULP energy per Si atom -12401.986639 kJ/mol
# Density = 1.764263 g / cm^3
# Si number density = 17.682875 Si / 1000 Ang^3
#
#
#
# Elastic Constant Matrix: (Units=GPa)
#
#
# Indices 1 2 3 4 5 6 
#
# 1 106.1498 40.1417 32.6692 0.0000 0.0000 0.0000
# 2 40.1417 106.1497 32.6698 0.0000 0.0000 0.0000
# 3 32.6692 32.6698 124.6926 0.0000 0.0000 0.0000
# 4 0.0000 0.0000 0.0000 20.3516 0.0000 0.0000
# 5 0.0000 0.0000 0.0000 0.0000 20.3500 0.0000
# 6 0.0000 0.0000 0.0000 0.0000 0.0000 13.7291
#
#
#
# Elastic Compliance Matrix: (Units=1/GPa)
#
#
# Indices 1 2 3 4 5 6 
#
# 1 0.011446 -0.003704 -0.002028 0.000000 0.000000 0.000000
# 2 -0.003704 0.011446 -0.002028 0.000000 0.000000 0.000000
# 3 -0.002028 -0.002028 0.009083 0.000000 0.000000 0.000000
# 4 0.000000 0.000000 0.000000 0.049136 0.000000 0.000000
# 5 0.000000 0.000000 0.000000 0.000000 0.049140 0.000000
# 6 0.000000 0.000000 0.000000 0.000000 0.000000 0.072838
#
#
# Mechanical properties :
#
#
# Convention : Reuss Voigt Hill
#
# Bulk Modulus (GPa) = 60.78092 60.88370 60.83231
# Shear Modulus (GPa) = 22.31213 26.32024 24.31618
#
# Velocity S-wave (km/s) = 3.55603 3.86224 3.71229
# Velocity P-wave (km/s) = 7.16295 7.37529 7.26989
#
# Compressibility (1/GPa) = 0.01645253
#
# Stress axis : x y z
#
# Youngs Moduli (GPa) = 87.36982 87.36942 110.10123
#
# Poissons Ratio (x) = 0.32362 0.22331
# Poissons Ratio (y) = 0.32362 0.22332
# Poissons Ratio (z) = 0.17721 0.17721
#
# Static dielectric constant tensor:
#      x y z
#    x 3.220770 0.000000 0.000000 
#    y 0.000000 3.220770 0.000000 
#    z 0.000000 0.000000 3.593070 
# 
# 
# High freq. dielectric constant tensor:
#      x y z
#    x 1.673110 0.000000 0.000000 
#    y 0.000000 1.673110 0.000000 
#    z 0.000000 0.000000 1.703350 
# 
# From -- ./inp_files/3739.got.cif
#   From: 2010.03.12/outbox.cif.g09.slc.cpg/sg91_2_cif.got.tgz:3739.got - 2010.04.08 20:27:58.
