data_PCOD8304622
_publ_section_title
;
Structure prediction by ZEFSAII (Michael W. Deem and Ramdas Pophale) SiO2 
 PCOD8304622
Probable space group: P 4 21 2
;
_chemical_formula_sum "Si O2"
_cell_formula_units_Z 48
_cell_length_a 9.717276
_cell_length_b 9.717276
_cell_length_c 27.783789
_cell_angle_alpha 90.000000
_cell_angle_beta 90.000000
_cell_angle_gamma 90.000000
_cell_volume 2623.496858
_symmetry_space_group_name_H-M "P 4 21 2"
_symmetry_group_IT_number 90
_symmetry_cell_setting 'tetragonal'
loop_
_space_group_symop_operation_xyz
x,y,z
1/2-y,1/2+x,z
-x,-y,z
1/2+y,1/2-x,z
1/2+x,1/2-y,-z
1/2-x,1/2+y,-z
y,x,-z
-y,-x,-z
loop_
_atom_site_type_symbol
_atom_site_label
_atom_site_fract_x
_atom_site_fract_y
_atom_site_fract_z
Si Si1 0.686159 0.877840 0.529849
Si Si2 0.877736 0.686829 0.357927
Si Si3 0.151055 0.158556 0.906932
Si Si4 0.614252 0.194107 0.186668
Si Si5 0.636519 0.639790 0.055306
Si Si6 0.691403 0.878785 0.295796
O O1 0.538873 0.812584 0.516417
O O2 0.805587 0.805587 0.500000
O O3 0.716471 0.857763 0.585936
O O4 0.812389 0.539179 0.344444
O O5 0.803510 0.809023 0.329731
O O6 0.176461 0.195499 0.850779
O O7 0.259117 0.235660 0.940738
O O8 0.999560 0.209104 0.922527
O O9 0.171060 0.997241 0.914743
O O10 0.451890 0.185059 0.177654
O O11 0.646588 0.240449 0.241038
O O12 0.605293 0.605293 0.000000
O O13 0.541845 0.813368 0.305855
#
# Coordination Sequence:
#
# PCOD8304622 Si02
#       6
#     8   8   8   8   8   8
#     4   9  19  35  54  77 110 149 188 230 275 327
#     4   9  19  37  55  77 111 151 187 222 275 337
#     4  11  21  38  57  80 111 142 178 221 266 322
#     4   9  17  35  58  80 103 140 184 218 263 323
#     4  11  23  38  57  82 110 143 181 221 267 321
#     4   9  19  35  56  81 109 136 180 235 271 317
#
# _framework density 18.296191
#
# number of rings (size 3 to 8) (size 9 to 14) (size 15 to 20)
#    0.000    2.333    1.667    4.000    0.000    3.000 
#    3.000    6.667    0.000    0.000    0.000    0.000 
#    0.000    0.000    0.000    0.000    0.000    0.000 
#
# Total GULP energy -595195.819443 kJ/mol
# GULP energy per Si atom -12399.912905 kJ/mol
# Density = 1.825455 g / cm^3
# Si number density = 18.296191 Si / 1000 Ang^3
#
#
#
# Elastic Constant Matrix: (Units=GPa)
#
#
# Indices 1 2 3 4 5 6 
#
# 1 55.9932 50.7188 34.7485 0.0000 0.0000 0.0000
# 2 50.7188 55.9932 34.7485 0.0000 0.0000 0.0000
# 3 34.7485 34.7485 80.5886 0.0000 0.0000 0.0000
# 4 0.0000 0.0000 0.0000 31.1743 0.0000 0.0000
# 5 0.0000 0.0000 0.0000 0.0000 31.1743 0.0000
# 6 0.0000 0.0000 0.0000 0.0000 0.0000 36.8800
#
#
#
# Elastic Compliance Matrix: (Units=1/GPa)
#
#
# Indices 1 2 3 4 5 6 
#
# 1 0.101312 -0.088282 -0.005618 0.000000 0.000000 0.000000
# 2 -0.088282 0.101312 -0.005618 0.000000 0.000000 0.000000
# 3 -0.005618 -0.005618 0.017254 0.000000 0.000000 0.000000
# 4 0.000000 0.000000 0.000000 0.032078 0.000000 0.000000
# 5 0.000000 0.000000 0.000000 0.000000 0.032078 0.000000
# 6 0.000000 0.000000 0.000000 0.000000 0.000000 0.027115
#
#
# Mechanical properties :
#
#
# Convention : Reuss Voigt Hill
#
# Bulk Modulus (GPa) = 47.98360 48.11186 48.04773
# Shear Modulus (GPa) = 9.66870 24.66965 17.16917
#
# Velocity S-wave (km/s) = 2.30131 3.67597 3.06666
# Velocity P-wave (km/s) = 5.77445 6.66110 6.23356
#
# Compressibility (1/GPa) = 0.02084045
#
# Stress axis : x y z
#
# Youngs Moduli (GPa) = 9.87049 9.87049 57.95832
#
# Poissons Ratio (x) = 0.87139 0.32563
# Poissons Ratio (y) = 0.87139 0.32563
# Poissons Ratio (z) = 0.05546 0.05546
#
# Static dielectric constant tensor:
#      x y z
#    x 3.216170 0.000000 0.000000 
#    y 0.000000 3.216170 0.000000 
#    z 0.000000 0.000000 3.320320 
# 
# 
# High freq. dielectric constant tensor:
#      x y z
#    x 1.701750 0.000000 0.000000 
#    y 0.000000 1.701750 0.000000 
#    z 0.000000 0.000000 1.712990 
# 
# From -- ./inp_files/3038.got.cif
#   From: 2010.03.12/outbox.cif.g09.slc.cpg/sg90_2_cif.got.tgz:3038.got - 2010.04.08 20:26:03.
