data_PCOD8304121
_publ_section_title
;
Structure prediction by ZEFSAII (Michael W. Deem and Ramdas Pophale) SiO2 
 PCOD8304121
Probable space group: I 4/M
;
_chemical_formula_sum "Si O2"
_cell_formula_units_Z 80
_cell_length_a 11.647219
_cell_length_b 11.647219
_cell_length_c 28.314407
_cell_angle_alpha 90.000000
_cell_angle_beta 90.000000
_cell_angle_gamma 90.000000
_cell_volume 3841.067626
_symmetry_space_group_name_H-M "I 4/M"
_symmetry_group_IT_number 87
_symmetry_cell_setting 'tetragonal'
loop_
_space_group_symop_operation_xyz
x,y,z
-y,x,z
-x,-y,z
y,-x,z
-x,-y,-z
y,-x,-z
x,y,-z
-y,x,-z
1/2+x,1/2+y,1/2+z
1/2-y,1/2+x,1/2+z
1/2-x,1/2-y,1/2+z
1/2+y,1/2-x,1/2+z
1/2-x,1/2-y,1/2-z
1/2+y,1/2-x,1/2-z
1/2+x,1/2+y,1/2-z
1/2-y,1/2+x,1/2-z
loop_
_atom_site_type_symbol
_atom_site_label
_atom_site_fract_x
_atom_site_fract_y
_atom_site_fract_z
Si Si1 0.670005 0.583109 0.189135
Si Si2 0.000005 0.634784 0.448697
Si Si3 0.318018 0.109701 0.128646
Si Si4 0.082663 0.655802 0.235061
Si Si5 0.339902 0.194491 0.384629
O O1 0.552492 0.651197 0.182076
O O2 0.720425 0.609105 0.241494
O O3 0.766254 0.624085 0.153021
O O4 0.967989 0.690365 0.500000
O O5 0.912650 0.664319 0.406358
O O6 0.000000 0.500000 0.455034
O O7 0.127381 0.677950 0.434186
O O8 0.349384 0.138633 0.182960
O O9 0.200658 0.173439 0.113382
O O10 0.304272 0.974233 0.126379
O O11 0.138139 0.554970 0.266776
#
# Coordination Sequence:
#
# PCOD8304121 Si02
#       5
#    16  16  16  16  16
#     4  11  24  40  59  88 129 173 223 274 323 377
#     4   9  20  40  64  88 116 156 207 258 313 383
#     4  11  24  38  64  93 127 164 216 268 323 393
#     4  11  22  36  60  88 122 173 218 262 317 390
#     4  11  22  41  61  91 127 170 210 267 330 385
#
# _framework density 20.827542000000001
#
# number of rings (size 3 to 8) (size 9 to 14) (size 15 to 20)
#    0.000    1.400    2.000    3.600    8.400    2.800 
#    0.000    0.000    0.000    0.000    0.000    9.800 
#    0.000    0.000    0.000    0.000    0.000    0.000 
#
# Total GULP energy -495738.597905 kJ/mol
# GULP energy per Si atom -12393.464948 kJ/mol
# Density = 2.078014 g / cm^3
# Si number density = 20.827542 Si / 1000 Ang^3
#
#
#
# Elastic Constant Matrix: (Units=GPa)
#
#
# Indices 1 2 3 4 5 6 
#
# 1 110.0832 42.7376 50.1987 0.0000 0.0000 5.8597
# 2 42.7376 110.0832 50.1987 0.0000 0.0000 -5.8597
# 3 50.1987 50.1987 154.3787 0.0000 0.0000 0.0000
# 4 0.0000 0.0000 0.0000 3.9881 0.0000 0.0000
# 5 0.0000 0.0000 0.0000 0.0000 3.9881 0.0000
# 6 5.8597 -5.8597 0.0000 0.0000 0.0000 35.1406
#
#
#
# Elastic Compliance Matrix: (Units=1/GPa)
#
#
# Indices 1 2 3 4 5 6 
#
# 1 0.011807 -0.003486 -0.002706 0.000000 0.000000 -0.002550
# 2 -0.003486 0.011807 -0.002706 0.000000 0.000000 0.002550
# 3 -0.002706 -0.002706 0.008237 0.000000 0.000000 0.000000
# 4 0.000000 0.000000 0.000000 0.250744 0.000000 0.000000
# 5 0.000000 0.000000 0.000000 0.000000 0.250744 0.000000
# 6 -0.002550 0.002550 0.000000 0.000000 0.000000 0.029308
#
#
# Mechanical properties :
#
#
# Convention : Reuss Voigt Hill
#
# Bulk Modulus (GPa) = 71.14127 73.42390 72.28258
# Shear Modulus (GPa) = 8.54515 24.05072 16.29794
#
# Velocity S-wave (km/s) = 2.02774 3.40186 2.80039
# Velocity P-wave (km/s) = 6.30188 7.12460 6.72584
#
# Compressibility (1/GPa) = 0.01405654
#
# Stress axis : x y z
#
# Youngs Moduli (GPa) = 84.69652 84.69652 121.40014
#
# Poissons Ratio (x) = 0.29522 0.32848
# Poissons Ratio (y) = 0.29522 0.32848
# Poissons Ratio (z) = 0.22917 0.22917
#
# Static dielectric constant tensor:
#      x y z
#    x 3.795060 0.000000 0.000000 
#    y 0.000000 3.795060 0.000000 
#    z 0.000000 0.000000 4.138960 
# 
# 
# High freq. dielectric constant tensor:
#      x y z
#    x 1.813360 0.000000 0.000000 
#    y 0.000000 1.813360 0.000000 
#    z 0.000000 0.000000 1.807380 
# 
# From -- ./inp_files/6483.got.cif
#   From: 2010.03.12/outbox.cif.g09.slc.cpg/sg87_4_cif.got.tgz:6483.got - 2010.04.08 20:16:13.
