data_PCOD8304598
_publ_section_title
;
Structure prediction by ZEFSAII (Michael W. Deem and Ramdas Pophale) SiO2 
 PCOD8304598
Probable space group: P 4 21 2
;
_chemical_formula_sum "Si O2"
_cell_formula_units_Z 48
_cell_length_a 8.232956
_cell_length_b 8.232956
_cell_length_c 33.024307
_cell_angle_alpha 90.000000
_cell_angle_beta 90.000000
_cell_angle_gamma 90.000000
_cell_volume 2238.439195
_symmetry_space_group_name_H-M "P 4 21 2"
_symmetry_group_IT_number 90
_symmetry_cell_setting 'tetragonal'
loop_
_space_group_symop_operation_xyz
x,y,z
1/2-y,1/2+x,z
-x,-y,z
1/2+y,1/2-x,z
1/2+x,1/2-y,-z
1/2-x,1/2+y,-z
y,x,-z
-y,-x,-z
loop_
_atom_site_type_symbol
_atom_site_label
_atom_site_fract_x
_atom_site_fract_y
_atom_site_fract_z
Si Si1 0.581106 0.742793 0.802899
Si Si2 0.000000 0.000000 0.260999
Si Si3 0.251791 0.408931 0.875465
Si Si4 0.253865 0.422792 0.966115
Si Si5 0.735624 0.460071 0.530337
Si Si6 0.500000 0.500000 0.601730
Si Si7 0.738970 0.453105 0.327167
O O1 0.394538 0.798389 0.799042
O O2 0.615935 0.612292 0.767280
O O3 0.607012 0.650868 0.845475
O O4 0.099283 0.115299 0.291591
O O5 0.203682 0.595069 0.867973
O O6 0.322824 0.392117 0.920931
O O7 0.198768 0.605323 0.972385
O O8 0.389048 0.389048 0.000000
O O9 0.819003 0.633008 0.522841
O O10 0.587204 0.412797 0.500000
O O11 0.662451 0.488130 0.574927
O O12 0.472008 0.658379 0.629015
O O13 0.814570 0.629722 0.321854
#
# Coordination Sequence:
#
# PCOD8304598 Si02
#       7
#     8   4   8   8   8   4   8
#     4  11  23  38  59  87 116 148 189 240 295 354
#     4  11  22  38  61  84 114 148 185 234 288 353
#     4   9  19  37  58  81 113 153 193 237 294 356
#     4   9  19  35  54  78 111 150 192 236 282 336
#     4  11  23  39  61  91 131 178 229 283 334 389
#     4  11  21  38  63  92 126 164 211 266 325 379
#     4  10  22  40  63  90 120 156 198 247 305 372
#
# _framework density 21.443514
#
# number of rings (size 3 to 8) (size 9 to 14) (size 15 to 20)
#    0.000    1.833    0.000    5.250    0.000    3.000 
#    0.000    6.667    0.000   18.500    0.000    0.000 
#    0.000    0.000    0.000    0.000    0.000    0.000 
#
# Total GULP energy -594692.295578 kJ/mol
# GULP energy per Si atom -12389.422825 kJ/mol
# Density = 2.139471 g / cm^3
# Si number density = 21.443514 Si / 1000 Ang^3
#
#
#
# Elastic Constant Matrix: (Units=GPa)
#
#
# Indices 1 2 3 4 5 6 
#
# 1 82.9435 45.9319 53.4325 0.0000 0.0000 0.0000
# 2 45.9319 82.9423 53.4327 0.0000 0.0000 0.0000
# 3 53.4325 53.4327 156.7634 0.0000 0.0000 0.0000
# 4 0.0000 0.0000 0.0000 38.7796 0.0000 0.0000
# 5 0.0000 0.0000 0.0000 0.0000 38.7797 0.0000
# 6 0.0000 0.0000 0.0000 0.0000 0.0000 36.1736
#
#
#
# Elastic Compliance Matrix: (Units=1/GPa)
#
#
# Indices 1 2 3 4 5 6 
#
# 1 0.018918 -0.008101 -0.003687 0.000000 0.000000 0.000000
# 2 -0.008101 0.018918 -0.003687 0.000000 0.000000 0.000000
# 3 -0.003687 -0.003687 0.008892 0.000000 0.000000 0.000000
# 4 0.000000 0.000000 0.000000 0.025787 0.000000 0.000000
# 5 0.000000 0.000000 0.000000 0.000000 0.025787 0.000000
# 6 0.000000 0.000000 0.000000 0.000000 0.000000 0.027644
#
#
# Mechanical properties :
#
#
# Convention : Reuss Voigt Hill
#
# Bulk Modulus (GPa) = 63.37818 69.80481 66.59149
# Shear Modulus (GPa) = 30.83470 34.07006 32.45238
#
# Velocity S-wave (km/s) = 3.79614 3.99034 3.89445
# Velocity P-wave (km/s) = 6.98816 7.33852 7.16548
#
# Compressibility (1/GPa) = 0.01577830
#
# Stress axis : x y z
#
# Youngs Moduli (GPa) = 52.86080 52.85969 112.45619
#
# Poissons Ratio (x) = 0.42822 0.41460
# Poissons Ratio (y) = 0.42823 0.41462
# Poissons Ratio (z) = 0.19488 0.19489
#
# Static dielectric constant tensor:
#      x y z
#    x 3.859400 0.000000 0.000000 
#    y 0.000000 3.859400 0.000000 
#    z 0.000000 0.000000 3.990310 
# 
# 
# High freq. dielectric constant tensor:
#      x y z
#    x 1.841840 0.000000 0.000000 
#    y 0.000000 1.841840 0.000000 
#    z 0.000000 0.000000 1.852750 
# 
# From -- ./inp_files/3090.got.cif
#   From: 2010.03.12/outbox.cif.g09.slc.cpg/sg90_2_cif.got.tgz:3090.got - 2010.04.08 20:26:03.
