data_PCOD8304310
_publ_section_title
;
Structure prediction by ZEFSAII (Michael W. Deem and Ramdas Pophale) SiO2 
 PCOD8304310
Probable space group: I 41/A
;
_chemical_formula_sum "Si O2"
_cell_formula_units_Z 96
_cell_length_a 17.626703
_cell_length_b 17.626703
_cell_length_c 16.848880
_cell_angle_alpha 90.000000
_cell_angle_beta 90.000000
_cell_angle_gamma 90.000000
_cell_volume 5234.958114
_symmetry_space_group_name_H-M "I 41/A"
_symmetry_group_IT_number 88
_space_group.IT_coordinate_system_code '2'
_symmetry_cell_setting 'tetragonal'
loop_
_space_group_symop_operation_xyz
x,y,z
3/4-y,1/4+x,1/4+z
-x,1/2-y,z
1/4+y,1/4-x,1/4+z
-x,-y,-z
1/4+y,3/4-x,3/4-z
x,1/2+y,-z
3/4-y,3/4+x,3/4-z
1/2+x,1/2+y,1/2+z
1/4-y,3/4+x,3/4+z
1/2-x,-y,1/2+z
3/4+y,3/4-x,3/4+z
1/2-x,1/2-y,1/2-z
3/4+y,1/4-x,1/4-z
1/2+x,y,1/2-z
1/4-y,1/4+x,1/4-z
loop_
_atom_site_type_symbol
_atom_site_label
_atom_site_fract_x
_atom_site_fract_y
_atom_site_fract_z
Si Si1 0.890070 0.308677 0.281239
Si Si2 0.948522 0.139242 0.276093
Si Si3 0.827195 0.083513 0.381037
Si Si4 0.240358 0.503539 0.745575
Si Si5 0.268799 0.865610 0.884937
Si Si6 0.045128 0.452987 0.124681
O O1 0.918278 0.223855 0.273623
O O2 0.849300 0.325876 0.365028
O O3 0.832533 0.324400 0.208274
O O4 0.960966 0.365409 0.279420
O O5 0.913886 0.097999 0.353979
O O6 0.922387 0.099535 0.194756
O O7 0.784591 0.164932 0.384373
O O8 0.789402 0.028766 0.318425
O O9 0.821472 0.034324 0.462097
O O10 0.154773 0.483675 0.777379
O O11 0.243680 0.569687 0.680463
O O12 0.208330 0.796545 0.878346
#
# Coordination Sequence:
#
# PCOD8304310 Si02
#       6
#    16  16  16  16  16  16
#     4  11  22  35  53  83 120 150 186 223 274 348
#     4  11  23  35  52  84 117 152 186 224 277 342
#     4  11  20  36  52  80 110 148 189 237 275 331
#     4  10  22  34  55  77 110 147 197 235 274 323
#     4  11  21  37  56  83 112 149 190 234 278 336
#     4  12  21  33  57  81 120 154 178 220 288 341
#
# _framework density 18.338256999999999
#
# number of rings (size 3 to 8) (size 9 to 14) (size 15 to 20)
#    0.000    1.000    5.000    3.500    4.667    1.333 
#    0.000    0.833    0.000    0.000    0.000    0.000 
#    0.000    0.000    0.000    0.000    0.000    0.000 
#
# Total GULP energy -594776.023875 kJ/mol
# GULP energy per Si atom -12391.167164 kJ/mol
# Density = 1.829652 g / cm^3
# Si number density = 18.338257 Si / 1000 Ang^3
#
#
#
# Elastic Constant Matrix: (Units=GPa)
#
#
# Indices 1 2 3 4 5 6 
#
# 1 66.3444 52.0466 40.9055 0.0000 0.0000 7.2903
# 2 52.0466 66.3444 40.9055 0.0000 0.0000 -7.2903
# 3 40.9055 40.9055 73.4486 0.0000 0.0000 0.0000
# 4 0.0000 0.0000 0.0000 30.1356 0.0000 0.0000
# 5 0.0000 0.0000 0.0000 0.0000 30.1356 0.0000
# 6 7.2903 -7.2903 0.0000 0.0000 0.0000 31.0056
#
#
#
# Elastic Compliance Matrix: (Units=1/GPa)
#
#
# Indices 1 2 3 4 5 6 
#
# 1 0.052865 -0.039135 -0.007647 0.000000 0.000000 -0.021632
# 2 -0.039135 0.052865 -0.007647 0.000000 0.000000 0.021632
# 3 -0.007647 -0.007647 0.022133 0.000000 0.000000 0.000000
# 4 0.000000 0.000000 0.000000 0.033183 0.000000 0.000000
# 5 0.000000 0.000000 0.000000 0.000000 0.033183 0.000000
# 6 -0.021632 0.021632 0.000000 0.000000 0.000000 0.042425
#
#
# Mechanical properties :
#
#
# Convention : Reuss Voigt Hill
#
# Bulk Modulus (GPa) = 52.61465 52.65027 52.63246
# Shear Modulus (GPa) = 14.21068 23.07402 18.64235
#
# Velocity S-wave (km/s) = 2.78676 3.55102 3.19185
# Velocity P-wave (km/s) = 6.25365 6.75174 6.50746
#
# Compressibility (1/GPa) = 0.01900612
#
# Stress axis : x y z
#
# Youngs Moduli (GPa) = 18.91594 18.91594 45.18191
#
# Poissons Ratio (x) = 0.74027 0.34551
# Poissons Ratio (y) = 0.74027 0.34551
# Poissons Ratio (z) = 0.14465 0.14465
#
# Static dielectric constant tensor:
#      x y z
#    x 3.713970 0.000000 0.000000 
#    y 0.000000 3.713970 0.000000 
#    z 0.000000 0.000000 3.796700 
# 
# 
# High freq. dielectric constant tensor:
#      x y z
#    x 1.706680 0.000000 0.000000 
#    y 0.000000 1.706680 0.000000 
#    z 0.000000 0.000000 1.686450 
# 
# From -- ./inp_files/3913.got.cif
#   From: 2010.03.12/outbox.cif.g09.slc.cpg/sg88_2_cif.got.tgz:3913.got - 2010.04.08 20:20:55.
