data_PCOD8304441
_publ_section_title
;
Structure prediction by ZEFSAII (Michael W. Deem and Ramdas Pophale) SiO2 
 PCOD8304441
Probable space group: I 41/A
;
_chemical_formula_sum "Si O2"
_cell_formula_units_Z 48
_cell_length_a 14.534838
_cell_length_b 14.534838
_cell_length_c 8.610560
_cell_angle_alpha 90.000000
_cell_angle_beta 90.000000
_cell_angle_gamma 90.000000
_cell_volume 1819.079957
_symmetry_space_group_name_H-M "I 41/A"
_symmetry_group_IT_number 88
_space_group.IT_coordinate_system_code '2'
_symmetry_cell_setting 'tetragonal'
loop_
_space_group_symop_operation_xyz
x,y,z
3/4-y,1/4+x,1/4+z
-x,1/2-y,z
1/4+y,1/4-x,1/4+z
-x,-y,-z
1/4+y,3/4-x,3/4-z
x,1/2+y,-z
3/4-y,3/4+x,3/4-z
1/2+x,1/2+y,1/2+z
1/4-y,3/4+x,3/4+z
1/2-x,-y,1/2+z
3/4+y,3/4-x,3/4+z
1/2-x,1/2-y,1/2-z
3/4+y,1/4-x,1/4-z
1/2+x,y,1/2-z
1/4-y,1/4+x,1/4-z
loop_
_atom_site_type_symbol
_atom_site_label
_atom_site_fract_x
_atom_site_fract_y
_atom_site_fract_z
Si Si1 0.549227 0.068780 0.711893
Si Si2 0.063175 0.366871 0.189457
Si Si3 0.179184 0.588460 0.481328
O O1 0.591620 0.150248 0.609704
O O2 0.582634 0.081036 0.888396
O O3 0.439860 0.066135 0.697025
O O4 0.587998 0.971331 0.646311
O O5 0.105349 0.298444 0.059081
O O6 0.181090 0.514344 0.617555
#
# Coordination Sequence:
#
# PCOD8304441 Si02
#       3
#    16  16  16
#     4  12  28  52  81 122 165 224 280 340 424 488
#     4  11  28  48  80 120 163 216 277 340 410 503
#     4  12  30  53  84 123 168 220 277 353 418 499
#
# _framework density 26.386966999999999
#
# number of rings (size 3 to 8) (size 9 to 14) (size 15 to 20)
#    0.000    0.333    3.333    2.000   14.000    0.667 
#    0.000    0.000    0.000    0.000    0.000    0.000 
#    0.000    0.000    0.000    0.000    0.000    0.000 
#
# Total GULP energy -297679.787699 kJ/mol
# GULP energy per Si atom -12403.324487 kJ/mol
# Density = 2.632691 g / cm^3
# Si number density = 26.386967 Si / 1000 Ang^3
#
#
#
# Elastic Constant Matrix: (Units=GPa)
#
#
# Indices 1 2 3 4 5 6 
#
# 1 128.4773 14.0910 37.4075 0.0000 0.0000 2.3934
# 2 14.0910 128.4773 37.4075 0.0000 0.0000 -2.3934
# 3 37.4075 37.4075 67.9531 0.0000 0.0000 0.0000
# 4 0.0000 0.0000 0.0000 49.8333 0.0000 0.0000
# 5 0.0000 0.0000 0.0000 0.0000 49.8333 0.0000
# 6 2.3934 -2.3934 0.0000 0.0000 0.0000 18.6737
#
#
#
# Elastic Compliance Matrix: (Units=1/GPa)
#
#
# Indices 1 2 3 4 5 6 
#
# 1 0.009326 0.000537 -0.005430 0.000000 0.000000 -0.001127
# 2 0.000537 0.009326 -0.005430 0.000000 0.000000 0.001127
# 3 -0.005430 -0.005430 0.020694 0.000000 0.000000 0.000000
# 4 0.000000 0.000000 0.000000 0.020067 0.000000 0.000000
# 5 0.000000 0.000000 0.000000 0.000000 0.020067 0.000000
# 6 -0.001127 0.001127 0.000000 0.000000 0.000000 0.053840
#
#
# Mechanical properties :
#
#
# Convention : Reuss Voigt Hill
#
# Bulk Modulus (GPa) = 53.47000 55.85775 54.66387
# Shear Modulus (GPa) = 31.21097 39.40150 35.30623
#
# Velocity S-wave (km/s) = 3.44294 3.86841 3.66186
# Velocity P-wave (km/s) = 6.00940 6.41619 6.21612
#
# Compressibility (1/GPa) = 0.01870208
#
# Stress axis : x y z
#
# Youngs Moduli (GPa) = 107.22137 107.22137 48.32291
#
# Poissons Ratio (x) = -0.05758 0.26238
# Poissons Ratio (y) = -0.05758 0.26238
# Poissons Ratio (z) = 0.58219 0.58219
#
# Static dielectric constant tensor:
#      x y z
#    x 5.148300 0.000000 0.000000 
#    y 0.000000 5.148300 0.000000 
#    z 0.000000 0.000000 4.457530 
# 
# 
# High freq. dielectric constant tensor:
#      x y z
#    x 2.075030 0.000000 0.000000 
#    y 0.000000 2.075030 0.000000 
#    z 0.000000 0.000000 2.050800 
# 
# From -- ./inp_files/2171.got.cif
#   From: 2010.03.12/outbox.cif.g09.slc.cpg/sg88_2_cif.got.tgz:2171.got - 2010.04.08 20:20:55.
