data_PCOD8304211
_publ_section_title
;
Structure prediction by ZEFSAII (Michael W. Deem and Ramdas Pophale) SiO2 
 PCOD8304211
Probable space group: I 41/A
;
_chemical_formula_sum "Si O2"
_cell_formula_units_Z 72
_cell_length_a 14.321997
_cell_length_b 14.321997
_cell_length_c 19.563343
_cell_angle_alpha 90.000000
_cell_angle_beta 90.000000
_cell_angle_gamma 90.000000
_cell_volume 4012.825053
_symmetry_space_group_name_H-M "I 41/A"
_symmetry_group_IT_number 88
_space_group.IT_coordinate_system_code '2'
_symmetry_cell_setting 'tetragonal'
loop_
_space_group_symop_operation_xyz
x,y,z
3/4-y,1/4+x,1/4+z
-x,1/2-y,z
1/4+y,1/4-x,1/4+z
-x,-y,-z
1/4+y,3/4-x,3/4-z
x,1/2+y,-z
3/4-y,3/4+x,3/4-z
1/2+x,1/2+y,1/2+z
1/4-y,3/4+x,3/4+z
1/2-x,-y,1/2+z
3/4+y,3/4-x,3/4+z
1/2-x,1/2-y,1/2-z
3/4+y,1/4-x,1/4-z
1/2+x,y,1/2-z
1/4-y,1/4+x,1/4-z
loop_
_atom_site_type_symbol
_atom_site_label
_atom_site_fract_x
_atom_site_fract_y
_atom_site_fract_z
Si Si1 0.505708 0.051475 0.621700
Si Si2 0.301247 0.246833 0.517212
Si Si3 0.705034 0.555776 0.436132
Si Si4 0.000000 0.250000 0.933207
Si Si5 0.205151 0.554019 0.679197
O O1 0.599988 0.021584 0.582472
O O2 0.502168 0.164297 0.620760
O O3 0.412967 0.019983 0.581826
O O4 0.505841 0.003154 0.695811
O O5 0.275698 0.333268 0.567097
O O6 0.414299 0.249365 0.512644
O O7 0.275985 0.150057 0.552461
O O8 0.778020 0.505478 0.387982
O O9 0.729821 0.524588 0.512360
#
# Coordination Sequence:
#
# PCOD8304211 Si02
#       5
#    16  16  16   8  16
#     4  10  19  36  57  83 117 152 187 239 285 344
#     4  10  20  37  56  84 117 147 194 236 292 343
#     4  11  21  37  58  85 116 154 191 236 290 346
#     4   8  20  34  56  85 119 148 188 240 288 340
#     4  11  21  37  58  85 116 154 191 236 290 346
#
# _framework density 17.942471000000001
#
# number of rings (size 3 to 8) (size 9 to 14) (size 15 to 20)
#    0.000    1.778    4.444    0.667    0.000    0.000 
#    0.000    5.556    0.000    0.000    0.000    0.000 
#    0.000    0.000    0.000    0.000    0.000    0.000 
#
# Total GULP energy -446068.942362 kJ/mol
# GULP energy per Si atom -12390.803954 kJ/mol
# Density = 1.790163 g / cm^3
# Si number density = 17.942471 Si / 1000 Ang^3
#
#
#
# Elastic Constant Matrix: (Units=GPa)
#
#
# Indices 1 2 3 4 5 6 
#
# 1 76.7014 29.8922 32.9573 0.0000 0.0000 5.1465
# 2 29.8922 76.7013 32.9573 0.0000 0.0000 -5.1465
# 3 32.9573 32.9573 89.9510 0.0000 0.0000 0.0000
# 4 0.0000 0.0000 0.0000 31.8072 0.0000 0.0000
# 5 0.0000 0.0000 0.0000 0.0000 31.8072 0.0000
# 6 5.1465 -5.1465 0.0000 0.0000 0.0000 14.9292
#
#
#
# Elastic Compliance Matrix: (Units=1/GPa)
#
#
# Indices 1 2 3 4 5 6 
#
# 1 0.017623 -0.005493 -0.004444 0.000000 0.000000 -0.007969
# 2 -0.005493 0.017623 -0.004444 0.000000 0.000000 0.007969
# 3 -0.004444 -0.004444 0.014374 0.000000 0.000000 0.000000
# 4 0.000000 0.000000 0.000000 0.031439 0.000000 0.000000
# 5 0.000000 0.000000 0.000000 0.000000 0.031439 0.000000
# 6 -0.007969 0.007969 0.000000 0.000000 0.000000 0.072477
#
#
# Mechanical properties :
#
#
# Convention : Reuss Voigt Hill
#
# Bulk Modulus (GPa) = 47.94728 48.32970 48.13849
# Shear Modulus (GPa) = 22.65626 25.54518 24.10072
#
# Velocity S-wave (km/s) = 3.55733 3.77732 3.66898
# Velocity P-wave (km/s) = 6.60708 6.78370 6.69598
#
# Compressibility (1/GPa) = 0.02085624
#
# Stress axis : x y z
#
# Youngs Moduli (GPa) = 56.74532 56.74532 69.57109
#
# Poissons Ratio (x) = 0.31170 0.30919
# Poissons Ratio (y) = 0.31170 0.30919
# Poissons Ratio (z) = 0.25219 0.25219
#
# Static dielectric constant tensor:
#      x y z
#    x 3.463990 0.000000 0.000000 
#    y 0.000000 3.463990 0.000000 
#    z 0.000000 0.000000 3.158070 
# 
# 
# High freq. dielectric constant tensor:
#      x y z
#    x 1.699490 0.000000 0.000000 
#    y 0.000000 1.699490 0.000000 
#    z 0.000000 0.000000 1.677620 
# 
# From -- ./inp_files/3778.got.cif
#   From: 2010.03.12/outbox.cif.g09.slc.cpg/sg88_2_cif.got.tgz:3778.got - 2010.04.08 20:20:55.
