data_PCOD8304140
_publ_section_title
;
Structure prediction by ZEFSAII (Michael W. Deem and Ramdas Pophale) SiO2 
 PCOD8304140
Probable space group: I 4/M
;
_chemical_formula_sum "Si O2"
_cell_formula_units_Z 112
_cell_length_a 15.547549
_cell_length_b 15.547549
_cell_length_c 23.112758
_cell_angle_alpha 90.000000
_cell_angle_beta 90.000000
_cell_angle_gamma 90.000000
_cell_volume 5586.961010
_symmetry_space_group_name_H-M "I 4/M"
_symmetry_group_IT_number 87
_symmetry_cell_setting 'tetragonal'
loop_
_space_group_symop_operation_xyz
x,y,z
-y,x,z
-x,-y,z
y,-x,z
-x,-y,-z
y,-x,-z
x,y,-z
-y,x,-z
1/2+x,1/2+y,1/2+z
1/2-y,1/2+x,1/2+z
1/2-x,1/2-y,1/2+z
1/2+y,1/2-x,1/2+z
1/2-x,1/2-y,1/2-z
1/2+y,1/2-x,1/2-z
1/2+x,1/2+y,1/2-z
1/2-y,1/2+x,1/2-z
loop_
_atom_site_type_symbol
_atom_site_label
_atom_site_fract_x
_atom_site_fract_y
_atom_site_fract_z
Si Si1 0.198148 0.817004 0.790148
Si Si2 0.553622 0.631985 0.205303
Si Si3 0.817582 0.565710 0.717179
Si Si4 0.967595 0.403595 0.434643
Si Si5 0.190487 0.539978 0.171896
Si Si6 0.508935 0.636318 0.431679
Si Si7 0.074992 0.297193 0.128556
O O1 0.250000 0.750000 0.750000
O O2 0.178986 0.913467 0.764153
O O3 0.105994 0.773738 0.803171
O O4 0.253899 0.837308 0.847135
O O5 0.452978 0.610363 0.199238
O O6 0.568566 0.709748 0.159554
O O7 0.813206 0.543941 0.786001
O O8 0.888480 0.638252 0.706726
O O9 0.840123 0.481369 0.679700
O O10 0.979097 0.368755 0.500000
O O11 0.868089 0.396469 0.417535
O O12 0.000000 0.500000 0.429586
O O13 0.024141 0.346796 0.391403
O O14 0.421236 0.590162 0.411292
O O15 0.509317 0.646175 0.500000
O O16 0.514402 0.729306 0.403660
#
# Coordination Sequence:
#
# PCOD8304140 Si02
#       7
#    16  16  16  16  16  16  16
#     4  12  21  37  58  93 132 159 198 250 312 390
#     4  11  23  39  61  91 130 174 209 252 316 385
#     4  12  23  36  61  98 127 168 201 254 322 387
#     4  11  25  43  63  89 124 170 218 268 324 375
#     4  12  23  40  64  91 133 163 215 260 316 387
#     4   9  19  37  59  84 120 167 212 253 300 365
#     4  12  22  37  59  93 128 163 205 259 316 384
#
# _framework density 20.046676999999999
#
# number of rings (size 3 to 8) (size 9 to 14) (size 15 to 20)
#    0.000    0.714    5.714    3.429    0.000    0.000 
#    0.000    1.429    0.000    3.429    0.000    1.000 
#    0.000    0.000    0.000    0.000    0.000    0.000 
#
# Total GULP energy -694059.419404 kJ/mol
# GULP energy per Si atom -12393.918204 kJ/mol
# Density = 2.000105 g / cm^3
# Si number density = 20.046677 Si / 1000 Ang^3
#
#
#
# Elastic Constant Matrix: (Units=GPa)
#
#
# Indices 1 2 3 4 5 6 
#
# 1 99.3780 24.2940 39.0469 0.0000 0.0000 3.7299
# 2 24.2940 99.3780 39.0469 0.0000 0.0000 -3.7299
# 3 39.0469 39.0469 96.5288 0.0000 0.0000 0.0000
# 4 0.0000 0.0000 0.0000 21.6553 0.0000 0.0000
# 5 0.0000 0.0000 0.0000 0.0000 21.6553 0.0000
# 6 3.7299 -3.7299 0.0000 0.0000 0.0000 36.3897
#
#
#
# Elastic Compliance Matrix: (Units=1/GPa)
#
#
# Indices 1 2 3 4 5 6 
#
# 1 0.012158 -0.001298 -0.004393 0.000000 0.000000 -0.001379
# 2 -0.001298 0.012158 -0.004393 0.000000 0.000000 0.001379
# 3 -0.004393 -0.004393 0.013914 0.000000 0.000000 0.000000
# 4 0.000000 0.000000 0.000000 0.046178 0.000000 0.000000
# 5 0.000000 0.000000 0.000000 0.000000 0.046178 0.000000
# 6 -0.001379 0.001379 0.000000 0.000000 0.000000 0.027763
#
#
# Mechanical properties :
#
#
# Convention : Reuss Voigt Hill
#
# Bulk Modulus (GPa) = 55.36611 55.56225 55.46418
# Shear Modulus (GPa) = 27.09503 28.79987 27.94745
#
# Velocity S-wave (km/s) = 3.68040 3.79442 3.73784
# Velocity P-wave (km/s) = 6.76306 6.85371 6.80854
#
# Compressibility (1/GPa) = 0.01806159
#
# Stress axis : x y z
#
# Youngs Moduli (GPa) = 82.25278 82.25278 71.87229
#
# Poissons Ratio (x) = 0.10675 0.31573
# Poissons Ratio (y) = 0.10675 0.31573
# Poissons Ratio (z) = 0.36133 0.36133
#
# Static dielectric constant tensor:
#      x y z
#    x 3.828610 0.000000 0.000000 
#    y 0.000000 3.828610 0.000000 
#    z 0.000000 0.000000 3.411930 
# 
# 
# High freq. dielectric constant tensor:
#      x y z
#    x 1.792480 0.000000 0.000000 
#    y 0.000000 1.792480 0.000000 
#    z 0.000000 0.000000 1.748820 
# 
# From -- ./inp_files/5927.got.cif
#   From: 2010.03.12/outbox.cif.g09.slc.cpg/sg87_3_cif.got.tgz:5927.got - 2010.04.08 20:16:13.
