data_PCOD8304015
_publ_section_title
;
Structure prediction by ZEFSAII (Michael W. Deem and Ramdas Pophale) SiO2 
 PCOD8304015
Probable space group: I 4/M
;
_chemical_formula_sum "Si O2"
_cell_formula_units_Z 96
_cell_length_a 15.404509
_cell_length_b 15.404509
_cell_length_c 20.675277
_cell_angle_alpha 90.000000
_cell_angle_beta 90.000000
_cell_angle_gamma 90.000000
_cell_volume 4906.220438
_symmetry_space_group_name_H-M "I 4/M"
_symmetry_group_IT_number 87
_symmetry_cell_setting 'tetragonal'
loop_
_space_group_symop_operation_xyz
x,y,z
-y,x,z
-x,-y,z
y,-x,z
-x,-y,-z
y,-x,-z
x,y,-z
-y,x,-z
1/2+x,1/2+y,1/2+z
1/2-y,1/2+x,1/2+z
1/2-x,1/2-y,1/2+z
1/2+y,1/2-x,1/2+z
1/2-x,1/2-y,1/2-z
1/2+y,1/2-x,1/2-z
1/2+x,1/2+y,1/2-z
1/2-y,1/2+x,1/2-z
loop_
_atom_site_type_symbol
_atom_site_label
_atom_site_fract_x
_atom_site_fract_y
_atom_site_fract_z
Si Si1 0.957423 0.270197 0.240679
Si Si2 0.123376 0.280419 0.075644
Si Si3 0.098367 0.475356 0.929665
Si Si4 0.204181 0.763963 0.318333
Si Si5 0.642575 0.485143 0.638292
Si Si6 0.668124 0.100121 0.674294
O O1 0.898976 0.242342 0.303487
O O2 0.902362 0.324390 0.187949
O O3 0.003073 0.185637 0.208997
O O4 0.036235 0.330799 0.264044
O O5 0.100517 0.377810 0.096829
O O6 0.200277 0.257701 0.126010
O O7 0.038733 0.219465 0.087777
O O8 0.151082 0.272117 0.000000
O O9 0.148460 0.545065 0.888233
O O10 0.000000 0.500000 0.933805
O O11 0.142752 0.478474 0.000000
O O12 0.250000 0.750000 0.250000
O O13 0.236153 0.859594 0.339567
O O14 0.594133 0.575944 0.627606
#
# Coordination Sequence:
#
# PCOD8304015 Si02
#       6
#    16  16  16  16  16  16
#     4  11  21  36  58  92 127 155 208 254 326 366
#     4  11  23  42  62  88 128 169 211 263 318 381
#     4  10  22  38  57  85 120 156 204 255 306 372
#     4  10  21  39  60  92 126 164 208 264 317 381
#     4  11  23  40  61  88 124 168 213 257 313 388
#     4  11  22  34  61  87 121 157 202 255 311 376
#
# _framework density 19.566996
#
# number of rings (size 3 to 8) (size 9 to 14) (size 15 to 20)
#    0.000    1.333    1.667    6.000    2.333    1.333 
#    0.000    2.500    0.000    0.000    0.000    0.000 
#    0.000    2.667    0.000    0.000    0.000    0.000 
#
# Total GULP energy -594669.206976 kJ/mol
# GULP energy per Si atom -12388.941812 kJ/mol
# Density = 1.952246 g / cm^3
# Si number density = 19.566996 Si / 1000 Ang^3
#
#
#
# Elastic Constant Matrix: (Units=GPa)
#
#
# Indices 1 2 3 4 5 6 
#
# 1 107.0256 50.7756 48.7917 0.0000 0.0000 -4.0162
# 2 50.7756 107.0256 48.7917 0.0000 0.0000 4.0162
# 3 48.7917 48.7917 98.4931 0.0000 0.0000 0.0000
# 4 0.0000 0.0000 0.0000 29.9934 0.0000 0.0000
# 5 0.0000 0.0000 0.0000 0.0000 29.9934 0.0000
# 6 -4.0162 4.0162 0.0000 0.0000 0.0000 34.5260
#
#
#
# Elastic Compliance Matrix: (Units=1/GPa)
#
#
# Indices 1 2 3 4 5 6 
#
# 1 0.013607 -0.004471 -0.004526 0.000000 0.000000 0.002103
# 2 -0.004471 0.013607 -0.004526 0.000000 0.000000 -0.002103
# 3 -0.004526 -0.004526 0.014637 0.000000 0.000000 0.000000
# 4 0.000000 0.000000 0.000000 0.033341 0.000000 0.000000
# 5 0.000000 0.000000 0.000000 0.000000 0.033341 0.000000
# 6 0.002103 -0.002103 0.000000 0.000000 0.000000 0.029453
#
#
# Mechanical properties :
#
#
# Convention : Reuss Voigt Hill
#
# Bulk Modulus (GPa) = 67.54183 67.69580 67.61882
# Shear Modulus (GPa) = 29.41781 29.84827 29.63304
#
# Velocity S-wave (km/s) = 3.88163 3.90992 3.89580
# Velocity P-wave (km/s) = 7.39477 7.41993 7.40736
#
# Compressibility (1/GPa) = 0.01480564
#
# Stress axis : x y z
#
# Youngs Moduli (GPa) = 73.49219 73.49218 68.32066
#
# Poissons Ratio (x) = 0.32859 0.30920
# Poissons Ratio (y) = 0.32859 0.30920
# Poissons Ratio (z) = 0.33260 0.33260
#
# Static dielectric constant tensor:
#      x y z
#    x 3.886320 0.000000 0.000000 
#    y 0.000000 3.886320 0.000000 
#    z 0.000000 0.000000 3.881260 
# 
# 
# High freq. dielectric constant tensor:
#      x y z
#    x 1.764710 0.000000 0.000000 
#    y 0.000000 1.764710 0.000000 
#    z 0.000000 0.000000 1.749560 
# 
# From -- ./inp_files/5290.got.cif
#   From: 2010.03.12/outbox.cif.g09.slc.cpg/sg87_3_cif.got.tgz:5290.got - 2010.04.08 20:16:13.
