data_PCOD8304865
_publ_section_title
;
Structure prediction by ZEFSAII (Michael W. Deem and Ramdas Pophale) SiO2 
 PCOD8304865
Probable space group: P 41 2 2
;
_chemical_formula_sum "Si O2"
_cell_formula_units_Z 56
_cell_length_a 12.424093
_cell_length_b 12.424093
_cell_length_c 17.988275
_cell_angle_alpha 90.000000
_cell_angle_beta 90.000000
_cell_angle_gamma 90.000000
_cell_volume 2776.635715
_symmetry_space_group_name_H-M "P 41 2 2"
_symmetry_group_IT_number 91
_symmetry_cell_setting 'tetragonal'
loop_
_space_group_symop_operation_xyz
x,y,z
-y,x,1/4+z
-x,-y,1/2+z
y,-x,3/4+z
x,-y,1/2-z
-x,y,-z
y,x,3/4-z
-y,-x,1/4-z
loop_
_atom_site_type_symbol
_atom_site_label
_atom_site_fract_x
_atom_site_fract_y
_atom_site_fract_z
Si Si1 0.717570 0.864865 0.919760
Si Si2 0.098254 0.502329 0.090932
Si Si3 0.901504 0.784283 0.147595
Si Si4 0.097665 0.285365 0.164895
Si Si5 0.562811 0.138757 0.820541
Si Si6 0.549750 0.308584 0.079441
Si Si7 0.855708 0.739683 0.313000
O O1 0.764313 0.764313 0.875000
O O2 0.592138 0.879992 0.902637
O O3 0.792765 0.969159 0.900668
O O4 0.717117 0.840744 0.006871
O O5 0.143928 0.384563 0.115014
O O6 0.968845 0.493391 0.084805
O O7 0.160239 0.543352 0.016929
O O8 0.835506 0.886737 0.117038
O O9 0.877943 0.686643 0.091300
O O10 0.852510 0.781162 0.229557
O O11 0.972057 0.310685 0.172578
O O12 0.530361 0.240770 0.869371
O O13 0.584515 0.415486 0.125000
O O14 0.651294 0.235169 0.064785
O O15 0.500000 0.342325 0.000000
O O16 0.830889 0.830889 0.375000
#
# Coordination Sequence:
#
# PCOD8304865 Si02
#       7
#     8   8   8   8   8   8   8
#     4  10  22  41  59  82 118 164 211 244 302 380
#     4  10  21  34  59  88 116 155 202 259 304 351
#     4  10  22  37  59  85 120 165 200 247 302 370
#     4  11  22  36  60  89 122 155 202 260 307 361
#     4  10  20  36  57  87 119 154 202 247 300 374
#     4  11  22  38  63  90 120 156 199 249 308 375
#     4  10  22  36  56  89 124 156 193 248 310 360
#
# _framework density 20.168292000000001
#
# number of rings (size 3 to 8) (size 9 to 14) (size 15 to 20)
#    0.000    1.714    2.857    1.286    4.000    2.857 
#    0.000    2.857    0.000    6.857    0.000    0.000 
#    0.000    0.000    0.000    0.000    0.000    0.000 
#
# Total GULP energy -693919.581584 kJ/mol
# GULP energy per Si atom -12391.421100 kJ/mol
# Density = 2.012239 g / cm^3
# Si number density = 20.168292 Si / 1000 Ang^3
#
#
#
# Elastic Constant Matrix: (Units=GPa)
#
#
# Indices 1 2 3 4 5 6 
#
# 1 45.3220 16.6615 21.3080 0.0000 0.0000 0.0000
# 2 16.6615 45.3216 21.3078 0.0000 0.0000 0.0000
# 3 21.3080 21.3078 118.3881 0.0000 0.0000 0.0000
# 4 0.0000 0.0000 0.0000 30.7251 0.0000 0.0000
# 5 0.0000 0.0000 0.0000 0.0000 30.7252 0.0000
# 6 0.0000 0.0000 0.0000 0.0000 0.0000 24.5668
#
#
#
# Elastic Compliance Matrix: (Units=1/GPa)
#
#
# Indices 1 2 3 4 5 6 
#
# 1 0.026651 -0.008240 -0.003314 0.000000 0.000000 0.000000
# 2 -0.008240 0.026652 -0.003314 0.000000 0.000000 0.000000
# 3 -0.003314 -0.003314 0.009640 0.000000 0.000000 0.000000
# 4 0.000000 0.000000 0.000000 0.032547 0.000000 0.000000
# 5 0.000000 0.000000 0.000000 0.000000 0.032547 0.000000
# 6 0.000000 0.000000 0.000000 0.000000 0.000000 0.040705
#
#
# Mechanical properties :
#
#
# Convention : Reuss Voigt Hill
#
# Bulk Modulus (GPa) = 30.11329 36.39846 33.25587
# Shear Modulus (GPa) = 23.86115 27.18705 25.52410
#
# Velocity S-wave (km/s) = 3.44336 3.67551 3.56132
# Velocity P-wave (km/s) = 5.54728 6.00825 5.78236
#
# Compressibility (1/GPa) = 0.03320793
#
# Stress axis : x y z
#
# Youngs Moduli (GPa) = 37.52137 37.52106 103.73815
#
# Poissons Ratio (x) = 0.30917 0.34377
# Poissons Ratio (y) = 0.30917 0.34377
# Poissons Ratio (z) = 0.12434 0.12434
#
# Static dielectric constant tensor:
#      x y z
#    x 3.561970 0.000000 0.000000 
#    y 0.000000 3.561980 0.000000 
#    z 0.000000 0.000000 4.031920 
# 
# 
# High freq. dielectric constant tensor:
#      x y z
#    x 1.767600 0.000000 0.000000 
#    y 0.000000 1.767600 0.000000 
#    z 0.000000 0.000000 1.807830 
# 
# From -- ./inp_files/6399.got.cif
#   From: 2010.03.12/outbox.cif.g09.slc.cpg/sg91_4_cif.got.tgz:6399.got - 2010.04.08 20:27:58.
