data_PCOD8304173
_publ_section_title
;
Structure prediction by ZEFSAII (Michael W. Deem and Ramdas Pophale) SiO2 
 PCOD8304173
Probable space group: I 4/M
;
_chemical_formula_sum "Si O2"
_cell_formula_units_Z 52
_cell_length_a 16.523044
_cell_length_b 16.523044
_cell_length_c 8.606357
_cell_angle_alpha 90.000000
_cell_angle_beta 90.000000
_cell_angle_gamma 90.000000
_cell_volume 2349.629985
_symmetry_space_group_name_H-M "I 4/M"
_symmetry_group_IT_number 87
_symmetry_cell_setting 'tetragonal'
loop_
_space_group_symop_operation_xyz
x,y,z
-y,x,z
-x,-y,z
y,-x,z
-x,-y,-z
y,-x,-z
x,y,-z
-y,x,-z
1/2+x,1/2+y,1/2+z
1/2-y,1/2+x,1/2+z
1/2-x,1/2-y,1/2+z
1/2+y,1/2-x,1/2+z
1/2-x,1/2-y,1/2-z
1/2+y,1/2-x,1/2-z
1/2+x,1/2+y,1/2-z
1/2-y,1/2+x,1/2-z
loop_
_atom_site_type_symbol
_atom_site_label
_atom_site_fract_x
_atom_site_fract_y
_atom_site_fract_z
Si Si1 0.126458 0.625764 0.172391
Si Si2 0.414670 0.293775 0.317402
Si Si3 0.500000 0.000000 0.750000
Si Si4 0.080924 0.792982 0.682431
O O1 0.201039 0.587440 0.264677
O O2 0.094229 0.700544 0.271243
O O3 0.056811 0.558655 0.148303
O O4 0.153024 0.654501 0.000000
O O5 0.400830 0.301325 0.500000
O O6 0.502478 0.328875 0.270803
O O7 0.344618 0.341350 0.228855
O O8 0.065336 0.798236 0.500000
#
# Coordination Sequence:
#
# PCOD8304173 Si02
#       4
#    16  16   4  16
#     4  12  25  44  70 104 143 182 227 280 344 410
#     4  12  26  46  71 101 138 181 231 284 343 407
#     4  12  26  40  76 106 146 176 226 268 346 400
#     4  12  26  46  71 101 138 181 231 284 343 407
#
# _framework density 22.131146000000001
#
# number of rings (size 3 to 8) (size 9 to 14) (size 15 to 20)
#    0.000    0.000    3.077    7.846    0.000    3.077 
#    0.000    3.077    0.000    0.000    0.000    0.000 
#    0.000    0.000    0.000    0.000    0.000    0.000 
#
# Total GULP energy -322532.829381 kJ/mol
# GULP energy per Si atom -12405.108822 kJ/mol
# Density = 2.208077 g / cm^3
# Si number density = 22.131146 Si / 1000 Ang^3
#
#
#
# Elastic Constant Matrix: (Units=GPa)
#
#
# Indices 1 2 3 4 5 6 
#
# 1 103.1026 60.1294 15.3795 0.0000 0.0000 -6.9951
# 2 60.1294 103.1026 15.3795 0.0000 0.0000 6.9951
# 3 15.3795 15.3795 117.6663 0.0000 0.0000 0.0000
# 4 0.0000 0.0000 0.0000 24.3633 0.0000 0.0000
# 5 0.0000 0.0000 0.0000 0.0000 24.3633 0.0000
# 6 -6.9951 6.9951 0.0000 0.0000 0.0000 40.8097
#
#
#
# Elastic Compliance Matrix: (Units=1/GPa)
#
#
# Indices 1 2 3 4 5 6 
#
# 1 0.015463 -0.009182 -0.000821 0.000000 0.000000 0.004224
# 2 -0.009182 0.015463 -0.000821 0.000000 0.000000 -0.004224
# 3 -0.000821 -0.000821 0.008713 0.000000 0.000000 0.000000
# 4 0.000000 0.000000 0.000000 0.041045 0.000000 0.000000
# 5 0.000000 0.000000 0.000000 0.000000 0.041045 0.000000
# 6 0.004224 -0.004224 0.000000 0.000000 0.000000 0.025952
#
#
# Mechanical properties :
#
#
# Convention : Reuss Voigt Hill
#
# Bulk Modulus (GPa) = 55.58235 56.18313 55.88274
# Shear Modulus (GPa) = 28.51798 33.43949 30.97874
#
# Velocity S-wave (km/s) = 3.59359 3.89134 3.74542
# Velocity P-wave (km/s) = 6.51061 6.75511 6.63399
#
# Compressibility (1/GPa) = 0.01799132
#
# Stress axis : x y z
#
# Youngs Moduli (GPa) = 64.66942 64.66942 114.76823
#
# Poissons Ratio (x) = 0.59381 0.09422
# Poissons Ratio (y) = 0.59381 0.09422
# Poissons Ratio (z) = 0.05309 0.05309
#
# Static dielectric constant tensor:
#      x y z
#    x 4.111410 0.000000 0.000000 
#    y 0.000000 4.111410 0.000000 
#    z 0.000000 0.000000 3.939960 
# 
# 
# High freq. dielectric constant tensor:
#      x y z
#    x 1.878960 0.000000 0.000000 
#    y 0.000000 1.878960 0.000000 
#    z 0.000000 0.000000 1.883400 
# 
# From -- ./inp_files/662.got.cif
#   From: 2010.03.12/outbox.cif.g09.slc.cpg/sg87_1_cif.got.tgz:662.got - 2010.04.08 20:16:13.
