data_PCOD8304454
_publ_section_title
;
Structure prediction by ZEFSAII (Michael W. Deem and Ramdas Pophale) SiO2 
 PCOD8304454
Probable space group: I 41/A
;
_chemical_formula_sum "Si O2"
_cell_formula_units_Z 60
_cell_length_a 11.256183
_cell_length_b 11.256183
_cell_length_c 19.928938
_cell_angle_alpha 90.000000
_cell_angle_beta 90.000000
_cell_angle_gamma 90.000000
_cell_volume 2525.029442
_symmetry_space_group_name_H-M "I 41/A"
_symmetry_group_IT_number 88
_space_group.IT_coordinate_system_code '2'
_symmetry_cell_setting 'tetragonal'
loop_
_space_group_symop_operation_xyz
x,y,z
3/4-y,1/4+x,1/4+z
-x,1/2-y,z
1/4+y,1/4-x,1/4+z
-x,-y,-z
1/4+y,3/4-x,3/4-z
x,1/2+y,-z
3/4-y,3/4+x,3/4-z
1/2+x,1/2+y,1/2+z
1/4-y,3/4+x,3/4+z
1/2-x,-y,1/2+z
3/4+y,3/4-x,3/4+z
1/2-x,1/2-y,1/2-z
3/4+y,1/4-x,1/4-z
1/2+x,y,1/2-z
1/4-y,1/4+x,1/4-z
loop_
_atom_site_type_symbol
_atom_site_label
_atom_site_fract_x
_atom_site_fract_y
_atom_site_fract_z
Si Si1 0.890321 0.580901 0.983664
Si Si2 0.805931 0.094138 0.561524
Si Si3 0.500000 0.250000 0.729847
Si Si4 0.828742 0.704013 0.115326
Si Si5 0.500000 0.750000 0.625000
O O1 0.765962 0.507172 0.979870
O O2 0.915222 0.662921 0.918489
O O3 0.890072 0.664821 0.047650
O O4 0.000000 0.500000 0.000000
O O5 0.703067 0.159839 0.602602
O O6 0.894306 0.181936 0.519832
O O7 0.883800 0.041497 0.621053
O O8 0.407518 0.183842 0.681475
#
# Coordination Sequence:
#
# PCOD8304454 Si02
#       5
#    16  16   8  16   4
#     4  12  26  45  72 105 144 191 241 308 379 455
#     4  12  25  45  70 102 141 189 244 307 373 451
#     4  12  25  45  70 103 141 190 246 306 374 452
#     4  12  25  44  69 100 139 186 241 302 372 444
#     4  12  26  48  72 108 150 192 248 306 380 460
#
# _framework density 23.762098000000002
#
# number of rings (size 3 to 8) (size 9 to 14) (size 15 to 20)
#    0.000    0.000    0.000   11.200    0.000    4.267 
#    0.000    0.000    0.000    0.000    0.000    0.000 
#    0.000    0.000    0.000    0.000    0.000    0.000 
#
# Total GULP energy -371769.500019 kJ/mol
# GULP energy per Si atom -12392.316667 kJ/mol
# Density = 2.370801 g / cm^3
# Si number density = 23.762098 Si / 1000 Ang^3
#
#
#
# Elastic Constant Matrix: (Units=GPa)
#
#
# Indices 1 2 3 4 5 6 
#
# 1 121.6587 54.9412 55.9046 0.0000 0.0000 3.1677
# 2 54.9412 121.6587 55.9046 0.0000 0.0000 -3.1677
# 3 55.9046 55.9046 137.6631 0.0000 0.0000 0.0000
# 4 0.0000 0.0000 0.0000 42.1375 0.0000 0.0000
# 5 0.0000 0.0000 0.0000 0.0000 42.1375 0.0000
# 6 3.1677 -3.1677 0.0000 0.0000 0.0000 56.4563
#
#
#
# Elastic Compliance Matrix: (Units=1/GPa)
#
#
# Indices 1 2 3 4 5 6 
#
# 1 0.011346 -0.003723 -0.003095 0.000000 0.000000 -0.000845
# 2 -0.003723 0.011346 -0.003095 0.000000 0.000000 0.000845
# 3 -0.003095 -0.003095 0.009778 0.000000 0.000000 0.000000
# 4 0.000000 0.000000 0.000000 0.023732 0.000000 0.000000
# 5 0.000000 0.000000 0.000000 0.000000 0.023732 0.000000
# 6 -0.000845 0.000845 0.000000 0.000000 0.000000 0.017808
#
#
# Mechanical properties :
#
#
# Convention : Reuss Voigt Hill
#
# Bulk Modulus (GPa) = 79.10659 79.38682 79.24670
# Shear Modulus (GPa) = 41.05683 42.42829 41.74256
#
# Velocity S-wave (km/s) = 4.16123 4.23015 4.19583
# Velocity P-wave (km/s) = 7.51339 7.57235 7.54293
#
# Compressibility (1/GPa) = 0.01264117
#
# Stress axis : x y z
#
# Youngs Moduli (GPa) = 88.14022 88.14022 102.26879
#
# Poissons Ratio (x) = 0.32817 0.31656
# Poissons Ratio (y) = 0.32817 0.31656
# Poissons Ratio (z) = 0.27283 0.27283
#
# Static dielectric constant tensor:
#      x y z
#    x 4.496590 0.000000 0.000000 
#    y 0.000000 4.496590 0.000000 
#    z 0.000000 0.000000 4.194210 
# 
# 
# High freq. dielectric constant tensor:
#      x y z
#    x 1.960560 0.000000 0.000000 
#    y 0.000000 1.960560 0.000000 
#    z 0.000000 0.000000 1.948630 
# 
# From -- ./inp_files/4444.got.cif
#   From: 2010.03.12/outbox.cif.g09.slc.cpg/sg88_3_cif.got.tgz:4444.got - 2010.04.08 20:20:55.
