data_PCOD8304876
_publ_section_title
;
Structure prediction by ZEFSAII (Michael W. Deem and Ramdas Pophale) SiO2 
 PCOD8304876
Probable space group: P 41 2 2
;
_chemical_formula_sum "Si O2"
_cell_formula_units_Z 64
_cell_length_a 12.088598
_cell_length_b 12.088598
_cell_length_c 20.813493
_cell_angle_alpha 90.000000
_cell_angle_beta 90.000000
_cell_angle_gamma 90.000000
_cell_volume 3041.563182
_symmetry_space_group_name_H-M "P 41 2 2"
_symmetry_group_IT_number 91
_symmetry_cell_setting 'tetragonal'
loop_
_space_group_symop_operation_xyz
x,y,z
-y,x,1/4+z
-x,-y,1/2+z
y,-x,3/4+z
x,-y,1/2-z
-x,y,-z
y,x,3/4-z
-y,-x,1/4-z
loop_
_atom_site_type_symbol
_atom_site_label
_atom_site_fract_x
_atom_site_fract_y
_atom_site_fract_z
Si Si1 0.113493 0.231342 0.118893
Si Si2 0.445251 0.665648 0.064996
Si Si3 0.077533 0.522690 0.859840
Si Si4 0.250267 0.816668 0.011119
Si Si5 0.726607 0.880317 0.408144
Si Si6 0.057644 0.748657 0.797634
Si Si7 0.873604 0.392288 0.490172
Si Si8 0.541066 0.165291 0.348236
O O1 0.139457 0.278162 0.190249
O O2 0.173169 0.117062 0.100494
O O3 0.155548 0.332063 0.073632
O O4 0.980596 0.225525 0.113962
O O5 0.416292 0.583709 0.125000
O O6 0.342967 0.741710 0.044004
O O7 0.537236 0.746962 0.094099
O O8 0.500000 0.609700 0.000000
O O9 0.126798 0.406291 0.836508
O O10 0.081573 0.618062 0.806084
O O11 0.153866 0.570867 0.917668
O O12 0.950452 0.506504 0.877350
O O13 0.226732 0.925765 0.054266
O O14 0.143164 0.737780 0.004011
O O15 0.767931 0.767931 0.375000
O O16 0.780320 0.893959 0.478435
O O17 0.796575 0.465267 0.537962
O O18 0.000000 0.423659 0.500000
#
# Coordination Sequence:
#
# PCOD8304876 Si02
#       8
#     8   8   8   8   8   8   8   8
#     4  10  22  40  61  89 133 171 213 264 327 397
#     4  12  23  38  66  98 130 168 224 288 342 405
#     4  10  20  38  65  90 127 167 227 277 315 385
#     4  11  21  38  63  97 126 164 214 270 326 402
#     4  10  24  41  59  94 127 173 227 267 326 404
#     4  11  22  38  66  94 130 170 218 276 335 389
#     4  10  21  37  59  92 128 163 209 263 328 387
#     4  10  20  36  63  93 120 170 217 266 321 387
#
# _framework density 21.041810999999999
#
# number of rings (size 3 to 8) (size 9 to 14) (size 15 to 20)
#    0.000    1.500    5.000    0.375    1.750    0.500 
#    4.500    0.000    0.000    6.000    0.000    0.000 
#    0.000    0.000    0.000    0.000    0.000    0.000 
#
# Total GULP energy -793046.948709 kJ/mol
# GULP energy per Si atom -12391.358574 kJ/mol
# Density = 2.099392 g / cm^3
# Si number density = 21.041811 Si / 1000 Ang^3
#
#
#
# Elastic Constant Matrix: (Units=GPa)
#
#
# Indices 1 2 3 4 5 6 
#
# 1 81.1152 39.4716 33.1743 0.0000 0.0000 0.0000
# 2 39.4716 81.1151 33.1745 0.0000 0.0000 0.0000
# 3 33.1743 33.1745 92.5871 0.0000 0.0000 0.0000
# 4 0.0000 0.0000 0.0000 32.2201 0.0000 0.0000
# 5 0.0000 0.0000 0.0000 0.0000 32.2201 0.0000
# 6 0.0000 0.0000 0.0000 0.0000 0.0000 27.2398
#
#
#
# Elastic Compliance Matrix: (Units=1/GPa)
#
#
# Indices 1 2 3 4 5 6 
#
# 1 0.017171 -0.006842 -0.003701 0.000000 0.000000 0.000000
# 2 -0.006842 0.017171 -0.003701 0.000000 0.000000 0.000000
# 3 -0.003701 -0.003701 0.013453 0.000000 0.000000 0.000000
# 4 0.000000 0.000000 0.000000 0.031037 0.000000 0.000000
# 5 0.000000 0.000000 0.000000 0.000000 0.031037 0.000000
# 6 0.000000 0.000000 0.000000 0.000000 0.000000 0.036711
#
#
# Mechanical properties :
#
#
# Convention : Reuss Voigt Hill
#
# Bulk Modulus (GPa) = 51.79431 51.82870 51.81151
# Shear Modulus (GPa) = 27.54775 28.26914 27.90844
#
# Velocity S-wave (km/s) = 3.62220 3.66932 3.64584
# Velocity P-wave (km/s) = 6.49324 6.52967 6.51148
#
# Compressibility (1/GPa) = 0.01930714
#
# Stress axis : x y z
#
# Youngs Moduli (GPa) = 58.23708 58.23689 74.33399
#
# Poissons Ratio (x) = 0.39846 0.27511
# Poissons Ratio (y) = 0.39846 0.27511
# Poissons Ratio (z) = 0.21553 0.21554
#
# Static dielectric constant tensor:
#      x y z
#    x 3.652740 0.000000 0.000000 
#    y 0.000000 3.652740 0.000000 
#    z 0.000000 0.000000 4.015150 
# 
# 
# High freq. dielectric constant tensor:
#      x y z
#    x 1.806660 0.000000 0.000000 
#    y 0.000000 1.806660 0.000000 
#    z 0.000000 0.000000 1.828120 
# 
# From -- ./inp_files/12963.got.cif
#   From: 2010.03.12/outbox.cif.g09.slc.cpg/sg91_7_cif.got.tgz:12963.got - 2010.04.08 20:27:58.
