data_PCOD8304158
_publ_section_title
;
Structure prediction by ZEFSAII (Michael W. Deem and Ramdas Pophale) SiO2 
 PCOD8304158
Probable space group: I 4/M
;
_chemical_formula_sum "Si O2"
_cell_formula_units_Z 88
_cell_length_a 11.078385
_cell_length_b 11.078385
_cell_length_c 34.085478
_cell_angle_alpha 90.000000
_cell_angle_beta 90.000000
_cell_angle_gamma 90.000000
_cell_volume 4183.331651
_symmetry_space_group_name_H-M "I 4/M"
_symmetry_group_IT_number 87
_symmetry_cell_setting 'tetragonal'
loop_
_space_group_symop_operation_xyz
x,y,z
-y,x,z
-x,-y,z
y,-x,z
-x,-y,-z
y,-x,-z
x,y,-z
-y,x,-z
1/2+x,1/2+y,1/2+z
1/2-y,1/2+x,1/2+z
1/2-x,1/2-y,1/2+z
1/2+y,1/2-x,1/2+z
1/2-x,1/2-y,1/2-z
1/2+y,1/2-x,1/2-z
1/2+x,1/2+y,1/2-z
1/2-y,1/2+x,1/2-z
loop_
_atom_site_type_symbol
_atom_site_label
_atom_site_fract_x
_atom_site_fract_y
_atom_site_fract_z
Si Si1 0.190018 0.055524 0.692272
Si Si2 0.300181 0.506497 0.500000
Si Si3 0.626739 0.058655 0.842870
Si Si4 0.819813 0.930380 0.546054
Si Si5 0.693646 0.526146 0.282313
Si Si6 0.939608 0.629975 0.070996
O O1 0.301304 0.107579 0.667959
O O2 0.080448 0.147053 0.682697
O O3 0.231803 0.048613 0.737589
O O4 0.376126 0.384073 0.500000
O O5 0.218972 0.504759 0.538869
O O6 0.691958 0.974511 0.810662
O O7 0.688611 0.043223 0.885679
O O8 0.500000 0.000000 0.848187
O O9 0.796975 0.922752 0.500000
O O10 0.703795 0.882474 0.567963
O O11 0.931971 0.846589 0.558509
O O12 0.602211 0.633116 0.291994
O O13 0.000000 0.500000 0.064997
#
# Coordination Sequence:
#
# PCOD8304158 Si02
#       6
#    16   8  16  16  16  16
#     4   9  21  41  64  91 125 167 211 260 321 382
#     4  11  27  48  72  95 120 172 224 259 309 376
#     4  11  26  38  59  98 129 163 212 261 318 379
#     4   9  19  36  63  95 118 152 205 254 311 381
#     4   9  21  41  64  88 120 169 217 260 314 370
#     4  11  25  42  63  93 130 167 207 264 323 371
#
# _framework density 21.035864
#
# number of rings (size 3 to 8) (size 9 to 14) (size 15 to 20)
#    0.000    2.091    0.909    1.909    7.636    4.364 
#    0.000    3.636    0.000    0.000    0.000    0.000 
#    0.000    0.000    0.000    0.000    0.000    0.000 
#
# Total GULP energy -545404.892386 kJ/mol
# GULP energy per Si atom -12395.565736 kJ/mol
# Density = 2.098799 g / cm^3
# Si number density = 21.035864 Si / 1000 Ang^3
#
#
#
# Elastic Constant Matrix: (Units=GPa)
#
#
# Indices 1 2 3 4 5 6 
#
# 1 54.2280 0.2465 36.0638 0.0000 0.0000 0.4793
# 2 0.2465 54.2280 36.0638 0.0000 0.0000 -0.4793
# 3 36.0638 36.0638 122.7676 0.0000 0.0000 0.0000
# 4 0.0000 0.0000 0.0000 6.5529 0.0000 0.0000
# 5 0.0000 0.0000 0.0000 0.0000 6.5529 0.0000
# 6 0.4793 -0.4793 0.0000 0.0000 0.0000 20.7675
#
#
#
# Elastic Compliance Matrix: (Units=1/GPa)
#
#
# Indices 1 2 3 4 5 6 
#
# 1 0.024287 0.005755 -0.008825 0.000000 0.000000 -0.000428
# 2 0.005755 0.024287 -0.008825 0.000000 0.000000 0.000428
# 3 -0.008825 -0.008825 0.013330 0.000000 0.000000 0.000000
# 4 0.000000 0.000000 0.000000 0.152605 0.000000 0.000000
# 5 0.000000 0.000000 0.000000 0.000000 0.152604 0.000000
# 6 -0.000428 0.000428 0.000000 0.000000 0.000000 0.048172
#
#
# Mechanical properties :
#
#
# Convention : Reuss Voigt Hill
#
# Bulk Modulus (GPa) = 26.23685 41.77462 34.00574
# Shear Modulus (GPa) = 11.06731 17.36464 14.21597
#
# Velocity S-wave (km/s) = 2.29621 2.87623 2.60243
# Velocity P-wave (km/s) = 4.41923 5.56167 5.02304
#
# Compressibility (1/GPa) = 0.03811433
#
# Stress axis : x y z
#
# Youngs Moduli (GPa) = 41.17379 41.17378 75.01704
#
# Poissons Ratio (x) = -0.23695 0.66203
# Poissons Ratio (y) = -0.23695 0.66203
# Poissons Ratio (z) = 0.36336 0.36336
#
# Static dielectric constant tensor:
#      x y z
#    x 3.882990 0.000000 0.000000 
#    y 0.000000 3.882990 0.000000 
#    z 0.000000 0.000000 3.927550 
# 
# 
# High freq. dielectric constant tensor:
#      x y z
#    x 1.825020 0.000000 0.000000 
#    y 0.000000 1.825020 0.000000 
#    z 0.000000 0.000000 1.823480 
# 
# From -- ./inp_files/6588.got.cif
#   From: 2010.03.12/outbox.cif.g09.slc.cpg/sg87_4_cif.got.tgz:6588.got - 2010.04.08 20:16:13.
