data_PCOD8304630
_publ_section_title
;
Structure prediction by ZEFSAII (Michael W. Deem and Ramdas Pophale) SiO2 
 PCOD8304630
Probable space group: P 4 21 2
;
_chemical_formula_sum "Si O2"
_cell_formula_units_Z 56
_cell_length_a 14.636162
_cell_length_b 14.636162
_cell_length_c 13.743168
_cell_angle_alpha 90.000000
_cell_angle_beta 90.000000
_cell_angle_gamma 90.000000
_cell_volume 2944.023492
_symmetry_space_group_name_H-M "P 4 21 2"
_symmetry_group_IT_number 90
_symmetry_cell_setting 'tetragonal'
loop_
_space_group_symop_operation_xyz
x,y,z
1/2-y,1/2+x,z
-x,-y,z
1/2+y,1/2-x,z
1/2+x,1/2-y,-z
1/2-x,1/2+y,-z
y,x,-z
-y,-x,-z
loop_
_atom_site_type_symbol
_atom_site_label
_atom_site_fract_x
_atom_site_fract_y
_atom_site_fract_z
Si Si1 0.831216 0.317489 0.301820
Si Si2 0.523212 0.853537 0.002813
Si Si3 0.573313 0.421733 0.889470
Si Si4 0.756173 0.489627 0.808857
Si Si5 0.888951 0.396392 0.501024
Si Si6 0.680144 0.164137 0.294342
Si Si7 0.736240 0.994116 0.803705
O O1 0.835624 0.348921 0.413027
O O2 0.747155 0.249779 0.285526
O O3 0.817997 0.405895 0.233959
O O4 0.925857 0.266608 0.276255
O O5 0.603382 0.924553 0.016799
O O6 0.535876 0.811457 0.897735
O O7 0.532463 0.778511 0.086204
O O8 0.500000 0.500000 0.899732
O O9 0.653346 0.454677 0.818034
O O10 0.528753 0.338871 0.831794
O O11 0.605971 0.394029 0.000000
O O12 0.765975 0.571326 0.731402
O O13 0.822047 0.406132 0.777583
O O14 0.872881 0.504424 0.496664
O O15 0.842885 0.356996 0.597090
#
# Coordination Sequence:
#
# PCOD8304630 Si02
#       7
#     8   8   8   8   8   8   8
#     4  12  25  42  66  92 129 168 211 266 323 386
#     4  11  22  35  58  93 131 162 206 263 317 378
#     4  11  24  42  62  89 135 178 218 262 303 373
#     4  12  23  40  64  94 125 172 216 256 320 379
#     4  11  23  42  70  96 121 157 210 270 330 388
#     4  12  25  42  66  92 129 168 211 266 323 386
#     4  12  23  40  64  94 125 172 216 256 320 379
#
# _framework density 19.021588000000001
#
# number of rings (size 3 to 8) (size 9 to 14) (size 15 to 20)
#    0.000    0.429    8.571    1.286    0.000    0.571 
#    0.000    1.429    0.000    0.000    0.000    6.000 
#    0.000    0.000    0.000    0.000    0.000    0.000 
#
# Total GULP energy -694580.554819 kJ/mol
# GULP energy per Si atom -12403.224193 kJ/mol
# Density = 1.897829 g / cm^3
# Si number density = 19.021588 Si / 1000 Ang^3
#
#
#
# Elastic Constant Matrix: (Units=GPa)
#
#
# Indices 1 2 3 4 5 6 
#
# 1 68.0311 8.4138 14.3048 0.0000 0.0000 0.0000
# 2 8.4138 68.0313 14.3049 0.0000 0.0000 0.0000
# 3 14.3048 14.3049 86.6519 0.0000 0.0000 0.0000
# 4 0.0000 0.0000 0.0000 31.7177 0.0000 0.0000
# 5 0.0000 0.0000 0.0000 0.0000 31.7172 0.0000
# 6 0.0000 0.0000 0.0000 0.0000 0.0000 43.5574
#
#
#
# Elastic Compliance Matrix: (Units=1/GPa)
#
#
# Indices 1 2 3 4 5 6 
#
# 1 0.015358 -0.001415 -0.002302 0.000000 0.000000 0.000000
# 2 -0.001415 0.015358 -0.002302 0.000000 0.000000 0.000000
# 3 -0.002302 -0.002302 0.012300 0.000000 0.000000 0.000000
# 4 0.000000 0.000000 0.000000 0.031528 0.000000 0.000000
# 5 0.000000 0.000000 0.000000 0.000000 0.031529 0.000000
# 6 0.000000 0.000000 0.000000 0.000000 0.000000 0.022958
#
#
# Mechanical properties :
#
#
# Convention : Reuss Voigt Hill
#
# Bulk Modulus (GPa) = 32.27999 32.97348 32.62674
# Shear Modulus (GPa) = 33.02603 33.77786 33.40195
#
# Velocity S-wave (km/s) = 4.17134 4.21855 4.19501
# Velocity P-wave (km/s) = 6.34091 6.41098 6.37604
#
# Compressibility (1/GPa) = 0.03097894
#
# Stress axis : x y z
#
# Youngs Moduli (GPa) = 65.11185 65.11203 81.29832
#
# Poissons Ratio (x) = 0.09216 0.18713
# Poissons Ratio (y) = 0.09216 0.18713
# Poissons Ratio (z) = 0.14987 0.14987
#
# Static dielectric constant tensor:
#      x y z
#    x 3.577050 0.000000 0.000000 
#    y 0.000000 3.577050 0.000000 
#    z 0.000000 0.000000 3.563680 
# 
# 
# High freq. dielectric constant tensor:
#      x y z
#    x 1.741840 0.000000 0.000000 
#    y 0.000000 1.741840 0.000000 
#    z 0.000000 0.000000 1.748350 
# 
# From -- ./inp_files/2231.got.cif
#   From: 2010.03.12/outbox.cif.g09.slc.cpg/sg90_2_cif.got.tgz:2231.got - 2010.04.08 20:26:03.
