data_PCOD8304363
_publ_section_title
;
Structure prediction by ZEFSAII (Michael W. Deem and Ramdas Pophale) SiO2 
 PCOD8304363
Probable space group: I 41/A
;
_chemical_formula_sum "Si O2"
_cell_formula_units_Z 96
_cell_length_a 14.430095
_cell_length_b 14.430095
_cell_length_c 19.413899
_cell_angle_alpha 90.000000
_cell_angle_beta 90.000000
_cell_angle_gamma 90.000000
_cell_volume 4042.510405
_symmetry_space_group_name_H-M "I 41/A"
_symmetry_group_IT_number 88
_space_group.IT_coordinate_system_code '2'
_symmetry_cell_setting 'tetragonal'
loop_
_space_group_symop_operation_xyz
x,y,z
3/4-y,1/4+x,1/4+z
-x,1/2-y,z
1/4+y,1/4-x,1/4+z
-x,-y,-z
1/4+y,3/4-x,3/4-z
x,1/2+y,-z
3/4-y,3/4+x,3/4-z
1/2+x,1/2+y,1/2+z
1/4-y,3/4+x,3/4+z
1/2-x,-y,1/2+z
3/4+y,3/4-x,3/4+z
1/2-x,1/2-y,1/2-z
3/4+y,1/4-x,1/4-z
1/2+x,y,1/2-z
1/4-y,1/4+x,1/4-z
loop_
_atom_site_type_symbol
_atom_site_label
_atom_site_fract_x
_atom_site_fract_y
_atom_site_fract_z
Si Si1 0.625957 0.368336 0.974058
Si Si2 0.286561 0.217928 0.852446
Si Si3 0.633794 0.250313 0.409507
Si Si4 0.658026 0.223797 0.084098
Si Si5 0.299207 0.046786 0.759534
Si Si6 0.859307 0.678810 0.059497
O O1 0.643192 0.290304 0.916478
O O2 0.532178 0.423923 0.958431
O O3 0.610707 0.308923 0.043447
O O4 0.709643 0.446047 0.974885
O O5 0.275014 0.116314 0.821826
O O6 0.192651 0.257238 0.884901
O O7 0.585470 0.155939 0.385226
O O8 0.741217 0.241010 0.394055
O O9 0.616264 0.264664 0.490891
O O10 0.602132 0.204955 0.154364
O O11 0.663636 0.127839 0.041287
O O12 0.336231 0.950500 0.790823
#
# Coordination Sequence:
#
# PCOD8304363 Si02
#       6
#    16  16  16  16  16  16
#     4  12  24  42  68 104 140 193 231 285 376 419
#     4  12  22  44  66 101 147 186 231 297 361 428
#     4  10  24  49  71  94 135 184 236 308 364 418
#     4  11  24  44  71 108 139 187 242 294 361 447
#     4  11  23  44  68 103 149 187 236 301 351 432
#     4  11  24  45  71 102 143 182 247 297 352 442
#
# _framework density 23.747619
#
# number of rings (size 3 to 8) (size 9 to 14) (size 15 to 20)
#    0.000    0.833    6.667    0.500    2.333    3.000 
#    6.000    0.000    0.000    0.000    0.000    0.000 
#    0.000    0.000    0.000    0.000    0.000    0.000 
#
# Total GULP energy -595035.215197 kJ/mol
# GULP energy per Si atom -12396.566983 kJ/mol
# Density = 2.369357 g / cm^3
# Si number density = 23.747619 Si / 1000 Ang^3
#
#
#
# Elastic Constant Matrix: (Units=GPa)
#
#
# Indices 1 2 3 4 5 6 
#
# 1 77.0151 5.6562 46.1844 0.0000 0.0000 -1.1328
# 2 5.6562 77.0151 46.1844 0.0000 0.0000 1.1328
# 3 46.1844 46.1844 105.0671 0.0000 0.0000 0.0000
# 4 0.0000 0.0000 0.0000 50.6142 0.0000 0.0000
# 5 0.0000 0.0000 0.0000 0.0000 50.6142 0.0000
# 6 -1.1328 1.1328 0.0000 0.0000 0.0000 24.8230
#
#
#
# Elastic Compliance Matrix: (Units=1/GPa)
#
#
# Indices 1 2 3 4 5 6 
#
# 1 0.018902 0.004868 -0.010449 0.000000 0.000000 0.000640
# 2 0.004868 0.018902 -0.010449 0.000000 0.000000 -0.000640
# 3 -0.010449 -0.010449 0.018704 0.000000 0.000000 0.000000
# 4 0.000000 0.000000 0.000000 0.019757 0.000000 0.000000
# 5 0.000000 0.000000 0.000000 0.000000 0.019757 0.000000
# 6 0.000640 -0.000640 0.000000 0.000000 0.000000 0.040344
#
#
# Mechanical properties :
#
#
# Convention : Reuss Voigt Hill
#
# Bulk Modulus (GPa) = 40.90053 50.57191 45.73622
# Shear Modulus (GPa) = 28.31651 35.94844 32.13247
#
# Velocity S-wave (km/s) = 3.45685 3.89494 3.68242
# Velocity P-wave (km/s) = 5.76138 6.44742 6.11403
#
# Compressibility (1/GPa) = 0.02444956
#
# Stress axis : x y z
#
# Youngs Moduli (GPa) = 52.90354 52.90354 53.46518
#
# Poissons Ratio (x) = -0.25755 0.55865
# Poissons Ratio (y) = -0.25755 0.55865
# Poissons Ratio (z) = 0.55278 0.55278
#
# Static dielectric constant tensor:
#      x y z
#    x 4.331020 0.000000 0.000000 
#    y 0.000000 4.331020 0.000000 
#    z 0.000000 0.000000 4.593760 
# 
# 
# High freq. dielectric constant tensor:
#      x y z
#    x 1.932030 0.000000 0.000000 
#    y 0.000000 1.932030 0.000000 
#    z 0.000000 0.000000 1.952880 
# 
# From -- ./inp_files/4696.got.cif
#   From: 2010.03.12/outbox.cif.g09.slc.cpg/sg88_3_cif.got.tgz:4696.got - 2010.04.08 20:20:55.
