data_PCOD8304407
_publ_section_title
;
Structure prediction by ZEFSAII (Michael W. Deem and Ramdas Pophale) SiO2 
 PCOD8304407
Probable space group: I 41/A
;
_chemical_formula_sum "Si O2"
_cell_formula_units_Z 72
_cell_length_a 13.135888
_cell_length_b 13.135888
_cell_length_c 16.834115
_cell_angle_alpha 90.000000
_cell_angle_beta 90.000000
_cell_angle_gamma 90.000000
_cell_volume 2904.752696
_symmetry_space_group_name_H-M "I 41/A"
_symmetry_group_IT_number 88
_space_group.IT_coordinate_system_code '2'
_symmetry_cell_setting 'tetragonal'
loop_
_space_group_symop_operation_xyz
x,y,z
3/4-y,1/4+x,1/4+z
-x,1/2-y,z
1/4+y,1/4-x,1/4+z
-x,-y,-z
1/4+y,3/4-x,3/4-z
x,1/2+y,-z
3/4-y,3/4+x,3/4-z
1/2+x,1/2+y,1/2+z
1/4-y,3/4+x,3/4+z
1/2-x,-y,1/2+z
3/4+y,3/4-x,3/4+z
1/2-x,1/2-y,1/2-z
3/4+y,1/4-x,1/4-z
1/2+x,y,1/2-z
1/4-y,1/4+x,1/4-z
loop_
_atom_site_type_symbol
_atom_site_label
_atom_site_fract_x
_atom_site_fract_y
_atom_site_fract_z
Si Si1 0.415893 0.385390 0.169949
Si Si2 0.577969 0.548102 0.206721
Si Si3 0.500000 0.250000 0.717614
Si Si4 0.433333 0.621602 0.582351
Si Si5 0.777195 0.486423 0.849214
O O1 0.482706 0.472985 0.212063
O O2 0.465089 0.340672 0.090314
O O3 0.399289 0.301418 0.239248
O O4 0.306362 0.426331 0.146269
O O5 0.539425 0.662051 0.223628
O O6 0.629459 0.529005 0.120593
O O7 0.672597 0.522264 0.263338
O O8 0.365563 0.706119 0.628706
O O9 0.371006 0.516003 0.591506
#
# Coordination Sequence:
#
# PCOD8304407 Si02
#       5
#    16  16   8  16  16
#     4  12  26  45  74 111 149 197 247 314 378 452
#     4  12  27  51  74 113 146 198 257 319 378 457
#     4  12  28  48  78 108 152 196 254 306 380 458
#     4  11  23  40  70 113 153 197 247 308 386 451
#     4  12  26  46  77 106 151 198 254 313 382 451
#
# _framework density 24.786963
#
# number of rings (size 3 to 8) (size 9 to 14) (size 15 to 20)
#    0.000    0.222    6.667    2.667    0.000    3.556 
#    0.000    0.000    0.000    0.000    0.000    0.000 
#    0.000    0.000    0.000    0.000    0.000    0.000 
#
# Total GULP energy -446298.164025 kJ/mol
# GULP energy per Si atom -12397.171223 kJ/mol
# Density = 2.473055 g / cm^3
# Si number density = 24.786963 Si / 1000 Ang^3
#
#
#
# Elastic Constant Matrix: (Units=GPa)
#
#
# Indices 1 2 3 4 5 6 
#
# 1 93.9493 21.1390 6.2406 0.0000 0.0000 -0.5539
# 2 21.1390 93.9493 6.2406 0.0000 0.0000 0.5539
# 3 6.2406 6.2406 35.8545 0.0000 0.0000 0.0000
# 4 0.0000 0.0000 0.0000 42.1950 0.0000 0.0000
# 5 0.0000 0.0000 0.0000 0.0000 42.1950 0.0000
# 6 -0.5539 0.5539 0.0000 0.0000 0.0000 51.6903
#
#
#
# Elastic Compliance Matrix: (Units=1/GPa)
#
#
# Indices 1 2 3 4 5 6 
#
# 1 0.011296 -0.002440 -0.001541 0.000000 0.000000 0.000147
# 2 -0.002440 0.011296 -0.001541 0.000000 0.000000 -0.000147
# 3 -0.001541 -0.001541 0.028427 0.000000 0.000000 0.000000
# 4 0.000000 0.000000 0.000000 0.023699 0.000000 0.000000
# 5 0.000000 0.000000 0.000000 0.000000 0.023699 0.000000
# 6 0.000147 -0.000147 0.000000 0.000000 0.000000 0.019349
#
#
# Mechanical properties :
#
#
# Convention : Reuss Voigt Hill
#
# Bulk Modulus (GPa) = 25.01649 32.33260 28.67455
# Shear Modulus (GPa) = 35.17691 39.89157 37.53424
#
# Velocity S-wave (km/s) = 3.77127 4.01606 3.89559
# Velocity P-wave (km/s) = 5.39239 5.88026 5.64160
#
# Compressibility (1/GPa) = 0.03997363
#
# Stress axis : x y z
#
# Youngs Moduli (GPa) = 88.52413 88.52413 35.17769
#
# Poissons Ratio (x) = 0.21602 0.05422
# Poissons Ratio (y) = 0.21602 0.05422
# Poissons Ratio (z) = 0.13646 0.13646
#
# Static dielectric constant tensor:
#      x y z
#    x 4.395710 0.000000 0.000000 
#    y 0.000000 4.395710 0.000000 
#    z 0.000000 0.000000 4.392650 
# 
# 
# High freq. dielectric constant tensor:
#      x y z
#    x 1.989480 0.000000 0.000000 
#    y 0.000000 1.989480 0.000000 
#    z 0.000000 0.000000 1.983600 
# 
# From -- ./inp_files/3797.got.cif
#   From: 2010.03.12/outbox.cif.g09.slc.cpg/sg88_2_cif.got.tgz:3797.got - 2010.04.08 20:20:55.
