data_PCOD8304098
_publ_section_title
;
Structure prediction by ZEFSAII (Michael W. Deem and Ramdas Pophale) SiO2 
 PCOD8304098
Probable space group: I 4/M
;
_chemical_formula_sum "Si O2"
_cell_formula_units_Z 96
_cell_length_a 14.185853
_cell_length_b 14.185853
_cell_length_c 20.152064
_cell_angle_alpha 90.000000
_cell_angle_beta 90.000000
_cell_angle_gamma 90.000000
_cell_volume 4055.369627
_symmetry_space_group_name_H-M "I 4/M"
_symmetry_group_IT_number 87
_symmetry_cell_setting 'tetragonal'
loop_
_space_group_symop_operation_xyz
x,y,z
-y,x,z
-x,-y,z
y,-x,z
-x,-y,-z
y,-x,-z
x,y,-z
-y,x,-z
1/2+x,1/2+y,1/2+z
1/2-y,1/2+x,1/2+z
1/2-x,1/2-y,1/2+z
1/2+y,1/2-x,1/2+z
1/2-x,1/2-y,1/2-z
1/2+y,1/2-x,1/2-z
1/2+x,1/2+y,1/2-z
1/2-y,1/2+x,1/2-z
loop_
_atom_site_type_symbol
_atom_site_label
_atom_site_fract_x
_atom_site_fract_y
_atom_site_fract_z
Si Si1 0.930937 0.138736 0.000000
Si Si2 0.861780 0.660401 0.079388
Si Si3 0.154456 0.824520 0.371725
Si Si4 0.936828 0.272950 0.884243
Si Si5 0.359144 0.435368 0.732865
Si Si6 0.315163 0.949015 0.579151
Si Si7 0.358325 0.445004 0.000000
O O1 0.899311 0.195740 0.064234
O O2 0.042356 0.124992 0.000000
O O3 0.773991 0.711443 0.119628
O O4 0.860428 0.549035 0.099578
O O5 0.951804 0.711594 0.109497
O O6 0.857096 0.676710 0.000000
O O7 0.089019 0.830860 0.307813
O O8 0.220062 0.915730 0.381072
O O9 0.078869 0.803357 0.432489
O O10 0.908181 0.230378 0.812556
O O11 0.892839 0.373463 0.900271
O O12 0.454410 0.377581 0.718882
O O13 0.291898 0.948003 0.500000
O O14 0.447274 0.379682 0.000000
#
# Coordination Sequence:
#
# PCOD8304098 Si02
#       7
#     8  16  16  16  16  16   8
#     4  11  24  40  67 102 136 182 245 312 366 417
#     4  11  23  43  70 106 146 184 237 300 365 432
#     4  12  24  42  73 101 142 185 237 299 362 445
#     4  12  25  43  71  98 145 192 245 299 363 433
#     4  11  26  48  70  99 142 191 240 300 368 436
#     4  11  23  42  71 108 144 185 238 300 367 438
#     4  11  20  34  64 104 136 170 219 286 360 430
#
# _framework density 23.672318000000001
#
# number of rings (size 3 to 8) (size 9 to 14) (size 15 to 20)
#    0.000    0.667    3.333    4.500    4.667    4.667 
#    3.000    0.000    0.000    0.000    0.000    0.000 
#    0.000    0.000    0.000    0.000    0.000    0.000 
#
# Total GULP energy -594940.757484 kJ/mol
# GULP energy per Si atom -12394.599114 kJ/mol
# Density = 2.361844 g / cm^3
# Si number density = 23.672318 Si / 1000 Ang^3
#
#
#
# Elastic Constant Matrix: (Units=GPa)
#
#
# Indices 1 2 3 4 5 6 
#
# 1 56.8033 -16.2177 28.4122 0.0000 0.0000 -5.2858
# 2 -16.2177 56.8033 28.4122 0.0000 0.0000 5.2858
# 3 28.4122 28.4122 126.0657 0.0000 0.0000 0.0000
# 4 0.0000 0.0000 0.0000 25.3037 0.0000 0.0000
# 5 0.0000 0.0000 0.0000 0.0000 25.3037 0.0000
# 6 -5.2858 5.2858 0.0000 0.0000 0.0000 28.7276
#
#
#
# Elastic Compliance Matrix: (Units=1/GPa)
#
#
# Indices 1 2 3 4 5 6 
#
# 1 0.025034 0.010965 -0.008113 0.000000 0.000000 0.002589
# 2 0.010965 0.025034 -0.008113 0.000000 0.000000 -0.002589
# 3 -0.008113 -0.008113 0.011589 0.000000 0.000000 0.000000
# 4 0.000000 0.000000 0.000000 0.039520 0.000000 0.000000
# 5 0.000000 0.000000 0.000000 0.000000 0.039520 0.000000
# 6 0.002589 -0.002589 0.000000 0.000000 0.000000 0.035762
#
#
# Mechanical properties :
#
#
# Convention : Reuss Voigt Hill
#
# Bulk Modulus (GPa) = 19.55645 35.65394 27.60520
# Shear Modulus (GPa) = 24.50638 29.13802 26.82220
#
# Velocity S-wave (km/s) = 3.22100 3.51221 3.36975
# Velocity P-wave (km/s) = 4.70238 5.61619 5.17948
#
# Compressibility (1/GPa) = 0.05113402
#
# Stress axis : x y z
#
# Youngs Moduli (GPa) = 39.94543 39.94542 86.28539
#
# Poissons Ratio (x) = -0.43799 0.70006
# Poissons Ratio (y) = -0.43799 0.70006
# Poissons Ratio (z) = 0.32409 0.32409
#
# Static dielectric constant tensor:
#      x y z
#    x 4.467920 0.000000 0.000000 
#    y 0.000000 4.467920 0.000000 
#    z 0.000000 0.000000 4.072330 
# 
# 
# High freq. dielectric constant tensor:
#      x y z
#    x 1.959380 0.000000 0.000000 
#    y 0.000000 1.959380 0.000000 
#    z 0.000000 0.000000 1.912430 
# 
# From -- ./inp_files/5369.got.cif
#   From: 2010.03.12/outbox.cif.g09.slc.cpg/sg87_3_cif.got.tgz:5369.got - 2010.04.08 20:16:13.
