data_PCOD8304118
_publ_section_title
;
Structure prediction by ZEFSAII (Michael W. Deem and Ramdas Pophale) SiO2 
 PCOD8304118
Probable space group: I 4/M
;
_chemical_formula_sum "Si O2"
_cell_formula_units_Z 120
_cell_length_a 14.638705
_cell_length_b 14.638705
_cell_length_c 27.480940
_cell_angle_alpha 90.000000
_cell_angle_beta 90.000000
_cell_angle_gamma 90.000000
_cell_volume 5888.936913
_symmetry_space_group_name_H-M "I 4/M"
_symmetry_group_IT_number 87
_symmetry_cell_setting 'tetragonal'
loop_
_space_group_symop_operation_xyz
x,y,z
-y,x,z
-x,-y,z
y,-x,z
-x,-y,-z
y,-x,-z
x,y,-z
-y,x,-z
1/2+x,1/2+y,1/2+z
1/2-y,1/2+x,1/2+z
1/2-x,1/2-y,1/2+z
1/2+y,1/2-x,1/2+z
1/2-x,1/2-y,1/2-z
1/2+y,1/2-x,1/2-z
1/2+x,1/2+y,1/2-z
1/2-y,1/2+x,1/2-z
loop_
_atom_site_type_symbol
_atom_site_label
_atom_site_fract_x
_atom_site_fract_y
_atom_site_fract_z
Si Si1 0.871061 0.920779 0.396882
Si Si2 0.154761 0.571031 0.809553
Si Si3 0.215545 0.459642 0.356305
Si Si4 0.867559 0.377790 0.703135
Si Si5 0.078565 0.871507 0.500000
Si Si6 0.850142 0.983955 0.943403
Si Si7 0.431591 0.630641 0.289204
Si Si8 0.834352 0.183667 0.303670
O O1 0.824508 0.892408 0.449073
O O2 0.806280 0.879755 0.356389
O O3 0.970820 0.876705 0.391668
O O4 0.102715 0.624065 0.853679
O O5 0.108306 0.584950 0.756788
O O6 0.149490 0.463809 0.822272
O O7 0.257252 0.607207 0.803768
O O8 0.190116 0.554809 0.330624
O O9 0.258539 0.474658 0.410143
O O10 0.287959 0.400807 0.324538
O O11 0.803213 0.287257 0.709176
O O12 0.970604 0.877997 0.500000
O O13 0.920289 0.901131 0.932079
O O14 0.820002 0.980620 0.000000
O O15 0.378732 0.538536 0.301344
O O16 0.414973 0.655072 0.233194
#
# Coordination Sequence:
#
# PCOD8304118 Si02
#       8
#    16  16  16  16   8  16  16  16
#     4   9  16  29  51  77 109 145 182 234 303 366
#     4  12  25  40  61  84 122 173 217 254 313 389
#     4  12  24  37  66  90 125 168 214 260 310 382
#     4  12  24  42  59  84 124 170 214 257 312 388
#     4   7  12  24  46  74 100 138 184 220 273 360
#     4   9  20  41  71 105 137 169 210 271 346 402
#     4  11  22  35  54  88 126 156 193 251 318 373
#     4  12  23  36  56  85 117 157 205 261 316 373
#
# _framework density 20.377191
#
# number of rings (size 3 to 8) (size 9 to 14) (size 15 to 20)
#    0.000    1.267    2.667    6.000    3.733    2.133 
#    0.000    0.000    2.933    1.600    0.000    0.000 
#    0.000    0.000    0.000    0.000    0.000    0.000 
#
# Total GULP energy -743486.979915 kJ/mol
# GULP energy per Si atom -12391.449665 kJ/mol
# Density = 2.033081 g / cm^3
# Si number density = 20.377191 Si / 1000 Ang^3
#
#
#
# Elastic Constant Matrix: (Units=GPa)
#
#
# Indices 1 2 3 4 5 6 
#
# 1 76.3182 23.6857 24.5833 0.0000 0.0000 -1.0708
# 2 23.6857 76.3182 24.5833 0.0000 0.0000 1.0708
# 3 24.5833 24.5833 110.1104 0.0000 0.0000 0.0000
# 4 0.0000 0.0000 0.0000 25.1374 0.0000 0.0000
# 5 0.0000 0.0000 0.0000 0.0000 25.1374 0.0000
# 6 -1.0708 1.0708 0.0000 0.0000 0.0000 28.2899
#
#
#
# Elastic Compliance Matrix: (Units=1/GPa)
#
#
# Indices 1 2 3 4 5 6 
#
# 1 0.015131 -0.003898 -0.002508 0.000000 0.000000 0.000720
# 2 -0.003898 0.015131 -0.002508 0.000000 0.000000 -0.000720
# 3 -0.002508 -0.002508 0.010202 0.000000 0.000000 0.000000
# 4 0.000000 0.000000 0.000000 0.039781 0.000000 0.000000
# 5 0.000000 0.000000 0.000000 0.000000 0.039781 0.000000
# 6 0.000720 -0.000720 0.000000 0.000000 0.000000 0.035403
#
#
# Mechanical properties :
#
#
# Convention : Reuss Voigt Hill
#
# Bulk Modulus (GPa) = 44.17832 45.38349 44.78091
# Shear Modulus (GPa) = 27.65468 28.37260 28.01364
#
# Velocity S-wave (km/s) = 3.68793 3.73550 3.71179
# Velocity P-wave (km/s) = 6.31362 6.39729 6.35559
#
# Compressibility (1/GPa) = 0.02263554
#
# Stress axis : x y z
#
# Youngs Moduli (GPa) = 66.09054 66.09054 98.02410
#
# Poissons Ratio (x) = 0.25764 0.24582
# Poissons Ratio (y) = 0.25764 0.24582
# Poissons Ratio (z) = 0.16574 0.16574
#
# Static dielectric constant tensor:
#      x y z
#    x 3.628130 0.000000 0.000000 
#    y 0.000000 3.628130 0.000000 
#    z 0.000000 0.000000 3.830350 
# 
# 
# High freq. dielectric constant tensor:
#      x y z
#    x 1.786930 0.000000 0.000000 
#    y 0.000000 1.786930 0.000000 
#    z 0.000000 0.000000 1.779410 
# 
# From -- ./inp_files/6759.got.cif
#   From: 2010.03.12/outbox.cif.g09.slc.cpg/sg87_4_cif.got.tgz:6759.got - 2010.04.08 20:16:13.
