data_PCOD8304576
_publ_section_title
;
Structure prediction by ZEFSAII (Michael W. Deem and Ramdas Pophale) SiO2 
 PCOD8304576
Probable space group: P 4 21 2
;
_chemical_formula_sum "Si O2"
_cell_formula_units_Z 40
_cell_length_a 14.401400
_cell_length_b 14.401400
_cell_length_c 8.471530
_cell_angle_alpha 90.000000
_cell_angle_beta 90.000000
_cell_angle_gamma 90.000000
_cell_volume 1756.998049
_symmetry_space_group_name_H-M "P 4 21 2"
_symmetry_group_IT_number 90
_symmetry_cell_setting 'tetragonal'
loop_
_space_group_symop_operation_xyz
x,y,z
1/2-y,1/2+x,z
-x,-y,z
1/2+y,1/2-x,z
1/2+x,1/2-y,-z
1/2-x,1/2+y,-z
y,x,-z
-y,-x,-z
loop_
_atom_site_type_symbol
_atom_site_label
_atom_site_fract_x
_atom_site_fract_y
_atom_site_fract_z
Si Si1 0.079075 0.862637 0.673620
Si Si2 0.812131 0.360550 0.337320
Si Si3 0.430749 0.698184 0.110861
Si Si4 0.315569 0.182983 0.331028
Si Si5 0.538718 0.746904 0.825480
O O1 0.090162 0.909839 0.500000
O O2 0.096797 0.751791 0.679172
O O3 0.150142 0.912937 0.788430
O O4 0.974706 0.867924 0.749292
O O5 0.748349 0.272165 0.356089
O O6 0.839421 0.383544 0.518875
O O7 0.898947 0.336024 0.222587
O O8 0.752167 0.443153 0.269317
O O9 0.377900 0.789273 0.178099
O O10 0.362896 0.637105 0.000000
O O11 0.515395 0.743012 0.010760
#
# Coordination Sequence:
#
# PCOD8304576 Si02
#       5
#     8   8   8   8   8
#     4  11  23  45  71  98 139 190 232 281 345 420
#     4  10  21  42  68  97 132 184 235 274 338 423
#     4  12  26  41  69 107 140 175 231 296 348 403
#     4  10  21  43  70  95 128 190 238 265 339 424
#     4  11  23  41  67 100 142 176 227 288 352 400
#
# _framework density 22.766106000000001
#
# number of rings (size 3 to 8) (size 9 to 14) (size 15 to 20)
#    0.000    1.200    6.000    1.800    2.800    2.000 
#    0.000    1.000    0.000    0.600    0.000    0.000 
#    0.000    0.000    0.000    0.000    0.000    0.000 
#
# Total GULP energy -495578.549656 kJ/mol
# GULP energy per Si atom -12389.463741 kJ/mol
# Density = 2.271429 g / cm^3
# Si number density = 22.766106 Si / 1000 Ang^3
#
#
#
# Elastic Constant Matrix: (Units=GPa)
#
#
# Indices 1 2 3 4 5 6 
#
# 1 26.8211 34.2901 34.1715 0.0000 0.0000 0.0000
# 2 34.2901 26.8225 34.1725 0.0000 0.0000 0.0000
# 3 34.1715 34.1725 157.0963 0.0000 0.0000 0.0000
# 4 0.0000 0.0000 0.0000 170.0995 0.0000 0.0000
# 5 0.0000 0.0000 0.0000 0.0000 170.1381 0.0000
# 6 0.0000 0.0000 0.0000 0.0000 0.0000 13.8033
#
#
#
# Elastic Compliance Matrix: (Units=1/GPa)
#
#
# Indices 1 2 3 4 5 6 
#
# 1 -0.056139 0.077762 -0.004704 0.000000 0.000000 0.000000
# 2 0.077762 -0.056137 -0.004704 0.000000 0.000000 0.000000
# 3 -0.004704 -0.004704 0.008412 0.000000 0.000000 0.000000
# 4 0.000000 0.000000 0.000000 0.005879 0.000000 0.000000
# 5 0.000000 0.000000 0.000000 0.000000 0.005878 0.000000
# 6 0.000000 0.000000 0.000000 0.000000 0.000000 0.072446
#
#
# Mechanical properties :
#
#
# Convention : Reuss Voigt Hill
#
# Bulk Modulus (GPa) = 30.44633 46.22311 38.33472
# Shear Modulus (GPa) = -34.38269 78.01525 21.81628
#
# Velocity S-wave (km/s) = -3.89042 5.86025 3.09897
# Velocity P-wave (km/s) = 2.60344 8.13250 5.44792
#
# Compressibility (1/GPa) = 0.03284468
#
# Stress axis : x y z
#
# Youngs Moduli (GPa) = -17.81279 -17.81368 118.88039
#
# Poissons Ratio (x) = 1.38522 0.55918
# Poissons Ratio (y) = 1.38515 0.55916
# Poissons Ratio (z) = -0.08379 -0.08379
#
# Static dielectric constant tensor:
#      x y z
#    x 4.240890 0.000000 0.000000 
#    y 0.000000 4.240890 0.000000 
#    z 0.000000 0.000000 4.648820 
# 
# 
# High freq. dielectric constant tensor:
#      x y z
#    x 1.878790 0.000000 0.000000 
#    y 0.000000 1.878790 0.000000 
#    z 0.000000 0.000000 1.917670 
# 
# From -- ./inp_files/1308.got.cif
#   From: 2010.03.12/outbox.cif.g09.slc.cpg/sg90_1_cif.got.tgz:1308.got - 2010.04.08 20:26:03.
