data_PCOD8304596
_publ_section_title
;
Structure prediction by ZEFSAII (Michael W. Deem and Ramdas Pophale) SiO2 
 PCOD8304596
Probable space group: P 4 21 2
;
_chemical_formula_sum "Si O2"
_cell_formula_units_Z 56
_cell_length_a 15.303676
_cell_length_b 15.303676
_cell_length_c 11.650731
_cell_angle_alpha 90.000000
_cell_angle_beta 90.000000
_cell_angle_gamma 90.000000
_cell_volume 2728.630317
_symmetry_space_group_name_H-M "P 4 21 2"
_symmetry_group_IT_number 90
_symmetry_cell_setting 'tetragonal'
loop_
_space_group_symop_operation_xyz
x,y,z
1/2-y,1/2+x,z
-x,-y,z
1/2+y,1/2-x,z
1/2+x,1/2-y,-z
1/2-x,1/2+y,-z
y,x,-z
-y,-x,-z
loop_
_atom_site_type_symbol
_atom_site_label
_atom_site_fract_x
_atom_site_fract_y
_atom_site_fract_z
Si Si1 0.051466 0.911428 0.124509
Si Si2 0.619251 0.238308 0.548032
Si Si3 0.829849 0.154104 0.301457
Si Si4 0.079472 0.739371 0.478132
Si Si5 0.771684 0.911094 0.812480
Si Si6 0.768588 0.294894 0.886752
Si Si7 0.375981 0.073446 0.985498
O O1 0.127420 0.917415 0.218777
O O2 0.996411 0.824076 0.148146
O O3 0.095370 0.904631 0.000000
O O4 0.000000 0.000000 0.138646
O O5 0.686720 0.313281 0.500000
O O6 0.522996 0.231122 0.493114
O O7 0.653258 0.140155 0.525764
O O8 0.601400 0.261922 0.678558
O O9 0.904732 0.218524 0.351886
O O10 0.793939 0.110465 0.414128
O O11 0.755513 0.203089 0.228569
O O12 0.826496 0.830381 0.864935
O O13 0.673937 0.907828 0.866309
O O14 0.768902 0.231099 0.000000
O O15 0.823800 0.383147 0.907963
O O16 0.469762 0.118451 0.993521
#
# Coordination Sequence:
#
# PCOD8304596 Si02
#       7
#     8   8   8   8   8   8   8
#     4  11  27  41  66 107 143 179 233 294 354 440
#     4  12  25  47  74 102 142 187 243 309 363 439
#     4  11  22  45  67 100 139 183 233 292 350 430
#     4  11  25  45  73 104 139 186 246 289 370 437
#     4  11  24  42  70  98 140 179 228 287 366 411
#     4  10  22  39  70  93 133 181 219 275 351 417
#     4  10  25  43  65 100 135 176 232 284 344 429
#
# _framework density 20.523116999999999
#
# number of rings (size 3 to 8) (size 9 to 14) (size 15 to 20)
#    0.000    1.143    4.286    0.429   16.000    0.286 
#    2.571    1.429    0.000    0.000    0.000    0.000 
#    0.000    0.000    0.000    0.000    0.000    0.000 
#
# Total GULP energy -693745.607962 kJ/mol
# GULP energy per Si atom -12388.314428 kJ/mol
# Density = 2.047641 g / cm^3
# Si number density = 20.523117 Si / 1000 Ang^3
#
#
#
# Elastic Constant Matrix: (Units=GPa)
#
#
# Indices 1 2 3 4 5 6 
#
# 1 98.6007 65.6635 42.1095 0.0000 0.0000 0.0000
# 2 65.6635 98.5997 42.1070 0.0000 0.0000 0.0000
# 3 42.1095 42.1070 127.3155 0.0000 0.0000 0.0000
# 4 0.0000 0.0000 0.0000 12.1022 0.0000 0.0000
# 5 0.0000 0.0000 0.0000 0.0000 12.1010 0.0000
# 6 0.0000 0.0000 0.0000 0.0000 0.0000 29.9625
#
#
#
# Elastic Compliance Matrix: (Units=1/GPa)
#
#
# Indices 1 2 3 4 5 6 
#
# 1 0.018846 -0.011515 -0.002425 0.000000 0.000000 0.000000
# 2 -0.011515 0.018846 -0.002424 0.000000 0.000000 0.000000
# 3 -0.002425 -0.002424 0.009458 0.000000 0.000000 0.000000
# 4 0.000000 0.000000 0.000000 0.082629 0.000000 0.000000
# 5 0.000000 0.000000 0.000000 0.000000 0.082638 0.000000
# 6 0.000000 0.000000 0.000000 0.000000 0.000000 0.033375
#
#
# Mechanical properties :
#
#
# Convention : Reuss Voigt Hill
#
# Bulk Modulus (GPa) = 69.34038 69.36401 69.35220
# Shear Modulus (GPa) = 17.64732 22.47552 20.06142
#
# Velocity S-wave (km/s) = 2.93554 3.31287 3.12990
# Velocity P-wave (km/s) = 6.73422 6.96454 6.85035
#
# Compressibility (1/GPa) = 0.01442161
#
# Stress axis : x y z
#
# Youngs Moduli (GPa) = 53.06128 53.06168 105.72699
#
# Poissons Ratio (x) = 0.61102 0.25638
# Poissons Ratio (y) = 0.61101 0.25631
# Poissons Ratio (z) = 0.12867 0.12864
#
# Static dielectric constant tensor:
#      x y z
#    x 3.892090 0.000000 0.000000 
#    y 0.000000 3.892100 0.000000 
#    z 0.000000 0.000000 5.078430 
# 
# 
# High freq. dielectric constant tensor:
#      x y z
#    x 1.802610 0.000000 0.000000 
#    y 0.000000 1.802610 0.000000 
#    z 0.000000 0.000000 1.815090 
# 
# From -- ./inp_files/2255.got.cif
#   From: 2010.03.12/outbox.cif.g09.slc.cpg/sg90_2_cif.got.tgz:2255.got - 2010.04.08 20:26:03.
