data_PCOD8304916
_publ_section_title
;
Structure prediction by ZEFSAII (Michael W. Deem and Ramdas Pophale) SiO2 
 PCOD8304916
Probable space group: P 41 2 2
;
_chemical_formula_sum "Si O2"
_cell_formula_units_Z 40
_cell_length_a 8.947278
_cell_length_b 8.947278
_cell_length_c 22.159184
_cell_angle_alpha 90.000000
_cell_angle_beta 90.000000
_cell_angle_gamma 90.000000
_cell_volume 1773.926521
_symmetry_space_group_name_H-M "P 41 2 2"
_symmetry_group_IT_number 91
_symmetry_cell_setting 'tetragonal'
loop_
_space_group_symop_operation_xyz
x,y,z
-y,x,1/4+z
-x,-y,1/2+z
y,-x,3/4+z
x,-y,1/2-z
-x,y,-z
y,x,3/4-z
-y,-x,1/4-z
loop_
_atom_site_type_symbol
_atom_site_label
_atom_site_fract_x
_atom_site_fract_y
_atom_site_fract_z
Si Si1 0.774158 0.187739 0.812470
Si Si2 0.247195 0.384007 0.078715
Si Si3 0.708022 0.847212 0.821096
Si Si4 0.247884 0.110302 0.930262
Si Si5 0.757309 0.500000 0.250000
Si Si6 0.000000 0.258885 0.000000
O O1 0.697104 0.301228 0.859869
O O2 0.761919 0.230583 0.741756
O O3 0.942845 0.203042 0.836397
O O4 0.697176 0.026247 0.817011
O O5 0.237610 0.558885 0.091839
O O6 0.373938 0.348824 0.029139
O O7 0.076443 0.354421 0.053840
O O8 0.825124 0.825124 0.875000
O O9 0.222344 0.222344 0.875000
O O10 0.134942 0.151878 0.982882
O O11 0.418811 0.132362 0.952107
#
# Coordination Sequence:
#
# PCOD8304916 Si02
#       6
#     8   8   8   8   4   4
#     4  11  25  44  72 103 140 187 248 300 360 429
#     4  11  25  44  70 101 145 191 236 298 364 439
#     4  11  27  45  69 102 142 185 236 303 363 429
#     4  11  22  41  70 105 138 189 243 307 351 427
#     4  10  28  42  70 108 150 192 234 298 364 448
#     4  10  20  40  64  98 134 180 242 286 358 404
#
# _framework density 22.548846000000001
#
# number of rings (size 3 to 8) (size 9 to 14) (size 15 to 20)
#    0.000    1.200    2.000    3.000    8.400    6.400 
#    0.000    0.000    0.000    0.000    0.000    0.000 
#    0.000    0.000    0.000    0.000    0.000    0.000 
#
# Total GULP energy -495663.089485 kJ/mol
# GULP energy per Si atom -12391.577237 kJ/mol
# Density = 2.249752 g / cm^3
# Si number density = 22.548846 Si / 1000 Ang^3
#
#
#
# Elastic Constant Matrix: (Units=GPa)
#
#
# Indices 1 2 3 4 5 6 
#
# 1 104.5298 26.8550 34.1843 0.0000 0.0000 0.0000
# 2 26.8550 104.5298 34.1843 0.0000 0.0000 0.0000
# 3 34.1843 34.1843 156.4677 0.0000 0.0000 0.0000
# 4 0.0000 0.0000 0.0000 29.8071 0.0000 0.0000
# 5 0.0000 0.0000 0.0000 0.0000 29.8071 0.0000
# 6 0.0000 0.0000 0.0000 0.0000 0.0000 30.9764
#
#
#
# Elastic Compliance Matrix: (Units=1/GPa)
#
#
# Indices 1 2 3 4 5 6 
#
# 1 0.010731 -0.002143 -0.001876 0.000000 0.000000 0.000000
# 2 -0.002143 0.010731 -0.001876 0.000000 0.000000 0.000000
# 3 -0.001876 -0.001876 0.007211 0.000000 0.000000 0.000000
# 4 0.000000 0.000000 0.000000 0.033549 0.000000 0.000000
# 5 0.000000 0.000000 0.000000 0.000000 0.033549 0.000000
# 6 0.000000 0.000000 0.000000 0.000000 0.000000 0.032283
#
#
# Mechanical properties :
#
#
# Convention : Reuss Voigt Hill
#
# Bulk Modulus (GPa) = 59.23717 61.77495 60.50606
# Shear Modulus (GPa) = 34.37090 36.13834 35.25462
#
# Velocity S-wave (km/s) = 3.90845 4.00768 3.95837
# Velocity P-wave (km/s) = 6.83342 6.99077 6.91254
#
# Compressibility (1/GPa) = 0.01688129
#
# Stress axis : x y z
#
# Youngs Moduli (GPa) = 93.18919 93.18919 138.67923
#
# Poissons Ratio (x) = 0.19974 0.26018
# Poissons Ratio (y) = 0.19974 0.26018
# Poissons Ratio (z) = 0.17484 0.17484
#
# Static dielectric constant tensor:
#      x y z
#    x 3.965240 0.000000 0.000000 
#    y 0.000000 3.965240 0.000000 
#    z 0.000000 0.000000 4.625860 
# 
# 
# High freq. dielectric constant tensor:
#      x y z
#    x 1.879180 0.000000 0.000000 
#    y 0.000000 1.879180 0.000000 
#    z 0.000000 0.000000 1.903090 
# 
# From -- ./inp_files/6820.got.cif
#   From: 2010.03.12/outbox.cif.g09.slc.cpg/sg91_4_cif.got.tgz:6820.got - 2010.04.08 20:27:58.
