data_PCOD8304153
_publ_section_title
;
Structure prediction by ZEFSAII (Michael W. Deem and Ramdas Pophale) SiO2 
 PCOD8304153
Probable space group: I 4/M
;
_chemical_formula_sum "Si O2"
_cell_formula_units_Z 72
_cell_length_a 16.550545
_cell_length_b 16.550545
_cell_length_c 13.565457
_cell_angle_alpha 90.000000
_cell_angle_beta 90.000000
_cell_angle_gamma 90.000000
_cell_volume 3715.857304
_symmetry_space_group_name_H-M "I 4/M"
_symmetry_group_IT_number 87
_symmetry_cell_setting 'tetragonal'
loop_
_space_group_symop_operation_xyz
x,y,z
-y,x,z
-x,-y,z
y,-x,z
-x,-y,-z
y,-x,-z
x,y,-z
-y,x,-z
1/2+x,1/2+y,1/2+z
1/2-y,1/2+x,1/2+z
1/2-x,1/2-y,1/2+z
1/2+y,1/2-x,1/2+z
1/2-x,1/2-y,1/2-z
1/2+y,1/2-x,1/2-z
1/2+x,1/2+y,1/2-z
1/2-y,1/2+x,1/2-z
loop_
_atom_site_type_symbol
_atom_site_label
_atom_site_fract_x
_atom_site_fract_y
_atom_site_fract_z
Si Si1 0.506224 0.837818 0.500000
Si Si2 0.894671 0.444675 0.706467
Si Si3 0.393570 0.576388 0.708204
Si Si4 0.745247 0.160614 0.707983
Si Si5 0.700826 0.818520 0.000000
Si Si6 0.887273 0.821127 0.000000
O O1 0.525003 0.892591 0.594365
O O2 0.414192 0.809219 0.500000
O O3 0.559777 0.758400 0.500000
O O4 0.894000 0.523117 0.777832
O O5 0.817417 0.389778 0.726586
O O6 0.388351 0.481612 0.730339
O O7 0.332795 0.620478 0.782304
O O8 0.374746 0.594057 0.594716
O O9 0.750000 0.250000 0.750000
O O10 0.719388 0.157752 0.594773
O O11 0.794316 0.794238 0.000000
#
# Coordination Sequence:
#
# PCOD8304153 Si02
#       6
#     8  16  16  16   8   8
#     4  12  22  42  68  97 139 176 226 279 342 410
#     4  11  25  42  67  97 134 179 225 278 339 402
#     4  11  24  42  69 101 133 172 223 281 334 396
#     4  12  25  43  69  97 136 179 221 273 341 406
#     4  12  24  43  68 100 132 182 223 277 341 410
#     4  12  22  37  69  99 134 171 219 275 343 402
#
# _framework density 19.376417
#
# number of rings (size 3 to 8) (size 9 to 14) (size 15 to 20)
#    0.000    0.444    6.667    2.000    3.111    3.556 
#    0.000    1.111    0.000    1.333    0.000    0.000 
#    0.000    0.000    0.000    0.000    0.000    0.000 
#
# Total GULP energy -446631.276033 kJ/mol
# GULP energy per Si atom -12406.424334 kJ/mol
# Density = 1.933232 g / cm^3
# Si number density = 19.376417 Si / 1000 Ang^3
#
#
#
# Elastic Constant Matrix: (Units=GPa)
#
#
# Indices 1 2 3 4 5 6 
#
# 1 106.5196 79.2595 52.8488 0.0000 0.0000 -13.8446
# 2 79.2595 106.5196 52.8488 0.0000 0.0000 13.8446
# 3 52.8488 52.8488 137.6026 0.0000 0.0000 0.0000
# 4 0.0000 0.0000 0.0000 9.4231 0.0000 0.0000
# 5 0.0000 0.0000 0.0000 0.0000 9.4231 0.0000
# 6 -13.8446 13.8446 0.0000 0.0000 0.0000 39.1630
#
#
#
# Elastic Compliance Matrix: (Units=1/GPa)
#
#
# Indices 1 2 3 4 5 6 
#
# 1 0.032062 -0.025174 -0.002645 0.000000 0.000000 0.020234
# 2 -0.025174 0.032062 -0.002645 0.000000 0.000000 -0.020234
# 3 -0.002645 -0.002645 0.009299 0.000000 0.000000 0.000000
# 4 0.000000 0.000000 0.000000 0.106122 0.000000 0.000000
# 5 0.000000 0.000000 0.000000 0.000000 0.106122 0.000000
# 6 0.020234 -0.020234 0.000000 0.000000 0.000000 0.039840
#
#
# Mechanical properties :
#
#
# Convention : Reuss Voigt Hill
#
# Bulk Modulus (GPa) = 80.04237 80.06180 80.05209
# Shear Modulus (GPa) = 12.80077 22.64748 17.72412
#
# Velocity S-wave (km/s) = 2.57307 3.42250 3.02773
# Velocity P-wave (km/s) = 7.08706 7.55162 7.32303
#
# Compressibility (1/GPa) = 0.01249338
#
# Stress axis : x y z
#
# Youngs Moduli (GPa) = 31.18974 31.18974 107.53465
#
# Poissons Ratio (x) = 0.78517 0.28447
# Poissons Ratio (y) = 0.78517 0.28447
# Poissons Ratio (z) = 0.08251 0.08251
#
# Static dielectric constant tensor:
#      x y z
#    x 3.673830 0.000000 0.000000 
#    y 0.000000 3.673830 0.000000 
#    z 0.000000 0.000000 3.729020 
# 
# 
# High freq. dielectric constant tensor:
#      x y z
#    x 1.766510 0.000000 0.000000 
#    y 0.000000 1.766510 0.000000 
#    z 0.000000 0.000000 1.752000 
# 
# From -- ./inp_files/2496.got.cif
#   From: 2010.03.12/outbox.cif.g09.slc.cpg/sg87_2_cif.got.tgz:2496.got - 2010.04.08 20:16:13.
