data_PCOD8304472
_publ_section_title
;
Structure prediction by ZEFSAII (Michael W. Deem and Ramdas Pophale) SiO2 
 PCOD8304472
Probable space group: P 4 2 2
;
_chemical_formula_sum "Si O2"
_cell_formula_units_Z 52
_cell_length_a 18.218198
_cell_length_b 18.218198
_cell_length_c 8.248849
_cell_angle_alpha 90.000000
_cell_angle_beta 90.000000
_cell_angle_gamma 90.000000
_cell_volume 2737.815571
_symmetry_space_group_name_H-M "P 4 2 2"
_symmetry_group_IT_number 89
_symmetry_cell_setting 'tetragonal'
loop_
_space_group_symop_operation_xyz
x,y,z
-y,x,z
-x,-y,z
y,-x,z
x,-y,-z
-x,y,-z
y,x,-z
-y,-x,-z
loop_
_atom_site_type_symbol
_atom_site_label
_atom_site_fract_x
_atom_site_fract_y
_atom_site_fract_z
Si Si1 0.300223 0.892355 0.823127
Si Si2 0.175082 0.710582 0.511196
Si Si3 0.035238 0.338045 0.332734
Si Si4 0.359733 0.741519 0.227158
Si Si5 0.590184 0.575819 0.309263
Si Si6 0.575656 0.122486 0.082727
Si Si7 0.775221 0.775221 0.000000
O O1 0.319723 0.844210 0.665616
O O2 0.288497 0.976930 0.768910
O O3 0.368507 0.887557 0.938554
O O4 0.231572 0.856682 0.921311
O O5 0.207356 0.792645 0.500000
O O6 0.103305 0.715305 0.626342
O O7 0.234505 0.653565 0.585878
O O8 0.064698 0.406607 0.226910
O O9 0.000000 0.369089 0.500000
O O10 0.380326 0.655489 0.219017
O O11 0.422727 0.793560 0.149547
O O12 0.283057 0.758254 0.140276
O O13 0.509114 0.601878 0.256125
O O14 0.591351 0.591351 0.500000
O O15 0.500000 0.102448 0.000000
#
# Coordination Sequence:
#
# PCOD8304472 Si02
#       7
#     8   8   8   8   8   8   4
#     4  10  20  35  55  81 114 149 188 236 287 343
#     4  10  18  35  58  80 113 147 191 238 281 338
#     4   9  20  37  58  83 112 154 188 235 286 348
#     4  10  20  35  54  79 106 148 192 241 296 342
#     4   9  19  35  53  76 103 138 188 248 311 354
#     4  10  22  39  55  81 117 155 192 238 294 355
#     4  10  20  32  54  79 110 148 187 236 288 340
#
# _framework density 18.993244000000001
#
# number of rings (size 3 to 8) (size 9 to 14) (size 15 to 20)
#    0.000    2.308    1.538    1.385    0.000    3.692 
#    2.769    8.462    0.000    0.923    0.000    0.000 
#    0.000   24.923   36.923    0.000    0.000    0.000 
#
# Total GULP energy -644285.259780 kJ/mol
# GULP energy per Si atom -12390.101150 kJ/mol
# Density = 1.895001 g / cm^3
# Si number density = 18.993244 Si / 1000 Ang^3
#
#
#
# Elastic Constant Matrix: (Units=GPa)
#
#
# Indices 1 2 3 4 5 6 
#
# 1 109.6722 51.7412 47.7074 0.0000 0.0000 0.0000
# 2 51.7412 109.6710 47.7074 0.0000 0.0000 0.0000
# 3 47.7074 47.7074 98.0866 0.0000 0.0000 0.0000
# 4 0.0000 0.0000 0.0000 23.9401 0.0000 0.0000
# 5 0.0000 0.0000 0.0000 0.0000 23.9406 0.0000
# 6 0.0000 0.0000 0.0000 0.0000 0.0000 16.2788
#
#
#
# Elastic Compliance Matrix: (Units=1/GPa)
#
#
# Indices 1 2 3 4 5 6 
#
# 1 0.012979 -0.004283 -0.004229 0.000000 0.000000 0.000000
# 2 -0.004283 0.012979 -0.004229 0.000000 0.000000 0.000000
# 3 -0.004229 -0.004229 0.014309 0.000000 0.000000 0.000000
# 4 0.000000 0.000000 0.000000 0.041771 0.000000 0.000000
# 5 0.000000 0.000000 0.000000 0.000000 0.041770 0.000000
# 6 0.000000 0.000000 0.000000 0.000000 0.000000 0.061430
#
#
# Mechanical properties :
#
#
# Convention : Reuss Voigt Hill
#
# Bulk Modulus (GPa) = 67.64623 67.97132 67.80877
# Shear Modulus (GPa) = 23.18590 24.18348 23.68469
#
# Velocity S-wave (km/s) = 3.49771 3.57216 3.53513
# Velocity P-wave (km/s) = 7.21146 7.27176 7.24168
#
# Compressibility (1/GPa) = 0.01478279
#
# Stress axis : x y z
#
# Youngs Moduli (GPa) = 77.04991 77.04887 69.88568
#
# Poissons Ratio (x) = 0.33003 0.29556
# Poissons Ratio (y) = 0.33004 0.29556
# Poissons Ratio (z) = 0.32586 0.32586
#
# Static dielectric constant tensor:
#      x y z
#    x 3.555370 0.000000 0.000000 
#    y 0.000000 3.555370 0.000000 
#    z 0.000000 0.000000 3.796540 
# 
# 
# High freq. dielectric constant tensor:
#      x y z
#    x 1.716830 0.000000 0.000000 
#    y 0.000000 1.716830 0.000000 
#    z 0.000000 0.000000 1.760600 
# 
# From -- ./inp_files/1215.got.cif
#   From: 2010.03.12/outbox.cif.g09.slc.cpg/sg89_1_cif.got.tgz:1215.got - 2010.04.08 20:24:03.
