data_PCOD8304380
_publ_section_title
;
Structure prediction by ZEFSAII (Michael W. Deem and Ramdas Pophale) SiO2 
 PCOD8304380
Probable space group: I 41/A
;
_chemical_formula_sum "Si O2"
_cell_formula_units_Z 64
_cell_length_a 20.395482
_cell_length_b 20.395482
_cell_length_c 6.858801
_cell_angle_alpha 90.000000
_cell_angle_beta 90.000000
_cell_angle_gamma 90.000000
_cell_volume 2853.094451
_symmetry_space_group_name_H-M "I 41/A"
_symmetry_group_IT_number 88
_space_group.IT_coordinate_system_code '2'
_symmetry_cell_setting 'tetragonal'
loop_
_space_group_symop_operation_xyz
x,y,z
3/4-y,1/4+x,1/4+z
-x,1/2-y,z
1/4+y,1/4-x,1/4+z
-x,-y,-z
1/4+y,3/4-x,3/4-z
x,1/2+y,-z
3/4-y,3/4+x,3/4-z
1/2+x,1/2+y,1/2+z
1/4-y,3/4+x,3/4+z
1/2-x,-y,1/2+z
3/4+y,3/4-x,3/4+z
1/2-x,1/2-y,1/2-z
3/4+y,1/4-x,1/4-z
1/2+x,y,1/2-z
1/4-y,1/4+x,1/4-z
loop_
_atom_site_type_symbol
_atom_site_label
_atom_site_fract_x
_atom_site_fract_y
_atom_site_fract_z
Si Si1 0.096291 0.752370 0.806733
Si Si2 0.393723 0.902756 0.302801
Si Si3 0.701773 0.657150 0.602494
Si Si4 0.328021 0.550021 0.269432
O O1 0.061510 0.799357 0.970604
O O2 0.106803 0.793657 0.606429
O O3 0.165872 0.727914 0.890596
O O4 0.340016 0.895332 0.476856
O O5 0.359827 0.886583 0.097318
O O6 0.418510 0.976656 0.267155
O O7 0.716138 0.630288 0.817019
O O8 0.258578 0.568159 0.365824
#
# Coordination Sequence:
#
# PCOD8304380 Si02
#       4
#    16  16  16  16
#     4   9  21  42  65  83 116 174 221 260 317 372
#     4  11  21  38  63  96 131 166 213 263 329 401
#     4  11  21  38  63  96 131 166 213 263 329 401
#     4  12  22  36  60 101 138 166 203 264 340 406
#
# _framework density 22.431785000000001
#
# number of rings (size 3 to 8) (size 9 to 14) (size 15 to 20)
#    0.000    1.250    5.000    2.250    0.000    0.000 
#    0.000   13.750    0.000    3.000    0.000    0.000 
#    0.000    0.000    0.000    0.000    0.000    0.000 
#
# Total GULP energy -396451.321798 kJ/mol
# GULP energy per Si atom -12389.103806 kJ/mol
# Density = 2.238073 g / cm^3
# Si number density = 22.431785 Si / 1000 Ang^3
#
#
#
# Elastic Constant Matrix: (Units=GPa)
#
#
# Indices 1 2 3 4 5 6 
#
# 1 77.6965 22.1310 9.6396 0.0000 0.0000 -9.7660
# 2 22.1310 77.6965 9.6396 0.0000 0.0000 9.7660
# 3 9.6396 9.6396 68.8435 0.0000 0.0000 0.0000
# 4 0.0000 0.0000 0.0000 28.2570 0.0000 0.0000
# 5 0.0000 0.0000 0.0000 0.0000 28.2570 0.0000
# 6 -9.7660 9.7660 0.0000 0.0000 0.0000 39.5740
#
#
#
# Elastic Compliance Matrix: (Units=1/GPa)
#
#
# Indices 1 2 3 4 5 6 
#
# 1 0.015001 -0.004705 -0.001442 0.000000 0.000000 0.004863
# 2 -0.004705 0.015001 -0.001442 0.000000 0.000000 -0.004863
# 3 -0.001442 -0.001442 0.014929 0.000000 0.000000 0.000000
# 4 0.000000 0.000000 0.000000 0.035389 0.000000 0.000000
# 5 0.000000 0.000000 0.000000 0.000000 0.035389 0.000000
# 6 0.004863 -0.004863 0.000000 0.000000 0.000000 0.027669
#
#
# Mechanical properties :
#
#
# Convention : Reuss Voigt Hill
#
# Bulk Modulus (GPa) = 33.60858 34.11744 33.86301
# Shear Modulus (GPa) = 29.67806 31.40603 30.54205
#
# Velocity S-wave (km/s) = 3.64130 3.74581 3.69392
# Velocity P-wave (km/s) = 5.71786 5.82671 5.77254
#
# Compressibility (1/GPa) = 0.02975430
#
# Stress axis : x y z
#
# Youngs Moduli (GPa) = 66.66243 66.66243 66.98185
#
# Poissons Ratio (x) = 0.31366 0.09656
# Poissons Ratio (y) = 0.31366 0.09656
# Poissons Ratio (z) = 0.09610 0.09610
#
# Static dielectric constant tensor:
#      x y z
#    x 4.200370 0.000000 0.000000 
#    y 0.000000 4.200370 0.000000 
#    z 0.000000 0.000000 3.827360 
# 
# 
# High freq. dielectric constant tensor:
#      x y z
#    x 1.884510 0.000000 0.000000 
#    y 0.000000 1.884510 0.000000 
#    z 0.000000 0.000000 1.855380 
# 
# From -- ./inp_files/555.got.cif
#   From: 2010.03.12/outbox.cif.g09.slc.cpg/sg88_1_cif.got.tgz:555.got - 2010.04.08 20:20:55.
