data_PCOD8304095
_publ_section_title
;
Structure prediction by ZEFSAII (Michael W. Deem and Ramdas Pophale) SiO2 
 PCOD8304095
Probable space group: I 4/M
;
_chemical_formula_sum "Si O2"
_cell_formula_units_Z 72
_cell_length_a 20.814076
_cell_length_b 20.814076
_cell_length_c 9.681948
_cell_angle_alpha 90.000000
_cell_angle_beta 90.000000
_cell_angle_gamma 90.000000
_cell_volume 4194.469278
_symmetry_space_group_name_H-M "I 4/M"
_symmetry_group_IT_number 87
_symmetry_cell_setting 'tetragonal'
loop_
_space_group_symop_operation_xyz
x,y,z
-y,x,z
-x,-y,z
y,-x,z
-x,-y,-z
y,-x,-z
x,y,-z
-y,x,-z
1/2+x,1/2+y,1/2+z
1/2-y,1/2+x,1/2+z
1/2-x,1/2-y,1/2+z
1/2+y,1/2-x,1/2+z
1/2-x,1/2-y,1/2-z
1/2+y,1/2-x,1/2-z
1/2+x,1/2+y,1/2-z
1/2-y,1/2+x,1/2-z
loop_
_atom_site_type_symbol
_atom_site_label
_atom_site_fract_x
_atom_site_fract_y
_atom_site_fract_z
Si Si1 0.922891 0.823834 0.150161
Si Si2 0.237848 0.655205 0.156313
Si Si3 0.981883 0.103422 0.500000
Si Si4 0.344164 0.763690 0.842852
Si Si5 0.060332 0.835265 0.230854
O O1 0.903982 0.773226 0.268741
O O2 0.893034 0.894042 0.181144
O O3 0.000051 0.826277 0.129122
O O4 0.895145 0.802165 0.000000
O O5 0.285679 0.714640 0.145254
O O6 0.176829 0.674846 0.251130
O O7 0.216667 0.635236 0.000000
O O8 0.975747 0.148295 0.370608
O O9 0.051856 0.074151 0.500000
O O10 0.401289 0.730724 0.756058
O O11 0.364627 0.783589 0.000000
#
# Coordination Sequence:
#
# PCOD8304095 Si02
#       5
#    16  16   8  16  16
#     4  11  23  35  47  68  99 131 167 206 244 284
#     4   9  19  32  49  68  90 120 159 202 246 294
#     4  11  20  32  48  70  96 134 174 207 235 282
#     4   9  17  30  50  69  90 120 156 201 248 293
#     4  11  21  32  51  69  97 130 169 202 244 288
#
# _framework density 17.165462000000002
#
# number of rings (size 3 to 8) (size 9 to 14) (size 15 to 20)
#    0.000    1.889    3.333    1.333    3.111    6.667 
#    0.000    1.111    0.000    0.000    0.000    0.000 
#    0.000    0.889    0.000    6.222    0.000    2.000 
#
# Total GULP energy -446152.480350 kJ/mol
# GULP energy per Si atom -12393.124454 kJ/mol
# Density = 1.712639 g / cm^3
# Si number density = 17.165462 Si / 1000 Ang^3
#
#
#
# Elastic Constant Matrix: (Units=GPa)
#
#
# Indices 1 2 3 4 5 6 
#
# 1 56.9960 44.8774 25.8613 0.0000 0.0000 -1.4565
# 2 44.8774 56.9960 25.8613 0.0000 0.0000 1.4565
# 3 25.8613 25.8613 119.5641 0.0000 0.0000 0.0000
# 4 0.0000 0.0000 0.0000 21.0236 0.0000 0.0000
# 5 0.0000 0.0000 0.0000 0.0000 21.0236 0.0000
# 6 -1.4565 1.4565 0.0000 0.0000 0.0000 23.8408
#
#
#
# Elastic Compliance Matrix: (Units=1/GPa)
#
#
# Indices 1 2 3 4 5 6 
#
# 1 0.047387 -0.036360 -0.002385 0.000000 0.000000 0.005116
# 2 -0.036360 0.047387 -0.002385 0.000000 0.000000 -0.005116
# 3 -0.002385 -0.002385 0.009395 0.000000 0.000000 0.000000
# 4 0.000000 0.000000 0.000000 0.047566 0.000000 0.000000
# 5 0.000000 0.000000 0.000000 0.000000 0.047566 0.000000
# 6 0.005116 -0.005116 0.000000 0.000000 0.000000 0.042570
#
#
# Mechanical properties :
#
#
# Convention : Reuss Voigt Hill
#
# Bulk Modulus (GPa) = 45.64300 47.41733 46.53016
# Shear Modulus (GPa) = 15.08587 22.30801 18.69694
#
# Velocity S-wave (km/s) = 2.96776 3.60889 3.30391
# Velocity P-wave (km/s) = 6.19606 6.71186 6.45911
#
# Compressibility (1/GPa) = 0.02190917
#
# Stress axis : x y z
#
# Youngs Moduli (GPa) = 21.10263 21.10263 106.43400
#
# Poissons Ratio (x) = 0.76730 0.25386
# Poissons Ratio (y) = 0.76730 0.25386
# Poissons Ratio (z) = 0.05033 0.05033
#
# Static dielectric constant tensor:
#      x y z
#    x 2.978970 0.000000 0.000000 
#    y 0.000000 2.978970 0.000000 
#    z 0.000000 0.000000 3.516310 
# 
# 
# High freq. dielectric constant tensor:
#      x y z
#    x 1.623980 0.000000 0.000000 
#    y 0.000000 1.623980 0.000000 
#    z 0.000000 0.000000 1.690330 
# 
# From -- ./inp_files/1072.got.cif
#   From: 2010.03.12/outbox.cif.g09.slc.cpg/sg87_1_cif.got.tgz:1072.got - 2010.04.08 20:16:13.
