data_PCOD8304605
_publ_section_title
;
Structure prediction by ZEFSAII (Michael W. Deem and Ramdas Pophale) SiO2 
 PCOD8304605
Probable space group: P 4 21 2
;
_chemical_formula_sum "Si O2"
_cell_formula_units_Z 64
_cell_length_a 11.385004
_cell_length_b 11.385004
_cell_length_c 26.210082
_cell_angle_alpha 90.000000
_cell_angle_beta 90.000000
_cell_angle_gamma 90.000000
_cell_volume 3397.306693
_symmetry_space_group_name_H-M "P 4 21 2"
_symmetry_group_IT_number 90
_symmetry_cell_setting 'tetragonal'
loop_
_space_group_symop_operation_xyz
x,y,z
1/2-y,1/2+x,z
-x,-y,z
1/2+y,1/2-x,z
1/2+x,1/2-y,-z
1/2-x,1/2+y,-z
y,x,-z
-y,-x,-z
loop_
_atom_site_type_symbol
_atom_site_label
_atom_site_fract_x
_atom_site_fract_y
_atom_site_fract_z
Si Si1 0.689752 0.032717 0.126827
Si Si2 0.098999 0.901005 0.427406
Si Si3 0.033709 0.689263 0.241267
Si Si4 0.532744 0.810253 0.873172
Si Si5 0.902103 0.097908 0.942415
Si Si6 0.403067 0.403083 0.690562
Si Si7 0.466320 0.189269 0.241263
Si Si8 0.306452 0.960627 0.500003
O O1 0.594204 0.133608 0.118537
O O2 0.789146 0.047201 0.085365
O O3 0.742073 0.042952 0.184080
O O4 0.122140 0.877877 0.368294
O O5 0.223069 0.943629 0.450788
O O6 0.056373 0.776931 0.450783
O O7 0.000000 0.000000 0.437445
O O8 0.134146 0.593455 0.249318
O O9 0.042985 0.742055 0.184083
O O10 0.050310 0.786122 0.283658
O O11 0.405815 0.866379 0.881466
O O12 0.547246 0.710847 0.914627
O O13 0.867485 0.132516 0.000000
O O14 0.000000 0.000000 0.941902
O O15 0.500000 0.500000 0.698254
O O16 0.286119 0.449743 0.716341
O O17 0.365868 0.093476 0.249310
O O18 0.409227 0.862511 0.500003
#
# Coordination Sequence:
#
# PCOD8304605 Si02
#       8
#     8   8   8   8   8   8   8   8
#     4   9  20  40  63  85 111 150 196 239 287 342
#     4  10  24  40  60  88 126 158 188 241 296 339
#     4   9  20  39  61  86 117 153 195 240 283 336
#     4   9  20  40  63  85 111 150 196 239 287 342
#     4  11  25  39  55  85 119 147 186 241 296 349
#     4  11  24  38  56  91 127 159 191 227 289 352
#     4   9  20  39  61  86 117 153 195 240 283 336
#     4  10  22  41  67  91 110 150 207 250 288 339
#
# _framework density 18.838453999999999
#
# number of rings (size 3 to 8) (size 9 to 14) (size 15 to 20)
#    0.000    2.250    0.000    3.000    7.000    5.000 
#    0.000    3.750    0.000    0.000    0.000    0.000 
#    0.000    0.000    0.000    0.000    0.000    0.000 
#
# Total GULP energy -793612.711821 kJ/mol
# GULP energy per Si atom -12400.198622 kJ/mol
# Density = 1.879558 g / cm^3
# Si number density = 18.838454 Si / 1000 Ang^3
#
#
#
# Elastic Constant Matrix: (Units=GPa)
#
#
# Indices 1 2 3 4 5 6 
#
# 1 101.3627 59.4878 84.3699 0.0000 0.0000 0.0000
# 2 59.4878 101.3631 84.3700 0.0000 0.0000 0.0000
# 3 84.3699 84.3700 187.0350 0.0000 0.0000 0.0000
# 4 0.0000 0.0000 0.0000 28.7530 0.0000 0.0000
# 5 0.0000 0.0000 0.0000 0.0000 28.7517 0.0000
# 6 0.0000 0.0000 0.0000 0.0000 0.0000 25.4782
#
#
#
# Elastic Compliance Matrix: (Units=1/GPa)
#
#
# Indices 1 2 3 4 5 6 
#
# 1 0.017841 -0.006039 -0.005324 0.000000 0.000000 0.000000
# 2 -0.006039 0.017841 -0.005324 0.000000 0.000000 0.000000
# 3 -0.005324 -0.005324 0.010150 0.000000 0.000000 0.000000
# 4 0.000000 0.000000 0.000000 0.034779 0.000000 0.000000
# 5 0.000000 0.000000 0.000000 0.000000 0.034781 0.000000
# 6 0.000000 0.000000 0.000000 0.000000 0.000000 0.039249
#
#
# Mechanical properties :
#
#
# Convention : Reuss Voigt Hill
#
# Bulk Modulus (GPa) = 80.26774 94.02402 87.14588
# Shear Modulus (GPa) = 26.01907 27.36546 26.69227
#
# Velocity S-wave (km/s) = 3.72044 3.81548 3.76826
# Velocity P-wave (km/s) = 7.82026 8.33244 8.08041
#
# Compressibility (1/GPa) = 0.01245831
#
# Stress axis : x y z
#
# Youngs Moduli (GPa) = 56.05018 56.05041 98.52693
#
# Poissons Ratio (x) = 0.33851 0.52452
# Poissons Ratio (y) = 0.33851 0.52452
# Poissons Ratio (z) = 0.29839 0.29839
#
# Static dielectric constant tensor:
#      x y z
#    x 3.459770 0.000000 0.000000 
#    y 0.000000 3.459770 0.000000 
#    z 0.000000 0.000000 3.572070 
# 
# 
# High freq. dielectric constant tensor:
#      x y z
#    x 1.740040 0.000000 0.000000 
#    y 0.000000 1.740040 0.000000 
#    z 0.000000 0.000000 1.735640 
# 
# From -- ./inp_files/2959.got.cif
#   From: 2010.03.12/outbox.cif.g09.slc.cpg/sg90_2_cif.got.tgz:2959.got - 2010.04.08 20:26:03.
