data_PCOD8304777
_publ_section_title
;
Structure prediction by ZEFSAII (Michael W. Deem and Ramdas Pophale) SiO2 
 PCOD8304777
Probable space group: P 41 2 2
;
_chemical_formula_sum "Si O2"
_cell_formula_units_Z 44
_cell_length_a 22.143521
_cell_length_b 22.143521
_cell_length_c 5.273794
_cell_angle_alpha 90.000000
_cell_angle_beta 90.000000
_cell_angle_gamma 90.000000
_cell_volume 2585.928535
_symmetry_space_group_name_H-M "P 41 2 2"
_symmetry_group_IT_number 91
_symmetry_cell_setting 'tetragonal'
loop_
_space_group_symop_operation_xyz
x,y,z
-y,x,1/4+z
-x,-y,1/2+z
y,-x,3/4+z
x,-y,1/2-z
-x,y,-z
y,x,3/4-z
-y,-x,1/4-z
loop_
_atom_site_type_symbol
_atom_site_label
_atom_site_fract_x
_atom_site_fract_y
_atom_site_fract_z
Si Si1 0.250986 0.649933 0.132040
Si Si2 0.606937 0.202229 0.115587
Si Si3 0.753286 0.849324 0.876197
Si Si4 0.557740 0.000000 0.750000
Si Si5 0.000000 0.370118 0.000000
Si Si6 0.109905 0.500000 0.750000
Si Si7 0.710601 0.890422 0.374656
O O1 0.315804 0.684197 0.125000
O O2 0.243796 0.606279 0.379837
O O3 0.197577 0.698377 0.130425
O O4 0.244737 0.606356 0.885080
O O5 0.553081 0.152854 0.107736
O O6 0.671211 0.169869 0.118568
O O7 0.817098 0.817098 0.875000
O O8 0.749870 0.892561 0.630964
O O9 0.752784 0.890325 0.127379
O O10 0.592156 0.019383 0.494958
O O11 0.520946 0.937361 0.716461
O O12 0.052581 0.331304 0.883962
#
# Coordination Sequence:
#
# PCOD8304777 Si02
#       7
#     8   8   8   4   4   4   8
#     4   9  18  33  51  70  88 113 150 205 266 308
#     4  10  21  32  50  68  93 121 163 211 249 294
#     4   9  17  30  49  68  87 109 147 205 260 303
#     4  12  27  38  50  62  96 144 184 222 245 282
#     4  12  23  38  50  66  94 136 176 216 249 280
#     4  12  26  38  50  72  98 140 186 218 258 270
#     4  10  19  32  46  67  89 120 162 202 251 291
#
# _framework density 17.015165
#
# number of rings (size 3 to 8) (size 9 to 14) (size 15 to 20)
#    0.000    1.818    1.818    2.727    5.091    6.545 
#    0.000    0.000    0.000    0.000    0.000    0.000 
#    0.000    0.000    0.000    0.000    0.000   50.909 
#
# Total GULP energy -545109.596628 kJ/mol
# GULP energy per Si atom -12388.854469 kJ/mol
# Density = 1.697644 g / cm^3
# Si number density = 17.015165 Si / 1000 Ang^3
#
#
#
# Elastic Constant Matrix: (Units=GPa)
#
#
# Indices 1 2 3 4 5 6 
#
# 1 51.2833 48.0526 55.4091 0.0000 0.0000 0.0000
# 2 48.0526 51.2832 55.4097 0.0000 0.0000 0.0000
# 3 55.4091 55.4097 188.6251 0.0000 0.0000 0.0000
# 4 0.0000 0.0000 0.0000 132.1694 0.0000 0.0000
# 5 0.0000 0.0000 0.0000 0.0000 132.1516 0.0000
# 6 0.0000 0.0000 0.0000 0.0000 0.0000 16.5383
#
#
#
# Elastic Compliance Matrix: (Units=1/GPa)
#
#
# Indices 1 2 3 4 5 6 
#
# 1 0.162251 -0.147278 -0.004398 0.000000 0.000000 0.000000
# 2 -0.147278 0.162253 -0.004399 0.000000 0.000000 0.000000
# 3 -0.004398 -0.004399 0.007886 0.000000 0.000000 0.000000
# 4 0.000000 0.000000 0.000000 0.007566 0.000000 0.000000
# 5 0.000000 0.000000 0.000000 0.000000 0.007567 0.000000
# 6 0.000000 0.000000 0.000000 0.000000 0.000000 0.060466
#
#
# Mechanical properties :
#
#
# Convention : Reuss Voigt Hill
#
# Bulk Modulus (GPa) = 49.40930 67.65938 58.53434
# Shear Modulus (GPa) = 6.87867 64.99320 35.93594
#
# Velocity S-wave (km/s) = 2.01282 6.18709 4.60063
# Velocity P-wave (km/s) = 5.87396 9.53366 7.91815
#
# Compressibility (1/GPa) = 0.02023910
#
# Stress axis : x y z
#
# Youngs Moduli (GPa) = 6.16330 6.16323 126.81042
#
# Poissons Ratio (x) = 0.90771 0.55771
# Poissons Ratio (y) = 0.90772 0.55789
# Poissons Ratio (z) = 0.02711 0.02711
#
# Static dielectric constant tensor:
#      x y z
#    x 2.853920 0.000000 0.000000 
#    y 0.000000 2.853940 0.000000 
#    z 0.000000 0.000000 3.675660 
# 
# 
# High freq. dielectric constant tensor:
#      x y z
#    x 1.610650 0.000000 0.000000 
#    y 0.000000 1.610650 0.000000 
#    z 0.000000 0.000000 1.692030 
# 
# From -- ./inp_files/18803.got.cif
#   From: 2010.03.12/outbox.cif.g09.slc.cpg/sg91_10_cif.got.tgz:18803.got - 2010.04.08 20:27:58.
