data_PCOD8304432
_publ_section_title
;
Structure prediction by ZEFSAII (Michael W. Deem and Ramdas Pophale) SiO2 
 PCOD8304432
Probable space group: I 41/A
;
_chemical_formula_sum "Si O2"
_cell_formula_units_Z 64
_cell_length_a 18.080233
_cell_length_b 18.080233
_cell_length_c 8.573554
_cell_angle_alpha 90.000000
_cell_angle_beta 90.000000
_cell_angle_gamma 90.000000
_cell_volume 2802.650437
_symmetry_space_group_name_H-M "I 41/A"
_symmetry_group_IT_number 88
_space_group.IT_coordinate_system_code '2'
_symmetry_cell_setting 'tetragonal'
loop_
_space_group_symop_operation_xyz
x,y,z
3/4-y,1/4+x,1/4+z
-x,1/2-y,z
1/4+y,1/4-x,1/4+z
-x,-y,-z
1/4+y,3/4-x,3/4-z
x,1/2+y,-z
3/4-y,3/4+x,3/4-z
1/2+x,1/2+y,1/2+z
1/4-y,3/4+x,3/4+z
1/2-x,-y,1/2+z
3/4+y,3/4-x,3/4+z
1/2-x,1/2-y,1/2-z
3/4+y,1/4-x,1/4-z
1/2+x,y,1/2-z
1/4-y,1/4+x,1/4-z
loop_
_atom_site_type_symbol
_atom_site_label
_atom_site_fract_x
_atom_site_fract_y
_atom_site_fract_z
Si Si1 0.085005 0.065035 0.040668
Si Si2 0.570223 0.844639 0.163383
Si Si3 0.347036 0.825181 0.768553
Si Si4 0.681303 0.563256 0.253189
O O1 0.145161 0.112542 0.135283
O O2 0.078841 0.982149 0.107348
O O3 0.110290 0.050397 0.862974
O O4 0.006720 0.107347 0.053631
O O5 0.601590 0.767908 0.098393
O O6 0.590186 0.843281 0.347112
O O7 0.607293 0.914823 0.076141
O O8 0.754202 0.562932 0.361884
#
# Coordination Sequence:
#
# PCOD8304432 Si02
#       4
#    16  16  16  16
#     4  11  25  46  71 104 140 189 240 294 361 415
#     4  11  27  47  72 106 147 191 240 294 359 427
#     4  11  26  45  72 103 144 189 239 300 352 429
#     4  12  28  47  73 107 144 186 241 295 357 432
#
# _framework density 22.835526999999999
#
# number of rings (size 3 to 8) (size 9 to 14) (size 15 to 20)
#    0.000    0.750    5.000    0.000   10.500    1.500 
#    0.000    0.000    0.000    0.000    0.000    0.000 
#    0.000    0.000    0.000    0.000    0.000    0.000 
#
# Total GULP energy -396697.320930 kJ/mol
# GULP energy per Si atom -12396.791279 kJ/mol
# Density = 2.278355 g / cm^3
# Si number density = 22.835527 Si / 1000 Ang^3
#
#
#
# Elastic Constant Matrix: (Units=GPa)
#
#
# Indices 1 2 3 4 5 6 
#
# 1 90.8636 64.4181 53.9282 0.0000 0.0000 0.6774
# 2 64.4181 90.8636 53.9282 0.0000 0.0000 -0.6774
# 3 53.9282 53.9282 121.2625 0.0000 0.0000 0.0000
# 4 0.0000 0.0000 0.0000 38.4442 0.0000 0.0000
# 5 0.0000 0.0000 0.0000 0.0000 38.4442 0.0000
# 6 0.6774 -0.6774 0.0000 0.0000 0.0000 36.1381
#
#
#
# Elastic Compliance Matrix: (Units=1/GPa)
#
#
# Indices 1 2 3 4 5 6 
#
# 1 0.023584 -0.014266 -0.004144 0.000000 0.000000 -0.000710
# 2 -0.014266 0.023584 -0.004144 0.000000 0.000000 0.000710
# 3 -0.004144 -0.004144 0.011932 0.000000 0.000000 0.000000
# 4 0.000000 0.000000 0.000000 0.026012 0.000000 0.000000
# 5 0.000000 0.000000 0.000000 0.000000 0.026012 0.000000
# 6 -0.000710 0.000710 0.000000 0.000000 0.000000 0.027698
#
#
# Mechanical properties :
#
#
# Convention : Reuss Voigt Hill
#
# Bulk Modulus (GPa) = 71.46503 71.94874 71.70689
# Shear Modulus (GPa) = 26.51188 31.31965 28.91576
#
# Velocity S-wave (km/s) = 3.41103 3.70744 3.56232
# Velocity P-wave (km/s) = 6.84668 7.06417 6.95628
#
# Compressibility (1/GPa) = 0.01399286
#
# Stress axis : x y z
#
# Youngs Moduli (GPa) = 42.40137 42.40137 83.80474
#
# Poissons Ratio (x) = 0.60489 0.34729
# Poissons Ratio (y) = 0.60489 0.34729
# Poissons Ratio (z) = 0.17571 0.17571
#
# Static dielectric constant tensor:
#      x y z
#    x 4.054990 0.000000 0.000000 
#    y 0.000000 4.054990 0.000000 
#    z 0.000000 0.000000 4.036750 
# 
# 
# High freq. dielectric constant tensor:
#      x y z
#    x 1.902800 0.000000 0.000000 
#    y 0.000000 1.902800 0.000000 
#    z 0.000000 0.000000 1.904350 
# 
# From -- ./inp_files/1448.got.cif
#   From: 2010.03.12/outbox.cif.g09.slc.cpg/sg88_1_cif.got.tgz:1448.got - 2010.04.08 20:20:55.
