data_PCOD8304303
_publ_section_title
;
Structure prediction by ZEFSAII (Michael W. Deem and Ramdas Pophale) SiO2 
 PCOD8304303
Probable space group: I 41/A
;
_chemical_formula_sum "Si O2"
_cell_formula_units_Z 108
_cell_length_a 14.292617
_cell_length_b 14.292617
_cell_length_c 24.851192
_cell_angle_alpha 90.000000
_cell_angle_beta 90.000000
_cell_angle_gamma 90.000000
_cell_volume 5076.574183
_symmetry_space_group_name_H-M "I 41/A"
_symmetry_group_IT_number 88
_space_group.IT_coordinate_system_code '2'
_symmetry_cell_setting 'tetragonal'
loop_
_space_group_symop_operation_xyz
x,y,z
3/4-y,1/4+x,1/4+z
-x,1/2-y,z
1/4+y,1/4-x,1/4+z
-x,-y,-z
1/4+y,3/4-x,3/4-z
x,1/2+y,-z
3/4-y,3/4+x,3/4-z
1/2+x,1/2+y,1/2+z
1/4-y,3/4+x,3/4+z
1/2-x,-y,1/2+z
3/4+y,3/4-x,3/4+z
1/2-x,1/2-y,1/2-z
3/4+y,1/4-x,1/4-z
1/2+x,y,1/2-z
1/4-y,1/4+x,1/4-z
loop_
_atom_site_type_symbol
_atom_site_label
_atom_site_fract_x
_atom_site_fract_y
_atom_site_fract_z
Si Si1 0.918248 0.556034 0.757627
Si Si2 0.945240 0.404566 0.334740
Si Si3 0.257632 0.829633 0.793835
Si Si4 0.513786 0.601193 0.637477
Si Si5 0.500000 0.250000 0.084898
Si Si6 0.006049 0.050540 0.582716
Si Si7 0.500000 0.750000 0.125000
Si Si8 0.154247 0.144894 0.771091
O O1 0.828579 0.607809 0.778407
O O2 0.998598 0.563806 0.802520
O O3 0.878546 0.453735 0.749154
O O4 0.962117 0.597951 0.702900
O O5 0.853119 0.391048 0.297078
O O6 0.942573 0.319355 0.376617
O O7 0.949431 0.503039 0.367373
O O8 0.250000 0.750000 0.750000
O O9 0.240471 0.785902 0.852610
O O10 0.423113 0.650119 0.611327
O O11 0.563116 0.309390 0.044741
O O12 0.940327 0.051211 0.531352
O O13 0.035883 0.158194 0.593162
O O14 0.097066 0.985527 0.567481
#
# Coordination Sequence:
#
# PCOD8304303 Si02
#       8
#    16  16  16  16   8  16   4  16
#     4  11  23  40  63  93 133 173 220 272 333 402
#     4  11  23  41  63 102 132 175 229 279 336 404
#     4  11  23  40  63  97 131 178 221 281 342 405
#     4   9  19  38  62  91 128 173 219 267 333 407
#     4  10  21  42  72  91 135 176 222 281 336 404
#     4  10  24  41  65  92 128 167 228 275 339 409
#     4  12  22  40  68  88 124 176 204 286 336 392
#     4  10  22  44  63  95 125 175 216 277 339 407
#
# _framework density 21.274189
#
# number of rings (size 3 to 8) (size 9 to 14) (size 15 to 20)
#    0.000    1.630    0.000    4.000    2.074    3.556 
#   13.333    0.000    0.000    0.000    0.000    0.000 
#    0.000    0.000    0.000    0.000    0.000    0.000 
#
# Total GULP energy -669063.160462 kJ/mol
# GULP energy per Si atom -12390.058527 kJ/mol
# Density = 2.122577 g / cm^3
# Si number density = 21.274189 Si / 1000 Ang^3
#
#
#
# Elastic Constant Matrix: (Units=GPa)
#
#
# Indices 1 2 3 4 5 6 
#
# 1 81.2913 2.7901 18.7146 0.0000 0.0000 12.7226
# 2 2.7901 81.2913 18.7146 0.0000 0.0000 -12.7226
# 3 18.7146 18.7146 79.8129 0.0000 0.0000 0.0000
# 4 0.0000 0.0000 0.0000 37.9762 0.0000 0.0000
# 5 0.0000 0.0000 0.0000 0.0000 37.9762 0.0000
# 6 12.7226 -12.7226 0.0000 0.0000 0.0000 181.6756
#
#
#
# Elastic Compliance Matrix: (Units=1/GPa)
#
#
# Indices 1 2 3 4 5 6 
#
# 1 0.013157 0.000122 -0.003114 0.000000 0.000000 -0.000913
# 2 0.000122 0.013157 -0.003114 0.000000 0.000000 0.000913
# 3 -0.003114 -0.003114 0.013990 0.000000 0.000000 0.000000
# 4 0.000000 0.000000 0.000000 0.026332 0.000000 0.000000
# 5 0.000000 0.000000 0.000000 0.000000 0.026332 0.000000
# 6 -0.000913 0.000913 0.000000 0.000000 0.000000 0.005632
#
#
# Mechanical properties :
#
#
# Convention : Reuss Voigt Hill
#
# Bulk Modulus (GPa) = 35.59581 35.87046 35.73314
# Shear Modulus (GPa) = 41.60607 65.00401 53.30504
#
# Velocity S-wave (km/s) = 4.42713 5.53369 5.01105
# Velocity P-wave (km/s) = 6.54988 7.59780 7.09322
#
# Compressibility (1/GPa) = 0.02809320
#
# Stress axis : x y z
#
# Youngs Moduli (GPa) = 76.00548 76.00548 71.48194
#
# Poissons Ratio (x) = -0.00930 0.22258
# Poissons Ratio (y) = -0.00930 0.22258
# Poissons Ratio (z) = 0.23666 0.23666
#
# Static dielectric constant tensor:
#      x y z
#    x 3.745440 0.000000 0.000000 
#    y 0.000000 3.745440 0.000000 
#    z 0.000000 0.000000 3.721570 
# 
# 
# High freq. dielectric constant tensor:
#      x y z
#    x 1.832270 0.000000 0.000000 
#    y 0.000000 1.832270 0.000000 
#    z 0.000000 0.000000 1.844250 
# 
# From -- ./inp_files/5377.got.cif
#   From: 2010.03.12/outbox.cif.g09.slc.cpg/sg88_3_cif.got.tgz:5377.got - 2010.04.08 20:20:55.
