data_PCOD8304341
_publ_section_title
;
Structure prediction by ZEFSAII (Michael W. Deem and Ramdas Pophale) SiO2 
 PCOD8304341
Probable space group: I 41/A
;
_chemical_formula_sum "Si O2"
_cell_formula_units_Z 96
_cell_length_a 14.282640
_cell_length_b 14.282640
_cell_length_c 22.635818
_cell_angle_alpha 90.000000
_cell_angle_beta 90.000000
_cell_angle_gamma 90.000000
_cell_volume 4617.566651
_symmetry_space_group_name_H-M "I 41/A"
_symmetry_group_IT_number 88
_space_group.IT_coordinate_system_code '2'
_symmetry_cell_setting 'tetragonal'
loop_
_space_group_symop_operation_xyz
x,y,z
3/4-y,1/4+x,1/4+z
-x,1/2-y,z
1/4+y,1/4-x,1/4+z
-x,-y,-z
1/4+y,3/4-x,3/4-z
x,1/2+y,-z
3/4-y,3/4+x,3/4-z
1/2+x,1/2+y,1/2+z
1/4-y,3/4+x,3/4+z
1/2-x,-y,1/2+z
3/4+y,3/4-x,3/4+z
1/2-x,1/2-y,1/2-z
3/4+y,1/4-x,1/4-z
1/2+x,y,1/2-z
1/4-y,1/4+x,1/4-z
loop_
_atom_site_type_symbol
_atom_site_label
_atom_site_fract_x
_atom_site_fract_y
_atom_site_fract_z
Si Si1 0.987264 0.482238 0.068636
Si Si2 0.414231 0.635770 0.141596
Si Si3 0.781675 0.757194 0.502129
Si Si4 0.402123 0.699181 0.893267
Si Si5 0.148626 0.478578 0.332753
Si Si6 0.330976 0.607805 0.587575
O O1 0.885759 0.451879 0.095663
O O2 0.007752 0.582598 0.095851
O O3 0.056279 0.397357 0.088112
O O4 0.000000 0.500000 0.000000
O O5 0.383559 0.744101 0.150692
O O6 0.429943 0.581347 0.202467
O O7 0.332128 0.584305 0.107161
O O8 0.866059 0.717418 0.541057
O O9 0.727481 0.668018 0.474932
O O10 0.708495 0.818550 0.539783
O O11 0.500000 0.750000 0.883687
O O12 0.403811 0.587383 0.881110
O O13 0.253072 0.446369 0.317299
#
# Coordination Sequence:
#
# PCOD8304341 Si02
#       6
#    16  16  16  16  16  16
#     4  10  24  43  67  93 127 173 217 274 332 384
#     4   9  20  37  61  89 126 168 214 258 320 390
#     4  10  23  39  66  95 128 175 212 271 327 382
#     4  10  24  41  62  96 133 163 216 270 325 393
#     4  10  23  40  65  93 131 173 216 265 330 388
#     4  10  24  43  64  97 130 164 228 269 325 402
#
# _framework density 20.79017
#
# number of rings (size 3 to 8) (size 9 to 14) (size 15 to 20)
#    0.000    2.167    0.000    0.000   11.667   11.000 
#    0.000    1.667    0.000    0.000    0.000    0.000 
#    0.000    0.000    0.000    0.000    0.000    0.000 
#
# Total GULP energy -594805.950101 kJ/mol
# GULP energy per Si atom -12391.790627 kJ/mol
# Density = 2.074285 g / cm^3
# Si number density = 20.790170 Si / 1000 Ang^3
#
#
#
# Elastic Constant Matrix: (Units=GPa)
#
#
# Indices 1 2 3 4 5 6 
#
# 1 106.3790 41.0077 42.0862 0.0000 0.0000 4.4861
# 2 41.0077 106.3790 42.0862 0.0000 0.0000 -4.4861
# 3 42.0862 42.0862 104.5235 0.0000 0.0000 0.0000
# 4 0.0000 0.0000 0.0000 28.0504 0.0000 0.0000
# 5 0.0000 0.0000 0.0000 0.0000 28.0504 0.0000
# 6 4.4861 -4.4861 0.0000 0.0000 0.0000 28.8052
#
#
#
# Elastic Compliance Matrix: (Units=1/GPa)
#
#
# Indices 1 2 3 4 5 6 
#
# 1 0.012221 -0.003410 -0.003548 0.000000 0.000000 -0.002434
# 2 -0.003410 0.012221 -0.003548 0.000000 0.000000 0.002434
# 3 -0.003548 -0.003548 0.012424 0.000000 0.000000 0.000000
# 4 0.000000 0.000000 0.000000 0.035650 0.000000 0.000000
# 5 0.000000 0.000000 0.000000 0.000000 0.035650 0.000000
# 6 -0.002434 0.002434 0.000000 0.000000 0.000000 0.035474
#
#
# Mechanical properties :
#
#
# Convention : Reuss Voigt Hill
#
# Bulk Modulus (GPa) = 63.07055 63.07127 63.07091
# Shear Modulus (GPa) = 29.42263 29.78798 29.60531
#
# Velocity S-wave (km/s) = 3.76602 3.78933 3.77769
# Velocity P-wave (km/s) = 7.02233 7.03905 7.03070
#
# Compressibility (1/GPa) = 0.01585526
#
# Stress axis : x y z
#
# Youngs Moduli (GPa) = 81.82527 81.82528 80.48816
#
# Poissons Ratio (x) = 0.27904 0.28555
# Poissons Ratio (y) = 0.27904 0.28555
# Poissons Ratio (z) = 0.29029 0.29029
#
# Static dielectric constant tensor:
#      x y z
#    x 3.999330 0.000000 0.000000 
#    y 0.000000 3.999330 0.000000 
#    z 0.000000 0.000000 3.833420 
# 
# 
# High freq. dielectric constant tensor:
#      x y z
#    x 1.820550 0.000000 0.000000 
#    y 0.000000 1.820550 0.000000 
#    z 0.000000 0.000000 1.808400 
# 
# From -- ./inp_files/4720.got.cif
#   From: 2010.03.12/outbox.cif.g09.slc.cpg/sg88_3_cif.got.tgz:4720.got - 2010.04.08 20:20:55.
