data_PCOD8304666
_publ_section_title
;
Structure prediction by ZEFSAII (Michael W. Deem and Ramdas Pophale) SiO2 
 PCOD8304666
Probable space group: P 4 21 2
;
_chemical_formula_sum "Si O2"
_cell_formula_units_Z 48
_cell_length_a 8.081720
_cell_length_b 8.081720
_cell_length_c 33.418769
_cell_angle_alpha 90.000000
_cell_angle_beta 90.000000
_cell_angle_gamma 90.000000
_cell_volume 2182.720101
_symmetry_space_group_name_H-M "P 4 21 2"
_symmetry_group_IT_number 90
_symmetry_cell_setting 'tetragonal'
loop_
_space_group_symop_operation_xyz
x,y,z
1/2-y,1/2+x,z
-x,-y,z
1/2+y,1/2-x,z
1/2+x,1/2-y,-z
1/2-x,1/2+y,-z
y,x,-z
-y,-x,-z
loop_
_atom_site_type_symbol
_atom_site_label
_atom_site_fract_x
_atom_site_fract_y
_atom_site_fract_z
Si Si1 0.262139 0.584270 0.037975
Si Si2 0.587919 0.259581 0.616779
Si Si3 0.898398 0.755402 0.539465
Si Si4 0.741970 0.584459 0.832930
Si Si5 0.241917 0.914845 0.255861
Si Si6 0.000000 0.000000 0.318769
Si Si7 0.500000 0.500000 0.103882
O O1 0.206460 0.393379 0.037933
O O2 0.378217 0.612284 0.076707
O O3 0.376517 0.623483 0.000000
O O4 0.396510 0.208079 0.618816
O O5 0.624677 0.357853 0.576269
O O6 0.617896 0.384252 0.653807
O O7 0.788051 0.591011 0.540730
O O8 0.859584 0.859584 0.500000
O O9 0.894782 0.705214 0.838365
O O10 0.664947 0.610112 0.788551
O O11 0.609413 0.619333 0.867588
O O12 0.395214 0.794506 0.261403
O O13 0.107760 0.879001 0.290201
#
# Coordination Sequence:
#
# PCOD8304666 Si02
#       7
#     8   8   8   8   8   4   4
#     4  11  24  41  60  84 117 158 204 252 303 361
#     4  11  24  40  58  85 120 156 196 243 296 354
#     4  11  24  42  65  92 121 156 198 243 293 350
#     4   9  19  35  55  82 115 150 189 235 290 354
#     4   9  19  36  57  82 113 150 193 238 287 348
#     4  12  21  36  59  85 112 151 195 244 295 342
#     4  12  20  34  58  87 116 149 192 246 302 356
#
# _framework density 21.990911000000001
#
# number of rings (size 3 to 8) (size 9 to 14) (size 15 to 20)
#    0.000    1.500    0.000    6.750    0.000    3.000 
#    0.000    3.333    0.000    0.000    0.000   14.000 
#    0.000    0.000    0.000    0.000    0.000    0.000 
#
# Total GULP energy -595218.413115 kJ/mol
# GULP energy per Si atom -12400.383607 kJ/mol
# Density = 2.194086 g / cm^3
# Si number density = 21.990911 Si / 1000 Ang^3
#
#
#
# Elastic Constant Matrix: (Units=GPa)
#
#
# Indices 1 2 3 4 5 6 
#
# 1 70.8964 10.4561 41.7049 0.0000 0.0000 0.0000
# 2 10.4561 70.8966 41.7049 0.0000 0.0000 0.0000
# 3 41.7049 41.7049 181.4299 0.0000 0.0000 0.0000
# 4 0.0000 0.0000 0.0000 24.8449 0.0000 0.0000
# 5 0.0000 0.0000 0.0000 0.0000 24.8451 0.0000
# 6 0.0000 0.0000 0.0000 0.0000 0.0000 30.2508
#
#
#
# Elastic Compliance Matrix: (Units=1/GPa)
#
#
# Indices 1 2 3 4 5 6 
#
# 1 0.016314 -0.000231 -0.003697 0.000000 0.000000 0.000000
# 2 -0.000231 0.016314 -0.003697 0.000000 0.000000 0.000000
# 3 -0.003697 -0.003697 0.007211 0.000000 0.000000 0.000000
# 4 0.000000 0.000000 0.000000 0.040250 0.000000 0.000000
# 5 0.000000 0.000000 0.000000 0.000000 0.040249 0.000000
# 6 0.000000 0.000000 0.000000 0.000000 0.000000 0.033057
#
#
# Mechanical properties :
#
#
# Convention : Reuss Voigt Hill
#
# Bulk Modulus (GPa) = 40.66869 56.77276 48.72072
# Shear Modulus (GPa) = 28.27389 31.27862 29.77626
#
# Velocity S-wave (km/s) = 3.58957 3.77549 3.68370
# Velocity P-wave (km/s) = 5.97608 6.69912 6.34791
#
# Compressibility (1/GPa) = 0.02458894
#
# Stress axis : x y z
#
# Youngs Moduli (GPa) = 61.29745 61.29766 138.67041
#
# Poissons Ratio (x) = 0.01418 0.51264
# Poissons Ratio (y) = 0.01418 0.51264
# Poissons Ratio (z) = 0.22661 0.22661
#
# Static dielectric constant tensor:
#      x y z
#    x 3.820050 0.000000 0.000000 
#    y 0.000000 3.820050 0.000000 
#    z 0.000000 0.000000 4.151630 
# 
# 
# High freq. dielectric constant tensor:
#      x y z
#    x 1.856530 0.000000 0.000000 
#    y 0.000000 1.856530 0.000000 
#    z 0.000000 0.000000 1.884550 
# 
# From -- ./inp_files/3122.got.cif
#   From: 2010.03.12/outbox.cif.g09.slc.cpg/sg90_2_cif.got.tgz:3122.got - 2010.04.08 20:26:03.
