data_PCOD8304690
_publ_section_title
;
Structure prediction by ZEFSAII (Michael W. Deem and Ramdas Pophale) SiO2 
 PCOD8304690
Probable space group: P 4 21 2
;
_chemical_formula_sum "Si O2"
_cell_formula_units_Z 44
_cell_length_a 8.223697
_cell_length_b 8.223697
_cell_length_c 29.458011
_cell_angle_alpha 90.000000
_cell_angle_beta 90.000000
_cell_angle_gamma 90.000000
_cell_volume 1992.221492
_symmetry_space_group_name_H-M "P 4 21 2"
_symmetry_group_IT_number 90
_symmetry_cell_setting 'tetragonal'
loop_
_space_group_symop_operation_xyz
x,y,z
1/2-y,1/2+x,z
-x,-y,z
1/2+y,1/2-x,z
1/2+x,1/2-y,-z
1/2-x,1/2+y,-z
y,x,-z
-y,-x,-z
loop_
_atom_site_type_symbol
_atom_site_label
_atom_site_fract_x
_atom_site_fract_y
_atom_site_fract_z
Si Si1 0.566587 0.741868 0.138217
Si Si2 0.244855 0.919050 0.685546
Si Si3 0.743661 0.571971 0.212608
Si Si4 0.083563 0.240691 0.457508
Si Si5 0.933314 0.241450 0.962950
Si Si6 0.000000 0.000000 0.616414
O O1 0.386272 0.805657 0.145131
O O2 0.603103 0.605578 0.175903
O O3 0.587800 0.667544 0.087666
O O4 0.395115 0.800198 0.677320
O O5 0.174781 0.901768 0.736535
O O6 0.103532 0.879390 0.649228
O O7 0.803463 0.390385 0.205059
O O8 0.202485 0.395553 0.457314
O O9 0.126709 0.126709 0.500000
O O10 0.107552 0.124279 0.413908
O O11 0.805769 0.386271 0.970077
O O12 0.897546 0.102455 0.000000
#
# Coordination Sequence:
#
# PCOD8304690 Si02
#       6
#     8   8   8   8   8   4
#     4   9  19  35  53  74 104 141 179 223 280 344
#     4   9  20  38  57  81 116 156 199 249 302 359
#     4   9  19  35  54  78 108 143 189 240 287 340
#     4  11  24  43  67  96 132 173 219 267 314 369
#     4   9  19  35  52  73 103 137 174 221 277 337
#     4  12  21  34  62  92 120 160 205 248 306 362
#
# _framework density 22.085896999999999
#
# number of rings (size 3 to 8) (size 9 to 14) (size 15 to 20)
#    0.000    2.364    0.000    4.636    0.000    6.909 
#    0.000    5.455    0.000    4.909    0.000    0.000 
#    0.000    0.000    0.000    0.000    0.000    0.000 
#
# Total GULP energy -545453.178530 kJ/mol
# GULP energy per Si atom -12396.663148 kJ/mol
# Density = 2.203563 g / cm^3
# Si number density = 22.085897 Si / 1000 Ang^3
#
#
#
# Elastic Constant Matrix: (Units=GPa)
#
#
# Indices 1 2 3 4 5 6 
#
# 1 74.6502 33.7219 56.5951 0.0000 0.0000 0.0000
# 2 33.7219 74.6508 56.5957 0.0000 0.0000 0.0000
# 3 56.5951 56.5957 180.0243 0.0000 0.0000 0.0000
# 4 0.0000 0.0000 0.0000 -204.2805 0.0000 0.0000
# 5 0.0000 0.0000 0.0000 0.0000 -204.2617 0.0000
# 6 0.0000 0.0000 0.0000 0.0000 0.0000 36.2916
#
#
#
# Elastic Compliance Matrix: (Units=1/GPa)
#
#
# Indices 1 2 3 4 5 6 
#
# 1 0.019086 -0.005347 -0.004319 0.000000 0.000000 0.000000
# 2 -0.005347 0.019086 -0.004319 0.000000 0.000000 0.000000
# 3 -0.004319 -0.004319 0.008270 0.000000 0.000000 0.000000
# 4 0.000000 0.000000 0.000000 -0.004895 0.000000 0.000000
# 5 0.000000 0.000000 0.000000 0.000000 -0.004896 0.000000
# 6 0.000000 0.000000 0.000000 0.000000 0.000000 0.027555
#
#
# Mechanical properties :
#
#
# Convention : Reuss Voigt Hill
#
# Bulk Modulus (GPa) = 54.13823 69.23897 61.68860
# Shear Modulus (GPa) = 50.84760 -62.28927 -5.72084
#
# Velocity S-wave (km/s) = 4.80340 -5.31643 -1.61118
# Velocity P-wave (km/s) = 7.43837 2.50359 4.95284
#
# Compressibility (1/GPa) = 0.01847124
#
# Stress axis : x y z
#
# Youngs Moduli (GPa) = 52.39525 52.39545 120.91258
#
# Poissons Ratio (x) = 0.28016 0.52223
# Poissons Ratio (y) = 0.28016 0.52223
# Poissons Ratio (z) = 0.22630 0.22630
#
# Static dielectric constant tensor:
#      x y z
#    x 3.857830 0.000000 0.000000 
#    y 0.000000 3.857830 0.000000 
#    z 0.000000 0.000000 4.198240 
# 
# 
# High freq. dielectric constant tensor:
#      x y z
#    x 1.857710 0.000000 0.000000 
#    y 0.000000 1.857710 0.000000 
#    z 0.000000 0.000000 1.884530 
# 
# From -- ./inp_files/3010.got.cif
#   From: 2010.03.12/outbox.cif.g09.slc.cpg/sg90_2_cif.got.tgz:3010.got - 2010.04.08 20:26:03.
