data_PCOD8304590
_publ_section_title
;
Structure prediction by ZEFSAII (Michael W. Deem and Ramdas Pophale) SiO2 
 PCOD8304590
Probable space group: P 4 21 2
;
_chemical_formula_sum "Si O2"
_cell_formula_units_Z 48
_cell_length_a 8.197205
_cell_length_b 8.197205
_cell_length_c 33.149462
_cell_angle_alpha 90.000000
_cell_angle_beta 90.000000
_cell_angle_gamma 90.000000
_cell_volume 2227.450579
_symmetry_space_group_name_H-M "P 4 21 2"
_symmetry_group_IT_number 90
_symmetry_cell_setting 'tetragonal'
loop_
_space_group_symop_operation_xyz
x,y,z
1/2-y,1/2+x,z
-x,-y,z
1/2+y,1/2-x,z
1/2+x,1/2-y,-z
1/2-x,1/2+y,-z
y,x,-z
-y,-x,-z
loop_
_atom_site_type_symbol
_atom_site_label
_atom_site_fract_x
_atom_site_fract_y
_atom_site_fract_z
Si Si1 0.573183 0.738679 0.963898
Si Si2 0.921655 0.242964 0.623670
Si Si3 0.000000 0.000000 0.760699
Si Si4 0.500000 0.500000 0.103872
Si Si5 0.742682 0.570388 0.533264
Si Si6 0.760626 0.068520 0.693324
Si Si7 0.239031 0.064914 0.171660
O O1 0.387765 0.800879 0.966173
O O2 0.592666 0.636049 0.922819
O O3 0.614150 0.614150 0.000000
O O4 0.800573 0.394337 0.631040
O O5 0.903817 0.172274 0.578346
O O6 0.873440 0.098734 0.654176
O O7 0.093419 0.130798 0.788561
O O8 0.868676 0.094960 0.733228
O O9 0.408074 0.632390 0.131571
O O10 0.803456 0.388722 0.526780
O O11 0.604463 0.604463 0.500000
O O12 0.615380 0.197631 0.692998
O O13 0.380557 0.196519 0.171814
#
# Coordination Sequence:
#
# PCOD8304590 Si02
#       7
#     8   8   4   4   8   8   8
#     4  11  23  39  61  90 127 171 217 264 314 368
#     4   9  19  37  58  79 108 148 189 229 279 340
#     4  11  22  40  61  82 114 150 185 230 288 355
#     4  11  21  38  61  88 124 160 203 256 311 361
#     4   9  19  35  54  78 109 145 185 226 269 321
#     4  11  23  37  56  84 114 144 182 232 287 341
#     4  10  22  39  61  88 116 151 196 243 292 353
#
# _framework density 21.549299000000001
#
# number of rings (size 3 to 8) (size 9 to 14) (size 15 to 20)
#    0.000    1.833    0.000    5.250    0.000    1.667 
#    0.000    8.333    0.000    8.000    0.000    0.000 
#    0.000    0.000    0.000    0.000    0.000    0.000 
#
# Total GULP energy -595312.196732 kJ/mol
# GULP energy per Si atom -12402.337432 kJ/mol
# Density = 2.150025 g / cm^3
# Si number density = 21.549299 Si / 1000 Ang^3
#
#
#
# Elastic Constant Matrix: (Units=GPa)
#
#
# Indices 1 2 3 4 5 6 
#
# 1 78.7629 23.5602 52.0321 0.0000 0.0000 0.0000
# 2 23.5602 78.7629 52.0321 0.0000 0.0000 0.0000
# 3 52.0321 52.0321 173.0264 0.0000 0.0000 0.0000
# 4 0.0000 0.0000 0.0000 29.0617 0.0000 0.0000
# 5 0.0000 0.0000 0.0000 0.0000 29.0617 0.0000
# 6 0.0000 0.0000 0.0000 0.0000 0.0000 38.1245
#
#
#
# Elastic Compliance Matrix: (Units=1/GPa)
#
#
# Indices 1 2 3 4 5 6 
#
# 1 0.016097 -0.002018 -0.004234 0.000000 0.000000 0.000000
# 2 -0.002018 0.016097 -0.004234 0.000000 0.000000 0.000000
# 3 -0.004234 -0.004234 0.008326 0.000000 0.000000 0.000000
# 4 0.000000 0.000000 0.000000 0.034409 0.000000 0.000000
# 5 0.000000 0.000000 0.000000 0.000000 0.034409 0.000000
# 6 0.000000 0.000000 0.000000 0.000000 0.000000 0.026230
#
#
# Mechanical properties :
#
#
# Convention : Reuss Voigt Hill
#
# Bulk Modulus (GPa) = 51.15527 65.08899 58.12213
# Shear Modulus (GPa) = 30.66437 32.77812 31.72125
#
# Velocity S-wave (km/s) = 3.77634 3.90433 3.84087
# Velocity P-wave (km/s) = 6.54252 7.11304 6.83374
#
# Compressibility (1/GPa) = 0.01954833
#
# Stress axis : x y z
#
# Youngs Moduli (GPa) = 62.12384 62.12384 120.10911
#
# Poissons Ratio (x) = 0.12538 0.50851
# Poissons Ratio (y) = 0.12538 0.50851
# Poissons Ratio (z) = 0.26301 0.26301
#
# Static dielectric constant tensor:
#      x y z
#    x 3.762410 0.000000 0.000000 
#    y 0.000000 3.762410 0.000000 
#    z 0.000000 0.000000 3.935310 
# 
# 
# High freq. dielectric constant tensor:
#      x y z
#    x 1.847440 0.000000 0.000000 
#    y 0.000000 1.847440 0.000000 
#    z 0.000000 0.000000 1.854590 
# 
# From -- ./inp_files/3108.got.cif
#   From: 2010.03.12/outbox.cif.g09.slc.cpg/sg90_2_cif.got.tgz:3108.got - 2010.04.08 20:26:03.
