data_PCOD8304352
_publ_section_title
;
Structure prediction by ZEFSAII (Michael W. Deem and Ramdas Pophale) SiO2 
 PCOD8304352
Probable space group: I 41/A
;
_chemical_formula_sum "Si O2"
_cell_formula_units_Z 108
_cell_length_a 13.977709
_cell_length_b 13.977709
_cell_length_c 25.467133
_cell_angle_alpha 90.000000
_cell_angle_beta 90.000000
_cell_angle_gamma 90.000000
_cell_volume 4975.675462
_symmetry_space_group_name_H-M "I 41/A"
_symmetry_group_IT_number 88
_space_group.IT_coordinate_system_code '2'
_symmetry_cell_setting 'tetragonal'
loop_
_space_group_symop_operation_xyz
x,y,z
3/4-y,1/4+x,1/4+z
-x,1/2-y,z
1/4+y,1/4-x,1/4+z
-x,-y,-z
1/4+y,3/4-x,3/4-z
x,1/2+y,-z
3/4-y,3/4+x,3/4-z
1/2+x,1/2+y,1/2+z
1/4-y,3/4+x,3/4+z
1/2-x,-y,1/2+z
3/4+y,3/4-x,3/4+z
1/2-x,1/2-y,1/2-z
3/4+y,1/4-x,1/4-z
1/2+x,y,1/2-z
1/4-y,1/4+x,1/4-z
loop_
_atom_site_type_symbol
_atom_site_label
_atom_site_fract_x
_atom_site_fract_y
_atom_site_fract_z
Si Si1 0.085101 0.905587 0.159943
Si Si2 0.805955 0.701044 0.826463
Si Si3 0.966497 0.858247 0.252086
Si Si4 0.500000 0.750000 0.412412
Si Si5 0.825667 0.039092 0.558958
Si Si6 0.500000 0.250000 0.375000
Si Si7 0.109658 0.075857 0.961928
Si Si8 0.567945 0.871838 0.144775
O O1 0.176896 0.901548 0.199332
O O2 0.992535 0.914589 0.198419
O O3 0.073047 0.811387 0.123651
O O4 0.099116 0.999925 0.124402
O O5 0.757566 0.804047 0.818483
O O6 0.800841 0.639029 0.773590
O O7 0.917006 0.710414 0.838320
O O8 0.853567 0.868014 0.265611
O O9 0.000000 0.750000 0.243623
O O10 0.026045 0.906840 0.299886
O O11 0.562187 0.679043 0.449119
O O12 0.716735 0.071504 0.557735
O O13 0.857003 0.055103 0.619779
O O14 0.614352 0.766371 0.149540
#
# Coordination Sequence:
#
# PCOD8304352 Si02
#       8
#    16  16  16   8  16   4  16  16
#     4  11  25  44  63 105 140 179 227 288 334 416
#     4  10  24  44  67  95 137 165 237 283 343 409
#     4  11  22  42  62  98 143 180 224 273 334 409
#     4  10  23  44  72  95 149 178 224 287 356 396
#     4  11  24  40  71  98 130 184 232 270 347 401
#     4  12  22  40  72  92 124 180 204 298 348 384
#     4  10  23  46  67 100 128 181 227 284 342 409
#     4   9  17  37  60  91 133 169 216 264 311 397
#
# _framework density 21.705594999999999
#
# number of rings (size 3 to 8) (size 9 to 14) (size 15 to 20)
#    0.000    1.630    3.704    1.333    6.222    1.778 
#   10.667    0.000    0.000    0.000    0.000    0.000 
#    0.000    0.000    0.000    0.000    0.000    0.000 
#
# Total GULP energy -669364.090035 kJ/mol
# GULP energy per Si atom -12395.631297 kJ/mol
# Density = 2.165619 g / cm^3
# Si number density = 21.705595 Si / 1000 Ang^3
#
#
#
# Elastic Constant Matrix: (Units=GPa)
#
#
# Indices 1 2 3 4 5 6 
#
# 1 97.8002 20.2642 25.6418 0.0000 0.0000 0.4471
# 2 20.2642 97.8002 25.6418 0.0000 0.0000 -0.4471
# 3 25.6418 25.6418 107.4735 0.0000 0.0000 0.0000
# 4 0.0000 0.0000 0.0000 24.1751 0.0000 0.0000
# 5 0.0000 0.0000 0.0000 0.0000 24.1751 0.0000
# 6 0.4471 -0.4471 0.0000 0.0000 0.0000 26.1599
#
#
#
# Elastic Compliance Matrix: (Units=1/GPa)
#
#
# Indices 1 2 3 4 5 6 
#
# 1 0.011174 -0.001725 -0.002254 0.000000 0.000000 -0.000220
# 2 -0.001725 0.011174 -0.002254 0.000000 0.000000 0.000220
# 3 -0.002254 -0.002254 0.010380 0.000000 0.000000 0.000000
# 4 0.000000 0.000000 0.000000 0.041365 0.000000 0.000000
# 5 0.000000 0.000000 0.000000 0.000000 0.041365 0.000000
# 6 -0.000220 0.000220 0.000000 0.000000 0.000000 0.038234
#
#
# Mechanical properties :
#
#
# Convention : Reuss Voigt Hill
#
# Bulk Modulus (GPa) = 49.35593 49.57438 49.46516
# Shear Modulus (GPa) = 28.91589 30.33708 29.62649
#
# Velocity S-wave (km/s) = 3.65387 3.74259 3.69850
# Velocity P-wave (km/s) = 6.37097 6.44709 6.40914
#
# Compressibility (1/GPa) = 0.02026099
#
# Stress axis : x y z
#
# Youngs Moduli (GPa) = 89.48947 89.48947 96.33545
#
# Poissons Ratio (x) = 0.15439 0.21718
# Poissons Ratio (y) = 0.15439 0.21718
# Poissons Ratio (z) = 0.20175 0.20175
#
# Static dielectric constant tensor:
#      x y z
#    x 3.828820 0.000000 0.000000 
#    y 0.000000 3.828820 0.000000 
#    z 0.000000 0.000000 4.045100 
# 
# 
# High freq. dielectric constant tensor:
#      x y z
#    x 1.844570 0.000000 0.000000 
#    y 0.000000 1.844570 0.000000 
#    z 0.000000 0.000000 1.852580 
# 
# From -- ./inp_files/5401.got.cif
#   From: 2010.03.12/outbox.cif.g09.slc.cpg/sg88_3_cif.got.tgz:5401.got - 2010.04.08 20:20:55.
