data_PCOD8304730
_publ_section_title
;
Structure prediction by ZEFSAII (Michael W. Deem and Ramdas Pophale) SiO2 
 PCOD8304730
Probable space group: P 41 2 2
;
_chemical_formula_sum "Si O2"
_cell_formula_units_Z 48
_cell_length_a 9.084260
_cell_length_b 9.084260
_cell_length_c 31.335945
_cell_angle_alpha 90.000000
_cell_angle_beta 90.000000
_cell_angle_gamma 90.000000
_cell_volume 2585.960623
_symmetry_space_group_name_H-M "P 41 2 2"
_symmetry_group_IT_number 91
_symmetry_cell_setting 'tetragonal'
loop_
_space_group_symop_operation_xyz
x,y,z
-y,x,1/4+z
-x,-y,1/2+z
y,-x,3/4+z
x,-y,1/2-z
-x,y,-z
y,x,3/4-z
-y,-x,1/4-z
loop_
_atom_site_type_symbol
_atom_site_label
_atom_site_fract_x
_atom_site_fract_y
_atom_site_fract_z
Si Si1 0.167063 0.326483 0.083025
Si Si2 0.166358 0.672374 0.907194
Si Si3 0.674082 0.660511 0.499603
Si Si4 0.676666 0.170654 0.164263
Si Si5 0.360020 0.168894 0.249804
Si Si6 0.672922 0.839857 0.840340
O O1 0.245329 0.276471 0.126275
O O2 0.175626 0.500884 0.082925
O O3 0.998797 0.274539 0.081294
O O4 0.253954 0.263937 0.041684
O O5 0.190166 0.497127 0.906279
O O6 0.192137 0.730810 0.955893
O O7 0.001289 0.714247 0.892572
O O8 0.500000 0.687037 0.500000
O O9 0.744059 0.729570 0.456782
O O10 0.710595 0.488115 0.500103
O O11 0.762482 0.237519 0.125000
O O12 0.259477 0.189524 0.292546
O O13 0.425970 0.000000 0.250000
O O14 0.722869 0.722869 0.875000
#
# Coordination Sequence:
#
# PCOD8304730 Si02
#       6
#     8   8   8   8   8   8
#     4  10  20  34  52  76 106 138 171 213 264 311
#     4   9  18  33  52  73  99 134 175 216 254 307
#     4  10  18  30  52  79 104 133 171 215 263 311
#     4  10  20  35  53  75 104 138 176 216 260 309
#     4   8  16  32  50  71 103 138 171 211 260 308
#     4   9  18  32  51  74 101 133 170 213 260 310
#
# _framework density 18.561767
#
# number of rings (size 3 to 8) (size 9 to 14) (size 15 to 20)
#    0.000    2.667    0.000    4.500    0.000    6.667 
#    0.000    1.667    0.000    8.000    0.000    0.000 
#    0.000    0.000    0.000    0.000    0.000    0.000 
#
# Total GULP energy -594835.633005 kJ/mol
# GULP energy per Si atom -12392.409021 kJ/mol
# Density = 1.851952 g / cm^3
# Si number density = 18.561767 Si / 1000 Ang^3
#
#
#
# Elastic Constant Matrix: (Units=GPa)
#
#
# Indices 1 2 3 4 5 6 
#
# 1 59.4092 20.5093 51.8760 0.0000 0.0000 0.0000
# 2 20.5093 59.4077 51.8760 0.0000 0.0000 0.0000
# 3 51.8760 51.8760 182.1444 0.0000 0.0000 0.0000
# 4 0.0000 0.0000 0.0000 16.7916 0.0000 0.0000
# 5 0.0000 0.0000 0.0000 0.0000 16.7916 0.0000
# 6 0.0000 0.0000 0.0000 0.0000 0.0000 16.7136
#
#
#
# Elastic Compliance Matrix: (Units=1/GPa)
#
#
# Indices 1 2 3 4 5 6 
#
# 1 0.022780 -0.002927 -0.005654 0.000000 0.000000 0.000000
# 2 -0.002927 0.022781 -0.005655 0.000000 0.000000 0.000000
# 3 -0.005654 -0.005655 0.008711 0.000000 0.000000 0.000000
# 4 0.000000 0.000000 0.000000 0.059554 0.000000 0.000000
# 5 0.000000 0.000000 0.000000 0.000000 0.059554 0.000000
# 6 0.000000 0.000000 0.000000 0.000000 0.000000 0.059831
#
#
# Mechanical properties :
#
#
# Convention : Reuss Voigt Hill
#
# Bulk Modulus (GPa) = 38.75893 61.05378 49.90635
# Shear Modulus (GPa) = 18.49914 21.83935 20.16925
#
# Velocity S-wave (km/s) = 3.16036 3.43385 3.29994
# Velocity P-wave (km/s) = 5.85180 6.97749 6.43929
#
# Compressibility (1/GPa) = 0.02580051
#
# Stress axis : x y z
#
# Youngs Moduli (GPa) = 43.89772 43.89626 114.79721
#
# Poissons Ratio (x) = 0.12848 0.64910
# Poissons Ratio (y) = 0.12849 0.64913
# Poissons Ratio (z) = 0.24821 0.24821
#
# Static dielectric constant tensor:
#      x y z
#    x 3.132400 0.000000 0.000000 
#    y 0.000000 3.132400 0.000000 
#    z 0.000000 0.000000 3.907630 
# 
# 
# High freq. dielectric constant tensor:
#      x y z
#    x 1.690560 0.000000 0.000000 
#    y 0.000000 1.690560 0.000000 
#    z 0.000000 0.000000 1.750300 
# 
# From -- ./inp_files/18187.got.cif
#   From: 2010.03.12/outbox.cif.g09.slc.cpg/sg91_10_cif.got.tgz:18187.got - 2010.04.08 20:27:58.
