data_PCOD8304610
_publ_section_title
;
Structure prediction by ZEFSAII (Michael W. Deem and Ramdas Pophale) SiO2 
 PCOD8304610
Probable space group: P 4 21 2
;
_chemical_formula_sum "Si O2"
_cell_formula_units_Z 36
_cell_length_a 13.104547
_cell_length_b 13.104547
_cell_length_c 10.287441
_cell_angle_alpha 90.000000
_cell_angle_beta 90.000000
_cell_angle_gamma 90.000000
_cell_volume 1766.653520
_symmetry_space_group_name_H-M "P 4 21 2"
_symmetry_group_IT_number 90
_symmetry_cell_setting 'tetragonal'
loop_
_space_group_symop_operation_xyz
x,y,z
1/2-y,1/2+x,z
-x,-y,z
1/2+y,1/2-x,z
1/2+x,1/2-y,-z
1/2-x,1/2+y,-z
y,x,-z
-y,-x,-z
loop_
_atom_site_type_symbol
_atom_site_label
_atom_site_fract_x
_atom_site_fract_y
_atom_site_fract_z
Si Si1 0.219082 0.974127 0.298672
Si Si2 0.333496 0.016641 0.046436
Si Si3 0.889820 0.809761 0.128583
Si Si4 0.500000 0.500000 0.231197
Si Si5 0.813950 0.739615 0.634664
O O1 0.243379 0.020955 0.154748
O O2 0.280334 0.871717 0.320011
O O3 0.257929 0.064236 0.394256
O O4 0.096748 0.960351 0.316942
O O5 0.389664 0.910290 0.065256
O O6 0.283211 0.031605 0.903832
O O7 0.824215 0.783870 0.257161
O O8 0.961867 0.907431 0.143746
O O9 0.818466 0.818466 0.000000
O O10 0.758193 0.758193 0.500000
#
# Coordination Sequence:
#
# PCOD8304610 Si02
#       5
#     8   8   8   4   8
#     4  11  22  44  68  95 133 183 224 278 345 414
#     4  11  22  38  65  96 130 172 226 279 338 406
#     4  11  21  41  62 100 128 171 220 274 339 408
#     4  10  23  36  67  98 133 166 223 274 349 402
#     4  11  26  44  68  98 135 179 236 279 338 411
#
# _framework density 20.377510000000001
#
# number of rings (size 3 to 8) (size 9 to 14) (size 15 to 20)
#    0.000    1.111    6.667    0.333    3.111    4.000 
#    0.000    5.000    0.000    0.000    0.000    0.000 
#    0.000    0.000    0.000    0.000    0.000    0.000 
#
# Total GULP energy -446203.546743 kJ/mol
# GULP energy per Si atom -12394.542965 kJ/mol
# Density = 2.033113 g / cm^3
# Si number density = 20.377510 Si / 1000 Ang^3
#
#
#
# Elastic Constant Matrix: (Units=GPa)
#
#
# Indices 1 2 3 4 5 6 
#
# 1 110.7979 50.8974 27.4968 0.0000 0.0000 0.0000
# 2 50.8974 110.7979 27.4968 0.0000 0.0000 0.0000
# 3 27.4968 27.4968 88.0241 0.0000 0.0000 0.0000
# 4 0.0000 0.0000 0.0000 20.2308 0.0000 0.0000
# 5 0.0000 0.0000 0.0000 0.0000 20.2308 0.0000
# 6 0.0000 0.0000 0.0000 0.0000 0.0000 23.9561
#
#
#
# Elastic Compliance Matrix: (Units=1/GPa)
#
#
# Indices 1 2 3 4 5 6 
#
# 1 0.011807 -0.004887 -0.002162 0.000000 0.000000 0.000000
# 2 -0.004887 0.011807 -0.002162 0.000000 0.000000 0.000000
# 3 -0.002162 -0.002162 0.012711 0.000000 0.000000 0.000000
# 4 0.000000 0.000000 0.000000 0.049430 0.000000 0.000000
# 5 0.000000 0.000000 0.000000 0.000000 0.049430 0.000000
# 6 0.000000 0.000000 0.000000 0.000000 0.000000 0.041743
#
#
# Mechanical properties :
#
#
# Convention : Reuss Voigt Hill
#
# Bulk Modulus (GPa) = 55.85330 57.93357 56.89343
# Shear Modulus (GPa) = 24.83656 26.46546 25.65101
#
# Velocity S-wave (km/s) = 3.49495 3.60774 3.55179
# Velocity P-wave (km/s) = 6.61476 6.77099 6.69333
#
# Compressibility (1/GPa) = 0.01790405
#
# Stress axis : x y z
#
# Youngs Moduli (GPa) = 84.69566 84.69566 78.67220
#
# Poissons Ratio (x) = 0.41394 0.17005
# Poissons Ratio (y) = 0.41394 0.17005
# Poissons Ratio (z) = 0.18307 0.18307
#
# Static dielectric constant tensor:
#      x y z
#    x 3.819500 0.000000 0.000000 
#    y 0.000000 3.819500 0.000000 
#    z 0.000000 0.000000 3.434410 
# 
# 
# High freq. dielectric constant tensor:
#      x y z
#    x 1.807650 0.000000 0.000000 
#    y 0.000000 1.807650 0.000000 
#    z 0.000000 0.000000 1.765530 
# 
# From -- ./inp_files/1154.got.cif
#   From: 2010.03.12/outbox.cif.g09.slc.cpg/sg90_1_cif.got.tgz:1154.got - 2010.04.08 20:26:03.
