data_PCOD8304502
_publ_section_title
;
Structure prediction by ZEFSAII (Michael W. Deem and Ramdas Pophale) SiO2 
 PCOD8304502
Probable space group: P 4 2 2
;
_chemical_formula_sum "Si O2"
_cell_formula_units_Z 40
_cell_length_a 9.561935
_cell_length_b 9.561935
_cell_length_c 22.568475
_cell_angle_alpha 90.000000
_cell_angle_beta 90.000000
_cell_angle_gamma 90.000000
_cell_volume 2063.449232
_symmetry_space_group_name_H-M "P 4 2 2"
_symmetry_group_IT_number 89
_symmetry_cell_setting 'tetragonal'
loop_
_space_group_symop_operation_xyz
x,y,z
-y,x,z
-x,-y,z
y,-x,z
x,-y,-z
-x,y,-z
y,x,-z
-y,-x,-z
loop_
_atom_site_type_symbol
_atom_site_label
_atom_site_fract_x
_atom_site_fract_y
_atom_site_fract_z
Si Si1 0.635810 0.313344 0.845142
Si Si2 0.851963 0.829994 0.930856
Si Si3 0.647901 0.121198 0.322222
Si Si4 0.832377 0.351046 0.278804
Si Si5 0.987320 0.769207 0.434735
O O1 0.693482 0.469628 0.850118
O O2 0.708605 0.231701 0.898236
O O3 0.675783 0.243687 0.783160
O O4 0.013584 0.806239 0.913056
O O5 0.818108 0.818108 0.000000
O O6 0.771695 0.232861 0.322181
O O7 0.501791 0.199386 0.308615
O O8 0.648863 0.037164 0.385117
O O9 0.669756 0.999782 0.272336
O O10 0.128730 0.855664 0.426811
O O11 0.000000 0.699296 0.500000
#
# Coordination Sequence:
#
# PCOD8304502 Si02
#       5
#     8   8   8   8   8
#     4  11  24  41  61  88 126 169 213 260 321 386
#     4   9  21  42  66  94 128 165 211 267 322 374
#     4  11  22  39  61  89 126 162 209 254 320 384
#     4  11  24  38  59  90 125 163 206 259 312 385
#     4   9  17  33  61  87 118 157 205 261 316 364
#
# _framework density 19.385017000000001
#
# number of rings (size 3 to 8) (size 9 to 14) (size 15 to 20)
#    0.000    1.800    4.000    1.200    2.800    2.400 
#    0.000    5.000    0.000    0.000    0.000    0.000 
#    0.000    0.000    0.000    0.000    0.000    0.000 
#
# Total GULP energy -495731.201219 kJ/mol
# GULP energy per Si atom -12393.280030 kJ/mol
# Density = 1.934090 g / cm^3
# Si number density = 19.385017 Si / 1000 Ang^3
#
#
#
# Elastic Constant Matrix: (Units=GPa)
#
#
# Indices 1 2 3 4 5 6 
#
# 1 93.1131 59.2756 48.6253 0.0000 0.0000 0.0000
# 2 59.2756 93.1131 48.6253 0.0000 0.0000 0.0000
# 3 48.6253 48.6253 105.1776 0.0000 0.0000 0.0000
# 4 0.0000 0.0000 0.0000 27.1367 0.0000 0.0000
# 5 0.0000 0.0000 0.0000 0.0000 27.1367 0.0000
# 6 0.0000 0.0000 0.0000 0.0000 0.0000 38.0055
#
#
#
# Elastic Compliance Matrix: (Units=1/GPa)
#
#
# Indices 1 2 3 4 5 6 
#
# 1 0.019431 -0.010122 -0.004303 0.000000 0.000000 0.000000
# 2 -0.010122 0.019431 -0.004303 0.000000 0.000000 0.000000
# 3 -0.004303 -0.004303 0.013487 0.000000 0.000000 0.000000
# 4 0.000000 0.000000 0.000000 0.036850 0.000000 0.000000
# 5 0.000000 0.000000 0.000000 0.000000 0.036850 0.000000
# 6 0.000000 0.000000 0.000000 0.000000 0.000000 0.026312
#
#
# Mechanical properties :
#
#
# Convention : Reuss Voigt Hill
#
# Bulk Modulus (GPa) = 67.15916 67.16180 67.16048
# Shear Modulus (GPa) = 25.66957 27.44760 26.55859
#
# Velocity S-wave (km/s) = 3.64290 3.76695 3.70544
# Velocity P-wave (km/s) = 7.23978 7.32403 7.28202
#
# Compressibility (1/GPa) = 0.01489000
#
# Stress axis : x y z
#
# Youngs Moduli (GPa) = 51.46480 51.46480 74.14609
#
# Poissons Ratio (x) = 0.52094 0.31909
# Poissons Ratio (y) = 0.52094 0.31909
# Poissons Ratio (z) = 0.22148 0.22148
#
# Static dielectric constant tensor:
#      x y z
#    x 3.498370 0.000000 0.000000 
#    y 0.000000 3.498370 0.000000 
#    z 0.000000 0.000000 3.505300 
# 
# 
# High freq. dielectric constant tensor:
#      x y z
#    x 1.752750 0.000000 0.000000 
#    y 0.000000 1.752750 0.000000 
#    z 0.000000 0.000000 1.753100 
# 
# From -- ./inp_files/2699.got.cif
#   From: 2010.03.12/outbox.cif.g09.slc.cpg/sg89_2_cif.got.tgz:2699.got - 2010.04.08 20:24:03.
