data_PCOD8304607
_publ_section_title
;
Structure prediction by ZEFSAII (Michael W. Deem and Ramdas Pophale) SiO2 
 PCOD8304607
Probable space group: P 4 21 2
;
_chemical_formula_sum "Si O2"
_cell_formula_units_Z 48
_cell_length_a 14.438680
_cell_length_b 14.438680
_cell_length_c 10.098914
_cell_angle_alpha 90.000000
_cell_angle_beta 90.000000
_cell_angle_gamma 90.000000
_cell_volume 2105.375945
_symmetry_space_group_name_H-M "P 4 21 2"
_symmetry_group_IT_number 90
_symmetry_cell_setting 'tetragonal'
loop_
_space_group_symop_operation_xyz
x,y,z
1/2-y,1/2+x,z
-x,-y,z
1/2+y,1/2-x,z
1/2+x,1/2-y,-z
1/2-x,1/2+y,-z
y,x,-z
-y,-x,-z
loop_
_atom_site_type_symbol
_atom_site_label
_atom_site_fract_x
_atom_site_fract_y
_atom_site_fract_z
Si Si1 0.066286 0.219452 0.977450
Si Si2 0.946044 0.095016 0.812932
Si Si3 0.281470 0.127329 0.750894
Si Si4 0.959066 0.243062 0.609157
Si Si5 0.640236 0.205301 0.280277
Si Si6 0.244038 0.938158 0.682449
O O1 0.089859 0.293458 0.862627
O O2 0.971884 0.160660 0.940720
O O3 0.148691 0.148691 0.000000
O O4 0.065236 0.275094 0.114253
O O5 0.982051 0.145558 0.680442
O O6 0.837504 0.076135 0.790288
O O7 0.000000 0.000000 0.830325
O O8 0.206159 0.204922 0.717470
O O9 0.383461 0.168922 0.740808
O O10 0.267653 0.044599 0.647904
O O11 0.886370 0.298928 0.701469
O O12 0.907528 0.223484 0.469247
O O13 0.059446 0.294184 0.607369
#
# Coordination Sequence:
#
# PCOD8304607 Si02
#       6
#     8   8   8   8   8   8
#     4   9  21  43  66  96 134 175 227 282 349 416
#     4  11  23  40  69 106 138 177 236 293 358 412
#     4  11  25  44  65  99 140 184 238 287 358 413
#     4  11  23  40  67  98 141 186 236 285 355 422
#     4  10  22  43  66  97 136 181 236 293 346 420
#     4  12  25  41  67 100 140 192 230 291 353 423
#
# _framework density 22.798777000000001
#
# number of rings (size 3 to 8) (size 9 to 14) (size 15 to 20)
#    0.000    1.333    1.667    4.500    0.000   10.333 
#    3.000    1.667    0.000    4.000    0.000    0.000 
#    0.000    0.000    0.000    0.000    0.000    0.000 
#
# Total GULP energy -594651.380880 kJ/mol
# GULP energy per Si atom -12388.570435 kJ/mol
# Density = 2.274689 g / cm^3
# Si number density = 22.798777 Si / 1000 Ang^3
#
#
#
# Elastic Constant Matrix: (Units=GPa)
#
#
# Indices 1 2 3 4 5 6 
#
# 1 104.9448 46.1079 37.6379 0.0000 0.0000 0.0000
# 2 46.1079 104.9448 37.6379 0.0000 0.0000 0.0000
# 3 37.6379 37.6379 104.6848 0.0000 0.0000 0.0000
# 4 0.0000 0.0000 0.0000 16.0271 0.0000 0.0000
# 5 0.0000 0.0000 0.0000 0.0000 16.0271 0.0000
# 6 0.0000 0.0000 0.0000 0.0000 0.0000 32.5030
#
#
#
# Elastic Compliance Matrix: (Units=1/GPa)
#
#
# Indices 1 2 3 4 5 6 
#
# 1 0.012531 -0.004465 -0.002900 0.000000 0.000000 0.000000
# 2 -0.004465 0.012531 -0.002900 0.000000 0.000000 0.000000
# 3 -0.002900 -0.002900 0.011638 0.000000 0.000000 0.000000
# 4 0.000000 0.000000 0.000000 0.062394 0.000000 0.000000
# 5 0.000000 0.000000 0.000000 0.000000 0.062394 0.000000
# 6 0.000000 0.000000 0.000000 0.000000 0.000000 0.030766
#
#
# Mechanical properties :
#
#
# Convention : Reuss Voigt Hill
#
# Bulk Modulus (GPa) = 61.84617 61.92687 61.88652
# Shear Modulus (GPa) = 22.91752 25.79081 24.35416
#
# Velocity S-wave (km/s) = 3.17394 3.36703 3.27191
# Velocity P-wave (km/s) = 6.37320 6.50671 6.44030
#
# Compressibility (1/GPa) = 0.01616915
#
# Stress axis : x y z
#
# Youngs Moduli (GPa) = 79.80394 79.80394 85.92820
#
# Poissons Ratio (x) = 0.35636 0.24917
# Poissons Ratio (y) = 0.35636 0.24917
# Poissons Ratio (z) = 0.23141 0.23141
#
# Static dielectric constant tensor:
#      x y z
#    x 4.127050 0.000000 0.000000 
#    y 0.000000 4.127050 0.000000 
#    z 0.000000 0.000000 4.658700 
# 
# 
# High freq. dielectric constant tensor:
#      x y z
#    x 1.891540 0.000000 0.000000 
#    y 0.000000 1.891540 0.000000 
#    z 0.000000 0.000000 1.912140 
# 
# From -- ./inp_files/2133.got.cif
#   From: 2010.03.12/outbox.cif.g09.slc.cpg/sg90_2_cif.got.tgz:2133.got - 2010.04.08 20:26:03.
