data_PCOD8304657
_publ_section_title
;
Structure prediction by ZEFSAII (Michael W. Deem and Ramdas Pophale) SiO2 
 PCOD8304657
Probable space group: P 4 21 2
;
_chemical_formula_sum "Si O2"
_cell_formula_units_Z 48
_cell_length_a 8.184836
_cell_length_b 8.184836
_cell_length_c 30.098665
_cell_angle_alpha 90.000000
_cell_angle_beta 90.000000
_cell_angle_gamma 90.000000
_cell_volume 2016.355931
_symmetry_space_group_name_H-M "P 4 21 2"
_symmetry_group_IT_number 90
_symmetry_cell_setting 'tetragonal'
loop_
_space_group_symop_operation_xyz
x,y,z
1/2-y,1/2+x,z
-x,-y,z
1/2+y,1/2-x,z
1/2+x,1/2-y,-z
1/2-x,1/2+y,-z
y,x,-z
-y,-x,-z
loop_
_atom_site_type_symbol
_atom_site_label
_atom_site_fract_x
_atom_site_fract_y
_atom_site_fract_z
Si Si1 0.235112 0.979273 0.631541
Si Si2 0.758396 0.072840 0.304921
Si Si3 0.411330 0.251922 0.203973
Si Si4 0.255121 0.408053 0.958061
Si Si5 0.963851 0.764624 0.468637
Si Si6 0.912455 0.244806 0.124643
O O1 0.355917 0.828555 0.641889
O O2 0.089475 0.918903 0.663652
O O3 0.171772 0.009469 0.581499
O O4 0.610174 0.197563 0.314540
O O5 0.815897 0.102126 0.254381
O O6 0.597031 0.203636 0.194521
O O7 0.349958 0.393956 0.171414
O O8 0.206256 0.596465 0.959014
O O9 0.362582 0.378550 0.914272
O O10 0.368325 0.368325 0.000000
O O11 0.820764 0.635444 0.478803
O O12 0.920379 0.920379 0.500000
O O13 0.795389 0.400797 0.120708
#
# Coordination Sequence:
#
# PCOD8304657 Si02
#       6
#     8   8   8   8   8   8
#     4   9  19  37  57  84 120 153 190 238 290 346
#     4   9  19  37  61  91 123 156 199 247 295 356
#     4   9  19  37  60  86 119 157 199 249 302 359
#     4  11  24  41  62  88 118 156 206 262 318 378
#     4   9  19  39  62  88 120 153 193 240 289 344
#     4  11  24  39  56  85 123 161 205 256 310 371
#
# _framework density 23.805320999999999
#
# number of rings (size 3 to 8) (size 9 to 14) (size 15 to 20)
#    0.000    2.333    0.000    4.000    0.000    9.333 
#    0.000   21.667    0.000    8.000    0.000    0.000 
#    0.000    0.000    0.000    0.000    0.000    0.000 
#
# Total GULP energy -594759.730658 kJ/mol
# GULP energy per Si atom -12390.827722 kJ/mol
# Density = 2.375114 g / cm^3
# Si number density = 23.805321 Si / 1000 Ang^3
#
#
#
# Elastic Constant Matrix: (Units=GPa)
#
#
# Indices 1 2 3 4 5 6 
#
# 1 24.4793 52.4011 42.6388 0.0000 0.0000 0.0000
# 2 52.4011 24.4793 42.6388 0.0000 0.0000 0.0000
# 3 42.6388 42.6388 159.2980 0.0000 0.0000 0.0000
# 4 0.0000 0.0000 0.0000 -7.3511 0.0000 0.0000
# 5 0.0000 0.0000 0.0000 0.0000 -7.3511 0.0000
# 6 0.0000 0.0000 0.0000 0.0000 0.0000 57.5317
#
#
#
# Elastic Compliance Matrix: (Units=1/GPa)
#
#
# Indices 1 2 3 4 5 6 
#
# 1 -0.008657 0.027157 -0.004952 0.000000 0.000000 0.000000
# 2 0.027157 -0.008657 -0.004952 0.000000 0.000000 0.000000
# 3 -0.004952 -0.004952 0.008928 0.000000 0.000000 0.000000
# 4 0.000000 0.000000 0.000000 -0.136033 0.000000 0.000000
# 5 0.000000 0.000000 0.000000 0.000000 -0.136033 0.000000
# 6 0.000000 0.000000 0.000000 0.000000 0.000000 0.017382
#
#
# Mechanical properties :
#
#
# Convention : Reuss Voigt Hill
#
# Bulk Modulus (GPa) = 38.28350 53.73489 46.00919
# Shear Modulus (GPa) = -17.30875 13.27108 -2.01883
#
# Velocity S-wave (km/s) = -2.69940 2.36367 -0.92190
# Velocity P-wave (km/s) = 2.53005 5.48369 4.27037
#
# Compressibility (1/GPa) = 0.02612092
#
# Stress axis : x y z
#
# Youngs Moduli (GPa) = -115.51026 -115.51026 112.00216
#
# Poissons Ratio (x) = 3.13692 0.55461
# Poissons Ratio (y) = 3.13692 0.55461
# Poissons Ratio (z) = -0.57198 -0.57198
#
# Static dielectric constant tensor:
#      x y z
#    x 4.315580 0.000000 0.000000 
#    y 0.000000 4.315580 0.000000 
#    z 0.000000 0.000000 4.153410 
# 
# 
# High freq. dielectric constant tensor:
#      x y z
#    x 1.957750 0.000000 0.000000 
#    y 0.000000 1.957750 0.000000 
#    z 0.000000 0.000000 1.936390 
# 
# From -- ./inp_files/3044.got.cif
#   From: 2010.03.12/outbox.cif.g09.slc.cpg/sg90_2_cif.got.tgz:3044.got - 2010.04.08 20:26:03.
