data_PCOD8304927
_publ_section_title
;
Structure prediction by ZEFSAII (Michael W. Deem and Ramdas Pophale) SiO2 
 PCOD8304927
Probable space group: P 41 2 2
;
_chemical_formula_sum "Si O2"
_cell_formula_units_Z 40
_cell_length_a 15.482389
_cell_length_b 15.482389
_cell_length_c 6.880388
_cell_angle_alpha 90.000000
_cell_angle_beta 90.000000
_cell_angle_gamma 90.000000
_cell_volume 1649.259065
_symmetry_space_group_name_H-M "P 41 2 2"
_symmetry_group_IT_number 91
_symmetry_cell_setting 'tetragonal'
loop_
_space_group_symop_operation_xyz
x,y,z
-y,x,1/4+z
-x,-y,1/2+z
y,-x,3/4+z
x,-y,1/2-z
-x,y,-z
y,x,3/4-z
-y,-x,1/4-z
loop_
_atom_site_type_symbol
_atom_site_label
_atom_site_fract_x
_atom_site_fract_y
_atom_site_fract_z
Si Si1 0.786748 0.121020 0.406652
Si Si2 0.765614 0.062455 0.968358
Si Si3 0.715428 0.579951 0.397504
Si Si4 0.630369 0.761760 0.952349
Si Si5 0.592201 0.864079 0.586418
O O1 0.773886 0.089643 0.189635
O O2 0.707275 0.179563 0.468716
O O3 0.795169 0.037384 0.550415
O O4 0.821988 0.125591 0.828867
O O5 0.664380 0.061948 0.900888
O O6 0.718147 0.500000 0.250000
O O7 0.623428 0.623428 0.375000
O O8 0.734625 0.563638 0.625164
O O9 0.794204 0.637154 0.311226
O O10 0.672206 0.672206 0.875000
O O11 0.576167 0.815244 0.791923
O O12 0.500000 0.899054 0.500000
#
# Coordination Sequence:
#
# PCOD8304927 Si02
#       5
#     8   8   8   8   8
#     4  10  21  39  73  99 147 201 254 311 376 460
#     4  10  20  42  69 105 147 202 253 310 389 446
#     4  11  23  43  72 101 140 183 236 301 373 463
#     4  12  22  42  74 106 133 199 248 303 377 461
#     4  11  24  42  71 101 147 187 253 315 370 457
#
# _framework density 24.253312000000001
#
# number of rings (size 3 to 8) (size 9 to 14) (size 15 to 20)
#    0.000    1.200    6.000    0.000    0.000    4.000 
#    0.000    4.000   26.400    0.000    0.000    0.000 
#    0.000    0.000    0.000    0.000    0.000    0.000 
#
# Total GULP energy -495553.198744 kJ/mol
# GULP energy per Si atom -12388.829969 kJ/mol
# Density = 2.419811 g / cm^3
# Si number density = 24.253312 Si / 1000 Ang^3
#
#
#
# Elastic Constant Matrix: (Units=GPa)
#
#
# Indices 1 2 3 4 5 6 
#
# 1 122.0841 56.4063 59.8620 0.0000 0.0000 0.0000
# 2 56.4063 122.0841 59.8620 0.0000 0.0000 0.0000
# 3 59.8620 59.8620 115.1374 0.0000 0.0000 0.0000
# 4 0.0000 0.0000 0.0000 48.3542 0.0000 0.0000
# 5 0.0000 0.0000 0.0000 0.0000 48.3542 0.0000
# 6 0.0000 0.0000 0.0000 0.0000 0.0000 12.4252
#
#
#
# Elastic Compliance Matrix: (Units=1/GPa)
#
#
# Indices 1 2 3 4 5 6 
#
# 1 0.011914 -0.003312 -0.004473 0.000000 0.000000 0.000000
# 2 -0.003312 0.011914 -0.004473 0.000000 0.000000 0.000000
# 3 -0.004473 -0.004473 0.013336 0.000000 0.000000 0.000000
# 4 0.000000 0.000000 0.000000 0.020681 0.000000 0.000000
# 5 0.000000 0.000000 0.000000 0.000000 0.020681 0.000000
# 6 0.000000 0.000000 0.000000 0.000000 0.000000 0.080482
#
#
# Mechanical properties :
#
#
# Convention : Reuss Voigt Hill
#
# Bulk Modulus (GPa) = 79.04690 79.06290 79.05490
# Shear Modulus (GPa) = 26.63280 34.03840 30.33560
#
# Velocity S-wave (km/s) = 3.31737 3.75033 3.54048
# Velocity P-wave (km/s) = 6.88013 7.17098 7.02706
#
# Compressibility (1/GPa) = 0.01265072
#
# Stress axis : x y z
#
# Youngs Moduli (GPa) = 83.93324 83.93324 74.98443
#
# Poissons Ratio (x) = 0.27795 0.33538
# Poissons Ratio (y) = 0.27795 0.33538
# Poissons Ratio (z) = 0.37540 0.37540
#
# Static dielectric constant tensor:
#      x y z
#    x 4.358100 0.000000 0.000000 
#    y 0.000000 4.358100 0.000000 
#    z 0.000000 0.000000 4.898390 
# 
# 
# High freq. dielectric constant tensor:
#      x y z
#    x 1.948840 0.000000 0.000000 
#    y 0.000000 1.948840 0.000000 
#    z 0.000000 0.000000 2.004290 
# 
# From -- ./inp_files/822.got.cif
#   From: 2010.03.12/outbox.cif.g09.slc.cpg/sg91_1_cif.got.tgz:822.got - 2010.04.08 20:27:58.
