data_PCOD8304344
_publ_section_title
;
Structure prediction by ZEFSAII (Michael W. Deem and Ramdas Pophale) SiO2 
 PCOD8304344
Probable space group: I 41/A
;
_chemical_formula_sum "Si O2"
_cell_formula_units_Z 88
_cell_length_a 16.627317
_cell_length_b 16.627317
_cell_length_c 15.262166
_cell_angle_alpha 90.000000
_cell_angle_beta 90.000000
_cell_angle_gamma 90.000000
_cell_volume 4219.495483
_symmetry_space_group_name_H-M "I 41/A"
_symmetry_group_IT_number 88
_space_group.IT_coordinate_system_code '2'
_symmetry_cell_setting 'tetragonal'
loop_
_space_group_symop_operation_xyz
x,y,z
3/4-y,1/4+x,1/4+z
-x,1/2-y,z
1/4+y,1/4-x,1/4+z
-x,-y,-z
1/4+y,3/4-x,3/4-z
x,1/2+y,-z
3/4-y,3/4+x,3/4-z
1/2+x,1/2+y,1/2+z
1/4-y,3/4+x,3/4+z
1/2-x,-y,1/2+z
3/4+y,3/4-x,3/4+z
1/2-x,1/2-y,1/2-z
3/4+y,1/4-x,1/4-z
1/2+x,y,1/2-z
1/4-y,1/4+x,1/4-z
loop_
_atom_site_type_symbol
_atom_site_label
_atom_site_fract_x
_atom_site_fract_y
_atom_site_fract_z
Si Si1 0.500000 0.250000 0.375000
Si Si2 0.355789 0.684923 0.718232
Si Si3 0.860245 0.339892 0.526897
Si Si4 0.664661 0.004155 0.081089
Si Si5 0.263688 0.428313 0.440109
Si Si6 0.008871 0.530607 0.131236
Si Si7 0.500000 0.250000 0.875000
O O1 0.553172 0.306887 0.313549
O O2 0.341265 0.592944 0.747295
O O3 0.297085 0.704307 0.636433
O O4 0.340957 0.746953 0.798048
O O5 0.793842 0.356778 0.602536
O O6 0.876831 0.417647 0.464357
O O7 0.824353 0.267569 0.469661
O O8 0.944844 0.309732 0.566651
O O9 0.745003 0.033374 0.129674
O O10 0.688654 0.942976 0.004098
O O11 0.244614 0.351655 0.381736
#
# Coordination Sequence:
#
# PCOD8304344 Si02
#       7
#     4  16  16  16  16  16   4
#     4  12  24  38  56  96 148 170 212 268 336 414
#     4  11  23  36  58  95 131 174 209 265 336 396
#     4  11  25  46  69  98 132 176 223 277 331 398
#     4  10  23  41  73  95 122 175 229 267 324 401
#     4  11  19  40  63  96 127 164 221 272 319 390
#     4  11  23  39  64  91 135 172 216 273 328 389
#     4  12  28  50  64  96 144 170 224 284 332 386
#
# _framework density 20.855573
#
# number of rings (size 3 to 8) (size 9 to 14) (size 15 to 20)
#    0.000    1.091    5.455    1.091    0.000    2.909 
#    3.273    0.000    0.000    0.000    0.000    0.000 
#    0.000    0.000    0.000    0.000    0.000    0.000 
#
# Total GULP energy -545560.694870 kJ/mol
# GULP energy per Si atom -12399.106702 kJ/mol
# Density = 2.080810 g / cm^3
# Si number density = 20.855573 Si / 1000 Ang^3
#
#
#
# Elastic Constant Matrix: (Units=GPa)
#
#
# Indices 1 2 3 4 5 6 
#
# 1 97.8176 45.2572 39.2861 0.0000 0.0000 -2.4331
# 2 45.2572 97.8176 39.2861 0.0000 0.0000 2.4331
# 3 39.2861 39.2861 96.6815 0.0000 0.0000 0.0000
# 4 0.0000 0.0000 0.0000 26.1432 0.0000 0.0000
# 5 0.0000 0.0000 0.0000 0.0000 26.1432 0.0000
# 6 -2.4331 2.4331 0.0000 0.0000 0.0000 29.2162
#
#
#
# Elastic Compliance Matrix: (Units=1/GPa)
#
#
# Indices 1 2 3 4 5 6 
#
# 1 0.014085 -0.005088 -0.003656 0.000000 0.000000 0.001597
# 2 -0.005088 0.014085 -0.003656 0.000000 0.000000 -0.001597
# 3 -0.003656 -0.003656 0.013314 0.000000 0.000000 0.000000
# 4 0.000000 0.000000 0.000000 0.038251 0.000000 0.000000
# 5 0.000000 0.000000 0.000000 0.000000 0.038251 0.000000
# 6 0.001597 -0.001597 0.000000 0.000000 0.000000 0.034493
#
#
# Mechanical properties :
#
#
# Convention : Reuss Voigt Hill
#
# Bulk Modulus (GPa) = 59.93466 59.99727 59.96596
# Shear Modulus (GPa) = 27.34601 27.53301 27.43951
#
# Velocity S-wave (km/s) = 3.62499 3.63736 3.63118
# Velocity P-wave (km/s) = 6.80596 6.81696 6.81146
#
# Compressibility (1/GPa) = 0.01668484
#
# Stress axis : x y z
#
# Youngs Moduli (GPa) = 70.99595 70.99595 75.10683
#
# Poissons Ratio (x) = 0.36124 0.27458
# Poissons Ratio (y) = 0.36124 0.27458
# Poissons Ratio (z) = 0.25956 0.25956
#
# Static dielectric constant tensor:
#      x y z
#    x 3.633980 0.000000 0.000000 
#    y 0.000000 3.633980 0.000000 
#    z 0.000000 0.000000 3.773020 
# 
# 
# High freq. dielectric constant tensor:
#      x y z
#    x 1.811440 0.000000 0.000000 
#    y 0.000000 1.811440 0.000000 
#    z 0.000000 0.000000 1.819240 
# 
# From -- ./inp_files/3233.got.cif
#   From: 2010.03.12/outbox.cif.g09.slc.cpg/sg88_2_cif.got.tgz:3233.got - 2010.04.08 20:20:55.
