data_PCOD8304427
_publ_section_title
;
Structure prediction by ZEFSAII (Michael W. Deem and Ramdas Pophale) SiO2 
 PCOD8304427
Probable space group: I 41/A
;
_chemical_formula_sum "Si O2"
_cell_formula_units_Z 32
_cell_length_a 16.998540
_cell_length_b 16.998540
_cell_length_c 4.826986
_cell_angle_alpha 90.000000
_cell_angle_beta 90.000000
_cell_angle_gamma 90.000000
_cell_volume 1394.759353
_symmetry_space_group_name_H-M "I 41/A"
_symmetry_group_IT_number 88
_space_group.IT_coordinate_system_code '2'
_symmetry_cell_setting 'tetragonal'
loop_
_space_group_symop_operation_xyz
x,y,z
3/4-y,1/4+x,1/4+z
-x,1/2-y,z
1/4+y,1/4-x,1/4+z
-x,-y,-z
1/4+y,3/4-x,3/4-z
x,1/2+y,-z
3/4-y,3/4+x,3/4-z
1/2+x,1/2+y,1/2+z
1/4-y,3/4+x,3/4+z
1/2-x,-y,1/2+z
3/4+y,3/4-x,3/4+z
1/2-x,1/2-y,1/2-z
3/4+y,1/4-x,1/4-z
1/2+x,y,1/2-z
1/4-y,1/4+x,1/4-z
loop_
_atom_site_type_symbol
_atom_site_label
_atom_site_fract_x
_atom_site_fract_y
_atom_site_fract_z
Si Si1 0.165096 0.086777 0.608559
Si Si2 0.086582 0.341344 0.140218
O O1 0.249317 0.098454 0.748733
O O2 0.155218 0.143920 0.346195
O O3 0.101571 0.108259 0.841910
O O4 0.102163 0.254100 0.020540
#
# Coordination Sequence:
#
# PCOD8304427 Si02
#       2
#    16  16
#     4  12  25  43  67  96 133 173 217 268 322 384
#     4  11  25  44  67  98 133 170 217 269 322 386
#
# _framework density 22.943024000000001
#
# number of rings (size 3 to 8) (size 9 to 14) (size 15 to 20)
#    0.000    0.500    0.000    9.000    0.000   16.000 
#    0.000    0.000    0.000    0.000    0.000    0.000 
#    0.000    0.000    0.000    0.000    0.000    0.000 
#
# Total GULP energy -198469.686165 kJ/mol
# GULP energy per Si atom -12404.355385 kJ/mol
# Density = 2.289080 g / cm^3
# Si number density = 22.943024 Si / 1000 Ang^3
#
#
#
# Elastic Constant Matrix: (Units=GPa)
#
#
# Indices 1 2 3 4 5 6 
#
# 1 49.6997 61.3917 22.2647 0.0000 0.0000 2.0171
# 2 61.3917 49.6997 22.2647 0.0000 0.0000 -2.0171
# 3 22.2647 22.2647 128.9062 0.0000 0.0000 0.0000
# 4 0.0000 0.0000 0.0000 51.3041 0.0000 0.0000
# 5 0.0000 0.0000 0.0000 0.0000 51.3041 0.0000
# 6 2.0171 -2.0171 0.0000 0.0000 0.0000 34.7038
#
#
#
# Elastic Compliance Matrix: (Units=1/GPa)
#
#
# Indices 1 2 3 4 5 6 
#
# 1 -0.037088 0.046759 -0.001670 0.000000 0.000000 0.004874
# 2 0.046759 -0.037088 -0.001670 0.000000 0.000000 -0.004874
# 3 -0.001670 -0.001670 0.008335 0.000000 0.000000 0.000000
# 4 0.000000 0.000000 0.000000 0.019492 0.000000 0.000000
# 5 0.000000 0.000000 0.000000 0.000000 0.019492 0.000000
# 6 0.004874 -0.004874 0.000000 0.000000 0.000000 0.028249
#
#
# Mechanical properties :
#
#
# Convention : Reuss Voigt Hill
#
# Bulk Modulus (GPa) = 47.62970 48.90530 48.26750
# Shear Modulus (GPa) = -63.73763 35.62139 -14.05812
#
# Velocity S-wave (km/s) = -5.27647 3.94458 -2.47805
# Velocity P-wave (km/s) = 4.03936 6.48911 3.59111
#
# Compressibility (1/GPa) = 0.02099530
#
# Stress axis : x y z
#
# Youngs Moduli (GPa) = -26.96311 -26.96311 119.98178
#
# Poissons Ratio (x) = 1.26076 0.20042
# Poissons Ratio (y) = 1.26076 0.20042
# Poissons Ratio (z) = -0.04504 -0.04504
#
# Static dielectric constant tensor:
#      x y z
#    x 4.121560 0.000000 0.000000 
#    y 0.000000 4.121560 0.000000 
#    z 0.000000 0.000000 4.382790 
# 
# 
# High freq. dielectric constant tensor:
#      x y z
#    x 1.908040 0.000000 0.000000 
#    y 0.000000 1.908040 0.000000 
#    z 0.000000 0.000000 1.924050 
# 
# From -- ./inp_files/190.got.cif
#   From: 2010.03.12/outbox.cif.g09.slc.cpg/sg88_1_cif.got.tgz:190.got - 2010.04.08 20:20:55.
