data_PCOD8304963
_publ_section_title
;
Structure prediction by ZEFSAII (Michael W. Deem and Ramdas Pophale) SiO2 
 PCOD8304963
Probable space group: P 41 2 2
;
_chemical_formula_sum "Si O2"
_cell_formula_units_Z 48
_cell_length_a 9.083210
_cell_length_b 9.083210
_cell_length_c 28.742578
_cell_angle_alpha 90.000000
_cell_angle_beta 90.000000
_cell_angle_gamma 90.000000
_cell_volume 2371.397887
_symmetry_space_group_name_H-M "P 41 2 2"
_symmetry_group_IT_number 91
_symmetry_cell_setting 'tetragonal'
loop_
_space_group_symop_operation_xyz
x,y,z
-y,x,1/4+z
-x,-y,1/2+z
y,-x,3/4+z
x,-y,1/2-z
-x,y,-z
y,x,3/4-z
-y,-x,1/4-z
loop_
_atom_site_type_symbol
_atom_site_label
_atom_site_fract_x
_atom_site_fract_y
_atom_site_fract_z
Si Si1 0.331434 0.193164 0.740416
Si Si2 0.973176 0.143526 0.409768
Si Si3 0.440236 0.385285 0.588677
Si Si4 0.942345 0.000000 0.250000
Si Si5 0.110151 0.660151 0.384009
Si Si6 0.500000 0.456126 0.000000
Si Si7 0.115723 0.526873 0.925075
O O1 0.364230 0.175311 0.685881
O O2 0.345650 0.363724 0.753175
O O3 0.447361 0.105502 0.774115
O O4 0.164647 0.142385 0.750831
O O5 0.111179 0.111179 0.375000
O O6 0.992745 0.045184 0.455304
O O7 0.829351 0.093423 0.380581
O O8 0.966418 0.314172 0.425567
O O9 0.551041 0.448960 0.625000
O O10 0.424116 0.210809 0.596309
O O11 0.513795 0.424386 0.540351
O O12 0.280207 0.457365 0.593037
O O13 0.953651 0.578482 0.385383
#
# Coordination Sequence:
#
# PCOD8304963 Si02
#       7
#     8   8   8   4   8   4   8
#     4  11  20  40  66  92 121 163 211 255 308 379
#     4  11  24  43  61  95 134 167 209 264 322 379
#     4  10  21  38  63  90 122 159 205 258 307 372
#     4  12  24  40  68  92 128 170 208 264 316 380
#     4  11  21  41  63  89 123 164 210 251 309 380
#     4  10  22  38  64  94 124 160 210 262 318 370
#     4  10  23  38  65  93 123 165 208 257 312 380
#
# _framework density 20.241226999999999
#
# number of rings (size 3 to 8) (size 9 to 14) (size 15 to 20)
#    0.000    1.333    5.000    0.000    2.333    4.000 
#    0.000    0.000    0.000    1.000    0.000    0.000 
#    0.000    0.000    0.000    0.000    0.000    0.000 
#
# Total GULP energy -594848.490200 kJ/mol
# GULP energy per Si atom -12392.676879 kJ/mol
# Density = 2.019516 g / cm^3
# Si number density = 20.241227 Si / 1000 Ang^3
#
#
#
# Elastic Constant Matrix: (Units=GPa)
#
#
# Indices 1 2 3 4 5 6 
#
# 1 77.2862 32.7069 33.3946 0.0000 0.0000 0.0000
# 2 32.7069 77.2872 33.3966 0.0000 0.0000 0.0000
# 3 33.3946 33.3966 107.2964 0.0000 0.0000 0.0000
# 4 0.0000 0.0000 0.0000 31.3911 0.0000 0.0000
# 5 0.0000 0.0000 0.0000 0.0000 31.3913 0.0000
# 6 0.0000 0.0000 0.0000 0.0000 0.0000 29.0522
#
#
#
# Elastic Compliance Matrix: (Units=1/GPa)
#
#
# Indices 1 2 3 4 5 6 
#
# 1 0.016821 -0.005611 -0.003489 0.000000 0.000000 0.000000
# 2 -0.005611 0.016821 -0.003489 0.000000 0.000000 0.000000
# 3 -0.003489 -0.003489 0.011492 0.000000 0.000000 0.000000
# 4 0.000000 0.000000 0.000000 0.031856 0.000000 0.000000
# 5 0.000000 0.000000 0.000000 0.000000 0.031856 0.000000
# 6 0.000000 0.000000 0.000000 0.000000 0.000000 0.034421
#
#
# Mechanical properties :
#
#
# Convention : Reuss Voigt Hill
#
# Bulk Modulus (GPa) = 50.11092 51.20733 50.65912
# Shear Modulus (GPa) = 28.55567 29.19170 28.87369
#
# Velocity S-wave (km/s) = 3.76009 3.80174 3.78097
# Velocity P-wave (km/s) = 6.60770 6.68015 6.64402
#
# Compressibility (1/GPa) = 0.01995573
#
# Stress axis : x y z
#
# Youngs Moduli (GPa) = 59.44989 59.44974 87.01767
#
# Poissons Ratio (x) = 0.33356 0.30360
# Poissons Ratio (y) = 0.33356 0.30363
# Poissons Ratio (z) = 0.20741 0.20744
#
# Static dielectric constant tensor:
#      x y z
#    x 3.790840 0.000000 0.000000 
#    y 0.000000 3.790840 0.000000 
#    z 0.000000 0.000000 3.896600 
# 
# 
# High freq. dielectric constant tensor:
#      x y z
#    x 1.789920 0.000000 0.000000 
#    y 0.000000 1.789920 0.000000 
#    z 0.000000 0.000000 1.797940 
# 
# From -- ./inp_files/8028.got.cif
#   From: 2010.03.12/outbox.cif.g09.slc.cpg/sg91_5_cif.got.tgz:8028.got - 2010.04.08 20:27:58.
