data_PCOD8304599
_publ_section_title
;
Structure prediction by ZEFSAII (Michael W. Deem and Ramdas Pophale) SiO2 
 PCOD8304599
Probable space group: P 4 21 2
;
_chemical_formula_sum "Si O2"
_cell_formula_units_Z 48
_cell_length_a 8.174689
_cell_length_b 8.174689
_cell_length_c 33.051225
_cell_angle_alpha 90.000000
_cell_angle_beta 90.000000
_cell_angle_gamma 90.000000
_cell_volume 2208.665966
_symmetry_space_group_name_H-M "P 4 21 2"
_symmetry_group_IT_number 90
_symmetry_cell_setting 'tetragonal'
loop_
_space_group_symop_operation_xyz
x,y,z
1/2-y,1/2+x,z
-x,-y,z
1/2+y,1/2-x,z
1/2+x,1/2-y,-z
1/2-x,1/2+y,-z
y,x,-z
-y,-x,-z
loop_
_atom_site_type_symbol
_atom_site_label
_atom_site_fract_x
_atom_site_fract_y
_atom_site_fract_z
Si Si1 0.000000 0.000000 0.259534
Si Si2 0.234314 0.038945 0.530446
Si Si3 0.000000 0.000000 0.397707
Si Si4 0.452302 0.738062 0.326239
Si Si5 0.909395 0.245544 0.802447
Si Si6 0.887503 0.255116 0.121021
Si Si7 0.259196 0.875561 0.040994
O O1 0.883593 0.900963 0.290121
O O2 0.893818 0.124034 0.231312
O O3 0.365301 0.181682 0.522781
O O4 0.084878 0.084878 0.500000
O O5 0.162759 0.010884 0.575222
O O6 0.158065 0.030525 0.370168
O O7 0.312671 0.869636 0.321019
O O8 0.793486 0.401071 0.796669
O O9 0.879260 0.171086 0.846685
O O10 0.786078 0.421070 0.126958
O O11 0.858438 0.181530 0.076875
O O12 0.430858 0.782674 0.043675
O O13 0.166274 0.833727 0.000000
#
# Coordination Sequence:
#
# PCOD8304599 Si02
#       7
#     4   8   4   8   8   8   8
#     4  11  22  38  63  90 120 154 197 252 304 365
#     4  11  23  39  61  91 131 178 230 288 346 406
#     4  11  21  38  63  92 126 166 217 276 335 393
#     4  10  22  40  63  91 123 162 207 257 319 392
#     4  11  23  40  64  92 122 160 205 253 309 375
#     4  11  24  41  62  92 128 164 205 255 312 376
#     4  11  24  41  62  90 123 163 212 263 316 375
#
# _framework density 21.732576999999999
#
# number of rings (size 3 to 8) (size 9 to 14) (size 15 to 20)
#    0.000    1.167    0.000    6.250    0.000    7.667 
#    0.000    1.667    0.000   18.500    0.000    0.000 
#    0.000    0.000    0.000    0.000    0.000    0.000 
#
# Total GULP energy -594884.311491 kJ/mol
# GULP energy per Si atom -12393.423156 kJ/mol
# Density = 2.168311 g / cm^3
# Si number density = 21.732577 Si / 1000 Ang^3
#
#
#
# Elastic Constant Matrix: (Units=GPa)
#
#
# Indices 1 2 3 4 5 6 
#
# 1 82.5609 55.8438 58.1813 0.0000 0.0000 0.0000
# 2 55.8438 82.5601 58.1813 0.0000 0.0000 0.0000
# 3 58.1813 58.1813 167.3207 0.0000 0.0000 0.0000
# 4 0.0000 0.0000 0.0000 35.0447 0.0000 0.0000
# 5 0.0000 0.0000 0.0000 0.0000 35.0450 0.0000
# 6 0.0000 0.0000 0.0000 0.0000 0.0000 32.1984
#
#
#
# Elastic Compliance Matrix: (Units=1/GPa)
#
#
# Indices 1 2 3 4 5 6 
#
# 1 0.023820 -0.013610 -0.003550 0.000000 0.000000 0.000000
# 2 -0.013610 0.023820 -0.003550 0.000000 0.000000 0.000000
# 3 -0.003550 -0.003550 0.008446 0.000000 0.000000 0.000000
# 4 0.000000 0.000000 0.000000 0.028535 0.000000 0.000000
# 5 0.000000 0.000000 0.000000 0.000000 0.028535 0.000000
# 6 0.000000 0.000000 0.000000 0.000000 0.000000 0.031057
#
#
# Mechanical properties :
#
#
# Convention : Reuss Voigt Hill
#
# Bulk Modulus (GPa) = 68.19133 75.20605 71.69869
# Shear Modulus (GPa) = 26.24376 31.13998 28.69187
#
# Velocity S-wave (km/s) = 3.47879 3.78943 3.63743
# Velocity P-wave (km/s) = 6.89794 7.33667 7.12069
#
# Compressibility (1/GPa) = 0.01466462
#
# Stress axis : x y z
#
# Youngs Moduli (GPa) = 41.98199 41.98146 118.40511
#
# Poissons Ratio (x) = 0.57136 0.42037
# Poissons Ratio (y) = 0.57137 0.42038
# Poissons Ratio (z) = 0.14905 0.14905
#
# Static dielectric constant tensor:
#      x y z
#    x 4.128260 0.000000 0.000000 
#    y 0.000000 4.128260 0.000000 
#    z 0.000000 0.000000 3.996620 
# 
# 
# High freq. dielectric constant tensor:
#      x y z
#    x 1.861290 0.000000 0.000000 
#    y 0.000000 1.861290 0.000000 
#    z 0.000000 0.000000 1.867470 
# 
# From -- ./inp_files/3126.got.cif
#   From: 2010.03.12/outbox.cif.g09.slc.cpg/sg90_2_cif.got.tgz:3126.got - 2010.04.08 20:26:03.
