data_PCOD8304449
_publ_section_title
;
Structure prediction by ZEFSAII (Michael W. Deem and Ramdas Pophale) SiO2 
 PCOD8304449
Probable space group: I 41/A
;
_chemical_formula_sum "Si O2"
_cell_formula_units_Z 68
_cell_length_a 18.131099
_cell_length_b 18.131099
_cell_length_c 9.766810
_cell_angle_alpha 90.000000
_cell_angle_beta 90.000000
_cell_angle_gamma 90.000000
_cell_volume 3210.709387
_symmetry_space_group_name_H-M "I 41/A"
_symmetry_group_IT_number 88
_space_group.IT_coordinate_system_code '2'
_symmetry_cell_setting 'tetragonal'
loop_
_space_group_symop_operation_xyz
x,y,z
3/4-y,1/4+x,1/4+z
-x,1/2-y,z
1/4+y,1/4-x,1/4+z
-x,-y,-z
1/4+y,3/4-x,3/4-z
x,1/2+y,-z
3/4-y,3/4+x,3/4-z
1/2+x,1/2+y,1/2+z
1/4-y,3/4+x,3/4+z
1/2-x,-y,1/2+z
3/4+y,3/4-x,3/4+z
1/2-x,1/2-y,1/2-z
3/4+y,1/4-x,1/4-z
1/2+x,y,1/2-z
1/4-y,1/4+x,1/4-z
loop_
_atom_site_type_symbol
_atom_site_label
_atom_site_fract_x
_atom_site_fract_y
_atom_site_fract_z
Si Si1 0.448815 0.894841 0.756985
Si Si2 0.867877 0.877537 0.466391
Si Si3 0.714362 0.762456 0.104655
Si Si4 0.688265 0.028962 0.345133
Si Si5 0.500000 0.250000 0.375000
O O1 0.375103 0.908607 0.666117
O O2 0.496037 0.825207 0.709974
O O3 0.500386 0.968727 0.746056
O O4 0.426023 0.876002 0.910969
O O5 0.852246 0.795247 0.415981
O O6 0.792234 0.914261 0.509674
O O7 0.906026 0.927400 0.345941
O O8 0.750000 0.750000 0.250000
O O9 0.761704 0.051753 0.257322
#
# Coordination Sequence:
#
# PCOD8304449 Si02
#       5
#    16  16  16  16   4
#     4   9  21  38  53  77 111 147 190 236 284 339
#     4   9  18  34  56  82 115 148 183 233 283 337
#     4   9  18  34  56  84 113 143 184 230 282 343
#     4   9  18  36  58  82 113 147 187 237 286 336
#     4  12  24  40  56  74 112 156 192 240 288 338
#
# _framework density 21.179120000000001
#
# number of rings (size 3 to 8) (size 9 to 14) (size 15 to 20)
#    0.000    2.824    0.000    1.412    0.000    6.118 
#    0.000   12.941    0.000    0.000    0.000    0.000 
#    0.000    0.000    0.000    0.000    0.000    0.000 
#
# Total GULP energy -421244.777281 kJ/mol
# GULP energy per Si atom -12389.552273 kJ/mol
# Density = 2.113092 g / cm^3
# Si number density = 21.179120 Si / 1000 Ang^3
#
#
#
# Elastic Constant Matrix: (Units=GPa)
#
#
# Indices 1 2 3 4 5 6 
#
# 1 96.0814 48.9819 9.2526 0.0000 0.0000 14.6916
# 2 48.9819 96.0814 9.2526 0.0000 0.0000 -14.6916
# 3 9.2526 9.2526 29.2634 0.0000 0.0000 0.0000
# 4 0.0000 0.0000 0.0000 25.0257 0.0000 0.0000
# 5 0.0000 0.0000 0.0000 0.0000 25.0257 0.0000
# 6 14.6916 -14.6916 0.0000 0.0000 0.0000 39.5486
#
#
#
# Elastic Compliance Matrix: (Units=1/GPa)
#
#
# Indices 1 2 3 4 5 6 
#
# 1 0.017410 -0.010227 -0.002271 0.000000 0.000000 -0.010266
# 2 -0.010227 0.017410 -0.002271 0.000000 0.000000 0.010266
# 3 -0.002271 -0.002271 0.035609 0.000000 0.000000 0.000000
# 4 0.000000 0.000000 0.000000 0.039959 0.000000 0.000000
# 5 0.000000 0.000000 0.000000 0.000000 0.039959 0.000000
# 6 -0.010266 0.010266 0.000000 0.000000 0.000000 0.032913
#
#
# Mechanical properties :
#
#
# Convention : Reuss Voigt Hill
#
# Bulk Modulus (GPa) = 24.45574 39.60006 32.02790
# Shear Modulus (GPa) = 22.08215 28.18261 25.13238
#
# Velocity S-wave (km/s) = 3.23249 3.65181 3.44853
# Velocity P-wave (km/s) = 5.05017 6.04311 5.56881
#
# Compressibility (1/GPa) = 0.04089019
#
# Stress axis : x y z
#
# Youngs Moduli (GPa) = 57.43873 57.43873 28.08312
#
# Poissons Ratio (x) = 0.58740 0.06378
# Poissons Ratio (y) = 0.58740 0.06378
# Poissons Ratio (z) = 0.13046 0.13046
#
# Static dielectric constant tensor:
#      x y z
#    x 1.462070 0.000000 0.000000 
#    y 0.000000 1.462070 0.000000 
#    z 0.000000 0.000000 4.431090 
# 
# 
# High freq. dielectric constant tensor:
#      x y z
#    x 1.830930 0.000000 0.000000 
#    y 0.000000 1.830930 0.000000 
#    z 0.000000 0.000000 1.795620 
# 
# From -- ./inp_files/2407.got.cif
#   From: 2010.03.12/outbox.cif.g09.slc.cpg/sg88_2_cif.got.tgz:2407.got - 2010.04.08 20:20:55.
