data_PCOD8304971
_publ_section_title
;
Structure prediction by ZEFSAII (Michael W. Deem and Ramdas Pophale) SiO2 
 PCOD8304971
Probable space group: P 41 2 2
;
_chemical_formula_sum "Si O2"
_cell_formula_units_Z 48
_cell_length_a 11.204456
_cell_length_b 11.204456
_cell_length_c 16.952543
_cell_angle_alpha 90.000000
_cell_angle_beta 90.000000
_cell_angle_gamma 90.000000
_cell_volume 2128.219438
_symmetry_space_group_name_H-M "P 41 2 2"
_symmetry_group_IT_number 91
_symmetry_cell_setting 'tetragonal'
loop_
_space_group_symop_operation_xyz
x,y,z
-y,x,1/4+z
-x,-y,1/2+z
y,-x,3/4+z
x,-y,1/2-z
-x,y,-z
y,x,3/4-z
-y,-x,1/4-z
loop_
_atom_site_type_symbol
_atom_site_label
_atom_site_fract_x
_atom_site_fract_y
_atom_site_fract_z
Si Si1 0.960575 0.627135 0.710377
Si Si2 0.190529 0.396557 0.063722
Si Si3 0.568736 0.379193 0.859023
Si Si4 0.256949 0.349782 0.457701
Si Si5 0.184016 0.633077 0.609095
Si Si6 0.869366 0.116827 0.533382
O O1 0.919459 0.500000 0.750000
O O2 0.876549 0.660861 0.636980
O O3 0.962164 0.749305 0.762806
O O4 0.089013 0.602336 0.675020
O O5 0.331219 0.365163 0.073010
O O6 0.173758 0.538655 0.061746
O O7 0.136474 0.353241 0.980507
O O8 0.508477 0.508477 0.875000
O O9 0.625660 0.363448 0.771214
O O10 0.472612 0.277157 0.869246
O O11 0.312645 0.312645 0.375000
O O12 0.167016 0.250470 0.492819
O O13 0.238617 0.761384 0.625000
O O14 0.890813 0.109188 0.625000
O O15 0.000000 0.077092 0.500000
#
# Coordination Sequence:
#
# PCOD8304971 Si02
#       6
#     8   8   8   8   8   8
#     4  12  26  46  75 103 143 194 249 317 381 441
#     4  11  23  40  68 103 141 185 239 301 369 449
#     4  10  22  39  67 105 144 190 235 306 371 448
#     4  10  21  39  65 100 143 187 241 301 367 441
#     4  10  26  44  67 100 141 192 242 293 372 455
#     4  11  26  48  74 107 143 194 252 315 379 451
#
# _framework density 22.554065000000001
#
# number of rings (size 3 to 8) (size 9 to 14) (size 15 to 20)
#    0.000    1.333    1.667    3.000    2.333   15.333 
#    0.000    0.000    0.000    0.000    0.000    0.000 
#    0.000    0.000    0.000    0.000    0.000    0.000 
#
# Total GULP energy -594652.735632 kJ/mol
# GULP energy per Si atom -12388.598659 kJ/mol
# Density = 2.250273 g / cm^3
# Si number density = 22.554065 Si / 1000 Ang^3
#
#
#
# Elastic Constant Matrix: (Units=GPa)
#
#
# Indices 1 2 3 4 5 6 
#
# 1 42.7120 72.3006 41.6751 0.0000 0.0000 0.0000
# 2 72.3006 42.7174 41.6489 0.0000 0.0000 0.0000
# 3 41.6751 41.6489 104.0842 0.0000 0.0000 0.0000
# 4 0.0000 0.0000 0.0000 31.9324 0.0000 0.0000
# 5 0.0000 0.0000 0.0000 0.0000 31.9348 0.0000
# 6 0.0000 0.0000 0.0000 0.0000 0.0000 21.7216
#
#
#
# Elastic Compliance Matrix: (Units=1/GPa)
#
#
# Indices 1 2 3 4 5 6 
#
# 1 -0.010783 0.023023 -0.004895 0.000000 0.000000 0.000000
# 2 0.023023 -0.010772 -0.004908 0.000000 0.000000 0.000000
# 3 -0.004895 -0.004908 0.013531 0.000000 0.000000 0.000000
# 4 0.000000 0.000000 0.000000 0.031316 0.000000 0.000000
# 5 0.000000 0.000000 0.000000 0.000000 0.031314 0.000000
# 6 0.000000 0.000000 0.000000 0.000000 0.000000 0.046037
#
#
# Mechanical properties :
#
#
# Convention : Reuss Voigt Hill
#
# Bulk Modulus (GPa) = 54.29964 55.64032 54.96998
# Shear Modulus (GPa) = 62.23259 19.37701 40.80480
#
# Velocity S-wave (km/s) = 5.25857 2.93428 4.25808
# Velocity P-wave (km/s) = 7.81010 6.01692 6.97140
#
# Compressibility (1/GPa) = 0.01841633
#
# Stress axis : x y z
#
# Youngs Moduli (GPa) = -92.74156 -92.83566 73.90181
#
# Poissons Ratio (x) = 2.13732 0.36175
# Poissons Ratio (y) = 2.13515 0.36271
# Poissons Ratio (z) = -0.45398 -0.45563
#
# Static dielectric constant tensor:
#      x y z
#    x 4.273410 0.000000 0.000000 
#    y 0.000000 4.273320 0.000000 
#    z 0.000000 0.000000 4.342050 
# 
# 
# High freq. dielectric constant tensor:
#      x y z
#    x 1.878330 0.000000 0.000000 
#    y 0.000000 1.878330 0.000000 
#    z 0.000000 0.000000 1.903120 
# 
# From -- ./inp_files/16901.got.cif
#   From: 2010.03.12/outbox.cif.g09.slc.cpg/sg91_9_cif.got.tgz:16901.got - 2010.04.08 20:27:58.
