data_PCOD8304425
_publ_section_title
;
Structure prediction by ZEFSAII (Michael W. Deem and Ramdas Pophale) SiO2 
 PCOD8304425
Probable space group: I 41/A
;
_chemical_formula_sum "Si O2"
_cell_formula_units_Z 112
_cell_length_a 13.194789
_cell_length_b 13.194789
_cell_length_c 24.855994
_cell_angle_alpha 90.000000
_cell_angle_beta 90.000000
_cell_angle_gamma 90.000000
_cell_volume 4327.489620
_symmetry_space_group_name_H-M "I 41/A"
_symmetry_group_IT_number 88
_space_group.IT_coordinate_system_code '2'
_symmetry_cell_setting 'tetragonal'
loop_
_space_group_symop_operation_xyz
x,y,z
3/4-y,1/4+x,1/4+z
-x,1/2-y,z
1/4+y,1/4-x,1/4+z
-x,-y,-z
1/4+y,3/4-x,3/4-z
x,1/2+y,-z
3/4-y,3/4+x,3/4-z
1/2+x,1/2+y,1/2+z
1/4-y,3/4+x,3/4+z
1/2-x,-y,1/2+z
3/4+y,3/4-x,3/4+z
1/2-x,1/2-y,1/2-z
3/4+y,1/4-x,1/4-z
1/2+x,y,1/2-z
1/4-y,1/4+x,1/4-z
loop_
_atom_site_type_symbol
_atom_site_label
_atom_site_fract_x
_atom_site_fract_y
_atom_site_fract_z
Si Si1 0.017486 0.867833 0.563682
Si Si2 0.304591 0.368143 0.588883
Si Si3 0.892553 0.636509 0.357829
Si Si4 0.460176 0.039032 0.441689
Si Si5 0.137943 0.509110 0.228537
Si Si6 0.174675 0.597189 0.506656
Si Si7 0.464109 0.935216 0.668986
O O1 0.025120 0.898452 0.626803
O O2 0.124922 0.894984 0.538029
O O3 0.000000 0.750000 0.556053
O O4 0.932146 0.935819 0.534090
O O5 0.206154 0.419368 0.617695
O O6 0.385151 0.456614 0.582467
O O7 0.266729 0.323018 0.532102
O O8 0.865665 0.756882 0.357897
O O9 0.908967 0.599622 0.297358
O O10 0.547636 0.051258 0.395707
O O11 0.410465 0.151949 0.442816
O O12 0.500000 0.000000 0.500000
O O13 0.257104 0.492107 0.245622
O O14 0.086326 0.434209 0.184092
O O15 0.215274 0.675980 0.550599
#
# Coordination Sequence:
#
# PCOD8304425 Si02
#       7
#    16  16  16  16  16  16  16
#     4  12  25  45  76 114 162 205 266 326 406 483
#     4  12  26  47  75 108 152 205 267 321 392 494
#     4  11  25  42  70 119 166 203 256 310 395 496
#     4  12  30  55  85 117 154 209 281 353 418 484
#     4  12  25  48  77 112 157 212 267 322 414 478
#     4  12  24  47  80 111 169 213 250 331 401 494
#     4  12  28  54  82 115 160 213 268 348 412 491
#
# _framework density 25.881056000000001
#
# number of rings (size 3 to 8) (size 9 to 14) (size 15 to 20)
#    0.000    0.143    5.714    2.143    6.000    3.714 
#    0.000    0.000    0.000    0.000    0.000    0.000 
#    0.000    0.000    0.000    0.000    0.000    0.000 
#
# Total GULP energy -693814.704579 kJ/mol
# GULP energy per Si atom -12389.548296 kJ/mol
# Density = 2.582215 g / cm^3
# Si number density = 25.881056 Si / 1000 Ang^3
#
#
#
# Elastic Constant Matrix: (Units=GPa)
#
#
# Indices 1 2 3 4 5 6 
#
# 1 89.9885 34.5478 40.3393 0.0000 0.0000 0.2371
# 2 34.5478 89.9885 40.3393 0.0000 0.0000 -0.2371
# 3 40.3393 40.3393 178.2708 0.0000 0.0000 0.0000
# 4 0.0000 0.0000 0.0000 36.0349 0.0000 0.0000
# 5 0.0000 0.0000 0.0000 0.0000 36.0349 0.0000
# 6 0.2371 -0.2371 0.0000 0.0000 0.0000 39.4724
#
#
#
# Elastic Compliance Matrix: (Units=1/GPa)
#
#
# Indices 1 2 3 4 5 6 
#
# 1 0.013724 -0.004315 -0.002129 0.000000 0.000000 -0.000108
# 2 -0.004315 0.013724 -0.002129 0.000000 0.000000 0.000108
# 3 -0.002129 -0.002129 0.006573 0.000000 0.000000 0.000000
# 4 0.000000 0.000000 0.000000 0.027751 0.000000 0.000000
# 5 0.000000 0.000000 0.000000 0.000000 0.027751 0.000000
# 6 -0.000108 0.000108 0.000000 0.000000 0.000000 0.025335
#
#
# Mechanical properties :
#
#
# Convention : Reuss Voigt Hill
#
# Bulk Modulus (GPa) = 59.26007 65.41118 62.33563
# Shear Modulus (GPa) = 36.32984 38.50988 37.41986
#
# Velocity S-wave (km/s) = 3.75069 3.86159 3.80654
# Velocity P-wave (km/s) = 6.45784 6.72392 6.59222
#
# Compressibility (1/GPa) = 0.01687477
#
# Stress axis : x y z
#
# Youngs Moduli (GPa) = 72.86692 72.86692 152.13773
#
# Poissons Ratio (x) = 0.31439 0.32392
# Poissons Ratio (y) = 0.31439 0.32392
# Poissons Ratio (z) = 0.15514 0.15514
#
# Static dielectric constant tensor:
#      x y z
#    x 4.826740 0.000000 0.000000 
#    y 0.000000 4.826740 0.000000 
#    z 0.000000 0.000000 5.207820 
# 
# 
# High freq. dielectric constant tensor:
#      x y z
#    x 2.031030 0.000000 0.000000 
#    y 0.000000 2.031030 0.000000 
#    z 0.000000 0.000000 2.051780 
# 
# From -- ./inp_files/5857.got.cif
#   From: 2010.03.12/outbox.cif.g09.slc.cpg/sg88_3_cif.got.tgz:5857.got - 2010.04.08 20:20:55.
