data_PCOD8304333
_publ_section_title
;
Structure prediction by ZEFSAII (Michael W. Deem and Ramdas Pophale) SiO2 
 PCOD8304333
Probable space group: I 41/A
;
_chemical_formula_sum "Si O2"
_cell_formula_units_Z 72
_cell_length_a 17.545568
_cell_length_b 17.545568
_cell_length_c 9.794610
_cell_angle_alpha 90.000000
_cell_angle_beta 90.000000
_cell_angle_gamma 90.000000
_cell_volume 3015.240878
_symmetry_space_group_name_H-M "I 41/A"
_symmetry_group_IT_number 88
_space_group.IT_coordinate_system_code '2'
_symmetry_cell_setting 'tetragonal'
loop_
_space_group_symop_operation_xyz
x,y,z
3/4-y,1/4+x,1/4+z
-x,1/2-y,z
1/4+y,1/4-x,1/4+z
-x,-y,-z
1/4+y,3/4-x,3/4-z
x,1/2+y,-z
3/4-y,3/4+x,3/4-z
1/2+x,1/2+y,1/2+z
1/4-y,3/4+x,3/4+z
1/2-x,-y,1/2+z
3/4+y,3/4-x,3/4+z
1/2-x,1/2-y,1/2-z
3/4+y,1/4-x,1/4-z
1/2+x,y,1/2-z
1/4-y,1/4+x,1/4-z
loop_
_atom_site_type_symbol
_atom_site_label
_atom_site_fract_x
_atom_site_fract_y
_atom_site_fract_z
Si Si1 0.000000 0.750000 0.375000
Si Si2 0.500000 0.750000 0.625000
Si Si3 0.187240 0.017953 0.895082
Si Si4 0.579255 0.380780 0.707077
Si Si5 0.205091 0.353645 0.984115
Si Si6 0.853776 0.704426 0.752666
O O1 0.972804 0.678722 0.286474
O O2 0.551175 0.694968 0.529216
O O3 0.116579 0.074688 0.913066
O O4 0.202212 0.010849 0.732408
O O5 0.173959 0.933776 0.956200
O O6 0.601334 0.454536 0.798869
O O7 0.656950 0.339659 0.654393
O O8 0.532664 0.412451 0.576556
O O9 0.187449 0.290722 0.100022
#
# Coordination Sequence:
#
# PCOD8304333 Si02
#       6
#     4   4  16  16  16  16
#     4  12  34  52  66 104 160 206 236 294 392 472
#     4  12  22  36  68 102 152 198 240 308 374 420
#     4  10  22  42  67 106 146 186 251 320 377 444
#     4  12  26  50  70 107 149 195 251 308 375 453
#     4  11  23  42  80 104 144 183 255 317 364 446
#     4  11  23  41  70 107 141 191 248 308 370 436
#
# _framework density 23.878688
#
# number of rings (size 3 to 8) (size 9 to 14) (size 15 to 20)
#    0.000    0.889    6.667    1.333    0.000    2.667 
#    0.000    0.000    0.000    0.000    0.000    0.000 
#    0.000    0.000    0.000    0.000    0.000    0.000 
#
# Total GULP energy -446170.043086 kJ/mol
# GULP energy per Si atom -12393.612308 kJ/mol
# Density = 2.382434 g / cm^3
# Si number density = 23.878688 Si / 1000 Ang^3
#
#
#
# Elastic Constant Matrix: (Units=GPa)
#
#
# Indices 1 2 3 4 5 6 
#
# 1 129.2346 63.7453 40.2720 0.0000 0.0000 -7.0176
# 2 63.7453 129.2346 40.2720 0.0000 0.0000 7.0176
# 3 40.2720 40.2720 56.1917 0.0000 0.0000 0.0000
# 4 0.0000 0.0000 0.0000 21.6976 0.0000 0.0000
# 5 0.0000 0.0000 0.0000 0.0000 21.6976 0.0000
# 6 -7.0176 7.0176 0.0000 0.0000 0.0000 48.9384
#
#
#
# Elastic Compliance Matrix: (Units=1/GPa)
#
#
# Indices 1 2 3 4 5 6 
#
# 1 0.011574 -0.004180 -0.005299 0.000000 0.000000 0.002259
# 2 -0.004180 0.011574 -0.005299 0.000000 0.000000 -0.002259
# 3 -0.005299 -0.005299 0.025391 0.000000 0.000000 0.000000
# 4 0.000000 0.000000 0.000000 0.046088 0.000000 0.000000
# 5 0.000000 0.000000 0.000000 0.000000 0.046088 0.000000
# 6 0.002259 -0.002259 0.000000 0.000000 0.000000 0.021082
#
#
# Mechanical properties :
#
#
# Convention : Reuss Voigt Hill
#
# Bulk Modulus (GPa) = 52.67844 67.02660 59.85252
# Shear Modulus (GPa) = 25.29344 29.82484 27.55914
#
# Velocity S-wave (km/s) = 3.25814 3.53797 3.40094
# Velocity P-wave (km/s) = 6.02185 6.69479 6.36722
#
# Compressibility (1/GPa) = 0.01898310
#
# Stress axis : x y z
#
# Youngs Moduli (GPa) = 86.40330 86.40330 39.38336
#
# Poissons Ratio (x) = 0.36118 0.20868
# Poissons Ratio (y) = 0.36118 0.20868
# Poissons Ratio (z) = 0.45783 0.45783
#
# Static dielectric constant tensor:
#      x y z
#    x 4.286540 0.000000 0.000000 
#    y 0.000000 4.286540 0.000000 
#    z 0.000000 0.000000 4.368900 
# 
# 
# High freq. dielectric constant tensor:
#      x y z
#    x 1.947650 0.000000 0.000000 
#    y 0.000000 1.947650 0.000000 
#    z 0.000000 0.000000 1.922310 
# 
# From -- ./inp_files/2464.got.cif
#   From: 2010.03.12/outbox.cif.g09.slc.cpg/sg88_2_cif.got.tgz:2464.got - 2010.04.08 20:20:55.
