data_PCOD8304584
_publ_section_title
;
Structure prediction by ZEFSAII (Michael W. Deem and Ramdas Pophale) SiO2 
 PCOD8304584
Probable space group: P 4 21 2
;
_chemical_formula_sum "Si O2"
_cell_formula_units_Z 40
_cell_length_a 8.492058
_cell_length_b 8.492058
_cell_length_c 27.773084
_cell_angle_alpha 90.000000
_cell_angle_beta 90.000000
_cell_angle_gamma 90.000000
_cell_volume 2002.857316
_symmetry_space_group_name_H-M "P 4 21 2"
_symmetry_group_IT_number 90
_symmetry_cell_setting 'tetragonal'
loop_
_space_group_symop_operation_xyz
x,y,z
1/2-y,1/2+x,z
-x,-y,z
1/2+y,1/2-x,z
1/2+x,1/2-y,-z
1/2-x,1/2+y,-z
y,x,-z
-y,-x,-z
loop_
_atom_site_type_symbol
_atom_site_label
_atom_site_fract_x
_atom_site_fract_y
_atom_site_fract_z
Si Si1 0.500000 0.500000 0.780048
Si Si2 0.474356 0.743690 0.299293
Si Si3 0.568997 0.750163 0.962826
Si Si4 0.562439 0.750465 0.854912
Si Si5 0.952111 0.758101 0.463883
Si Si6 0.000000 0.000000 0.618071
O O1 0.632022 0.430087 0.745261
O O2 0.591341 0.622126 0.814191
O O3 0.639696 0.829667 0.296168
O O4 0.496504 0.654694 0.349449
O O5 0.393046 0.810039 0.971420
O O6 0.584561 0.681378 0.908724
O O7 0.610899 0.610899 0.000000
O O8 0.386677 0.812051 0.847494
O O9 0.819861 0.623541 0.471471
O O10 0.900083 0.900083 0.500000
O O11 0.973902 0.839996 0.412186
#
# Coordination Sequence:
#
# PCOD8304584 Si02
#       6
#     4   8   8   8   8   4
#     4  11  20  34  58  80 102 138 182 223 272 336
#     4  10  22  38  56  81 112 143 180 233 289 338
#     4   9  19  34  51  74 104 136 173 216 262 317
#     4   9  19  35  53  76 106 138 174 218 268 324
#     4  11  23  39  61  90 125 162 203 250 295 346
#     4  11  21  38  61  84 113 154 199 235 284 348
#
# _framework density 19.971468999999999
#
# number of rings (size 3 to 8) (size 9 to 14) (size 15 to 20)
#    0.000    2.000    0.000    5.100    0.000    3.600 
#    0.000    2.000    0.000   12.000    0.000    0.000 
#    0.000    0.000    0.000    0.000    0.000    0.000 
#
# Total GULP energy -495577.131419 kJ/mol
# GULP energy per Si atom -12389.428285 kJ/mol
# Density = 1.992601 g / cm^3
# Si number density = 19.971469 Si / 1000 Ang^3
#
#
#
# Elastic Constant Matrix: (Units=GPa)
#
#
# Indices 1 2 3 4 5 6 
#
# 1 69.5350 22.5582 40.4405 0.0000 0.0000 0.0000
# 2 22.5582 69.5350 40.4405 0.0000 0.0000 0.0000
# 3 40.4405 40.4405 130.5952 0.0000 0.0000 0.0000
# 4 0.0000 0.0000 0.0000 -61.6780 0.0000 0.0000
# 5 0.0000 0.0000 0.0000 0.0000 -61.6780 0.0000
# 6 0.0000 0.0000 0.0000 0.0000 0.0000 38.8303
#
#
#
# Elastic Compliance Matrix: (Units=1/GPa)
#
#
# Indices 1 2 3 4 5 6 
#
# 1 0.018101 -0.003186 -0.004619 0.000000 0.000000 0.000000
# 2 -0.003186 0.018101 -0.004619 0.000000 0.000000 0.000000
# 3 -0.004619 -0.004619 0.010518 0.000000 0.000000 0.000000
# 4 0.000000 0.000000 0.000000 -0.016213 0.000000 0.000000
# 5 0.000000 0.000000 0.000000 0.000000 -0.016213 0.000000
# 6 0.000000 0.000000 0.000000 0.000000 0.000000 0.025753
#
#
# Mechanical properties :
#
#
# Convention : Reuss Voigt Hill
#
# Bulk Modulus (GPa) = 45.71837 52.94927 49.33382
# Shear Modulus (GPa) = 69.26765 -5.82342 31.72211
#
# Velocity S-wave (km/s) = 5.89564 -1.70944 3.98976
# Velocity P-wave (km/s) = 8.32384 4.76170 6.78086
#
# Compressibility (1/GPa) = 0.02187305
#
# Stress axis : x y z
#
# Youngs Moduli (GPa) = 55.24567 55.24567 95.07830
#
# Poissons Ratio (x) = 0.17602 0.43913
# Poissons Ratio (y) = 0.17602 0.43913
# Poissons Ratio (z) = 0.25516 0.25516
#
# Static dielectric constant tensor:
#      x y z
#    x 3.905500 0.000000 0.000000 
#    y 0.000000 3.905500 0.000000 
#    z 0.000000 0.000000 3.695150 
# 
# 
# High freq. dielectric constant tensor:
#      x y z
#    x 1.781850 0.000000 0.000000 
#    y 0.000000 1.781850 0.000000 
#    z 0.000000 0.000000 1.786800 
# 
# From -- ./inp_files/2978.got.cif
#   From: 2010.03.12/outbox.cif.g09.slc.cpg/sg90_2_cif.got.tgz:2978.got - 2010.04.08 20:26:03.
