data_PCOD8304525
_publ_section_title
;
Structure prediction by ZEFSAII (Michael W. Deem and Ramdas Pophale) SiO2 
 PCOD8304525
Probable space group: P 4 21 2
;
_chemical_formula_sum "Si O2"
_cell_formula_units_Z 64
_cell_length_a 30.480750
_cell_length_b 30.480750
_cell_length_c 5.213463
_cell_angle_alpha 90.000000
_cell_angle_beta 90.000000
_cell_angle_gamma 90.000000
_cell_volume 4843.703979
_symmetry_space_group_name_H-M "P 4 21 2"
_symmetry_group_IT_number 90
_symmetry_cell_setting 'tetragonal'
loop_
_space_group_symop_operation_xyz
x,y,z
1/2-y,1/2+x,z
-x,-y,z
1/2+y,1/2-x,z
1/2+x,1/2-y,-z
1/2-x,1/2+y,-z
y,x,-z
-y,-x,-z
loop_
_atom_site_type_symbol
_atom_site_label
_atom_site_fract_x
_atom_site_fract_y
_atom_site_fract_z
Si Si1 0.864589 0.209302 0.507563
Si Si2 0.525676 0.405565 0.505197
Si Si3 0.189775 0.119147 0.818827
Si Si4 0.596350 0.336431 0.318717
Si Si5 0.399079 0.325362 0.993725
Si Si6 0.103776 0.969610 0.009138
Si Si7 0.239545 0.689067 0.018917
Si Si8 0.794244 0.279860 0.515577
O O1 0.828614 0.171387 0.500000
O O2 0.897205 0.203257 0.747595
O O3 0.841157 0.256181 0.537876
O O4 0.893355 0.206984 0.248571
O O5 0.545203 0.454798 0.500000
O O6 0.564905 0.372874 0.435242
O O7 0.506646 0.398302 0.789887
O O8 0.488573 0.399214 0.294337
O O9 0.201755 0.098468 0.539945
O O10 0.145087 0.145565 0.750416
O O11 0.227966 0.148850 0.934200
O O12 0.182012 0.081412 0.039401
O O13 0.360551 0.360551 0.000000
O O14 0.445533 0.349790 0.974770
O O15 0.063514 0.936487 0.000000
O O16 0.205715 0.691628 0.255450
O O17 0.265864 0.734137 0.000000
O O18 0.212574 0.686215 0.752450
O O19 0.755131 0.244870 0.500000
#
# Coordination Sequence:
#
# PCOD8304525 Si02
#       8
#     8   8   8   8   8   8   8   8
#     4   9  15  26  41  55  72  94 112 131 155 191
#     4  12  23  35  50  60  76  89 107 151 187 239
#     4  10  17  27  42  53  71  95 126 134 153 193
#     4  10  19  29  43  57  68  92 127 134 165 205
#     4   9  17  30  46  55  67  88 112 135 161 215
#     4  11  24  37  48  63  73  85 111 142 196 250
#     4  10  16  22  33  51  76  98 113 139 151 169
#     4   9  17  22  31  54  78  94 113 131 159 175
#
# _framework density 13.213029000000001
#
# number of rings (size 3 to 8) (size 9 to 14) (size 15 to 20)
#    0.000    2.000    2.500    3.750    5.250    6.500 
#    0.000    0.000    0.000    0.000    0.000    0.000 
#    0.000    0.000    0.000    0.000    0.000    0.000 
#
# Total GULP energy -792839.421190 kJ/mol
# GULP energy per Si atom -12388.115956 kJ/mol
# Density = 1.318296 g / cm^3
# Si number density = 13.213029 Si / 1000 Ang^3
#
#
#
# Elastic Constant Matrix: (Units=GPa)
#
#
# Indices 1 2 3 4 5 6 
#
# 1 31.7235 25.9916 20.4867 0.0000 0.0000 0.0000
# 2 25.9916 31.7157 20.4834 0.0000 0.0000 0.0000
# 3 20.4867 20.4834 122.3557 0.0000 0.0000 0.0000
# 4 0.0000 0.0000 0.0000 20.7603 0.0000 0.0000
# 5 0.0000 0.0000 0.0000 0.0000 20.7600 0.0000
# 6 0.0000 0.0000 0.0000 0.0000 0.0000 22.9678
#
#
#
# Elastic Compliance Matrix: (Units=1/GPa)
#
#
# Indices 1 2 3 4 5 6 
#
# 1 0.097111 -0.077458 -0.003293 0.000000 0.000000 0.000000
# 2 -0.077458 0.097134 -0.003292 0.000000 0.000000 0.000000
# 3 -0.003293 -0.003292 0.009275 0.000000 0.000000 0.000000
# 4 0.000000 0.000000 0.000000 0.048169 0.000000 0.000000
# 5 0.000000 0.000000 0.000000 0.000000 0.048170 0.000000
# 6 0.000000 0.000000 0.000000 0.000000 0.000000 0.043539
#
#
# Mechanical properties :
#
#
# Convention : Reuss Voigt Hill
#
# Bulk Modulus (GPa) = 28.22003 35.52426 31.87215
# Shear Modulus (GPa) = 9.55485 20.81982 15.18733
#
# Velocity S-wave (km/s) = 2.69204 3.97382 3.39399
# Velocity P-wave (km/s) = 5.57377 6.92814 6.28753
#
# Compressibility (1/GPa) = 0.03543582
#
# Stress axis : x y z
#
# Youngs Moduli (GPa) = 10.29749 10.29506 107.81306
#
# Poissons Ratio (x) = 0.79743 0.35501
# Poissons Ratio (y) = 0.79762 0.35490
# Poissons Ratio (z) = 0.03391 0.03389
#
# Static dielectric constant tensor:
#      x y z
#    x 2.388480 0.000000 0.000000 
#    y 0.000000 2.388480 0.000000 
#    z 0.000000 0.000000 7.218470 
# 
# 
# High freq. dielectric constant tensor:
#      x y z
#    x 1.453030 0.000000 0.000000 
#    y 0.000000 1.453030 0.000000 
#    z 0.000000 0.000000 1.542700 
# 
# From -- ./inp_files/783.got.cif
#   From: 2010.03.12/outbox.cif.g09.slc.cpg/sg90_1_cif.got.tgz:783.got - 2010.04.08 20:26:03.
