data_PCOD8304046
_publ_section_title
;
Structure prediction by ZEFSAII (Michael W. Deem and Ramdas Pophale) SiO2 
 PCOD8304046
Probable space group: I 4/M
;
_chemical_formula_sum "Si O2"
_cell_formula_units_Z 112
_cell_length_a 14.540981
_cell_length_b 14.540981
_cell_length_c 26.941261
_cell_angle_alpha 90.000000
_cell_angle_beta 90.000000
_cell_angle_gamma 90.000000
_cell_volume 5696.463686
_symmetry_space_group_name_H-M "I 4/M"
_symmetry_group_IT_number 87
_symmetry_cell_setting 'tetragonal'
loop_
_space_group_symop_operation_xyz
x,y,z
-y,x,z
-x,-y,z
y,-x,z
-x,-y,-z
y,-x,-z
x,y,-z
-y,x,-z
1/2+x,1/2+y,1/2+z
1/2-y,1/2+x,1/2+z
1/2-x,1/2-y,1/2+z
1/2+y,1/2-x,1/2+z
1/2-x,1/2-y,1/2-z
1/2+y,1/2-x,1/2-z
1/2+x,1/2+y,1/2-z
1/2-y,1/2+x,1/2-z
loop_
_atom_site_type_symbol
_atom_site_label
_atom_site_fract_x
_atom_site_fract_y
_atom_site_fract_z
Si Si1 0.680351 0.301206 0.125946
Si Si2 0.141208 0.528859 0.758289
Si Si3 0.753995 0.664168 0.556720
Si Si4 0.256958 0.676143 0.293064
Si Si5 0.593379 0.380239 0.638439
Si Si6 0.265573 0.991617 0.360032
Si Si7 0.049608 0.404568 0.443877
O O1 0.733211 0.285797 0.073786
O O2 0.699989 0.213265 0.160378
O O3 0.569972 0.307507 0.123928
O O4 0.714431 0.395944 0.149778
O O5 0.100865 0.440840 0.728671
O O6 0.218314 0.577654 0.724606
O O7 0.181481 0.487722 0.809046
O O8 0.721390 0.670576 0.500000
O O9 0.668702 0.628964 0.588707
O O10 0.839451 0.592922 0.563205
O O11 0.250000 0.750000 0.250000
O O12 0.362618 0.665272 0.311901
O O13 0.628139 0.484614 0.638698
O O14 0.333923 0.993327 0.405928
O O15 0.027146 0.372592 0.500000
O O16 0.000000 0.500000 0.432261
#
# Coordination Sequence:
#
# PCOD8304046 Si02
#       7
#    16  16  16  16  16  16  16
#     4  10  22  38  58  86 115 161 195 250 302 356
#     4  11  24  37  59  91 117 152 201 253 314 363
#     4   9  20  40  64  90 122 160 202 250 312 372
#     4  11  22  39  62  81 118 157 201 251 304 359
#     4  10  24  41  60  89 123 165 208 249 300 365
#     4  11  22  38  59  84 122 155 203 248 297 367
#     4   9  20  37  61  92 122 154 196 252 312 364
#
# _framework density 19.661321999999998
#
# number of rings (size 3 to 8) (size 9 to 14) (size 15 to 20)
#    0.000    1.857    2.857    0.000    4.000    3.714 
#    0.000    2.143    0.000    0.000    0.000    4.000 
#    0.000    0.000    0.000    0.000    0.000    0.000 
#
# Total GULP energy -694223.528916 kJ/mol
# GULP energy per Si atom -12396.848731 kJ/mol
# Density = 1.961657 g / cm^3
# Si number density = 19.661322 Si / 1000 Ang^3
#
#
#
# Elastic Constant Matrix: (Units=GPa)
#
#
# Indices 1 2 3 4 5 6 
#
# 1 102.8861 46.9958 47.9092 0.0000 0.0000 4.8984
# 2 46.9958 102.8861 47.9092 0.0000 0.0000 -4.8984
# 3 47.9092 47.9092 105.8253 0.0000 0.0000 0.0000
# 4 0.0000 0.0000 0.0000 21.4192 0.0000 0.0000
# 5 0.0000 0.0000 0.0000 0.0000 21.4192 0.0000
# 6 4.8984 -4.8984 0.0000 0.0000 0.0000 34.2792
#
#
#
# Elastic Compliance Matrix: (Units=1/GPa)
#
#
# Indices 1 2 3 4 5 6 
#
# 1 0.013871 -0.004481 -0.004251 0.000000 0.000000 -0.002622
# 2 -0.004481 0.013871 -0.004251 0.000000 0.000000 0.002622
# 3 -0.004251 -0.004251 0.013298 0.000000 0.000000 0.000000
# 4 0.000000 0.000000 0.000000 0.046687 0.000000 0.000000
# 5 0.000000 0.000000 0.000000 0.000000 0.046687 0.000000
# 6 -0.002622 0.002622 0.000000 0.000000 0.000000 0.029922
#
#
# Mechanical properties :
#
#
# Convention : Reuss Voigt Hill
#
# Bulk Modulus (GPa) = 66.33903 66.35844 66.34873
# Shear Modulus (GPa) = 25.59828 26.67575 26.13702
#
# Velocity S-wave (km/s) = 3.61218 3.68742 3.65000
# Velocity P-wave (km/s) = 7.15621 7.20788 7.18209
#
# Compressibility (1/GPa) = 0.01507408
#
# Stress axis : x y z
#
# Youngs Moduli (GPa) = 72.09481 72.09481 75.19734
#
# Poissons Ratio (x) = 0.32307 0.31965
# Poissons Ratio (y) = 0.32307 0.31965
# Poissons Ratio (z) = 0.30646 0.30646
#
# Static dielectric constant tensor:
#      x y z
#    x 3.675090 0.000000 0.000000 
#    y 0.000000 3.675090 0.000000 
#    z 0.000000 0.000000 3.584420 
# 
# 
# High freq. dielectric constant tensor:
#      x y z
#    x 1.765300 0.000000 0.000000 
#    y 0.000000 1.765300 0.000000 
#    z 0.000000 0.000000 1.765370 
# 
# From -- ./inp_files/6276.got.cif
#   From: 2010.03.12/outbox.cif.g09.slc.cpg/sg87_4_cif.got.tgz:6276.got - 2010.04.08 20:16:13.
