data_PCOD8304948
_publ_section_title
;
Structure prediction by ZEFSAII (Michael W. Deem and Ramdas Pophale) SiO2 
 PCOD8304948
Probable space group: P 41 2 2
;
_chemical_formula_sum "Si O2"
_cell_formula_units_Z 32
_cell_length_a 11.951206
_cell_length_b 11.951206
_cell_length_c 11.173780
_cell_angle_alpha 90.000000
_cell_angle_beta 90.000000
_cell_angle_gamma 90.000000
_cell_volume 1595.965801
_symmetry_space_group_name_H-M "P 41 2 2"
_symmetry_group_IT_number 91
_symmetry_cell_setting 'tetragonal'
loop_
_space_group_symop_operation_xyz
x,y,z
-y,x,1/4+z
-x,-y,1/2+z
y,-x,3/4+z
x,-y,1/2-z
-x,y,-z
y,x,3/4-z
-y,-x,1/4-z
loop_
_atom_site_type_symbol
_atom_site_label
_atom_site_fract_x
_atom_site_fract_y
_atom_site_fract_z
Si Si1 0.126995 0.741317 0.025327
Si Si2 0.577754 0.500000 0.750000
Si Si3 0.295259 0.673779 0.380619
Si Si4 0.488399 0.875754 0.750916
Si Si5 0.757453 0.500000 0.250000
O O1 0.177993 0.822008 0.125000
O O2 0.204456 0.751845 0.906575
O O3 0.126970 0.610577 0.064165
O O4 0.000000 0.781117 0.000000
O O5 0.508633 0.508633 0.875000
O O6 0.649529 0.386009 0.763875
O O7 0.195705 0.597036 0.423346
O O8 0.387818 0.682444 0.486846
O O9 0.494010 0.834685 0.615693
O O10 0.439759 0.000000 0.750000
#
# Coordination Sequence:
#
# PCOD8304948 Si02
#       5
#     8   4   8   8   4
#     4  10  22  40  60  84 115 154 197 245 292 343
#     4  12  23  35  58  92 126 159 197 244 302 378
#     4  11  21  36  59  86 119 156 195 239 300 367
#     4  10  22  38  61  89 118 155 199 250 302 360
#     4  10  21  37  54  84 126 155 189 246 304 362
#
# _framework density 20.050556
#
# number of rings (size 3 to 8) (size 9 to 14) (size 15 to 20)
#    0.000    1.500    0.000    6.750    0.000    7.000 
#    0.000    1.250    0.000    0.000    0.000    0.000 
#    0.000    0.000    0.000    0.000    0.000    0.000 
#
# Total GULP energy -396674.118962 kJ/mol
# GULP energy per Si atom -12396.066218 kJ/mol
# Density = 2.000492 g / cm^3
# Si number density = 20.050556 Si / 1000 Ang^3
#
#
#
# Elastic Constant Matrix: (Units=GPa)
#
#
# Indices 1 2 3 4 5 6 
#
# 1 138.4452 70.3602 51.9005 0.0000 0.0000 0.0000
# 2 70.3602 138.4465 51.8997 0.0000 0.0000 0.0000
# 3 51.9005 51.8997 98.4951 0.0000 0.0000 0.0000
# 4 0.0000 0.0000 0.0000 13.7389 0.0000 0.0000
# 5 0.0000 0.0000 0.0000 0.0000 13.7388 0.0000
# 6 0.0000 0.0000 0.0000 0.0000 0.0000 19.1869
#
#
#
# Elastic Compliance Matrix: (Units=1/GPa)
#
#
# Indices 1 2 3 4 5 6 
#
# 1 0.010588 -0.004099 -0.003419 0.000000 0.000000 0.000000
# 2 -0.004099 0.010588 -0.003419 0.000000 0.000000 0.000000
# 3 -0.003419 -0.003419 0.013756 0.000000 0.000000 0.000000
# 4 0.000000 0.000000 0.000000 0.072786 0.000000 0.000000
# 5 0.000000 0.000000 0.000000 0.000000 0.072786 0.000000
# 6 0.000000 0.000000 0.000000 0.000000 0.000000 0.052119
#
#
# Mechanical properties :
#
#
# Convention : Reuss Voigt Hill
#
# Bulk Modulus (GPa) = 76.58651 80.41194 78.49923
# Shear Modulus (GPa) = 19.31611 22.74801 21.03206
#
# Velocity S-wave (km/s) = 3.10719 3.37194 3.24227
# Velocity P-wave (km/s) = 7.15209 7.43987 7.29740
#
# Compressibility (1/GPa) = 0.01305713
#
# Stress axis : x y z
#
# Youngs Moduli (GPa) = 94.44465 94.44635 72.69485
#
# Poissons Ratio (x) = 0.38716 0.24856
# Poissons Ratio (y) = 0.38715 0.24855
# Poissons Ratio (z) = 0.32293 0.32292
#
# Static dielectric constant tensor:
#      x y z
#    x 3.747320 0.000000 0.000000 
#    y 0.000000 3.747320 0.000000 
#    z 0.000000 0.000000 3.639650 
# 
# 
# High freq. dielectric constant tensor:
#      x y z
#    x 1.780050 0.000000 0.000000 
#    y 0.000000 1.780050 0.000000 
#    z 0.000000 0.000000 1.774630 
# 
# From -- ./inp_files/3425.got.cif
#   From: 2010.03.12/outbox.cif.g09.slc.cpg/sg91_2_cif.got.tgz:3425.got - 2010.04.08 20:27:58.
