data_PCOD8304134
_publ_section_title
;
Structure prediction by ZEFSAII (Michael W. Deem and Ramdas Pophale) SiO2 
 PCOD8304134
Probable space group: I 4/M
;
_chemical_formula_sum "Si O2"
_cell_formula_units_Z 88
_cell_length_a 12.299954
_cell_length_b 12.299954
_cell_length_c 26.971624
_cell_angle_alpha 90.000000
_cell_angle_beta 90.000000
_cell_angle_gamma 90.000000
_cell_volume 4080.506474
_symmetry_space_group_name_H-M "I 4/M"
_symmetry_group_IT_number 87
_symmetry_cell_setting 'tetragonal'
loop_
_space_group_symop_operation_xyz
x,y,z
-y,x,z
-x,-y,z
y,-x,z
-x,-y,-z
y,-x,-z
x,y,-z
-y,x,-z
1/2+x,1/2+y,1/2+z
1/2-y,1/2+x,1/2+z
1/2-x,1/2-y,1/2+z
1/2+y,1/2-x,1/2+z
1/2-x,1/2-y,1/2-z
1/2+y,1/2-x,1/2-z
1/2+x,1/2+y,1/2-z
1/2-y,1/2+x,1/2-z
loop_
_atom_site_type_symbol
_atom_site_label
_atom_site_fract_x
_atom_site_fract_y
_atom_site_fract_z
Si Si1 0.727556 0.905065 0.654552
Si Si2 0.761305 0.378643 0.895677
Si Si3 0.998205 0.329248 0.136880
Si Si4 0.959487 0.826406 0.946180
Si Si5 0.330755 0.045225 0.243847
Si Si6 0.413465 0.340711 0.000000
O O1 0.779071 0.794642 0.633470
O O2 0.594901 0.915406 0.648647
O O3 0.751583 0.909635 0.713995
O O4 0.781650 0.007634 0.626968
O O5 0.892057 0.374028 0.891134
O O6 0.728444 0.373681 0.953021
O O7 0.062246 0.250135 0.099966
O O8 0.965732 0.273707 0.189724
O O9 0.871236 0.919686 0.941972
O O10 0.945685 0.767885 0.000000
O O11 0.429886 0.128118 0.235281
O O12 0.543178 0.354101 0.000000
#
# Coordination Sequence:
#
# PCOD8304134 Si02
#       6
#    16  16  16  16  16   8
#     4  11  24  43  65  98 131 172 221 265 327 388
#     4  12  24  43  68  97 131 170 224 268 317 392
#     4  11  22  40  65  97 129 163 213 274 325 384
#     4   9  19  38  59  83 123 171 210 254 322 391
#     4   9  18  38  64  88 127 169 203 253 327 387
#     4  11  24  46  69  91 133 182 217 264 331 401
#
# _framework density 21.565949
#
# number of rings (size 3 to 8) (size 9 to 14) (size 15 to 20)
#    0.000    1.545    3.636    2.182    1.273    1.091 
#    6.545    0.909    0.000    0.000    0.000    0.000 
#    0.000    0.000    0.000    0.000    0.000    0.000 
#
# Total GULP energy -545364.165990 kJ/mol
# GULP energy per Si atom -12394.640136 kJ/mol
# Density = 2.151686 g / cm^3
# Si number density = 21.565949 Si / 1000 Ang^3
#
#
#
# Elastic Constant Matrix: (Units=GPa)
#
#
# Indices 1 2 3 4 5 6 
#
# 1 68.4864 7.3543 33.7190 0.0000 0.0000 -5.1453
# 2 7.3543 68.4864 33.7190 0.0000 0.0000 5.1453
# 3 33.7190 33.7190 198.7613 0.0000 0.0000 0.0000
# 4 0.0000 0.0000 0.0000 30.3941 0.0000 0.0000
# 5 0.0000 0.0000 0.0000 0.0000 30.3941 0.0000
# 6 -5.1453 5.1453 0.0000 0.0000 0.0000 20.0245
#
#
#
# Elastic Compliance Matrix: (Units=1/GPa)
#
#
# Indices 1 2 3 4 5 6 
#
# 1 0.016313 -0.000785 -0.002634 0.000000 0.000000 0.004393
# 2 -0.000785 0.016313 -0.002634 0.000000 0.000000 -0.004393
# 3 -0.002634 -0.002634 0.005925 0.000000 0.000000 0.000000
# 4 0.000000 0.000000 0.000000 0.032901 0.000000 0.000000
# 5 0.000000 0.000000 0.000000 0.000000 0.032901 0.000000
# 6 0.004393 -0.004393 0.000000 0.000000 0.000000 0.052197
#
#
# Mechanical properties :
#
#
# Convention : Reuss Voigt Hill
#
# Bulk Modulus (GPa) = 37.81609 53.92430 45.87020
# Shear Modulus (GPa) = 28.17371 33.55866 30.86618
#
# Velocity S-wave (km/s) = 3.61833 3.94902 3.78729
# Velocity P-wave (km/s) = 5.91858 6.77138 6.35929
#
# Compressibility (1/GPa) = 0.02644377
#
# Stress axis : x y z
#
# Youngs Moduli (GPa) = 61.30186 61.30186 168.77832
#
# Poissons Ratio (x) = 0.04811 0.44460
# Poissons Ratio (y) = 0.04811 0.44460
# Poissons Ratio (z) = 0.16148 0.16148
#
# Static dielectric constant tensor:
#      x y z
#    x 3.664380 0.000000 0.000000 
#    y 0.000000 3.664380 0.000000 
#    z 0.000000 0.000000 4.207770 
# 
# 
# High freq. dielectric constant tensor:
#      x y z
#    x 1.825400 0.000000 0.000000 
#    y 0.000000 1.825400 0.000000 
#    z 0.000000 0.000000 1.871080 
# 
# From -- ./inp_files/6579.got.cif
#   From: 2010.03.12/outbox.cif.g09.slc.cpg/sg87_4_cif.got.tgz:6579.got - 2010.04.08 20:16:13.
