data_PCOD8304323
_publ_section_title
;
Structure prediction by ZEFSAII (Michael W. Deem and Ramdas Pophale) SiO2 
 PCOD8304323
Probable space group: I 41/A
;
_chemical_formula_sum "Si O2"
_cell_formula_units_Z 96
_cell_length_a 16.183457
_cell_length_b 16.183457
_cell_length_c 18.090644
_cell_angle_alpha 90.000000
_cell_angle_beta 90.000000
_cell_angle_gamma 90.000000
_cell_volume 4738.017100
_symmetry_space_group_name_H-M "I 41/A"
_symmetry_group_IT_number 88
_space_group.IT_coordinate_system_code '2'
_symmetry_cell_setting 'tetragonal'
loop_
_space_group_symop_operation_xyz
x,y,z
3/4-y,1/4+x,1/4+z
-x,1/2-y,z
1/4+y,1/4-x,1/4+z
-x,-y,-z
1/4+y,3/4-x,3/4-z
x,1/2+y,-z
3/4-y,3/4+x,3/4-z
1/2+x,1/2+y,1/2+z
1/4-y,3/4+x,3/4+z
1/2-x,-y,1/2+z
3/4+y,3/4-x,3/4+z
1/2-x,1/2-y,1/2-z
3/4+y,1/4-x,1/4-z
1/2+x,y,1/2-z
1/4-y,1/4+x,1/4-z
loop_
_atom_site_type_symbol
_atom_site_label
_atom_site_fract_x
_atom_site_fract_y
_atom_site_fract_z
Si Si1 0.848655 0.827454 0.787203
Si Si2 0.256446 0.244664 0.837341
Si Si3 0.721074 0.009486 0.498211
Si Si4 0.119373 0.348623 0.191997
Si Si5 0.591006 0.262030 0.571224
Si Si6 0.832583 0.069869 0.628106
O O1 0.773569 0.891464 0.793088
O O2 0.821290 0.730695 0.790384
O O3 0.908727 0.839265 0.857739
O O4 0.895082 0.847773 0.710074
O O5 0.250000 0.250000 0.750000
O O6 0.163198 0.243465 0.870121
O O7 0.310816 0.319344 0.869502
O O8 0.306864 0.163720 0.859105
O O9 0.686217 0.084180 0.449140
O O10 0.790621 0.039614 0.553429
O O11 0.762758 0.941328 0.446860
O O12 0.045196 0.347531 0.249655
O O13 0.500000 0.250000 0.608951
#
# Coordination Sequence:
#
# PCOD8304323 Si02
#       6
#    16  16  16  16  16  16
#     4  11  21  35  62 100 135 168 208 255 327 417
#     4  12  26  49  70  98 133 180 244 295 348 414
#     4  12  23  41  64  94 130 174 222 269 345 404
#     4  11  21  35  62 100 135 168 208 255 327 417
#     4  10  22  40  65  98 140 172 206 270 341 407
#     4  12  26  45  70  94 129 182 232 302 346 406
#
# _framework density 20.26164
#
# number of rings (size 3 to 8) (size 9 to 14) (size 15 to 20)
#    0.000    0.667    8.333    0.500    0.000    0.333 
#    3.000    0.000    3.667    0.000    0.000    0.000 
#    0.000    0.000    0.000    0.000    0.000    0.000 
#
# Total GULP energy -595088.634760 kJ/mol
# GULP energy per Si atom -12397.679891 kJ/mol
# Density = 2.021552 g / cm^3
# Si number density = 20.261640 Si / 1000 Ang^3
#
#
#
# Elastic Constant Matrix: (Units=GPa)
#
#
# Indices 1 2 3 4 5 6 
#
# 1 93.8111 44.1904 32.1769 0.0000 0.0000 -1.4093
# 2 44.1904 93.8110 32.1769 0.0000 0.0000 1.4093
# 3 32.1769 32.1769 103.3096 0.0000 0.0000 0.0000
# 4 0.0000 0.0000 0.0000 22.7485 0.0000 0.0000
# 5 0.0000 0.0000 0.0000 0.0000 22.7485 0.0000
# 6 -1.4093 1.4093 0.0000 0.0000 0.0000 34.7498
#
#
#
# Elastic Compliance Matrix: (Units=1/GPa)
#
#
# Indices 1 2 3 4 5 6 
#
# 1 0.014339 -0.005861 -0.002640 0.000000 0.000000 0.000819
# 2 -0.005861 0.014339 -0.002640 0.000000 0.000000 -0.000819
# 3 -0.002640 -0.002640 0.011324 0.000000 0.000000 0.000000
# 4 0.000000 0.000000 0.000000 0.043959 0.000000 0.000000
# 5 0.000000 0.000000 0.000000 0.000000 0.043959 0.000000
# 6 0.000819 -0.000819 0.000000 0.000000 0.000000 0.028844
#
#
# Mechanical properties :
#
#
# Convention : Reuss Voigt Hill
#
# Bulk Modulus (GPa) = 56.44016 56.44667 56.44342
# Shear Modulus (GPa) = 27.03399 28.20854 27.62126
#
# Velocity S-wave (km/s) = 3.65669 3.73529 3.69620
# Velocity P-wave (km/s) = 6.76348 6.82074 6.79217
#
# Compressibility (1/GPa) = 0.01771788
#
# Stress axis : x y z
#
# Youngs Moduli (GPa) = 69.74220 69.74219 88.30467
#
# Poissons Ratio (x) = 0.40875 0.23316
# Poissons Ratio (y) = 0.40875 0.23316
# Poissons Ratio (z) = 0.18415 0.18415
#
# Static dielectric constant tensor:
#      x y z
#    x 3.618540 0.000000 0.000000 
#    y 0.000000 3.618540 0.000000 
#    z 0.000000 0.000000 3.620320 
# 
# 
# High freq. dielectric constant tensor:
#      x y z
#    x 1.794840 0.000000 0.000000 
#    y 0.000000 1.794840 0.000000 
#    z 0.000000 0.000000 1.789810 
# 
# From -- ./inp_files/4664.got.cif
#   From: 2010.03.12/outbox.cif.g09.slc.cpg/sg88_3_cif.got.tgz:4664.got - 2010.04.08 20:20:55.
