data_PCOD8304930
_publ_section_title
;
Structure prediction by ZEFSAII (Michael W. Deem and Ramdas Pophale) SiO2 
 PCOD8304930
Probable space group: P 41 2 2
;
_chemical_formula_sum "Si O2"
_cell_formula_units_Z 28
_cell_length_a 10.772584
_cell_length_b 10.772584
_cell_length_c 11.071938
_cell_angle_alpha 90.000000
_cell_angle_beta 90.000000
_cell_angle_gamma 90.000000
_cell_volume 1284.882528
_symmetry_space_group_name_H-M "P 41 2 2"
_symmetry_group_IT_number 91
_symmetry_cell_setting 'tetragonal'
loop_
_space_group_symop_operation_xyz
x,y,z
-y,x,1/4+z
-x,-y,1/2+z
y,-x,3/4+z
x,-y,1/2-z
-x,y,-z
y,x,3/4-z
-y,-x,1/4-z
loop_
_atom_site_type_symbol
_atom_site_label
_atom_site_fract_x
_atom_site_fract_y
_atom_site_fract_z
Si Si1 0.109099 0.500000 0.750000
Si Si2 0.069187 0.704663 0.322989
Si Si3 0.742914 0.742914 0.875000
Si Si4 0.047931 0.952070 0.625000
Si Si5 0.857500 0.489879 0.510683
O O1 0.192151 0.504456 0.627939
O O2 0.018449 0.381349 0.741518
O O3 0.169104 0.773356 0.238137
O O4 0.141347 0.623887 0.424326
O O5 0.981621 0.806329 0.385628
O O6 0.600955 0.766260 0.833834
O O7 0.000000 0.015647 0.500000
O O8 0.000000 0.441024 0.500000
#
# Coordination Sequence:
#
# PCOD8304930 Si02
#       5
#     4   8   4   4   8
#     4  10  20  44  64  88 140 184 236 278 346 426
#     4  11  23  42  64  99 139 188 232 290 355 427
#     4  12  21  38  72 100 129 188 245 292 344 432
#     4  12  27  42  64 106 153 182 231 296 374 438
#     4  10  21  42  63  98 134 183 243 287 347 415
#
# _framework density 21.791876999999999
#
# number of rings (size 3 to 8) (size 9 to 14) (size 15 to 20)
#    0.000    1.143    5.714    3.429    4.000    1.143 
#    0.000    0.000    0.000    0.000   29.714    0.000 
#    0.000    0.000    0.000    0.000    0.000    0.000 
#
# Total GULP energy -346969.874479 kJ/mol
# GULP energy per Si atom -12391.781231 kJ/mol
# Density = 2.174228 g / cm^3
# Si number density = 21.791877 Si / 1000 Ang^3
#
#
#
# Elastic Constant Matrix: (Units=GPa)
#
#
# Indices 1 2 3 4 5 6 
#
# 1 102.3329 53.0777 52.9218 0.0000 0.0000 0.0000
# 2 53.0777 102.3312 52.9214 0.0000 0.0000 0.0000
# 3 52.9218 52.9214 192.5025 0.0000 0.0000 0.0000
# 4 0.0000 0.0000 0.0000 38.3745 0.0000 0.0000
# 5 0.0000 0.0000 0.0000 0.0000 38.3742 0.0000
# 6 0.0000 0.0000 0.0000 0.0000 0.0000 35.2696
#
#
#
# Elastic Compliance Matrix: (Units=1/GPa)
#
#
# Indices 1 2 3 4 5 6 
#
# 1 0.014110 -0.006193 -0.002176 0.000000 0.000000 0.000000
# 2 -0.006193 0.014110 -0.002176 0.000000 0.000000 0.000000
# 3 -0.002176 -0.002176 0.006391 0.000000 0.000000 0.000000
# 4 0.000000 0.000000 0.000000 0.026059 0.000000 0.000000
# 5 0.000000 0.000000 0.000000 0.000000 0.026059 0.000000
# 6 0.000000 0.000000 0.000000 0.000000 0.000000 0.028353
#
#
# Mechanical properties :
#
#
# Convention : Reuss Voigt Hill
#
# Bulk Modulus (GPa) = 73.96800 79.44539 76.70670
# Shear Modulus (GPa) = 35.54152 38.28669 36.91410
#
# Velocity S-wave (km/s) = 4.04289 4.19612 4.12021
# Velocity P-wave (km/s) = 7.47060 7.74675 7.60993
#
# Compressibility (1/GPa) = 0.01351936
#
# Stress axis : x y z
#
# Youngs Moduli (GPa) = 70.87313 70.87186 156.45968
#
# Poissons Ratio (x) = 0.43891 0.34053
# Poissons Ratio (y) = 0.43891 0.34053
# Poissons Ratio (z) = 0.15425 0.15425
#
# Static dielectric constant tensor:
#      x y z
#    x 3.608810 0.000000 0.000000 
#    y 0.000000 3.608830 0.000000 
#    z 0.000000 0.000000 5.382640 
# 
# 
# High freq. dielectric constant tensor:
#      x y z
#    x 1.818030 0.000000 0.000000 
#    y 0.000000 1.818030 0.000000 
#    z 0.000000 0.000000 1.897820 
# 
# From -- ./inp_files/19957.got.cif
#   From: 2010.03.12/outbox.cif.g09.slc.cpg/sg91_10_cif.got.tgz:19957.got - 2010.04.08 20:27:58.
