data_PCOD8304428
_publ_section_title
;
Structure prediction by ZEFSAII (Michael W. Deem and Ramdas Pophale) SiO2 
 PCOD8304428
Probable space group: I 41/A
;
_chemical_formula_sum "Si O2"
_cell_formula_units_Z 88
_cell_length_a 16.400986
_cell_length_b 16.400986
_cell_length_c 13.961988
_cell_angle_alpha 90.000000
_cell_angle_beta 90.000000
_cell_angle_gamma 90.000000
_cell_volume 3755.667848
_symmetry_space_group_name_H-M "I 41/A"
_symmetry_group_IT_number 88
_space_group.IT_coordinate_system_code '2'
_symmetry_cell_setting 'tetragonal'
loop_
_space_group_symop_operation_xyz
x,y,z
3/4-y,1/4+x,1/4+z
-x,1/2-y,z
1/4+y,1/4-x,1/4+z
-x,-y,-z
1/4+y,3/4-x,3/4-z
x,1/2+y,-z
3/4-y,3/4+x,3/4-z
1/2+x,1/2+y,1/2+z
1/4-y,3/4+x,3/4+z
1/2-x,-y,1/2+z
3/4+y,3/4-x,3/4+z
1/2-x,1/2-y,1/2-z
3/4+y,1/4-x,1/4-z
1/2+x,y,1/2-z
1/4-y,1/4+x,1/4-z
loop_
_atom_site_type_symbol
_atom_site_label
_atom_site_fract_x
_atom_site_fract_y
_atom_site_fract_z
Si Si1 0.458196 0.616874 0.985294
Si Si2 0.000000 0.750000 0.375000
Si Si3 0.589378 0.026212 0.116270
Si Si4 0.380475 0.617120 0.693905
Si Si5 0.066980 0.558063 0.132713
Si Si6 0.895243 0.519580 0.172207
Si Si7 0.500000 0.250000 0.375000
O O1 0.510374 0.668615 0.061456
O O2 0.419305 0.536059 0.029234
O O3 0.516844 0.592949 0.895832
O O4 0.384643 0.673129 0.951746
O O5 0.583065 0.977375 0.215380
O O6 0.677597 0.066894 0.105063
O O7 0.410919 0.524320 0.690336
O O8 0.323464 0.630627 0.786992
O O9 0.324639 0.628569 0.600722
O O10 0.454575 0.682465 0.691025
O O11 0.970967 0.552685 0.108853
#
# Coordination Sequence:
#
# PCOD8304428 Si02
#       7
#    16   4  16  16  16  16   4
#     4  11  25  44  73 104 144 192 243 311 369 459
#     4  12  24  50  72 108 150 192 248 308 382 452
#     4  11  26  45  70 108 147 195 250 304 387 439
#     4  12  28  48  72 108 146 197 243 314 371 450
#     4  12  27  46  74 106 144 190 255 301 386 445
#     4  12  26  45  71 104 146 193 248 310 372 453
#     4  12  28  50  76 104 152 194 256 304 370 460
#
# _framework density 23.431251
#
# number of rings (size 3 to 8) (size 9 to 14) (size 15 to 20)
#    0.000    0.364    1.818    6.000    7.636    3.636 
#    0.000    0.000    0.000    0.000    0.000    0.000 
#    0.000    0.000    0.000    0.000    0.000    0.000 
#
# Total GULP energy -545861.811247 kJ/mol
# GULP energy per Si atom -12405.950256 kJ/mol
# Density = 2.337792 g / cm^3
# Si number density = 23.431251 Si / 1000 Ang^3
#
#
#
# Elastic Constant Matrix: (Units=GPa)
#
#
# Indices 1 2 3 4 5 6 
#
# 1 115.0033 31.3329 16.8033 0.0000 0.0000 -0.6477
# 2 31.3329 115.0033 16.8033 0.0000 0.0000 0.6477
# 3 16.8033 16.8033 79.6473 0.0000 0.0000 0.0000
# 4 0.0000 0.0000 0.0000 37.2924 0.0000 0.0000
# 5 0.0000 0.0000 0.0000 0.0000 37.2924 0.0000
# 6 -0.6477 0.6477 0.0000 0.0000 0.0000 46.8701
#
#
#
# Elastic Compliance Matrix: (Units=1/GPa)
#
#
# Indices 1 2 3 4 5 6 
#
# 1 0.009568 -0.002386 -0.001515 0.000000 0.000000 0.000165
# 2 -0.002386 0.009568 -0.001515 0.000000 0.000000 -0.000165
# 3 -0.001515 -0.001515 0.013195 0.000000 0.000000 0.000000
# 4 0.000000 0.000000 0.000000 0.026815 0.000000 0.000000
# 5 0.000000 0.000000 0.000000 0.000000 0.026815 0.000000
# 6 0.000165 -0.000165 0.000000 0.000000 0.000000 0.021340
#
#
# Mechanical properties :
#
#
# Convention : Reuss Voigt Hill
#
# Bulk Modulus (GPa) = 46.51746 48.83699 47.67723
# Shear Modulus (GPa) = 39.90436 40.60527 40.25482
#
# Velocity S-wave (km/s) = 4.13127 4.16739 4.14937
# Velocity P-wave (km/s) = 6.53088 6.63658 6.58394
#
# Compressibility (1/GPa) = 0.02149730
#
# Stress axis : x y z
#
# Youngs Moduli (GPa) = 104.51643 104.51643 75.78830
#
# Poissons Ratio (x) = 0.24941 0.11483
# Poissons Ratio (y) = 0.24941 0.11483
# Poissons Ratio (z) = 0.15835 0.15835
#
# Static dielectric constant tensor:
#      x y z
#    x 4.257000 0.000000 0.000000 
#    y 0.000000 4.257000 0.000000 
#    z 0.000000 0.000000 4.009150 
# 
# 
# High freq. dielectric constant tensor:
#      x y z
#    x 1.938250 0.000000 0.000000 
#    y 0.000000 1.938250 0.000000 
#    z 0.000000 0.000000 1.920130 
# 
# From -- ./inp_files/3239.got.cif
#   From: 2010.03.12/outbox.cif.g09.slc.cpg/sg88_2_cif.got.tgz:3239.got - 2010.04.08 20:20:55.
