data_PCOD8304413
_publ_section_title
;
Structure prediction by ZEFSAII (Michael W. Deem and Ramdas Pophale) SiO2 
 PCOD8304413
Probable space group: I 41/A
;
_chemical_formula_sum "Si O2"
_cell_formula_units_Z 96
_cell_length_a 15.023809
_cell_length_b 15.023809
_cell_length_c 19.008323
_cell_angle_alpha 90.000000
_cell_angle_beta 90.000000
_cell_angle_gamma 90.000000
_cell_volume 4290.460525
_symmetry_space_group_name_H-M "I 41/A"
_symmetry_group_IT_number 88
_space_group.IT_coordinate_system_code '2'
_symmetry_cell_setting 'tetragonal'
loop_
_space_group_symop_operation_xyz
x,y,z
3/4-y,1/4+x,1/4+z
-x,1/2-y,z
1/4+y,1/4-x,1/4+z
-x,-y,-z
1/4+y,3/4-x,3/4-z
x,1/2+y,-z
3/4-y,3/4+x,3/4-z
1/2+x,1/2+y,1/2+z
1/4-y,3/4+x,3/4+z
1/2-x,-y,1/2+z
3/4+y,3/4-x,3/4+z
1/2-x,1/2-y,1/2-z
3/4+y,1/4-x,1/4-z
1/2+x,y,1/2-z
1/4-y,1/4+x,1/4-z
loop_
_atom_site_type_symbol
_atom_site_label
_atom_site_fract_x
_atom_site_fract_y
_atom_site_fract_z
Si Si1 0.462549 0.005436 0.920924
Si Si2 0.147099 0.539332 0.358243
Si Si3 0.712495 0.474829 0.285688
Si Si4 0.400603 0.606251 0.397507
Si Si5 0.521073 0.464784 0.352510
Si Si6 0.422604 0.312963 0.288082
O O1 0.541670 0.020108 0.863942
O O2 0.393788 0.087243 0.909344
O O3 0.408517 0.914802 0.904586
O O4 0.500000 0.000000 0.000000
O O5 0.186353 0.508316 0.433349
O O6 0.199850 0.482423 0.298589
O O7 0.776250 0.394125 0.307279
O O8 0.614157 0.460650 0.313968
O O9 0.484142 0.565495 0.355212
O O10 0.442786 0.672605 0.453923
O O11 0.445164 0.413757 0.308837
O O12 0.531353 0.421023 0.429506
O O13 0.500000 0.250000 0.317654
#
# Coordination Sequence:
#
# PCOD8304413 Si02
#       6
#    16  16  16  16  16  16
#     4  11  25  47  72 105 143 186 242 298 359 426
#     4  11  24  46  73 101 142 186 238 299 353 429
#     4  11  23  42  70 101 138 185 235 287 360 428
#     4  11  26  40  70 100 139 184 236 288 356 428
#     4  12  22  41  65  99 139 182 226 287 355 425
#     4  12  22  41  63  96 139 177 225 286 349 419
#
# _framework density 22.375221
#
# number of rings (size 3 to 8) (size 9 to 14) (size 15 to 20)
#    0.000    0.667    5.000    2.500    2.333    4.333 
#    0.000    0.000    0.000    0.000    0.000    0.000 
#    0.000    0.000    0.000    0.000    0.000    0.000 
#
# Total GULP energy -595143.721373 kJ/mol
# GULP energy per Si atom -12398.827529 kJ/mol
# Density = 2.232429 g / cm^3
# Si number density = 22.375221 Si / 1000 Ang^3
#
#
#
# Elastic Constant Matrix: (Units=GPa)
#
#
# Indices 1 2 3 4 5 6 
#
# 1 83.8234 31.4643 26.5622 0.0000 0.0000 8.9799
# 2 31.4643 83.8234 26.5622 0.0000 0.0000 -8.9799
# 3 26.5622 26.5622 95.8084 0.0000 0.0000 0.0000
# 4 0.0000 0.0000 0.0000 33.6332 0.0000 0.0000
# 5 0.0000 0.0000 0.0000 0.0000 33.6332 0.0000
# 6 8.9799 -8.9799 0.0000 0.0000 0.0000 32.5950
#
#
#
# Elastic Compliance Matrix: (Units=1/GPa)
#
#
# Indices 1 2 3 4 5 6 
#
# 1 0.015518 -0.005574 -0.002757 0.000000 0.000000 -0.005811
# 2 -0.005574 0.015518 -0.002757 0.000000 0.000000 0.005811
# 3 -0.002757 -0.002757 0.011966 0.000000 0.000000 0.000000
# 4 0.000000 0.000000 0.000000 0.029733 0.000000 0.000000
# 5 0.000000 0.000000 0.000000 0.000000 0.029733 0.000000
# 6 -0.005811 0.005811 0.000000 0.000000 0.000000 0.033881
#
#
# Mechanical properties :
#
#
# Convention : Reuss Voigt Hill
#
# Bulk Modulus (GPa) = 48.01472 48.07028 48.04250
# Shear Modulus (GPa) = 30.21750 31.89671 31.05710
#
# Velocity S-wave (km/s) = 3.67889 3.77972 3.72965
# Velocity P-wave (km/s) = 6.28897 6.37015 6.32969
#
# Compressibility (1/GPa) = 0.02082695
#
# Stress axis : x y z
#
# Youngs Moduli (GPa) = 64.44039 64.44039 83.56866
#
# Poissons Ratio (x) = 0.35918 0.23040
# Poissons Ratio (y) = 0.35918 0.23040
# Poissons Ratio (z) = 0.17766 0.17766
#
# Static dielectric constant tensor:
#      x y z
#    x 4.050970 0.000000 0.000000 
#    y 0.000000 4.050970 0.000000 
#    z 0.000000 0.000000 3.952210 
# 
# 
# High freq. dielectric constant tensor:
#      x y z
#    x 1.880050 0.000000 0.000000 
#    y 0.000000 1.880050 0.000000 
#    z 0.000000 0.000000 1.882720 
# 
# From -- ./inp_files/4681.got.cif
#   From: 2010.03.12/outbox.cif.g09.slc.cpg/sg88_3_cif.got.tgz:4681.got - 2010.04.08 20:20:55.
