data_PCOD8304271
_publ_section_title
;
Structure prediction by ZEFSAII (Michael W. Deem and Ramdas Pophale) SiO2 
 PCOD8304271
Probable space group: I 41/A
;
_chemical_formula_sum "Si O2"
_cell_formula_units_Z 64
_cell_length_a 25.239991
_cell_length_b 25.239991
_cell_length_c 4.860463
_cell_angle_alpha 90.000000
_cell_angle_beta 90.000000
_cell_angle_gamma 90.000000
_cell_volume 3096.392685
_symmetry_space_group_name_H-M "I 41/A"
_symmetry_group_IT_number 88
_space_group.IT_coordinate_system_code '2'
_symmetry_cell_setting 'tetragonal'
loop_
_space_group_symop_operation_xyz
x,y,z
3/4-y,1/4+x,1/4+z
-x,1/2-y,z
1/4+y,1/4-x,1/4+z
-x,-y,-z
1/4+y,3/4-x,3/4-z
x,1/2+y,-z
3/4-y,3/4+x,3/4-z
1/2+x,1/2+y,1/2+z
1/4-y,3/4+x,3/4+z
1/2-x,-y,1/2+z
3/4+y,3/4-x,3/4+z
1/2-x,1/2-y,1/2-z
3/4+y,1/4-x,1/4-z
1/2+x,y,1/2-z
1/4-y,1/4+x,1/4-z
loop_
_atom_site_type_symbol
_atom_site_label
_atom_site_fract_x
_atom_site_fract_y
_atom_site_fract_z
Si Si1 0.354600 0.056574 0.614645
Si Si2 0.612349 0.308323 0.171254
Si Si3 0.063384 0.360433 0.813295
Si Si4 0.192260 0.892747 0.617430
O O1 0.409215 0.081709 0.731075
O O2 0.350137 0.078385 0.307790
O O3 0.357614 0.994246 0.558595
O O4 0.306784 0.073938 0.828072
O O5 0.619229 0.245715 0.163612
O O6 0.597567 0.324500 0.479319
O O7 0.668789 0.333687 0.070490
O O8 0.565028 0.328649 0.973855
#
# Coordination Sequence:
#
# PCOD8304271 Si02
#       4
#    16  16  16  16
#     4  10  21  37  56  80 110 143 183 228 273 327
#     4  10  21  36  55  81 111 144 184 228 274 327
#     4  10  21  36  55  81 111 144 184 228 274 327
#     4  10  21  37  56  80 110 143 183 228 273 327
#
# _framework density 20.669215000000001
#
# number of rings (size 3 to 8) (size 9 to 14) (size 15 to 20)
#    0.000    2.000    0.000    3.000    0.000    6.000 
#    0.000    0.000    0.000   18.000    0.000    0.000 
#    0.000    0.000    0.000    0.000    0.000    0.000 
#
# Total GULP energy -396471.377877 kJ/mol
# GULP energy per Si atom -12389.730559 kJ/mol
# Density = 2.062217 g / cm^3
# Si number density = 20.669215 Si / 1000 Ang^3
#
#
#
# Elastic Constant Matrix: (Units=GPa)
#
#
# Indices 1 2 3 4 5 6 
#
# 1 65.7547 78.2265 16.7775 0.0000 0.0000 -1.0981
# 2 78.2265 65.7547 16.7775 0.0000 0.0000 1.0981
# 3 16.7775 16.7775 91.9484 0.0000 0.0000 0.0000
# 4 0.0000 0.0000 0.0000 27.4732 0.0000 0.0000
# 5 0.0000 0.0000 0.0000 0.0000 27.4732 0.0000
# 6 -1.0981 1.0981 0.0000 0.0000 0.0000 11.5183
#
#
#
# Elastic Compliance Matrix: (Units=1/GPa)
#
#
# Indices 1 2 3 4 5 6 
#
# 1 -0.035802 0.043055 -0.001324 0.000000 0.000000 -0.007518
# 2 0.043055 -0.035802 -0.001324 0.000000 0.000000 0.007518
# 3 -0.001324 -0.001324 0.011359 0.000000 0.000000 0.000000
# 4 0.000000 0.000000 0.000000 0.036399 0.000000 0.000000
# 5 0.000000 0.000000 0.000000 0.000000 0.036399 0.000000
# 6 -0.007518 0.007518 0.000000 0.000000 0.000000 0.085385
#
#
# Mechanical properties :
#
#
# Convention : Reuss Voigt Hill
#
# Bulk Modulus (GPa) = 48.60975 49.66896 49.13935
# Shear Modulus (GPa) = 208.51388 20.73805 114.62596
#
# Velocity S-wave (km/s) = 10.05487 3.17098 7.45505
# Velocity P-wave (km/s) = 12.58449 6.12285 9.89593
#
# Compressibility (1/GPa) = 0.02057200
#
# Stress axis : x y z
#
# Youngs Moduli (GPa) = -27.93169 -27.93169 88.03845
#
# Poissons Ratio (x) = 1.20261 0.11653
# Poissons Ratio (y) = 1.20261 0.11653
# Poissons Ratio (z) = -0.03697 -0.03697
#
# Static dielectric constant tensor:
#      x y z
#    x 3.639650 0.000000 0.000000 
#    y 0.000000 3.639650 0.000000 
#    z 0.000000 0.000000 3.949210 
# 
# 
# High freq. dielectric constant tensor:
#      x y z
#    x 1.789520 0.000000 0.000000 
#    y 0.000000 1.789520 0.000000 
#    z 0.000000 0.000000 1.834440 
# 
# From -- ./inp_files/541.got.cif
#   From: 2010.03.12/outbox.cif.g09.slc.cpg/sg88_1_cif.got.tgz:541.got - 2010.04.08 20:20:55.
