data_PCOD8304985
_publ_section_title
;
Structure prediction by ZEFSAII (Michael W. Deem and Ramdas Pophale) SiO2 
 PCOD8304985
Probable space group: P 41 2 2
;
_chemical_formula_sum "Si O2"
_cell_formula_units_Z 40
_cell_length_a 10.910811
_cell_length_b 10.910811
_cell_length_c 16.038609
_cell_angle_alpha 90.000000
_cell_angle_beta 90.000000
_cell_angle_gamma 90.000000
_cell_volume 1909.328986
_symmetry_space_group_name_H-M "P 41 2 2"
_symmetry_group_IT_number 91
_symmetry_cell_setting 'tetragonal'
loop_
_space_group_symop_operation_xyz
x,y,z
-y,x,1/4+z
-x,-y,1/2+z
y,-x,3/4+z
x,-y,1/2-z
-x,y,-z
y,x,3/4-z
-y,-x,1/4-z
loop_
_atom_site_type_symbol
_atom_site_label
_atom_site_fract_x
_atom_site_fract_y
_atom_site_fract_z
Si Si1 0.369712 0.716039 0.211243
Si Si2 0.604090 0.368101 0.218982
Si Si3 0.121665 0.418458 0.052392
Si Si4 0.040755 0.892351 0.811952
Si Si5 0.877253 0.248839 0.807110
O O1 0.356151 0.643850 0.125000
O O2 0.455062 0.632361 0.271743
O O3 0.436541 0.847833 0.195822
O O4 0.241120 0.743582 0.251005
O O5 0.656079 0.500000 0.250000
O O6 0.647357 0.352644 0.125000
O O7 0.652459 0.245528 0.267791
O O8 0.095367 0.377193 0.147439
O O9 0.000000 0.389985 0.000000
O O10 0.153764 0.850727 0.867988
O O11 0.990842 0.783627 0.752931
O O12 0.083940 0.000000 0.750000
O O13 0.933639 0.933639 0.875000
#
# Coordination Sequence:
#
# PCOD8304985 Si02
#       5
#     8   8   8   8   8
#     4  10  24  39  64  90 127 170 222 269 323 410
#     4  10  21  40  68  91 123 170 230 269 319 403
#     4  10  25  40  61  97 137 164 214 288 349 378
#     4   9  20  37  61  89 117 160 224 265 319 413
#     4  11  21  39  63  89 123 174 209 269 340 404
#
# _framework density 20.949770000000001
#
# number of rings (size 3 to 8) (size 9 to 14) (size 15 to 20)
#    1.200    0.800    0.000    3.000    2.800    5.600 
#    0.000    0.000    0.000    0.000    0.000    0.000 
#    0.000    0.000    0.000    0.000    0.000    0.000 
#
# Total GULP energy -495580.462042 kJ/mol
# GULP energy per Si atom -12389.511551 kJ/mol
# Density = 2.090209 g / cm^3
# Si number density = 20.949770 Si / 1000 Ang^3
#
#
#
# Elastic Constant Matrix: (Units=GPa)
#
#
# Indices 1 2 3 4 5 6 
#
# 1 61.4410 5.3500 12.4912 0.0000 0.0000 0.0000
# 2 5.3500 61.4423 12.4913 0.0000 0.0000 0.0000
# 3 12.4912 12.4913 90.8164 0.0000 0.0000 0.0000
# 4 0.0000 0.0000 0.0000 35.9859 0.0000 0.0000
# 5 0.0000 0.0000 0.0000 0.0000 35.9859 0.0000
# 6 0.0000 0.0000 0.0000 0.0000 0.0000 23.6278
#
#
#
# Elastic Compliance Matrix: (Units=1/GPa)
#
#
# Indices 1 2 3 4 5 6 
#
# 1 0.016806 -0.001022 -0.002171 0.000000 0.000000 0.000000
# 2 -0.001022 0.016806 -0.002171 0.000000 0.000000 0.000000
# 3 -0.002171 -0.002171 0.011608 0.000000 0.000000 0.000000
# 4 0.000000 0.000000 0.000000 0.027789 0.000000 0.000000
# 5 0.000000 0.000000 0.000000 0.000000 0.027789 0.000000
# 6 0.000000 0.000000 0.000000 0.000000 0.000000 0.042323
#
#
# Mechanical properties :
#
#
# Convention : Reuss Voigt Hill
#
# Bulk Modulus (GPa) = 28.99186 30.48494 29.73840
# Shear Modulus (GPa) = 30.23960 31.34440 30.79200
#
# Velocity S-wave (km/s) = 3.80338 3.87223 3.83796
# Velocity P-wave (km/s) = 5.75816 5.88007 5.81943
#
# Compressibility (1/GPa) = 0.03449244
#
# Stress axis : x y z
#
# Youngs Moduli (GPa) = 59.50210 59.50329 86.14423
#
# Poissons Ratio (x) = 0.06081 0.18702
# Poissons Ratio (y) = 0.06081 0.18702
# Poissons Ratio (z) = 0.12918 0.12918
#
# Static dielectric constant tensor:
#      x y z
#    x 3.591360 0.000000 0.000000 
#    y 0.000000 3.591360 0.000000 
#    z 0.000000 0.000000 3.970120 
# 
# 
# High freq. dielectric constant tensor:
#      x y z
#    x 1.803990 0.000000 0.000000 
#    y 0.000000 1.803990 0.000000 
#    z 0.000000 0.000000 1.833380 
# 
# From -- ./inp_files/11374.got.cif
#   From: 2010.03.12/outbox.cif.g09.slc.cpg/sg91_6_cif.got.tgz:11374.got - 2010.04.08 20:27:58.
