data_PCOD8304647
_publ_section_title
;
Structure prediction by ZEFSAII (Michael W. Deem and Ramdas Pophale) SiO2 
 PCOD8304647
Probable space group: P 4 21 2
;
_chemical_formula_sum "Si O2"
_cell_formula_units_Z 50
_cell_length_a 8.306398
_cell_length_b 8.306398
_cell_length_c 32.274815
_cell_angle_alpha 90.000000
_cell_angle_beta 90.000000
_cell_angle_gamma 90.000000
_cell_volume 2226.841131
_symmetry_space_group_name_H-M "P 4 21 2"
_symmetry_group_IT_number 90
_symmetry_cell_setting 'tetragonal'
loop_
_space_group_symop_operation_xyz
x,y,z
1/2-y,1/2+x,z
-x,-y,z
1/2+y,1/2-x,z
1/2+x,1/2-y,-z
1/2-x,1/2+y,-z
y,x,-z
-y,-x,-z
loop_
_atom_site_type_symbol
_atom_site_label
_atom_site_fract_x
_atom_site_fract_y
_atom_site_fract_z
Si Si1 0.253242 0.430655 0.229101
Si Si2 0.087367 0.752041 0.462389
Si Si3 0.500000 0.500000 0.000000
Si Si4 0.424136 0.252078 0.295902
Si Si5 0.256295 0.429219 0.135461
Si Si6 0.749106 0.089834 0.389061
Si Si7 0.036545 0.761659 0.927471
O O1 0.194154 0.609764 0.236561
O O2 0.391015 0.391455 0.262460
O O3 0.319362 0.409891 0.182464
O O4 0.202228 0.597355 0.464820
O O5 0.129317 0.870684 0.500000
O O6 0.112053 0.850711 0.419851
O O7 0.659999 0.515901 0.972540
O O8 0.604878 0.196557 0.288775
O O9 0.394474 0.317503 0.342390
O O10 0.194316 0.609655 0.126949
O O11 0.410254 0.396915 0.105932
O O12 0.594116 0.201344 0.397141
O O13 0.178541 0.633600 0.921063
#
# Coordination Sequence:
#
# PCOD8304647 Si02
#       7
#     8   8   2   8   8   8   8
#     4   9  19  35  55  82 117 156 197 238 283 342
#     4  11  24  39  56  81 110 140 179 230 288 351
#     4  12  24  44  64  84 120 160 192 236 300 368
#     4   9  19  35  54  79 113 152 194 241 291 341
#     4   9  19  38  62  87 120 163 203 243 300 363
#     4   9  19  37  58  79 107 145 189 237 289 346
#     4  11  24  40  61  90 119 151 196 247 295 349
#
# _framework density 22.453330999999999
#
# number of rings (size 3 to 8) (size 9 to 14) (size 15 to 20)
#    0.000    2.240    0.000    4.320    0.000    6.720 
#    0.000   11.200    0.000    0.000    0.000    0.000 
#    0.000    0.000    0.000    0.000    0.000    0.000 
#
# Total GULP energy -619851.542662 kJ/mol
# GULP energy per Si atom -12397.030853 kJ/mol
# Density = 2.240223 g / cm^3
# Si number density = 22.453331 Si / 1000 Ang^3
#
#
#
# Elastic Constant Matrix: (Units=GPa)
#
#
# Indices 1 2 3 4 5 6 
#
# 1 55.4833 12.9346 34.2173 0.0000 0.0000 0.0000
# 2 12.9346 55.4826 34.2169 0.0000 0.0000 0.0000
# 3 34.2173 34.2169 143.0654 0.0000 0.0000 0.0000
# 4 0.0000 0.0000 0.0000 6.6393 0.0000 0.0000
# 5 0.0000 0.0000 0.0000 0.0000 6.6395 0.0000
# 6 0.0000 0.0000 0.0000 0.0000 0.0000 44.3564
#
#
#
# Elastic Compliance Matrix: (Units=1/GPa)
#
#
# Indices 1 2 3 4 5 6 
#
# 1 0.021357 -0.002145 -0.004595 0.000000 0.000000 0.000000
# 2 -0.002145 0.021358 -0.004595 0.000000 0.000000 0.000000
# 3 -0.004595 -0.004595 0.009188 0.000000 0.000000 0.000000
# 4 0.000000 0.000000 0.000000 0.150619 0.000000 0.000000
# 5 0.000000 0.000000 0.000000 0.000000 0.150614 0.000000
# 6 0.000000 0.000000 0.000000 0.000000 0.000000 0.022545
#
#
# Mechanical properties :
#
#
# Convention : Reuss Voigt Hill
#
# Bulk Modulus (GPa) = 34.20879 46.30764 40.25822
# Shear Modulus (GPa) = 12.25205 23.03786 17.64496
#
# Velocity S-wave (km/s) = 2.33849 3.20665 2.80634
# Velocity P-wave (km/s) = 4.74973 5.86335 5.33567
#
# Compressibility (1/GPa) = 0.02923225
#
# Stress axis : x y z
#
# Youngs Moduli (GPa) = 46.82226 46.82176 108.84005
#
# Poissons Ratio (x) = 0.10044 0.50012
# Poissons Ratio (y) = 0.10044 0.50012
# Poissons Ratio (z) = 0.21515 0.21515
#
# Static dielectric constant tensor:
#      x y z
#    x 3.914540 0.000000 0.000000 
#    y 0.000000 3.914540 0.000000 
#    z 0.000000 0.000000 3.997080 
# 
# 
# High freq. dielectric constant tensor:
#      x y z
#    x 1.888550 0.000000 0.000000 
#    y 0.000000 1.888550 0.000000 
#    z 0.000000 0.000000 1.885010 
# 
# From -- ./inp_files/3052.got.cif
#   From: 2010.03.12/outbox.cif.g09.slc.cpg/sg90_2_cif.got.tgz:3052.got - 2010.04.08 20:26:03.
