data_PCOD8304906
_publ_section_title
;
Structure prediction by ZEFSAII (Michael W. Deem and Ramdas Pophale) SiO2 
 PCOD8304906
Probable space group: P 41 2 2
;
_chemical_formula_sum "Si O2"
_cell_formula_units_Z 60
_cell_length_a 11.750486
_cell_length_b 11.750486
_cell_length_c 19.705972
_cell_angle_alpha 90.000000
_cell_angle_beta 90.000000
_cell_angle_gamma 90.000000
_cell_volume 2720.880826
_symmetry_space_group_name_H-M "P 41 2 2"
_symmetry_group_IT_number 91
_symmetry_cell_setting 'tetragonal'
loop_
_space_group_symop_operation_xyz
x,y,z
-y,x,1/4+z
-x,-y,1/2+z
y,-x,3/4+z
x,-y,1/2-z
-x,y,-z
y,x,3/4-z
-y,-x,1/4-z
loop_
_atom_site_type_symbol
_atom_site_label
_atom_site_fract_x
_atom_site_fract_y
_atom_site_fract_z
Si Si1 0.133334 0.701886 0.594902
Si Si2 0.591348 0.526332 0.949554
Si Si3 0.858274 0.961425 0.611528
Si Si4 0.719979 0.915078 0.096293
Si Si5 0.105151 0.661495 0.092435
Si Si6 0.688990 0.237528 0.527471
Si Si7 0.000000 0.869013 0.500000
Si Si8 0.833475 0.431125 0.963089
O O1 0.253092 0.746909 0.625000
O O2 0.152138 0.597581 0.543216
O O3 0.046681 0.674400 0.657637
O O4 0.060256 0.801160 0.559827
O O5 0.539312 0.539312 0.875000
O O6 0.625667 0.644447 0.985783
O O7 0.701985 0.448374 0.946044
O O8 0.500000 0.468047 0.000000
O O9 0.897733 0.856451 0.658344
O O10 0.892883 0.938251 0.532846
O O11 0.725152 0.990945 0.629478
O O12 0.922047 0.077954 0.625000
O O13 0.678896 0.868421 0.169772
O O14 0.664330 0.845668 0.035088
O O15 0.175675 0.741843 0.040019
O O16 0.185097 0.631111 0.155879
O O17 0.085288 0.539654 0.055313
#
# Coordination Sequence:
#
# PCOD8304906 Si02
#       8
#     8   8   8   8   8   8   4   8
#     4  11  23  42  68  98 135 198 243 280 359 452
#     4  11  22  42  72  98 126 178 241 301 363 426
#     4  11  22  36  63 105 135 178 228 285 350 430
#     4  11  23  39  67  99 139 191 229 284 367 440
#     4  10  22  39  63  98 142 170 224 294 367 426
#     4  10  20  39  61  99 131 166 225 289 358 424
#     4  10  20  40  66  96 144 184 234 288 348 450
#     4  11  22  45  66  95 143 187 236 295 365 442
#
# _framework density 22.051682
#
# number of rings (size 3 to 8) (size 9 to 14) (size 15 to 20)
#    0.000    1.333    6.667    2.400    3.733    1.067 
#    9.600    0.000    0.000    0.000    0.000    0.000 
#    0.000    0.000    0.000    0.000    0.000    0.000 
#
# Total GULP energy -743396.700789 kJ/mol
# GULP energy per Si atom -12389.945013 kJ/mol
# Density = 2.200149 g / cm^3
# Si number density = 22.051682 Si / 1000 Ang^3
#
#
#
# Elastic Constant Matrix: (Units=GPa)
#
#
# Indices 1 2 3 4 5 6 
#
# 1 82.8840 30.6099 27.0923 0.0000 0.0000 0.0000
# 2 30.6099 82.8836 27.0918 0.0000 0.0000 0.0000
# 3 27.0923 27.0918 87.9904 0.0000 0.0000 0.0000
# 4 0.0000 0.0000 0.0000 37.0004 0.0000 0.0000
# 5 0.0000 0.0000 0.0000 0.0000 37.0002 0.0000
# 6 0.0000 0.0000 0.0000 0.0000 0.0000 29.9053
#
#
#
# Elastic Compliance Matrix: (Units=1/GPa)
#
#
# Indices 1 2 3 4 5 6 
#
# 1 0.014730 -0.004400 -0.003180 0.000000 0.000000 0.000000
# 2 -0.004400 0.014730 -0.003180 0.000000 0.000000 0.000000
# 3 -0.003180 -0.003180 0.013323 0.000000 0.000000 0.000000
# 4 0.000000 0.000000 0.000000 0.027027 0.000000 0.000000
# 5 0.000000 0.000000 0.000000 0.000000 0.027027 0.000000
# 6 0.000000 0.000000 0.000000 0.000000 0.000000 0.033439
#
#
# Mechanical properties :
#
#
# Convention : Reuss Voigt Hill
#
# Bulk Modulus (GPa) = 47.03535 47.03845 47.03690
# Shear Modulus (GPa) = 31.46943 32.04545 31.75744
#
# Velocity S-wave (km/s) = 3.78176 3.81622 3.79903
# Velocity P-wave (km/s) = 6.35963 6.38712 6.37339
#
# Compressibility (1/GPa) = 0.02126060
#
# Stress axis : x y z
#
# Youngs Moduli (GPa) = 67.88999 67.88980 75.05614
#
# Poissons Ratio (x) = 0.29873 0.23871
# Poissons Ratio (y) = 0.29873 0.23871
# Poissons Ratio (z) = 0.21592 0.21591
#
# Static dielectric constant tensor:
#      x y z
#    x 3.939370 0.000000 0.000000 
#    y 0.000000 3.939370 0.000000 
#    z 0.000000 0.000000 4.116200 
# 
# 
# High freq. dielectric constant tensor:
#      x y z
#    x 1.852210 0.000000 0.000000 
#    y 0.000000 1.852210 0.000000 
#    z 0.000000 0.000000 1.865030 
# 
# From -- ./inp_files/12528.got.cif
#   From: 2010.03.12/outbox.cif.g09.slc.cpg/sg91_7_cif.got.tgz:12528.got - 2010.04.08 20:27:58.
