data_PCOD8304019
_publ_section_title
;
Structure prediction by ZEFSAII (Michael W. Deem and Ramdas Pophale) SiO2 
 PCOD8304019
Probable space group: I 4/M
;
_chemical_formula_sum "Si O2"
_cell_formula_units_Z 96
_cell_length_a 23.713887
_cell_length_b 23.713887
_cell_length_c 8.771569
_cell_angle_alpha 90.000000
_cell_angle_beta 90.000000
_cell_angle_gamma 90.000000
_cell_volume 4932.678114
_symmetry_space_group_name_H-M "I 4/M"
_symmetry_group_IT_number 87
_symmetry_cell_setting 'tetragonal'
loop_
_space_group_symop_operation_xyz
x,y,z
-y,x,z
-x,-y,z
y,-x,z
-x,-y,-z
y,-x,-z
x,y,-z
-y,x,-z
1/2+x,1/2+y,1/2+z
1/2-y,1/2+x,1/2+z
1/2-x,1/2-y,1/2+z
1/2+y,1/2-x,1/2+z
1/2-x,1/2-y,1/2-z
1/2+y,1/2-x,1/2-z
1/2+x,1/2+y,1/2-z
1/2-y,1/2+x,1/2-z
loop_
_atom_site_type_symbol
_atom_site_label
_atom_site_fract_x
_atom_site_fract_y
_atom_site_fract_z
Si Si1 0.856113 0.062071 0.178084
Si Si2 0.142853 0.056205 0.324668
Si Si3 0.240137 0.570450 0.825605
Si Si4 0.437692 0.950155 0.826421
Si Si5 0.132340 0.635595 0.173716
Si Si6 0.774599 0.555995 0.173837
O O1 0.899104 0.111176 0.220293
O O2 0.793374 0.082997 0.219489
O O3 0.873117 0.006268 0.270288
O O4 0.859399 0.048955 0.000000
O O5 0.124682 0.063304 0.500000
O O6 0.208901 0.067401 0.302558
O O7 0.199996 0.626153 0.813915
O O8 0.211749 0.509443 0.779072
O O9 0.261259 0.562731 0.000000
O O10 0.486327 0.924267 0.719983
O O11 0.384540 0.912240 0.793658
O O12 0.457122 0.947223 0.000000
O O13 0.103937 0.694290 0.224473
O O14 0.113532 0.623610 0.000000
O O15 0.793862 0.565899 0.000000
#
# Coordination Sequence:
#
# PCOD8304019 Si02
#       6
#    16  16  16  16  16  16
#     4  11  22  37  61  92 119 142 180 232 276 321
#     4  10  21  40  63  85 116 155 185 215 271 341
#     4   9  20  38  56  77 110 153 192 228 280 342
#     4  11  21  33  48  68  98 133 175 228 286 339
#     4  11  21  33  53  79 107 143 189 234 277 330
#     4   9  19  36  57  79 108 148 192 235 277 328
#
# _framework density 19.462045
#
# number of rings (size 3 to 8) (size 9 to 14) (size 15 to 20)
#    0.000    1.833    0.000    6.500    0.000    6.333 
#    0.000    2.500    0.000    0.000    0.000    0.000 
#    0.000    0.000    0.000    0.000    0.000    0.000 
#
# Total GULP energy -594902.539873 kJ/mol
# GULP energy per Si atom -12393.802914 kJ/mol
# Density = 1.941775 g / cm^3
# Si number density = 19.462045 Si / 1000 Ang^3
#
#
#
# Elastic Constant Matrix: (Units=GPa)
#
#
# Indices 1 2 3 4 5 6 
#
# 1 79.9727 27.5839 36.0001 0.0000 0.0000 -1.8905
# 2 27.5839 79.9727 36.0001 0.0000 0.0000 1.8905
# 3 36.0001 36.0001 88.0601 0.0000 0.0000 0.0000
# 4 0.0000 0.0000 0.0000 31.9074 0.0000 0.0000
# 5 0.0000 0.0000 0.0000 0.0000 31.9074 0.0000
# 6 -1.8905 1.8905 0.0000 0.0000 0.0000 38.6410
#
#
#
# Elastic Compliance Matrix: (Units=1/GPa)
#
#
# Indices 1 2 3 4 5 6 
#
# 1 0.015978 -0.003178 -0.005233 0.000000 0.000000 0.000937
# 2 -0.003178 0.015978 -0.005233 0.000000 0.000000 -0.000937
# 3 -0.005233 -0.005233 0.015635 0.000000 0.000000 0.000000
# 4 0.000000 0.000000 0.000000 0.031341 0.000000 0.000000
# 5 0.000000 0.000000 0.000000 0.000000 0.031341 0.000000
# 6 0.000937 -0.000937 0.000000 0.000000 0.000000 0.025971
#
#
# Mechanical properties :
#
#
# Convention : Reuss Voigt Hill
#
# Bulk Modulus (GPa) = 49.25263 49.68597 49.46930
# Shear Modulus (GPa) = 29.36027 30.38591 29.87309
#
# Velocity S-wave (km/s) = 3.88827 3.95560 3.92208
# Velocity P-wave (km/s) = 6.74686 6.81524 6.78114
#
# Compressibility (1/GPa) = 0.02030348
#
# Stress axis : x y z
#
# Youngs Moduli (GPa) = 62.58563 62.58563 63.96095
#
# Poissons Ratio (x) = 0.19887 0.33471
# Poissons Ratio (y) = 0.19887 0.33471
# Poissons Ratio (z) = 0.32751 0.32751
#
# Static dielectric constant tensor:
#      x y z
#    x 3.416550 0.000000 0.000000 
#    y 0.000000 3.416550 0.000000 
#    z 0.000000 0.000000 3.583110 
# 
# 
# High freq. dielectric constant tensor:
#      x y z
#    x 1.746350 0.000000 0.000000 
#    y 0.000000 1.746350 0.000000 
#    z 0.000000 0.000000 1.765280 
# 
# From -- ./inp_files/1450.got.cif
#   From: 2010.03.12/outbox.cif.g09.slc.cpg/sg87_1_cif.got.tgz:1450.got - 2010.04.08 20:16:13.
