data_PCOD8304863
_publ_section_title
;
Structure prediction by ZEFSAII (Michael W. Deem and Ramdas Pophale) SiO2 
 PCOD8304863
Probable space group: P 41 2 2
;
_chemical_formula_sum "Si O2"
_cell_formula_units_Z 40
_cell_length_a 11.099619
_cell_length_b 11.099619
_cell_length_c 18.124687
_cell_angle_alpha 90.000000
_cell_angle_beta 90.000000
_cell_angle_gamma 90.000000
_cell_volume 2232.989386
_symmetry_space_group_name_H-M "P 41 2 2"
_symmetry_group_IT_number 91
_symmetry_cell_setting 'tetragonal'
loop_
_space_group_symop_operation_xyz
x,y,z
-y,x,1/4+z
-x,-y,1/2+z
y,-x,3/4+z
x,-y,1/2-z
-x,y,-z
y,x,3/4-z
-y,-x,1/4-z
loop_
_atom_site_type_symbol
_atom_site_label
_atom_site_fract_x
_atom_site_fract_y
_atom_site_fract_z
Si Si1 0.310579 0.909662 0.561260
Si Si2 0.305781 0.397820 0.086812
Si Si3 0.278128 0.871094 0.721561
Si Si4 0.271501 0.500000 0.750000
Si Si5 0.639969 0.821423 0.015460
Si Si6 0.325142 0.674859 0.125000
O O1 0.350345 0.895766 0.645996
O O2 0.180067 0.854945 0.544468
O O3 0.395817 0.817400 0.521065
O O4 0.310398 0.045611 0.531734
O O5 0.441256 0.355575 0.064142
O O6 0.266279 0.337224 0.164482
O O7 0.307333 0.541244 0.093684
O O8 0.208909 0.362302 0.024389
O O9 0.245927 0.000000 0.750000
O O10 0.500000 0.833500 0.000000
O O11 0.703493 0.766252 0.942554
#
# Coordination Sequence:
#
# PCOD8304863 Si02
#       6
#     8   8   8   4   8   4
#     4  10  20  36  59  79 112 147 192 240 283 338
#     4  10  22  36  59  85 120 149 187 242 292 354
#     4  10  20  36  57  85 108 148 193 240 286 338
#     4  10  22  34  58  86 110 144 190 240 284 344
#     4  10  20  39  58  81 119 157 187 232 290 351
#     4  10  24  36  58  86 118 160 186 232 298 366
#
# _framework density 17.913207
#
# number of rings (size 3 to 8) (size 9 to 14) (size 15 to 20)
#    0.000    2.000    3.000    0.000    7.000    1.600 
#    0.000    2.000    0.000    0.000    0.000    0.000 
#    0.000    0.000    0.000    0.000    0.000    0.000 
#
# Total GULP energy -495614.390512 kJ/mol
# GULP energy per Si atom -12390.359763 kJ/mol
# Density = 1.787244 g / cm^3
# Si number density = 17.913207 Si / 1000 Ang^3
#
#
#
# Elastic Constant Matrix: (Units=GPa)
#
#
# Indices 1 2 3 4 5 6 
#
# 1 79.1566 38.5593 42.1137 0.0000 0.0000 0.0000
# 2 38.5593 79.1557 42.1135 0.0000 0.0000 0.0000
# 3 42.1137 42.1135 112.9080 0.0000 0.0000 0.0000
# 4 0.0000 0.0000 0.0000 33.3140 0.0000 0.0000
# 5 0.0000 0.0000 0.0000 0.0000 33.3141 0.0000
# 6 0.0000 0.0000 0.0000 0.0000 0.0000 9.5457
#
#
#
# Elastic Compliance Matrix: (Units=1/GPa)
#
#
# Indices 1 2 3 4 5 6 
#
# 1 0.018110 -0.006522 -0.004322 0.000000 0.000000 0.000000
# 2 -0.006522 0.018110 -0.004322 0.000000 0.000000 0.000000
# 3 -0.004322 -0.004322 0.012081 0.000000 0.000000 0.000000
# 4 0.000000 0.000000 0.000000 0.030017 0.000000 0.000000
# 5 0.000000 0.000000 0.000000 0.000000 0.030017 0.000000
# 6 0.000000 0.000000 0.000000 0.000000 0.000000 0.104759
#
#
# Mechanical properties :
#
#
# Convention : Reuss Voigt Hill
#
# Bulk Modulus (GPa) = 55.65497 57.42148 56.53823
# Shear Modulus (GPa) = 20.04675 25.13035 22.58855
#
# Velocity S-wave (km/s) = 3.34893 3.74959 3.55491
# Velocity P-wave (km/s) = 6.78900 7.13238 6.96281
#
# Compressibility (1/GPa) = 0.01796785
#
# Stress axis : x y z
#
# Youngs Moduli (GPa) = 55.21841 55.21777 82.77510
#
# Poissons Ratio (x) = 0.36016 0.35776
# Poissons Ratio (y) = 0.36016 0.35776
# Poissons Ratio (z) = 0.23865 0.23865
#
# Static dielectric constant tensor:
#      x y z
#    x 3.099830 0.000000 0.000000 
#    y 0.000000 3.099830 0.000000 
#    z 0.000000 0.000000 3.338330 
# 
# 
# High freq. dielectric constant tensor:
#      x y z
#    x 1.686930 0.000000 0.000000 
#    y 0.000000 1.686930 0.000000 
#    z 0.000000 0.000000 1.710110 
# 
# From -- ./inp_files/4791.got.cif
#   From: 2010.03.12/outbox.cif.g09.slc.cpg/sg91_3_cif.got.tgz:4791.got - 2010.04.08 20:27:58.
