data_PCOD8304550
_publ_section_title
;
Structure prediction by ZEFSAII (Michael W. Deem and Ramdas Pophale) SiO2 
 PCOD8304550
Probable space group: P 4 21 2
;
_chemical_formula_sum "Si O2"
_cell_formula_units_Z 30
_cell_length_a 8.761239
_cell_length_b 8.761239
_cell_length_c 20.728084
_cell_angle_alpha 90.000000
_cell_angle_beta 90.000000
_cell_angle_gamma 90.000000
_cell_volume 1591.073401
_symmetry_space_group_name_H-M "P 4 21 2"
_symmetry_group_IT_number 90
_symmetry_cell_setting 'tetragonal'
loop_
_space_group_symop_operation_xyz
x,y,z
1/2-y,1/2+x,z
-x,-y,z
1/2+y,1/2-x,z
1/2+x,1/2-y,-z
1/2-x,1/2+y,-z
y,x,-z
-y,-x,-z
loop_
_atom_site_type_symbol
_atom_site_label
_atom_site_fract_x
_atom_site_fract_y
_atom_site_fract_z
Si Si1 0.000000 0.000000 0.500000
Si Si2 0.759035 0.430112 0.954255
Si Si3 0.977653 0.248385 0.392680
Si Si4 0.000000 0.000000 0.288496
Si Si5 0.757453 0.445537 0.807953
O O1 0.990698 0.152818 0.458057
O O2 0.814475 0.601387 0.968053
O O3 0.698492 0.422255 0.880926
O O4 0.618144 0.381857 0.000000
O O5 0.836317 0.362718 0.389935
O O6 0.942338 0.137463 0.332882
O O7 0.874698 0.920963 0.243284
O O8 0.820742 0.613939 0.795788
#
# Coordination Sequence:
#
# PCOD8304550 Si02
#       5
#     2   8   8   4   8
#     4  10  20  36  60  80 102 144 178 196 246 312
#     4   9  19  34  51  73 100 130 168 215 263 310
#     4  10  21  36  54  80 111 136 168 215 254 292
#     4  11  20  33  55  78 101 140 178 206 255 308
#     4   9  19  35  52  73 103 136 173 215 256 308
#
# _framework density 18.855194999999998
#
# number of rings (size 3 to 8) (size 9 to 14) (size 15 to 20)
#    0.000    2.400    0.000    4.000    0.000    4.800 
#    0.000    0.000    0.000   16.000    0.000    0.000 
#    0.000    0.000    0.000    0.000    0.000    0.000 
#
# Total GULP energy -371898.073945 kJ/mol
# GULP energy per Si atom -12396.602465 kJ/mol
# Density = 1.881228 g / cm^3
# Si number density = 18.855195 Si / 1000 Ang^3
#
#
#
# Elastic Constant Matrix: (Units=GPa)
#
#
# Indices 1 2 3 4 5 6 
#
# 1 76.6189 30.4189 51.5021 0.0000 0.0000 0.0000
# 2 30.4189 76.6179 51.5018 0.0000 0.0000 0.0000
# 3 51.5021 51.5018 128.4981 0.0000 0.0000 0.0000
# 4 0.0000 0.0000 0.0000 26.4974 0.0000 0.0000
# 5 0.0000 0.0000 0.0000 0.0000 26.4974 0.0000
# 6 0.0000 0.0000 0.0000 0.0000 0.0000 26.7405
#
#
#
# Elastic Compliance Matrix: (Units=1/GPa)
#
#
# Indices 1 2 3 4 5 6 
#
# 1 0.018427 -0.003218 -0.006095 0.000000 0.000000 0.000000
# 2 -0.003218 0.018427 -0.006096 0.000000 0.000000 0.000000
# 3 -0.006095 -0.006096 0.012668 0.000000 0.000000 0.000000
# 4 0.000000 0.000000 0.000000 0.037740 0.000000 0.000000
# 5 0.000000 0.000000 0.000000 0.000000 0.037740 0.000000
# 6 0.000000 0.000000 0.000000 0.000000 0.000000 0.037396
#
#
# Mechanical properties :
#
#
# Convention : Reuss Voigt Hill
#
# Bulk Modulus (GPa) = 53.46718 60.95340 57.21029
# Shear Modulus (GPa) = 25.06884 25.83452 25.45168
#
# Velocity S-wave (km/s) = 3.65025 3.70557 3.67802
# Velocity P-wave (km/s) = 6.79588 7.12079 6.96023
#
# Compressibility (1/GPa) = 0.01870306
#
# Stress axis : x y z
#
# Youngs Moduli (GPa) = 54.26917 54.26843 78.93682
#
# Poissons Ratio (x) = 0.17466 0.48116
# Poissons Ratio (y) = 0.17466 0.48116
# Poissons Ratio (z) = 0.33080 0.33079
#
# Static dielectric constant tensor:
#      x y z
#    x 3.370500 0.000000 0.000000 
#    y 0.000000 3.370500 0.000000 
#    z 0.000000 0.000000 3.486490 
# 
# 
# High freq. dielectric constant tensor:
#      x y z
#    x 1.731630 0.000000 0.000000 
#    y 0.000000 1.731630 0.000000 
#    z 0.000000 0.000000 1.740530 
# 
# From -- ./inp_files/2694.got.cif
#   From: 2010.03.12/outbox.cif.g09.slc.cpg/sg90_2_cif.got.tgz:2694.got - 2010.04.08 20:26:03.
