data_PCOD8304074
_publ_section_title
;
Structure prediction by ZEFSAII (Michael W. Deem and Ramdas Pophale) SiO2 
 PCOD8304074
Probable space group: I 4/M
;
_chemical_formula_sum "Si O2"
_cell_formula_units_Z 72
_cell_length_a 20.942285
_cell_length_b 20.942285
_cell_length_c 7.802614
_cell_angle_alpha 90.000000
_cell_angle_beta 90.000000
_cell_angle_gamma 90.000000
_cell_volume 3422.064994
_symmetry_space_group_name_H-M "I 4/M"
_symmetry_group_IT_number 87
_symmetry_cell_setting 'tetragonal'
loop_
_space_group_symop_operation_xyz
x,y,z
-y,x,z
-x,-y,z
y,-x,z
-x,-y,-z
y,-x,-z
x,y,-z
-y,x,-z
1/2+x,1/2+y,1/2+z
1/2-y,1/2+x,1/2+z
1/2-x,1/2-y,1/2+z
1/2+y,1/2-x,1/2+z
1/2-x,1/2-y,1/2-z
1/2+y,1/2-x,1/2-z
1/2+x,1/2+y,1/2-z
1/2-y,1/2+x,1/2-z
loop_
_atom_site_type_symbol
_atom_site_label
_atom_site_fract_x
_atom_site_fract_y
_atom_site_fract_z
Si Si1 0.161732 0.596894 0.304794
Si Si2 0.100088 0.032310 0.000000
Si Si3 0.318905 0.417154 0.193378
Si Si4 0.044848 0.675322 0.300569
Si Si5 0.681050 0.724165 0.297989
O O1 0.160317 0.620283 0.500000
O O2 0.096930 0.625833 0.222638
O O3 0.162919 0.521094 0.295612
O O4 0.225586 0.628526 0.225332
O O5 0.139885 0.042747 0.827269
O O6 0.040851 0.079909 0.000000
O O7 0.245410 0.429128 0.238808
O O8 0.333198 0.342108 0.204450
O O9 0.335055 0.440199 0.000000
O O10 0.031452 0.664130 0.500000
O O11 0.674994 0.712383 0.500000
O O12 0.750000 0.750000 0.250000
#
# Coordination Sequence:
#
# PCOD8304074 Si02
#       5
#    16   8  16  16  16
#     4  10  23  40  62  90 128 172 215 268 331 394
#     4  11  28  50  70  98 138 179 221 267 335 409
#     4  11  24  43  69 100 135 171 224 279 332 399
#     4  10  23  42  60  92 131 168 219 272 324 394
#     4  11  21  38  64  96 133 169 217 280 339 394
#
# _framework density 21.039929000000001
#
# number of rings (size 3 to 8) (size 9 to 14) (size 15 to 20)
#    0.000    1.444    3.333    0.667    4.667    4.000 
#    0.000    3.333    0.000    0.000    0.000    0.000 
#    0.000    0.000    0.000    0.000    0.000    0.000 
#
# Total GULP energy -446487.475159 kJ/mol
# GULP energy per Si atom -12402.429866 kJ/mol
# Density = 2.099204 g / cm^3
# Si number density = 21.039929 Si / 1000 Ang^3
#
#
#
# Elastic Constant Matrix: (Units=GPa)
#
#
# Indices 1 2 3 4 5 6 
#
# 1 128.7036 57.5983 29.6206 0.0000 0.0000 11.4112
# 2 57.5983 128.7036 29.6206 0.0000 0.0000 -11.4112
# 3 29.6206 29.6206 82.5193 0.0000 0.0000 0.0000
# 4 0.0000 0.0000 0.0000 27.1336 0.0000 0.0000
# 5 0.0000 0.0000 0.0000 0.0000 27.1336 0.0000
# 6 11.4112 -11.4112 0.0000 0.0000 0.0000 21.5313
#
#
#
# Elastic Compliance Matrix: (Units=1/GPa)
#
#
# Indices 1 2 3 4 5 6 
#
# 1 0.011503 -0.005444 -0.002175 0.000000 0.000000 -0.008981
# 2 -0.005444 0.011503 -0.002175 0.000000 0.000000 0.008981
# 3 -0.002175 -0.002175 0.013680 0.000000 0.000000 0.000000
# 4 0.000000 0.000000 0.000000 0.036855 0.000000 0.000000
# 5 0.000000 0.000000 0.000000 0.000000 0.036855 0.000000
# 6 -0.008981 0.008981 0.000000 0.000000 0.000000 0.055964
#
#
# Mechanical properties :
#
#
# Convention : Reuss Voigt Hill
#
# Bulk Modulus (GPa) = 58.48518 63.73396 61.10957
# Shear Modulus (GPa) = 26.08988 30.03216 28.06102
#
# Velocity S-wave (km/s) = 3.52521 3.78218 3.65595
# Velocity P-wave (km/s) = 6.66536 7.03071 6.85047
#
# Compressibility (1/GPa) = 0.01709835
#
# Stress axis : x y z
#
# Youngs Moduli (GPa) = 86.93543 86.93543 73.10042
#
# Poissons Ratio (x) = 0.47324 0.15899
# Poissons Ratio (y) = 0.47324 0.15899
# Poissons Ratio (z) = 0.18908 0.18908
#
# Static dielectric constant tensor:
#      x y z
#    x 3.829760 0.000000 0.000000 
#    y 0.000000 3.829760 0.000000 
#    z 0.000000 0.000000 3.735350 
# 
# 
# High freq. dielectric constant tensor:
#      x y z
#    x 1.829870 0.000000 0.000000 
#    y 0.000000 1.829870 0.000000 
#    z 0.000000 0.000000 1.819640 
# 
# From -- ./inp_files/1091.got.cif
#   From: 2010.03.12/outbox.cif.g09.slc.cpg/sg87_1_cif.got.tgz:1091.got - 2010.04.08 20:16:13.
