data_PCOD8304321
_publ_section_title
;
Structure prediction by ZEFSAII (Michael W. Deem and Ramdas Pophale) SiO2 
 PCOD8304321
Probable space group: I 41/A
;
_chemical_formula_sum "Si O2"
_cell_formula_units_Z 96
_cell_length_a 22.774309
_cell_length_b 22.774309
_cell_length_c 8.601580
_cell_angle_alpha 90.000000
_cell_angle_beta 90.000000
_cell_angle_gamma 90.000000
_cell_volume 4461.374191
_symmetry_space_group_name_H-M "I 41/A"
_symmetry_group_IT_number 88
_space_group.IT_coordinate_system_code '2'
_symmetry_cell_setting 'tetragonal'
loop_
_space_group_symop_operation_xyz
x,y,z
3/4-y,1/4+x,1/4+z
-x,1/2-y,z
1/4+y,1/4-x,1/4+z
-x,-y,-z
1/4+y,3/4-x,3/4-z
x,1/2+y,-z
3/4-y,3/4+x,3/4-z
1/2+x,1/2+y,1/2+z
1/4-y,3/4+x,3/4+z
1/2-x,-y,1/2+z
3/4+y,3/4-x,3/4+z
1/2-x,1/2-y,1/2-z
3/4+y,1/4-x,1/4-z
1/2+x,y,1/2-z
1/4-y,1/4+x,1/4-z
loop_
_atom_site_type_symbol
_atom_site_label
_atom_site_fract_x
_atom_site_fract_y
_atom_site_fract_z
Si Si1 0.151199 0.856243 0.130035
Si Si2 0.176428 0.193971 0.212076
Si Si3 0.926114 0.692337 0.390643
Si Si4 0.893241 0.599864 0.647705
Si Si5 0.317779 0.500641 0.980734
Si Si6 0.427226 0.446323 0.433769
O O1 0.129460 0.817693 0.276113
O O2 0.191817 0.910138 0.183947
O O3 0.090976 0.875730 0.048330
O O4 0.188487 0.819775 0.003365
O O5 0.236721 0.166372 0.272490
O O6 0.172803 0.262259 0.258690
O O7 0.170361 0.190795 0.024906
O O8 0.926081 0.761091 0.438553
O O9 0.919675 0.651235 0.541417
O O10 0.873660 0.542885 0.549818
O O11 0.836965 0.622647 0.741759
O O12 0.285828 0.481297 0.824333
#
# Coordination Sequence:
#
# PCOD8304321 Si02
#       6
#    16  16  16  16  16  16
#     4  11  23  42  63  95 130 168 219 271 327 396
#     4  10  22  40  64  91 125 167 213 268 325 391
#     4  11  24  44  68  96 134 176 222 278 338 401
#     4  11  23  42  63  95 130 168 219 271 327 396
#     4  12  26  40  65  92 133 176 212 266 324 396
#     4  10  22  40  64  91 125 167 213 268 325 391
#
# _framework density 21.518034
#
# number of rings (size 3 to 8) (size 9 to 14) (size 15 to 20)
#    0.000    1.167    1.667    4.000    7.000    0.000 
#    0.000    1.667    0.000    8.000    0.000    0.000 
#    0.000    0.000    0.000    0.000    0.000    0.000 
#
# Total GULP energy -595254.125810 kJ/mol
# GULP energy per Si atom -12401.127621 kJ/mol
# Density = 2.146906 g / cm^3
# Si number density = 21.518034 Si / 1000 Ang^3
#
#
#
# Elastic Constant Matrix: (Units=GPa)
#
#
# Indices 1 2 3 4 5 6 
#
# 1 69.2304 10.5463 23.3131 0.0000 0.0000 -3.7802
# 2 10.5463 69.2304 23.3131 0.0000 0.0000 3.7802
# 3 23.3131 23.3131 85.0251 0.0000 0.0000 0.0000
# 4 0.0000 0.0000 0.0000 31.4073 0.0000 0.0000
# 5 0.0000 0.0000 0.0000 0.0000 31.4073 0.0000
# 6 -3.7802 3.7802 0.0000 0.0000 0.0000 30.1429
#
#
#
# Elastic Compliance Matrix: (Units=1/GPa)
#
#
# Indices 1 2 3 4 5 6 
#
# 1 0.016124 -0.001197 -0.004093 0.000000 0.000000 0.002172
# 2 -0.001197 0.016124 -0.004093 0.000000 0.000000 -0.002172
# 3 -0.004093 -0.004093 0.014006 0.000000 0.000000 0.000000
# 4 0.000000 0.000000 0.000000 0.031840 0.000000 0.000000
# 5 0.000000 0.000000 0.000000 0.000000 0.031840 0.000000
# 6 0.002172 -0.002172 0.000000 0.000000 0.000000 0.033720
#
#
# Mechanical properties :
#
#
# Convention : Reuss Voigt Hill
#
# Bulk Modulus (GPa) = 36.37899 37.53678 36.95788
# Shear Modulus (GPa) = 29.14092 29.67906 29.40999
#
# Velocity S-wave (km/s) = 3.68401 3.71787 3.70098
# Velocity P-wave (km/s) = 5.91937 5.99269 5.95614
#
# Compressibility (1/GPa) = 0.02748839
#
# Stress axis : x y z
#
# Youngs Moduli (GPa) = 62.02065 62.02065 71.39952
#
# Poissons Ratio (x) = 0.07421 0.29223
# Poissons Ratio (y) = 0.07421 0.29223
# Poissons Ratio (z) = 0.25384 0.25384
#
# Static dielectric constant tensor:
#      x y z
#    x 3.789570 0.000000 0.000000 
#    y 0.000000 3.789570 0.000000 
#    z 0.000000 0.000000 3.916480 
# 
# 
# High freq. dielectric constant tensor:
#      x y z
#    x 1.845660 0.000000 0.000000 
#    y 0.000000 1.845660 0.000000 
#    z 0.000000 0.000000 1.846880 
# 
# From -- ./inp_files/1706.got.cif
#   From: 2010.03.12/outbox.cif.g09.slc.cpg/sg88_1_cif.got.tgz:1706.got - 2010.04.08 20:20:55.
