data_PCOD8304487
_publ_section_title
;
Structure prediction by ZEFSAII (Michael W. Deem and Ramdas Pophale) SiO2 
 PCOD8304487
Probable space group: P 4 2 2
;
_chemical_formula_sum "Si O2"
_cell_formula_units_Z 32
_cell_length_a 10.744672
_cell_length_b 10.744672
_cell_length_c 12.205783
_cell_angle_alpha 90.000000
_cell_angle_beta 90.000000
_cell_angle_gamma 90.000000
_cell_volume 1409.132948
_symmetry_space_group_name_H-M "P 4 2 2"
_symmetry_group_IT_number 89
_symmetry_cell_setting 'tetragonal'
loop_
_space_group_symop_operation_xyz
x,y,z
-y,x,z
-x,-y,z
y,-x,z
x,-y,-z
-x,y,-z
y,x,-z
-y,-x,-z
loop_
_atom_site_type_symbol
_atom_site_label
_atom_site_fract_x
_atom_site_fract_y
_atom_site_fract_z
Si Si1 0.689434 0.428921 0.302790
Si Si2 0.629456 0.056180 0.617784
Si Si3 0.798738 0.967845 0.182041
Si Si4 0.802415 0.377303 0.066905
O O1 0.658209 0.572041 0.324935
O O2 0.794970 0.387202 0.388701
O O3 0.734797 0.413658 0.178942
O O4 0.745361 0.025445 0.695457
O O5 0.500000 0.000000 0.664641
O O6 0.661397 0.000000 0.500000
O O7 0.690217 0.934013 0.095760
O O8 0.898604 0.858227 0.161825
O O9 0.835817 0.500000 0.000000
O O10 0.710534 0.289467 0.000000
#
# Coordination Sequence:
#
# PCOD8304487 Si02
#       4
#     8   8   8   8
#     4  10  21  40  71 103 149 190 234 303 362 435
#     4  10  24  44  69 104 138 183 245 304 378 439
#     4  10  25  47  71 100 142 190 242 305 357 427
#     4  11  22  39  71 107 149 194 243 284 354 441
#
# _framework density 22.709002000000002
#
# number of rings (size 3 to 8) (size 9 to 14) (size 15 to 20)
#    0.000    1.750    2.500    0.000    7.000    2.250 
#    4.500    8.750    0.000    6.000    0.000    0.000 
#    0.000    0.000    0.000    0.000    0.000    0.000 
#
# Total GULP energy -396808.112522 kJ/mol
# GULP energy per Si atom -12400.253516 kJ/mol
# Density = 2.265732 g / cm^3
# Si number density = 22.709002 Si / 1000 Ang^3
#
#
#
# Elastic Constant Matrix: (Units=GPa)
#
#
# Indices 1 2 3 4 5 6 
#
# 1 4.1252 140.7105 72.5157 0.0000 0.0000 0.0000
# 2 140.7105 4.1367 72.5117 0.0000 0.0000 0.0000
# 3 72.5157 72.5117 129.7319 0.0000 0.0000 0.0000
# 4 0.0000 0.0000 0.0000 14.9848 0.0000 0.0000
# 5 0.0000 0.0000 0.0000 0.0000 14.9289 0.0000
# 6 0.0000 0.0000 0.0000 0.0000 0.0000 -6.0019
#
#
#
# Elastic Compliance Matrix: (Units=1/GPa)
#
#
# Indices 1 2 3 4 5 6 
#
# 1 0.004178 0.011501 -0.008763 0.000000 0.000000 0.000000
# 2 0.011501 0.004180 -0.008765 0.000000 0.000000 0.000000
# 3 -0.008763 -0.008765 0.017505 0.000000 0.000000 0.000000
# 4 0.000000 0.000000 0.000000 0.066734 0.000000 0.000000
# 5 0.000000 0.000000 0.000000 0.000000 0.066984 0.000000
# 6 0.000000 0.000000 0.000000 0.000000 0.000000 -0.166613
#
#
# Mechanical properties :
#
#
# Convention : Reuss Voigt Hill
#
# Bulk Modulus (GPa) = 72.42058 78.82996 75.62527
# Shear Modulus (GPa) = 519.41047 -5.06724 257.17161
#
# Velocity S-wave (km/s) = 15.14005 -1.49540 10.65328
# Velocity P-wave (km/s) = 18.37357 5.63975 13.59034
#
# Compressibility (1/GPa) = 0.01380823
#
# Stress axis : x y z
#
# Youngs Moduli (GPa) = 239.35633 239.25163 57.12507
#
# Poissons Ratio (x) = -2.75152 0.50061
# Poissons Ratio (y) = -2.75272 0.50068
# Poissons Ratio (z) = 2.09756 2.09694
#
# Static dielectric constant tensor:
#      x y z
#    x 4.355200 0.000000 0.000000 
#    y 0.000000 4.355390 0.000000 
#    z 0.000000 0.000000 3.929090 
# 
# 
# High freq. dielectric constant tensor:
#      x y z
#    x 1.907120 0.000000 0.000000 
#    y 0.000000 1.907120 0.000000 
#    z 0.000000 0.000000 1.892350 
# 
# From -- ./inp_files/1562.got.cif
#   From: 2010.03.12/outbox.cif.g09.slc.cpg/sg89_1_cif.got.tgz:1562.got - 2010.04.08 20:24:03.
