data_PCOD8304226
_publ_section_title
;
Structure prediction by ZEFSAII (Michael W. Deem and Ramdas Pophale) SiO2 
 PCOD8304226
Probable space group: I 41/A
;
_chemical_formula_sum "Si O2"
_cell_formula_units_Z 64
_cell_length_a 14.163538
_cell_length_b 14.163538
_cell_length_c 14.824705
_cell_angle_alpha 90.000000
_cell_angle_beta 90.000000
_cell_angle_gamma 90.000000
_cell_volume 2973.921935
_symmetry_space_group_name_H-M "I 41/A"
_symmetry_group_IT_number 88
_space_group.IT_coordinate_system_code '2'
_symmetry_cell_setting 'tetragonal'
loop_
_space_group_symop_operation_xyz
x,y,z
3/4-y,1/4+x,1/4+z
-x,1/2-y,z
1/4+y,1/4-x,1/4+z
-x,-y,-z
1/4+y,3/4-x,3/4-z
x,1/2+y,-z
3/4-y,3/4+x,3/4-z
1/2+x,1/2+y,1/2+z
1/4-y,3/4+x,3/4+z
1/2-x,-y,1/2+z
3/4+y,3/4-x,3/4+z
1/2-x,1/2-y,1/2-z
3/4+y,1/4-x,1/4-z
1/2+x,y,1/2-z
1/4-y,1/4+x,1/4-z
loop_
_atom_site_type_symbol
_atom_site_label
_atom_site_fract_x
_atom_site_fract_y
_atom_site_fract_z
Si Si1 0.431344 0.377128 0.116861
Si Si2 0.929025 0.876554 0.087715
Si Si3 0.152009 0.484764 0.749996
Si Si4 0.660183 0.947702 0.671851
O O1 0.542548 0.362578 0.098553
O O2 0.389830 0.290497 0.177299
O O3 0.375056 0.378396 0.021432
O O4 0.415021 0.474484 0.171639
O O5 0.917157 0.978055 0.135249
O O6 0.876695 0.866244 0.991742
O O7 0.260745 0.489717 0.721113
O O8 0.136994 0.545008 0.841204
#
# Coordination Sequence:
#
# PCOD8304226 Si02
#       4
#    16  16  16  16
#     4  10  20  33  52  77 103 134 169 205 249 299
#     4  10  20  33  52  77 103 134 169 205 249 299
#     4   9  19  34  51  73 102 134 167 207 252 296
#     4   9  19  34  51  73 102 134 167 207 252 296
#
# _framework density 21.520403000000002
#
# number of rings (size 3 to 8) (size 9 to 14) (size 15 to 20)
#    0.000    2.500    0.000    1.500    0.000   12.000 
#    0.000    2.500    0.000    0.000    0.000   24.500 
#    0.000    0.000    0.000    0.000    0.000    0.000 
#
# Total GULP energy -396707.120618 kJ/mol
# GULP energy per Si atom -12397.097519 kJ/mol
# Density = 2.147142 g / cm^3
# Si number density = 21.520403 Si / 1000 Ang^3
#
#
#
# Elastic Constant Matrix: (Units=GPa)
#
#
# Indices 1 2 3 4 5 6 
#
# 1 41.9652 -8.3325 6.6534 0.0000 0.0000 -3.8624
# 2 -8.3325 41.9652 6.6534 0.0000 0.0000 3.8624
# 3 6.6534 6.6534 51.0065 0.0000 0.0000 0.0000
# 4 0.0000 0.0000 0.0000 21.0709 0.0000 0.0000
# 5 0.0000 0.0000 0.0000 0.0000 21.0709 0.0000
# 6 -3.8624 3.8624 0.0000 0.0000 0.0000 28.7065
#
#
#
# Elastic Compliance Matrix: (Units=1/GPa)
#
#
# Indices 1 2 3 4 5 6 
#
# 1 0.025826 0.005525 -0.004089 0.000000 0.000000 0.002731
# 2 0.005525 0.025826 -0.004089 0.000000 0.000000 -0.002731
# 3 -0.004089 -0.004089 0.020672 0.000000 0.000000 0.000000
# 4 0.000000 0.000000 0.000000 0.047459 0.000000 0.000000
# 5 0.000000 0.000000 0.000000 0.000000 0.047459 0.000000
# 6 0.002731 -0.002731 0.000000 0.000000 0.000000 0.035570
#
#
# Mechanical properties :
#
#
# Convention : Reuss Voigt Hill
#
# Bulk Modulus (GPa) = 14.92173 16.09836 15.51004
# Shear Modulus (GPa) = 21.69580 22.83381 22.26480
#
# Velocity S-wave (km/s) = 3.17858 3.26088 3.21999
# Velocity P-wave (km/s) = 4.51885 4.65559 4.58773
#
# Compressibility (1/GPa) = 0.06701636
#
# Stress axis : x y z
#
# Youngs Moduli (GPa) = 38.72056 38.72056 48.37405
#
# Poissons Ratio (x) = -0.21393 0.19782
# Poissons Ratio (y) = -0.21393 0.19782
# Poissons Ratio (z) = 0.15835 0.15835
#
# Static dielectric constant tensor:
#      x y z
#    x 3.841490 0.000000 0.000000 
#    y 0.000000 3.841490 0.000000 
#    z 0.000000 0.000000 3.744100 
# 
# 
# High freq. dielectric constant tensor:
#      x y z
#    x 1.840960 0.000000 0.000000 
#    y 0.000000 1.840960 0.000000 
#    z 0.000000 0.000000 1.815820 
# 
# From -- ./inp_files/3052.got.cif
#   From: 2010.03.12/outbox.cif.g09.slc.cpg/sg88_2_cif.got.tgz:3052.got - 2010.04.08 20:20:55.
