data_PCOD8304649
_publ_section_title
;
Structure prediction by ZEFSAII (Michael W. Deem and Ramdas Pophale) SiO2 
 PCOD8304649
Probable space group: P 4 21 2
;
_chemical_formula_sum "Si O2"
_cell_formula_units_Z 40
_cell_length_a 8.511596
_cell_length_b 8.511596
_cell_length_c 25.474311
_cell_angle_alpha 90.000000
_cell_angle_beta 90.000000
_cell_angle_gamma 90.000000
_cell_volume 1845.544197
_symmetry_space_group_name_H-M "P 4 21 2"
_symmetry_group_IT_number 90
_symmetry_cell_setting 'tetragonal'
loop_
_space_group_symop_operation_xyz
x,y,z
1/2-y,1/2+x,z
-x,-y,z
1/2+y,1/2-x,z
1/2+x,1/2-y,-z
1/2-x,1/2+y,-z
y,x,-z
-y,-x,-z
loop_
_atom_site_type_symbol
_atom_site_label
_atom_site_fract_x
_atom_site_fract_y
_atom_site_fract_z
Si Si1 0.764490 0.610021 0.951351
Si Si2 0.237162 0.396948 0.452839
Si Si3 0.729507 0.116032 0.359454
Si Si4 0.886892 0.267435 0.145330
Si Si5 0.120528 0.727287 0.760008
O O1 0.793890 0.425449 0.953857
O O2 0.673028 0.645387 0.897824
O O3 0.655865 0.655865 0.000000
O O4 0.204241 0.579947 0.457231
O O5 0.352265 0.352265 0.500000
O O6 0.320034 0.364848 0.397205
O O7 0.567660 0.206439 0.370731
O O8 0.783204 0.145859 0.299720
O O9 0.793040 0.428957 0.138257
O O10 0.859456 0.193166 0.202632
O O11 0.207899 0.563652 0.771328
#
# Coordination Sequence:
#
# PCOD8304649 Si02
#       5
#     8   8   8   8   8
#     4  11  24  41  62  88 116 147 187 233 280 334
#     4  11  24  39  56  81 112 145 184 230 278 331
#     4   9  19  37  60  85 113 145 184 230 278 331
#     4  11  24  39  56  83 118 153 191 234 278 328
#     4   9  19  37  60  85 113 147 188 232 278 330
#
# _framework density 21.673825999999998
#
# number of rings (size 3 to 8) (size 9 to 14) (size 15 to 20)
#    0.000    1.800    0.000    4.800    0.000   14.400 
#    0.000    6.000    0.000    0.000    0.000    0.000 
#    0.000    0.000    0.000    0.000    0.000    0.000 
#
# Total GULP energy -496237.105580 kJ/mol
# GULP energy per Si atom -12405.927639 kJ/mol
# Density = 2.162450 g / cm^3
# Si number density = 21.673826 Si / 1000 Ang^3
#
#
#
# Elastic Constant Matrix: (Units=GPa)
#
#
# Indices 1 2 3 4 5 6 
#
# 1 13.5408 -8.1358 9.3066 0.0000 0.0000 0.0000
# 2 -8.1358 13.5408 9.3066 0.0000 0.0000 0.0000
# 3 9.3066 9.3066 116.2144 0.0000 0.0000 0.0000
# 4 0.0000 0.0000 0.0000 13.7379 0.0000 0.0000
# 5 0.0000 0.0000 0.0000 0.0000 13.7379 0.0000
# 6 0.0000 0.0000 0.0000 0.0000 0.0000 34.4740
#
#
#
# Elastic Compliance Matrix: (Units=1/GPa)
#
#
# Indices 1 2 3 4 5 6 
#
# 1 0.150798 0.104666 -0.020458 0.000000 0.000000 0.000000
# 2 0.104666 0.150798 -0.020458 0.000000 0.000000 0.000000
# 3 -0.020458 -0.020458 0.011881 0.000000 0.000000 0.000000
# 4 0.000000 0.000000 0.000000 0.072792 0.000000 0.000000
# 5 0.000000 0.000000 0.000000 0.000000 0.072792 0.000000
# 6 0.000000 0.000000 0.000000 0.000000 0.000000 0.029007
#
#
# Mechanical properties :
#
#
# Convention : Reuss Voigt Hill
#
# Bulk Modulus (GPa) = 2.26769 18.25008 10.25888
# Shear Modulus (GPa) = 9.85103 21.24453 15.54778
#
# Velocity S-wave (km/s) = 2.13424 3.13420 2.68125
# Velocity P-wave (km/s) = 2.66868 4.64071 3.78537
#
# Compressibility (1/GPa) = 0.44097794
#
# Stress axis : x y z
#
# Youngs Moduli (GPa) = 6.63137 6.63137 84.16555
#
# Poissons Ratio (x) = -0.69408 1.72184
# Poissons Ratio (y) = -0.69408 1.72184
# Poissons Ratio (z) = 0.13566 0.13566
#
# Static dielectric constant tensor:
#      x y z
#    x 3.818030 0.000000 0.000000 
#    y 0.000000 3.818030 0.000000 
#    z 0.000000 0.000000 3.936560 
# 
# 
# High freq. dielectric constant tensor:
#      x y z
#    x 1.851230 0.000000 0.000000 
#    y 0.000000 1.851230 0.000000 
#    z 0.000000 0.000000 1.862340 
# 
# From -- ./inp_files/2875.got.cif
#   From: 2010.03.12/outbox.cif.g09.slc.cpg/sg90_2_cif.got.tgz:2875.got - 2010.04.08 20:26:03.
