data_PCOD8304426
_publ_section_title
;
Structure prediction by ZEFSAII (Michael W. Deem and Ramdas Pophale) SiO2 
 PCOD8304426
Probable space group: I 41/A
;
_chemical_formula_sum "Si O2"
_cell_formula_units_Z 96
_cell_length_a 14.288472
_cell_length_b 14.288472
_cell_length_c 19.216641
_cell_angle_alpha 90.000000
_cell_angle_beta 90.000000
_cell_angle_gamma 90.000000
_cell_volume 3923.277730
_symmetry_space_group_name_H-M "I 41/A"
_symmetry_group_IT_number 88
_space_group.IT_coordinate_system_code '2'
_symmetry_cell_setting 'tetragonal'
loop_
_space_group_symop_operation_xyz
x,y,z
3/4-y,1/4+x,1/4+z
-x,1/2-y,z
1/4+y,1/4-x,1/4+z
-x,-y,-z
1/4+y,3/4-x,3/4-z
x,1/2+y,-z
3/4-y,3/4+x,3/4-z
1/2+x,1/2+y,1/2+z
1/4-y,3/4+x,3/4+z
1/2-x,-y,1/2+z
3/4+y,3/4-x,3/4+z
1/2-x,1/2-y,1/2-z
3/4+y,1/4-x,1/4-z
1/2+x,y,1/2-z
1/4-y,1/4+x,1/4-z
loop_
_atom_site_type_symbol
_atom_site_label
_atom_site_fract_x
_atom_site_fract_y
_atom_site_fract_z
Si Si1 0.555758 0.154229 0.604050
Si Si2 0.272822 0.237029 0.419751
Si Si3 0.374685 0.324766 0.856465
Si Si4 0.660600 0.507199 0.789960
Si Si5 0.333972 0.632964 0.705846
Si Si6 0.408885 0.049733 0.029363
O O1 0.500000 0.250000 0.591410
O O2 0.572661 0.102120 0.531098
O O3 0.654942 0.170641 0.643954
O O4 0.490927 0.086553 0.649976
O O5 0.286857 0.161703 0.480359
O O6 0.339974 0.210853 0.354608
O O7 0.301226 0.340749 0.444187
O O8 0.461697 0.370104 0.896799
O O9 0.275965 0.353864 0.891579
O O10 0.381782 0.361570 0.777227
O O11 0.727709 0.595518 0.802821
O O12 0.727056 0.423247 0.769211
O O13 0.500000 0.000000 0.000000
#
# Coordination Sequence:
#
# PCOD8304426 Si02
#       6
#    16  16  16  16  16  16
#     4  12  29  49  78 116 156 212 269 333 399 485
#     4  12  28  52  81 114 160 206 266 336 405 475
#     4  11  25  42  71 108 157 206 253 314 397 480
#     4  12  26  48  78 115 157 207 257 328 394 483
#     4  12  30  51  82 114 155 206 276 331 405 474
#     4  12  25  43  71 108 156 200 256 315 393 472
#
# _framework density 24.469334
#
# number of rings (size 3 to 8) (size 9 to 14) (size 15 to 20)
#    0.000    0.167    3.333    4.500   11.667    0.000 
#    0.000    0.000    0.000    0.000    0.000    0.000 
#    0.000    0.000    0.000    0.000    0.000    0.000 
#
# Total GULP energy -595210.256997 kJ/mol
# GULP energy per Si atom -12400.213687 kJ/mol
# Density = 2.441364 g / cm^3
# Si number density = 24.469334 Si / 1000 Ang^3
#
#
#
# Elastic Constant Matrix: (Units=GPa)
#
#
# Indices 1 2 3 4 5 6 
#
# 1 91.6478 26.8344 27.1715 0.0000 0.0000 -1.6138
# 2 26.8344 91.6479 27.1715 0.0000 0.0000 1.6138
# 3 27.1715 27.1715 138.0103 0.0000 0.0000 0.0000
# 4 0.0000 0.0000 0.0000 37.4880 0.0000 0.0000
# 5 0.0000 0.0000 0.0000 0.0000 37.4880 0.0000
# 6 -1.6138 1.6138 0.0000 0.0000 0.0000 52.4576
#
#
#
# Elastic Compliance Matrix: (Units=1/GPa)
#
#
# Indices 1 2 3 4 5 6 
#
# 1 0.012365 -0.003087 -0.001827 0.000000 0.000000 0.000475
# 2 -0.003087 0.012365 -0.001827 0.000000 0.000000 -0.000475
# 3 -0.001827 -0.001827 0.007965 0.000000 0.000000 0.000000
# 4 0.000000 0.000000 0.000000 0.026675 0.000000 0.000000
# 5 0.000000 0.000000 0.000000 0.000000 0.026675 0.000000
# 6 0.000475 -0.000475 0.000000 0.000000 0.000000 0.019092
#
#
# Mechanical properties :
#
#
# Convention : Reuss Voigt Hill
#
# Bulk Modulus (GPa) = 52.04449 53.74009 52.89229
# Shear Modulus (GPa) = 39.99227 41.49531 40.74379
#
# Velocity S-wave (km/s) = 4.04714 4.12249 4.08499
# Velocity P-wave (km/s) = 6.56921 6.68354 6.62662
#
# Compressibility (1/GPa) = 0.01921433
#
# Stress axis : x y z
#
# Youngs Moduli (GPa) = 80.87193 80.87194 125.54780
#
# Poissons Ratio (x) = 0.24968 0.22933
# Poissons Ratio (y) = 0.24968 0.22933
# Poissons Ratio (z) = 0.14772 0.14772
#
# Static dielectric constant tensor:
#      x y z
#    x 4.586290 0.000000 0.000000 
#    y 0.000000 4.586290 0.000000 
#    z 0.000000 0.000000 4.845080 
# 
# 
# High freq. dielectric constant tensor:
#      x y z
#    x 1.980580 0.000000 0.000000 
#    y 0.000000 1.980580 0.000000 
#    z 0.000000 0.000000 1.985310 
# 
# From -- ./inp_files/4679.got.cif
#   From: 2010.03.12/outbox.cif.g09.slc.cpg/sg88_3_cif.got.tgz:4679.got - 2010.04.08 20:20:55.
