data_PCOD8304008
_publ_section_title
;
Structure prediction by ZEFSAII (Michael W. Deem and Ramdas Pophale) SiO2 
 PCOD8304008
Probable space group: I 4/M
;
_chemical_formula_sum "Si O2"
_cell_formula_units_Z 96
_cell_length_a 23.616592
_cell_length_b 23.616592
_cell_length_c 8.920354
_cell_angle_alpha 90.000000
_cell_angle_beta 90.000000
_cell_angle_gamma 90.000000
_cell_volume 4975.268727
_symmetry_space_group_name_H-M "I 4/M"
_symmetry_group_IT_number 87
_symmetry_cell_setting 'tetragonal'
loop_
_space_group_symop_operation_xyz
x,y,z
-y,x,z
-x,-y,z
y,-x,z
-x,-y,-z
y,-x,-z
x,y,-z
-y,x,-z
1/2+x,1/2+y,1/2+z
1/2-y,1/2+x,1/2+z
1/2-x,1/2-y,1/2+z
1/2+y,1/2-x,1/2+z
1/2-x,1/2-y,1/2-z
1/2+y,1/2-x,1/2-z
1/2+x,1/2+y,1/2-z
1/2-y,1/2+x,1/2-z
loop_
_atom_site_type_symbol
_atom_site_label
_atom_site_fract_x
_atom_site_fract_y
_atom_site_fract_z
Si Si1 0.960343 0.289142 0.325888
Si Si2 0.045466 0.204913 0.823999
Si Si3 0.013580 0.091416 0.672217
Si Si4 0.736545 0.338043 0.825034
Si Si5 0.226663 0.332052 0.825642
Si Si6 0.080951 0.483899 0.824357
O O1 0.969950 0.274541 0.500000
O O2 0.897014 0.273563 0.274839
O O3 0.970827 0.354375 0.291175
O O4 0.003619 0.253967 0.227425
O O5 0.019701 0.144576 0.779889
O O6 0.106360 0.212500 0.750844
O O7 0.052774 0.208126 0.000000
O O8 0.016704 0.111543 0.500000
O O9 0.953063 0.063326 0.705725
O O10 0.692579 0.288188 0.786959
O O11 0.798467 0.321954 0.763422
O O12 0.742011 0.349509 0.000000
O O13 0.211997 0.325885 0.000000
O O14 0.065622 0.544104 0.751310
O O15 0.067463 0.485681 0.000000
#
# Coordination Sequence:
#
# PCOD8304008 Si02
#       6
#    16  16  16  16  16  16
#     4  10  23  41  61  88 119 156 202 245 296 355
#     4  12  26  39  58  90 126 159 199 249 296 347
#     4   9  20  41  67  90 116 156 201 245 299 361
#     4  10  21  39  63  89 119 159 201 243 298 359
#     4   9  20  40  64  89 118 155 198 248 299 354
#     4  10  21  38  61  87 118 154 195 242 292 352
#
# _framework density 19.295438999999998
#
# number of rings (size 3 to 8) (size 9 to 14) (size 15 to 20)
#    0.000    2.000    0.000    3.500    4.667    3.333 
#    0.000    0.833    0.000    0.000    0.000    0.000 
#    0.000    0.000    0.000    0.000    0.000    0.000 
#
# Total GULP energy -595423.736899 kJ/mol
# GULP energy per Si atom -12404.661185 kJ/mol
# Density = 1.925152 g / cm^3
# Si number density = 19.295439 Si / 1000 Ang^3
#
#
#
# Elastic Constant Matrix: (Units=GPa)
#
#
# Indices 1 2 3 4 5 6 
#
# 1 101.8865 43.9338 45.7814 0.0000 0.0000 -0.7638
# 2 43.9338 101.8865 45.7814 0.0000 0.0000 0.7638
# 3 45.7814 45.7814 89.0910 0.0000 0.0000 0.0000
# 4 0.0000 0.0000 0.0000 28.3879 0.0000 0.0000
# 5 0.0000 0.0000 0.0000 0.0000 28.3879 0.0000
# 6 -0.7638 0.7638 0.0000 0.0000 0.0000 22.5057
#
#
#
# Elastic Compliance Matrix: (Units=1/GPa)
#
#
# Indices 1 2 3 4 5 6 
#
# 1 0.013698 -0.003573 -0.005203 0.000000 0.000000 0.000586
# 2 -0.003573 0.013698 -0.005203 0.000000 0.000000 -0.000586
# 3 -0.005203 -0.005203 0.016572 0.000000 0.000000 0.000000
# 4 0.000000 0.000000 0.000000 0.035226 0.000000 0.000000
# 5 0.000000 0.000000 0.000000 0.000000 0.035226 0.000000
# 6 0.000586 -0.000586 0.000000 0.000000 0.000000 0.044473
#
#
# Mechanical properties :
#
#
# Convention : Reuss Voigt Hill
#
# Bulk Modulus (GPa) = 62.46172 62.65079 62.55626
# Shear Modulus (GPa) = 26.01637 26.34746 26.18192
#
# Velocity S-wave (km/s) = 3.67593 3.69924 3.68760
# Velocity P-wave (km/s) = 7.10339 7.12640 7.11490
#
# Compressibility (1/GPa) = 0.01600980
#
# Stress axis : x y z
#
# Youngs Moduli (GPa) = 73.00459 73.00459 60.34422
#
# Poissons Ratio (x) = 0.26085 0.31396
# Poissons Ratio (y) = 0.26085 0.31396
# Poissons Ratio (z) = 0.37983 0.37983
#
# Static dielectric constant tensor:
#      x y z
#    x 3.605370 0.000000 0.000000 
#    y 0.000000 3.605370 0.000000 
#    z 0.000000 0.000000 3.534120 
# 
# 
# High freq. dielectric constant tensor:
#      x y z
#    x 1.760030 0.000000 0.000000 
#    y 0.000000 1.760030 0.000000 
#    z 0.000000 0.000000 1.750980 
# 
# From -- ./inp_files/1383.got.cif
#   From: 2010.03.12/outbox.cif.g09.slc.cpg/sg87_1_cif.got.tgz:1383.got - 2010.04.08 20:16:13.
