data_PCOD8304845
_publ_section_title
;
Structure prediction by ZEFSAII (Michael W. Deem and Ramdas Pophale) SiO2 
 PCOD8304845
Probable space group: P 41 2 2
;
_chemical_formula_sum "Si O2"
_cell_formula_units_Z 44
_cell_length_a 11.157521
_cell_length_b 11.157521
_cell_length_c 19.157105
_cell_angle_alpha 90.000000
_cell_angle_beta 90.000000
_cell_angle_gamma 90.000000
_cell_volume 2384.873267
_symmetry_space_group_name_H-M "P 41 2 2"
_symmetry_group_IT_number 91
_symmetry_cell_setting 'tetragonal'
loop_
_space_group_symop_operation_xyz
x,y,z
-y,x,1/4+z
-x,-y,1/2+z
y,-x,3/4+z
x,-y,1/2-z
-x,y,-z
y,x,3/4-z
-y,-x,1/4-z
loop_
_atom_site_type_symbol
_atom_site_label
_atom_site_fract_x
_atom_site_fract_y
_atom_site_fract_z
Si Si1 0.213573 0.244613 0.295903
Si Si2 0.000000 0.332437 0.500000
Si Si3 0.872782 0.312691 0.129432
Si Si4 0.942826 0.220114 0.272674
Si Si5 0.000000 0.210552 0.000000
Si Si6 0.500000 0.843645 0.000000
Si Si7 0.441831 0.952761 0.395396
O O1 0.262805 0.262805 0.375000
O O2 0.262001 0.127534 0.254766
O O3 0.232400 0.373096 0.253766
O O4 0.074327 0.213838 0.304735
O O5 0.993631 0.412486 0.431997
O O6 0.739388 0.260613 0.125000
O O7 0.945586 0.243485 0.189981
O O8 0.855416 0.452480 0.144065
O O9 0.942682 0.295529 0.057429
O O10 0.872261 0.098475 0.288636
O O11 0.886146 0.333740 0.313847
O O12 0.503820 0.928687 0.932255
#
# Coordination Sequence:
#
# PCOD8304845 Si02
#       7
#     8   4   8   8   4   4   8
#     4  11  21  38  60  92 126 165 213 269 320 391
#     4  12  24  34  64 100 116 159 229 266 306 392
#     4  10  20  36  55  80 117 157 203 243 310 383
#     4  10  20  34  55  78 124 160 186 249 330 374
#     4  10  22  32  50  90 118 151 193 262 314 376
#     4  10  20  40  62  80 134 178 200 256 346 390
#     4  11  20  38  57  83 120 165 209 250 317 387
#
# _framework density 18.449617
#
# number of rings (size 3 to 8) (size 9 to 14) (size 15 to 20)
#    0.000    1.455    7.273    1.091    2.545    2.182 
#    0.000    0.000    0.000    1.091    0.000    0.000 
#    0.000    0.000    0.000    0.000    0.000    0.000 
#
# Total GULP energy -545103.838133 kJ/mol
# GULP energy per Si atom -12388.723594 kJ/mol
# Density = 1.840763 g / cm^3
# Si number density = 18.449617 Si / 1000 Ang^3
#
#
#
# Elastic Constant Matrix: (Units=GPa)
#
#
# Indices 1 2 3 4 5 6 
#
# 1 117.8234 47.4384 31.8920 0.0000 0.0000 0.0000
# 2 47.4384 117.8226 31.8915 0.0000 0.0000 0.0000
# 3 31.8920 31.8915 108.2697 0.0000 0.0000 0.0000
# 4 0.0000 0.0000 0.0000 28.2658 0.0000 0.0000
# 5 0.0000 0.0000 0.0000 0.0000 28.2664 0.0000
# 6 0.0000 0.0000 0.0000 0.0000 0.0000 11.1616
#
#
#
# Elastic Compliance Matrix: (Units=1/GPa)
#
#
# Indices 1 2 3 4 5 6 
#
# 1 0.010517 -0.003690 -0.002011 0.000000 0.000000 0.000000
# 2 -0.003690 0.010517 -0.002011 0.000000 0.000000 0.000000
# 3 -0.002011 -0.002011 0.010421 0.000000 0.000000 0.000000
# 4 0.000000 0.000000 0.000000 0.035378 0.000000 0.000000
# 5 0.000000 0.000000 0.000000 0.000000 0.035378 0.000000
# 6 0.000000 0.000000 0.000000 0.000000 0.000000 0.089593
#
#
# Mechanical properties :
#
#
# Convention : Reuss Voigt Hill
#
# Bulk Modulus (GPa) = 62.37816 62.92885 62.65350
# Shear Modulus (GPa) = 23.52135 29.05168 26.28651
#
# Velocity S-wave (km/s) = 3.57444 3.97249 3.77871
# Velocity P-wave (km/s) = 7.13575 7.43125 7.28500
#
# Compressibility (1/GPa) = 0.01603125
#
# Stress axis : x y z
#
# Youngs Moduli (GPa) = 95.08062 95.08020 95.96087
#
# Poissons Ratio (x) = 0.35087 0.19298
# Poissons Ratio (y) = 0.35087 0.19297
# Poissons Ratio (z) = 0.19121 0.19120
#
# Static dielectric constant tensor:
#      x y z
#    x 3.598020 0.000000 0.000000 
#    y 0.000000 3.598030 0.000000 
#    z 0.000000 0.000000 3.531960 
# 
# 
# High freq. dielectric constant tensor:
#      x y z
#    x 1.697470 0.000000 0.000000 
#    y 0.000000 1.697470 0.000000 
#    z 0.000000 0.000000 1.730460 
# 
# From -- ./inp_files/6286.got.cif
#   From: 2010.03.12/outbox.cif.g09.slc.cpg/sg91_4_cif.got.tgz:6286.got - 2010.04.08 20:27:58.
