data_PCOD8304096
_publ_section_title
;
Structure prediction by ZEFSAII (Michael W. Deem and Ramdas Pophale) SiO2 
 PCOD8304096
Probable space group: I 4/M
;
_chemical_formula_sum "Si O2"
_cell_formula_units_Z 80
_cell_length_a 14.933640
_cell_length_b 14.933640
_cell_length_c 18.391098
_cell_angle_alpha 90.000000
_cell_angle_beta 90.000000
_cell_angle_gamma 90.000000
_cell_volume 4101.465040
_symmetry_space_group_name_H-M "I 4/M"
_symmetry_group_IT_number 87
_symmetry_cell_setting 'tetragonal'
loop_
_space_group_symop_operation_xyz
x,y,z
-y,x,z
-x,-y,z
y,-x,z
-x,-y,-z
y,-x,-z
x,y,-z
-y,x,-z
1/2+x,1/2+y,1/2+z
1/2-y,1/2+x,1/2+z
1/2-x,1/2-y,1/2+z
1/2+y,1/2-x,1/2+z
1/2-x,1/2-y,1/2-z
1/2+y,1/2-x,1/2-z
1/2+x,1/2+y,1/2-z
1/2-y,1/2+x,1/2-z
loop_
_atom_site_type_symbol
_atom_site_label
_atom_site_fract_x
_atom_site_fract_y
_atom_site_fract_z
Si Si1 0.823318 0.552032 0.675439
Si Si2 0.125261 0.342768 0.915100
Si Si3 0.308701 0.296501 0.312910
Si Si4 0.515811 0.818747 0.839102
Si Si5 0.049760 0.139649 0.712875
O O1 0.826848 0.469605 0.621743
O O2 0.731960 0.607949 0.664440
O O3 0.832154 0.528262 0.760032
O O4 0.905775 0.611929 0.649916
O O5 0.192544 0.268872 0.881968
O O6 0.163699 0.441441 0.900134
O O7 0.116706 0.326735 0.000000
O O8 0.250000 0.250000 0.250000
O O9 0.412897 0.311579 0.286335
O O10 0.556239 0.717417 0.848391
O O11 0.946008 0.112980 0.706925
#
# Coordination Sequence:
#
# PCOD8304096 Si02
#       5
#    16  16  16  16  16
#     4  12  22  37  68  95 124 169 220 266 317 404
#     4  12  27  42  61  97 138 168 211 281 343 384
#     4  12  19  40  67  97 125 168 223 265 319 397
#     4  12  21  37  65  93 123 168 220 268 313 391
#     4  11  20  33  61 100 128 160 216 272 310 375
#
# _framework density 19.505224999999999
#
# number of rings (size 3 to 8) (size 9 to 14) (size 15 to 20)
#    0.000    0.200   10.000    0.600    0.000    2.400 
#    0.000    0.000    0.000    0.000    0.000    9.800 
#    0.000    0.000    0.000    0.000    0.000    0.000 
#
# Total GULP energy -495691.036467 kJ/mol
# GULP energy per Si atom -12392.275912 kJ/mol
# Density = 1.946083 g / cm^3
# Si number density = 19.505225 Si / 1000 Ang^3
#
#
#
# Elastic Constant Matrix: (Units=GPa)
#
#
# Indices 1 2 3 4 5 6 
#
# 1 110.0016 26.6260 30.5164 0.0000 0.0000 14.2693
# 2 26.6260 110.0017 30.5164 0.0000 0.0000 -14.2693
# 3 30.5164 30.5164 91.9713 0.0000 0.0000 0.0000
# 4 0.0000 0.0000 0.0000 21.5793 0.0000 0.0000
# 5 0.0000 0.0000 0.0000 0.0000 21.5793 0.0000
# 6 14.2693 -14.2693 0.0000 0.0000 0.0000 46.2019
#
#
#
# Elastic Compliance Matrix: (Units=1/GPa)
#
#
# Indices 1 2 3 4 5 6 
#
# 1 0.011002 -0.002409 -0.002851 0.000000 0.000000 -0.004142
# 2 -0.002409 0.011002 -0.002851 0.000000 0.000000 0.004142
# 3 -0.002851 -0.002851 0.012765 0.000000 0.000000 0.000000
# 4 0.000000 0.000000 0.000000 0.046341 0.000000 0.000000
# 5 0.000000 0.000000 0.000000 0.000000 0.046341 0.000000
# 6 -0.004142 0.004142 0.000000 0.000000 0.000000 0.024203
#
#
# Mechanical properties :
#
#
# Convention : Reuss Voigt Hill
#
# Bulk Modulus (GPa) = 53.91974 54.14356 54.03165
# Shear Modulus (GPa) = 28.72588 32.82648 30.77618
#
# Velocity S-wave (km/s) = 3.84178 4.10684 3.97652
# Velocity P-wave (km/s) = 6.88351 7.09274 6.98891
#
# Compressibility (1/GPa) = 0.01854608
#
# Stress axis : x y z
#
# Youngs Moduli (GPa) = 90.89049 90.89050 78.33933
#
# Poissons Ratio (x) = 0.21900 0.22335
# Poissons Ratio (y) = 0.21900 0.22335
# Poissons Ratio (z) = 0.25914 0.25914
#
# Static dielectric constant tensor:
#      x y z
#    x 4.044710 0.000000 0.000000 
#    y 0.000000 4.044710 0.000000 
#    z 0.000000 0.000000 3.098620 
# 
# 
# High freq. dielectric constant tensor:
#      x y z
#    x 1.786520 0.000000 0.000000 
#    y 0.000000 1.786520 0.000000 
#    z 0.000000 0.000000 1.696620 
# 
# From -- ./inp_files/5079.got.cif
#   From: 2010.03.12/outbox.cif.g09.slc.cpg/sg87_3_cif.got.tgz:5079.got - 2010.04.08 20:16:13.
