data_PCOD8304185
_publ_section_title
;
Structure prediction by ZEFSAII (Michael W. Deem and Ramdas Pophale) SiO2 
 PCOD8304185
Probable space group: I 41/A
;
_chemical_formula_sum "Si O2"
_cell_formula_units_Z 84
_cell_length_a 16.333917
_cell_length_b 16.333917
_cell_length_c 17.308624
_cell_angle_alpha 90.000000
_cell_angle_beta 90.000000
_cell_angle_gamma 90.000000
_cell_volume 4617.886267
_symmetry_space_group_name_H-M "I 41/A"
_symmetry_group_IT_number 88
_space_group.IT_coordinate_system_code '2'
_symmetry_cell_setting 'tetragonal'
loop_
_space_group_symop_operation_xyz
x,y,z
3/4-y,1/4+x,1/4+z
-x,1/2-y,z
1/4+y,1/4-x,1/4+z
-x,-y,-z
1/4+y,3/4-x,3/4-z
x,1/2+y,-z
3/4-y,3/4+x,3/4-z
1/2+x,1/2+y,1/2+z
1/4-y,3/4+x,3/4+z
1/2-x,-y,1/2+z
3/4+y,3/4-x,3/4+z
1/2-x,1/2-y,1/2-z
3/4+y,1/4-x,1/4-z
1/2+x,y,1/2-z
1/4-y,1/4+x,1/4-z
loop_
_atom_site_type_symbol
_atom_site_label
_atom_site_fract_x
_atom_site_fract_y
_atom_site_fract_z
Si Si1 0.999932 0.655657 0.055216
Si Si2 0.750172 0.989649 0.250138
Si Si3 0.863813 0.056835 0.875350
Si Si4 0.500000 0.750000 0.625000
Si Si5 0.136051 0.556921 0.124820
Si Si6 0.825831 0.250004 0.137430
O O1 0.920197 0.635177 0.106801
O O2 0.000000 0.750000 0.030768
O O3 0.079499 0.635146 0.107021
O O4 0.000054 0.601709 0.977787
O O5 0.701302 0.046218 0.190957
O O6 0.799093 0.046182 0.309323
O O7 0.683478 0.932655 0.293868
O O8 0.816836 0.932621 0.206404
O O9 0.918735 0.974939 0.870118
O O10 0.499973 0.840894 0.666101
O O11 0.081366 0.474840 0.129796
#
# Coordination Sequence:
#
# PCOD8304185 Si02
#       6
#    16  16  16   4  16  16
#     4  11  21  36  52  82 114 142 180 222 284 330
#     4  10  18  33  55  72 108 144 184 212 272 324
#     4  10  20  35  52  79 108 145 178 231 265 334
#     4  12  20  24  48  84 112 156 164 186 264 364
#     4  10  20  35  52  79 108 145 178 231 265 334
#     4  11  20  32  49  81 123 137 173 215 278 337
#
# _framework density 18.190141000000001
#
# number of rings (size 3 to 8) (size 9 to 14) (size 15 to 20)
#    0.000    1.524    4.762    3.429    0.000    0.000 
#    3.429    0.952    0.000    0.000    0.000    0.000 
#    0.000    0.000    0.000    0.000    0.000    0.000 
#
# Total GULP energy -520388.038319 kJ/mol
# GULP energy per Si atom -12390.191389 kJ/mol
# Density = 1.814874 g / cm^3
# Si number density = 18.190141 Si / 1000 Ang^3
#
#
#
# Elastic Constant Matrix: (Units=GPa)
#
#
# Indices 1 2 3 4 5 6 
#
# 1 69.9137 22.5432 39.1434 0.0000 0.0000 -0.0548
# 2 22.5432 69.9137 39.1434 0.0000 0.0000 0.0548
# 3 39.1434 39.1434 106.9262 0.0000 0.0000 0.0000
# 4 0.0000 0.0000 0.0000 29.5232 0.0000 0.0000
# 5 0.0000 0.0000 0.0000 0.0000 29.5232 0.0000
# 6 -0.0548 0.0548 0.0000 0.0000 0.0000 18.0463
#
#
#
# Elastic Compliance Matrix: (Units=1/GPa)
#
#
# Indices 1 2 3 4 5 6 
#
# 1 0.018392 -0.002718 -0.005738 0.000000 0.000000 0.000064
# 2 -0.002718 0.018392 -0.005738 0.000000 0.000000 -0.000064
# 3 -0.005738 -0.005738 0.013553 0.000000 0.000000 0.000000
# 4 0.000000 0.000000 0.000000 0.033872 0.000000 0.000000
# 5 0.000000 0.000000 0.000000 0.000000 0.033872 0.000000
# 6 0.000064 -0.000064 0.000000 0.000000 0.000000 0.055413
#
#
# Mechanical properties :
#
#
# Convention : Reuss Voigt Hill
#
# Bulk Modulus (GPa) = 45.55799 49.82373 47.69086
# Shear Modulus (GPa) = 23.90058 25.14678 24.52368
#
# Velocity S-wave (km/s) = 3.62875 3.72215 3.67575
# Velocity P-wave (km/s) = 6.53123 6.77662 6.65505
#
# Compressibility (1/GPa) = 0.02195005
#
# Stress axis : x y z
#
# Youngs Moduli (GPa) = 54.37024 54.37025 73.78208
#
# Poissons Ratio (x) = 0.14777 0.42337
# Poissons Ratio (y) = 0.14777 0.42337
# Poissons Ratio (z) = 0.31198 0.31198
#
# Static dielectric constant tensor:
#      x y z
#    x 3.463230 0.000000 0.000000 
#    y 0.000000 3.463230 0.000000 
#    z 0.000000 0.000000 3.501230 
# 
# 
# High freq. dielectric constant tensor:
#      x y z
#    x 1.694180 0.000000 0.000000 
#    y 0.000000 1.694180 0.000000 
#    z 0.000000 0.000000 1.685780 
# 
# From -- ./inp_files/3898.got.cif
#   From: 2010.03.12/outbox.cif.g09.slc.cpg/sg88_2_cif.got.tgz:3898.got - 2010.04.08 20:20:55.
