data_PCOD8304256
_publ_section_title
;
Structure prediction by ZEFSAII (Michael W. Deem and Ramdas Pophale) SiO2 
 PCOD8304256
Probable space group: I 41/A
;
_chemical_formula_sum "Si O2"
_cell_formula_units_Z 96
_cell_length_a 15.514135
_cell_length_b 15.514135
_cell_length_c 19.719519
_cell_angle_alpha 90.000000
_cell_angle_beta 90.000000
_cell_angle_gamma 90.000000
_cell_volume 4746.259177
_symmetry_space_group_name_H-M "I 41/A"
_symmetry_group_IT_number 88
_space_group.IT_coordinate_system_code '2'
_symmetry_cell_setting 'tetragonal'
loop_
_space_group_symop_operation_xyz
x,y,z
3/4-y,1/4+x,1/4+z
-x,1/2-y,z
1/4+y,1/4-x,1/4+z
-x,-y,-z
1/4+y,3/4-x,3/4-z
x,1/2+y,-z
3/4-y,3/4+x,3/4-z
1/2+x,1/2+y,1/2+z
1/4-y,3/4+x,3/4+z
1/2-x,-y,1/2+z
3/4+y,3/4-x,3/4+z
1/2-x,1/2-y,1/2-z
3/4+y,1/4-x,1/4-z
1/2+x,y,1/2-z
1/4-y,1/4+x,1/4-z
loop_
_atom_site_type_symbol
_atom_site_label
_atom_site_fract_x
_atom_site_fract_y
_atom_site_fract_z
Si Si1 0.500000 0.250000 0.111503
Si Si2 0.125162 0.241452 0.742154
Si Si3 0.177719 0.186449 0.173322
Si Si4 0.175298 0.188033 0.329374
Si Si5 0.351804 0.983097 0.018451
Si Si6 0.000000 0.250000 0.625000
Si Si7 0.000000 0.250000 0.125000
Si Si8 0.224905 0.500993 0.861951
O O1 0.419183 0.272187 0.159518
O O2 0.525736 0.327960 0.062942
O O3 0.143280 0.344890 0.734295
O O4 0.204067 0.177548 0.746095
O O5 0.073347 0.212944 0.674997
O O6 0.196667 0.170915 0.251524
O O7 0.250725 0.248619 0.141031
O O8 0.082917 0.227407 0.169843
O O9 0.184673 0.096483 0.133152
O O10 0.180793 0.094977 0.364287
O O11 0.272977 0.994195 0.965989
O O12 0.311937 0.996563 0.093219
#
# Coordination Sequence:
#
# PCOD8304256 Si02
#       8
#     8  16  16  16  16   4   4  16
#     4  11  21  41  64  93 123 167 212 256 320 384
#     4  10  22  39  63  90 126 160 208 263 310 378
#     4  11  24  41  63  92 127 167 209 267 315 382
#     4  11  23  41  62  90 128 165 208 262 316 373
#     4  11  23  40  63  93 125 166 209 260 317 377
#     4  10  20  40  62  88 120 166 200 258 316 370
#     4  12  22  40  66  92 126 164 220 258 328 378
#     4  12  22  41  65  91 126 169 209 259 320 381
#
# _framework density 20.226455999999999
#
# number of rings (size 3 to 8) (size 9 to 14) (size 15 to 20)
#    0.000    1.000    5.000    2.500    0.000    0.000 
#    0.000    0.000    0.000    0.000    0.000    0.000 
#    0.000    0.000    0.000    0.000    0.000    0.000 
#
# Total GULP energy -595091.602088 kJ/mol
# GULP energy per Si atom -12397.741710 kJ/mol
# Density = 2.018042 g / cm^3
# Si number density = 20.226456 Si / 1000 Ang^3
#
#
#
# Elastic Constant Matrix: (Units=GPa)
#
#
# Indices 1 2 3 4 5 6 
#
# 1 102.6970 32.1410 12.5847 0.0000 0.0000 -0.6715
# 2 32.1410 102.6970 12.5847 0.0000 0.0000 0.6715
# 3 12.5847 12.5847 64.0199 0.0000 0.0000 0.0000
# 4 0.0000 0.0000 0.0000 52.3583 0.0000 0.0000
# 5 0.0000 0.0000 0.0000 0.0000 52.3583 0.0000
# 6 -0.6715 0.6715 0.0000 0.0000 0.0000 30.3227
#
#
#
# Elastic Compliance Matrix: (Units=1/GPa)
#
#
# Indices 1 2 3 4 5 6 
#
# 1 0.010939 -0.003240 -0.001513 0.000000 0.000000 0.000314
# 2 -0.003240 0.010939 -0.001513 0.000000 0.000000 -0.000314
# 3 -0.001513 -0.001513 0.016215 0.000000 0.000000 0.000000
# 4 0.000000 0.000000 0.000000 0.019099 0.000000 0.000000
# 5 0.000000 0.000000 0.000000 0.000000 0.019099 0.000000
# 6 0.000314 -0.000314 0.000000 0.000000 0.000000 0.032993
#
#
# Mechanical properties :
#
#
# Convention : Reuss Voigt Hill
#
# Bulk Modulus (GPa) = 39.12490 42.67052 40.89771
# Shear Modulus (GPa) = 38.36196 41.14811 39.75504
#
# Velocity S-wave (km/s) = 4.35975 4.51529 4.43820
# Velocity P-wave (km/s) = 6.68795 6.95169 6.82109
#
# Compressibility (1/GPa) = 0.02555917
#
# Stress axis : x y z
#
# Youngs Moduli (GPa) = 91.41643 91.41642 61.67081
#
# Poissons Ratio (x) = 0.29620 0.09333
# Poissons Ratio (y) = 0.29620 0.09333
# Poissons Ratio (z) = 0.13835 0.13835
#
# Static dielectric constant tensor:
#      x y z
#    x 3.767800 0.000000 0.000000 
#    y 0.000000 3.767800 0.000000 
#    z 0.000000 0.000000 3.462360 
# 
# 
# High freq. dielectric constant tensor:
#      x y z
#    x 1.794580 0.000000 0.000000 
#    y 0.000000 1.794580 0.000000 
#    z 0.000000 0.000000 1.785330 
# 
# From -- ./inp_files/4791.got.cif
#   From: 2010.03.12/outbox.cif.g09.slc.cpg/sg88_3_cif.got.tgz:4791.got - 2010.04.08 20:20:55.
