data_PCOD8304090
_publ_section_title
;
Structure prediction by ZEFSAII (Michael W. Deem and Ramdas Pophale) SiO2 
 PCOD8304090
Probable space group: I 4/M
;
_chemical_formula_sum "Si O2"
_cell_formula_units_Z 112
_cell_length_a 15.278690
_cell_length_b 15.278690
_cell_length_c 27.984288
_cell_angle_alpha 90.000000
_cell_angle_beta 90.000000
_cell_angle_gamma 90.000000
_cell_volume 6532.606524
_symmetry_space_group_name_H-M "I 4/M"
_symmetry_group_IT_number 87
_symmetry_cell_setting 'tetragonal'
loop_
_space_group_symop_operation_xyz
x,y,z
-y,x,z
-x,-y,z
y,-x,z
-x,-y,-z
y,-x,-z
x,y,-z
-y,x,-z
1/2+x,1/2+y,1/2+z
1/2-y,1/2+x,1/2+z
1/2-x,1/2-y,1/2+z
1/2+y,1/2-x,1/2+z
1/2-x,1/2-y,1/2-z
1/2+y,1/2-x,1/2-z
1/2+x,1/2+y,1/2-z
1/2-y,1/2+x,1/2-z
loop_
_atom_site_type_symbol
_atom_site_label
_atom_site_fract_x
_atom_site_fract_y
_atom_site_fract_z
Si Si1 0.127702 0.366139 0.746014
Si Si2 0.765883 0.617718 0.869616
Si Si3 0.095629 0.489223 0.171416
Si Si4 0.559962 0.375950 0.200791
Si Si5 0.231790 0.865251 0.822875
Si Si6 0.430686 0.624673 0.055479
Si Si7 0.057122 0.794923 0.202700
O O1 0.076764 0.413445 0.789394
O O2 0.072066 0.359928 0.697496
O O3 0.150087 0.269960 0.768437
O O4 0.209296 0.427141 0.734285
O O5 0.837576 0.539634 0.870334
O O6 0.708382 0.605983 0.821925
O O7 0.822020 0.706994 0.863812
O O8 0.704652 0.614409 0.916146
O O9 0.000000 0.500000 0.147633
O O10 0.614781 0.459889 0.182899
O O11 0.554017 0.372639 0.258357
O O12 0.140367 0.814660 0.830740
O O13 0.215651 0.969774 0.829456
O O14 0.382912 0.533449 0.068447
O O15 0.418640 0.645771 0.000000
#
# Coordination Sequence:
#
# PCOD8304090 Si02
#       7
#    16  16  16  16  16  16  16
#     4  11  17  31  43  62  90 134 186 219 255 292
#     4  11  22  34  50  79 103 129 176 219 259 314
#     4  11  18  29  46  66 101 144 179 218 252 294
#     4  11  21  32  47  69  99 136 177 218 262 296
#     4  11  23  32  45  67  95 139 184 223 260 298
#     4   9  19  39  65  88 109 130 153 198 271 340
#     4  12  21  32  45  62  96 143 184 223 256 289
#
# _framework density 17.144765
#
# number of rings (size 3 to 8) (size 9 to 14) (size 15 to 20)
#    0.000    1.143    7.143    2.571    0.000    2.571 
#    0.000    0.000    0.000    0.429    0.000    1.000 
#    0.000    0.000    0.000    1.286    0.000    0.000 
#
# Total GULP energy -693961.220997 kJ/mol
# GULP energy per Si atom -12392.164661 kJ/mol
# Density = 1.710574 g / cm^3
# Si number density = 17.144765 Si / 1000 Ang^3
#
#
#
# Elastic Constant Matrix: (Units=GPa)
#
#
# Indices 1 2 3 4 5 6 
#
# 1 87.1107 30.4097 29.2310 0.0000 0.0000 6.5075
# 2 30.4097 87.1107 29.2310 0.0000 0.0000 -6.5075
# 3 29.2310 29.2310 57.3508 0.0000 0.0000 0.0000
# 4 0.0000 0.0000 0.0000 19.8529 0.0000 0.0000
# 5 0.0000 0.0000 0.0000 0.0000 19.8529 0.0000
# 6 6.5075 -6.5075 0.0000 0.0000 0.0000 25.4101
#
#
#
# Elastic Compliance Matrix: (Units=1/GPa)
#
#
# Indices 1 2 3 4 5 6 
#
# 1 0.015069 -0.003669 -0.005810 0.000000 0.000000 -0.004799
# 2 -0.003669 0.015069 -0.005810 0.000000 0.000000 0.004799
# 3 -0.005810 -0.005810 0.023359 0.000000 0.000000 0.000000
# 4 0.000000 0.000000 0.000000 0.050370 0.000000 0.000000
# 5 0.000000 0.000000 0.000000 0.000000 0.050370 0.000000
# 6 -0.004799 0.004799 0.000000 0.000000 0.000000 0.041812
#
#
# Mechanical properties :
#
#
# Convention : Reuss Voigt Hill
#
# Bulk Modulus (GPa) = 43.63464 45.47951 44.55707
# Shear Modulus (GPa) = 21.34305 22.53654 21.93979
#
# Velocity S-wave (km/s) = 3.53210 3.62952 3.58114
# Velocity P-wave (km/s) = 6.49156 6.64446 6.56845
#
# Compressibility (1/GPa) = 0.02291757
#
# Stress axis : x y z
#
# Youngs Moduli (GPa) = 66.36278 66.36278 42.80946
#
# Poissons Ratio (x) = 0.24350 0.24873
# Poissons Ratio (y) = 0.24350 0.24873
# Poissons Ratio (z) = 0.38558 0.38558
#
# Static dielectric constant tensor:
#      x y z
#    x 3.352560 0.000000 0.000000 
#    y 0.000000 3.352560 0.000000 
#    z 0.000000 0.000000 2.564530 
# 
# 
# High freq. dielectric constant tensor:
#      x y z
#    x 1.673870 0.000000 0.000000 
#    y 0.000000 1.673870 0.000000 
#    z 0.000000 0.000000 1.574400 
# 
# From -- ./inp_files/6718.got.cif
#   From: 2010.03.12/outbox.cif.g09.slc.cpg/sg87_4_cif.got.tgz:6718.got - 2010.04.08 20:16:13.
