data_PCOD8304532
_publ_section_title
;
Structure prediction by ZEFSAII (Michael W. Deem and Ramdas Pophale) SiO2 
 PCOD8304532
Probable space group: P 4 21 2
;
_chemical_formula_sum "Si O2"
_cell_formula_units_Z 48
_cell_length_a 14.971557
_cell_length_b 14.971557
_cell_length_c 11.931254
_cell_angle_alpha 90.000000
_cell_angle_beta 90.000000
_cell_angle_gamma 90.000000
_cell_volume 2674.360983
_symmetry_space_group_name_H-M "P 4 21 2"
_symmetry_group_IT_number 90
_symmetry_cell_setting 'tetragonal'
loop_
_space_group_symop_operation_xyz
x,y,z
1/2-y,1/2+x,z
-x,-y,z
1/2+y,1/2-x,z
1/2+x,1/2-y,-z
1/2-x,1/2+y,-z
y,x,-z
-y,-x,-z
loop_
_atom_site_type_symbol
_atom_site_label
_atom_site_fract_x
_atom_site_fract_y
_atom_site_fract_z
Si Si1 0.275760 0.332110 0.120125
Si Si2 0.936114 0.079108 0.236208
Si Si3 0.339425 0.164663 0.229121
Si Si4 0.503528 0.638665 0.538000
Si Si5 0.885700 0.590012 0.014538
Si Si6 0.254101 0.497004 0.663139
O O1 0.351067 0.408306 0.140130
O O2 0.281042 0.255447 0.215558
O O3 0.290630 0.290630 0.000000
O O4 0.175705 0.370732 0.114307
O O5 0.990322 0.140149 0.327203
O O6 0.849175 0.029798 0.284762
O O7 0.000000 0.000000 0.189283
O O8 0.383280 0.143319 0.110015
O O9 0.276676 0.088393 0.278543
O O10 0.420577 0.180704 0.315624
O O11 0.597485 0.597485 0.500000
O O12 0.421860 0.578141 0.500000
O O13 0.491807 0.733448 0.472476
O O14 0.875608 0.484849 0.030853
#
# Coordination Sequence:
#
# PCOD8304532 Si02
#       6
#     8   8   8   8   8   8
#     4   9  21  35  51  84 117 139 188 242 282 333
#     4  10  18  34  59  78 109 151 182 228 290 343
#     4  10  19  34  53  82 110 138 184 241 281 329
#     4   9  15  32  54  77 102 139 181 217 271 343
#     4  10  19  35  57  76 105 157 191 223 279 351
#     4  10  19  31  55  81 105 140 184 231 280 332
#
# _framework density 17.948212000000002
#
# number of rings (size 3 to 8) (size 9 to 14) (size 15 to 20)
#    0.000    2.333    5.000    0.000    0.000    2.000 
#    0.000    4.167    0.000    0.000    0.000    0.000 
#    0.000    0.000    0.000    0.000    0.000    0.000 
#
# Total GULP energy -594697.229834 kJ/mol
# GULP energy per Si atom -12389.525622 kJ/mol
# Density = 1.790736 g / cm^3
# Si number density = 17.948212 Si / 1000 Ang^3
#
#
#
# Elastic Constant Matrix: (Units=GPa)
#
#
# Indices 1 2 3 4 5 6 
#
# 1 104.5307 51.1815 36.7024 0.0000 0.0000 0.0000
# 2 51.1815 104.5310 36.7033 0.0000 0.0000 0.0000
# 3 36.7024 36.7033 41.5562 0.0000 0.0000 0.0000
# 4 0.0000 0.0000 0.0000 22.3980 0.0000 0.0000
# 5 0.0000 0.0000 0.0000 0.0000 22.3978 0.0000
# 6 0.0000 0.0000 0.0000 0.0000 0.0000 25.1446
#
#
#
# Elastic Compliance Matrix: (Units=1/GPa)
#
#
# Indices 1 2 3 4 5 6 
#
# 1 0.014874 -0.003870 -0.009718 0.000000 0.000000 0.000000
# 2 -0.003870 0.014874 -0.009719 0.000000 0.000000 0.000000
# 3 -0.009718 -0.009719 0.041231 0.000000 0.000000 0.000000
# 4 0.000000 0.000000 0.000000 0.044647 0.000000 0.000000
# 5 0.000000 0.000000 0.000000 0.000000 0.044647 0.000000
# 6 0.000000 0.000000 0.000000 0.000000 0.000000 0.039770
#
#
# Mechanical properties :
#
#
# Convention : Reuss Voigt Hill
#
# Bulk Modulus (GPa) = 41.04423 55.53250 48.28837
# Shear Modulus (GPa) = 19.62488 22.39012 21.00750
#
# Velocity S-wave (km/s) = 3.31027 3.53581 3.42490
# Velocity P-wave (km/s) = 6.12604 6.90484 6.52706
#
# Compressibility (1/GPa) = 0.02436396
#
# Stress axis : x y z
#
# Youngs Moduli (GPa) = 67.23207 67.23093 24.25377
#
# Poissons Ratio (x) = 0.26021 0.23570
# Poissons Ratio (y) = 0.26022 0.23572
# Poissons Ratio (z) = 0.65337 0.65340
#
# Static dielectric constant tensor:
#      x y z
#    x 3.454880 0.000000 0.000000 
#    y 0.000000 3.454880 0.000000 
#    z 0.000000 0.000000 3.401770 
# 
# 
# High freq. dielectric constant tensor:
#      x y z
#    x 1.687500 0.000000 0.000000 
#    y 0.000000 1.687500 0.000000 
#    z 0.000000 0.000000 1.672790 
# 
# From -- ./inp_files/2146.got.cif
#   From: 2010.03.12/outbox.cif.g09.slc.cpg/sg90_2_cif.got.tgz:2146.got - 2010.04.08 20:26:03.
