data_PCOD8304057
_publ_section_title
;
Structure prediction by ZEFSAII (Michael W. Deem and Ramdas Pophale) SiO2 
 PCOD8304057
Probable space group: I 4/M
;
_chemical_formula_sum "Si O2"
_cell_formula_units_Z 88
_cell_length_a 11.503077
_cell_length_b 11.503077
_cell_length_c 31.743274
_cell_angle_alpha 90.000000
_cell_angle_beta 90.000000
_cell_angle_gamma 90.000000
_cell_volume 4200.294790
_symmetry_space_group_name_H-M "I 4/M"
_symmetry_group_IT_number 87
_symmetry_cell_setting 'tetragonal'
loop_
_space_group_symop_operation_xyz
x,y,z
-y,x,z
-x,-y,z
y,-x,z
-x,-y,-z
y,-x,-z
x,y,-z
-y,x,-z
1/2+x,1/2+y,1/2+z
1/2-y,1/2+x,1/2+z
1/2-x,1/2-y,1/2+z
1/2+y,1/2-x,1/2+z
1/2-x,1/2-y,1/2-z
1/2+y,1/2-x,1/2-z
1/2+x,1/2+y,1/2-z
1/2-y,1/2+x,1/2-z
loop_
_atom_site_type_symbol
_atom_site_label
_atom_site_fract_x
_atom_site_fract_y
_atom_site_fract_z
Si Si1 0.968553 0.191206 0.500000
Si Si2 0.844320 0.406934 0.262251
Si Si3 0.165079 0.702766 0.126787
Si Si4 0.127418 0.504148 0.929597
Si Si5 0.332457 0.593036 0.806137
Si Si6 0.678885 0.097070 0.142334
O O1 0.952604 0.272542 0.459219
O O2 0.095112 0.131784 0.500000
O O3 0.853843 0.546725 0.262742
O O4 0.726512 0.369741 0.238170
O O5 0.842188 0.357651 0.309941
O O6 0.158532 0.637664 0.081628
O O7 0.251683 0.628929 0.155440
O O8 0.215232 0.832366 0.121009
O O9 0.036952 0.713558 0.145951
O O10 0.118271 0.435650 0.885348
O O11 0.000000 0.500000 0.951931
O O12 0.344094 0.454904 0.809097
#
# Coordination Sequence:
#
# PCOD8304057 Si02
#       6
#     8  16  16  16  16  16
#     4  11  23  40  68 102 129 155 188 244 310 371
#     4  11  22  36  59  82 114 158 215 262 310 369
#     4  11  22  41  60  87 122 165 211 259 312 372
#     4  10  22  41  65  92 125 162 203 243 299 373
#     4  11  24  39  57  85 120 162 213 272 325 365
#     4  11  24  38  62  88 120 165 210 259 313 366
#
# _framework density 20.950908999999999
#
# number of rings (size 3 to 8) (size 9 to 14) (size 15 to 20)
#    0.000    1.182    1.818    4.636    7.636    1.818 
#    0.000    1.818    0.000    0.000    0.000    0.000 
#    0.000   13.091    0.000    0.000    0.000    0.000 
#
# Total GULP energy -545676.761342 kJ/mol
# GULP energy per Si atom -12401.744576 kJ/mol
# Density = 2.090322 g / cm^3
# Si number density = 20.950909 Si / 1000 Ang^3
#
#
#
# Elastic Constant Matrix: (Units=GPa)
#
#
# Indices 1 2 3 4 5 6 
#
# 1 89.4938 16.2198 23.8095 0.0000 0.0000 1.2107
# 2 16.2198 89.4938 23.8095 0.0000 0.0000 -1.2107
# 3 23.8095 23.8095 75.1027 0.0000 0.0000 0.0000
# 4 0.0000 0.0000 0.0000 25.6733 0.0000 0.0000
# 5 0.0000 0.0000 0.0000 0.0000 25.6733 0.0000
# 6 1.2107 -1.2107 0.0000 0.0000 0.0000 30.6358
#
#
#
# Elastic Compliance Matrix: (Units=1/GPa)
#
#
# Indices 1 2 3 4 5 6 
#
# 1 0.012350 -0.001315 -0.003499 0.000000 0.000000 -0.000540
# 2 -0.001315 0.012350 -0.003499 0.000000 0.000000 0.000540
# 3 -0.003499 -0.003499 0.015533 0.000000 0.000000 0.000000
# 4 0.000000 0.000000 0.000000 0.038951 0.000000 0.000000
# 5 0.000000 0.000000 0.000000 0.000000 0.038951 0.000000
# 6 -0.000540 0.000540 0.000000 0.000000 0.000000 0.032684
#
#
# Mechanical properties :
#
#
# Convention : Reuss Voigt Hill
#
# Bulk Modulus (GPa) = 42.35469 42.41867 42.38668
# Shear Modulus (GPa) = 28.52021 29.07990 28.80005
#
# Velocity S-wave (km/s) = 3.69357 3.72963 3.71164
# Velocity P-wave (km/s) = 6.20080 6.23198 6.21641
#
# Compressibility (1/GPa) = 0.02361014
#
# Stress axis : x y z
#
# Youngs Moduli (GPa) = 80.96935 80.96935 64.37755
#
# Poissons Ratio (x) = 0.10647 0.22523
# Poissons Ratio (y) = 0.10647 0.22523
# Poissons Ratio (z) = 0.28327 0.28327
#
# Static dielectric constant tensor:
#      x y z
#    x 3.988920 0.000000 0.000000 
#    y 0.000000 3.988920 0.000000 
#    z 0.000000 0.000000 3.486990 
# 
# 
# High freq. dielectric constant tensor:
#      x y z
#    x 1.832720 0.000000 0.000000 
#    y 0.000000 1.832720 0.000000 
#    z 0.000000 0.000000 1.794660 
# 
# From -- ./inp_files/6557.got.cif
#   From: 2010.03.12/outbox.cif.g09.slc.cpg/sg87_4_cif.got.tgz:6557.got - 2010.04.08 20:16:13.
