data_PCOD8304346
_publ_section_title
;
Structure prediction by ZEFSAII (Michael W. Deem and Ramdas Pophale) SiO2 
 PCOD8304346
Probable space group: I 41/A
;
_chemical_formula_sum "Si O2"
_cell_formula_units_Z 92
_cell_length_a 13.984702
_cell_length_b 13.984702
_cell_length_c 23.605567
_cell_angle_alpha 90.000000
_cell_angle_beta 90.000000
_cell_angle_gamma 90.000000
_cell_volume 4616.585353
_symmetry_space_group_name_H-M "I 41/A"
_symmetry_group_IT_number 88
_space_group.IT_coordinate_system_code '2'
_symmetry_cell_setting 'tetragonal'
loop_
_space_group_symop_operation_xyz
x,y,z
3/4-y,1/4+x,1/4+z
-x,1/2-y,z
1/4+y,1/4-x,1/4+z
-x,-y,-z
1/4+y,3/4-x,3/4-z
x,1/2+y,-z
3/4-y,3/4+x,3/4-z
1/2+x,1/2+y,1/2+z
1/4-y,3/4+x,3/4+z
1/2-x,-y,1/2+z
3/4+y,3/4-x,3/4+z
1/2-x,1/2-y,1/2-z
3/4+y,1/4-x,1/4-z
1/2+x,y,1/2-z
1/4-y,1/4+x,1/4-z
loop_
_atom_site_type_symbol
_atom_site_label
_atom_site_fract_x
_atom_site_fract_y
_atom_site_fract_z
Si Si1 0.095342 0.137472 0.603889
Si Si2 0.731858 0.468644 0.650320
Si Si3 0.561353 0.089123 0.019023
Si Si4 0.500000 0.750000 0.625000
Si Si5 0.500000 0.250000 0.648062
Si Si6 0.171055 0.687476 0.678003
Si Si7 0.836260 0.832270 0.806913
O O1 0.135023 0.237869 0.626532
O O2 0.160379 0.052339 0.629057
O O3 0.095888 0.147068 0.536051
O O4 0.702363 0.406133 0.703627
O O5 0.664840 0.442606 0.598156
O O6 0.722711 0.576978 0.670862
O O7 0.500471 0.156367 0.061634
O O8 0.500000 0.000000 0.000000
O O9 0.427076 0.687577 0.587913
O O10 0.498168 0.156577 0.607956
O O11 0.135125 0.665128 0.741059
O O12 0.270940 0.741993 0.679365
#
# Coordination Sequence:
#
# PCOD8304346 Si02
#       7
#    16  16  16   4   8  16  16
#     4  11  23  41  66  96 135 176 220 269 333 406
#     4  11  23  41  66  96 134 169 222 277 332 402
#     4  11  23  41  63  97 132 175 217 269 332 406
#     4  12  22  44  72  92 128 174 220 284 322 396
#     4  10  23  42  65  91 134 165 216 270 340 384
#     4  10  23  42  62  94 130 168 214 277 325 401
#     4  11  23  42  66  97 127 171 224 271 338 390
#
# _framework density 19.928151
#
# number of rings (size 3 to 8) (size 9 to 14) (size 15 to 20)
#    0.000    1.217    3.478    2.609    2.435    0.000 
#    0.000    3.478    0.000    0.000    0.000    0.000 
#    0.000    0.000    0.000    0.000    0.000    0.000 
#
# Total GULP energy -570499.166118 kJ/mol
# GULP energy per Si atom -12402.155785 kJ/mol
# Density = 1.988279 g / cm^3
# Si number density = 19.928151 Si / 1000 Ang^3
#
#
#
# Elastic Constant Matrix: (Units=GPa)
#
#
# Indices 1 2 3 4 5 6 
#
# 1 84.8779 35.0229 45.0215 0.0000 0.0000 0.0863
# 2 35.0229 84.8779 45.0215 0.0000 0.0000 -0.0863
# 3 45.0215 45.0215 151.3227 0.0000 0.0000 0.0000
# 4 0.0000 0.0000 0.0000 31.1159 0.0000 0.0000
# 5 0.0000 0.0000 0.0000 0.0000 31.1159 0.0000
# 6 0.0863 -0.0863 0.0000 0.0000 0.0000 34.9180
#
#
#
# Elastic Compliance Matrix: (Units=1/GPa)
#
#
# Indices 1 2 3 4 5 6 
#
# 1 0.015399 -0.004659 -0.003195 0.000000 0.000000 -0.000050
# 2 -0.004659 0.015399 -0.003195 0.000000 0.000000 0.000050
# 3 -0.003195 -0.003195 0.008510 0.000000 0.000000 0.000000
# 4 0.000000 0.000000 0.000000 0.032138 0.000000 0.000000
# 5 0.000000 0.000000 0.000000 0.000000 0.032138 0.000000
# 6 -0.000050 0.000050 0.000000 0.000000 0.000000 0.028639
#
#
# Mechanical properties :
#
#
# Convention : Reuss Voigt Hill
#
# Bulk Modulus (GPa) = 58.11196 63.46779 60.78987
# Shear Modulus (GPa) = 31.23861 32.49747 31.86804
#
# Velocity S-wave (km/s) = 3.96354 4.04261 4.00327
# Velocity P-wave (km/s) = 7.08310 7.32856 7.20687
#
# Compressibility (1/GPa) = 0.01720816
#
# Stress axis : x y z
#
# Youngs Moduli (GPa) = 64.93884 64.93884 117.51250
#
# Poissons Ratio (x) = 0.30257 0.37549
# Poissons Ratio (y) = 0.30257 0.37549
# Poissons Ratio (z) = 0.20750 0.20750
#
# Static dielectric constant tensor:
#      x y z
#    x 3.485880 0.000000 0.000000 
#    y 0.000000 3.485880 0.000000 
#    z 0.000000 0.000000 3.584380 
# 
# 
# High freq. dielectric constant tensor:
#      x y z
#    x 1.776870 0.000000 0.000000 
#    y 0.000000 1.776870 0.000000 
#    z 0.000000 0.000000 1.798220 
# 
# From -- ./inp_files/4766.got.cif
#   From: 2010.03.12/outbox.cif.g09.slc.cpg/sg88_3_cif.got.tgz:4766.got - 2010.04.08 20:20:55.
