data_PCOD8304772
_publ_section_title
;
Structure prediction by ZEFSAII (Michael W. Deem and Ramdas Pophale) SiO2 
 PCOD8304772
Probable space group: P 41 2 2
;
_chemical_formula_sum "Si O2"
_cell_formula_units_Z 48
_cell_length_a 22.595308
_cell_length_b 22.595308
_cell_length_c 5.035702
_cell_angle_alpha 90.000000
_cell_angle_beta 90.000000
_cell_angle_gamma 90.000000
_cell_volume 2570.967301
_symmetry_space_group_name_H-M "P 41 2 2"
_symmetry_group_IT_number 91
_symmetry_cell_setting 'tetragonal'
loop_
_space_group_symop_operation_xyz
x,y,z
-y,x,1/4+z
-x,-y,1/2+z
y,-x,3/4+z
x,-y,1/2-z
-x,y,-z
y,x,3/4-z
-y,-x,1/4-z
loop_
_atom_site_type_symbol
_atom_site_label
_atom_site_fract_x
_atom_site_fract_y
_atom_site_fract_z
Si Si1 0.564114 0.271162 0.531265
Si Si2 0.361124 0.269549 0.981343
Si Si3 0.039675 0.260823 0.740426
Si Si4 0.435831 0.864421 0.053866
Si Si5 0.130134 0.961659 0.499951
Si Si6 0.133778 0.639960 0.717888
O O1 0.500000 0.303390 0.500000
O O2 0.609505 0.298338 0.751410
O O3 0.553173 0.204071 0.625161
O O4 0.589313 0.274212 0.239302
O O5 0.342106 0.201663 0.030009
O O6 0.303922 0.303922 0.875000
O O7 0.063316 0.194381 0.662866
O O8 0.097843 0.299507 0.780963
O O9 0.000000 0.285564 0.500000
O O10 0.000000 0.263538 0.000000
O O11 0.391508 0.873581 0.812389
O O12 0.500000 0.894422 0.000000
O O13 0.404901 0.892691 0.311972
O O14 0.086864 0.913137 0.625000
O O15 0.102669 0.000000 0.250000
O O16 0.146180 0.000000 0.750000
#
# Coordination Sequence:
#
# PCOD8304772 Si02
#       6
#     8   8   8   8   8   8
#     4   9  17  30  47  68  99 138 170 197 244 306
#     4  10  19  30  47  76 107 128 159 211 258 300
#     4  10  21  37  55  74 100 137 177 209 241 300
#     4   9  17  30  50  74  97 127 171 214 252 301
#     4  10  21  37  57  81 106 132 165 207 254 304
#     4  10  19  32  52  73  98 136 169 204 261 307
#
# _framework density 18.670016
#
# number of rings (size 3 to 8) (size 9 to 14) (size 15 to 20)
#    0.000    2.333    0.000    3.000    0.000    5.333 
#    0.000    0.000    0.000   22.000    0.000    0.000 
#    0.000   18.667    0.000    0.000    0.000    0.000 
#
# Total GULP energy -594766.717960 kJ/mol
# GULP energy per Si atom -12390.973291 kJ/mol
# Density = 1.862752 g / cm^3
# Si number density = 18.670016 Si / 1000 Ang^3
#
#
#
# Elastic Constant Matrix: (Units=GPa)
#
#
# Indices 1 2 3 4 5 6 
#
# 1 85.6716 59.0078 25.1981 0.0000 0.0000 0.0000
# 2 59.0078 85.6717 25.1988 0.0000 0.0000 0.0000
# 3 25.1981 25.1988 107.3717 0.0000 0.0000 0.0000
# 4 0.0000 0.0000 0.0000 25.5582 0.0000 0.0000
# 5 0.0000 0.0000 0.0000 0.0000 25.5578 0.0000
# 6 0.0000 0.0000 0.0000 0.0000 0.0000 8.3055
#
#
#
# Elastic Compliance Matrix: (Units=1/GPa)
#
#
# Indices 1 2 3 4 5 6 
#
# 1 0.022516 -0.014988 -0.001766 0.000000 0.000000 0.000000
# 2 -0.014988 0.022516 -0.001767 0.000000 0.000000 0.000000
# 3 -0.001766 -0.001767 0.010143 0.000000 0.000000 0.000000
# 4 0.000000 0.000000 0.000000 0.039126 0.000000 0.000000
# 5 0.000000 0.000000 0.000000 0.000000 0.039127 0.000000
# 6 0.000000 0.000000 0.000000 0.000000 0.000000 0.120402
#
#
# Mechanical properties :
#
#
# Convention : Reuss Voigt Hill
#
# Bulk Modulus (GPa) = 55.15450 55.28049 55.21750
# Shear Modulus (GPa) = 16.83978 23.17165 20.00571
#
# Velocity S-wave (km/s) = 3.00654 3.52677 3.27699
# Velocity P-wave (km/s) = 6.45432 6.80130 6.63008
#
# Compressibility (1/GPa) = 0.01813089
#
# Stress axis : x y z
#
# Youngs Moduli (GPa) = 44.41376 44.41365 98.59418
#
# Poissons Ratio (x) = 0.66569 0.17416
# Poissons Ratio (y) = 0.66569 0.17418
# Poissons Ratio (z) = 0.07845 0.07846
#
# Static dielectric constant tensor:
#      x y z
#    x 3.274360 0.000000 0.000000 
#    y 0.000000 3.274420 0.000000 
#    z 0.000000 0.000000 3.681310 
# 
# 
# High freq. dielectric constant tensor:
#      x y z
#    x 1.700570 0.000000 0.000000 
#    y 0.000000 1.700570 0.000000 
#    z 0.000000 0.000000 1.750430 
# 
# From -- ./inp_files/18843.got.cif
#   From: 2010.03.12/outbox.cif.g09.slc.cpg/sg91_10_cif.got.tgz:18843.got - 2010.04.08 20:27:58.
