data_PCOD8304225
_publ_section_title
;
Structure prediction by ZEFSAII (Michael W. Deem and Ramdas Pophale) SiO2 
 PCOD8304225
Probable space group: I 41/A
;
_chemical_formula_sum "Si O2"
_cell_formula_units_Z 112
_cell_length_a 23.213610
_cell_length_b 23.213610
_cell_length_c 11.736559
_cell_angle_alpha 90.000000
_cell_angle_beta 90.000000
_cell_angle_gamma 90.000000
_cell_volume 6324.499374
_symmetry_space_group_name_H-M "I 41/A"
_symmetry_group_IT_number 88
_space_group.IT_coordinate_system_code '2'
_symmetry_cell_setting 'tetragonal'
loop_
_space_group_symop_operation_xyz
x,y,z
3/4-y,1/4+x,1/4+z
-x,1/2-y,z
1/4+y,1/4-x,1/4+z
-x,-y,-z
1/4+y,3/4-x,3/4-z
x,1/2+y,-z
3/4-y,3/4+x,3/4-z
1/2+x,1/2+y,1/2+z
1/4-y,3/4+x,3/4+z
1/2-x,-y,1/2+z
3/4+y,3/4-x,3/4+z
1/2-x,1/2-y,1/2-z
3/4+y,1/4-x,1/4-z
1/2+x,y,1/2-z
1/4-y,1/4+x,1/4-z
loop_
_atom_site_type_symbol
_atom_site_label
_atom_site_fract_x
_atom_site_fract_y
_atom_site_fract_z
Si Si1 0.050634 0.524301 0.138119
Si Si2 0.261539 0.902560 0.927353
Si Si3 0.256428 0.120810 0.917451
Si Si4 0.166815 0.486226 0.572771
Si Si5 0.342501 0.114847 0.269600
Si Si6 0.822505 0.309537 0.291235
Si Si7 0.554479 0.825242 0.610336
O O1 0.068177 0.519691 0.271307
O O2 0.988343 0.553544 0.132676
O O3 0.095678 0.564138 0.074403
O O4 0.050459 0.461682 0.077946
O O5 0.279028 0.969660 0.923321
O O6 0.197523 0.890463 0.881483
O O7 0.309003 0.870112 0.850524
O O8 0.262160 0.881477 0.058834
O O9 0.251715 0.126962 0.780332
O O10 0.307103 0.076648 0.948916
O O11 0.197791 0.097286 0.968610
O O12 0.403507 0.142756 0.301673
O O13 0.890137 0.305243 0.260051
O O14 0.575486 0.760027 0.587338
#
# Coordination Sequence:
#
# PCOD8304225 Si02
#       7
#    16  16  16  16  16  16  16
#     4  10  20  32  52  81 103 144 177 220 269 328
#     4  10  21  33  52  78 114 147 178 216 271 328
#     4  11  19  31  53  78 114 143 180 219 269 324
#     4  10  21  33  49  85 115 148 181 217 263 329
#     4  11  19  32  54  78 108 142 176 218 276 326
#     4  10  20  36  53  76 109 138 178 225 276 327
#     4  11  22  35  53  80 110 138 179 234 286 325
#
# _framework density 17.708912000000002
#
# number of rings (size 3 to 8) (size 9 to 14) (size 15 to 20)
#    0.000    1.571    4.286    2.571    2.000    0.000 
#    0.000    0.714    0.000    1.714    0.000    0.000 
#    0.000    0.000    0.000    0.000    0.000    0.000 
#
# Total GULP energy -694278.040611 kJ/mol
# GULP energy per Si atom -12397.822154 kJ/mol
# Density = 1.766861 g / cm^3
# Si number density = 17.708912 Si / 1000 Ang^3
#
#
#
# Elastic Constant Matrix: (Units=GPa)
#
#
# Indices 1 2 3 4 5 6 
#
# 1 65.5161 16.4175 29.9381 0.0000 0.0000 2.8482
# 2 16.4175 65.5161 29.9381 0.0000 0.0000 -2.8482
# 3 29.9381 29.9381 89.9685 0.0000 0.0000 0.0000
# 4 0.0000 0.0000 0.0000 15.3067 0.0000 0.0000
# 5 0.0000 0.0000 0.0000 0.0000 15.3067 0.0000
# 6 2.8482 -2.8482 0.0000 0.0000 0.0000 15.9261
#
#
#
# Elastic Compliance Matrix: (Units=1/GPa)
#
#
# Indices 1 2 3 4 5 6 
#
# 1 0.018463 -0.002336 -0.005366 0.000000 0.000000 -0.003720
# 2 -0.002336 0.018463 -0.005366 0.000000 0.000000 0.003720
# 3 -0.005366 -0.005366 0.014686 0.000000 0.000000 0.000000
# 4 0.000000 0.000000 0.000000 0.065331 0.000000 0.000000
# 5 0.000000 0.000000 0.000000 0.000000 0.065331 0.000000
# 6 -0.003720 0.003720 0.000000 0.000000 0.000000 0.064120
#
#
# Mechanical properties :
#
#
# Convention : Reuss Voigt Hill
#
# Bulk Modulus (GPa) = 39.25510 41.50981 40.38246
# Shear Modulus (GPa) = 17.79215 18.95504 18.37360
#
# Velocity S-wave (km/s) = 3.17314 3.27520 3.22457
# Velocity P-wave (km/s) = 5.96993 6.14764 6.05944
#
# Compressibility (1/GPa) = 0.02547439
#
# Stress axis : x y z
#
# Youngs Moduli (GPa) = 54.16317 54.16317 68.09002
#
# Poissons Ratio (x) = 0.12653 0.36540
# Poissons Ratio (y) = 0.12653 0.36540
# Poissons Ratio (z) = 0.29066 0.29066
#
# Static dielectric constant tensor:
#      x y z
#    x 3.280420 0.000000 0.000000 
#    y 0.000000 3.280420 0.000000 
#    z 0.000000 0.000000 3.374010 
# 
# 
# High freq. dielectric constant tensor:
#      x y z
#    x 1.676440 0.000000 0.000000 
#    y 0.000000 1.676440 0.000000 
#    z 0.000000 0.000000 1.672240 
# 
# From -- ./inp_files/2725.got.cif
#   From: 2010.03.12/outbox.cif.g09.slc.cpg/sg88_2_cif.got.tgz:2725.got - 2010.04.08 20:20:55.
