data_PCOD8304106
_publ_section_title
;
Structure prediction by ZEFSAII (Michael W. Deem and Ramdas Pophale) SiO2 
 PCOD8304106
Probable space group: I 4/M
;
_chemical_formula_sum "Si O2"
_cell_formula_units_Z 112
_cell_length_a 13.968162
_cell_length_b 13.968162
_cell_length_c 32.510588
_cell_angle_alpha 90.000000
_cell_angle_beta 90.000000
_cell_angle_gamma 90.000000
_cell_volume 6343.126184
_symmetry_space_group_name_H-M "I 4/M"
_symmetry_group_IT_number 87
_symmetry_cell_setting 'tetragonal'
loop_
_space_group_symop_operation_xyz
x,y,z
-y,x,z
-x,-y,z
y,-x,z
-x,-y,-z
y,-x,-z
x,y,-z
-y,x,-z
1/2+x,1/2+y,1/2+z
1/2-y,1/2+x,1/2+z
1/2-x,1/2-y,1/2+z
1/2+y,1/2-x,1/2+z
1/2-x,1/2-y,1/2-z
1/2+y,1/2-x,1/2-z
1/2+x,1/2+y,1/2-z
1/2-y,1/2+x,1/2-z
loop_
_atom_site_type_symbol
_atom_site_label
_atom_site_fract_x
_atom_site_fract_y
_atom_site_fract_z
Si Si1 0.446375 0.150053 0.838750
Si Si2 0.148247 0.553066 0.250000
Si Si3 0.889872 0.245083 0.452631
Si Si4 0.389872 0.745083 0.547369
Si Si5 0.400526 0.243343 0.578892
Si Si6 0.756657 0.400526 0.078892
Si Si7 0.150053 0.553624 0.661250
O O1 0.427893 0.201077 0.793803
O O2 0.419929 0.228063 0.872823
O O3 0.556838 0.120109 0.843779
O O4 0.379888 0.056840 0.843779
O O5 0.119300 0.443609 0.250000
O O6 0.201077 0.572108 0.293803
O O7 0.866132 0.224428 0.500000
O O8 0.849922 0.349259 0.440230
O O9 0.837383 0.164567 0.425401
O O10 0.002221 0.240359 0.445663
O O11 0.366133 0.724429 0.500000
O O12 0.502222 0.740359 0.554337
O O13 0.337383 0.664567 0.574599
O O14 0.349922 0.849259 0.559771
O O15 0.419927 0.228062 0.627177
#
# Coordination Sequence:
#
# PCOD8304106 Si02
#       7
#    16  16  16  16  16  16  16
#     4   9  15  28  50  80 107 136 173 213 268 312
#     4   7  12  22  44  75 109 134 162 211 260 319
#     4  11  23  38  54  76 104 141 180 225 271 310
#     4  11  23  38  54  76 104 141 180 225 271 310
#     4  11  21  36  55  77 107 139 178 220 260 319
#     4  11  21  36  55  77 107 139 178 220 260 319
#     4   9  15  28  50  80 107 136 173 213 268 312
#
# _framework density 17.656908999999999
#
# number of rings (size 3 to 8) (size 9 to 14) (size 15 to 20)
#    0.000    2.143    2.857    5.143    0.000    1.143 
#    0.000    2.857    0.000    5.143    0.000    0.000 
#    0.000    2.286    0.000    0.000    0.000    0.000 
#
# Total GULP energy -694027.623079 kJ/mol
# GULP energy per Si atom -12393.350412 kJ/mol
# Density = 1.761672 g / cm^3
# Si number density = 17.656909 Si / 1000 Ang^3
#
#
#
# Elastic Constant Matrix: (Units=GPa)
#
#
# Indices 1 2 3 4 5 6 
#
# 1 72.8568 21.9948 24.8558 0.0000 0.0000 1.6133
# 2 21.9948 72.8568 24.8558 0.0000 0.0000 -1.6133
# 3 24.8558 24.8558 158.1465 0.0000 0.0000 0.0000
# 4 0.0000 0.0000 0.0000 23.1643 0.0000 0.0000
# 5 0.0000 0.0000 0.0000 0.0000 23.1643 0.0000
# 6 1.6133 -1.6133 0.0000 0.0000 0.0000 5.6876
#
#
#
# Elastic Compliance Matrix: (Units=1/GPa)
#
#
# Indices 1 2 3 4 5 6 
#
# 1 0.015755 -0.004266 -0.001806 0.000000 0.000000 -0.005679
# 2 -0.004266 0.015755 -0.001806 0.000000 0.000000 0.005679
# 3 -0.001806 -0.001806 0.006891 0.000000 0.000000 0.000000
# 4 0.000000 0.000000 0.000000 0.043170 0.000000 0.000000
# 5 0.000000 0.000000 0.000000 0.000000 0.043170 0.000000
# 6 -0.005679 0.005679 0.000000 0.000000 0.000000 0.179043
#
#
# Mechanical properties :
#
#
# Convention : Reuss Voigt Hill
#
# Bulk Modulus (GPa) = 44.15745 49.69698 46.92722
# Shear Modulus (GPa) = 15.28641 25.88014 20.58327
#
# Velocity S-wave (km/s) = 2.94555 3.83263 3.41799
# Velocity P-wave (km/s) = 6.05237 6.91321 6.49706
#
# Compressibility (1/GPa) = 0.02264623
#
# Stress axis : x y z
#
# Youngs Moduli (GPa) = 63.47090 63.47090 145.11958
#
# Poissons Ratio (x) = 0.27077 0.26205
# Poissons Ratio (y) = 0.27077 0.26205
# Poissons Ratio (z) = 0.11461 0.11461
#
# Static dielectric constant tensor:
#      x y z
#    x 2.987080 0.000000 0.000000 
#    y 0.000000 2.987080 0.000000 
#    z 0.000000 0.000000 3.767110 
# 
# 
# High freq. dielectric constant tensor:
#      x y z
#    x 1.652830 0.000000 0.000000 
#    y 0.000000 1.652830 0.000000 
#    z 0.000000 0.000000 1.707580 
# 
# From -- ./inp_files/6708.got.cif
#   From: 2010.03.12/outbox.cif.g09.slc.cpg/sg87_4_cif.got.tgz:6708.got - 2010.04.08 20:16:13.
