data_PCOD8304621
_publ_section_title
;
Structure prediction by ZEFSAII (Michael W. Deem and Ramdas Pophale) SiO2 
 PCOD8304621
Probable space group: P 4 21 2
;
_chemical_formula_sum "Si O2"
_cell_formula_units_Z 40
_cell_length_a 13.372364
_cell_length_b 13.372364
_cell_length_c 10.023102
_cell_angle_alpha 90.000000
_cell_angle_beta 90.000000
_cell_angle_gamma 90.000000
_cell_volume 1792.332292
_symmetry_space_group_name_H-M "P 4 21 2"
_symmetry_group_IT_number 90
_symmetry_cell_setting 'tetragonal'
loop_
_space_group_symop_operation_xyz
x,y,z
1/2-y,1/2+x,z
-x,-y,z
1/2+y,1/2-x,z
1/2+x,1/2-y,-z
1/2-x,1/2+y,-z
y,x,-z
-y,-x,-z
loop_
_atom_site_type_symbol
_atom_site_label
_atom_site_fract_x
_atom_site_fract_y
_atom_site_fract_z
Si Si1 0.637915 0.736282 0.617790
Si Si2 0.098098 0.369777 0.030210
Si Si3 0.441254 0.603981 0.145731
Si Si4 0.087588 0.255484 0.302151
Si Si5 0.129972 0.781903 0.875013
O O1 0.655648 0.655648 0.500000
O O2 0.522043 0.764004 0.634891
O O3 0.702544 0.836520 0.585128
O O4 0.681292 0.694459 0.753811
O O5 0.139258 0.481935 0.006353
O O6 0.172314 0.324260 0.917283
O O7 0.113379 0.329531 0.178585
O O8 0.500000 0.500000 0.165649
O O9 0.358159 0.608937 0.260659
O O10 0.512483 0.701855 0.161335
O O11 0.389939 0.610062 0.000000
O O12 0.143468 0.856533 0.000000
#
# Coordination Sequence:
#
# PCOD8304621 Si02
#       5
#     8   8   8   8   8
#     4  12  29  48  72 107 145 200 255 312 376 459
#     4  11  23  39  69 107 142 188 240 297 368 448
#     4  11  21  37  67 108 144 180 231 312 373 425
#     4  12  24  47  74 101 146 198 246 303 381 450
#     4  12  22  42  68 106 146 182 246 307 371 444
#
# _framework density 22.317291000000001
#
# number of rings (size 3 to 8) (size 9 to 14) (size 15 to 20)
#    0.000    0.400    8.000    1.200    5.600    2.000 
#    0.000    1.000    0.000    0.000    0.000    0.000 
#    0.000    0.000    0.000    0.000    0.000    0.000 
#
# Total GULP energy -495603.357502 kJ/mol
# GULP energy per Si atom -12390.083938 kJ/mol
# Density = 2.226650 g / cm^3
# Si number density = 22.317291 Si / 1000 Ang^3
#
#
#
# Elastic Constant Matrix: (Units=GPa)
#
#
# Indices 1 2 3 4 5 6 
#
# 1 128.8012 30.3112 40.8002 0.0000 0.0000 0.0000
# 2 30.3112 128.8015 40.8005 0.0000 0.0000 0.0000
# 3 40.8002 40.8005 71.8963 0.0000 0.0000 0.0000
# 4 0.0000 0.0000 0.0000 22.3361 0.0000 0.0000
# 5 0.0000 0.0000 0.0000 0.0000 22.3361 0.0000
# 6 0.0000 0.0000 0.0000 0.0000 0.0000 37.1263
#
#
#
# Elastic Compliance Matrix: (Units=1/GPa)
#
#
# Indices 1 2 3 4 5 6 
#
# 1 0.009509 -0.000644 -0.005031 0.000000 0.000000 0.000000
# 2 -0.000644 0.009509 -0.005031 0.000000 0.000000 0.000000
# 3 -0.005031 -0.005031 0.019619 0.000000 0.000000 0.000000
# 4 0.000000 0.000000 0.000000 0.044771 0.000000 0.000000
# 5 0.000000 0.000000 0.000000 0.000000 0.044771 0.000000
# 6 0.000000 0.000000 0.000000 0.000000 0.000000 0.026935
#
#
# Mechanical properties :
#
#
# Convention : Reuss Voigt Hill
#
# Bulk Modulus (GPa) = 58.05332 61.48031 59.76682
# Shear Modulus (GPa) = 27.43241 30.86551 29.14896
#
# Velocity S-wave (km/s) = 3.50980 3.72295 3.61794
# Velocity P-wave (km/s) = 6.51875 6.78885 6.65517
#
# Compressibility (1/GPa) = 0.01722554
#
# Stress axis : x y z
#
# Youngs Moduli (GPa) = 105.16267 105.16273 50.97191
#
# Poissons Ratio (x) = 0.06775 0.25642
# Poissons Ratio (y) = 0.06775 0.25643
# Poissons Ratio (z) = 0.52904 0.52904
#
# Static dielectric constant tensor:
#      x y z
#    x 4.271650 0.000000 0.000000 
#    y 0.000000 4.271640 0.000000 
#    z 0.000000 0.000000 3.592810 
# 
# 
# High freq. dielectric constant tensor:
#      x y z
#    x 1.897480 0.000000 0.000000 
#    y 0.000000 1.897480 0.000000 
#    z 0.000000 0.000000 1.831560 
# 
# From -- ./inp_files/1329.got.cif
#   From: 2010.03.12/outbox.cif.g09.slc.cpg/sg90_1_cif.got.tgz:1329.got - 2010.04.08 20:26:03.
