data_PCOD8304583
_publ_section_title
;
Structure prediction by ZEFSAII (Michael W. Deem and Ramdas Pophale) SiO2 
 PCOD8304583
Probable space group: P 4 21 2
;
_chemical_formula_sum "Si O2"
_cell_formula_units_Z 40
_cell_length_a 8.251383
_cell_length_b 8.251383
_cell_length_c 28.116932
_cell_angle_alpha 90.000000
_cell_angle_beta 90.000000
_cell_angle_gamma 90.000000
_cell_volume 1914.350352
_symmetry_space_group_name_H-M "P 4 21 2"
_symmetry_group_IT_number 90
_symmetry_cell_setting 'tetragonal'
loop_
_space_group_symop_operation_xyz
x,y,z
1/2-y,1/2+x,z
-x,-y,z
1/2+y,1/2-x,z
1/2+x,1/2-y,-z
1/2-x,1/2+y,-z
y,x,-z
-y,-x,-z
loop_
_atom_site_type_symbol
_atom_site_label
_atom_site_fract_x
_atom_site_fract_y
_atom_site_fract_z
Si Si1 0.239851 0.064877 0.798429
Si Si2 0.739707 0.571697 0.957981
Si Si3 0.000000 0.000000 0.719823
Si Si4 0.000000 0.000000 0.121716
Si Si5 0.255281 0.426989 0.644908
Si Si6 0.070034 0.756903 0.539116
O O1 0.304697 0.881424 0.797250
O O2 0.125636 0.097772 0.752954
O O3 0.135822 0.087885 0.846248
O O4 0.802754 0.387750 0.961011
O O5 0.638233 0.588810 0.909401
O O6 0.614099 0.614099 0.000000
O O7 0.107697 0.885251 0.685831
O O8 0.197200 0.610412 0.651570
O O9 0.330916 0.406491 0.592075
O O10 0.195084 0.610702 0.531916
O O11 0.105822 0.894179 0.500000
#
# Coordination Sequence:
#
# PCOD8304583 Si02
#       6
#     8   8   4   4   8   8
#     4  10  22  38  56  81 112 143 180 233 289 337
#     4  11  23  39  61  90 125 162 202 246 288 339
#     4  11  20  34  58  80 102 138 182 223 272 334
#     4  11  21  38  61  84 113 154 199 235 282 342
#     4   9  19  35  53  76 106 138 174 217 265 320
#     4   9  19  34  51  74 104 136 172 213 257 311
#
# _framework density 20.894818999999998
#
# number of rings (size 3 to 8) (size 9 to 14) (size 15 to 20)
#    0.000    2.000    0.000    5.100    0.000    3.600 
#    0.000    2.000    0.000   12.000    0.000    0.000 
#    0.000    0.000    0.000    0.000    0.000    0.000 
#
# Total GULP energy -495993.076360 kJ/mol
# GULP energy per Si atom -12399.826909 kJ/mol
# Density = 2.084726 g / cm^3
# Si number density = 20.894819 Si / 1000 Ang^3
#
#
#
# Elastic Constant Matrix: (Units=GPa)
#
#
# Indices 1 2 3 4 5 6 
#
# 1 68.2339 16.7478 47.1265 0.0000 0.0000 0.0000
# 2 16.7478 68.2331 47.1262 0.0000 0.0000 0.0000
# 3 47.1265 47.1262 168.6718 0.0000 0.0000 0.0000
# 4 0.0000 0.0000 0.0000 26.3336 0.0000 0.0000
# 5 0.0000 0.0000 0.0000 0.0000 26.3335 0.0000
# 6 0.0000 0.0000 0.0000 0.0000 0.0000 33.4896
#
#
#
# Elastic Compliance Matrix: (Units=1/GPa)
#
#
# Indices 1 2 3 4 5 6 
#
# 1 0.018237 -0.001186 -0.004764 0.000000 0.000000 0.000000
# 2 -0.001186 0.018237 -0.004764 0.000000 0.000000 0.000000
# 3 -0.004764 -0.004764 0.008591 0.000000 0.000000 0.000000
# 4 0.000000 0.000000 0.000000 0.037974 0.000000 0.000000
# 5 0.000000 0.000000 0.000000 0.000000 0.037974 0.000000
# 6 0.000000 0.000000 0.000000 0.000000 0.000000 0.029860
#
#
# Mechanical properties :
#
#
# Convention : Reuss Voigt Hill
#
# Bulk Modulus (GPa) = 42.30683 58.57108 50.43895
# Shear Modulus (GPa) = 27.75000 30.17391 28.96195
#
# Velocity S-wave (km/s) = 3.64824 3.80424 3.72705
# Velocity P-wave (km/s) = 6.16747 6.88393 6.53552
#
# Compressibility (1/GPa) = 0.02363685
#
# Stress axis : x y z
#
# Youngs Moduli (GPa) = 54.83401 54.83341 116.40396
#
# Poissons Ratio (x) = 0.06503 0.55455
# Poissons Ratio (y) = 0.06503 0.55455
# Poissons Ratio (z) = 0.26123 0.26123
#
# Static dielectric constant tensor:
#      x y z
#    x 3.623980 0.000000 0.000000 
#    y 0.000000 3.623980 0.000000 
#    z 0.000000 0.000000 3.902250 
# 
# 
# High freq. dielectric constant tensor:
#      x y z
#    x 1.811400 0.000000 0.000000 
#    y 0.000000 1.811400 0.000000 
#    z 0.000000 0.000000 1.832340 
# 
# From -- ./inp_files/2979.got.cif
#   From: 2010.03.12/outbox.cif.g09.slc.cpg/sg90_2_cif.got.tgz:2979.got - 2010.04.08 20:26:03.
