data_PCOD8304941
_publ_section_title
;
Structure prediction by ZEFSAII (Michael W. Deem and Ramdas Pophale) SiO2 
 PCOD8304941
Probable space group: P 41 2 2
;
_chemical_formula_sum "Si O2"
_cell_formula_units_Z 64
_cell_length_a 17.764477
_cell_length_b 17.764477
_cell_length_c 11.297276
_cell_angle_alpha 90.000000
_cell_angle_beta 90.000000
_cell_angle_gamma 90.000000
_cell_volume 3565.156436
_symmetry_space_group_name_H-M "P 41 2 2"
_symmetry_group_IT_number 91
_symmetry_cell_setting 'tetragonal'
loop_
_space_group_symop_operation_xyz
x,y,z
-y,x,1/4+z
-x,-y,1/2+z
y,-x,3/4+z
x,-y,1/2-z
-x,y,-z
y,x,3/4-z
-y,-x,1/4-z
loop_
_atom_site_type_symbol
_atom_site_label
_atom_site_fract_x
_atom_site_fract_y
_atom_site_fract_z
Si Si1 0.027322 0.565736 0.631289
Si Si2 0.919645 0.409005 0.458957
Si Si3 0.716535 0.834803 0.107808
Si Si4 0.892424 0.284184 0.114080
Si Si5 0.129439 0.950494 0.361070
Si Si6 0.818520 0.972336 0.092602
Si Si7 0.152048 0.263084 0.635253
Si Si8 0.576388 0.874845 0.970733
O O1 0.068657 0.483035 0.626576
O O2 0.080416 0.635160 0.664814
O O3 0.000000 0.583644 0.500000
O O4 0.958743 0.569910 0.723403
O O5 0.869780 0.348499 0.390639
O O6 0.875632 0.424946 0.579380
O O7 0.000000 0.375861 0.500000
O O8 0.700748 0.843393 0.247953
O O9 0.756357 0.910087 0.061808
O O10 0.765449 0.759308 0.086754
O O11 0.642825 0.826203 0.027895
O O12 0.845269 0.249114 0.222527
O O13 0.959392 0.222972 0.086105
O O14 0.066521 0.890047 0.407556
O O15 0.206151 0.907129 0.324591
O O16 0.100818 0.000000 0.250000
O O17 0.147516 0.004519 0.467984
O O18 0.500000 0.830197 0.000000
#
# Coordination Sequence:
#
# PCOD8304941 Si02
#       8
#     8   8   8   8   8   8   8   8
#     4  11  19  32  54  84 105 129 173 225 277 322
#     4  11  22  34  53  81 111 132 175 220 268 327
#     4  11  22  37  52  74 101 139 179 216 269 331
#     4  11  19  37  57  72 101 131 179 226 269 326
#     4  10  21  36  50  64  92 127 177 228 277 318
#     4  10  21  35  51  70  89 129 171 233 280 314
#     4  10  24  35  51  74 101 143 175 215 270 324
#     4  12  21  34  56  80 105 134 169 222 274 321
#
# _framework density 17.951528
#
# number of rings (size 3 to 8) (size 9 to 14) (size 15 to 20)
#    0.000    1.250    5.000    2.250    3.500    0.500 
#    0.000   11.875    0.000    0.000    0.000    0.000 
#    0.000    0.000    0.000    0.000   61.750    0.000 
#
# Total GULP energy -793063.315759 kJ/mol
# GULP energy per Si atom -12391.614309 kJ/mol
# Density = 1.791067 g / cm^3
# Si number density = 17.951528 Si / 1000 Ang^3
#
#
#
# Elastic Constant Matrix: (Units=GPa)
#
#
# Indices 1 2 3 4 5 6 
#
# 1 79.4652 33.7588 16.8957 0.0000 0.0000 0.0000
# 2 33.7588 79.4652 16.8957 0.0000 0.0000 0.0000
# 3 16.8957 16.8957 45.6026 0.0000 0.0000 0.0000
# 4 0.0000 0.0000 0.0000 23.2536 0.0000 0.0000
# 5 0.0000 0.0000 0.0000 0.0000 23.2536 0.0000
# 6 0.0000 0.0000 0.0000 0.0000 0.0000 21.6038
#
#
#
# Elastic Compliance Matrix: (Units=1/GPa)
#
#
# Indices 1 2 3 4 5 6 
#
# 1 0.015904 -0.005974 -0.003679 0.000000 0.000000 0.000000
# 2 -0.005974 0.015904 -0.003679 0.000000 0.000000 0.000000
# 3 -0.003679 -0.003679 0.024655 0.000000 0.000000 0.000000
# 4 0.000000 0.000000 0.000000 0.043004 0.000000 0.000000
# 5 0.000000 0.000000 0.000000 0.000000 0.043004 0.000000
# 6 0.000000 0.000000 0.000000 0.000000 0.000000 0.046288
#
#
# Mechanical properties :
#
#
# Convention : Reuss Voigt Hill
#
# Bulk Modulus (GPa) = 33.55862 37.73704 35.64783
# Shear Modulus (GPa) = 22.18694 22.75439 22.47066
#
# Velocity S-wave (km/s) = 3.51940 3.56412 3.54183
# Velocity P-wave (km/s) = 5.93713 6.16478 6.05203
#
# Compressibility (1/GPa) = 0.02979860
#
# Stress axis : x y z
#
# Youngs Moduli (GPa) = 62.87555 62.87555 40.56010
#
# Poissons Ratio (x) = 0.37564 0.14922
# Poissons Ratio (y) = 0.37564 0.14922
# Poissons Ratio (z) = 0.23132 0.23132
#
# Static dielectric constant tensor:
#      x y z
#    x 3.337940 0.000000 0.000000 
#    y 0.000000 3.337940 0.000000 
#    z 0.000000 0.000000 3.438860 
# 
# 
# High freq. dielectric constant tensor:
#      x y z
#    x 1.664420 0.000000 0.000000 
#    y 0.000000 1.664420 0.000000 
#    z 0.000000 0.000000 1.717270 
# 
# From -- ./inp_files/4049.got.cif
#   From: 2010.03.12/outbox.cif.g09.slc.cpg/sg91_3_cif.got.tgz:4049.got - 2010.04.08 20:27:58.
