data_PCOD8304868
_publ_section_title
;
Structure prediction by ZEFSAII (Michael W. Deem and Ramdas Pophale) SiO2 
 PCOD8304868
Probable space group: P 41 2 2
;
_chemical_formula_sum "Si O2"
_cell_formula_units_Z 56
_cell_length_a 12.637913
_cell_length_b 12.637913
_cell_length_c 18.005672
_cell_angle_alpha 90.000000
_cell_angle_beta 90.000000
_cell_angle_gamma 90.000000
_cell_volume 2875.809124
_symmetry_space_group_name_H-M "P 41 2 2"
_symmetry_group_IT_number 91
_symmetry_cell_setting 'tetragonal'
loop_
_space_group_symop_operation_xyz
x,y,z
-y,x,1/4+z
-x,-y,1/2+z
y,-x,3/4+z
x,-y,1/2-z
-x,y,-z
y,x,3/4-z
-y,-x,1/4-z
loop_
_atom_site_type_symbol
_atom_site_label
_atom_site_fract_x
_atom_site_fract_y
_atom_site_fract_z
Si Si1 0.891337 0.716397 0.091158
Si Si2 0.291395 0.137670 0.331876
Si Si3 0.448536 0.412977 0.079998
Si Si4 0.117140 0.275787 0.910138
Si Si5 0.208247 0.479985 0.073114
Si Si6 0.121739 0.267224 0.084715
Si Si7 0.499255 0.193284 0.848138
O O1 0.825995 0.805560 0.134203
O O2 0.869514 0.601545 0.128099
O O3 0.015947 0.732422 0.101585
O O4 0.849844 0.720535 0.006561
O O5 0.204039 0.204039 0.375000
O O6 0.406340 0.181523 0.360553
O O7 0.485776 0.514225 0.125000
O O8 0.325811 0.434425 0.073618
O O9 0.483563 0.314337 0.130033
O O10 0.500000 0.399387 0.000000
O O11 0.186041 0.186041 0.875000
O O12 0.147095 0.388315 0.871271
O O13 0.997619 0.242211 0.892676
O O14 0.140264 0.275959 0.997137
O O15 0.144713 0.386232 0.115221
O O16 0.172523 0.495543 0.989138
#
# Coordination Sequence:
#
# PCOD8304868 Si02
#       7
#     8   8   8   8   8   8   8
#     4  10  21  39  63  82 111 153 197 237 287 345
#     4  10  22  40  59  85 112 151 197 242 285 340
#     4  12  22  33  54  89 121 153 188 234 290 346
#     4  10  22  37  59  88 119 150 191 243 294 342
#     4  10  20  38  59  82 118 154 191 234 288 351
#     4  10  21  39  60  86 116 155 195 236 291 351
#     4  10  20  36  58  85 113 150 191 233 287 349
#
# _framework density 19.47278
#
# number of rings (size 3 to 8) (size 9 to 14) (size 15 to 20)
#    0.000    1.714    2.857    1.714    2.000    5.143 
#    0.000    3.571    0.000    3.429    0.000    0.000 
#    0.000    0.000    0.000    0.000    0.000    0.000 
#
# Total GULP energy -694012.250344 kJ/mol
# GULP energy per Si atom -12393.075899 kJ/mol
# Density = 1.942846 g / cm^3
# Si number density = 19.472780 Si / 1000 Ang^3
#
#
#
# Elastic Constant Matrix: (Units=GPa)
#
#
# Indices 1 2 3 4 5 6 
#
# 1 -86.4300 327.5092 33.6162 0.0000 0.0000 0.0000
# 2 327.5092 -86.3973 33.6739 0.0000 0.0000 0.0000
# 3 33.6162 33.6739 23.1281 0.0000 0.0000 0.0000
# 4 0.0000 0.0000 0.0000 30.1924 0.0000 0.0000
# 5 0.0000 0.0000 0.0000 0.0000 30.1921 0.0000
# 6 0.0000 0.0000 0.0000 0.0000 0.0000 22.6389
#
#
#
# Elastic Compliance Matrix: (Units=1/GPa)
#
#
# Indices 1 2 3 4 5 6 
#
# 1 0.002285 0.004699 -0.010163 0.000000 0.000000 0.000000
# 2 0.004699 0.002282 -0.010154 0.000000 0.000000 0.000000
# 3 -0.010163 -0.010154 0.072792 0.000000 0.000000 0.000000
# 4 0.000000 0.000000 0.000000 0.033121 0.000000 0.000000
# 5 0.000000 0.000000 0.000000 0.000000 0.033121 0.000000
# 6 0.000000 0.000000 0.000000 0.000000 0.000000 0.044172
#
#
# Mechanical properties :
#
#
# Convention : Reuss Voigt Hill
#
# Bulk Modulus (GPa) = 21.68013 71.09992 46.39003
# Shear Modulus (GPa) = 21.33270 -19.69521 0.81874
#
# Velocity S-wave (km/s) = 3.31345 -3.18374 0.64913
# Velocity P-wave (km/s) = 5.07900 4.80383 4.94333
#
# Compressibility (1/GPa) = 0.04612518
#
# Stress axis : x y z
#
# Youngs Moduli (GPa) = 437.70667 438.14426 13.73775
#
# Poissons Ratio (x) = -2.05902 0.13961
# Poissons Ratio (y) = -2.05696 0.13949
# Poissons Ratio (z) = 4.44835 4.44870
#
# Static dielectric constant tensor:
#      x y z
#    x 3.688140 0.000000 0.000000 
#    y 0.000000 3.688130 0.000000 
#    z 0.000000 0.000000 3.324230 
# 
# 
# High freq. dielectric constant tensor:
#      x y z
#    x 1.773620 0.000000 0.000000 
#    y 0.000000 1.773620 0.000000 
#    z 0.000000 0.000000 1.728070 
# 
# From -- ./inp_files/6382.got.cif
#   From: 2010.03.12/outbox.cif.g09.slc.cpg/sg91_4_cif.got.tgz:6382.got - 2010.04.08 20:27:58.
