data_PCOD8304956
_publ_section_title
;
Structure prediction by ZEFSAII (Michael W. Deem and Ramdas Pophale) SiO2 
 PCOD8304956
Probable space group: P 41 2 2
;
_chemical_formula_sum "Si O2"
_cell_formula_units_Z 64
_cell_length_a 17.105187
_cell_length_b 17.105187
_cell_length_c 12.488064
_cell_angle_alpha 90.000000
_cell_angle_beta 90.000000
_cell_angle_gamma 90.000000
_cell_volume 3653.850455
_symmetry_space_group_name_H-M "P 41 2 2"
_symmetry_group_IT_number 91
_symmetry_cell_setting 'tetragonal'
loop_
_space_group_symop_operation_xyz
x,y,z
-y,x,1/4+z
-x,-y,1/2+z
y,-x,3/4+z
x,-y,1/2-z
-x,y,-z
y,x,3/4-z
-y,-x,1/4-z
loop_
_atom_site_type_symbol
_atom_site_label
_atom_site_fract_x
_atom_site_fract_y
_atom_site_fract_z
Si Si1 0.126950 0.376147 0.189298
Si Si2 0.416170 0.329755 0.292905
Si Si3 0.953307 0.620258 0.309655
Si Si4 0.455691 0.065711 0.165527
Si Si5 0.320639 0.425751 0.937265
Si Si6 0.454066 0.166641 0.353879
Si Si7 0.688259 0.286754 0.374483
Si Si8 0.320227 0.790520 0.564725
O O1 0.139581 0.458596 0.130991
O O2 0.126432 0.392064 0.316773
O O3 0.193561 0.315086 0.151944
O O4 0.039198 0.343727 0.164488
O O5 0.402915 0.402915 0.375000
O O6 0.482698 0.338973 0.202264
O O7 0.443246 0.258743 0.368599
O O8 0.333960 0.312780 0.235081
O O9 0.941283 0.545418 0.383154
O O10 0.941943 0.599589 0.185746
O O11 0.883696 0.681590 0.334198
O O12 0.439360 0.146710 0.228683
O O13 0.433054 0.000000 0.250000
O O14 0.396481 0.396481 0.875000
O O15 0.245233 0.401673 0.863796
O O16 0.310471 0.386848 0.053699
O O17 0.767318 0.309184 0.310016
O O18 0.246389 0.753612 0.625000
#
# Coordination Sequence:
#
# PCOD8304956 Si02
#       8
#     8   8   8   8   8   8   8   8
#     4  11  20  33  55  77 110 142 178 225 285 337
#     4  12  22  33  55  73  99 147 188 232 286 333
#     4  11  21  33  53  86 108 146 187 217 286 344
#     4  11  19  31  50  81 109 138 178 232 273 335
#     4   9  21  40  56  70  98 140 192 248 283 310
#     4  11  20  34  52  76 110 139 179 233 279 336
#     4  10  21  38  52  75 105 146 183 227 287 330
#     4   9  21  38  56  77 111 147 184 229 275 332
#
# _framework density 17.515768000000001
#
# number of rings (size 3 to 8) (size 9 to 14) (size 15 to 20)
#    0.000    1.750    5.000    2.250    1.750    3.500 
#    0.000    1.875    0.000    0.000    0.000    0.000 
#    0.000    0.000   12.750    0.000    0.000    0.125 
#
# Total GULP energy -793009.634988 kJ/mol
# GULP energy per Si atom -12390.775547 kJ/mol
# Density = 1.747590 g / cm^3
# Si number density = 17.515768 Si / 1000 Ang^3
#
#
#
# Elastic Constant Matrix: (Units=GPa)
#
#
# Indices 1 2 3 4 5 6 
#
# 1 100.3794 45.2340 24.5230 0.0000 0.0000 0.0000
# 2 45.2340 100.3798 24.5231 0.0000 0.0000 0.0000
# 3 24.5230 24.5231 76.6289 0.0000 0.0000 0.0000
# 4 0.0000 0.0000 0.0000 20.6475 0.0000 0.0000
# 5 0.0000 0.0000 0.0000 0.0000 20.6475 0.0000
# 6 0.0000 0.0000 0.0000 0.0000 0.0000 14.3788
#
#
#
# Elastic Compliance Matrix: (Units=1/GPa)
#
#
# Indices 1 2 3 4 5 6 
#
# 1 0.012916 -0.005218 -0.002463 0.000000 0.000000 0.000000
# 2 -0.005218 0.012915 -0.002463 0.000000 0.000000 0.000000
# 3 -0.002463 -0.002463 0.014627 0.000000 0.000000 0.000000
# 4 0.000000 0.000000 0.000000 0.048432 0.000000 0.000000
# 5 0.000000 0.000000 0.000000 0.000000 0.048432 0.000000
# 6 0.000000 0.000000 0.000000 0.000000 0.000000 0.069547
#
#
# Mechanical properties :
#
#
# Convention : Reuss Voigt Hill
#
# Bulk Modulus (GPa) = 49.58409 51.77205 50.67807
# Shear Modulus (GPa) = 21.37839 23.34194 22.36017
#
# Velocity S-wave (km/s) = 3.49739 3.65447 3.57679
# Velocity P-wave (km/s) = 6.68421 6.88683 6.78628
#
# Compressibility (1/GPa) = 0.02016776
#
# Stress axis : x y z
#
# Youngs Moduli (GPa) = 77.42622 77.42652 68.36896
#
# Poissons Ratio (x) = 0.40404 0.16841
# Poissons Ratio (y) = 0.40403 0.16841
# Poissons Ratio (z) = 0.19072 0.19072
#
# Static dielectric constant tensor:
#      x y z
#    x 3.188760 0.000000 0.000000 
#    y 0.000000 3.188770 0.000000 
#    z 0.000000 0.000000 3.658040 
# 
# 
# High freq. dielectric constant tensor:
#      x y z
#    x 1.643480 0.000000 0.000000 
#    y 0.000000 1.643480 0.000000 
#    z 0.000000 0.000000 1.699520 
# 
# From -- ./inp_files/16058.got.cif
#   From: 2010.03.12/outbox.cif.g09.slc.cpg/sg91_9_cif.got.tgz:16058.got - 2010.04.08 20:27:58.
