data_PCOD8304033
_publ_section_title
;
Structure prediction by ZEFSAII (Michael W. Deem and Ramdas Pophale) SiO2 
 PCOD8304033
Probable space group: I 4/M
;
_chemical_formula_sum "Si O2"
_cell_formula_units_Z 72
_cell_length_a 20.955161
_cell_length_b 20.955161
_cell_length_c 8.930260
_cell_angle_alpha 90.000000
_cell_angle_beta 90.000000
_cell_angle_gamma 90.000000
_cell_volume 3921.444810
_symmetry_space_group_name_H-M "I 4/M"
_symmetry_group_IT_number 87
_symmetry_cell_setting 'tetragonal'
loop_
_space_group_symop_operation_xyz
x,y,z
-y,x,z
-x,-y,z
y,-x,z
-x,-y,-z
y,-x,-z
x,y,-z
-y,x,-z
1/2+x,1/2+y,1/2+z
1/2-y,1/2+x,1/2+z
1/2-x,1/2-y,1/2+z
1/2+y,1/2-x,1/2+z
1/2-x,1/2-y,1/2-z
1/2+y,1/2-x,1/2-z
1/2+x,1/2+y,1/2-z
1/2-y,1/2+x,1/2-z
loop_
_atom_site_type_symbol
_atom_site_label
_atom_site_fract_x
_atom_site_fract_y
_atom_site_fract_z
Si Si1 0.091982 0.655375 0.674898
Si Si2 0.099717 0.967235 0.000000
Si Si3 0.822404 0.446718 0.823512
Si Si4 0.770319 0.815675 0.675842
Si Si5 0.103535 0.196588 0.833412
O O1 0.098024 0.639872 0.500000
O O2 0.119200 0.595822 0.766387
O O3 0.130001 0.719477 0.717118
O O4 0.019189 0.664573 0.724747
O O5 0.142039 0.950993 0.852195
O O6 0.039882 0.919832 0.000000
O O7 0.756637 0.424151 0.752374
O O8 0.815984 0.439597 0.000000
O O9 0.777128 0.806167 0.500000
O O10 0.750000 0.750000 0.750000
O O11 0.838416 0.835552 0.743501
O O12 0.127054 0.218759 0.000000
#
# Coordination Sequence:
#
# PCOD8304033 Si02
#       5
#    16   8  16  16  16
#     4  10  24  41  60  85 122 160 203 252 306 366
#     4   9  22  42  62  90 126 161 203 245 301 365
#     4  11  23  40  60  88 119 162 204 253 305 365
#     4  11  21  36  59  88 122 156 195 252 308 361
#     4  10  22  35  61  88 119 154 201 245 305 353
#
# _framework density 18.360581
#
# number of rings (size 3 to 8) (size 9 to 14) (size 15 to 20)
#    0.667    1.000    2.222    2.000    3.111    3.111 
#    0.000    2.222    0.000    0.000    0.000    6.222 
#    0.000    0.000    0.000    0.000    0.000    0.000 
#
# Total GULP energy -446378.415182 kJ/mol
# GULP energy per Si atom -12399.400422 kJ/mol
# Density = 1.831879 g / cm^3
# Si number density = 18.360581 Si / 1000 Ang^3
#
#
#
# Elastic Constant Matrix: (Units=GPa)
#
#
# Indices 1 2 3 4 5 6 
#
# 1 134.9836 66.8512 58.1400 0.0000 0.0000 -4.6027
# 2 66.8512 134.9836 58.1400 0.0000 0.0000 4.6027
# 3 58.1400 58.1400 87.0045 0.0000 0.0000 0.0000
# 4 0.0000 0.0000 0.0000 25.7461 0.0000 0.0000
# 5 0.0000 0.0000 0.0000 0.0000 25.7461 0.0000
# 6 -4.6027 4.6027 0.0000 0.0000 0.0000 27.1329
#
#
#
# Elastic Compliance Matrix: (Units=1/GPa)
#
#
# Indices 1 2 3 4 5 6 
#
# 1 0.011539 -0.003483 -0.005383 0.000000 0.000000 0.002548
# 2 -0.003483 0.011539 -0.005383 0.000000 0.000000 -0.002548
# 3 -0.005383 -0.005383 0.018688 0.000000 0.000000 0.000000
# 4 0.000000 0.000000 0.000000 0.038841 0.000000 0.000000
# 5 0.000000 0.000000 0.000000 0.000000 0.038841 0.000000
# 6 0.002548 -0.002548 0.000000 0.000000 0.000000 0.037720
#
#
# Mechanical properties :
#
#
# Convention : Reuss Voigt Hill
#
# Bulk Modulus (GPa) = 75.37499 80.35933 77.86716
# Shear Modulus (GPa) = 26.30347 27.31440 26.80893
#
# Velocity S-wave (km/s) = 3.78908 3.86121 3.82532
# Velocity P-wave (km/s) = 7.76432 7.98379 7.87482
#
# Compressibility (1/GPa) = 0.01326700
#
# Stress axis : x y z
#
# Youngs Moduli (GPa) = 86.66426 86.66426 53.50915
#
# Poissons Ratio (x) = 0.30184 0.28806
# Poissons Ratio (y) = 0.30184 0.28806
# Poissons Ratio (z) = 0.46654 0.46654
#
# Static dielectric constant tensor:
#      x y z
#    x 3.497880 0.000000 0.000000 
#    y 0.000000 3.497880 0.000000 
#    z 0.000000 0.000000 3.444240 
# 
# 
# High freq. dielectric constant tensor:
#      x y z
#    x 1.717560 0.000000 0.000000 
#    y 0.000000 1.717560 0.000000 
#    z 0.000000 0.000000 1.712630 
# 
# From -- ./inp_files/1092.got.cif
#   From: 2010.03.12/outbox.cif.g09.slc.cpg/sg87_1_cif.got.tgz:1092.got - 2010.04.08 20:16:13.
