data_PCOD8304887
_publ_section_title
;
Structure prediction by ZEFSAII (Michael W. Deem and Ramdas Pophale) SiO2 
 PCOD8304887
Probable space group: P 41 2 2
;
_chemical_formula_sum "Si O2"
_cell_formula_units_Z 40
_cell_length_a 8.893559
_cell_length_b 8.893559
_cell_length_c 24.937395
_cell_angle_alpha 90.000000
_cell_angle_beta 90.000000
_cell_angle_gamma 90.000000
_cell_volume 1972.433025
_symmetry_space_group_name_H-M "P 41 2 2"
_symmetry_group_IT_number 91
_symmetry_cell_setting 'tetragonal'
loop_
_space_group_symop_operation_xyz
x,y,z
-y,x,1/4+z
-x,-y,1/2+z
y,-x,3/4+z
x,-y,1/2-z
-x,y,-z
y,x,3/4-z
-y,-x,1/4-z
loop_
_atom_site_type_symbol
_atom_site_label
_atom_site_fract_x
_atom_site_fract_y
_atom_site_fract_z
Si Si1 0.021881 0.000000 0.250000
Si Si2 0.197295 0.739350 0.725345
Si Si3 0.500000 0.342561 0.500000
Si Si4 0.693690 0.481691 0.080465
Si Si5 0.259991 0.168365 0.432846
Si Si6 0.867700 0.574438 0.172705
O O1 0.915830 0.880132 0.281046
O O2 0.122902 0.904225 0.207517
O O3 0.363608 0.788262 0.705884
O O4 0.131710 0.599624 0.691209
O O5 0.220721 0.683918 0.786494
O O6 0.438366 0.440592 0.548268
O O7 0.352515 0.257818 0.478034
O O8 0.613375 0.386626 0.125000
O O9 0.802813 0.595530 0.112255
O O10 0.247171 0.247171 0.375000
O O11 0.370809 0.034887 0.419860
#
# Coordination Sequence:
#
# PCOD8304887 Si02
#       6
#     4   8   4   8   8   8
#     4  10  22  42  62  92 130 160 208 264 314 382
#     4   9  18  38  64  90 123 160 205 260 315 365
#     4  12  24  42  62  90 132 166 204 266 312 376
#     4  10  20  37  65  92 115 161 214 258 308 370
#     4  11  25  41  63  92 128 173 206 256 327 376
#     4   9  19  39  60  87 124 165 207 253 312 381
#
# _framework density 20.279523999999999
#
# number of rings (size 3 to 8) (size 9 to 14) (size 15 to 20)
#    0.000    2.000    0.000    5.400    2.800    2.400 
#   10.800    0.000    0.000    0.000    0.000    0.000 
#    0.000    0.000    0.000    0.000    0.000    0.000 
#
# Total GULP energy -495534.028023 kJ/mol
# GULP energy per Si atom -12388.350701 kJ/mol
# Density = 2.023337 g / cm^3
# Si number density = 20.279524 Si / 1000 Ang^3
#
#
#
# Elastic Constant Matrix: (Units=GPa)
#
#
# Indices 1 2 3 4 5 6 
#
# 1 79.3573 30.6538 35.3170 0.0000 0.0000 0.0000
# 2 30.6538 79.3567 35.3168 0.0000 0.0000 0.0000
# 3 35.3170 35.3168 96.7079 0.0000 0.0000 0.0000
# 4 0.0000 0.0000 0.0000 48.2537 0.0000 0.0000
# 5 0.0000 0.0000 0.0000 0.0000 48.2493 0.0000
# 6 0.0000 0.0000 0.0000 0.0000 0.0000 85.4508
#
#
#
# Elastic Compliance Matrix: (Units=1/GPa)
#
#
# Indices 1 2 3 4 5 6 
#
# 1 0.016203 -0.004329 -0.004336 0.000000 0.000000 0.000000
# 2 -0.004329 0.016203 -0.004336 0.000000 0.000000 0.000000
# 3 -0.004336 -0.004336 0.013508 0.000000 0.000000 0.000000
# 4 0.000000 0.000000 0.000000 0.020724 0.000000 0.000000
# 5 0.000000 0.000000 0.000000 0.000000 0.020726 0.000000
# 6 0.000000 0.000000 0.000000 0.000000 0.000000 0.011703
#
#
# Mechanical properties :
#
#
# Convention : Reuss Voigt Hill
#
# Bulk Modulus (GPa) = 50.22446 50.88857 50.55652
# Shear Modulus (GPa) = 37.96298 46.66636 42.31467
#
# Velocity S-wave (km/s) = 4.33134 4.80224 4.57286
# Velocity P-wave (km/s) = 7.05931 7.47641 7.27085
#
# Compressibility (1/GPa) = 0.01991062
#
# Stress axis : x y z
#
# Youngs Moduli (GPa) = 61.71565 61.71530 74.03216
#
# Poissons Ratio (x) = 0.26717 0.32103
# Poissons Ratio (y) = 0.26718 0.32103
# Poissons Ratio (z) = 0.26762 0.26762
#
# Static dielectric constant tensor:
#      x y z
#    x 2.739020 0.000000 0.000000 
#    y 0.000000 2.739520 0.000000 
#    z 0.000000 0.000000 25.913540 
# 
# 
# High freq. dielectric constant tensor:
#      x y z
#    x 1.786690 0.000000 0.000000 
#    y 0.000000 1.786690 0.000000 
#    z 0.000000 0.000000 1.800700 
# 
# From -- ./inp_files/6850.got.cif
#   From: 2010.03.12/outbox.cif.g09.slc.cpg/sg91_4_cif.got.tgz:6850.got - 2010.04.08 20:27:58.
