data_PCOD8304522
_publ_section_title
;
Structure prediction by ZEFSAII (Michael W. Deem and Ramdas Pophale) SiO2 
 PCOD8304522
Probable space group: P 4 2 2
;
_chemical_formula_sum "Si O2"
_cell_formula_units_Z 30
_cell_length_a 8.990440
_cell_length_b 8.990440
_cell_length_c 20.460314
_cell_angle_alpha 90.000000
_cell_angle_beta 90.000000
_cell_angle_gamma 90.000000
_cell_volume 1653.766493
_symmetry_space_group_name_H-M "P 4 2 2"
_symmetry_group_IT_number 89
_symmetry_cell_setting 'tetragonal'
loop_
_space_group_symop_operation_xyz
x,y,z
-y,x,z
-x,-y,z
y,-x,z
x,-y,-z
-x,y,-z
y,x,-z
-y,-x,-z
loop_
_atom_site_type_symbol
_atom_site_label
_atom_site_fract_x
_atom_site_fract_y
_atom_site_fract_z
Si Si1 0.757957 0.019679 0.926703
Si Si2 0.500000 0.000000 0.500000
Si Si3 0.263873 0.452194 0.262449
Si Si4 0.000000 0.500000 0.829754
Si Si5 0.440130 0.262854 0.586743
O O1 0.842800 0.866395 0.914593
O O2 0.629020 0.057893 0.876314
O O3 0.693999 0.000000 0.000000
O O4 0.403632 0.112374 0.545859
O O5 0.385281 0.327625 0.247041
O O6 0.124918 0.427148 0.215852
O O7 0.216975 0.435067 0.337729
O O8 0.606953 0.322239 0.569775
#
# Coordination Sequence:
#
# PCOD8304522 Si02
#       5
#     8   2   8   4   8
#     4   9  19  34  48  66  97 133 164 195 236 288
#     4  12  18  26  52  80  88 110 162 206 220 252
#     4   9  19  34  49  69  99 128 154 191 240 290
#     4  12  18  28  52  80  94 116 162 210 244 272
#     4   9  19  35  51  69  97 130 159 189 232 288
#
# _framework density 18.140409999999999
#
# number of rings (size 3 to 8) (size 9 to 14) (size 15 to 20)
#    0.000    2.400    0.000    6.000    0.000    1.067 
#    0.000    0.000    0.000    6.400    0.000   33.600 
#    0.000    0.000    0.000    0.000    0.000    0.000 
#
# Total GULP energy -371769.243945 kJ/mol
# GULP energy per Si atom -12392.308131 kJ/mol
# Density = 1.809912 g / cm^3
# Si number density = 18.140410 Si / 1000 Ang^3
#
#
#
# Elastic Constant Matrix: (Units=GPa)
#
#
# Indices 1 2 3 4 5 6 
#
# 1 74.3847 6.5512 34.8853 0.0000 0.0000 0.0000
# 2 6.5512 74.3847 34.8853 0.0000 0.0000 0.0000
# 3 34.8853 34.8853 82.0685 0.0000 0.0000 0.0000
# 4 0.0000 0.0000 0.0000 29.3410 0.0000 0.0000
# 5 0.0000 0.0000 0.0000 0.0000 29.3410 0.0000
# 6 0.0000 0.0000 0.0000 0.0000 0.0000 11.0883
#
#
#
# Elastic Compliance Matrix: (Units=1/GPa)
#
#
# Indices 1 2 3 4 5 6 
#
# 1 0.017122 0.002380 -0.008290 0.000000 0.000000 0.000000
# 2 0.002380 0.017122 -0.008290 0.000000 0.000000 0.000000
# 3 -0.008290 -0.008290 0.019232 0.000000 0.000000 0.000000
# 4 0.000000 0.000000 0.000000 0.034082 0.000000 0.000000
# 5 0.000000 0.000000 0.000000 0.000000 0.034082 0.000000
# 6 0.000000 0.000000 0.000000 0.000000 0.000000 0.090185
#
#
# Mechanical properties :
#
#
# Convention : Reuss Voigt Hill
#
# Bulk Modulus (GPa) = 39.87729 42.60905 41.24317
# Shear Modulus (GPa) = 20.11399 24.25511 22.18455
#
# Velocity S-wave (km/s) = 3.33347 3.66057 3.50084
# Velocity P-wave (km/s) = 6.07012 6.43474 6.25508
#
# Compressibility (1/GPa) = 0.02507693
#
# Stress axis : x y z
#
# Youngs Moduli (GPa) = 58.40524 58.40524 51.99564
#
# Poissons Ratio (x) = -0.13899 0.43102
# Poissons Ratio (y) = -0.13899 0.43102
# Poissons Ratio (z) = 0.48416 0.48416
#
# Static dielectric constant tensor:
#      x y z
#    x 3.168620 0.000000 0.000000 
#    y 0.000000 3.168620 0.000000 
#    z 0.000000 0.000000 3.501710 
# 
# 
# High freq. dielectric constant tensor:
#      x y z
#    x 1.683920 0.000000 0.000000 
#    y 0.000000 1.683920 0.000000 
#    z 0.000000 0.000000 1.725160 
# 
# From -- ./inp_files/2511.got.cif
#   From: 2010.03.12/outbox.cif.g09.slc.cpg/sg89_2_cif.got.tgz:2511.got - 2010.04.08 20:24:03.
