data_PCOD8304244
_publ_section_title
;
Structure prediction by ZEFSAII (Michael W. Deem and Ramdas Pophale) SiO2 
 PCOD8304244
Probable space group: I 41/A
;
_chemical_formula_sum "Si O2"
_cell_formula_units_Z 84
_cell_length_a 22.468155
_cell_length_b 22.468155
_cell_length_c 7.772288
_cell_angle_alpha 90.000000
_cell_angle_beta 90.000000
_cell_angle_gamma 90.000000
_cell_volume 3923.590799
_symmetry_space_group_name_H-M "I 41/A"
_symmetry_group_IT_number 88
_space_group.IT_coordinate_system_code '2'
_symmetry_cell_setting 'tetragonal'
loop_
_space_group_symop_operation_xyz
x,y,z
3/4-y,1/4+x,1/4+z
-x,1/2-y,z
1/4+y,1/4-x,1/4+z
-x,-y,-z
1/4+y,3/4-x,3/4-z
x,1/2+y,-z
3/4-y,3/4+x,3/4-z
1/2+x,1/2+y,1/2+z
1/4-y,3/4+x,3/4+z
1/2-x,-y,1/2+z
3/4+y,3/4-x,3/4+z
1/2-x,1/2-y,1/2-z
3/4+y,1/4-x,1/4-z
1/2+x,y,1/2-z
1/4-y,1/4+x,1/4-z
loop_
_atom_site_type_symbol
_atom_site_label
_atom_site_fract_x
_atom_site_fract_y
_atom_site_fract_z
Si Si1 0.834282 0.294850 0.683138
Si Si2 0.203652 0.323862 0.815490
Si Si3 0.840191 0.357267 0.341713
Si Si4 0.908464 0.161391 0.258857
Si Si5 0.441092 0.468515 0.441870
Si Si6 0.000000 0.250000 0.125000
O O1 0.825663 0.223316 0.684587
O O2 0.773360 0.331194 0.726915
O O3 0.854984 0.308239 0.488385
O O4 0.880964 0.314656 0.824274
O O5 0.169914 0.387314 0.826245
O O6 0.195031 0.293934 0.002022
O O7 0.871777 0.338189 0.164761
O O8 0.768689 0.361388 0.309205
O O9 0.839036 0.174106 0.304287
O O10 0.946492 0.221704 0.236737
O O11 0.500000 0.500000 0.500000
#
# Coordination Sequence:
#
# PCOD8304244 Si02
#       6
#    16  16  16  16  16   4
#     4  10  21  37  61  86 114 159 198 241 303 364
#     4   9  20  38  58  87 122 152 201 256 292 360
#     4  10  21  38  60  84 120 154 200 253 300 353
#     4  11  23  39  61  89 121 158 200 250 302 367
#     4  10  20  37  62  85 115 163 201 242 304 368
#     4  12  24  40  58  92 132 150 192 268 302 344
#
# _framework density 21.408961000000001
#
# number of rings (size 3 to 8) (size 9 to 14) (size 15 to 20)
#    0.000    1.905    0.000    4.571    0.000    7.619 
#    0.000    0.952   37.714    0.000    0.000    0.000 
#    0.000    0.000    0.000    0.000    0.000    0.000 
#
# Total GULP energy -520477.985039 kJ/mol
# GULP energy per Si atom -12392.332977 kJ/mol
# Density = 2.136023 g / cm^3
# Si number density = 21.408961 Si / 1000 Ang^3
#
#
#
# Elastic Constant Matrix: (Units=GPa)
#
#
# Indices 1 2 3 4 5 6 
#
# 1 110.4585 55.0814 11.8913 0.0000 0.0000 5.2729
# 2 55.0814 110.4585 11.8913 0.0000 0.0000 -5.2729
# 3 11.8913 11.8913 64.5826 0.0000 0.0000 0.0000
# 4 0.0000 0.0000 0.0000 27.4276 0.0000 0.0000
# 5 0.0000 0.0000 0.0000 0.0000 27.4276 0.0000
# 6 5.2729 -5.2729 0.0000 0.0000 0.0000 42.1040
#
#
#
# Elastic Compliance Matrix: (Units=1/GPa)
#
#
# Indices 1 2 3 4 5 6 
#
# 1 0.012352 -0.006147 -0.001142 0.000000 0.000000 -0.002317
# 2 -0.006147 0.012352 -0.001142 0.000000 0.000000 0.002317
# 3 -0.001142 -0.001142 0.015905 0.000000 0.000000 0.000000
# 4 0.000000 0.000000 0.000000 0.036460 0.000000 0.000000
# 5 0.000000 0.000000 0.000000 0.000000 0.036460 0.000000
# 6 -0.002317 0.002317 0.000000 0.000000 0.000000 0.024331
#
#
# Mechanical properties :
#
#
# Convention : Reuss Voigt Hill
#
# Bulk Modulus (GPa) = 42.11454 49.24748 45.68101
# Shear Modulus (GPa) = 30.74304 33.16752 31.95528
#
# Velocity S-wave (km/s) = 3.79356 3.94030 3.86763
# Velocity P-wave (km/s) = 6.23717 6.61472 6.42871
#
# Compressibility (1/GPa) = 0.02374477
#
# Stress axis : x y z
#
# Youngs Moduli (GPa) = 80.95795 80.95795 62.87419
#
# Poissons Ratio (x) = 0.49766 0.07183
# Poissons Ratio (y) = 0.49766 0.07183
# Poissons Ratio (z) = 0.09249 0.09249
#
# Static dielectric constant tensor:
#      x y z
#    x 4.249720 0.000000 0.000000 
#    y 0.000000 4.249720 0.000000 
#    z 0.000000 0.000000 3.948730 
# 
# 
# High freq. dielectric constant tensor:
#      x y z
#    x 1.832320 0.000000 0.000000 
#    y 0.000000 1.832320 0.000000 
#    z 0.000000 0.000000 1.843120 
# 
# From -- ./inp_files/1643.got.cif
#   From: 2010.03.12/outbox.cif.g09.slc.cpg/sg88_1_cif.got.tgz:1643.got - 2010.04.08 20:20:55.
