data_PCOD8304763
_publ_section_title
;
Structure prediction by ZEFSAII (Michael W. Deem and Ramdas Pophale) SiO2 
 PCOD8304763
Probable space group: P 41 2 2
;
_chemical_formula_sum "Si O2"
_cell_formula_units_Z 56
_cell_length_a 14.556360
_cell_length_b 14.556360
_cell_length_c 12.768539
_cell_angle_alpha 90.000000
_cell_angle_beta 90.000000
_cell_angle_gamma 90.000000
_cell_volume 2705.495294
_symmetry_space_group_name_H-M "P 41 2 2"
_symmetry_group_IT_number 91
_symmetry_cell_setting 'tetragonal'
loop_
_space_group_symop_operation_xyz
x,y,z
-y,x,1/4+z
-x,-y,1/2+z
y,-x,3/4+z
x,-y,1/2-z
-x,y,-z
y,x,3/4-z
-y,-x,1/4-z
loop_
_atom_site_type_symbol
_atom_site_label
_atom_site_fract_x
_atom_site_fract_y
_atom_site_fract_z
Si Si1 0.234662 0.325442 0.087123
Si Si2 0.874322 0.398423 0.729328
Si Si3 0.819330 0.872148 0.650704
Si Si4 0.368055 0.893535 0.250909
Si Si5 0.775341 0.593225 0.198570
Si Si6 0.992614 0.777509 0.721378
Si Si7 0.696615 0.152498 0.133528
O O1 0.212968 0.381187 0.193377
O O2 0.204896 0.219480 0.089150
O O3 0.344692 0.317447 0.068644
O O4 0.170721 0.362978 0.990525
O O5 0.914912 0.500000 0.750000
O O6 0.843687 0.393139 0.608302
O O7 0.949300 0.320707 0.749988
O O8 0.742846 0.890301 0.739529
O O9 0.819148 0.954637 0.569538
O O10 0.920010 0.858041 0.698652
O O11 0.417839 0.834141 0.341593
O O12 0.402010 0.000000 0.250000
O O13 0.737547 0.500000 0.250000
O O14 0.849375 0.632443 0.281422
O O15 0.058573 0.756922 0.620802
O O16 0.758619 0.241382 0.125000
#
# Coordination Sequence:
#
# PCOD8304763 Si02
#       7
#     8   8   8   8   8   8   8
#     4   9  21  41  63  89 133 168 201 268 332 378
#     4  11  25  41  63  93 125 168 219 261 327 395
#     4  10  21  39  61  82 121 176 210 269 315 365
#     4  11  21  41  57  82 129 161 208 273 314 373
#     4  10  21  36  66  95 117 166 208 254 330 388
#     4  11  21  41  61  88 127 168 229 265 326 369
#     4  10  18  38  61  85 128 161 210 272 316 370
#
# _framework density 20.698613000000002
#
# number of rings (size 3 to 8) (size 9 to 14) (size 15 to 20)
#    0.000    1.714    5.714    0.000    2.000    9.714 
#    0.000    1.429    6.286    0.000    0.000    9.000 
#    0.000    0.000    0.000    0.000    0.000    0.000 
#
# Total GULP energy -693869.922907 kJ/mol
# GULP energy per Si atom -12390.534338 kJ/mol
# Density = 2.065150 g / cm^3
# Si number density = 20.698613 Si / 1000 Ang^3
#
#
#
# Elastic Constant Matrix: (Units=GPa)
#
#
# Indices 1 2 3 4 5 6 
#
# 1 92.9839 33.3335 48.1485 0.0000 0.0000 0.0000
# 2 33.3335 92.9828 48.1486 0.0000 0.0000 0.0000
# 3 48.1485 48.1486 171.7172 0.0000 0.0000 0.0000
# 4 0.0000 0.0000 0.0000 26.3795 0.0000 0.0000
# 5 0.0000 0.0000 0.0000 0.0000 26.3797 0.0000
# 6 0.0000 0.0000 0.0000 0.0000 0.0000 14.8584
#
#
#
# Elastic Compliance Matrix: (Units=1/GPa)
#
#
# Indices 1 2 3 4 5 6 
#
# 1 0.013417 -0.003348 -0.002823 0.000000 0.000000 0.000000
# 2 -0.003348 0.013417 -0.002823 0.000000 0.000000 0.000000
# 3 -0.002823 -0.002823 0.007407 0.000000 0.000000 0.000000
# 4 0.000000 0.000000 0.000000 0.037908 0.000000 0.000000
# 5 0.000000 0.000000 0.000000 0.000000 0.037908 0.000000
# 6 0.000000 0.000000 0.000000 0.000000 0.000000 0.067302
#
#
# Mechanical properties :
#
#
# Convention : Reuss Voigt Hill
#
# Bulk Modulus (GPa) = 61.53266 68.54946 65.04106
# Shear Modulus (GPa) = 24.90486 28.72708 26.81597
#
# Velocity S-wave (km/s) = 3.47250 3.72946 3.60327
# Velocity P-wave (km/s) = 6.77275 7.19270 6.98588
#
# Compressibility (1/GPa) = 0.01625153
#
# Stress axis : x y z
#
# Youngs Moduli (GPa) = 74.53449 74.53337 135.01136
#
# Poissons Ratio (x) = 0.24952 0.38117
# Poissons Ratio (y) = 0.24953 0.38118
# Poissons Ratio (z) = 0.21043 0.21043
#
# Static dielectric constant tensor:
#      x y z
#    x 3.786410 0.000000 0.000000 
#    y 0.000000 3.786400 0.000000 
#    z 0.000000 0.000000 4.210380 
# 
# 
# High freq. dielectric constant tensor:
#      x y z
#    x 1.782670 0.000000 0.000000 
#    y 0.000000 1.782670 0.000000 
#    z 0.000000 0.000000 1.829690 
# 
# From -- ./inp_files/10844.got.cif
#   From: 2010.03.12/outbox.cif.g09.slc.cpg/sg91_6_cif.got.tgz:10844.got - 2010.04.08 20:27:58.
