data_PCOD8304639
_publ_section_title
;
Structure prediction by ZEFSAII (Michael W. Deem and Ramdas Pophale) SiO2 
 PCOD8304639
Probable space group: P 4 21 2
;
_chemical_formula_sum "Si O2"
_cell_formula_units_Z 48
_cell_length_a 8.702963
_cell_length_b 8.702963
_cell_length_c 30.403874
_cell_angle_alpha 90.000000
_cell_angle_beta 90.000000
_cell_angle_gamma 90.000000
_cell_volume 2302.836998
_symmetry_space_group_name_H-M "P 4 21 2"
_symmetry_group_IT_number 90
_symmetry_cell_setting 'tetragonal'
loop_
_space_group_symop_operation_xyz
x,y,z
1/2-y,1/2+x,z
-x,-y,z
1/2+y,1/2-x,z
1/2+x,1/2-y,-z
1/2-x,1/2+y,-z
y,x,-z
-y,-x,-z
loop_
_atom_site_type_symbol
_atom_site_label
_atom_site_fract_x
_atom_site_fract_y
_atom_site_fract_z
Si Si1 0.387654 0.772386 0.039457
Si Si2 0.613714 0.223957 0.783450
Si Si3 0.231331 0.600472 0.365942
Si Si4 0.766339 0.408324 0.465310
Si Si5 0.778184 0.382314 0.115853
Si Si6 0.601364 0.232651 0.291669
O O1 0.568527 0.796728 0.036171
O O2 0.353602 0.689079 0.085596
O O3 0.337408 0.662593 0.000000
O O4 0.434120 0.202185 0.773281
O O5 0.640966 0.272628 0.833804
O O6 0.677594 0.359514 0.753108
O O7 0.197855 0.422281 0.357131
O O8 0.292320 0.621100 0.415700
O O9 0.361983 0.660378 0.333387
O O10 0.804619 0.584793 0.473436
O O11 0.635425 0.364576 0.500000
O O12 0.796704 0.562186 0.105626
O O13 0.421951 0.200155 0.293192
#
# Coordination Sequence:
#
# PCOD8304639 Si02
#       6
#     8   8   8   8   8   8
#     4  11  24  39  56  81 112 145 182 224 268 315
#     4   9  19  37  60  83 107 139 179 220 262 313
#     4   9  19  37  58  77 100 135 179 221 261 311
#     4   9  19  35  54  78 107 137 171 214 262 312
#     4   9  19  37  60  85 111 139 176 221 266 315
#     4  11  24  37  50  76 112 143 174 218 268 314
#
# _framework density 20.843857
#
# number of rings (size 3 to 8) (size 9 to 14) (size 15 to 20)
#    0.000    2.333    0.000    4.000    0.000   10.667 
#    0.000   10.000    0.000    0.000    0.000    0.000 
#    0.000    0.000    0.000    0.000    0.000    0.000 
#
# Total GULP energy -595351.944788 kJ/mol
# GULP energy per Si atom -12403.165516 kJ/mol
# Density = 2.079642 g / cm^3
# Si number density = 20.843857 Si / 1000 Ang^3
#
#
#
# Elastic Constant Matrix: (Units=GPa)
#
#
# Indices 1 2 3 4 5 6 
#
# 1 15.4975 -8.5180 10.5688 0.0000 0.0000 0.0000
# 2 -8.5180 15.4981 10.5689 0.0000 0.0000 0.0000
# 3 10.5688 10.5689 102.0724 0.0000 0.0000 0.0000
# 4 0.0000 0.0000 0.0000 9.3153 0.0000 0.0000
# 5 0.0000 0.0000 0.0000 0.0000 9.3154 0.0000
# 6 0.0000 0.0000 0.0000 0.0000 0.0000 36.3133
#
#
#
# Elastic Compliance Matrix: (Units=1/GPa)
#
#
# Indices 1 2 3 4 5 6 
#
# 1 0.125182 0.083540 -0.021612 0.000000 0.000000 0.000000
# 2 0.083540 0.125177 -0.021611 0.000000 0.000000 0.000000
# 3 -0.021612 -0.021611 0.014272 0.000000 0.000000 0.000000
# 4 0.000000 0.000000 0.000000 0.107350 0.000000 0.000000
# 5 0.000000 0.000000 0.000000 0.000000 0.107350 0.000000
# 6 0.000000 0.000000 0.000000 0.000000 0.000000 0.027538
#
#
# Mechanical properties :
#
#
# Convention : Reuss Voigt Hill
#
# Bulk Modulus (GPa) = 2.89632 17.58970 10.24301
# Shear Modulus (GPa) = 9.23664 19.01869 14.12766
#
# Velocity S-wave (km/s) = 2.10736 3.02393 2.60626
# Velocity P-wave (km/s) = 2.70441 4.54415 3.73920
#
# Compressibility (1/GPa) = 0.34526607
#
# Stress axis : x y z
#
# Youngs Moduli (GPa) = 7.98838 7.98869 70.06547
#
# Poissons Ratio (x) = -0.66738 1.51423
# Poissons Ratio (y) = -0.66735 1.51419
# Poissons Ratio (z) = 0.17264 0.17264
#
# Static dielectric constant tensor:
#      x y z
#    x 3.599760 0.000000 0.000000 
#    y 0.000000 3.599760 0.000000 
#    z 0.000000 0.000000 3.776430 
# 
# 
# High freq. dielectric constant tensor:
#      x y z
#    x 1.809340 0.000000 0.000000 
#    y 0.000000 1.809340 0.000000 
#    z 0.000000 0.000000 1.825800 
# 
# From -- ./inp_files/3034.got.cif
#   From: 2010.03.12/outbox.cif.g09.slc.cpg/sg90_2_cif.got.tgz:3034.got - 2010.04.08 20:26:03.
