data_PCOD8304800
_publ_section_title
;
Structure prediction by ZEFSAII (Michael W. Deem and Ramdas Pophale) SiO2 
 PCOD8304800
Probable space group: P 41 2 2
;
_chemical_formula_sum "Si O2"
_cell_formula_units_Z 36
_cell_length_a 11.613702
_cell_length_b 11.613702
_cell_length_c 14.776496
_cell_angle_alpha 90.000000
_cell_angle_beta 90.000000
_cell_angle_gamma 90.000000
_cell_volume 1993.025323
_symmetry_space_group_name_H-M "P 41 2 2"
_symmetry_group_IT_number 91
_symmetry_cell_setting 'tetragonal'
loop_
_space_group_symop_operation_xyz
x,y,z
-y,x,1/4+z
-x,-y,1/2+z
y,-x,3/4+z
x,-y,1/2-z
-x,y,-z
y,x,3/4-z
-y,-x,1/4-z
loop_
_atom_site_type_symbol
_atom_site_label
_atom_site_fract_x
_atom_site_fract_y
_atom_site_fract_z
Si Si1 0.890832 0.611283 0.298793
Si Si2 0.802189 0.071233 0.410050
Si Si3 0.691505 0.294938 0.905264
Si Si4 0.294797 0.454137 0.932762
Si Si5 0.000000 0.032303 0.000000
O O1 0.944720 0.500000 0.250000
O O2 0.798908 0.666951 0.231625
O O3 0.828551 0.581016 0.392633
O O4 0.993169 0.692722 0.324535
O O5 0.750328 0.197836 0.398746
O O6 0.879466 0.023337 0.329861
O O7 0.889592 0.053676 0.494074
O O8 0.591852 0.309725 0.829946
O O9 0.705291 0.415558 0.961354
O O10 0.397271 0.397271 0.875000
#
# Coordination Sequence:
#
# PCOD8304800 Si02
#       5
#     8   8   8   8   4
#     4   9  18  32  51  78 110 144 188 237 276 323
#     4  11  19  35  53  83 113 149 191 229 284 328
#     4  10  19  34  56  80 111 144 188 230 282 333
#     4   9  18  33  55  81 105 140 184 240 278 326
#     4  10  22  30  56  84 110 154 194 236 268 342
#
# _framework density 18.062992000000001
#
# number of rings (size 3 to 8) (size 9 to 14) (size 15 to 20)
#    0.000    2.222    2.222    3.333    6.222    0.000 
#    0.000    6.667    0.000    0.000    0.000    0.000 
#    0.000    0.000    0.000    0.000    0.000    0.000 
#
# Total GULP energy -446002.746046 kJ/mol
# GULP energy per Si atom -12388.965168 kJ/mol
# Density = 1.802188 g / cm^3
# Si number density = 18.062992 Si / 1000 Ang^3
#
#
#
# Elastic Constant Matrix: (Units=GPa)
#
#
# Indices 1 2 3 4 5 6 
#
# 1 133.8353 78.9464 47.2724 0.0000 0.0000 0.0000
# 2 78.9464 133.8353 47.2724 0.0000 0.0000 0.0000
# 3 47.2724 47.2724 49.8703 0.0000 0.0000 0.0000
# 4 0.0000 0.0000 0.0000 30.9486 0.0000 0.0000
# 5 0.0000 0.0000 0.0000 0.0000 30.9486 0.0000
# 6 0.0000 0.0000 0.0000 0.0000 0.0000 23.2615
#
#
#
# Elastic Compliance Matrix: (Units=1/GPa)
#
#
# Indices 1 2 3 4 5 6 
#
# 1 0.013169 -0.005050 -0.007696 0.000000 0.000000 0.000000
# 2 -0.005050 0.013169 -0.007696 0.000000 0.000000 0.000000
# 3 -0.007696 -0.007696 0.034643 0.000000 0.000000 0.000000
# 4 0.000000 0.000000 0.000000 0.032312 0.000000 0.000000
# 5 0.000000 0.000000 0.000000 0.000000 0.032312 0.000000
# 6 0.000000 0.000000 0.000000 0.000000 0.000000 0.042989
#
#
# Mechanical properties :
#
#
# Convention : Reuss Voigt Hill
#
# Bulk Modulus (GPa) = 49.76096 73.83591 61.79843
# Shear Modulus (GPa) = 23.12916 26.63504 24.88210
#
# Velocity S-wave (km/s) = 3.58225 3.84417 3.71552
# Velocity P-wave (km/s) = 6.68718 7.78904 7.25905
#
# Compressibility (1/GPa) = 0.02009608
#
# Stress axis : x y z
#
# Youngs Moduli (GPa) = 75.93585 75.93585 28.86590
#
# Poissons Ratio (x) = 0.38345 0.22216
# Poissons Ratio (y) = 0.38345 0.22216
# Poissons Ratio (z) = 0.58443 0.58443
#
# Static dielectric constant tensor:
#      x y z
#    x 3.401940 0.000000 0.000000 
#    y 0.000000 3.401940 0.000000 
#    z 0.000000 0.000000 3.316260 
# 
# 
# High freq. dielectric constant tensor:
#      x y z
#    x 1.698120 0.000000 0.000000 
#    y 0.000000 1.698120 0.000000 
#    z 0.000000 0.000000 1.676210 
# 
# From -- ./inp_files/4583.got.cif
#   From: 2010.03.12/outbox.cif.g09.slc.cpg/sg91_3_cif.got.tgz:4583.got - 2010.04.08 20:27:58.
