data_PCOD8304612
_publ_section_title
;
Structure prediction by ZEFSAII (Michael W. Deem and Ramdas Pophale) SiO2 
 PCOD8304612
Probable space group: P 4 21 2
;
_chemical_formula_sum "Si O2"
_cell_formula_units_Z 56
_cell_length_a 11.607740
_cell_length_b 11.607740
_cell_length_c 19.883344
_cell_angle_alpha 90.000000
_cell_angle_beta 90.000000
_cell_angle_gamma 90.000000
_cell_volume 2679.074372
_symmetry_space_group_name_H-M "P 4 21 2"
_symmetry_group_IT_number 90
_symmetry_cell_setting 'tetragonal'
loop_
_space_group_symop_operation_xyz
x,y,z
1/2-y,1/2+x,z
-x,-y,z
1/2+y,1/2-x,z
1/2+x,1/2-y,-z
1/2-x,1/2+y,-z
y,x,-z
-y,-x,-z
loop_
_atom_site_type_symbol
_atom_site_label
_atom_site_fract_x
_atom_site_fract_y
_atom_site_fract_z
Si Si1 0.897972 0.910955 0.659886
Si Si2 0.987468 0.315314 0.979856
Si Si3 0.815430 0.471637 0.585135
Si Si4 0.865077 0.818282 0.797883
Si Si5 0.101429 0.769561 0.841927
Si Si6 0.365061 0.496740 0.092616
Si Si7 0.523324 0.185687 0.571432
O O1 0.953997 0.797930 0.628201
O O2 0.828922 0.879651 0.728616
O O3 0.804191 0.967573 0.611326
O O4 0.000000 0.000000 0.674438
O O5 0.879028 0.394260 0.998700
O O6 0.974512 0.289325 0.901120
O O7 0.992927 0.197271 0.020853
O O8 0.870543 0.594853 0.603136
O O9 0.783381 0.469280 0.506836
O O10 0.812805 0.691123 0.805176
O O11 0.003728 0.808269 0.789501
O O12 0.826936 0.894267 0.862378
O O13 0.170737 0.880470 0.868584
O O14 0.500000 0.500000 0.078424
O O15 0.401446 0.126942 0.589691
#
# Coordination Sequence:
#
# PCOD8304612 Si02
#       7
#     8   8   8   8   8   8   8
#     4  12  26  40  65 100 136 178 229 276 330 405
#     4  11  22  39  64  92 120 154 209 263 315 383
#     4   9  21  42  66 100 137 175 226 282 340 390
#     4  11  26  42  64  90 130 170 217 262 324 396
#     4  11  22  43  63  85 125 167 205 263 323 379
#     4  10  23  41  62  93 125 161 202 258 324 389
#     4   9  21  43  69  95 133 179 224 281 337 393
#
# _framework density 20.902742
#
# number of rings (size 3 to 8) (size 9 to 14) (size 15 to 20)
#    0.000    1.571    1.429    3.857    4.000    6.571 
#    0.000    0.000    0.000    1.714    0.000    0.000 
#    0.000    0.000    0.000    0.000    0.000    0.000 
#
# Total GULP energy -694481.813480 kJ/mol
# GULP energy per Si atom -12401.460955 kJ/mol
# Density = 2.085517 g / cm^3
# Si number density = 20.902742 Si / 1000 Ang^3
#
#
#
# Elastic Constant Matrix: (Units=GPa)
#
#
# Indices 1 2 3 4 5 6 
#
# 1 90.2074 27.2061 35.8844 0.0000 0.0000 0.0000
# 2 27.2061 90.2074 35.8844 0.0000 0.0000 0.0000
# 3 35.8844 35.8844 80.1921 0.0000 0.0000 0.0000
# 4 0.0000 0.0000 0.0000 28.3489 0.0000 0.0000
# 5 0.0000 0.0000 0.0000 0.0000 28.3489 0.0000
# 6 0.0000 0.0000 0.0000 0.0000 0.0000 26.1207
#
#
#
# Elastic Compliance Matrix: (Units=1/GPa)
#
#
# Indices 1 2 3 4 5 6 
#
# 1 0.013798 -0.002075 -0.005246 0.000000 0.000000 0.000000
# 2 -0.002075 0.013798 -0.005246 0.000000 0.000000 0.000000
# 3 -0.005246 -0.005246 0.017165 0.000000 0.000000 0.000000
# 4 0.000000 0.000000 0.000000 0.035275 0.000000 0.000000
# 5 0.000000 0.000000 0.000000 0.000000 0.035275 0.000000
# 6 0.000000 0.000000 0.000000 0.000000 0.000000 0.038284
#
#
# Mechanical properties :
#
#
# Convention : Reuss Voigt Hill
#
# Bulk Modulus (GPa) = 50.94780 50.95076 50.94928
# Shear Modulus (GPa) = 26.98756 27.33918 27.16337
#
# Velocity S-wave (km/s) = 3.59709 3.62045 3.60879
# Velocity P-wave (km/s) = 6.45591 6.47340 6.46466
#
# Compressibility (1/GPa) = 0.01962793
#
# Stress axis : x y z
#
# Youngs Moduli (GPa) = 72.47362 72.47362 58.25782
#
# Poissons Ratio (x) = 0.15035 0.30562
# Poissons Ratio (y) = 0.15035 0.30562
# Poissons Ratio (z) = 0.38020 0.38020
#
# Static dielectric constant tensor:
#      x y z
#    x 3.829270 0.000000 0.000000 
#    y 0.000000 3.829270 0.000000 
#    z 0.000000 0.000000 3.686580 
# 
# 
# High freq. dielectric constant tensor:
#      x y z
#    x 1.822190 0.000000 0.000000 
#    y 0.000000 1.822190 0.000000 
#    z 0.000000 0.000000 1.812930 
# 
# From -- ./inp_files/2828.got.cif
#   From: 2010.03.12/outbox.cif.g09.slc.cpg/sg90_2_cif.got.tgz:2828.got - 2010.04.08 20:26:03.
