data_PCOD8304977
_publ_section_title
;
Structure prediction by ZEFSAII (Michael W. Deem and Ramdas Pophale) SiO2 
 PCOD8304977
Probable space group: P 41 2 2
;
_chemical_formula_sum "Si O2"
_cell_formula_units_Z 36
_cell_length_a 10.188726
_cell_length_b 10.188726
_cell_length_c 17.327147
_cell_angle_alpha 90.000000
_cell_angle_beta 90.000000
_cell_angle_gamma 90.000000
_cell_volume 1798.733513
_symmetry_space_group_name_H-M "P 41 2 2"
_symmetry_group_IT_number 91
_symmetry_cell_setting 'tetragonal'
loop_
_space_group_symop_operation_xyz
x,y,z
-y,x,1/4+z
-x,-y,1/2+z
y,-x,3/4+z
x,-y,1/2-z
-x,y,-z
y,x,3/4-z
-y,-x,1/4-z
loop_
_atom_site_type_symbol
_atom_site_label
_atom_site_fract_x
_atom_site_fract_y
_atom_site_fract_z
Si Si1 0.853395 0.492569 0.128379
Si Si2 0.265013 0.139548 0.220814
Si Si3 0.879841 0.394697 0.811309
Si Si4 0.481103 0.768921 0.781187
Si Si5 0.500000 0.631765 0.500000
O O1 0.877113 0.649133 0.109095
O O2 0.720469 0.472499 0.175432
O O3 0.966629 0.424779 0.178437
O O4 0.842019 0.420193 0.044883
O O5 0.145881 0.243878 0.214027
O O6 0.207024 0.000000 0.250000
O O7 0.364703 0.806051 0.213217
O O8 0.822377 0.500000 0.750000
O O9 0.808286 0.406251 0.892575
O O10 0.468354 0.615318 0.768254
#
# Coordination Sequence:
#
# PCOD8304977 Si02
#       5
#     8   8   8   8   4
#     4  10  21  40  62  90 130 170 213 273 326 397
#     4  10  22  41  62  92 132 169 205 278 339 386
#     4  12  23  39  66  95 129 180 220 262 341 403
#     4  10  21  40  63  94 134 163 212 277 337 383
#     4  12  20  38  66  98 120 160 218 270 332 396
#
# _framework density 20.01408
#
# number of rings (size 3 to 8) (size 9 to 14) (size 15 to 20)
#    1.333    0.000    5.556    1.333    1.556    0.889 
#    0.000    0.000    0.000   12.000    0.000    0.000 
#    0.000    0.000    0.000    0.000    0.000    0.000 
#
# Total GULP energy -445979.363227 kJ/mol
# GULP energy per Si atom -12388.315645 kJ/mol
# Density = 1.996853 g / cm^3
# Si number density = 20.014080 Si / 1000 Ang^3
#
#
#
# Elastic Constant Matrix: (Units=GPa)
#
#
# Indices 1 2 3 4 5 6 
#
# 1 89.8693 60.2298 23.9780 0.0000 0.0000 0.0000
# 2 60.2298 89.8693 23.9780 0.0000 0.0000 0.0000
# 3 23.9780 23.9780 102.0773 0.0000 0.0000 0.0000
# 4 0.0000 0.0000 0.0000 18.6875 0.0000 0.0000
# 5 0.0000 0.0000 0.0000 0.0000 18.6875 0.0000
# 6 0.0000 0.0000 0.0000 0.0000 0.0000 22.8263
#
#
#
# Elastic Compliance Matrix: (Units=1/GPa)
#
#
# Indices 1 2 3 4 5 6 
#
# 1 0.020471 -0.013268 -0.001692 0.000000 0.000000 0.000000
# 2 -0.013268 0.020471 -0.001692 0.000000 0.000000 0.000000
# 3 -0.001692 -0.001692 0.010591 0.000000 0.000000 0.000000
# 4 0.000000 0.000000 0.000000 0.053512 0.000000 0.000000
# 5 0.000000 0.000000 0.000000 0.000000 0.053512 0.000000
# 6 0.000000 0.000000 0.000000 0.000000 0.000000 0.043809
#
#
# Mechanical properties :
#
#
# Convention : Reuss Voigt Hill
#
# Bulk Modulus (GPa) = 54.85686 55.35415 55.10551
# Shear Modulus (GPa) = 20.68293 23.61563 22.14928
#
# Velocity S-wave (km/s) = 3.21817 3.43877 3.33030
# Velocity P-wave (km/s) = 6.42475 6.59428 6.51007
#
# Compressibility (1/GPa) = 0.01822926
#
# Stress axis : x y z
#
# Youngs Moduli (GPa) = 48.85019 48.85019 94.41643
#
# Poissons Ratio (x) = 0.64814 0.15975
# Poissons Ratio (y) = 0.64814 0.15975
# Poissons Ratio (z) = 0.08265 0.08265
#
# Static dielectric constant tensor:
#      x y z
#    x 3.438530 0.000000 0.000000 
#    y 0.000000 3.438530 0.000000 
#    z 0.000000 0.000000 3.753740 
# 
# 
# High freq. dielectric constant tensor:
#      x y z
#    x 1.757360 0.000000 0.000000 
#    y 0.000000 1.757360 0.000000 
#    z 0.000000 0.000000 1.790890 
# 
# From -- ./inp_files/7282.got.cif
#   From: 2010.03.12/outbox.cif.g09.slc.cpg/sg91_4_cif.got.tgz:7282.got - 2010.04.08 20:27:58.
