data_PCOD8304400
_publ_section_title
;
Structure prediction by ZEFSAII (Michael W. Deem and Ramdas Pophale) SiO2 
 PCOD8304400
Probable space group: I 41/A
;
_chemical_formula_sum "Si O2"
_cell_formula_units_Z 96
_cell_length_a 15.008996
_cell_length_b 15.008996
_cell_length_c 18.454856
_cell_angle_alpha 90.000000
_cell_angle_beta 90.000000
_cell_angle_gamma 90.000000
_cell_volume 4157.324690
_symmetry_space_group_name_H-M "I 41/A"
_symmetry_group_IT_number 88
_space_group.IT_coordinate_system_code '2'
_symmetry_cell_setting 'tetragonal'
loop_
_space_group_symop_operation_xyz
x,y,z
3/4-y,1/4+x,1/4+z
-x,1/2-y,z
1/4+y,1/4-x,1/4+z
-x,-y,-z
1/4+y,3/4-x,3/4-z
x,1/2+y,-z
3/4-y,3/4+x,3/4-z
1/2+x,1/2+y,1/2+z
1/4-y,3/4+x,3/4+z
1/2-x,-y,1/2+z
3/4+y,3/4-x,3/4+z
1/2-x,1/2-y,1/2-z
3/4+y,1/4-x,1/4-z
1/2+x,y,1/2-z
1/4-y,1/4+x,1/4-z
loop_
_atom_site_type_symbol
_atom_site_label
_atom_site_fract_x
_atom_site_fract_y
_atom_site_fract_z
Si Si1 0.928422 0.320777 0.915121
Si Si2 0.241121 0.100253 0.425487
Si Si3 0.803421 0.717862 0.543718
Si Si4 0.692151 0.931123 0.731465
Si Si5 0.206174 0.294384 0.820528
Si Si6 0.625454 0.720427 0.098386
O O1 0.981331 0.391821 0.867161
O O2 0.889083 0.373612 0.983682
O O3 0.853635 0.276701 0.863744
O O4 0.000000 0.250000 0.945279
O O5 0.267460 0.198631 0.457209
O O6 0.259840 0.104688 0.340057
O O7 0.136274 0.094197 0.447131
O O8 0.294844 0.019764 0.461814
O O9 0.764074 0.618873 0.541059
O O10 0.869111 0.725813 0.476070
O O11 0.250000 0.250000 0.750000
O O12 0.283382 0.325222 0.876637
O O13 0.546240 0.648914 0.091438
#
# Coordination Sequence:
#
# PCOD8304400 Si02
#       6
#    16  16  16  16  16  16
#     4  12  26  48  73 105 153 200 252 323 379 461
#     4  12  27  47  78 108 154 209 256 322 392 462
#     4  12  25  48  72 108 152 200 256 315 386 463
#     4  12  27  51  76 110 153 201 264 321 387 468
#     4  12  24  41  70 106 148 198 250 310 394 461
#     4  11  23  37  65 106 145 186 239 306 381 466
#
# _framework density 23.091773
#
# number of rings (size 3 to 8) (size 9 to 14) (size 15 to 20)
#    0.000    0.167    5.000    5.000    2.333    0.667 
#    3.000    0.000    0.000    0.000    0.000    0.000 
#    0.000    0.000    0.000    0.000    0.000    0.000 
#
# Total GULP energy -595118.913028 kJ/mol
# GULP energy per Si atom -12398.310688 kJ/mol
# Density = 2.303922 g / cm^3
# Si number density = 23.091773 Si / 1000 Ang^3
#
#
#
# Elastic Constant Matrix: (Units=GPa)
#
#
# Indices 1 2 3 4 5 6 
#
# 1 93.2376 17.0549 24.1839 0.0000 0.0000 -2.9466
# 2 17.0549 93.2376 24.1840 0.0000 0.0000 2.9466
# 3 24.1839 24.1840 105.4387 0.0000 0.0000 0.0000
# 4 0.0000 0.0000 0.0000 39.6803 0.0000 0.0000
# 5 0.0000 0.0000 0.0000 0.0000 39.6803 0.0000
# 6 -2.9466 2.9466 0.0000 0.0000 0.0000 36.7926
#
#
#
# Elastic Compliance Matrix: (Units=1/GPa)
#
#
# Indices 1 2 3 4 5 6 
#
# 1 0.011644 -0.001564 -0.002312 0.000000 0.000000 0.001058
# 2 -0.001564 0.011644 -0.002312 0.000000 0.000000 -0.001058
# 3 -0.002312 -0.002312 0.010545 0.000000 0.000000 0.000000
# 4 0.000000 0.000000 0.000000 0.025201 0.000000 0.000000
# 5 0.000000 0.000000 0.000000 0.000000 0.025201 0.000000
# 6 0.001058 -0.001058 0.000000 0.000000 0.000000 0.027349
#
#
# Mechanical properties :
#
#
# Convention : Reuss Voigt Hill
#
# Bulk Modulus (GPa) = 46.60331 46.97328 46.78830
# Shear Modulus (GPa) = 38.13472 38.33005 38.23239
#
# Velocity S-wave (km/s) = 4.06820 4.07861 4.07341
# Velocity P-wave (km/s) = 6.50328 6.52428 6.51379
#
# Compressibility (1/GPa) = 0.02145770
#
# Stress axis : x y z
#
# Youngs Moduli (GPa) = 85.87765 85.87766 94.83305
#
# Poissons Ratio (x) = 0.13429 0.21927
# Poissons Ratio (y) = 0.13429 0.21927
# Poissons Ratio (z) = 0.19856 0.19856
#
# Static dielectric constant tensor:
#      x y z
#    x 4.205160 0.000000 0.000000 
#    y 0.000000 4.205160 0.000000 
#    z 0.000000 0.000000 4.087640 
# 
# 
# High freq. dielectric constant tensor:
#      x y z
#    x 1.914520 0.000000 0.000000 
#    y 0.000000 1.914520 0.000000 
#    z 0.000000 0.000000 1.916190 
# 
# From -- ./inp_files/4685.got.cif
#   From: 2010.03.12/outbox.cif.g09.slc.cpg/sg88_3_cif.got.tgz:4685.got - 2010.04.08 20:20:55.
