data_PCOD8304997
_publ_section_title
;
Structure prediction by ZEFSAII (Michael W. Deem and Ramdas Pophale) SiO2 
 PCOD8304997
Probable space group: P 41 2 2
;
_chemical_formula_sum "Si O2"
_cell_formula_units_Z 40
_cell_length_a 8.565662
_cell_length_b 8.565662
_cell_length_c 24.369075
_cell_angle_alpha 90.000000
_cell_angle_beta 90.000000
_cell_angle_gamma 90.000000
_cell_volume 1787.972813
_symmetry_space_group_name_H-M "P 41 2 2"
_symmetry_group_IT_number 91
_symmetry_cell_setting 'tetragonal'
loop_
_space_group_symop_operation_xyz
x,y,z
-y,x,1/4+z
-x,-y,1/2+z
y,-x,3/4+z
x,-y,1/2-z
-x,y,-z
y,x,3/4-z
-y,-x,1/4-z
loop_
_atom_site_type_symbol
_atom_site_label
_atom_site_fract_x
_atom_site_fract_y
_atom_site_fract_z
Si Si1 0.436291 0.917281 0.304274
Si Si2 0.104701 0.790013 0.567545
Si Si3 0.130755 0.629538 0.147829
Si Si4 0.372457 0.364003 0.615866
Si Si5 0.232927 0.134435 0.045794
O O1 0.617009 0.957976 0.308342
O O2 0.406629 0.732324 0.312157
O O3 0.367679 0.000000 0.250000
O O4 0.347206 0.994381 0.354128
O O5 0.193973 0.806028 0.625000
O O6 0.227415 0.827748 0.519090
O O7 0.945253 0.890132 0.567212
O O8 0.270291 0.729710 0.125000
O O9 0.203641 0.457170 0.152758
O O10 0.037662 0.684946 0.202084
O O11 0.491218 0.508783 0.625000
O O12 0.270639 0.328216 0.671068
#
# Coordination Sequence:
#
# PCOD8304997 Si02
#       5
#     8   8   8   8   8
#     4  11  21  42  66  93 133 184 219 273 344 410
#     4  11  21  40  69  97 130 177 231 276 340 406
#     4  10  21  42  64  99 136 166 224 285 341 404
#     4  10  21  41  72 101 138 177 227 283 350 415
#     4  10  21  42  69  96 136 174 224 285 343 406
#
# _framework density 22.371701999999999
#
# number of rings (size 3 to 8) (size 9 to 14) (size 15 to 20)
#    0.000    1.600    4.000    1.200    0.000    0.000 
#   10.800   21.000    0.000    0.000    0.000    0.000 
#    0.000    0.000    0.000    0.000    0.000    0.000 
#
# Total GULP energy -495588.621349 kJ/mol
# GULP energy per Si atom -12389.715534 kJ/mol
# Density = 2.232078 g / cm^3
# Si number density = 22.371702 Si / 1000 Ang^3
#
#
#
# Elastic Constant Matrix: (Units=GPa)
#
#
# Indices 1 2 3 4 5 6 
#
# 1 93.3754 48.7842 43.5544 0.0000 0.0000 0.0000
# 2 48.7842 93.3753 43.5533 0.0000 0.0000 0.0000
# 3 43.5544 43.5533 138.2661 0.0000 0.0000 0.0000
# 4 0.0000 0.0000 0.0000 29.4401 0.0000 0.0000
# 5 0.0000 0.0000 0.0000 0.0000 29.4398 0.0000
# 6 0.0000 0.0000 0.0000 0.0000 0.0000 41.0774
#
#
#
# Elastic Compliance Matrix: (Units=1/GPa)
#
#
# Indices 1 2 3 4 5 6 
#
# 1 0.015571 -0.006855 -0.002746 0.000000 0.000000 0.000000
# 2 -0.006855 0.015571 -0.002746 0.000000 0.000000 0.000000
# 3 -0.002746 -0.002746 0.008962 0.000000 0.000000 0.000000
# 4 0.000000 0.000000 0.000000 0.033967 0.000000 0.000000
# 5 0.000000 0.000000 0.000000 0.000000 0.033968 0.000000
# 6 0.000000 0.000000 0.000000 0.000000 0.000000 0.024344
#
#
# Mechanical properties :
#
#
# Convention : Reuss Voigt Hill
#
# Bulk Modulus (GPa) = 64.88139 66.31116 65.59627
# Shear Modulus (GPa) = 30.82342 32.59976 31.71159
#
# Velocity S-wave (km/s) = 3.71588 3.82145 3.76904
# Velocity P-wave (km/s) = 6.89020 7.01258 6.95166
#
# Compressibility (1/GPa) = 0.01541274
#
# Stress axis : x y z
#
# Youngs Moduli (GPa) = 64.22013 64.22054 111.57861
#
# Poissons Ratio (x) = 0.44020 0.30638
# Poissons Ratio (y) = 0.44020 0.30636
# Poissons Ratio (z) = 0.17634 0.17633
#
# Static dielectric constant tensor:
#      x y z
#    x 3.985760 0.000000 0.000000 
#    y 0.000000 3.985750 0.000000 
#    z 0.000000 0.000000 4.040700 
# 
# 
# High freq. dielectric constant tensor:
#      x y z
#    x 1.885590 0.000000 0.000000 
#    y 0.000000 1.885590 0.000000 
#    z 0.000000 0.000000 1.867380 
# 
# From -- ./inp_files/12757.got.cif
#   From: 2010.03.12/outbox.cif.g09.slc.cpg/sg91_7_cif.got.tgz:12757.got - 2010.04.08 20:27:58.
