data_PCOD8304296
_publ_section_title
;
Structure prediction by ZEFSAII (Michael W. Deem and Ramdas Pophale) SiO2 
 PCOD8304296
Probable space group: I 41/A
;
_chemical_formula_sum "Si O2"
_cell_formula_units_Z 96
_cell_length_a 22.728345
_cell_length_b 22.728345
_cell_length_c 9.338232
_cell_angle_alpha 90.000000
_cell_angle_beta 90.000000
_cell_angle_gamma 90.000000
_cell_volume 4823.922095
_symmetry_space_group_name_H-M "I 41/A"
_symmetry_group_IT_number 88
_space_group.IT_coordinate_system_code '2'
_symmetry_cell_setting 'tetragonal'
loop_
_space_group_symop_operation_xyz
x,y,z
3/4-y,1/4+x,1/4+z
-x,1/2-y,z
1/4+y,1/4-x,1/4+z
-x,-y,-z
1/4+y,3/4-x,3/4-z
x,1/2+y,-z
3/4-y,3/4+x,3/4-z
1/2+x,1/2+y,1/2+z
1/4-y,3/4+x,3/4+z
1/2-x,-y,1/2+z
3/4+y,3/4-x,3/4+z
1/2-x,1/2-y,1/2-z
3/4+y,1/4-x,1/4-z
1/2+x,y,1/2-z
1/4-y,1/4+x,1/4-z
loop_
_atom_site_type_symbol
_atom_site_label
_atom_site_fract_x
_atom_site_fract_y
_atom_site_fract_z
Si Si1 0.296616 0.546510 0.965601
Si Si2 0.212513 0.670022 0.361125
Si Si3 0.451178 0.071691 0.594566
Si Si4 0.910826 0.272431 0.119710
Si Si5 0.073948 0.021197 0.867520
Si Si6 0.190012 0.239122 0.904970
O O1 0.242938 0.536938 0.074943
O O2 0.355744 0.527796 0.047295
O O3 0.302320 0.613824 0.911641
O O4 0.172669 0.666785 0.504926
O O5 0.178747 0.714010 0.253315
O O6 0.276123 0.698362 0.400111
O O7 0.440848 0.127575 0.493294
O O8 0.521549 0.068463 0.621302
O O9 0.425316 0.013780 0.517362
O O10 0.936567 0.212828 0.189321
O O11 0.871045 0.252920 0.986252
O O12 0.060562 0.977943 0.735849
#
# Coordination Sequence:
#
# PCOD8304296 Si02
#       6
#    16  16  16  16  16  16
#     4  12  27  41  58  94 137 167 206 264 325 379
#     4  10  21  40  63  92 120 163 214 250 307 380
#     4   9  20  38  67  89 112 165 215 249 303 378
#     4  10  22  39  60  92 121 154 206 261 315 363
#     4   9  19  40  61  87 120 163 213 246 299 379
#     4   9  19  42  64  85 121 167 208 258 305 377
#
# _framework density 19.900817
#
# number of rings (size 3 to 8) (size 9 to 14) (size 15 to 20)
#    0.000    2.167    1.667    1.000    4.667    1.333 
#    3.000    0.000    0.000    2.000    0.000    0.000 
#    0.000    0.000    0.000    0.000    0.000    0.000 
#
# Total GULP energy -595109.381424 kJ/mol
# GULP energy per Si atom -12398.112113 kJ/mol
# Density = 1.985552 g / cm^3
# Si number density = 19.900817 Si / 1000 Ang^3
#
#
#
# Elastic Constant Matrix: (Units=GPa)
#
#
# Indices 1 2 3 4 5 6 
#
# 1 71.7818 13.5486 17.4990 0.0000 0.0000 1.1307
# 2 13.5486 71.7818 17.4990 0.0000 0.0000 -1.1307
# 3 17.4990 17.4990 108.1105 0.0000 0.0000 0.0000
# 4 0.0000 0.0000 0.0000 28.8452 0.0000 0.0000
# 5 0.0000 0.0000 0.0000 0.0000 28.8452 0.0000
# 6 1.1307 -1.1307 0.0000 0.0000 0.0000 17.0173
#
#
#
# Elastic Compliance Matrix: (Units=1/GPa)
#
#
# Indices 1 2 3 4 5 6 
#
# 1 0.014885 -0.002332 -0.002032 0.000000 0.000000 -0.001144
# 2 -0.002332 0.014885 -0.002032 0.000000 0.000000 0.001144
# 3 -0.002032 -0.002032 0.009908 0.000000 0.000000 0.000000
# 4 0.000000 0.000000 0.000000 0.034668 0.000000 0.000000
# 5 0.000000 0.000000 0.000000 0.000000 0.034668 0.000000
# 6 -0.001144 0.001144 0.000000 0.000000 0.000000 0.058916
#
#
# Mechanical properties :
#
#
# Convention : Reuss Voigt Hill
#
# Bulk Modulus (GPa) = 37.19491 38.75193 37.97342
# Shear Modulus (GPa) = 26.35998 28.48335 27.42166
#
# Velocity S-wave (km/s) = 3.64341 3.78731 3.71606
# Velocity P-wave (km/s) = 6.03572 6.21609 6.12657
#
# Compressibility (1/GPa) = 0.02688540
#
# Stress axis : x y z
#
# Youngs Moduli (GPa) = 67.18340 67.18340 100.93326
#
# Poissons Ratio (x) = 0.15668 0.20507
# Poissons Ratio (y) = 0.15668 0.20507
# Poissons Ratio (z) = 0.13650 0.13650
#
# Static dielectric constant tensor:
#      x y z
#    x 3.433770 0.000000 0.000000 
#    y 0.000000 3.433770 0.000000 
#    z 0.000000 0.000000 3.843530 
# 
# 
# High freq. dielectric constant tensor:
#      x y z
#    x 1.760410 0.000000 0.000000 
#    y 0.000000 1.760410 0.000000 
#    z 0.000000 0.000000 1.789420 
# 
# From -- ./inp_files/1695.got.cif
#   From: 2010.03.12/outbox.cif.g09.slc.cpg/sg88_1_cif.got.tgz:1695.got - 2010.04.08 20:20:55.
