data_PCOD8304245
_publ_section_title
;
Structure prediction by ZEFSAII (Michael W. Deem and Ramdas Pophale) SiO2 
 PCOD8304245
Probable space group: I 41/A
;
_chemical_formula_sum "Si O2"
_cell_formula_units_Z 72
_cell_length_a 12.451712
_cell_length_b 12.451712
_cell_length_c 18.483495
_cell_angle_alpha 90.000000
_cell_angle_beta 90.000000
_cell_angle_gamma 90.000000
_cell_volume 2865.775917
_symmetry_space_group_name_H-M "I 41/A"
_symmetry_group_IT_number 88
_space_group.IT_coordinate_system_code '2'
_symmetry_cell_setting 'tetragonal'
loop_
_space_group_symop_operation_xyz
x,y,z
3/4-y,1/4+x,1/4+z
-x,1/2-y,z
1/4+y,1/4-x,1/4+z
-x,-y,-z
1/4+y,3/4-x,3/4-z
x,1/2+y,-z
3/4-y,3/4+x,3/4-z
1/2+x,1/2+y,1/2+z
1/4-y,3/4+x,3/4+z
1/2-x,-y,1/2+z
3/4+y,3/4-x,3/4+z
1/2-x,1/2-y,1/2-z
3/4+y,1/4-x,1/4-z
1/2+x,y,1/2-z
1/4-y,1/4+x,1/4-z
loop_
_atom_site_type_symbol
_atom_site_label
_atom_site_fract_x
_atom_site_fract_y
_atom_site_fract_z
Si Si1 0.500000 0.750000 0.365103
Si Si2 0.736191 0.990085 0.690588
Si Si3 0.618114 0.086610 0.563782
Si Si4 0.715507 0.231071 0.907804
Si Si5 0.872497 0.816709 0.262354
O O1 0.498017 0.861849 0.412818
O O2 0.604751 0.748947 0.311880
O O3 0.659268 0.996888 0.620423
O O4 0.858225 0.003551 0.667974
O O5 0.703393 0.080700 0.748269
O O6 0.713576 0.875751 0.732835
O O7 0.686733 0.196542 0.567027
O O8 0.688207 0.255489 0.822657
O O9 0.610513 0.263628 0.955135
#
# Coordination Sequence:
#
# PCOD8304245 Si02
#       5
#     8  16  16  16  16
#     4  10  22  35  58  84 125 168 224 268 326 410
#     4  10  20  38  54  88 132 164 218 276 345 407
#     4  10  23  39  60  92 128 177 222 278 343 410
#     4  11  19  36  57  90 131 168 212 275 354 407
#     4  10  21  31  54  87 124 166 215 267 336 412
#
# _framework density 25.124085000000001
#
# number of rings (size 3 to 8) (size 9 to 14) (size 15 to 20)
#    0.000    1.778    4.444    1.333    3.111    1.778 
#    0.000    1.111    0.000    0.000    0.000    0.000 
#    0.000    0.000    0.000    0.000    0.000    0.000 
#
# Total GULP energy -446047.791239 kJ/mol
# GULP energy per Si atom -12390.216423 kJ/mol
# Density = 2.506690 g / cm^3
# Si number density = 25.124085 Si / 1000 Ang^3
#
#
#
# Elastic Constant Matrix: (Units=GPa)
#
#
# Indices 1 2 3 4 5 6 
#
# 1 48.9481 -2.9983 19.2340 0.0000 0.0000 -11.4927
# 2 -2.9983 48.9481 19.2340 0.0000 0.0000 11.4927
# 3 19.2340 19.2340 112.9924 0.0000 0.0000 0.0000
# 4 0.0000 0.0000 0.0000 39.5946 0.0000 0.0000
# 5 0.0000 0.0000 0.0000 0.0000 39.5946 0.0000
# 6 -11.4927 11.4927 0.0000 0.0000 0.0000 28.2363
#
#
#
# Elastic Compliance Matrix: (Units=1/GPa)
#
#
# Indices 1 2 3 4 5 6 
#
# 1 0.024429 0.000950 -0.004320 0.000000 0.000000 0.009556
# 2 0.000950 0.024429 -0.004320 0.000000 0.000000 -0.009556
# 3 -0.004320 -0.004320 0.010321 0.000000 0.000000 0.000000
# 4 0.000000 0.000000 0.000000 0.025256 0.000000 0.000000
# 5 0.000000 0.000000 0.000000 0.000000 0.025256 0.000000
# 6 0.009556 -0.009556 0.000000 0.000000 0.000000 0.043195
#
#
# Mechanical properties :
#
#
# Convention : Reuss Voigt Hill
#
# Bulk Modulus (GPa) = 22.83139 31.31424 27.07281
# Shear Modulus (GPa) = 27.34235 33.17971 30.26103
#
# Velocity S-wave (km/s) = 3.30251 3.63799 3.47430
# Velocity P-wave (km/s) = 4.86305 5.48977 5.18588
#
# Compressibility (1/GPa) = 0.04379935
#
# Stress axis : x y z
#
# Youngs Moduli (GPa) = 40.93430 40.93430 96.89024
#
# Poissons Ratio (x) = -0.03890 0.41859
# Poissons Ratio (y) = -0.03890 0.41859
# Poissons Ratio (z) = 0.17685 0.17685
#
# Static dielectric constant tensor:
#      x y z
#    x 4.747980 0.000000 0.000000 
#    y 0.000000 4.747980 0.000000 
#    z 0.000000 0.000000 5.066940 
# 
# 
# High freq. dielectric constant tensor:
#      x y z
#    x 1.988380 0.000000 0.000000 
#    y 0.000000 1.988380 0.000000 
#    z 0.000000 0.000000 2.007640 
# 
# From -- ./inp_files/3825.got.cif
#   From: 2010.03.12/outbox.cif.g09.slc.cpg/sg88_2_cif.got.tgz:3825.got - 2010.04.08 20:20:55.
