data_PCOD8304306
_publ_section_title
;
Structure prediction by ZEFSAII (Michael W. Deem and Ramdas Pophale) SiO2 
 PCOD8304306
Probable space group: I 41/A
;
_chemical_formula_sum "Si O2"
_cell_formula_units_Z 88
_cell_length_a 10.638506
_cell_length_b 10.638506
_cell_length_c 34.013382
_cell_angle_alpha 90.000000
_cell_angle_beta 90.000000
_cell_angle_gamma 90.000000
_cell_volume 3849.560082
_symmetry_space_group_name_H-M "I 41/A"
_symmetry_group_IT_number 88
_space_group.IT_coordinate_system_code '2'
_symmetry_cell_setting 'tetragonal'
loop_
_space_group_symop_operation_xyz
x,y,z
3/4-y,1/4+x,1/4+z
-x,1/2-y,z
1/4+y,1/4-x,1/4+z
-x,-y,-z
1/4+y,3/4-x,3/4-z
x,1/2+y,-z
3/4-y,3/4+x,3/4-z
1/2+x,1/2+y,1/2+z
1/4-y,3/4+x,3/4+z
1/2-x,-y,1/2+z
3/4+y,3/4-x,3/4+z
1/2-x,1/2-y,1/2-z
3/4+y,1/4-x,1/4-z
1/2+x,y,1/2-z
1/4-y,1/4+x,1/4-z
loop_
_atom_site_type_symbol
_atom_site_label
_atom_site_fract_x
_atom_site_fract_y
_atom_site_fract_z
Si Si1 0.087850 0.551879 0.748839
Si Si2 0.583663 0.998663 0.334162
Si Si3 0.634665 0.573139 0.383030
Si Si4 0.178888 0.246486 0.813035
Si Si5 0.000000 0.250000 0.943745
Si Si6 0.652553 0.405445 0.988400
O O1 0.054211 0.579294 0.794789
O O2 0.097583 0.677080 0.722477
O O3 0.221985 0.483176 0.748197
O O4 0.970113 0.479814 0.728330
O O5 0.477716 0.017833 0.367143
O O6 0.574901 0.849144 0.325721
O O7 0.725536 0.018319 0.348663
O O8 0.705074 0.648961 0.348357
O O9 0.590821 0.667501 0.416774
O O10 0.308374 0.316005 0.799166
O O11 0.117923 0.179751 0.775655
#
# Coordination Sequence:
#
# PCOD8304306 Si02
#       6
#    16  16  16  16   8  16
#     4  11  25  46  67 108 142 192 245 301 362 456
#     4  11  25  44  71  97 144 191 243 287 374 432
#     4  12  25  44  70 106 143 196 232 308 370 434
#     4  10  21  43  70  99 134 183 240 295 363 428
#     4  12  26  42  70 103 154 186 238 309 368 424
#     4  10  23  41  77 102 137 188 249 302 366 445
#
# _framework density 22.859755
#
# number of rings (size 3 to 8) (size 9 to 14) (size 15 to 20)
#    0.000    1.091    3.636    2.182    5.091    6.909 
#    0.000    1.818    0.000    0.000    0.000    0.000 
#    0.000    0.000    0.000    0.000    0.000    0.000 
#
# Total GULP energy -545427.511812 kJ/mol
# GULP energy per Si atom -12396.079814 kJ/mol
# Density = 2.280773 g / cm^3
# Si number density = 22.859755 Si / 1000 Ang^3
#
#
#
# Elastic Constant Matrix: (Units=GPa)
#
#
# Indices 1 2 3 4 5 6 
#
# 1 91.4841 29.5222 37.0139 0.0000 0.0000 11.3225
# 2 29.5222 91.4841 37.0139 0.0000 0.0000 -11.3225
# 3 37.0139 37.0139 138.7285 0.0000 0.0000 0.0000
# 4 0.0000 0.0000 0.0000 38.4730 0.0000 0.0000
# 5 0.0000 0.0000 0.0000 0.0000 38.4730 0.0000
# 6 11.3225 -11.3225 0.0000 0.0000 0.0000 22.4864
#
#
#
# Elastic Compliance Matrix: (Units=1/GPa)
#
#
# Indices 1 2 3 4 5 6 
#
# 1 0.014827 -0.004951 -0.002635 0.000000 0.000000 -0.009959
# 2 -0.004951 0.014827 -0.002635 0.000000 0.000000 0.009959
# 3 -0.002635 -0.002635 0.008614 0.000000 0.000000 0.000000
# 4 0.000000 0.000000 0.000000 0.025992 0.000000 0.000000
# 5 0.000000 0.000000 0.000000 0.000000 0.025992 0.000000
# 6 -0.009959 0.009959 0.000000 0.000000 0.000000 0.054501
#
#
# Mechanical properties :
#
#
# Convention : Reuss Voigt Hill
#
# Bulk Modulus (GPa) = 56.09638 58.75519 57.42578
# Shear Modulus (GPa) = 29.21598 34.42958 31.82278
#
# Velocity S-wave (km/s) = 3.57887 3.88509 3.73512
# Velocity P-wave (km/s) = 6.45526 6.77373 6.61641
#
# Compressibility (1/GPa) = 0.01782646
#
# Stress axis : x y z
#
# Youngs Moduli (GPa) = 67.44285 67.44285 116.08464
#
# Poissons Ratio (x) = 0.33393 0.30588
# Poissons Ratio (y) = 0.33393 0.30588
# Poissons Ratio (z) = 0.17771 0.17771
#
# Static dielectric constant tensor:
#      x y z
#    x 3.999600 0.000000 0.000000 
#    y 0.000000 3.999600 0.000000 
#    z 0.000000 0.000000 4.370760 
# 
# 
# High freq. dielectric constant tensor:
#      x y z
#    x 1.895180 0.000000 0.000000 
#    y 0.000000 1.895180 0.000000 
#    z 0.000000 0.000000 1.914230 
# 
# From -- ./inp_files/6420.got.cif
#   From: 2010.03.12/outbox.cif.g09.slc.cpg/sg88_4_cif.got.tgz:6420.got - 2010.04.08 20:20:55.
