data_PCOD8304551
_publ_section_title
;
Structure prediction by ZEFSAII (Michael W. Deem and Ramdas Pophale) SiO2 
 PCOD8304551
Probable space group: P 4 21 2
;
_chemical_formula_sum "Si O2"
_cell_formula_units_Z 38
_cell_length_a 8.569403
_cell_length_b 8.569403
_cell_length_c 25.939606
_cell_angle_alpha 90.000000
_cell_angle_beta 90.000000
_cell_angle_gamma 90.000000
_cell_volume 1904.866349
_symmetry_space_group_name_H-M "P 4 21 2"
_symmetry_group_IT_number 90
_symmetry_cell_setting 'tetragonal'
loop_
_space_group_symop_operation_xyz
x,y,z
1/2-y,1/2+x,z
-x,-y,z
1/2+y,1/2-x,z
1/2+x,1/2-y,-z
1/2-x,1/2+y,-z
y,x,-z
-y,-x,-z
loop_
_atom_site_type_symbol
_atom_site_label
_atom_site_fract_x
_atom_site_fract_y
_atom_site_fract_z
Si Si1 0.593917 0.238580 0.864822
Si Si2 0.745100 0.529802 0.587692
Si Si3 0.239889 0.599416 0.953372
Si Si4 0.500000 0.500000 0.328540
Si Si5 0.000000 0.000000 0.500000
Si Si6 0.570745 0.244438 0.748168
O O1 0.414467 0.197683 0.875984
O O2 0.662158 0.373417 0.901061
O O3 0.602274 0.302196 0.806402
O O4 0.828851 0.364257 0.591206
O O5 0.630565 0.572998 0.634663
O O6 0.654478 0.513618 0.534178
O O7 0.201253 0.417201 0.956010
O O8 0.352205 0.647796 0.000000
O O9 0.380955 0.596579 0.292570
O O10 0.394587 0.189878 0.738438
#
# Coordination Sequence:
#
# PCOD8304551 Si02
#       6
#     8   8   8   4   2   8
#     4   9  19  36  57  80 106 138 178 223 269 319
#     4  10  21  36  54  81 115 146 184 234 280 324
#     4  11  24  39  56  81 110 139 176 221 270 329
#     4  11  20  33  56  82 109 148 185 220 276 334
#     4  10  20  36  60  80 104 152 198 228 274 332
#     4   9  19  35  54  78 108 142 183 227 268 322
#
# _framework density 19.948906000000001
#
# number of rings (size 3 to 8) (size 9 to 14) (size 15 to 20)
#    0.000    2.105    0.000    4.421    0.000    8.000 
#    0.000    0.000    0.000   12.632    0.000    0.000 
#    0.000    0.000    0.000    0.000    0.000    0.000 
#
# Total GULP energy -471065.299027 kJ/mol
# GULP energy per Si atom -12396.455238 kJ/mol
# Density = 1.990350 g / cm^3
# Si number density = 19.948906 Si / 1000 Ang^3
#
#
#
# Elastic Constant Matrix: (Units=GPa)
#
#
# Indices 1 2 3 4 5 6 
#
# 1 67.3512 12.4331 41.3177 0.0000 0.0000 0.0000
# 2 12.4331 67.3520 41.3181 0.0000 0.0000 0.0000
# 3 41.3177 41.3181 133.3706 0.0000 0.0000 0.0000
# 4 0.0000 0.0000 0.0000 26.4464 0.0000 0.0000
# 5 0.0000 0.0000 0.0000 0.0000 26.4464 0.0000
# 6 0.0000 0.0000 0.0000 0.0000 0.0000 23.6220
#
#
#
# Elastic Compliance Matrix: (Units=1/GPa)
#
#
# Indices 1 2 3 4 5 6 
#
# 1 0.018332 0.000123 -0.005717 0.000000 0.000000 0.000000
# 2 0.000123 0.018332 -0.005717 0.000000 0.000000 0.000000
# 3 -0.005717 -0.005717 0.011040 0.000000 0.000000 0.000000
# 4 0.000000 0.000000 0.000000 0.037812 0.000000 0.000000
# 5 0.000000 0.000000 0.000000 0.000000 0.037812 0.000000
# 6 0.000000 0.000000 0.000000 0.000000 0.000000 0.042333
#
#
# Mechanical properties :
#
#
# Convention : Reuss Voigt Hill
#
# Bulk Modulus (GPa) = 39.86991 50.91240 45.39116
# Shear Modulus (GPa) = 25.42631 26.83660 26.13146
#
# Velocity S-wave (km/s) = 3.57399 3.67177 3.62321
# Velocity P-wave (km/s) = 6.08774 6.59944 6.34875
#
# Compressibility (1/GPa) = 0.02508157
#
# Stress axis : x y z
#
# Youngs Moduli (GPa) = 54.54862 54.54916 90.57611
#
# Poissons Ratio (x) = -0.00673 0.51787
# Poissons Ratio (y) = -0.00673 0.51787
# Poissons Ratio (z) = 0.31188 0.31188
#
# Static dielectric constant tensor:
#      x y z
#    x 3.531700 0.000000 0.000000 
#    y 0.000000 3.531700 0.000000 
#    z 0.000000 0.000000 3.696380 
# 
# 
# High freq. dielectric constant tensor:
#      x y z
#    x 1.775290 0.000000 0.000000 
#    y 0.000000 1.775290 0.000000 
#    z 0.000000 0.000000 1.789740 
# 
# From -- ./inp_files/2913.got.cif
#   From: 2010.03.12/outbox.cif.g09.slc.cpg/sg90_2_cif.got.tgz:2913.got - 2010.04.08 20:26:03.
