data_PCOD8304611
_publ_section_title
;
Structure prediction by ZEFSAII (Michael W. Deem and Ramdas Pophale) SiO2 
 PCOD8304611
Probable space group: P 4 21 2
;
_chemical_formula_sum "Si O2"
_cell_formula_units_Z 40
_cell_length_a 12.281238
_cell_length_b 12.281238
_cell_length_c 13.170362
_cell_angle_alpha 90.000000
_cell_angle_beta 90.000000
_cell_angle_gamma 90.000000
_cell_volume 1986.469986
_symmetry_space_group_name_H-M "P 4 21 2"
_symmetry_group_IT_number 90
_symmetry_cell_setting 'tetragonal'
loop_
_space_group_symop_operation_xyz
x,y,z
1/2-y,1/2+x,z
-x,-y,z
1/2+y,1/2-x,z
1/2+x,1/2-y,-z
1/2-x,1/2+y,-z
y,x,-z
-y,-x,-z
loop_
_atom_site_type_symbol
_atom_site_label
_atom_site_fract_x
_atom_site_fract_y
_atom_site_fract_z
Si Si1 0.498271 0.623527 0.749929
Si Si2 0.296434 0.631242 0.891434
Si Si3 0.718362 0.600730 0.828468
Si Si4 0.677958 0.020808 0.600562
Si Si5 0.540986 0.827624 0.369018
O O1 0.500000 0.500000 0.705015
O O2 0.383758 0.650684 0.802253
O O3 0.591226 0.632460 0.837204
O O4 0.525384 0.711982 0.664190
O O5 0.254165 0.507182 0.892457
O O6 0.195692 0.709598 0.873008
O O7 0.347622 0.652379 0.000000
O O8 0.733155 0.573860 0.708338
O O9 0.593861 0.118637 0.624236
O O10 0.714373 0.038670 0.484266
O O11 0.421023 0.871415 0.346540
#
# Coordination Sequence:
#
# PCOD8304611 Si02
#       5
#     8   8   8   8   8
#     4  10  23  40  59  90 132 170 202 253 325 390
#     4  11  26  42  65  94 121 166 215 265 324 374
#     4  11  22  41  68  88 124 165 208 264 311 375
#     4   9  18  36  64  91 123 167 212 264 314 360
#     4   9  17  34  62  94 121 158 216 266 300 356
#
# _framework density 20.136223000000001
#
# number of rings (size 3 to 8) (size 9 to 14) (size 15 to 20)
#    0.000    2.000    2.000    2.400    2.800    4.000 
#    0.000    7.000    0.000    0.000    0.000    0.000 
#    0.000    0.000    0.000    0.000    0.000    0.000 
#
# Total GULP energy -495850.194876 kJ/mol
# GULP energy per Si atom -12396.254872 kJ/mol
# Density = 2.009039 g / cm^3
# Si number density = 20.136223 Si / 1000 Ang^3
#
#
#
# Elastic Constant Matrix: (Units=GPa)
#
#
# Indices 1 2 3 4 5 6 
#
# 1 91.6435 34.6883 14.7690 0.0000 0.0000 0.0000
# 2 34.6883 91.6450 14.7695 0.0000 0.0000 0.0000
# 3 14.7690 14.7695 54.9196 0.0000 0.0000 0.0000
# 4 0.0000 0.0000 0.0000 17.3170 0.0000 0.0000
# 5 0.0000 0.0000 0.0000 0.0000 17.3153 0.0000
# 6 0.0000 0.0000 0.0000 0.0000 0.0000 28.8422
#
#
#
# Elastic Compliance Matrix: (Units=1/GPa)
#
#
# Indices 1 2 3 4 5 6 
#
# 1 0.013002 -0.004555 -0.002271 0.000000 0.000000 0.000000
# 2 -0.004555 0.013002 -0.002272 0.000000 0.000000 0.000000
# 3 -0.002271 -0.002272 0.019430 0.000000 0.000000 0.000000
# 4 0.000000 0.000000 0.000000 0.057747 0.000000 0.000000
# 5 0.000000 0.000000 0.000000 0.000000 0.057752 0.000000
# 6 0.000000 0.000000 0.000000 0.000000 0.000000 0.034671
#
#
# Mechanical properties :
#
#
# Convention : Reuss Voigt Hill
#
# Bulk Modulus (GPa) = 36.71408 40.74019 38.72714
# Shear Modulus (GPa) = 22.43351 24.29366 23.36359
#
# Velocity S-wave (km/s) = 3.34142 3.47719 3.40998
# Velocity P-wave (km/s) = 5.75840 6.03302 5.89731
#
# Compressibility (1/GPa) = 0.02723751
#
# Stress axis : x y z
#
# Youngs Moduli (GPa) = 76.91015 76.91127 51.46628
#
# Poissons Ratio (x) = 0.35036 0.11690
# Poissons Ratio (y) = 0.35035 0.11691
# Poissons Ratio (z) = 0.17470 0.17471
#
# Static dielectric constant tensor:
#      x y z
#    x 3.717050 0.000000 0.000000 
#    y 0.000000 3.717050 0.000000 
#    z 0.000000 0.000000 3.444560 
# 
# 
# High freq. dielectric constant tensor:
#      x y z
#    x 1.794930 0.000000 0.000000 
#    y 0.000000 1.794930 0.000000 
#    z 0.000000 0.000000 1.769550 
# 
# From -- ./inp_files/2468.got.cif
#   From: 2010.03.12/outbox.cif.g09.slc.cpg/sg90_2_cif.got.tgz:2468.got - 2010.04.08 20:26:03.
