data_PCOD8304860
_publ_section_title
;
Structure prediction by ZEFSAII (Michael W. Deem and Ramdas Pophale) SiO2 
 PCOD8304860
Probable space group: P 41 2 2
;
_chemical_formula_sum "Si O2"
_cell_formula_units_Z 48
_cell_length_a 8.995029
_cell_length_b 8.995029
_cell_length_c 30.692215
_cell_angle_alpha 90.000000
_cell_angle_beta 90.000000
_cell_angle_gamma 90.000000
_cell_volume 2483.323895
_symmetry_space_group_name_H-M "P 41 2 2"
_symmetry_group_IT_number 91
_symmetry_cell_setting 'tetragonal'
loop_
_space_group_symop_operation_xyz
x,y,z
-y,x,1/4+z
-x,-y,1/2+z
y,-x,3/4+z
x,-y,1/2-z
-x,y,-z
y,x,3/4-z
-y,-x,1/4-z
loop_
_atom_site_type_symbol
_atom_site_label
_atom_site_fract_x
_atom_site_fract_y
_atom_site_fract_z
Si Si1 0.330757 0.671601 0.998193
Si Si2 0.847044 0.826643 0.575508
Si Si3 0.088832 0.145316 0.456805
Si Si4 0.157470 0.674145 0.587265
Si Si5 0.332097 0.328877 0.748792
Si Si6 0.668807 0.844443 0.661431
O O1 0.279768 0.687915 0.948386
O O2 0.500000 0.722011 0.000000
O O3 0.243966 0.780372 0.030339
O O4 0.308049 0.503529 0.015431
O O5 0.751174 0.776985 0.534447
O O6 0.758619 0.790321 0.619472
O O7 0.997295 0.734705 0.575013
O O8 0.881277 0.001712 0.572603
O O9 0.000000 0.096727 0.500000
O O10 0.999694 0.267588 0.429154
O O11 0.228138 0.771863 0.625000
O O12 0.263419 0.693124 0.546260
O O13 0.138820 0.503298 0.601601
O O14 0.286503 0.500000 0.750000
#
# Coordination Sequence:
#
# PCOD8304860 Si02
#       6
#     8   8   8   8   8   8
#     4   9  20  39  61  82 109 148 191 234 280 335
#     4  12  23  36  58  86 116 149 189 235 286 340
#     4  10  20  36  56  79 112 149 185 226 278 334
#     4  11  22  38  59  83 113 148 189 234 282 335
#     4  10  21  39  60  84 114 150 189 231 285 341
#     4  10  22  38  56  82 114 148 185 230 283 339
#
# _framework density 19.328932999999999
#
# number of rings (size 3 to 8) (size 9 to 14) (size 15 to 20)
#    0.000    1.667    0.000    5.000    0.000    6.000 
#    0.000    1.667    0.000    0.000    0.000    0.000 
#    0.000    0.000    0.000    0.000    0.000    0.000 
#
# Total GULP energy -595465.181321 kJ/mol
# GULP energy per Si atom -12405.524611 kJ/mol
# Density = 1.928494 g / cm^3
# Si number density = 19.328933 Si / 1000 Ang^3
#
#
#
# Elastic Constant Matrix: (Units=GPa)
#
#
# Indices 1 2 3 4 5 6 
#
# 1 111.8856 42.4052 26.6459 0.0000 0.0000 0.0000
# 2 42.4052 111.8839 26.6453 0.0000 0.0000 0.0000
# 3 26.6459 26.6453 62.6740 0.0000 0.0000 0.0000
# 4 0.0000 0.0000 0.0000 26.7293 0.0000 0.0000
# 5 0.0000 0.0000 0.0000 0.0000 26.7288 0.0000
# 6 0.0000 0.0000 0.0000 0.0000 0.0000 28.8797
#
#
#
# Elastic Compliance Matrix: (Units=1/GPa)
#
#
# Indices 1 2 3 4 5 6 
#
# 1 0.010995 -0.003398 -0.003230 0.000000 0.000000 0.000000
# 2 -0.003398 0.010995 -0.003230 0.000000 0.000000 0.000000
# 3 -0.003230 -0.003230 0.018702 0.000000 0.000000 0.000000
# 4 0.000000 0.000000 0.000000 0.037412 0.000000 0.000000
# 5 0.000000 0.000000 0.000000 0.000000 0.037413 0.000000
# 6 0.000000 0.000000 0.000000 0.000000 0.000000 0.034626
#
#
# Mechanical properties :
#
#
# Convention : Reuss Voigt Hill
#
# Bulk Modulus (GPa) = 47.67249 53.09290 50.38269
# Shear Modulus (GPa) = 28.27259 29.18405 28.72832
#
# Velocity S-wave (km/s) = 3.82869 3.88991 3.85942
# Velocity P-wave (km/s) = 6.65300 6.90673 6.78105
#
# Compressibility (1/GPa) = 0.02097646
#
# Stress axis : x y z
#
# Youngs Moduli (GPa) = 90.95279 90.95162 53.47071
#
# Poissons Ratio (x) = 0.30905 0.17270
# Poissons Ratio (y) = 0.30905 0.17270
# Poissons Ratio (z) = 0.29376 0.29375
#
# Static dielectric constant tensor:
#      x y z
#    x 3.631380 0.000000 0.000000 
#    y 0.000000 3.631390 0.000000 
#    z 0.000000 0.000000 3.509330 
# 
# 
# High freq. dielectric constant tensor:
#      x y z
#    x 1.761400 0.000000 0.000000 
#    y 0.000000 1.761400 0.000000 
#    z 0.000000 0.000000 1.755500 
# 
# From -- ./inp_files/7917.got.cif
#   From: 2010.03.12/outbox.cif.g09.slc.cpg/sg91_4_cif.got.tgz:7917.got - 2010.04.08 20:27:58.
