data_PCOD8304724
_publ_section_title
;
Structure prediction by ZEFSAII (Michael W. Deem and Ramdas Pophale) SiO2 
 PCOD8304724
Probable space group: P 41 2 2
;
_chemical_formula_sum "Si O2"
_cell_formula_units_Z 44
_cell_length_a 15.206594
_cell_length_b 15.206594
_cell_length_c 11.659025
_cell_angle_alpha 90.000000
_cell_angle_beta 90.000000
_cell_angle_gamma 90.000000
_cell_volume 2696.038783
_symmetry_space_group_name_H-M "P 41 2 2"
_symmetry_group_IT_number 91
_symmetry_cell_setting 'tetragonal'
loop_
_space_group_symop_operation_xyz
x,y,z
-y,x,1/4+z
-x,-y,1/2+z
y,-x,3/4+z
x,-y,1/2-z
-x,y,-z
y,x,3/4-z
-y,-x,1/4-z
loop_
_atom_site_type_symbol
_atom_site_label
_atom_site_fract_x
_atom_site_fract_y
_atom_site_fract_z
Si Si1 0.741163 0.904275 0.273201
Si Si2 0.500000 0.078803 0.500000
Si Si3 0.856505 0.547687 0.509225
Si Si4 0.610226 0.952333 0.640247
Si Si5 0.579011 0.707452 0.410508
Si Si6 0.269024 0.825802 0.488961
O O1 0.638316 0.908522 0.246728
O O2 0.783236 0.823858 0.197626
O O3 0.756601 0.888605 0.406854
O O4 0.783838 0.000000 0.250000
O O5 0.519982 0.143177 0.392813
O O6 0.583984 0.017665 0.535444
O O7 0.908099 0.480728 0.427986
O O8 0.758613 0.553075 0.456385
O O9 0.684682 0.882362 0.608864
O O10 0.652234 0.000000 0.750000
O O11 0.500000 0.703574 0.500000
O O12 0.608744 0.608744 0.375000
O O13 0.663506 0.751176 0.470396
#
# Coordination Sequence:
#
# PCOD8304724 Si02
#       6
#     8   4   8   8   8   8
#     4  10  18  29  49  74 101 132 169 220 262 300
#     4  10  18  28  46  78 108 130 164 210 288 330
#     4  10  18  29  50  77 105 135 164 217 274 319
#     4  10  18  28  47  75 107 137 166 216 274 325
#     4  11  19  34  58  78 103 136 180 220 259 312
#     4  10  18  30  50  77  99 128 177 217 260 309
#
# _framework density 16.320239000000001
#
# number of rings (size 3 to 8) (size 9 to 14) (size 15 to 20)
#    0.000    1.818    5.455    4.909    0.000    0.000 
#    0.000    0.000    2.000   18.545    0.000    0.000 
#    0.000    0.000    0.000    0.000    0.000    0.000 
#
# Total GULP energy -545236.020895 kJ/mol
# GULP energy per Si atom -12391.727748 kJ/mol
# Density = 1.628309 g / cm^3
# Si number density = 16.320239 Si / 1000 Ang^3
#
#
#
# Elastic Constant Matrix: (Units=GPa)
#
#
# Indices 1 2 3 4 5 6 
#
# 1 97.5682 59.1984 45.3370 0.0000 0.0000 0.0000
# 2 59.1984 97.5682 45.3370 0.0000 0.0000 0.0000
# 3 45.3370 45.3370 88.7031 0.0000 0.0000 0.0000
# 4 0.0000 0.0000 0.0000 21.5032 0.0000 0.0000
# 5 0.0000 0.0000 0.0000 0.0000 21.5032 0.0000
# 6 0.0000 0.0000 0.0000 0.0000 0.0000 16.7071
#
#
#
# Elastic Compliance Matrix: (Units=1/GPa)
#
#
# Indices 1 2 3 4 5 6 
#
# 1 0.017559 -0.008503 -0.004629 0.000000 0.000000 0.000000
# 2 -0.008503 0.017559 -0.004629 0.000000 0.000000 0.000000
# 3 -0.004629 -0.004629 0.016005 0.000000 0.000000 0.000000
# 4 0.000000 0.000000 0.000000 0.046505 0.000000 0.000000
# 5 0.000000 0.000000 0.000000 0.000000 0.046505 0.000000
# 6 0.000000 0.000000 0.000000 0.000000 0.000000 0.059855
#
#
# Mechanical properties :
#
#
# Convention : Reuss Voigt Hill
#
# Bulk Modulus (GPa) = 64.09167 64.84271 64.46719
# Shear Modulus (GPa) = 20.43244 20.87387 20.65315
#
# Velocity S-wave (km/s) = 3.54216 3.58021 3.56124
# Velocity P-wave (km/s) = 7.48904 7.54376 7.51645
#
# Compressibility (1/GPa) = 0.01560265
#
# Stress axis : x y z
#
# Youngs Moduli (GPa) = 56.95037 56.95037 62.48018
#
# Poissons Ratio (x) = 0.48425 0.28920
# Poissons Ratio (y) = 0.48425 0.28920
# Poissons Ratio (z) = 0.26360 0.26360
#
# Static dielectric constant tensor:
#      x y z
#    x 3.125370 0.000000 0.000000 
#    y 0.000000 3.125370 0.000000 
#    z 0.000000 0.000000 3.157570 
# 
# 
# High freq. dielectric constant tensor:
#      x y z
#    x 1.613810 0.000000 0.000000 
#    y 0.000000 1.613810 0.000000 
#    z 0.000000 0.000000 1.617550 
# 
# From -- ./inp_files/3741.got.cif
#   From: 2010.03.12/outbox.cif.g09.slc.cpg/sg91_2_cif.got.tgz:3741.got - 2010.04.08 20:27:58.
