data_PCOD8304416
_publ_section_title
;
Structure prediction by ZEFSAII (Michael W. Deem and Ramdas Pophale) SiO2 
 PCOD8304416
Probable space group: I 41/A
;
_chemical_formula_sum "Si O2"
_cell_formula_units_Z 64
_cell_length_a 13.195203
_cell_length_b 13.195203
_cell_length_c 17.650750
_cell_angle_alpha 90.000000
_cell_angle_beta 90.000000
_cell_angle_gamma 90.000000
_cell_volume 3073.231781
_symmetry_space_group_name_H-M "I 41/A"
_symmetry_group_IT_number 88
_space_group.IT_coordinate_system_code '2'
_symmetry_cell_setting 'tetragonal'
loop_
_space_group_symop_operation_xyz
x,y,z
3/4-y,1/4+x,1/4+z
-x,1/2-y,z
1/4+y,1/4-x,1/4+z
-x,-y,-z
1/4+y,3/4-x,3/4-z
x,1/2+y,-z
3/4-y,3/4+x,3/4-z
1/2+x,1/2+y,1/2+z
1/4-y,3/4+x,3/4+z
1/2-x,-y,1/2+z
3/4+y,3/4-x,3/4+z
1/2-x,1/2-y,1/2-z
3/4+y,1/4-x,1/4-z
1/2+x,y,1/2-z
1/4-y,1/4+x,1/4-z
loop_
_atom_site_type_symbol
_atom_site_label
_atom_site_fract_x
_atom_site_fract_y
_atom_site_fract_z
Si Si1 0.247898 0.637785 0.937090
Si Si2 0.075403 0.511396 0.432563
Si Si3 0.115760 0.979541 0.984002
Si Si4 0.237563 0.682264 0.460592
O O1 0.357270 0.588015 0.934464
O O2 0.198274 0.625772 0.854078
O O3 0.176775 0.582650 0.998788
O O4 0.265392 0.754997 0.960613
O O5 0.139478 0.613400 0.446228
O O6 0.000000 0.500000 0.500000
O O7 0.014687 0.511302 0.354912
O O8 0.162339 0.889100 0.035631
O O9 0.000000 0.000000 0.000000
#
# Coordination Sequence:
#
# PCOD8304416 Si02
#       4
#    16  16  16  16
#     4  11  23  46  66 104 137 178 228 282 351 404
#     4  11  25  42  71 100 136 179 224 290 345 411
#     4  11  25  43  71  97 141 182 227 282 338 419
#     4  11  25  45  70 100 140 178 231 286 348 413
#
# _framework density 20.824984000000001
#
# number of rings (size 3 to 8) (size 9 to 14) (size 15 to 20)
#    0.000    1.000    2.500    3.000   14.000    4.500 
#    0.000    2.500    0.000    0.000    0.000    0.000 
#    0.000    0.000    0.000    0.000    0.000    0.000 
#
# Total GULP energy -396772.171237 kJ/mol
# GULP energy per Si atom -12399.130351 kJ/mol
# Density = 2.077758 g / cm^3
# Si number density = 20.824984 Si / 1000 Ang^3
#
#
#
# Elastic Constant Matrix: (Units=GPa)
#
#
# Indices 1 2 3 4 5 6 
#
# 1 150.7604 73.4848 46.1859 0.0000 0.0000 -3.6818
# 2 73.4848 150.7604 46.1859 0.0000 0.0000 3.6818
# 3 46.1859 46.1859 115.3527 0.0000 0.0000 0.0000
# 4 0.0000 0.0000 0.0000 39.9113 0.0000 0.0000
# 5 0.0000 0.0000 0.0000 0.0000 39.9112 0.0000
# 6 -3.6818 3.6818 0.0000 0.0000 0.0000 19.1152
#
#
#
# Elastic Compliance Matrix: (Units=1/GPa)
#
#
# Indices 1 2 3 4 5 6 
#
# 1 0.009261 -0.003921 -0.002138 0.000000 0.000000 0.002539
# 2 -0.003921 0.009261 -0.002138 0.000000 0.000000 -0.002539
# 3 -0.002138 -0.002138 0.010381 0.000000 0.000000 0.000000
# 4 0.000000 0.000000 0.000000 0.025056 0.000000 0.000000
# 5 0.000000 0.000000 0.000000 0.000000 0.025056 0.000000
# 6 0.002539 -0.002539 0.000000 0.000000 0.000000 0.053292
#
#
# Mechanical properties :
#
#
# Convention : Reuss Voigt Hill
#
# Bulk Modulus (GPa) = 79.94247 83.17630 81.55939
# Shear Modulus (GPa) = 32.70701 36.52200 34.61451
#
# Velocity S-wave (km/s) = 3.96734 4.19233 4.08139
# Velocity P-wave (km/s) = 7.71087 7.96628 7.83961
#
# Compressibility (1/GPa) = 0.01250900
#
# Stress axis : x y z
#
# Youngs Moduli (GPa) = 107.97500 107.97500 96.32770
#
# Poissons Ratio (x) = 0.42340 0.20596
# Poissons Ratio (y) = 0.42340 0.20596
# Poissons Ratio (z) = 0.23087 0.23087
#
# Static dielectric constant tensor:
#      x y z
#    x 3.768890 0.000000 0.000000 
#    y 0.000000 3.768890 0.000000 
#    z 0.000000 0.000000 4.264870 
# 
# 
# High freq. dielectric constant tensor:
#      x y z
#    x 1.819560 0.000000 0.000000 
#    y 0.000000 1.819560 0.000000 
#    z 0.000000 0.000000 1.833120 
# 
# From -- ./inp_files/3700.got.cif
#   From: 2010.03.12/outbox.cif.g09.slc.cpg/sg88_2_cif.got.tgz:3700.got - 2010.04.08 20:20:55.
