data_PCOD8304283
_publ_section_title
;
Structure prediction by ZEFSAII (Michael W. Deem and Ramdas Pophale) SiO2 
 PCOD8304283
Probable space group: I 41/A
;
_chemical_formula_sum "Si O2"
_cell_formula_units_Z 72
_cell_length_a 11.989922
_cell_length_b 11.989922
_cell_length_c 24.058243
_cell_angle_alpha 90.000000
_cell_angle_beta 90.000000
_cell_angle_gamma 90.000000
_cell_volume 3458.570420
_symmetry_space_group_name_H-M "I 41/A"
_symmetry_group_IT_number 88
_space_group.IT_coordinate_system_code '2'
_symmetry_cell_setting 'tetragonal'
loop_
_space_group_symop_operation_xyz
x,y,z
3/4-y,1/4+x,1/4+z
-x,1/2-y,z
1/4+y,1/4-x,1/4+z
-x,-y,-z
1/4+y,3/4-x,3/4-z
x,1/2+y,-z
3/4-y,3/4+x,3/4-z
1/2+x,1/2+y,1/2+z
1/4-y,3/4+x,3/4+z
1/2-x,-y,1/2+z
3/4+y,3/4-x,3/4+z
1/2-x,1/2-y,1/2-z
3/4+y,1/4-x,1/4-z
1/2+x,y,1/2-z
1/4-y,1/4+x,1/4-z
loop_
_atom_site_type_symbol
_atom_site_label
_atom_site_fract_x
_atom_site_fract_y
_atom_site_fract_z
Si Si1 0.500000 0.750000 0.125000
Si Si2 0.831873 0.342925 0.322031
Si Si3 0.567370 0.541082 0.681217
Si Si4 0.500000 0.750000 0.625000
Si Si5 0.000176 0.528154 0.300346
Si Si6 0.201772 0.390667 0.279388
O O1 0.606775 0.733011 0.084393
O O2 0.800493 0.316239 0.384243
O O3 0.935196 0.426347 0.328796
O O4 0.862574 0.226194 0.291183
O O5 0.732004 0.400026 0.286271
O O6 0.483063 0.641801 0.665086
O O7 0.538726 0.469719 0.736125
O O8 0.685027 0.604347 0.685668
O O9 0.130325 0.496863 0.299066
#
# Coordination Sequence:
#
# PCOD8304283 Si02
#       6
#     4  16  16   4  16  16
#     4  12  28  56  60  82 132 196 260 288 294 380
#     4  10  21  39  64 104 133 160 210 269 342 414
#     4  11  22  38  65 102 131 170 207 266 346 411
#     4  12  20  36  68 106 152 152 188 276 360 430
#     4  11  25  44  69  86 130 184 229 278 329 382
#     4  10  21  37  64 100 136 163 206 264 345 411
#
# _framework density 20.817848000000001
#
# number of rings (size 3 to 8) (size 9 to 14) (size 15 to 20)
#    0.000    1.333    2.222    3.333    6.222    0.000 
#    4.000    5.556    0.000    0.000    0.000    0.000 
#    0.000    0.000    0.000    0.000    0.000    0.000 
#
# Total GULP energy -446112.310709 kJ/mol
# GULP energy per Si atom -12392.008631 kJ/mol
# Density = 2.077047 g / cm^3
# Si number density = 20.817848 Si / 1000 Ang^3
#
#
#
# Elastic Constant Matrix: (Units=GPa)
#
#
# Indices 1 2 3 4 5 6 
#
# 1 78.8192 43.4435 37.0595 0.0000 0.0000 -0.6643
# 2 43.4435 78.8192 37.0595 0.0000 0.0000 0.6643
# 3 37.0595 37.0595 131.2759 0.0000 0.0000 0.0000
# 4 0.0000 0.0000 0.0000 29.2129 0.0000 0.0000
# 5 0.0000 0.0000 0.0000 0.0000 29.2129 0.0000
# 6 -0.6643 0.6643 0.0000 0.0000 0.0000 30.9108
#
#
#
# Elastic Compliance Matrix: (Units=1/GPa)
#
#
# Indices 1 2 3 4 5 6 
#
# 1 0.019079 -0.009211 -0.002786 0.000000 0.000000 0.000608
# 2 -0.009211 0.019079 -0.002786 0.000000 0.000000 -0.000608
# 3 -0.002786 -0.002786 0.009190 0.000000 0.000000 0.000000
# 4 0.000000 0.000000 0.000000 0.034231 0.000000 0.000000
# 5 0.000000 0.000000 0.000000 0.000000 0.034231 0.000000
# 6 0.000608 -0.000608 0.000000 0.000000 0.000000 0.032377
#
#
# Mechanical properties :
#
#
# Convention : Reuss Voigt Hill
#
# Bulk Modulus (GPa) = 56.23267 58.22657 57.22962
# Shear Modulus (GPa) = 27.22081 29.29076 28.25579
#
# Velocity S-wave (km/s) = 3.61996 3.75507 3.68813
# Velocity P-wave (km/s) = 6.67402 6.84332 6.75920
#
# Compressibility (1/GPa) = 0.01778326
#
# Stress axis : x y z
#
# Youngs Moduli (GPa) = 52.41263 52.41263 108.80942
#
# Poissons Ratio (x) = 0.48280 0.30311
# Poissons Ratio (y) = 0.48280 0.30311
# Poissons Ratio (z) = 0.14601 0.14601
#
# Static dielectric constant tensor:
#      x y z
#    x 3.637110 0.000000 0.000000 
#    y 0.000000 3.637110 0.000000 
#    z 0.000000 0.000000 3.852600 
# 
# 
# High freq. dielectric constant tensor:
#      x y z
#    x 1.803170 0.000000 0.000000 
#    y 0.000000 1.803170 0.000000 
#    z 0.000000 0.000000 1.823460 
# 
# From -- ./inp_files/5758.got.cif
#   From: 2010.03.12/outbox.cif.g09.slc.cpg/sg88_3_cif.got.tgz:5758.got - 2010.04.08 20:20:55.
