data_PCOD8304092
_publ_section_title
;
Structure prediction by ZEFSAII (Michael W. Deem and Ramdas Pophale) SiO2 
 PCOD8304092
Probable space group: I 4/M
;
_chemical_formula_sum "Si O2"
_cell_formula_units_Z 72
_cell_length_a 15.036277
_cell_length_b 15.036277
_cell_length_c 16.738441
_cell_angle_alpha 90.000000
_cell_angle_beta 90.000000
_cell_angle_gamma 90.000000
_cell_volume 3784.387866
_symmetry_space_group_name_H-M "I 4/M"
_symmetry_group_IT_number 87
_symmetry_cell_setting 'tetragonal'
loop_
_space_group_symop_operation_xyz
x,y,z
-y,x,z
-x,-y,z
y,-x,z
-x,-y,-z
y,-x,-z
x,y,-z
-y,x,-z
1/2+x,1/2+y,1/2+z
1/2-y,1/2+x,1/2+z
1/2-x,1/2-y,1/2+z
1/2+y,1/2-x,1/2+z
1/2-x,1/2-y,1/2-z
1/2+y,1/2-x,1/2-z
1/2+x,1/2+y,1/2-z
1/2-y,1/2+x,1/2-z
loop_
_atom_site_type_symbol
_atom_site_label
_atom_site_fract_x
_atom_site_fract_y
_atom_site_fract_z
Si Si1 0.776167 0.071927 0.664382
Si Si2 0.867349 0.937029 0.089737
Si Si3 0.942548 0.864931 0.500000
Si Si4 0.596419 0.093133 0.266134
Si Si5 0.211551 0.107218 0.253048
O O1 0.806331 0.084728 0.574737
O O2 0.668024 0.071080 0.664463
O O3 0.810083 0.154691 0.716704
O O4 0.819275 0.982697 0.701808
O O5 0.798053 0.904086 0.156942
O O6 0.958627 0.883825 0.101628
O O7 0.829666 0.919125 0.000000
O O8 0.046476 0.884758 0.500000
O O9 0.492593 0.101773 0.294981
O O10 0.625810 0.185297 0.224901
#
# Coordination Sequence:
#
# PCOD8304092 Si02
#       5
#    16  16   8  16  16
#     4  11  21  35  59  87 120 155 191 240 299 367
#     4   9  17  29  48  81 124 150 174 228 294 364
#     4  11  22  36  56  93 137 155 181 237 315 382
#     4   9  21  40  60  79 104 150 210 257 282 328
#     4  11  19  33  60  87 113 155 199 233 300 371
#
# _framework density 19.025534
#
# number of rings (size 3 to 8) (size 9 to 14) (size 15 to 20)
#    0.000    1.889    4.444    1.333    0.000    0.444 
#    2.000    0.000    0.000   12.000   11.556    0.000 
#    0.000    0.000    0.000    0.000    0.000    0.000 
#
# Total GULP energy -446041.302589 kJ/mol
# GULP energy per Si atom -12390.036183 kJ/mol
# Density = 1.898223 g / cm^3
# Si number density = 19.025534 Si / 1000 Ang^3
#
#
#
# Elastic Constant Matrix: (Units=GPa)
#
#
# Indices 1 2 3 4 5 6 
#
# 1 104.0061 33.3127 33.2133 0.0000 0.0000 -8.0966
# 2 33.3127 104.0061 33.2133 0.0000 0.0000 8.0966
# 3 33.2133 33.2133 109.6075 0.0000 0.0000 0.0000
# 4 0.0000 0.0000 0.0000 -3.7616 0.0000 0.0000
# 5 0.0000 0.0000 0.0000 0.0000 -3.7617 0.0000
# 6 -8.0966 8.0966 0.0000 0.0000 0.0000 19.0608
#
#
#
# Elastic Compliance Matrix: (Units=1/GPa)
#
#
# Indices 1 2 3 4 5 6 
#
# 1 0.012102 -0.003569 -0.002586 0.000000 0.000000 0.006656
# 2 -0.003569 0.012102 -0.002586 0.000000 0.000000 -0.006656
# 3 -0.002586 -0.002586 0.010691 0.000000 0.000000 0.000000
# 4 0.000000 0.000000 0.000000 -0.265841 0.000000 0.000000
# 5 0.000000 0.000000 0.000000 0.000000 -0.265841 0.000000
# 6 0.006656 -0.006656 0.000000 0.000000 0.000000 0.058119
#
#
# Mechanical properties :
#
#
# Convention : Reuss Voigt Hill
#
# Bulk Modulus (GPa) = 57.42528 57.45535 57.44032
# Shear Modulus (GPa) = -12.03705 16.83286 2.39791
#
# Velocity S-wave (km/s) = -2.51804 2.97770 1.12388
# Velocity P-wave (km/s) = 4.66849 6.48744 5.65162
#
# Compressibility (1/GPa) = 0.01741393
#
# Stress axis : x y z
#
# Youngs Moduli (GPa) = 82.63274 82.63274 93.54093
#
# Poissons Ratio (x) = 0.29488 0.24187
# Poissons Ratio (y) = 0.29488 0.24187
# Poissons Ratio (z) = 0.21366 0.21366
#
# Static dielectric constant tensor:
#      x y z
#    x 3.597130 0.000000 0.000000 
#    y 0.000000 3.597130 0.000000 
#    z 0.000000 0.000000 3.220180 
# 
# 
# High freq. dielectric constant tensor:
#      x y z
#    x 1.745400 0.000000 0.000000 
#    y 0.000000 1.745400 0.000000 
#    z 0.000000 0.000000 1.699560 
# 
# From -- ./inp_files/4236.got.cif
#   From: 2010.03.12/outbox.cif.g09.slc.cpg/sg87_3_cif.got.tgz:4236.got - 2010.04.08 20:16:13.
