data_PCOD8304284
_publ_section_title
;
Structure prediction by ZEFSAII (Michael W. Deem and Ramdas Pophale) SiO2 
 PCOD8304284
Probable space group: I 41/A
;
_chemical_formula_sum "Si O2"
_cell_formula_units_Z 48
_cell_length_a 16.729115
_cell_length_b 16.729115
_cell_length_c 8.706893
_cell_angle_alpha 90.000000
_cell_angle_beta 90.000000
_cell_angle_gamma 90.000000
_cell_volume 2436.739709
_symmetry_space_group_name_H-M "I 41/A"
_symmetry_group_IT_number 88
_space_group.IT_coordinate_system_code '2'
_symmetry_cell_setting 'tetragonal'
loop_
_space_group_symop_operation_xyz
x,y,z
3/4-y,1/4+x,1/4+z
-x,1/2-y,z
1/4+y,1/4-x,1/4+z
-x,-y,-z
1/4+y,3/4-x,3/4-z
x,1/2+y,-z
3/4-y,3/4+x,3/4-z
1/2+x,1/2+y,1/2+z
1/4-y,3/4+x,3/4+z
1/2-x,-y,1/2+z
3/4+y,3/4-x,3/4+z
1/2-x,1/2-y,1/2-z
3/4+y,1/4-x,1/4-z
1/2+x,y,1/2-z
1/4-y,1/4+x,1/4-z
loop_
_atom_site_type_symbol
_atom_site_label
_atom_site_fract_x
_atom_site_fract_y
_atom_site_fract_z
Si Si1 0.344697 0.500517 0.760851
Si Si2 0.443624 0.850417 0.200247
Si Si3 0.935087 0.154621 0.200356
O O1 0.284769 0.456277 0.648942
O O2 0.408946 0.438436 0.829447
O O3 0.391144 0.570663 0.670610
O O4 0.537688 0.851643 0.161011
O O5 0.431920 0.822987 0.374616
O O6 0.895118 0.221364 0.090556
#
# Coordination Sequence:
#
# PCOD8304284 Si02
#       3
#    16  16  16
#     4  10  24  38  56  88 116 148 190 236 288 328
#     4  10  21  38  60  84 112 152 193 228 281 343
#     4  10  21  38  60  84 112 152 193 228 281 343
#
# _framework density 19.698450000000001
#
# number of rings (size 3 to 8) (size 9 to 14) (size 15 to 20)
#    0.000    2.000    0.000    4.000    0.000   18.667 
#    0.000    0.000    0.000    0.000    0.000    0.000 
#    0.000    0.000    0.000    0.000    0.000    0.000 
#
# Total GULP energy -297622.836323 kJ/mol
# GULP energy per Si atom -12400.951513 kJ/mol
# Density = 1.965362 g / cm^3
# Si number density = 19.698450 Si / 1000 Ang^3
#
#
#
# Elastic Constant Matrix: (Units=GPa)
#
#
# Indices 1 2 3 4 5 6 
#
# 1 77.1586 22.6246 28.7154 0.0000 0.0000 4.1389
# 2 22.6246 77.1586 28.7154 0.0000 0.0000 -4.1389
# 3 28.7154 28.7154 75.6966 0.0000 0.0000 0.0000
# 4 0.0000 0.0000 0.0000 37.1533 0.0000 0.0000
# 5 0.0000 0.0000 0.0000 0.0000 37.1533 0.0000
# 6 4.1389 -4.1389 0.0000 0.0000 0.0000 49.1437
#
#
#
# Elastic Compliance Matrix: (Units=1/GPa)
#
#
# Indices 1 2 3 4 5 6 
#
# 1 0.015698 -0.002877 -0.004864 0.000000 0.000000 -0.001564
# 2 -0.002877 0.015698 -0.004864 0.000000 0.000000 0.001564
# 3 -0.004864 -0.004864 0.016901 0.000000 0.000000 0.000000
# 4 0.000000 0.000000 0.000000 0.026916 0.000000 0.000000
# 5 0.000000 0.000000 0.000000 0.000000 0.026916 0.000000
# 6 -0.001564 0.001564 0.000000 0.000000 0.000000 0.020612
#
#
# Mechanical properties :
#
#
# Convention : Reuss Voigt Hill
#
# Bulk Modulus (GPa) = 43.31226 43.34719 43.32972
# Shear Modulus (GPa) = 32.12466 34.68727 33.40596
#
# Velocity S-wave (km/s) = 4.04272 4.20088 4.12256
# Velocity P-wave (km/s) = 6.62019 6.75152 6.68617
#
# Compressibility (1/GPa) = 0.02308815
#
# Stress axis : x y z
#
# Youngs Moduli (GPa) = 63.70302 63.70302 59.16923
#
# Poissons Ratio (x) = 0.18326 0.28778
# Poissons Ratio (y) = 0.18326 0.28778
# Poissons Ratio (z) = 0.30983 0.30983
#
# Static dielectric constant tensor:
#      x y z
#    x 3.834200 0.000000 0.000000 
#    y 0.000000 3.834200 0.000000 
#    z 0.000000 0.000000 3.504300 
# 
# 
# High freq. dielectric constant tensor:
#      x y z
#    x 1.775170 0.000000 0.000000 
#    y 0.000000 1.775170 0.000000 
#    z 0.000000 0.000000 1.767490 
# 
# From -- ./inp_files/1127.got.cif
#   From: 2010.03.12/outbox.cif.g09.slc.cpg/sg88_1_cif.got.tgz:1127.got - 2010.04.08 20:20:55.
