data_PCOD8304838
_publ_section_title
;
Structure prediction by ZEFSAII (Michael W. Deem and Ramdas Pophale) SiO2 
 PCOD8304838
Probable space group: P 41 2 2
;
_chemical_formula_sum "Si O2"
_cell_formula_units_Z 48
_cell_length_a 14.582235
_cell_length_b 14.582235
_cell_length_c 13.770714
_cell_angle_alpha 90.000000
_cell_angle_beta 90.000000
_cell_angle_gamma 90.000000
_cell_volume 2928.226350
_symmetry_space_group_name_H-M "P 41 2 2"
_symmetry_group_IT_number 91
_symmetry_cell_setting 'tetragonal'
loop_
_space_group_symop_operation_xyz
x,y,z
-y,x,1/4+z
-x,-y,1/2+z
y,-x,3/4+z
x,-y,1/2-z
-x,y,-z
y,x,3/4-z
-y,-x,1/4-z
loop_
_atom_site_type_symbol
_atom_site_label
_atom_site_fract_x
_atom_site_fract_y
_atom_site_fract_z
Si Si1 0.099633 0.406329 0.207666
Si Si2 0.783813 0.834218 0.984130
Si Si3 0.886082 0.403280 0.210867
Si Si4 0.776350 0.169706 0.931384
Si Si5 0.894690 0.663289 0.501053
Si Si6 0.995584 0.902042 0.788845
O O1 0.141464 0.500000 0.250000
O O2 0.147898 0.323930 0.263739
O O3 0.119134 0.404362 0.092363
O O4 0.993097 0.399273 0.233141
O O5 0.803516 0.803516 0.875000
O O6 0.840512 0.924442 0.023966
O O7 0.807697 0.759220 0.067132
O O8 0.845665 0.500000 0.250000
O O9 0.837699 0.322069 0.269485
O O10 0.867092 0.391801 0.095955
O O11 0.835397 0.077666 0.937269
O O12 0.831384 0.247869 0.988657
O O13 0.000000 0.697289 0.500000
O O14 0.032591 0.000000 0.750000
O O15 0.927885 0.927885 0.875000
#
# Coordination Sequence:
#
# PCOD8304838 Si02
#       6
#     8   8   8   8   8   8
#     4   9  18  34  51  68  98 135 175 215 253 303
#     4  10  21  33  46  71 102 133 176 210 251 305
#     4  10  20  34  50  71  98 132 177 216 260 306
#     4  11  20  33  50  71 101 137 173 215 254 302
#     4   9  19  33  50  74 100 129 172 214 257 309
#     4  11  20  30  44  67 101 139 176 203 245 289
#
# _framework density 16.392177
#
# number of rings (size 3 to 8) (size 9 to 14) (size 15 to 20)
#    0.000    2.000    3.333    1.000    0.000    2.667 
#    0.000    1.667    0.000    0.000    0.000    0.000 
#    0.000   37.333    0.000    0.000    0.000    0.000 
#
# Total GULP energy -594728.834496 kJ/mol
# GULP energy per Si atom -12390.184052 kJ/mol
# Density = 1.635487 g / cm^3
# Si number density = 16.392177 Si / 1000 Ang^3
#
#
#
# Elastic Constant Matrix: (Units=GPa)
#
#
# Indices 1 2 3 4 5 6 
#
# 1 102.6728 43.4113 53.9873 0.0000 0.0000 0.0000
# 2 43.4113 102.6728 53.9873 0.0000 0.0000 0.0000
# 3 53.9873 53.9873 128.3578 0.0000 0.0000 0.0000
# 4 0.0000 0.0000 0.0000 22.1384 0.0000 0.0000
# 5 0.0000 0.0000 0.0000 0.0000 22.1384 0.0000
# 6 0.0000 0.0000 0.0000 0.0000 0.0000 12.8101
#
#
#
# Elastic Compliance Matrix: (Units=1/GPa)
#
#
# Indices 1 2 3 4 5 6 
#
# 1 0.013404 -0.003470 -0.004178 0.000000 0.000000 0.000000
# 2 -0.003470 0.013404 -0.004178 0.000000 0.000000 0.000000
# 3 -0.004178 -0.004178 0.011305 0.000000 0.000000 0.000000
# 4 0.000000 0.000000 0.000000 0.045170 0.000000 0.000000
# 5 0.000000 0.000000 0.000000 0.000000 0.045170 0.000000
# 6 0.000000 0.000000 0.000000 0.000000 0.000000 0.078064
#
#
# Mechanical properties :
#
#
# Convention : Reuss Voigt Hill
#
# Bulk Modulus (GPa) = 69.15571 70.71947 69.93759
# Shear Modulus (GPa) = 21.27745 23.57186 22.42466
#
# Velocity S-wave (km/s) = 3.60672 3.79620 3.70267
# Velocity P-wave (km/s) = 7.72168 7.90258 7.81265
#
# Compressibility (1/GPa) = 0.01446012
#
# Stress axis : x y z
#
# Youngs Moduli (GPa) = 74.60511 74.60511 88.45439
#
# Poissons Ratio (x) = 0.25891 0.36956
# Poissons Ratio (y) = 0.25891 0.36956
# Poissons Ratio (z) = 0.31170 0.31170
#
# Static dielectric constant tensor:
#      x y z
#    x 2.987610 0.000000 0.000000 
#    y 0.000000 2.987610 0.000000 
#    z 0.000000 0.000000 3.301200 
# 
# 
# High freq. dielectric constant tensor:
#      x y z
#    x 1.608130 0.000000 0.000000 
#    y 0.000000 1.608130 0.000000 
#    z 0.000000 0.000000 1.644660 
# 
# From -- ./inp_files/4906.got.cif
#   From: 2010.03.12/outbox.cif.g09.slc.cpg/sg91_3_cif.got.tgz:4906.got - 2010.04.08 20:27:58.
