data_PCOD8304448
_publ_section_title
;
Structure prediction by ZEFSAII (Michael W. Deem and Ramdas Pophale) SiO2 
 PCOD8304448
Probable space group: I 41/A
;
_chemical_formula_sum "Si O2"
_cell_formula_units_Z 68
_cell_length_a 13.550950
_cell_length_b 13.550950
_cell_length_c 19.368997
_cell_angle_alpha 90.000000
_cell_angle_beta 90.000000
_cell_angle_gamma 90.000000
_cell_volume 3556.694944
_symmetry_space_group_name_H-M "I 41/A"
_symmetry_group_IT_number 88
_space_group.IT_coordinate_system_code '2'
_symmetry_cell_setting 'tetragonal'
loop_
_space_group_symop_operation_xyz
x,y,z
3/4-y,1/4+x,1/4+z
-x,1/2-y,z
1/4+y,1/4-x,1/4+z
-x,-y,-z
1/4+y,3/4-x,3/4-z
x,1/2+y,-z
3/4-y,3/4+x,3/4-z
1/2+x,1/2+y,1/2+z
1/4-y,3/4+x,3/4+z
1/2-x,-y,1/2+z
3/4+y,3/4-x,3/4+z
1/2-x,1/2-y,1/2-z
3/4+y,1/4-x,1/4-z
1/2+x,y,1/2-z
1/4-y,1/4+x,1/4-z
loop_
_atom_site_type_symbol
_atom_site_label
_atom_site_fract_x
_atom_site_fract_y
_atom_site_fract_z
Si Si1 0.990442 0.134094 0.873840
Si Si2 0.314541 0.465863 0.181678
Si Si3 0.821643 0.237773 0.532440
Si Si4 0.184501 0.559699 0.065486
Si Si5 0.500000 0.250000 0.875000
O O1 0.882603 0.098749 0.894138
O O2 0.010859 0.106312 0.795629
O O3 0.000000 0.250000 0.885099
O O4 0.069399 0.078909 0.921790
O O5 0.405447 0.538805 0.191821
O O6 0.233527 0.520726 0.135609
O O7 0.271761 0.441930 0.256523
O O8 0.733401 0.161168 0.541087
O O9 0.914358 0.203267 0.577997
#
# Coordination Sequence:
#
# PCOD8304448 Si02
#       5
#    16  16  16  16   4
#     4  12  25  43  68  95 133 177 223 274 334 398
#     4  12  25  43  68  95 133 177 223 274 334 398
#     4  12  24  39  66 103 130 168 216 274 334 405
#     4  12  25  43  68  95 133 177 223 274 334 398
#     4  12  24  36  64 112 132 156 222 264 340 424
#
# _framework density 19.118872
#
# number of rings (size 3 to 8) (size 9 to 14) (size 15 to 20)
#    0.000    0.000   10.588    0.706    0.000    0.000 
#    0.000    7.059    0.000    0.000    0.000    0.000 
#    0.000    0.000    0.000    0.000    0.000    0.000 
#
# Total GULP energy -421836.548676 kJ/mol
# GULP energy per Si atom -12406.957314 kJ/mol
# Density = 1.907536 g / cm^3
# Si number density = 19.118872 Si / 1000 Ang^3
#
#
#
# Elastic Constant Matrix: (Units=GPa)
#
#
# Indices 1 2 3 4 5 6 
#
# 1 82.0634 2.9504 18.5765 0.0000 0.0000 -5.6719
# 2 2.9504 82.0634 18.5765 0.0000 0.0000 5.6719
# 3 18.5765 18.5765 67.0946 0.0000 0.0000 0.0000
# 4 0.0000 0.0000 0.0000 37.6888 0.0000 0.0000
# 5 0.0000 0.0000 0.0000 0.0000 37.6888 0.0000
# 6 -5.6719 5.6719 0.0000 0.0000 0.0000 44.0209
#
#
#
# Elastic Compliance Matrix: (Units=1/GPa)
#
#
# Indices 1 2 3 4 5 6 
#
# 1 0.013130 0.000252 -0.003705 0.000000 0.000000 0.001659
# 2 0.000252 0.013130 -0.003705 0.000000 0.000000 -0.001659
# 3 -0.003705 -0.003705 0.016956 0.000000 0.000000 0.000000
# 4 0.000000 0.000000 0.000000 0.026533 0.000000 0.000000
# 5 0.000000 0.000000 0.000000 0.000000 0.026533 0.000000
# 6 0.001659 -0.001659 0.000000 0.000000 0.000000 0.023144
#
#
# Mechanical properties :
#
#
# Convention : Reuss Voigt Hill
#
# Bulk Modulus (GPa) = 34.60246 34.60312 34.60279
# Shear Modulus (GPa) = 34.87337 36.62090 35.74714
#
# Velocity S-wave (km/s) = 4.27550 4.38131 4.32873
# Velocity P-wave (km/s) = 6.52005 6.61308 6.56673
#
# Compressibility (1/GPa) = 0.02889968
#
# Stress axis : x y z
#
# Youngs Moduli (GPa) = 76.16131 76.16131 58.97625
#
# Poissons Ratio (x) = -0.01919 0.21851
# Poissons Ratio (y) = -0.01919 0.21851
# Poissons Ratio (z) = 0.28218 0.28218
#
# Static dielectric constant tensor:
#      x y z
#    x 3.341890 0.000000 0.000000 
#    y 0.000000 3.341890 0.000000 
#    z 0.000000 0.000000 3.571070 
# 
# 
# High freq. dielectric constant tensor:
#      x y z
#    x 1.754040 0.000000 0.000000 
#    y 0.000000 1.754040 0.000000 
#    z 0.000000 0.000000 1.758770 
# 
# From -- ./inp_files/3740.got.cif
#   From: 2010.03.12/outbox.cif.g09.slc.cpg/sg88_2_cif.got.tgz:3740.got - 2010.04.08 20:20:55.
