data_PCOD8304024
_publ_section_title
;
Structure prediction by ZEFSAII (Michael W. Deem and Ramdas Pophale) SiO2 
 PCOD8304024
Probable space group: I 4/M
;
_chemical_formula_sum "Si O2"
_cell_formula_units_Z 72
_cell_length_a 15.484974
_cell_length_b 15.484974
_cell_length_c 15.482355
_cell_angle_alpha 90.000000
_cell_angle_beta 90.000000
_cell_angle_gamma 90.000000
_cell_volume 3712.427511
_symmetry_space_group_name_H-M "I 4/M"
_symmetry_group_IT_number 87
_symmetry_cell_setting 'tetragonal'
loop_
_space_group_symop_operation_xyz
x,y,z
-y,x,z
-x,-y,z
y,-x,z
-x,-y,-z
y,-x,-z
x,y,-z
-y,x,-z
1/2+x,1/2+y,1/2+z
1/2-y,1/2+x,1/2+z
1/2-x,1/2-y,1/2+z
1/2+y,1/2-x,1/2+z
1/2-x,1/2-y,1/2-z
1/2+y,1/2-x,1/2-z
1/2+x,1/2+y,1/2-z
1/2-y,1/2+x,1/2-z
loop_
_atom_site_type_symbol
_atom_site_label
_atom_site_fract_x
_atom_site_fract_y
_atom_site_fract_z
Si Si1 0.368030 0.950603 0.241207
Si Si2 0.756972 0.027469 0.901743
Si Si3 0.920960 0.879453 0.500000
Si Si4 0.689059 0.655669 0.659947
Si Si5 0.269430 0.650535 0.842144
O O1 0.450561 0.889597 0.241247
O O2 0.329295 0.938997 0.145417
O O3 0.300689 0.920990 0.314077
O O4 0.827948 0.102786 0.895554
O O5 0.789425 0.944020 0.851137
O O6 0.735370 0.004421 0.000000
O O7 0.887990 0.829240 0.416105
O O8 0.024609 0.881712 0.500000
O O9 0.675202 0.670053 0.761673
O O10 0.764937 0.718080 0.624634
#
# Coordination Sequence:
#
# PCOD8304024 Si02
#       5
#    16  16   8  16  16
#     4  10  21  41  65  94 131 167 211 263 326 393
#     4  11  23  39  64  94 130 163 217 268 315 385
#     4  11  28  44  66  97 131 168 225 270 308 381
#     4  10  23  41  65  92 125 171 212 261 324 386
#     4  10  23  43  67  90 126 174 211 261 320 380
#
# _framework density 19.394317999999998
#
# number of rings (size 3 to 8) (size 9 to 14) (size 15 to 20)
#    0.000    1.667    2.222    0.667    9.333    0.444 
#    2.000    2.222    0.000    0.000    0.000    0.000 
#    0.000    0.000    0.000    0.000    0.000    0.000 
#
# Total GULP energy -446504.072094 kJ/mol
# GULP energy per Si atom -12402.890891 kJ/mol
# Density = 1.935018 g / cm^3
# Si number density = 19.394318 Si / 1000 Ang^3
#
#
#
# Elastic Constant Matrix: (Units=GPa)
#
#
# Indices 1 2 3 4 5 6 
#
# 1 116.2770 63.4644 62.2408 0.0000 0.0000 6.6950
# 2 63.4644 116.2770 62.2408 0.0000 0.0000 -6.6950
# 3 62.2408 62.2408 111.9039 0.0000 0.0000 0.0000
# 4 0.0000 0.0000 0.0000 24.6404 0.0000 0.0000
# 5 0.0000 0.0000 0.0000 0.0000 24.6404 0.0000
# 6 6.6950 -6.6950 0.0000 0.0000 0.0000 31.3424
#
#
#
# Elastic Compliance Matrix: (Units=1/GPa)
#
#
# Indices 1 2 3 4 5 6 
#
# 1 0.014534 -0.005485 -0.005033 0.000000 0.000000 -0.004276
# 2 -0.005485 0.014534 -0.005033 0.000000 0.000000 0.004276
# 3 -0.005033 -0.005033 0.014535 0.000000 0.000000 0.000000
# 4 0.000000 0.000000 0.000000 0.040584 0.000000 0.000000
# 5 0.000000 0.000000 0.000000 0.000000 0.040584 0.000000
# 6 -0.004276 0.004276 0.000000 0.000000 0.000000 0.033733
#
#
# Mechanical properties :
#
#
# Convention : Reuss Voigt Hill
#
# Bulk Modulus (GPa) = 79.99383 80.03885 80.01634
# Shear Modulus (GPa) = 25.80333 26.55876 26.18105
#
# Velocity S-wave (km/s) = 3.65150 3.70457 3.67813
# Velocity P-wave (km/s) = 7.68853 7.72381 7.70619
#
# Compressibility (1/GPa) = 0.01250096
#
# Stress axis : x y z
#
# Youngs Moduli (GPa) = 68.80316 68.80316 68.79844
#
# Poissons Ratio (x) = 0.37737 0.34628
# Poissons Ratio (y) = 0.37737 0.34628
# Poissons Ratio (z) = 0.34630 0.34630
#
# Static dielectric constant tensor:
#      x y z
#    x 3.676170 0.000000 0.000000 
#    y 0.000000 3.676170 0.000000 
#    z 0.000000 0.000000 3.423380 
# 
# 
# High freq. dielectric constant tensor:
#      x y z
#    x 1.766930 0.000000 0.000000 
#    y 0.000000 1.766930 0.000000 
#    z 0.000000 0.000000 1.747690 
# 
# From -- ./inp_files/4255.got.cif
#   From: 2010.03.12/outbox.cif.g09.slc.cpg/sg87_3_cif.got.tgz:4255.got - 2010.04.08 20:16:13.
