data_PCOD8304939
_publ_section_title
;
Structure prediction by ZEFSAII (Michael W. Deem and Ramdas Pophale) SiO2 
 PCOD8304939
Probable space group: P 41 2 2
;
_chemical_formula_sum "Si O2"
_cell_formula_units_Z 56
_cell_length_a 14.497833
_cell_length_b 14.497833
_cell_length_c 12.562596
_cell_angle_alpha 90.000000
_cell_angle_beta 90.000000
_cell_angle_gamma 90.000000
_cell_volume 2640.496397
_symmetry_space_group_name_H-M "P 41 2 2"
_symmetry_group_IT_number 91
_symmetry_cell_setting 'tetragonal'
loop_
_space_group_symop_operation_xyz
x,y,z
-y,x,1/4+z
-x,-y,1/2+z
y,-x,3/4+z
x,-y,1/2-z
-x,y,-z
y,x,3/4-z
-y,-x,1/4-z
loop_
_atom_site_type_symbol
_atom_site_label
_atom_site_fract_x
_atom_site_fract_y
_atom_site_fract_z
Si Si1 0.924150 0.719133 0.089040
Si Si2 0.775883 0.791749 0.491478
Si Si3 0.098168 0.372437 0.042633
Si Si4 0.598811 0.053150 0.522722
Si Si5 0.327149 0.394248 0.764148
Si Si6 0.433272 0.823291 0.211685
Si Si7 0.503887 0.355673 0.378692
O O1 0.867459 0.793957 0.162637
O O2 0.977323 0.663684 0.177911
O O3 0.847632 0.653078 0.036402
O O4 0.000000 0.757244 0.000000
O O5 0.819272 0.819272 0.375000
O O6 0.821117 0.693934 0.510578
O O7 0.666569 0.767161 0.485670
O O8 0.094387 0.358556 0.167656
O O9 0.122885 0.474674 0.999519
O O10 0.000000 0.340435 0.000000
O O11 0.500000 0.005737 0.500000
O O12 0.589774 0.142338 0.594887
O O13 0.295433 0.500000 0.750000
O O14 0.381884 0.381884 0.875000
O O15 0.392406 0.366513 0.664443
O O16 0.449865 0.714169 0.201150
O O17 0.500000 0.318139 0.500000
O O18 0.454813 0.454813 0.375000
#
# Coordination Sequence:
#
# PCOD8304939 Si02
#       7
#     8   8   8   8   8   8   8
#     4  10  22  40  61  89 127 165 207 266 334 405
#     4  11  25  39  61  94 127 164 219 272 332 400
#     4  11  20  37  62  86 122 162 213 269 329 388
#     4   9  18  35  57  86 115 153 207 260 321 379
#     4  11  24  40  55  83 128 183 237 275 320 383
#     4  10  21  34  58  86 119 165 217 275 322 378
#     4  12  24  37  57  80 122 178 237 280 315 368
#
# _framework density 21.208133
#
# number of rings (size 3 to 8) (size 9 to 14) (size 15 to 20)
#    0.000    1.429    1.429    6.000    4.000    0.571 
#    0.000    2.143    0.000    0.000    0.000    8.000 
#    0.000    0.000    0.000    0.000    0.000    0.000 
#
# Total GULP energy -693837.654923 kJ/mol
# GULP energy per Si atom -12389.958124 kJ/mol
# Density = 2.115986 g / cm^3
# Si number density = 21.208133 Si / 1000 Ang^3
#
#
#
# Elastic Constant Matrix: (Units=GPa)
#
#
# Indices 1 2 3 4 5 6 
#
# 1 52.3018 4.9677 25.1225 0.0000 0.0000 0.0000
# 2 4.9677 52.3018 25.1225 0.0000 0.0000 0.0000
# 3 25.1225 25.1225 115.3764 0.0000 0.0000 0.0000
# 4 0.0000 0.0000 0.0000 32.9799 0.0000 0.0000
# 5 0.0000 0.0000 0.0000 0.0000 32.9799 0.0000
# 6 0.0000 0.0000 0.0000 0.0000 0.0000 14.1860
#
#
#
# Elastic Compliance Matrix: (Units=1/GPa)
#
#
# Indices 1 2 3 4 5 6 
#
# 1 0.021356 0.000229 -0.004700 0.000000 0.000000 0.000000
# 2 0.000229 0.021356 -0.004700 0.000000 0.000000 0.000000
# 3 -0.004700 -0.004700 0.010714 0.000000 0.000000 0.000000
# 4 0.000000 0.000000 0.000000 0.030321 0.000000 0.000000
# 5 0.000000 0.000000 0.000000 0.000000 0.030321 0.000000
# 6 0.000000 0.000000 0.000000 0.000000 0.000000 0.070492
#
#
# Mechanical properties :
#
#
# Convention : Reuss Voigt Hill
#
# Bulk Modulus (GPa) = 28.50321 36.71170 32.60746
# Shear Modulus (GPa) = 23.29958 27.01367 25.15662
#
# Velocity S-wave (km/s) = 3.31813 3.57282 3.44783
# Velocity P-wave (km/s) = 5.30556 5.86241 5.59092
#
# Compressibility (1/GPa) = 0.03508377
#
# Stress axis : x y z
#
# Youngs Moduli (GPa) = 46.82619 46.82619 93.33545
#
# Poissons Ratio (x) = -0.01073 0.43867
# Poissons Ratio (y) = -0.01073 0.43867
# Poissons Ratio (z) = 0.22008 0.22008
#
# Static dielectric constant tensor:
#      x y z
#    x 3.673730 0.000000 0.000000 
#    y 0.000000 3.673730 0.000000 
#    z 0.000000 0.000000 4.139610 
# 
# 
# High freq. dielectric constant tensor:
#      x y z
#    x 1.802160 0.000000 0.000000 
#    y 0.000000 1.802160 0.000000 
#    z 0.000000 0.000000 1.856410 
# 
# From -- ./inp_files/3901.got.cif
#   From: 2010.03.12/outbox.cif.g09.slc.cpg/sg91_2_cif.got.tgz:3901.got - 2010.04.08 20:27:58.
