data_PCOD8304945
_publ_section_title
;
Structure prediction by ZEFSAII (Michael W. Deem and Ramdas Pophale) SiO2 
 PCOD8304945
Probable space group: P 41 2 2
;
_chemical_formula_sum "Si O2"
_cell_formula_units_Z 48
_cell_length_a 8.864643
_cell_length_b 8.864643
_cell_length_c 31.005176
_cell_angle_alpha 90.000000
_cell_angle_beta 90.000000
_cell_angle_gamma 90.000000
_cell_volume 2436.445501
_symmetry_space_group_name_H-M "P 41 2 2"
_symmetry_group_IT_number 91
_symmetry_cell_setting 'tetragonal'
loop_
_space_group_symop_operation_xyz
x,y,z
-y,x,1/4+z
-x,-y,1/2+z
y,-x,3/4+z
x,-y,1/2-z
-x,y,-z
y,x,3/4-z
-y,-x,1/4-z
loop_
_atom_site_type_symbol
_atom_site_label
_atom_site_fract_x
_atom_site_fract_y
_atom_site_fract_z
Si Si1 0.319633 0.185945 0.334559
Si Si2 0.905112 0.378977 0.365761
Si Si3 0.308784 0.846760 0.659493
Si Si4 0.089654 0.637829 0.220751
Si Si5 0.325708 0.210804 0.989525
Si Si6 0.180992 0.332477 0.069185
O O1 0.290969 0.290969 0.375000
O O2 0.218129 0.240747 0.293512
O O3 0.494076 0.208685 0.327124
O O4 0.291925 0.011352 0.349074
O O5 0.833929 0.527143 0.387413
O O6 0.767343 0.270587 0.353953
O O7 0.002044 0.422067 0.322541
O O8 0.176893 0.823108 0.625000
O O9 0.278242 0.711684 0.693072
O O10 0.283920 0.007911 0.680321
O O11 0.158655 0.500000 0.250000
O O12 0.965619 0.718142 0.251850
O O13 0.500000 0.232514 0.000000
O O14 0.229867 0.313185 0.020768
#
# Coordination Sequence:
#
# PCOD8304945 Si02
#       6
#     8   8   8   8   8   8
#     4   9  19  35  58  84 111 147 187 233 282 336
#     4   9  20  38  57  81 116 149 187 237 280 333
#     4  11  21  36  58  83 111 146 190 232 277 336
#     4   9  17  34  58  83 113 147 187 234 288 336
#     4  10  21  37  57  81 113 149 184 229 285 337
#     4  10  21  36  56  84 113 146 187 233 282 332
#
# _framework density 19.70083
#
# number of rings (size 3 to 8) (size 9 to 14) (size 15 to 20)
#    0.000    2.333    0.000    3.500    0.000    6.000 
#    0.000    5.000    0.000   10.000    0.000    0.000 
#    0.000    0.000    0.000    0.000    0.000    0.000 
#
# Total GULP energy -594668.479113 kJ/mol
# GULP energy per Si atom -12388.926648 kJ/mol
# Density = 1.965599 g / cm^3
# Si number density = 19.700830 Si / 1000 Ang^3
#
#
#
# Elastic Constant Matrix: (Units=GPa)
#
#
# Indices 1 2 3 4 5 6 
#
# 1 91.0599 73.2152 54.4880 0.0000 0.0000 0.0000
# 2 73.2152 91.0591 54.4875 0.0000 0.0000 0.0000
# 3 54.4880 54.4875 98.4570 0.0000 0.0000 0.0000
# 4 0.0000 0.0000 0.0000 38.0721 0.0000 0.0000
# 5 0.0000 0.0000 0.0000 0.0000 38.0722 0.0000
# 6 0.0000 0.0000 0.0000 0.0000 0.0000 30.8089
#
#
#
# Elastic Compliance Matrix: (Units=1/GPa)
#
#
# Indices 1 2 3 4 5 6 
#
# 1 0.032829 -0.023211 -0.005323 0.000000 0.000000 0.000000
# 2 -0.023211 0.032830 -0.005323 0.000000 0.000000 0.000000
# 3 -0.005323 -0.005323 0.016048 0.000000 0.000000 0.000000
# 4 0.000000 0.000000 0.000000 0.026266 0.000000 0.000000
# 5 0.000000 0.000000 0.000000 0.000000 0.026266 0.000000
# 6 0.000000 0.000000 0.000000 0.000000 0.000000 0.032458
#
#
# Mechanical properties :
#
#
# Convention : Reuss Voigt Hill
#
# Bulk Modulus (GPa) = 71.46278 71.66193 71.56235
# Shear Modulus (GPa) = 20.91386 27.94966 24.43176
#
# Velocity S-wave (km/s) = 3.26171 3.77066 3.52538
# Velocity P-wave (km/s) = 7.10899 7.44387 7.27836
#
# Compressibility (1/GPa) = 0.01399330
#
# Stress axis : x y z
#
# Youngs Moduli (GPa) = 30.46052 30.46035 62.31130
#
# Poissons Ratio (x) = 0.70701 0.33169
# Poissons Ratio (y) = 0.70702 0.33168
# Poissons Ratio (z) = 0.16215 0.16214
#
# Static dielectric constant tensor:
#      x y z
#    x 3.622300 0.000000 0.000000 
#    y 0.000000 3.622300 0.000000 
#    z 0.000000 0.000000 3.905050 
# 
# 
# High freq. dielectric constant tensor:
#      x y z
#    x 1.762560 0.000000 0.000000 
#    y 0.000000 1.762560 0.000000 
#    z 0.000000 0.000000 1.774140 
# 
# From -- ./inp_files/18167.got.cif
#   From: 2010.03.12/outbox.cif.g09.slc.cpg/sg91_10_cif.got.tgz:18167.got - 2010.04.08 20:27:58.
