data_PCOD8304317
_publ_section_title
;
Structure prediction by ZEFSAII (Michael W. Deem and Ramdas Pophale) SiO2 
 PCOD8304317
Probable space group: I 41/A
;
_chemical_formula_sum "Si O2"
_cell_formula_units_Z 116
_cell_length_a 17.158777
_cell_length_b 17.158777
_cell_length_c 18.576558
_cell_angle_alpha 90.000000
_cell_angle_beta 90.000000
_cell_angle_gamma 90.000000
_cell_volume 5469.377605
_symmetry_space_group_name_H-M "I 41/A"
_symmetry_group_IT_number 88
_space_group.IT_coordinate_system_code '2'
_symmetry_cell_setting 'tetragonal'
loop_
_space_group_symop_operation_xyz
x,y,z
3/4-y,1/4+x,1/4+z
-x,1/2-y,z
1/4+y,1/4-x,1/4+z
-x,-y,-z
1/4+y,3/4-x,3/4-z
x,1/2+y,-z
3/4-y,3/4+x,3/4-z
1/2+x,1/2+y,1/2+z
1/4-y,3/4+x,3/4+z
1/2-x,-y,1/2+z
3/4+y,3/4-x,3/4+z
1/2-x,1/2-y,1/2-z
3/4+y,1/4-x,1/4-z
1/2+x,y,1/2-z
1/4-y,1/4+x,1/4-z
loop_
_atom_site_type_symbol
_atom_site_label
_atom_site_fract_x
_atom_site_fract_y
_atom_site_fract_z
Si Si1 0.525140 0.596678 0.036185
Si Si2 0.587051 0.977727 0.510212
Si Si3 0.364430 0.551212 0.764460
Si Si4 0.307795 0.599467 0.413506
Si Si5 0.562861 0.362647 0.368492
Si Si6 0.687533 0.019689 0.005417
Si Si7 0.500000 0.250000 0.875000
Si Si8 0.297042 0.260705 0.636104
O O1 0.532219 0.681491 0.072887
O O2 0.478740 0.539346 0.090020
O O3 0.604990 0.545071 0.029082
O O4 0.481392 0.601772 0.958498
O O5 0.614470 0.948736 0.431672
O O6 0.600718 0.908259 0.565809
O O7 0.500000 0.000000 0.500000
O O8 0.635350 0.051305 0.537679
O O9 0.420688 0.586517 0.703148
O O10 0.318482 0.471490 0.738836
O O11 0.412605 0.538679 0.838007
O O12 0.273454 0.565423 0.340727
O O13 0.247201 0.584784 0.477786
O O14 0.331391 0.690281 0.411026
O O15 0.604398 0.279050 0.366373
#
# Coordination Sequence:
#
# PCOD8304317 Si02
#       8
#    16  16  16  16  16  16   4  16
#     4  10  23  43  69  96 144 169 229 281 339 418
#     4  11  24  41  61  95 130 169 226 275 325 407
#     4  11  24  39  70  97 130 179 230 278 341 402
#     4  10  22  38  64  88 135 168 221 276 342 394
#     4  11  24  44  66  96 139 179 217 277 348 411
#     4  10  22  40  65  99 126 180 220 285 330 407
#     4  12  24  48  72 108 140 192 222 288 372 416
#     4  10  22  43  63 101 131 179 224 279 339 405
#
# _framework density 21.208994000000001
#
# number of rings (size 3 to 8) (size 9 to 14) (size 15 to 20)
#    0.000    1.517    1.379    2.483    9.655    3.310 
#    4.966    0.000    0.000    0.000    0.000    0.000 
#    0.000    0.000    0.000    0.000    0.000    0.000 
#
# Total GULP energy -718637.930179 kJ/mol
# GULP energy per Si atom -12390.309141 kJ/mol
# Density = 2.116072 g / cm^3
# Si number density = 21.208994 Si / 1000 Ang^3
#
#
#
# Elastic Constant Matrix: (Units=GPa)
#
#
# Indices 1 2 3 4 5 6 
#
# 1 105.4364 37.8634 51.7550 0.0000 0.0000 -3.2659
# 2 37.8634 105.4364 51.7550 0.0000 0.0000 3.2659
# 3 51.7550 51.7550 100.6004 0.0000 0.0000 0.0000
# 4 0.0000 0.0000 0.0000 35.3504 0.0000 0.0000
# 5 0.0000 0.0000 0.0000 0.0000 35.3504 0.0000
# 6 -3.2659 3.2659 0.0000 0.0000 0.0000 27.3435
#
#
#
# Elastic Compliance Matrix: (Units=1/GPa)
#
#
# Indices 1 2 3 4 5 6 
#
# 1 0.013038 -0.001933 -0.005713 0.000000 0.000000 0.001788
# 2 -0.001933 0.013038 -0.005713 0.000000 0.000000 -0.001788
# 3 -0.005713 -0.005713 0.015819 0.000000 0.000000 0.000000
# 4 0.000000 0.000000 0.000000 0.028288 0.000000 0.000000
# 5 0.000000 0.000000 0.000000 0.000000 0.028288 0.000000
# 6 0.001788 -0.001788 0.000000 0.000000 0.000000 0.036999
#
#
# Mechanical properties :
#
#
# Convention : Reuss Voigt Hill
#
# Bulk Modulus (GPa) = 65.89190 66.02445 65.95817
# Shear Modulus (GPa) = 29.89553 30.94884 30.42219
#
# Velocity S-wave (km/s) = 3.75850 3.82413 3.79146
# Velocity P-wave (km/s) = 7.06897 7.12016 7.09461
#
# Compressibility (1/GPa) = 0.01517637
#
# Stress axis : x y z
#
# Youngs Moduli (GPa) = 76.69639 76.69639 63.21611
#
# Poissons Ratio (x) = 0.14827 0.36117
# Poissons Ratio (y) = 0.14827 0.36117
# Poissons Ratio (z) = 0.43818 0.43818
#
# Static dielectric constant tensor:
#      x y z
#    x 3.902290 0.000000 0.000000 
#    y 0.000000 3.902290 0.000000 
#    z 0.000000 0.000000 3.879790 
# 
# 
# High freq. dielectric constant tensor:
#      x y z
#    x 1.831110 0.000000 0.000000 
#    y 0.000000 1.831110 0.000000 
#    z 0.000000 0.000000 1.839760 
# 
# From -- ./inp_files/4021.got.cif
#   From: 2010.03.12/outbox.cif.g09.slc.cpg/sg88_3_cif.got.tgz:4021.got - 2010.04.08 20:20:55.
