data_PCOD8304637
_publ_section_title
;
Structure prediction by ZEFSAII (Michael W. Deem and Ramdas Pophale) SiO2 
 PCOD8304637
Probable space group: P 4 21 2
;
_chemical_formula_sum "Si O2"
_cell_formula_units_Z 60
_cell_length_a 11.866526
_cell_length_b 11.866526
_cell_length_c 20.582254
_cell_angle_alpha 90.000000
_cell_angle_beta 90.000000
_cell_angle_gamma 90.000000
_cell_volume 2898.278557
_symmetry_space_group_name_H-M "P 4 21 2"
_symmetry_group_IT_number 90
_symmetry_cell_setting 'tetragonal'
loop_
_space_group_symop_operation_xyz
x,y,z
1/2-y,1/2+x,z
-x,-y,z
1/2+y,1/2-x,z
1/2+x,1/2-y,-z
1/2-x,1/2+y,-z
y,x,-z
-y,-x,-z
loop_
_atom_site_type_symbol
_atom_site_label
_atom_site_fract_x
_atom_site_fract_y
_atom_site_fract_z
Si Si1 0.331607 0.937722 0.370106
Si Si2 0.842000 0.404950 0.108059
Si Si3 0.598071 0.156314 0.036792
Si Si4 0.246393 0.683769 0.832888
Si Si5 0.421965 0.669935 0.569650
Si Si6 0.272606 0.325040 0.430935
Si Si7 0.955292 0.216224 0.757333
Si Si8 0.500000 0.500000 0.676426
O O1 0.434277 0.856492 0.393645
O O2 0.213640 0.889522 0.397088
O O3 0.319547 0.940632 0.292824
O O4 0.847668 0.537378 0.117626
O O5 0.761967 0.356917 0.164614
O O6 0.797501 0.374565 0.035377
O O7 0.465217 0.152129 0.046204
O O8 0.646633 0.233946 0.092840
O O9 0.273315 0.579041 0.787218
O O10 0.141144 0.760883 0.810381
O O11 0.389328 0.610672 0.500000
O O12 0.338386 0.766079 0.598918
O O13 0.541344 0.733323 0.562600
O O14 0.430838 0.582982 0.629050
O O15 0.268392 0.268392 0.500000
O O16 0.940765 0.093617 0.722944
#
# Coordination Sequence:
#
# PCOD8304637 Si02
#       8
#     8   8   8   8   8   8   8   4
#     4  11  23  43  65  94 132 171 218 271 326 386
#     4   9  21  41  65  88 119 170 219 264 321 392
#     4   9  17  35  63  93 124 161 210 268 327 388
#     4  12  23  39  61  93 133 165 213 264 330 382
#     4  11  25  45  73  99 132 174 217 279 336 399
#     4  11  25  42  68 101 130 171 220 266 337 394
#     4  12  26  38  64  94 129 175 211 267 319 394
#     4  12  25  44  64  92 137 170 228 260 334 394
#
# _framework density 20.701944000000001
#
# number of rings (size 3 to 8) (size 9 to 14) (size 15 to 20)
#    0.000    1.200    4.000    3.000    5.600    0.533 
#    0.000    0.000    0.000    0.000    0.000    0.000 
#    0.000    0.000    0.000    0.000    0.000    0.000 
#
# Total GULP energy -743522.255817 kJ/mol
# GULP energy per Si atom -12392.037597 kJ/mol
# Density = 2.065483 g / cm^3
# Si number density = 20.701944 Si / 1000 Ang^3
#
#
#
# Elastic Constant Matrix: (Units=GPa)
#
#
# Indices 1 2 3 4 5 6 
#
# 1 35.7533 100.0430 39.3191 0.0000 0.0000 0.0000
# 2 100.0430 35.7504 39.3188 0.0000 0.0000 0.0000
# 3 39.3191 39.3188 78.5059 0.0000 0.0000 0.0000
# 4 0.0000 0.0000 0.0000 36.0757 0.0000 0.0000
# 5 0.0000 0.0000 0.0000 0.0000 36.0759 0.0000
# 6 0.0000 0.0000 0.0000 0.0000 0.0000 37.7285
#
#
#
# Elastic Compliance Matrix: (Units=1/GPa)
#
#
# Indices 1 2 3 4 5 6 
#
# 1 -0.002591 0.012963 -0.005195 0.000000 0.000000 0.000000
# 2 0.012963 -0.002591 -0.005195 0.000000 0.000000 0.000000
# 3 -0.005195 -0.005195 0.017942 0.000000 0.000000 0.000000
# 4 0.000000 0.000000 0.000000 0.027719 0.000000 0.000000
# 5 0.000000 0.000000 0.000000 0.000000 0.027719 0.000000
# 6 0.000000 0.000000 0.000000 0.000000 0.000000 0.026505
#
#
# Mechanical properties :
#
#
# Convention : Reuss Voigt Hill
#
# Bulk Modulus (GPa) = 55.84511 56.37458 56.10984
# Shear Modulus (GPa) = 52.34201 20.06461 36.20331
#
# Velocity S-wave (km/s) = 5.03374 3.11660 4.18639
# Velocity P-wave (km/s) = 7.79866 6.34362 7.10847
#
# Compressibility (1/GPa) = 0.01790667
#
# Stress axis : x y z
#
# Youngs Moduli (GPa) = -385.99215 -385.93193 55.73656
#
# Poissons Ratio (x) = 5.00296 0.28955
# Poissons Ratio (y) = 5.00374 0.28954
# Poissons Ratio (z) = -2.00522 -2.00486
#
# Static dielectric constant tensor:
#      x y z
#    x 3.654110 0.000000 0.000000 
#    y 0.000000 3.654100 0.000000 
#    z 0.000000 0.000000 3.811250 
# 
# 
# High freq. dielectric constant tensor:
#      x y z
#    x 1.809750 0.000000 0.000000 
#    y 0.000000 1.809750 0.000000 
#    z 0.000000 0.000000 1.806470 
# 
# From -- ./inp_files/2858.got.cif
#   From: 2010.03.12/outbox.cif.g09.slc.cpg/sg90_2_cif.got.tgz:2858.got - 2010.04.08 20:26:03.
