data_PCOD8304011
_publ_section_title
;
Structure prediction by ZEFSAII (Michael W. Deem and Ramdas Pophale) SiO2 
 PCOD8304011
Probable space group: I 4/M
;
_chemical_formula_sum "Si O2"
_cell_formula_units_Z 112
_cell_length_a 14.203610
_cell_length_b 14.203610
_cell_length_c 26.648625
_cell_angle_alpha 90.000000
_cell_angle_beta 90.000000
_cell_angle_gamma 90.000000
_cell_volume 5376.161216
_symmetry_space_group_name_H-M "I 4/M"
_symmetry_group_IT_number 87
_symmetry_cell_setting 'tetragonal'
loop_
_space_group_symop_operation_xyz
x,y,z
-y,x,z
-x,-y,z
y,-x,z
-x,-y,-z
y,-x,-z
x,y,-z
-y,x,-z
1/2+x,1/2+y,1/2+z
1/2-y,1/2+x,1/2+z
1/2-x,1/2-y,1/2+z
1/2+y,1/2-x,1/2+z
1/2-x,1/2-y,1/2-z
1/2+y,1/2-x,1/2-z
1/2+x,1/2+y,1/2-z
1/2-y,1/2+x,1/2-z
loop_
_atom_site_type_symbol
_atom_site_label
_atom_site_fract_x
_atom_site_fract_y
_atom_site_fract_z
Si Si1 0.210984 0.494168 0.358528
Si Si2 0.361107 0.750463 0.000000
Si Si3 0.865635 0.928401 0.338851
Si Si4 0.580569 0.778139 0.000000
Si Si5 0.470371 0.650947 0.555677
Si Si6 0.645882 0.539300 0.277627
Si Si7 0.814478 0.638447 0.890951
Si Si8 0.547212 0.907903 0.088552
O O1 0.268341 0.452236 0.404899
O O2 0.255686 0.453354 0.307246
O O3 0.203860 0.608759 0.362293
O O4 0.110776 0.444366 0.365314
O O5 0.330844 0.807895 0.050173
O O6 0.474080 0.737590 0.000000
O O7 0.311545 0.648987 0.000000
O O8 0.788138 0.862665 0.365478
O O9 0.962118 0.875314 0.354321
O O10 0.839611 0.937259 0.280390
O O11 0.601130 0.844106 0.952039
O O12 0.391878 0.572799 0.564223
O O13 0.461500 0.693965 0.500000
O O14 0.565090 0.611992 0.293766
O O15 0.845745 0.531347 0.884971
O O16 0.500000 0.000000 0.061809
#
# Coordination Sequence:
#
# PCOD8304011 Si02
#       8
#    16   8  16   8  16  16  16  16
#     4  11  21  35  60  86 116 157 194 239 292 352
#     4  10  24  37  56  86 119 151 199 253 295 350
#     4   9  20  42  67  83 112 158 194 243 312 362
#     4  10  21  39  56  82 113 157 195 246 294 349
#     4   9  19  34  51  79 119 157 191 231 282 343
#     4   9  19  39  62  89 119 151 194 240 300 361
#     4  10  23  41  56  86 123 150 201 247 289 356
#     4   9  21  39  57  75 115 162 191 226 294 360
#
# _framework density 20.832708
#
# number of rings (size 3 to 8) (size 9 to 14) (size 15 to 20)
#    0.000    2.429    0.000    2.357    6.000    4.714 
#    2.571    1.429    0.000    0.000    0.000    0.000 
#    0.000    0.000    0.000    0.000    0.000    0.000 
#
# Total GULP energy -693861.805527 kJ/mol
# GULP energy per Si atom -12390.389384 kJ/mol
# Density = 2.078529 g / cm^3
# Si number density = 20.832708 Si / 1000 Ang^3
#
#
#
# Elastic Constant Matrix: (Units=GPa)
#
#
# Indices 1 2 3 4 5 6 
#
# 1 44.4911 8.0793 18.4244 0.0000 0.0000 -5.7431
# 2 8.0793 44.4911 18.4244 0.0000 0.0000 5.7431
# 3 18.4244 18.4244 68.7869 0.0000 0.0000 0.0000
# 4 0.0000 0.0000 0.0000 17.7805 0.0000 0.0000
# 5 0.0000 0.0000 0.0000 0.0000 17.7805 0.0000
# 6 -5.7431 5.7431 0.0000 0.0000 0.0000 18.5631
#
#
#
# Elastic Compliance Matrix: (Units=1/GPa)
#
#
# Indices 1 2 3 4 5 6 
#
# 1 0.026926 -0.003507 -0.006273 0.000000 0.000000 0.009416
# 2 -0.003507 0.026926 -0.006273 0.000000 0.000000 -0.009416
# 3 -0.006273 -0.006273 0.017898 0.000000 0.000000 0.000000
# 4 0.000000 0.000000 0.000000 0.056242 0.000000 0.000000
# 5 0.000000 0.000000 0.000000 0.000000 0.056242 0.000000
# 6 0.009416 -0.009416 0.000000 0.000000 0.000000 0.059696
#
#
# Mechanical properties :
#
#
# Convention : Reuss Voigt Hill
#
# Bulk Modulus (GPa) = 25.22390 27.51392 26.36891
# Shear Modulus (GPa) = 17.28604 18.34754 17.81679
#
# Velocity S-wave (km/s) = 2.88367 2.97089 2.92761
# Velocity P-wave (km/s) = 4.81887 5.00040 4.91048
#
# Compressibility (1/GPa) = 0.03964495
#
# Stress axis : x y z
#
# Youngs Moduli (GPa) = 37.13830 37.13830 55.87242
#
# Poissons Ratio (x) = 0.13026 0.35047
# Poissons Ratio (y) = 0.13026 0.35047
# Poissons Ratio (z) = 0.23296 0.23296
#
# Static dielectric constant tensor:
#      x y z
#    x 3.761970 0.000000 0.000000 
#    y 0.000000 3.761970 0.000000 
#    z 0.000000 0.000000 3.543620 
# 
# 
# High freq. dielectric constant tensor:
#      x y z
#    x 1.812660 0.000000 0.000000 
#    y 0.000000 1.812660 0.000000 
#    z 0.000000 0.000000 1.796130 
# 
# From -- ./inp_files/6310.got.cif
#   From: 2010.03.12/outbox.cif.g09.slc.cpg/sg87_4_cif.got.tgz:6310.got - 2010.04.08 20:16:13.
