data_PCOD8304110
_publ_section_title
;
Structure prediction by ZEFSAII (Michael W. Deem and Ramdas Pophale) SiO2 
 PCOD8304110
Probable space group: I 4/M
;
_chemical_formula_sum "Si O2"
_cell_formula_units_Z 96
_cell_length_a 15.168171
_cell_length_b 15.168171
_cell_length_c 20.334440
_cell_angle_alpha 90.000000
_cell_angle_beta 90.000000
_cell_angle_gamma 90.000000
_cell_volume 4678.413981
_symmetry_space_group_name_H-M "I 4/M"
_symmetry_group_IT_number 87
_symmetry_cell_setting 'tetragonal'
loop_
_space_group_symop_operation_xyz
x,y,z
-y,x,z
-x,-y,z
y,-x,z
-x,-y,-z
y,-x,-z
x,y,-z
-y,x,-z
1/2+x,1/2+y,1/2+z
1/2-y,1/2+x,1/2+z
1/2-x,1/2-y,1/2+z
1/2+y,1/2-x,1/2+z
1/2-x,1/2-y,1/2-z
1/2+y,1/2-x,1/2-z
1/2+x,1/2+y,1/2-z
1/2-y,1/2+x,1/2-z
loop_
_atom_site_type_symbol
_atom_site_label
_atom_site_fract_x
_atom_site_fract_y
_atom_site_fract_z
Si Si1 0.743957 0.942609 0.375641
Si Si2 0.394253 0.398713 0.704731
Si Si3 0.122658 0.728289 0.866126
Si Si4 0.364316 0.048007 0.249546
Si Si5 0.632680 0.696046 0.159195
Si Si6 0.551174 0.121646 0.000000
Si Si7 0.053432 0.646704 0.000000
O O1 0.687697 0.915259 0.311910
O O2 0.816718 0.868310 0.391051
O O3 0.678868 0.942763 0.435730
O O4 0.795548 0.033411 0.365266
O O5 0.496619 0.377221 0.701478
O O6 0.334469 0.363754 0.643013
O O7 0.358391 0.351518 0.770138
O O8 0.047544 0.697510 0.814588
O O9 0.210074 0.679064 0.842814
O O10 0.090254 0.701736 0.938344
O O11 0.448143 0.109033 0.235094
O O12 0.453726 0.082922 0.000000
O O13 0.633491 0.052515 0.000000
#
# Coordination Sequence:
#
# PCOD8304110 Si02
#       7
#    16  16  16  16  16   8   8
#     4  12  25  40  68  96 140 182 238 283 354 430
#     4  11  24  43  68  99 138 181 226 284 355 418
#     4  12  24  41  70 101 135 179 239 294 347 431
#     4  11  21  37  62  96 130 166 219 295 362 421
#     4  12  23  42  67  98 131 182 226 295 342 423
#     4  11  24  47  67  99 142 192 226 289 368 429
#     4  11  24  45  73  99 143 185 231 295 369 424
#
# _framework density 20.519774000000002
#
# number of rings (size 3 to 8) (size 9 to 14) (size 15 to 20)
#    0.000    0.500    6.667    1.500    0.000    5.667 
#    0.000    0.833    0.000    2.000    0.000    0.000 
#    0.000    0.000    0.000    0.000    0.000    0.000 
#
# Total GULP energy -595024.146918 kJ/mol
# GULP energy per Si atom -12396.336394 kJ/mol
# Density = 2.047307 g / cm^3
# Si number density = 20.519774 Si / 1000 Ang^3
#
#
#
# Elastic Constant Matrix: (Units=GPa)
#
#
# Indices 1 2 3 4 5 6 
#
# 1 102.5170 36.6755 47.2546 0.0000 0.0000 7.5218
# 2 36.6755 102.5170 47.2546 0.0000 0.0000 -7.5218
# 3 47.2546 47.2546 143.1344 0.0000 0.0000 0.0000
# 4 0.0000 0.0000 0.0000 33.1827 0.0000 0.0000
# 5 0.0000 0.0000 0.0000 0.0000 33.1827 0.0000
# 6 7.5218 -7.5218 0.0000 0.0000 0.0000 20.4141
#
#
#
# Elastic Compliance Matrix: (Units=1/GPa)
#
#
# Indices 1 2 3 4 5 6 
#
# 1 0.012922 -0.003662 -0.003057 0.000000 0.000000 -0.006111
# 2 -0.003662 0.012922 -0.003057 0.000000 0.000000 0.006111
# 3 -0.003057 -0.003057 0.009005 0.000000 0.000000 0.000000
# 4 0.000000 0.000000 0.000000 0.030136 0.000000 0.000000
# 5 0.000000 0.000000 0.000000 0.000000 0.030136 0.000000
# 6 -0.006111 0.006111 0.000000 0.000000 0.000000 0.053489
#
#
# Mechanical properties :
#
#
# Convention : Reuss Voigt Hill
#
# Bulk Modulus (GPa) = 65.37409 67.83752 66.60581
# Shear Modulus (GPa) = 28.85806 31.82149 30.33978
#
# Velocity S-wave (km/s) = 3.75421 3.94226 3.84938
# Velocity P-wave (km/s) = 7.12182 7.33847 7.23096
#
# Compressibility (1/GPa) = 0.01529658
#
# Stress axis : x y z
#
# Youngs Moduli (GPa) = 77.38688 77.38688 111.04947
#
# Poissons Ratio (x) = 0.28340 0.33949
# Poissons Ratio (y) = 0.28340 0.33949
# Poissons Ratio (z) = 0.23658 0.23658
#
# Static dielectric constant tensor:
#      x y z
#    x 3.970150 0.000000 0.000000 
#    y 0.000000 3.970150 0.000000 
#    z 0.000000 0.000000 3.751180 
# 
# 
# High freq. dielectric constant tensor:
#      x y z
#    x 1.816790 0.000000 0.000000 
#    y 0.000000 1.816790 0.000000 
#    z 0.000000 0.000000 1.782020 
# 
# From -- ./inp_files/5359.got.cif
#   From: 2010.03.12/outbox.cif.g09.slc.cpg/sg87_3_cif.got.tgz:5359.got - 2010.04.08 20:16:13.
