data_PCOD8304992
_publ_section_title
;
Structure prediction by ZEFSAII (Michael W. Deem and Ramdas Pophale) SiO2 
 PCOD8304992
Probable space group: P 41 2 2
;
_chemical_formula_sum "Si O2"
_cell_formula_units_Z 40
_cell_length_a 8.789621
_cell_length_b 8.789621
_cell_length_c 23.062489
_cell_angle_alpha 90.000000
_cell_angle_beta 90.000000
_cell_angle_gamma 90.000000
_cell_volume 1781.748798
_symmetry_space_group_name_H-M "P 41 2 2"
_symmetry_group_IT_number 91
_symmetry_cell_setting 'tetragonal'
loop_
_space_group_symop_operation_xyz
x,y,z
-y,x,1/4+z
-x,-y,1/2+z
y,-x,3/4+z
x,-y,1/2-z
-x,y,-z
y,x,3/4-z
-y,-x,1/4-z
loop_
_atom_site_type_symbol
_atom_site_label
_atom_site_fract_x
_atom_site_fract_y
_atom_site_fract_z
Si Si1 0.712978 0.827800 0.817129
Si Si2 0.338765 0.553646 0.971865
Si Si3 0.167109 0.048530 0.019715
Si Si4 0.148495 0.338047 0.622045
Si Si5 0.221332 0.608640 0.697985
O O1 0.723837 0.723837 0.875000
O O2 0.573576 0.775616 0.776449
O O3 0.871454 0.811793 0.782552
O O4 0.685047 0.001997 0.832281
O O5 0.294791 0.675680 0.920988
O O6 0.318498 0.389695 0.939470
O O7 0.500000 0.593937 0.000000
O O8 0.213747 0.149593 0.076268
O O9 0.269429 0.092991 0.964498
O O10 0.000000 0.092505 0.000000
O O11 0.150167 0.510312 0.646347
O O12 0.261277 0.500000 0.750000
#
# Coordination Sequence:
#
# PCOD8304992 Si02
#       5
#     8   8   8   8   8
#     4  10  23  41  64  93 126 165 209 259 314 375
#     4  11  23  40  63  93 127 165 210 260 314 374
#     4  10  21  41  65  94 126 164 211 259 313 374
#     4  10  21  42  64  90 130 166 204 259 317 374
#     4   9  21  40  62  88 124 162 201 251 306 367
#
# _framework density 22.449853999999998
#
# number of rings (size 3 to 8) (size 9 to 14) (size 15 to 20)
#    0.000    2.000    0.000    2.400    0.000   10.400 
#    0.000   22.000    0.000    0.000    0.000    0.000 
#    0.000    0.000    0.000    0.000    0.000    0.000 
#
# Total GULP energy -495579.061238 kJ/mol
# GULP energy per Si atom -12389.476531 kJ/mol
# Density = 2.239876 g / cm^3
# Si number density = 22.449854 Si / 1000 Ang^3
#
#
#
# Elastic Constant Matrix: (Units=GPa)
#
#
# Indices 1 2 3 4 5 6 
#
# 1 89.7653 55.9956 40.3541 0.0000 0.0000 0.0000
# 2 55.9956 89.7653 40.3541 0.0000 0.0000 0.0000
# 3 40.3541 40.3541 61.0482 0.0000 0.0000 0.0000
# 4 0.0000 0.0000 0.0000 36.0547 0.0000 0.0000
# 5 0.0000 0.0000 0.0000 0.0000 36.0547 0.0000
# 6 0.0000 0.0000 0.0000 0.0000 0.0000 30.2893
#
#
#
# Elastic Compliance Matrix: (Units=1/GPa)
#
#
# Indices 1 2 3 4 5 6 
#
# 1 0.020217 -0.009396 -0.007153 0.000000 0.000000 0.000000
# 2 -0.009396 0.020217 -0.007153 0.000000 0.000000 0.000000
# 3 -0.007153 -0.007153 0.025837 0.000000 0.000000 0.000000
# 4 0.000000 0.000000 0.000000 0.027736 0.000000 0.000000
# 5 0.000000 0.000000 0.000000 0.000000 0.027736 0.000000
# 6 0.000000 0.000000 0.000000 0.000000 0.000000 0.033015
#
#
# Mechanical properties :
#
#
# Convention : Reuss Voigt Hill
#
# Bulk Modulus (GPa) = 53.00156 57.10961 55.05558
# Shear Modulus (GPa) = 23.98663 27.40471 25.69567
#
# Velocity S-wave (km/s) = 3.27227 3.49765 3.38684
# Velocity P-wave (km/s) = 6.15931 6.46571 6.31437
#
# Compressibility (1/GPa) = 0.01886737
#
# Stress axis : x y z
#
# Youngs Moduli (GPa) = 49.46384 49.46384 38.70401
#
# Poissons Ratio (x) = 0.46474 0.27685
# Poissons Ratio (y) = 0.46474 0.27685
# Poissons Ratio (z) = 0.35382 0.35382
#
# Static dielectric constant tensor:
#      x y z
#    x 4.319900 0.000000 0.000000 
#    y 0.000000 4.319900 0.000000 
#    z 0.000000 0.000000 4.792510 
# 
# 
# High freq. dielectric constant tensor:
#      x y z
#    x 1.872310 0.000000 0.000000 
#    y 0.000000 1.872310 0.000000 
#    z 0.000000 0.000000 1.904470 
# 
# From -- ./inp_files/6791.got.cif
#   From: 2010.03.12/outbox.cif.g09.slc.cpg/sg91_4_cif.got.tgz:6791.got - 2010.04.08 20:27:58.
