data_PCOD8304641
_publ_section_title
;
Structure prediction by ZEFSAII (Michael W. Deem and Ramdas Pophale) SiO2 
 PCOD8304641
Probable space group: P 4 21 2
;
_chemical_formula_sum "Si O2"
_cell_formula_units_Z 48
_cell_length_a 8.532459
_cell_length_b 8.532459
_cell_length_c 31.356222
_cell_angle_alpha 90.000000
_cell_angle_beta 90.000000
_cell_angle_gamma 90.000000
_cell_volume 2282.822533
_symmetry_space_group_name_H-M "P 4 21 2"
_symmetry_group_IT_number 90
_symmetry_cell_setting 'tetragonal'
loop_
_space_group_symop_operation_xyz
x,y,z
1/2-y,1/2+x,z
-x,-y,z
1/2+y,1/2-x,z
1/2+x,1/2-y,-z
1/2-x,1/2+y,-z
y,x,-z
-y,-x,-z
loop_
_atom_site_type_symbol
_atom_site_label
_atom_site_fract_x
_atom_site_fract_y
_atom_site_fract_z
Si Si1 0.421488 0.755435 0.533568
Si Si2 0.081819 0.256563 0.370493
Si Si3 0.902645 0.738442 0.791233
Si Si4 0.587663 0.244855 0.300546
Si Si5 0.237471 0.605565 0.039138
Si Si6 0.737923 0.892551 0.116582
O O1 0.598680 0.806655 0.525923
O O2 0.380463 0.619538 0.500000
O O3 0.397426 0.690824 0.581541
O O4 0.194781 0.403829 0.362868
O O5 0.128963 0.122341 0.337180
O O6 0.800826 0.583743 0.791143
O O7 0.873631 0.826845 0.745957
O O8 0.863175 0.820810 0.836635
O O9 0.407589 0.196607 0.305285
O O10 0.204292 0.421804 0.037011
O O11 0.332536 0.637941 0.082367
O O12 0.347706 0.652295 0.000000
O O13 0.576436 0.797010 0.110795
#
# Coordination Sequence:
#
# PCOD8304641 Si02
#       6
#     8   8   8   8   8   8
#     4   9  19  35  52  70  94 124 159 199 243 293
#     4   9  19  35  50  66  95 133 165 195 239 293
#     4   7  12  26  48  73 101 130 160 198 242 285
#     4   9  17  30  50  76 102 128 163 206 245 282
#     4  11  24  39  54  75 103 133 166 204 246 293
#     4   9  17  32  56  81 102 129 166 204 244 291
#
# _framework density 21.026600999999999
#
# number of rings (size 3 to 8) (size 9 to 14) (size 15 to 20)
#    0.000    3.000    0.000    4.000    0.000    6.000 
#    0.000    6.667    0.000    8.000    0.000    0.000 
#    0.000    0.000    0.000    0.000    0.000    0.000 
#
# Total GULP energy -594728.133686 kJ/mol
# GULP energy per Si atom -12390.169452 kJ/mol
# Density = 2.097874 g / cm^3
# Si number density = 21.026601 Si / 1000 Ang^3
#
#
#
# Elastic Constant Matrix: (Units=GPa)
#
#
# Indices 1 2 3 4 5 6 
#
# 1 15.9764 -4.1714 11.6808 0.0000 0.0000 0.0000
# 2 -4.1714 15.9779 11.6819 0.0000 0.0000 0.0000
# 3 11.6808 11.6819 149.5087 0.0000 0.0000 0.0000
# 4 0.0000 0.0000 0.0000 -12.6079 0.0000 0.0000
# 5 0.0000 0.0000 0.0000 0.0000 -12.6088 0.0000
# 6 0.0000 0.0000 0.0000 0.0000 0.0000 24.2021
#
#
#
# Elastic Compliance Matrix: (Units=1/GPa)
#
#
# Indices 1 2 3 4 5 6 
#
# 1 0.074917 0.025283 -0.007829 0.000000 0.000000 0.000000
# 2 0.025283 0.074911 -0.007828 0.000000 0.000000 0.000000
# 3 -0.007829 -0.007828 0.007912 0.000000 0.000000 0.000000
# 4 0.000000 0.000000 0.000000 -0.079315 0.000000 0.000000
# 5 0.000000 0.000000 0.000000 0.000000 -0.079310 0.000000
# 6 0.000000 0.000000 0.000000 0.000000 0.000000 0.041319
#
#
# Mechanical properties :
#
#
# Convention : Reuss Voigt Hill
#
# Bulk Modulus (GPa) = 5.64998 24.42728 15.03863
# Shear Modulus (GPa) = 62.36019 10.61520 36.48770
#
# Velocity S-wave (km/s) = 5.45180 2.24932 4.17023
# Velocity P-wave (km/s) = 6.50557 4.28817 5.50958
#
# Compressibility (1/GPa) = 0.17699172
#
# Stress axis : x y z
#
# Youngs Moduli (GPa) = 13.34803 13.34920 126.39200
#
# Poissons Ratio (x) = -0.33751 0.98948
# Poissons Ratio (y) = -0.33748 0.98946
# Poissons Ratio (z) = 0.10450 0.10450
#
# Static dielectric constant tensor:
#      x y z
#    x 3.446750 0.000000 0.000000 
#    y 0.000000 3.446740 0.000000 
#    z 0.000000 0.000000 4.275380 
# 
# 
# High freq. dielectric constant tensor:
#      x y z
#    x 1.797260 0.000000 0.000000 
#    y 0.000000 1.797260 0.000000 
#    z 0.000000 0.000000 1.846690 
# 
# From -- ./inp_files/3033.got.cif
#   From: 2010.03.12/outbox.cif.g09.slc.cpg/sg90_2_cif.got.tgz:3033.got - 2010.04.08 20:26:03.
