data_PCOD8304812
_publ_section_title
;
Structure prediction by ZEFSAII (Michael W. Deem and Ramdas Pophale) SiO2 
 PCOD8304812
Probable space group: P 41 2 2
;
_chemical_formula_sum "Si O2"
_cell_formula_units_Z 40
_cell_length_a 10.417689
_cell_length_b 10.417689
_cell_length_c 18.033808
_cell_angle_alpha 90.000000
_cell_angle_beta 90.000000
_cell_angle_gamma 90.000000
_cell_volume 1957.177517
_symmetry_space_group_name_H-M "P 41 2 2"
_symmetry_group_IT_number 91
_symmetry_cell_setting 'tetragonal'
loop_
_space_group_symop_operation_xyz
x,y,z
-y,x,1/4+z
-x,-y,1/2+z
y,-x,3/4+z
x,-y,1/2-z
-x,y,-z
y,x,3/4-z
-y,-x,1/4-z
loop_
_atom_site_type_symbol
_atom_site_label
_atom_site_fract_x
_atom_site_fract_y
_atom_site_fract_z
Si Si1 0.113309 0.029883 0.947921
Si Si2 0.890114 0.643275 0.219350
Si Si3 0.394089 0.375155 0.702188
Si Si4 0.738919 0.898872 0.689690
Si Si5 0.636023 0.367268 0.468646
O O1 0.118924 0.118924 0.875000
O O2 0.252838 0.028389 0.985708
O O3 0.074275 0.887204 0.921359
O O4 0.000000 0.084094 0.000000
O O5 0.916480 0.500000 0.250000
O O6 0.740678 0.684769 0.228239
O O7 0.924135 0.650234 0.132347
O O8 0.423697 0.500000 0.750000
O O9 0.394063 0.409250 0.615719
O O10 0.519248 0.297338 0.730630
O O11 0.736070 0.750745 0.717914
O O12 0.687953 0.000000 0.750000
O O13 0.500000 0.310794 0.500000
#
# Coordination Sequence:
#
# PCOD8304812 Si02
#       5
#     8   8   8   8   8
#     4  11  22  42  67  88 121 168 218 251 308 384
#     4  10  22  41  62  94 126 161 202 268 317 366
#     4   9  18  34  58  83 123 156 197 240 312 371
#     4  10  23  42  60  89 126 164 206 256 318 376
#     4  10  19  36  58  87 118 155 202 247 304 374
#
# _framework density 20.437595999999999
#
# number of rings (size 3 to 8) (size 9 to 14) (size 15 to 20)
#    0.000    2.000    2.000    2.400    0.000    5.600 
#   14.400    2.000    0.000    0.000    0.000    0.000 
#    0.000    0.000    0.000    0.000    0.000    0.000 
#
# Total GULP energy -495588.493662 kJ/mol
# GULP energy per Si atom -12389.712342 kJ/mol
# Density = 2.039108 g / cm^3
# Si number density = 20.437596 Si / 1000 Ang^3
#
#
#
# Elastic Constant Matrix: (Units=GPa)
#
#
# Indices 1 2 3 4 5 6 
#
# 1 87.4627 19.3015 50.7907 0.0000 0.0000 0.0000
# 2 19.3015 87.4627 50.7907 0.0000 0.0000 0.0000
# 3 50.7907 50.7907 141.8548 0.0000 0.0000 0.0000
# 4 0.0000 0.0000 0.0000 29.1259 0.0000 0.0000
# 5 0.0000 0.0000 0.0000 0.0000 29.1259 0.0000
# 6 0.0000 0.0000 0.0000 0.0000 0.0000 25.0262
#
#
#
# Elastic Compliance Matrix: (Units=1/GPa)
#
#
# Indices 1 2 3 4 5 6 
#
# 1 0.014439 -0.000233 -0.005086 0.000000 0.000000 0.000000
# 2 -0.000233 0.014439 -0.005086 0.000000 0.000000 0.000000
# 3 -0.005086 -0.005086 0.010692 0.000000 0.000000 0.000000
# 4 0.000000 0.000000 0.000000 0.034334 0.000000 0.000000
# 5 0.000000 0.000000 0.000000 0.000000 0.034334 0.000000
# 6 0.000000 0.000000 0.000000 0.000000 0.000000 0.039958
#
#
# Mechanical properties :
#
#
# Convention : Reuss Voigt Hill
#
# Bulk Modulus (GPa) = 53.31038 62.06065 57.68551
# Shear Modulus (GPa) = 28.52940 29.71540 29.12240
#
# Velocity S-wave (km/s) = 3.74026 3.81722 3.77894
# Velocity P-wave (km/s) = 6.69282 7.06116 6.87946
#
# Compressibility (1/GPa) = 0.01875807
#
# Stress axis : x y z
#
# Youngs Moduli (GPa) = 69.25923 69.25923 93.52970
#
# Poissons Ratio (x) = 0.01611 0.47573
# Poissons Ratio (y) = 0.01611 0.47573
# Poissons Ratio (z) = 0.35228 0.35228
#
# Static dielectric constant tensor:
#      x y z
#    x 3.648750 0.000000 0.000000 
#    y 0.000000 3.648750 0.000000 
#    z 0.000000 0.000000 3.883560 
# 
# 
# High freq. dielectric constant tensor:
#      x y z
#    x 1.784780 0.000000 0.000000 
#    y 0.000000 1.784780 0.000000 
#    z 0.000000 0.000000 1.812050 
# 
# From -- ./inp_files/11361.got.cif
#   From: 2010.03.12/outbox.cif.g09.slc.cpg/sg91_6_cif.got.tgz:11361.got - 2010.04.08 20:27:58.
