data_PCOD8304714
_publ_section_title
;
Structure prediction by ZEFSAII (Michael W. Deem and Ramdas Pophale) SiO2 
 PCOD8304714
Probable space group: P 41 2 2
;
_chemical_formula_sum "Si O2"
_cell_formula_units_Z 48
_cell_length_a 12.171780
_cell_length_b 12.171780
_cell_length_c 17.108721
_cell_angle_alpha 90.000000
_cell_angle_beta 90.000000
_cell_angle_gamma 90.000000
_cell_volume 2534.695141
_symmetry_space_group_name_H-M "P 41 2 2"
_symmetry_group_IT_number 91
_symmetry_cell_setting 'tetragonal'
loop_
_space_group_symop_operation_xyz
x,y,z
-y,x,1/4+z
-x,-y,1/2+z
y,-x,3/4+z
x,-y,1/2-z
-x,y,-z
y,x,3/4-z
-y,-x,1/4-z
loop_
_atom_site_type_symbol
_atom_site_label
_atom_site_fract_x
_atom_site_fract_y
_atom_site_fract_z
Si Si1 0.984454 0.615238 0.289264
Si Si2 0.328132 0.555810 0.987533
Si Si3 0.070748 0.729015 0.861262
Si Si4 0.736210 0.207062 0.465216
Si Si5 0.501381 0.085990 0.186442
Si Si6 0.851458 0.148543 0.625000
Si Si7 0.519906 0.519906 0.875000
O O1 0.008496 0.500000 0.250000
O O2 0.920008 0.698560 0.231064
O O3 0.913088 0.592820 0.367320
O O4 0.103431 0.663941 0.308303
O O5 0.338494 0.686536 0.976709
O O6 0.206612 0.508759 0.973390
O O7 0.410495 0.507604 0.924706
O O8 0.369037 0.520554 0.073294
O O9 0.184451 0.777536 0.891023
O O10 0.041531 0.616810 0.907041
O O11 0.980656 0.823751 0.877063
O O12 0.799871 0.197446 0.546807
O O13 0.544707 0.000000 0.250000
#
# Coordination Sequence:
#
# PCOD8304714 Si02
#       7
#     8   8   8   8   8   4   4
#     4   9  20  34  54  85 113 150 194 235 290 344
#     4  10  22  38  57  86 120 153 195 239 302 357
#     4   9  18  34  52  85 112 147 186 234 300 345
#     4  10  19  32  57  84 113 149 187 250 286 349
#     4  10  20  36  58  82 113 152 195 243 287 355
#     4  10  17  30  56  85 114 138 188 240 305 342
#     4  10  23  40  56  89 120 156 192 238 307 356
#
# _framework density 18.937189
#
# number of rings (size 3 to 8) (size 9 to 14) (size 15 to 20)
#    0.000    2.333    0.000    3.000    4.667    1.333 
#   15.000    0.000    0.000    5.000    0.000    0.000 
#    0.000    0.000    0.000    0.000    0.000    0.000 
#
# Total GULP energy -595029.414966 kJ/mol
# GULP energy per Si atom -12396.446145 kJ/mol
# Density = 1.889409 g / cm^3
# Si number density = 18.937189 Si / 1000 Ang^3
#
#
#
# Elastic Constant Matrix: (Units=GPa)
#
#
# Indices 1 2 3 4 5 6 
#
# 1 69.0882 32.3424 46.8578 0.0000 0.0000 0.0000
# 2 32.3424 69.0876 46.8570 0.0000 0.0000 0.0000
# 3 46.8578 46.8570 118.5082 0.0000 0.0000 0.0000
# 4 0.0000 0.0000 0.0000 19.8270 0.0000 0.0000
# 5 0.0000 0.0000 0.0000 0.0000 19.8272 0.0000
# 6 0.0000 0.0000 0.0000 0.0000 0.0000 23.1396
#
#
#
# Elastic Compliance Matrix: (Units=1/GPa)
#
#
# Indices 1 2 3 4 5 6 
#
# 1 0.021374 -0.005840 -0.006142 0.000000 0.000000 0.000000
# 2 -0.005840 0.021374 -0.006142 0.000000 0.000000 0.000000
# 3 -0.006142 -0.006142 0.013295 0.000000 0.000000 0.000000
# 4 0.000000 0.000000 0.000000 0.050436 0.000000 0.000000
# 5 0.000000 0.000000 0.000000 0.000000 0.050436 0.000000
# 6 0.000000 0.000000 0.000000 0.000000 0.000000 0.043216
#
#
# Mechanical properties :
#
#
# Convention : Reuss Voigt Hill
#
# Bulk Modulus (GPa) = 50.51803 56.53313 53.52558
# Shear Modulus (GPa) = 20.57802 21.26721 20.92262
#
# Velocity S-wave (km/s) = 3.30001 3.35481 3.32752
# Velocity P-wave (km/s) = 6.42298 6.70255 6.56425
#
# Compressibility (1/GPa) = 0.01979491
#
# Stress axis : x y z
#
# Youngs Moduli (GPa) = 46.78591 46.78586 75.21507
#
# Poissons Ratio (x) = 0.27324 0.46197
# Poissons Ratio (y) = 0.27324 0.46196
# Poissons Ratio (z) = 0.28736 0.28735
#
# Static dielectric constant tensor:
#      x y z
#    x 3.343010 0.000000 0.000000 
#    y 0.000000 3.343020 0.000000 
#    z 0.000000 0.000000 3.754430 
# 
# 
# High freq. dielectric constant tensor:
#      x y z
#    x 1.723030 0.000000 0.000000 
#    y 0.000000 1.723030 0.000000 
#    z 0.000000 0.000000 1.747450 
# 
# From -- ./inp_files/5645.got.cif
#   From: 2010.03.12/outbox.cif.g09.slc.cpg/sg91_3_cif.got.tgz:5645.got - 2010.04.08 20:27:58.
