data_PCOD8304166
_publ_section_title
;
Structure prediction by ZEFSAII (Michael W. Deem and Ramdas Pophale) SiO2 
 PCOD8304166
Probable space group: I 4/M
;
_chemical_formula_sum "Si O2"
_cell_formula_units_Z 96
_cell_length_a 22.745377
_cell_length_b 22.745377
_cell_length_c 9.802188
_cell_angle_alpha 90.000000
_cell_angle_beta 90.000000
_cell_angle_gamma 90.000000
_cell_volume 5071.183280
_symmetry_space_group_name_H-M "I 4/M"
_symmetry_group_IT_number 87
_symmetry_cell_setting 'tetragonal'
loop_
_space_group_symop_operation_xyz
x,y,z
-y,x,z
-x,-y,z
y,-x,z
-x,-y,-z
y,-x,-z
x,y,-z
-y,x,-z
1/2+x,1/2+y,1/2+z
1/2-y,1/2+x,1/2+z
1/2-x,1/2-y,1/2+z
1/2+y,1/2-x,1/2+z
1/2-x,1/2-y,1/2-z
1/2+y,1/2-x,1/2-z
1/2+x,1/2+y,1/2-z
1/2-y,1/2+x,1/2-z
loop_
_atom_site_type_symbol
_atom_site_label
_atom_site_fract_x
_atom_site_fract_y
_atom_site_fract_z
Si Si1 0.131110 0.108450 0.000000
Si Si2 0.804024 0.386550 0.660833
Si Si3 0.509903 0.319030 0.000000
Si Si4 0.816219 0.177615 0.230959
Si Si5 0.634815 0.378908 0.000000
Si Si6 0.169401 0.984721 0.000000
Si Si7 0.994994 0.256170 0.767987
Si Si8 0.795906 0.635009 0.661050
O O1 0.164731 0.129337 0.132899
O O2 0.064301 0.121936 0.000000
O O3 0.128905 0.039955 0.000000
O O4 0.820886 0.389271 0.500000
O O5 0.743168 0.350477 0.674073
O O6 0.803650 0.452049 0.728128
O O7 0.853744 0.354501 0.750991
O O8 0.514551 0.274209 0.875832
O O9 0.565251 0.363960 0.000000
O O10 0.449692 0.356942 0.000000
O O11 0.830704 0.150156 0.375824
O O12 0.818738 0.248853 0.227725
O O13 0.207995 0.978002 0.132848
O O14 0.933770 0.281358 0.822830
O O15 0.804482 0.649241 0.500000
#
# Coordination Sequence:
#
# PCOD8304166 Si02
#       8
#     8  16   8  16   8   8  16  16
#     4  12  20  37  63  88 118 174 220 260 311 375
#     4  12  25  41  66  98 128 165 213 267 329 396
#     4  12  24  39  64  92 126 179 230 268 320 374
#     4  12  21  40  59  89 131 164 207 272 329 385
#     4  12  24  37  63  94 126 176 230 274 313 377
#     4  12  20  39  64  84 122 175 218 258 316 372
#     4  12  22  44  64  86 132 176 209 258 329 397
#     4  12  25  41  66  98 128 165 213 267 329 396
#
# _framework density 18.930492999999998
#
# number of rings (size 3 to 8) (size 9 to 14) (size 15 to 20)
#    0.000    0.000   10.000    0.500    4.667    0.333 
#    0.000    0.000    0.000    4.500    0.000    2.333 
#    0.000    0.000    0.000    0.000    0.000    0.000 
#
# Total GULP energy -594988.670616 kJ/mol
# GULP energy per Si atom -12395.597305 kJ/mol
# Density = 1.888741 g / cm^3
# Si number density = 18.930493 Si / 1000 Ang^3
#
#
#
# Elastic Constant Matrix: (Units=GPa)
#
#
# Indices 1 2 3 4 5 6 
#
# 1 63.0469 19.6190 18.1431 0.0000 0.0000 8.1494
# 2 19.6190 63.0469 18.1431 0.0000 0.0000 -8.1494
# 3 18.1431 18.1431 122.8749 0.0000 0.0000 0.0000
# 4 0.0000 0.0000 0.0000 26.6181 0.0000 0.0000
# 5 0.0000 0.0000 0.0000 0.0000 26.6181 0.0000
# 6 8.1494 -8.1494 0.0000 0.0000 0.0000 34.2374
#
#
#
# Elastic Compliance Matrix: (Units=1/GPa)
#
#
# Indices 1 2 3 4 5 6 
#
# 1 0.019110 -0.006175 -0.001910 0.000000 0.000000 -0.006019
# 2 -0.006175 0.019110 -0.001910 0.000000 0.000000 0.006019
# 3 -0.001910 -0.001910 0.008702 0.000000 0.000000 0.000000
# 4 0.000000 0.000000 0.000000 0.037568 0.000000 0.000000
# 5 0.000000 0.000000 0.000000 0.000000 0.037568 0.000000
# 6 -0.006019 0.006019 0.000000 0.000000 0.000000 0.032073
#
#
# Mechanical properties :
#
#
# Convention : Reuss Voigt Hill
#
# Bulk Modulus (GPa) = 37.12906 40.08657 38.60782
# Shear Modulus (GPa) = 27.30736 30.36561 28.83648
#
# Velocity S-wave (km/s) = 3.80215 4.00941 3.90716
# Velocity P-wave (km/s) = 6.23948 6.53112 6.38696
#
# Compressibility (1/GPa) = 0.02693308
#
# Stress axis : x y z
#
# Youngs Moduli (GPa) = 52.32761 52.32761 114.91095
#
# Poissons Ratio (x) = 0.32313 0.21948
# Poissons Ratio (y) = 0.32313 0.21948
# Poissons Ratio (z) = 0.09994 0.09994
#
# Static dielectric constant tensor:
#      x y z
#    x 3.534860 0.000000 0.000000 
#    y 0.000000 3.534860 0.000000 
#    z 0.000000 0.000000 3.919120 
# 
# 
# High freq. dielectric constant tensor:
#      x y z
#    x 1.728470 0.000000 0.000000 
#    y 0.000000 1.728470 0.000000 
#    z 0.000000 0.000000 1.756140 
# 
# From -- ./inp_files/1527.got.cif
#   From: 2010.03.12/outbox.cif.g09.slc.cpg/sg87_1_cif.got.tgz:1527.got - 2010.04.08 20:16:13.
