data_PCOD8304471
_publ_section_title
;
Structure prediction by ZEFSAII (Michael W. Deem and Ramdas Pophale) SiO2 
 PCOD8304471
Probable space group: P 4 2 2
;
_chemical_formula_sum "Si O2"
_cell_formula_units_Z 60
_cell_length_a 15.916745
_cell_length_b 15.916745
_cell_length_c 13.993257
_cell_angle_alpha 90.000000
_cell_angle_beta 90.000000
_cell_angle_gamma 90.000000
_cell_volume 3545.090509
_symmetry_space_group_name_H-M "P 4 2 2"
_symmetry_group_IT_number 89
_symmetry_cell_setting 'tetragonal'
loop_
_space_group_symop_operation_xyz
x,y,z
-y,x,z
-x,-y,z
y,-x,z
x,-y,-z
-x,y,-z
y,x,-z
-y,-x,-z
loop_
_atom_site_type_symbol
_atom_site_label
_atom_site_fract_x
_atom_site_fract_y
_atom_site_fract_z
Si Si1 0.508874 0.737353 0.614020
Si Si2 0.779250 0.183204 0.648730
Si Si3 0.339853 0.330042 0.295431
Si Si4 0.887971 0.915506 0.205694
Si Si5 0.088726 0.273960 0.475000
Si Si6 0.080491 0.457368 0.398774
Si Si7 0.097352 0.097352 0.000000
Si Si8 0.401776 0.597302 0.892711
O O1 0.500000 0.734955 0.500000
O O2 0.427077 0.702677 0.664289
O O3 0.588583 0.681606 0.642111
O O4 0.524442 0.831849 0.654800
O O5 0.732679 0.260965 0.697345
O O6 0.815789 0.119205 0.725676
O O7 0.713361 0.139581 0.574949
O O8 0.861155 0.212155 0.592370
O O9 0.347397 0.350891 0.183278
O O10 0.983825 0.884573 0.220446
O O11 0.861249 0.876274 0.101196
O O12 0.069399 0.358753 0.416920
O O13 0.000000 0.230576 0.500000
O O14 0.086599 0.500000 0.500000
O O15 0.000000 0.500000 0.343810
O O16 0.000000 0.115767 0.000000
O O17 0.383593 0.499457 0.876642
O O18 0.375428 0.624573 0.000000
#
# Coordination Sequence:
#
# PCOD8304471 Si02
#       8
#     8   8   8   8   8   8   4   8
#     4  11  23  35  52  77 110 145 173 216 260 311
#     4  11  23  33  49  77 112 135 167 222 259 301
#     4  12  22  36  53  78 111 137 177 215 270 312
#     4   9  17  34  55  76  99 129 167 210 265 321
#     4  11  21  35  51  71 104 143 178 209 249 294
#     4  10  18  33  52  69  91 137 188 213 233 286
#     4   7  12  26  54  78  94 120 160 207 256 316
#     4   9  18  36  58  76  96 132 181 225 263 316
#
# _framework density 16.924814000000001
#
# number of rings (size 3 to 8) (size 9 to 14) (size 15 to 20)
#    0.000    1.800    4.000    4.000    1.867    0.267 
#    1.200    0.667    0.000    3.200    0.000    0.000 
#    0.000    1.067    0.000    1.200    0.000    0.000 
#
# Total GULP energy -743372.366318 kJ/mol
# GULP energy per Si atom -12389.539439 kJ/mol
# Density = 1.688629 g / cm^3
# Si number density = 16.924814 Si / 1000 Ang^3
#
#
#
# Elastic Constant Matrix: (Units=GPa)
#
#
# Indices 1 2 3 4 5 6 
#
# 1 90.6561 41.2713 37.6326 0.0000 0.0000 0.0000
# 2 41.2713 90.6562 37.6327 0.0000 0.0000 0.0000
# 3 37.6326 37.6327 97.5224 0.0000 0.0000 0.0000
# 4 0.0000 0.0000 0.0000 18.3339 0.0000 0.0000
# 5 0.0000 0.0000 0.0000 0.0000 18.3339 0.0000
# 6 0.0000 0.0000 0.0000 0.0000 0.0000 27.1967
#
#
#
# Elastic Compliance Matrix: (Units=1/GPa)
#
#
# Indices 1 2 3 4 5 6 
#
# 1 0.014984 -0.005265 -0.003751 0.000000 0.000000 0.000000
# 2 -0.005265 0.014984 -0.003751 0.000000 0.000000 0.000000
# 3 -0.003751 -0.003751 0.013149 0.000000 0.000000 0.000000
# 4 0.000000 0.000000 0.000000 0.054544 0.000000 0.000000
# 5 0.000000 0.000000 0.000000 0.000000 0.054544 0.000000
# 6 0.000000 0.000000 0.000000 0.000000 0.000000 0.036769
#
#
# Mechanical properties :
#
#
# Convention : Reuss Voigt Hill
#
# Bulk Modulus (GPa) = 56.86555 56.87867 56.87211
# Shear Modulus (GPa) = 22.68928 23.59277 23.14103
#
# Velocity S-wave (km/s) = 3.66538 3.73765 3.70169
# Velocity P-wave (km/s) = 7.18229 7.23231 7.20734
#
# Compressibility (1/GPa) = 0.01758534
#
# Stress axis : x y z
#
# Youngs Moduli (GPa) = 66.73590 66.73599 76.05282
#
# Poissons Ratio (x) = 0.35135 0.28525
# Poissons Ratio (y) = 0.35134 0.28525
# Poissons Ratio (z) = 0.25031 0.25031
#
# Static dielectric constant tensor:
#      x y z
#    x 3.601060 0.000000 0.000000 
#    y 0.000000 3.601060 0.000000 
#    z 0.000000 0.000000 3.217690 
# 
# 
# High freq. dielectric constant tensor:
#      x y z
#    x 1.649520 0.000000 0.000000 
#    y 0.000000 1.649520 0.000000 
#    z 0.000000 0.000000 1.634950 
# 
# From -- ./inp_files/2272.got.cif
#   From: 2010.03.12/outbox.cif.g09.slc.cpg/sg89_2_cif.got.tgz:2272.got - 2010.04.08 20:24:03.
