data_PCOD8304644
_publ_section_title
;
Structure prediction by ZEFSAII (Michael W. Deem and Ramdas Pophale) SiO2 
 PCOD8304644
Probable space group: P 4 21 2
;
_chemical_formula_sum "Si O2"
_cell_formula_units_Z 48
_cell_length_a 8.256420
_cell_length_b 8.256420
_cell_length_c 31.562991
_cell_angle_alpha 90.000000
_cell_angle_beta 90.000000
_cell_angle_gamma 90.000000
_cell_volume 2151.600843
_symmetry_space_group_name_H-M "P 4 21 2"
_symmetry_group_IT_number 90
_symmetry_cell_setting 'tetragonal'
loop_
_space_group_symop_operation_xyz
x,y,z
1/2-y,1/2+x,z
-x,-y,z
1/2+y,1/2-x,z
1/2+x,1/2-y,-z
1/2-x,1/2+y,-z
y,x,-z
-y,-x,-z
loop_
_atom_site_type_symbol
_atom_site_label
_atom_site_fract_x
_atom_site_fract_y
_atom_site_fract_z
Si Si1 0.600280 0.752169 0.700867
Si Si2 0.403736 0.248469 0.128391
Si Si3 0.601200 0.751594 0.379037
Si Si4 0.251667 0.895822 0.219788
Si Si5 0.753541 0.086906 0.037528
Si Si6 0.101797 0.748406 0.459620
O O1 0.412362 0.791985 0.696956
O O2 0.652849 0.631153 0.663865
O O3 0.624223 0.661304 0.745378
O O4 0.590233 0.204111 0.128288
O O5 0.365559 0.335433 0.173459
O O6 0.374518 0.341208 0.083472
O O7 0.412748 0.791817 0.381039
O O8 0.647359 0.637335 0.418013
O O9 0.415444 0.792507 0.225143
O O10 0.598326 0.201919 0.033549
O O11 0.878796 0.121205 0.000000
O O12 0.208386 0.586887 0.460244
O O13 0.142519 0.857482 0.500000
#
# Coordination Sequence:
#
# PCOD8304644 Si02
#       6
#     8   8   8   8   8   8
#     4  11  24  39  54  77 111 147 179 213 260 319
#     4   7  12  26  48  71  95 125 164 210 256 304
#     4  11  24  41  62  88 114 143 185 232 274 319
#     4   9  17  32  56  81 100 125 169 220 264 310
#     4   9  17  30  48  70  97 130 167 208 256 308
#     4  11  24  41  62  90 122 155 192 231 272 321
#
# _framework density 22.308969000000001
#
# number of rings (size 3 to 8) (size 9 to 14) (size 15 to 20)
#    0.000    2.333    0.000    5.000    0.000   10.667 
#    0.000    1.667    0.000    8.000    0.000    0.000 
#    0.000    0.000    0.000    0.000    0.000    0.000 
#
# Total GULP energy -594887.173496 kJ/mol
# GULP energy per Si atom -12393.482781 kJ/mol
# Density = 2.225819 g / cm^3
# Si number density = 22.308969 Si / 1000 Ang^3
#
#
#
# Elastic Constant Matrix: (Units=GPa)
#
#
# Indices 1 2 3 4 5 6 
#
# 1 23.5807 -7.3527 7.4693 0.0000 0.0000 0.0000
# 2 -7.3527 23.5807 7.4690 0.0000 0.0000 0.0000
# 3 7.4693 7.4690 176.0733 0.0000 0.0000 0.0000
# 4 0.0000 0.0000 0.0000 -205.6097 0.0000 0.0000
# 5 0.0000 0.0000 0.0000 0.0000 -205.6389 0.0000
# 6 0.0000 0.0000 0.0000 0.0000 0.0000 30.1903
#
#
#
# Elastic Compliance Matrix: (Units=1/GPa)
#
#
# Indices 1 2 3 4 5 6 
#
# 1 0.048227 0.015899 -0.002720 0.000000 0.000000 0.000000
# 2 0.015899 0.048227 -0.002720 0.000000 0.000000 0.000000
# 3 -0.002720 -0.002720 0.005910 0.000000 0.000000 0.000000
# 4 0.000000 0.000000 0.000000 -0.004864 0.000000 0.000000
# 5 0.000000 0.000000 0.000000 0.000000 -0.004863 0.000000
# 6 0.000000 0.000000 0.000000 0.000000 0.000000 0.033123
#
#
# Mechanical properties :
#
#
# Convention : Reuss Voigt Hill
#
# Bulk Modulus (GPa) = 8.11154 26.48956 17.30055
# Shear Modulus (GPa) = 34.26135 -61.83506 -13.78686
#
# Velocity S-wave (km/s) = 3.92314 -5.27046 -2.48865
# Velocity P-wave (km/s) = 4.91581 5.01371 0.69715
#
# Compressibility (1/GPa) = 0.12328111
#
# Stress axis : x y z
#
# Youngs Moduli (GPa) = 20.73535 20.73537 169.19768
#
# Poissons Ratio (x) = -0.32968 0.46027
# Poissons Ratio (y) = -0.32968 0.46026
# Poissons Ratio (z) = 0.05641 0.05641
#
# Static dielectric constant tensor:
#      x y z
#    x 3.763230 0.000000 0.000000 
#    y 0.000000 3.763230 0.000000 
#    z 0.000000 0.000000 4.559330 
# 
# 
# High freq. dielectric constant tensor:
#      x y z
#    x 1.860650 0.000000 0.000000 
#    y 0.000000 1.860650 0.000000 
#    z 0.000000 0.000000 1.905330 
# 
# From -- ./inp_files/3041.got.cif
#   From: 2010.03.12/outbox.cif.g09.slc.cpg/sg90_2_cif.got.tgz:3041.got - 2010.04.08 20:26:03.
