data_PCOD8304072
_publ_section_title
;
Structure prediction by ZEFSAII (Michael W. Deem and Ramdas Pophale) SiO2 
 PCOD8304072
Probable space group: I 4/M
;
_chemical_formula_sum "Si O2"
_cell_formula_units_Z 88
_cell_length_a 16.061892
_cell_length_b 16.061892
_cell_length_c 18.423545
_cell_angle_alpha 90.000000
_cell_angle_beta 90.000000
_cell_angle_gamma 90.000000
_cell_volume 4752.986735
_symmetry_space_group_name_H-M "I 4/M"
_symmetry_group_IT_number 87
_symmetry_cell_setting 'tetragonal'
loop_
_space_group_symop_operation_xyz
x,y,z
-y,x,z
-x,-y,z
y,-x,z
-x,-y,-z
y,-x,-z
x,y,-z
-y,x,-z
1/2+x,1/2+y,1/2+z
1/2-y,1/2+x,1/2+z
1/2-x,1/2-y,1/2+z
1/2+y,1/2-x,1/2+z
1/2-x,1/2-y,1/2-z
1/2+y,1/2-x,1/2-z
1/2+x,1/2+y,1/2-z
1/2-y,1/2+x,1/2-z
loop_
_atom_site_type_symbol
_atom_site_label
_atom_site_fract_x
_atom_site_fract_y
_atom_site_fract_z
Si Si1 0.851700 0.351700 0.250000
Si Si2 0.500000 0.149320 0.500000
Si Si3 0.315808 0.820249 0.500000
Si Si4 0.230328 0.099069 0.366141
Si Si5 0.593835 1.000000 0.842858
Si Si6 0.599069 0.730328 0.133859
Si Si7 0.820249 0.315808 0.500000
O O1 0.863608 0.263402 0.289742
O O2 0.859439 0.419605 0.313064
O O3 0.763402 0.363608 0.210258
O O4 0.919605 0.359439 0.186936
O O5 0.585689 0.203141 0.500000
O O6 0.500000 0.091377 0.429551
O O7 0.414311 0.203141 0.500000
O O8 0.293141 0.875758 0.569791
O O9 0.267048 0.732952 0.500000
O O10 0.139603 0.139603 0.380511
O O11 0.293141 0.124242 0.430209
O O12 0.221803 1.000000 0.362436
O O13 0.500000 0.000000 0.813744
#
# Coordination Sequence:
#
# PCOD8304072 Si02
#       7
#    16   8   8  16  16  16   8
#     4  12  20  36  56  84 118 149 181 236 288 334
#     4  12  23  36  62  85 112 158 192 230 277 342
#     4  10  23  39  57  86 118 147 187 233 281 340
#     4  11  23  39  58  82 114 152 192 234 282 337
#     4  12  21  32  54  88 122 146 181 229 289 348
#     4  11  23  39  58  82 114 152 192 234 282 337
#     4  10  23  39  57  86 118 147 187 233 281 340
#
# _framework density 18.514672999999998
#
# number of rings (size 3 to 8) (size 9 to 14) (size 15 to 20)
#    0.000    0.727    7.273    1.364    0.000    1.818 
#    0.000    0.000    0.000    3.545    0.000    0.000 
#    0.000    0.000    0.000    0.000    0.000    0.000 
#
# Total GULP energy -545493.559338 kJ/mol
# GULP energy per Si atom -12397.580894 kJ/mol
# Density = 1.847253 g / cm^3
# Si number density = 18.514673 Si / 1000 Ang^3
#
#
#
# Elastic Constant Matrix: (Units=GPa)
#
#
# Indices 1 2 3 4 5 6 
#
# 1 103.7719 68.3582 34.0501 0.0000 0.0000 0.0000
# 2 68.3582 103.7719 34.0501 0.0000 0.0000 0.0000
# 3 34.0501 34.0501 123.5576 0.0000 0.0000 0.0000
# 4 0.0000 0.0000 0.0000 29.2489 0.0000 0.0000
# 5 0.0000 0.0000 0.0000 0.0000 29.2489 0.0000
# 6 0.0000 0.0000 0.0000 0.0000 0.0000 20.8934
#
#
#
# Elastic Compliance Matrix: (Units=1/GPa)
#
#
# Indices 1 2 3 4 5 6 
#
# 1 0.017379 -0.010859 -0.001797 0.000000 0.000000 0.000000
# 2 -0.010859 0.017379 -0.001797 0.000000 0.000000 0.000000
# 3 -0.001797 -0.001797 0.009084 0.000000 0.000000 0.000000
# 4 0.000000 0.000000 0.000000 0.034189 0.000000 0.000000
# 5 0.000000 0.000000 0.000000 0.000000 0.034189 0.000000
# 6 0.000000 0.000000 0.000000 0.000000 0.000000 0.047862
#
#
# Mechanical properties :
#
#
# Convention : Reuss Voigt Hill
#
# Bulk Modulus (GPa) = 66.94756 67.11313 67.03034
# Shear Modulus (GPa) = 25.77766 28.85444 27.31605
#
# Velocity S-wave (km/s) = 3.73538 3.95202 3.84523
# Velocity P-wave (km/s) = 7.40552 7.55989 7.48310
#
# Compressibility (1/GPa) = 0.01493707
#
# Stress axis : x y z
#
# Youngs Moduli (GPa) = 57.54048 57.54048 110.08625
#
# Poissons Ratio (x) = 0.62481 0.19782
# Poissons Ratio (y) = 0.62481 0.19782
# Poissons Ratio (z) = 0.10340 0.10340
#
# Static dielectric constant tensor:
#      x y z
#    x 3.265200 0.000000 0.000000 
#    y 0.000000 3.265200 0.000000 
#    z 0.000000 0.000000 3.596980 
# 
# 
# High freq. dielectric constant tensor:
#      x y z
#    x 1.701890 0.000000 0.000000 
#    y 0.000000 1.701890 0.000000 
#    z 0.000000 0.000000 1.742630 
# 
# From -- ./inp_files/5226.got.cif
#   From: 2010.03.12/outbox.cif.g09.slc.cpg/sg87_3_cif.got.tgz:5226.got - 2010.04.08 20:16:13.
