data_PCOD8304187
_publ_section_title
;
Structure prediction by ZEFSAII (Michael W. Deem and Ramdas Pophale) SiO2 
 PCOD8304187
Probable space group: I 41/A
;
_chemical_formula_sum "Si O2"
_cell_formula_units_Z 72
_cell_length_a 11.858439
_cell_length_b 11.858439
_cell_length_c 26.391062
_cell_angle_alpha 90.000000
_cell_angle_beta 90.000000
_cell_angle_gamma 90.000000
_cell_volume 3711.179109
_symmetry_space_group_name_H-M "I 41/A"
_symmetry_group_IT_number 88
_space_group.IT_coordinate_system_code '2'
_symmetry_cell_setting 'tetragonal'
loop_
_space_group_symop_operation_xyz
x,y,z
3/4-y,1/4+x,1/4+z
-x,1/2-y,z
1/4+y,1/4-x,1/4+z
-x,-y,-z
1/4+y,3/4-x,3/4-z
x,1/2+y,-z
3/4-y,3/4+x,3/4-z
1/2+x,1/2+y,1/2+z
1/4-y,3/4+x,3/4+z
1/2-x,-y,1/2+z
3/4+y,3/4-x,3/4+z
1/2-x,1/2-y,1/2-z
3/4+y,1/4-x,1/4-z
1/2+x,y,1/2-z
1/4-y,1/4+x,1/4-z
loop_
_atom_site_type_symbol
_atom_site_label
_atom_site_fract_x
_atom_site_fract_y
_atom_site_fract_z
Si Si1 0.273366 0.453602 0.421509
Si Si2 0.819943 0.866975 0.026763
Si Si3 0.500000 0.250000 0.281943
Si Si4 0.844141 0.661398 0.383522
Si Si5 0.980257 0.521623 0.907971
O O1 0.266369 0.442303 0.481990
O O2 0.166018 0.524095 0.404465
O O3 0.388796 0.516960 0.403605
O O4 0.272892 0.327885 0.397073
O O5 0.718996 0.825429 0.062705
O O6 0.912433 0.938656 0.056153
O O7 0.888330 0.762555 0.002838
O O8 0.394323 0.271354 0.317554
O O9 0.856337 0.783328 0.357292
#
# Coordination Sequence:
#
# PCOD8304187 Si02
#       5
#    16  16   8  16  16
#     4  10  19  37  59  85 124 142 195 236 293 357
#     4  10  22  34  60  89 108 155 188 241 297 342
#     4  10  18  33  60  88 126 142 182 230 305 362
#     4  10  24  42  58  78 115 163 203 241 281 334
#     4  10  20  33  54  94 113 151 177 238 300 338
#
# _framework density 19.400842000000001
#
# number of rings (size 3 to 8) (size 9 to 14) (size 15 to 20)
#    0.000    2.000    0.000    5.333    6.222    1.778 
#    0.000    0.000    0.000    0.000    0.000    0.000 
#    0.000    0.000    0.000    0.000    0.000    0.000 
#
# Total GULP energy -446353.173514 kJ/mol
# GULP energy per Si atom -12398.699264 kJ/mol
# Density = 1.935669 g / cm^3
# Si number density = 19.400842 Si / 1000 Ang^3
#
#
#
# Elastic Constant Matrix: (Units=GPa)
#
#
# Indices 1 2 3 4 5 6 
#
# 1 81.9161 39.6476 20.1078 0.0000 0.0000 -2.7748
# 2 39.6476 81.9161 20.1078 0.0000 0.0000 2.7748
# 3 20.1078 20.1078 76.0622 0.0000 0.0000 0.0000
# 4 0.0000 0.0000 0.0000 -21.3819 0.0000 0.0000
# 5 0.0000 0.0000 0.0000 0.0000 -21.3819 0.0000
# 6 -2.7748 2.7748 0.0000 0.0000 0.0000 28.6882
#
#
#
# Elastic Compliance Matrix: (Units=1/GPa)
#
#
# Indices 1 2 3 4 5 6 
#
# 1 0.016489 -0.007474 -0.002383 0.000000 0.000000 0.002318
# 2 -0.007474 0.016489 -0.002383 0.000000 0.000000 -0.002318
# 3 -0.002383 -0.002383 0.014407 0.000000 0.000000 0.000000
# 4 0.000000 0.000000 0.000000 -0.046769 0.000000 0.000000
# 5 0.000000 0.000000 0.000000 0.000000 -0.046769 0.000000
# 6 0.002318 -0.002318 0.000000 0.000000 0.000000 0.035306
#
#
# Mechanical properties :
#
#
# Convention : Reuss Voigt Hill
#
# Bulk Modulus (GPa) = 43.66082 44.40231 44.03157
# Shear Modulus (GPa) = 235.09536 7.85364 121.47450
#
# Velocity S-wave (km/s) = 11.02003 2.01417 7.92142
# Velocity P-wave (km/s) = 13.58215 5.32406 10.31553
#
# Compressibility (1/GPa) = 0.02290383
#
# Stress axis : x y z
#
# Youngs Moduli (GPa) = 60.64821 60.64821 69.41015
#
# Poissons Ratio (x) = 0.45329 0.16541
# Poissons Ratio (y) = 0.45329 0.16541
# Poissons Ratio (z) = 0.14453 0.14453
#
# Static dielectric constant tensor:
#      x y z
#    x 3.658560 0.000000 0.000000 
#    y 0.000000 3.658560 0.000000 
#    z 0.000000 0.000000 3.695230 
# 
# 
# High freq. dielectric constant tensor:
#      x y z
#    x 1.752640 0.000000 0.000000 
#    y 0.000000 1.752640 0.000000 
#    z 0.000000 0.000000 1.757810 
# 
# From -- ./inp_files/5688.got.cif
#   From: 2010.03.12/outbox.cif.g09.slc.cpg/sg88_3_cif.got.tgz:5688.got - 2010.04.08 20:20:55.
