data_PCOD8304548
_publ_section_title
;
Structure prediction by ZEFSAII (Michael W. Deem and Ramdas Pophale) SiO2 
 PCOD8304548
Probable space group: P 4 21 2
;
_chemical_formula_sum "Si O2"
_cell_formula_units_Z 60
_cell_length_a 12.301359
_cell_length_b 12.301359
_cell_length_c 20.998106
_cell_angle_alpha 90.000000
_cell_angle_beta 90.000000
_cell_angle_gamma 90.000000
_cell_volume 3177.505492
_symmetry_space_group_name_H-M "P 4 21 2"
_symmetry_group_IT_number 90
_symmetry_cell_setting 'tetragonal'
loop_
_space_group_symop_operation_xyz
x,y,z
1/2-y,1/2+x,z
-x,-y,z
1/2+y,1/2-x,z
1/2+x,1/2-y,-z
1/2-x,1/2+y,-z
y,x,-z
-y,-x,-z
loop_
_atom_site_type_symbol
_atom_site_label
_atom_site_fract_x
_atom_site_fract_y
_atom_site_fract_z
Si Si1 0.748864 0.750045 0.204384
Si Si2 0.379895 0.292080 0.438829
Si Si3 0.250941 0.749060 0.000000
Si Si4 0.797678 0.875740 0.437822
Si Si5 0.389027 0.638096 0.693995
Si Si6 0.863681 0.108893 0.303406
Si Si7 0.653914 0.900220 0.099943
Si Si8 0.347439 0.898484 0.899979
O O1 0.841859 0.784422 0.252632
O O2 0.649086 0.712047 0.246890
O O3 0.707410 0.854538 0.164481
O O4 0.796058 0.647643 0.164902
O O5 0.371857 0.371857 0.500000
O O6 0.502738 0.260601 0.425074
O O7 0.313608 0.184465 0.454243
O O8 0.336483 0.342229 0.372479
O O9 0.236885 0.642235 0.955264
O O10 0.263968 0.855135 0.954686
O O11 0.874015 0.874015 0.500000
O O12 0.862125 0.822357 0.378041
O O13 0.340171 0.518305 0.697588
O O14 0.513990 0.639125 0.711291
O O15 0.531153 0.850694 0.095090
O O16 0.470625 0.850440 0.905229
#
# Coordination Sequence:
#
# PCOD8304548 Si02
#       8
#     8   8   4   8   8   8   8   8
#     4  11  20  35  55  82 111 146 186 224 269 316
#     4  10  20  35  55  79 107 143 186 233 286 339
#     4  10  20  34  60  82 106 134 178 218 258 310
#     4  10  20  35  55  79 107 143 186 233 286 339
#     4  10  20  34  53  78 109 144 184 230 278 329
#     4  10  20  34  53  78 109 144 184 230 278 329
#     4  10  21  37  58  83 113 147 181 219 265 320
#     4  10  21  37  58  83 111 145 181 217 261 316
#
# _framework density 18.882736000000001
#
# number of rings (size 3 to 8) (size 9 to 14) (size 15 to 20)
#    0.000    1.867    1.333    3.200    0.000    2.667 
#    0.000    0.000    0.000   30.400    0.000    0.000 
#    0.000    0.000    0.000    0.000    0.000    0.000 
#
# Total GULP energy -743300.493582 kJ/mol
# GULP energy per Si atom -12388.341560 kJ/mol
# Density = 1.883976 g / cm^3
# Si number density = 18.882736 Si / 1000 Ang^3
#
#
#
# Elastic Constant Matrix: (Units=GPa)
#
#
# Indices 1 2 3 4 5 6 
#
# 1 58.3469 20.8761 29.0925 0.0000 0.0000 0.0000
# 2 20.8761 58.3471 29.0925 0.0000 0.0000 0.0000
# 3 29.0925 29.0925 139.6835 0.0000 0.0000 0.0000
# 4 0.0000 0.0000 0.0000 16.1302 0.0000 0.0000
# 5 0.0000 0.0000 0.0000 0.0000 16.1302 0.0000
# 6 0.0000 0.0000 0.0000 0.0000 0.0000 27.8299
#
#
#
# Elastic Compliance Matrix: (Units=1/GPa)
#
#
# Indices 1 2 3 4 5 6 
#
# 1 0.020795 -0.005893 -0.003104 0.000000 0.000000 0.000000
# 2 -0.005893 0.020795 -0.003104 0.000000 0.000000 0.000000
# 3 -0.003104 -0.003104 0.008452 0.000000 0.000000 0.000000
# 4 0.000000 0.000000 0.000000 0.061996 0.000000 0.000000
# 5 0.000000 0.000000 0.000000 0.000000 0.061995 0.000000
# 6 0.000000 0.000000 0.000000 0.000000 0.000000 0.035933
#
#
# Mechanical properties :
#
#
# Convention : Reuss Voigt Hill
#
# Bulk Modulus (GPa) = 38.69790 46.05551 42.37671
# Shear Modulus (GPa) = 20.59487 23.83915 22.21701
#
# Velocity S-wave (km/s) = 3.30612 3.55700 3.43385
# Velocity P-wave (km/s) = 5.92555 6.42751 6.18163
#
# Compressibility (1/GPa) = 0.02584119
#
# Stress axis : x y z
#
# Youngs Moduli (GPa) = 48.08900 48.08914 118.31667
#
# Poissons Ratio (x) = 0.28337 0.36722
# Poissons Ratio (y) = 0.28337 0.36722
# Poissons Ratio (z) = 0.14926 0.14926
#
# Static dielectric constant tensor:
#      x y z
#    x 3.352510 0.000000 0.000000 
#    y 0.000000 3.352510 0.000000 
#    z 0.000000 0.000000 4.004410 
# 
# 
# High freq. dielectric constant tensor:
#      x y z
#    x 1.722450 0.000000 0.000000 
#    y 0.000000 1.722450 0.000000 
#    z 0.000000 0.000000 1.757470 
# 
# From -- ./inp_files/2869.got.cif
#   From: 2010.03.12/outbox.cif.g09.slc.cpg/sg90_2_cif.got.tgz:2869.got - 2010.04.08 20:26:03.
