data_PCOD8304262
_publ_section_title
;
Structure prediction by ZEFSAII (Michael W. Deem and Ramdas Pophale) SiO2 
 PCOD8304262
Probable space group: I 41/A
;
_chemical_formula_sum "Si O2"
_cell_formula_units_Z 104
_cell_length_a 16.643379
_cell_length_b 16.643379
_cell_length_c 17.717938
_cell_angle_alpha 90.000000
_cell_angle_beta 90.000000
_cell_angle_gamma 90.000000
_cell_volume 4907.905405
_symmetry_space_group_name_H-M "I 41/A"
_symmetry_group_IT_number 88
_space_group.IT_coordinate_system_code '2'
_symmetry_cell_setting 'tetragonal'
loop_
_space_group_symop_operation_xyz
x,y,z
3/4-y,1/4+x,1/4+z
-x,1/2-y,z
1/4+y,1/4-x,1/4+z
-x,-y,-z
1/4+y,3/4-x,3/4-z
x,1/2+y,-z
3/4-y,3/4+x,3/4-z
1/2+x,1/2+y,1/2+z
1/4-y,3/4+x,3/4+z
1/2-x,-y,1/2+z
3/4+y,3/4-x,3/4+z
1/2-x,1/2-y,1/2-z
3/4+y,1/4-x,1/4-z
1/2+x,y,1/2-z
1/4-y,1/4+x,1/4-z
loop_
_atom_site_type_symbol
_atom_site_label
_atom_site_fract_x
_atom_site_fract_y
_atom_site_fract_z
Si Si1 0.122303 0.166641 0.847413
Si Si2 0.276179 0.557552 0.805881
Si Si3 0.144737 0.890787 0.437328
Si Si4 0.500000 0.250000 0.554556
Si Si5 0.988727 0.904492 0.788535
Si Si6 0.665658 0.383696 0.339429
Si Si7 0.763185 0.264571 0.596471
O O1 0.157508 0.085786 0.882025
O O2 0.110427 0.156726 0.758493
O O3 0.038094 0.182716 0.890270
O O4 0.182490 0.242075 0.857526
O O5 0.301644 0.466828 0.785083
O O6 0.270269 0.609860 0.728533
O O7 0.188042 0.559819 0.840033
O O8 0.176430 0.810635 0.397150
O O9 0.091710 0.942188 0.379274
O O10 0.570451 0.287177 0.501489
O O11 0.954178 0.910312 0.873412
O O12 0.084208 0.907912 0.797003
O O13 0.965950 0.983074 0.738877
#
# Coordination Sequence:
#
# PCOD8304262 Si02
#       7
#    16  16  16   8  16  16  16
#     4  10  20  41  63  90 126 172 214 259 330 391
#     4  11  23  43  65  92 128 177 207 269 331 384
#     4  11  22  43  64  88 131 166 218 277 315 391
#     4  10  20  41  66  89 136 172 204 268 334 383
#     4  11  23  43  62 104 130 170 221 268 325 402
#     4  12  24  42  69  94 134 172 215 267 332 392
#     4  10  23  39  63  92 127 167 219 265 329 381
#
# _framework density 21.190301000000002
#
# number of rings (size 3 to 8) (size 9 to 14) (size 15 to 20)
#    0.000    1.231    6.154    1.385    2.154    2.154 
#    2.769    1.538    0.000    0.000    0.000    0.000 
#    0.000    0.000    0.000    0.000    0.000    0.000 
#
# Total GULP energy -644774.273438 kJ/mol
# GULP energy per Si atom -12399.505258 kJ/mol
# Density = 2.114207 g / cm^3
# Si number density = 21.190301 Si / 1000 Ang^3
#
#
#
# Elastic Constant Matrix: (Units=GPa)
#
#
# Indices 1 2 3 4 5 6 
#
# 1 54.9456 27.6624 21.3129 0.0000 0.0000 -10.4754
# 2 27.6624 54.9456 21.3128 0.0000 0.0000 10.4754
# 3 21.3129 21.3128 111.1537 0.0000 0.0000 0.0000
# 4 0.0000 0.0000 0.0000 39.8670 0.0000 0.0000
# 5 0.0000 0.0000 0.0000 0.0000 39.8670 0.0000
# 6 -10.4754 10.4754 0.0000 0.0000 0.0000 22.6170
#
#
#
# Elastic Compliance Matrix: (Units=1/GPa)
#
#
# Indices 1 2 3 4 5 6 
#
# 1 0.035160 -0.021725 -0.002576 0.000000 0.000000 0.026347
# 2 -0.021725 0.035160 -0.002576 0.000000 0.000000 -0.026347
# 3 -0.002576 -0.002576 0.009984 0.000000 0.000000 0.000000
# 4 0.000000 0.000000 0.000000 0.025083 0.000000 0.000000
# 5 0.000000 0.000000 0.000000 0.000000 0.025083 0.000000
# 6 0.026347 -0.026347 0.000000 0.000000 0.000000 0.068621
#
#
# Mechanical properties :
#
#
# Convention : Reuss Voigt Hill
#
# Bulk Modulus (GPa) = 37.66529 40.18011 38.92270
# Shear Modulus (GPa) = 19.10624 30.52066 24.81345
#
# Velocity S-wave (km/s) = 3.00601 3.79926 3.42567
# Velocity P-wave (km/s) = 5.46456 6.18454 5.83567
#
# Compressibility (1/GPa) = 0.02654964
#
# Stress axis : x y z
#
# Youngs Moduli (GPa) = 28.44180 28.44179 100.15625
#
# Poissons Ratio (x) = 0.61790 0.25800
# Poissons Ratio (y) = 0.61790 0.25800
# Poissons Ratio (z) = 0.07327 0.07327
#
# Static dielectric constant tensor:
#      x y z
#    x 3.782690 0.000000 0.000000 
#    y 0.000000 3.782690 0.000000 
#    z 0.000000 0.000000 3.822990 
# 
# 
# High freq. dielectric constant tensor:
#      x y z
#    x 1.819000 0.000000 0.000000 
#    y 0.000000 1.819000 0.000000 
#    z 0.000000 0.000000 1.841390 
# 
# From -- ./inp_files/3977.got.cif
#   From: 2010.03.12/outbox.cif.g09.slc.cpg/sg88_2_cif.got.tgz:3977.got - 2010.04.08 20:20:55.
