data_PCOD8304534
_publ_section_title
;
Structure prediction by ZEFSAII (Michael W. Deem and Ramdas Pophale) SiO2 
 PCOD8304534
Probable space group: P 4 21 2
;
_chemical_formula_sum "Si O2"
_cell_formula_units_Z 64
_cell_length_a 22.498449
_cell_length_b 22.498449
_cell_length_c 7.514687
_cell_angle_alpha 90.000000
_cell_angle_beta 90.000000
_cell_angle_gamma 90.000000
_cell_volume 3803.785824
_symmetry_space_group_name_H-M "P 4 21 2"
_symmetry_group_IT_number 90
_symmetry_cell_setting 'tetragonal'
loop_
_space_group_symop_operation_xyz
x,y,z
1/2-y,1/2+x,z
-x,-y,z
1/2+y,1/2-x,z
1/2+x,1/2-y,-z
1/2-x,1/2+y,-z
y,x,-z
-y,-x,-z
loop_
_atom_site_type_symbol
_atom_site_label
_atom_site_fract_x
_atom_site_fract_y
_atom_site_fract_z
Si Si1 0.933726 0.256006 0.132644
Si Si2 0.935800 0.338879 0.449306
Si Si3 0.223123 0.804126 0.801008
Si Si4 0.216071 0.625239 0.803716
Si Si5 0.567298 0.162303 0.525761
Si Si6 0.746965 0.933449 0.843848
Si Si7 0.813990 0.789245 0.299219
Si Si8 0.276946 0.879149 0.237053
O O1 0.934811 0.317382 0.244202
O O2 0.876056 0.219843 0.205142
O O3 0.999059 0.224936 0.163663
O O4 0.925732 0.264583 0.921361
O O5 0.898516 0.397617 0.475228
O O6 0.912563 0.286849 0.578329
O O7 0.000564 0.355387 0.520230
O O8 0.283974 0.777319 0.712440
O O9 0.163786 0.778295 0.709382
O O10 0.221300 0.778701 0.000000
O O11 0.210406 0.592217 0.614843
O O12 0.275039 0.665252 0.815539
O O13 0.158750 0.666727 0.831468
O O14 0.221852 0.577012 0.958781
O O15 0.570864 0.190077 0.719396
O O16 0.791614 0.881290 0.778003
O O17 0.812571 0.812571 0.500000
#
# Coordination Sequence:
#
# PCOD8304534 Si02
#       8
#     8   8   8   8   8   8   8   8
#     4  10  20  31  47  69  99 130 159 197 241 308
#     4  10  20  31  48  66  97 131 172 202 249 284
#     4   9  18  31  49  74  99 127 164 204 256 309
#     4  10  19  32  52  71  97 126 164 209 257 298
#     4  10  20  33  46  70  94 134 170 208 241 295
#     4  11  20  32  47  69 101 132 159 198 248 300
#     4  11  19  30  51  76 100 129 167 206 255 307
#     4   9  18  32  49  73  93 126 160 209 254 298
#
# _framework density 16.825341999999999
#
# number of rings (size 3 to 8) (size 9 to 14) (size 15 to 20)
#    0.000    2.000    1.250    4.875    3.500    0.250 
#    0.000    0.000    0.000    0.000    0.000    3.500 
#    0.000   31.000    7.000    0.000    0.000    0.000 
#
# Total GULP energy -793116.085278 kJ/mol
# GULP energy per Si atom -12392.438832 kJ/mol
# Density = 1.678705 g / cm^3
# Si number density = 16.825342 Si / 1000 Ang^3
#
#
#
# Elastic Constant Matrix: (Units=GPa)
#
#
# Indices 1 2 3 4 5 6 
#
# 1 100.9545 39.8687 25.8349 0.0000 0.0000 0.0000
# 2 39.8687 100.9549 25.8345 0.0000 0.0000 0.0000
# 3 25.8349 25.8345 55.4766 0.0000 0.0000 0.0000
# 4 0.0000 0.0000 0.0000 21.5703 0.0000 0.0000
# 5 0.0000 0.0000 0.0000 0.0000 21.5703 0.0000
# 6 0.0000 0.0000 0.0000 0.0000 0.0000 14.9609
#
#
#
# Elastic Compliance Matrix: (Units=1/GPa)
#
#
# Indices 1 2 3 4 5 6 
#
# 1 0.012467 -0.003903 -0.003988 0.000000 0.000000 0.000000
# 2 -0.003903 0.012467 -0.003988 0.000000 0.000000 0.000000
# 3 -0.003988 -0.003988 0.021740 0.000000 0.000000 0.000000
# 4 0.000000 0.000000 0.000000 0.046360 0.000000 0.000000
# 5 0.000000 0.000000 0.000000 0.000000 0.046360 0.000000
# 6 0.000000 0.000000 0.000000 0.000000 0.000000 0.066841
#
#
# Mechanical properties :
#
#
# Convention : Reuss Voigt Hill
#
# Bulk Modulus (GPa) = 43.63806 48.94022 46.28914
# Shear Modulus (GPa) = 21.04078 22.67684 21.85881
#
# Velocity S-wave (km/s) = 3.54013 3.67519 3.60830
# Velocity P-wave (km/s) = 6.53470 6.86730 6.70306
#
# Compressibility (1/GPa) = 0.02291578
#
# Stress axis : x y z
#
# Youngs Moduli (GPa) = 80.20886 80.20955 45.99764
#
# Poissons Ratio (x) = 0.31305 0.18346
# Poissons Ratio (y) = 0.31305 0.18345
# Poissons Ratio (z) = 0.31991 0.31990
#
# Static dielectric constant tensor:
#      x y z
#    x 3.231240 0.000000 0.000000 
#    y 0.000000 3.231240 0.000000 
#    z 0.000000 0.000000 3.283260 
# 
# 
# High freq. dielectric constant tensor:
#      x y z
#    x 1.625670 0.000000 0.000000 
#    y 0.000000 1.625670 0.000000 
#    z 0.000000 0.000000 1.667570 
# 
# From -- ./inp_files/1736.got.cif
#   From: 2010.03.12/outbox.cif.g09.slc.cpg/sg90_1_cif.got.tgz:1736.got - 2010.04.08 20:26:03.
