data_PCOD8304660
_publ_section_title
;
Structure prediction by ZEFSAII (Michael W. Deem and Ramdas Pophale) SiO2 
 PCOD8304660
Probable space group: P 4 21 2
;
_chemical_formula_sum "Si O2"
_cell_formula_units_Z 36
_cell_length_a 8.166701
_cell_length_b 8.166701
_cell_length_c 24.228507
_cell_angle_alpha 90.000000
_cell_angle_beta 90.000000
_cell_angle_gamma 90.000000
_cell_volume 1615.920401
_symmetry_space_group_name_H-M "P 4 21 2"
_symmetry_group_IT_number 90
_symmetry_cell_setting 'tetragonal'
loop_
_space_group_symop_operation_xyz
x,y,z
1/2-y,1/2+x,z
-x,-y,z
1/2+y,1/2-x,z
1/2+x,1/2-y,-z
1/2-x,1/2+y,-z
y,x,-z
-y,-x,-z
loop_
_atom_site_type_symbol
_atom_site_label
_atom_site_fract_x
_atom_site_fract_y
_atom_site_fract_z
Si Si1 0.925723 0.761858 0.450209
Si Si2 0.741377 0.569635 0.045747
Si Si3 0.500000 0.500000 0.642556
Si Si4 0.922645 0.241656 0.169260
Si Si5 0.431538 0.261446 0.264907
O O1 0.799745 0.612033 0.453025
O O2 0.885580 0.885580 0.500000
O O3 0.904791 0.865338 0.394144
O O4 0.803177 0.387520 0.037073
O O5 0.669786 0.595418 0.107341
O O6 0.603151 0.603151 0.000000
O O7 0.368454 0.404521 0.680197
O O8 0.800364 0.392976 0.179115
O O9 0.875258 0.097729 0.211434
O O10 0.615978 0.198184 0.264324
#
# Coordination Sequence:
#
# PCOD8304660 Si02
#       5
#     8   8   4   8   8
#     4  11  24  43  69  99 131 169 211 256 308 366
#     4   9  19  35  55  81 112 147 190 240 295 358
#     4  12  23  42  64  90 127 166 206 250 300 370
#     4   9  19  38  60  80 110 155 201 246 304 373
#     4  11  24  39  58  87 120 156 200 254 309 358
#
# _framework density 22.278327000000001
#
# number of rings (size 3 to 8) (size 9 to 14) (size 15 to 20)
#    0.000    1.778    0.000    5.667    0.000    2.222 
#    0.000   11.111    0.000    0.000    0.000    0.000 
#    0.000    0.000    0.000    0.000    0.000    0.000 
#
# Total GULP energy -446462.829669 kJ/mol
# GULP energy per Si atom -12401.745269 kJ/mol
# Density = 2.222762 g / cm^3
# Si number density = 22.278327 Si / 1000 Ang^3
#
#
#
# Elastic Constant Matrix: (Units=GPa)
#
#
# Indices 1 2 3 4 5 6 
#
# 1 90.1581 45.2910 65.5476 0.0000 0.0000 0.0000
# 2 45.2910 90.1581 65.5476 0.0000 0.0000 0.0000
# 3 65.5476 65.5476 188.0387 0.0000 0.0000 0.0000
# 4 0.0000 0.0000 0.0000 17.1920 0.0000 0.0000
# 5 0.0000 0.0000 0.0000 0.0000 17.1920 0.0000
# 6 0.0000 0.0000 0.0000 0.0000 0.0000 43.2035
#
#
#
# Elastic Compliance Matrix: (Units=1/GPa)
#
#
# Indices 1 2 3 4 5 6 
#
# 1 0.016715 -0.005573 -0.003884 0.000000 0.000000 0.000000
# 2 -0.005573 0.016715 -0.003884 0.000000 0.000000 0.000000
# 3 -0.003884 -0.003884 0.008026 0.000000 0.000000 0.000000
# 4 0.000000 0.000000 0.000000 0.058167 0.000000 0.000000
# 5 0.000000 0.000000 0.000000 0.000000 0.058167 0.000000
# 6 0.000000 0.000000 0.000000 0.000000 0.000000 0.023146
#
#
# Mechanical properties :
#
#
# Convention : Reuss Voigt Hill
#
# Bulk Modulus (GPa) = 67.68656 80.12526 73.90591
# Shear Modulus (GPa) = 23.52482 28.31543 25.92013
#
# Velocity S-wave (km/s) = 3.25307 3.56896 3.41467
# Velocity P-wave (km/s) = 6.67519 7.28196 6.98516
#
# Compressibility (1/GPa) = 0.01477398
#
# Stress axis : x y z
#
# Youngs Moduli (GPa) = 59.82662 59.82662 124.59819
#
# Poissons Ratio (x) = 0.33342 0.48393
# Poissons Ratio (y) = 0.33342 0.48393
# Poissons Ratio (z) = 0.23236 0.23236
#
# Static dielectric constant tensor:
#      x y z
#    x 3.894870 0.000000 0.000000 
#    y 0.000000 3.894870 0.000000 
#    z 0.000000 0.000000 4.058510 
# 
# 
# High freq. dielectric constant tensor:
#      x y z
#    x 1.881620 0.000000 0.000000 
#    y 0.000000 1.881620 0.000000 
#    z 0.000000 0.000000 1.882970 
# 
# From -- ./inp_files/2750.got.cif
#   From: 2010.03.12/outbox.cif.g09.slc.cpg/sg90_2_cif.got.tgz:2750.got - 2010.04.08 20:26:03.
