data_PCOD8304742
_publ_section_title
;
Structure prediction by ZEFSAII (Michael W. Deem and Ramdas Pophale) SiO2 
 PCOD8304742
Probable space group: P 41 2 2
;
_chemical_formula_sum "Si O2"
_cell_formula_units_Z 48
_cell_length_a 13.380041
_cell_length_b 13.380041
_cell_length_c 14.030828
_cell_angle_alpha 90.000000
_cell_angle_beta 90.000000
_cell_angle_gamma 90.000000
_cell_volume 2511.875958
_symmetry_space_group_name_H-M "P 41 2 2"
_symmetry_group_IT_number 91
_symmetry_cell_setting 'tetragonal'
loop_
_space_group_symop_operation_xyz
x,y,z
-y,x,1/4+z
-x,-y,1/2+z
y,-x,3/4+z
x,-y,1/2-z
-x,y,-z
y,x,3/4-z
-y,-x,1/4-z
loop_
_atom_site_type_symbol
_atom_site_label
_atom_site_fract_x
_atom_site_fract_y
_atom_site_fract_z
Si Si1 0.650773 0.047167 0.963274
Si Si2 0.982326 0.535987 0.607095
Si Si3 0.453769 0.396342 0.600533
Si Si4 0.154900 0.257213 0.295816
Si Si5 0.325185 0.230416 0.157899
Si Si6 0.212318 0.443942 0.410741
O O1 0.682476 0.160460 0.936821
O O2 0.577448 0.014474 0.877999
O O3 0.739240 0.965100 0.966753
O O4 0.603827 0.043281 0.068854
O O5 0.861660 0.535367 0.619398
O O6 0.000000 0.572439 0.500000
O O7 0.500000 0.362708 0.500000
O O8 0.489054 0.510946 0.625000
O O9 0.336545 0.377161 0.616209
O O10 0.512198 0.323570 0.674349
O O11 0.172007 0.172007 0.375000
O O12 0.211259 0.235739 0.196127
O O13 0.206944 0.359921 0.329555
O O14 0.395285 0.179397 0.238416
#
# Coordination Sequence:
#
# PCOD8304742 Si02
#       6
#     8   8   8   8   8   8
#     4  10  21  34  54  88 121 153 203 262 326 375
#     4  10  19  34  54  80 117 165 201 256 313 379
#     4  12  21  35  52  80 117 174 218 246 300 370
#     4   9  18  31  57  86 116 147 188 261 327 366
#     4  11  20  35  55  84 123 154 205 271 308 381
#     4  10  18  32  55  80 111 156 206 246 306 360
#
# _framework density 19.109223
#
# number of rings (size 3 to 8) (size 9 to 14) (size 15 to 20)
#    0.000    1.667    5.000    1.500    2.333    0.000 
#    3.000    0.000    0.000    3.000    0.000    0.000 
#   30.000    0.000    0.000    0.000    0.000    0.000 
#
# Total GULP energy -594649.950791 kJ/mol
# GULP energy per Si atom -12388.540641 kJ/mol
# Density = 1.906573 g / cm^3
# Si number density = 19.109223 Si / 1000 Ang^3
#
#
#
# Elastic Constant Matrix: (Units=GPa)
#
#
# Indices 1 2 3 4 5 6 
#
# 1 104.5541 40.1718 38.5537 0.0000 0.0000 0.0000
# 2 40.1718 104.5535 38.5538 0.0000 0.0000 0.0000
# 3 38.5537 38.5538 103.4062 0.0000 0.0000 0.0000
# 4 0.0000 0.0000 0.0000 22.7902 0.0000 0.0000
# 5 0.0000 0.0000 0.0000 0.0000 22.7906 0.0000
# 6 0.0000 0.0000 0.0000 0.0000 0.0000 18.4870
#
#
#
# Elastic Compliance Matrix: (Units=1/GPa)
#
#
# Indices 1 2 3 4 5 6 
#
# 1 0.012077 -0.003455 -0.003215 0.000000 0.000000 0.000000
# 2 -0.003455 0.012077 -0.003215 0.000000 0.000000 0.000000
# 3 -0.003215 -0.003215 0.012068 0.000000 0.000000 0.000000
# 4 0.000000 0.000000 0.000000 0.043879 0.000000 0.000000
# 5 0.000000 0.000000 0.000000 0.000000 0.043878 0.000000
# 6 0.000000 0.000000 0.000000 0.000000 0.000000 0.054092
#
#
# Mechanical properties :
#
#
# Convention : Reuss Voigt Hill
#
# Bulk Modulus (GPa) = 60.77722 60.78583 60.78152
# Shear Modulus (GPa) = 24.59124 25.82918 25.21021
#
# Velocity S-wave (km/s) = 3.59120 3.68048 3.63611
# Velocity P-wave (km/s) = 7.00499 7.06682 7.03597
#
# Compressibility (1/GPa) = 0.01645353
#
# Stress axis : x y z
#
# Youngs Moduli (GPa) = 82.79993 82.79937 82.86543
#
# Poissons Ratio (x) = 0.28607 0.26639
# Poissons Ratio (y) = 0.28607 0.26639
# Poissons Ratio (z) = 0.26618 0.26618
#
# Static dielectric constant tensor:
#      x y z
#    x 3.372730 0.000000 0.000000 
#    y 0.000000 3.372730 0.000000 
#    z 0.000000 0.000000 3.323960 
# 
# 
# High freq. dielectric constant tensor:
#      x y z
#    x 1.717510 0.000000 0.000000 
#    y 0.000000 1.717510 0.000000 
#    z 0.000000 0.000000 1.730380 
# 
# From -- ./inp_files/11451.got.cif
#   From: 2010.03.12/outbox.cif.g09.slc.cpg/sg91_6_cif.got.tgz:11451.got - 2010.04.08 20:27:58.
