data_PCOD8304294
_publ_section_title
;
Structure prediction by ZEFSAII (Michael W. Deem and Ramdas Pophale) SiO2 
 PCOD8304294
Probable space group: I 41/A
;
_chemical_formula_sum "Si O2"
_cell_formula_units_Z 84
_cell_length_a 21.619872
_cell_length_b 21.619872
_cell_length_c 9.209105
_cell_angle_alpha 90.000000
_cell_angle_beta 90.000000
_cell_angle_gamma 90.000000
_cell_volume 4304.509409
_symmetry_space_group_name_H-M "I 41/A"
_symmetry_group_IT_number 88
_space_group.IT_coordinate_system_code '2'
_symmetry_cell_setting 'tetragonal'
loop_
_space_group_symop_operation_xyz
x,y,z
3/4-y,1/4+x,1/4+z
-x,1/2-y,z
1/4+y,1/4-x,1/4+z
-x,-y,-z
1/4+y,3/4-x,3/4-z
x,1/2+y,-z
3/4-y,3/4+x,3/4-z
1/2+x,1/2+y,1/2+z
1/4-y,3/4+x,3/4+z
1/2-x,-y,1/2+z
3/4+y,3/4-x,3/4+z
1/2-x,1/2-y,1/2-z
3/4+y,1/4-x,1/4-z
1/2+x,y,1/2-z
1/4-y,1/4+x,1/4-z
loop_
_atom_site_type_symbol
_atom_site_label
_atom_site_fract_x
_atom_site_fract_y
_atom_site_fract_z
Si Si1 0.272591 0.285659 0.393622
Si Si2 0.784941 0.172209 0.917808
Si Si3 0.892570 0.833531 0.753966
Si Si4 0.427614 0.099514 0.813233
Si Si5 0.566473 0.575244 0.149935
Si Si6 0.000000 0.750000 0.875000
O O1 0.250000 0.250000 0.250000
O O2 0.282640 0.243682 0.535543
O O3 0.336966 0.319243 0.364266
O O4 0.216827 0.329079 0.455548
O O5 0.717589 0.143785 0.957653
O O6 0.792777 0.160533 0.747245
O O7 0.841832 0.144991 0.010599
O O8 0.878933 0.811083 0.593099
O O9 0.957186 0.799101 0.789005
O O10 0.495339 0.092816 0.881297
O O11 0.387476 0.143014 0.919190
#
# Coordination Sequence:
#
# PCOD8304294 Si02
#       6
#    16  16  16  16  16   4
#     4  11  19  39  61  88 118 163 205 246 317 377
#     4  10  21  40  59  84 124 167 203 252 313 382
#     4  11  22  37  62  89 129 159 205 271 315 371
#     4  10  21  40  59  88 121 162 207 255 318 371
#     4  10  22  38  63  88 120 165 207 254 310 385
#     4  12  24  36  56 110 124 152 212 274 324 368
#
# _framework density 19.514419
#
# number of rings (size 3 to 8) (size 9 to 14) (size 15 to 20)
#    0.000    1.524    5.714    2.286    0.000    3.429 
#   10.286    0.000   16.762    0.000    0.000    0.000 
#    0.000    0.000    0.000    0.000    0.000    0.000 
#
# Total GULP energy -520306.260502 kJ/mol
# GULP energy per Si atom -12388.244298 kJ/mol
# Density = 1.947000 g / cm^3
# Si number density = 19.514419 Si / 1000 Ang^3
#
#
#
# Elastic Constant Matrix: (Units=GPa)
#
#
# Indices 1 2 3 4 5 6 
#
# 1 107.4038 59.2119 32.5361 0.0000 0.0000 -0.1676
# 2 59.2119 107.4038 32.5361 0.0000 0.0000 0.1676
# 3 32.5361 32.5361 72.9301 0.0000 0.0000 0.0000
# 4 0.0000 0.0000 0.0000 31.6523 0.0000 0.0000
# 5 0.0000 0.0000 0.0000 0.0000 31.6523 0.0000
# 6 -0.1676 0.1676 0.0000 0.0000 0.0000 28.2985
#
#
#
# Elastic Compliance Matrix: (Units=1/GPa)
#
#
# Indices 1 2 3 4 5 6 
#
# 1 0.014010 -0.006741 -0.003243 0.000000 0.000000 0.000123
# 2 -0.006741 0.014010 -0.003243 0.000000 0.000000 -0.000123
# 3 -0.003243 -0.003243 0.016605 0.000000 0.000000 0.000000
# 4 0.000000 0.000000 0.000000 0.031593 0.000000 0.000000
# 5 0.000000 0.000000 0.000000 0.000000 0.031593 0.000000
# 6 0.000123 -0.000123 0.000000 0.000000 0.000000 0.035339
#
#
# Mechanical properties :
#
#
# Convention : Reuss Voigt Hill
#
# Bulk Modulus (GPa) = 55.03222 59.58954 57.31088
# Shear Modulus (GPa) = 28.46404 29.21752 28.84078
#
# Velocity S-wave (km/s) = 3.82333 3.87360 3.84855
# Velocity P-wave (km/s) = 6.91031 7.11399 7.01289
#
# Compressibility (1/GPa) = 0.01817117
#
# Stress axis : x y z
#
# Youngs Moduli (GPa) = 71.37899 71.37899 60.22307
#
# Poissons Ratio (x) = 0.48120 0.19528
# Poissons Ratio (y) = 0.48120 0.19528
# Poissons Ratio (z) = 0.23145 0.23145
#
# Static dielectric constant tensor:
#      x y z
#    x 3.856080 0.000000 0.000000 
#    y 0.000000 3.856080 0.000000 
#    z 0.000000 0.000000 3.420710 
# 
# 
# High freq. dielectric constant tensor:
#      x y z
#    x 1.754830 0.000000 0.000000 
#    y 0.000000 1.754830 0.000000 
#    z 0.000000 0.000000 1.757340 
# 
# From -- ./inp_files/1665.got.cif
#   From: 2010.03.12/outbox.cif.g09.slc.cpg/sg88_1_cif.got.tgz:1665.got - 2010.04.08 20:20:55.
