data_PCOD8304826
_publ_section_title
;
Structure prediction by ZEFSAII (Michael W. Deem and Ramdas Pophale) SiO2 
 PCOD8304826
Probable space group: P 41 2 2
;
_chemical_formula_sum "Si O2"
_cell_formula_units_Z 64
_cell_length_a 18.190962
_cell_length_b 18.190962
_cell_length_c 11.819913
_cell_angle_alpha 90.000000
_cell_angle_beta 90.000000
_cell_angle_gamma 90.000000
_cell_volume 3911.340395
_symmetry_space_group_name_H-M "P 41 2 2"
_symmetry_group_IT_number 91
_symmetry_cell_setting 'tetragonal'
loop_
_space_group_symop_operation_xyz
x,y,z
-y,x,1/4+z
-x,-y,1/2+z
y,-x,3/4+z
x,-y,1/2-z
-x,y,-z
y,x,3/4-z
-y,-x,1/4-z
loop_
_atom_site_type_symbol
_atom_site_label
_atom_site_fract_x
_atom_site_fract_y
_atom_site_fract_z
Si Si1 0.849134 0.274416 0.635726
Si Si2 0.344014 0.882498 0.892027
Si Si3 0.914172 0.535952 0.479086
Si Si4 0.081881 0.372536 0.546643
Si Si5 0.346379 0.054603 0.945176
Si Si6 0.852181 0.048135 0.551595
Si Si7 0.099677 0.924152 0.803312
Si Si8 0.764250 0.858302 0.309235
O O1 0.777619 0.222382 0.625000
O O2 0.838593 0.332131 0.740142
O O3 0.862738 0.318431 0.519856
O O4 0.922873 0.227334 0.659521
O O5 0.424366 0.871548 0.834162
O O6 0.283576 0.851103 0.804646
O O7 0.339706 0.968703 0.919307
O O8 0.882629 0.454098 0.463740
O O9 0.906219 0.584154 0.365394
O O10 0.000000 0.528747 0.500000
O O11 0.076702 0.349108 0.675364
O O12 0.000000 0.369513 0.500000
O O13 0.271925 0.086737 0.897099
O O14 0.915055 0.084946 0.625000
O O15 0.859273 0.064863 0.420424
O O16 0.861801 0.961769 0.572484
O O17 0.157619 0.893844 0.715524
O O18 0.066307 0.000000 0.750000
O O19 0.780516 0.780516 0.375000
#
# Coordination Sequence:
#
# PCOD8304826 Si02
#       8
#     8   8   8   8   8   8   8   8
#     4  11  25  37  48  69 105 137 168 205 260 323
#     4  10  19  39  51  69 102 126 161 218 267 305
#     4   8  18  34  58  80  95 119 158 217 268 309
#     4  11  21  34  56  79  96 129 167 205 265 320
#     4  10  20  35  53  73 104 121 160 223 268 309
#     4  11  24  38  47  62  87 121 167 227 275 301
#     4  12  22  35  50  63  80 116 176 224 268 310
#     4  11  23  31  50  68  90 130 171 209 260 314
#
# _framework density 16.362677000000001
#
# number of rings (size 3 to 8) (size 9 to 14) (size 15 to 20)
#    0.000    1.500    2.500    4.500    3.500    2.500 
#    0.000    0.000    0.000    0.000    0.000    0.000 
#    0.000    0.000    0.000    0.000    0.000   20.000 
#
# Total GULP energy -793246.960908 kJ/mol
# GULP energy per Si atom -12394.483764 kJ/mol
# Density = 1.632544 g / cm^3
# Si number density = 16.362677 Si / 1000 Ang^3
#
#
#
# Elastic Constant Matrix: (Units=GPa)
#
#
# Indices 1 2 3 4 5 6 
#
# 1 54.7285 14.1355 21.3981 0.0000 0.0000 0.0000
# 2 14.1355 54.7265 21.3946 0.0000 0.0000 0.0000
# 3 21.3981 21.3946 107.5806 0.0000 0.0000 0.0000
# 4 0.0000 0.0000 0.0000 29.2341 0.0000 0.0000
# 5 0.0000 0.0000 0.0000 0.0000 29.2361 0.0000
# 6 0.0000 0.0000 0.0000 0.0000 0.0000 48.0200
#
#
#
# Elastic Compliance Matrix: (Units=1/GPa)
#
#
# Indices 1 2 3 4 5 6 
#
# 1 0.020602 -0.004033 -0.003296 0.000000 0.000000 0.000000
# 2 -0.004033 0.020603 -0.003295 0.000000 0.000000 0.000000
# 3 -0.003296 -0.003295 0.010606 0.000000 0.000000 0.000000
# 4 0.000000 0.000000 0.000000 0.034207 0.000000 0.000000
# 5 0.000000 0.000000 0.000000 0.000000 0.034204 0.000000
# 6 0.000000 0.000000 0.000000 0.000000 0.000000 0.020825
#
#
# Mechanical properties :
#
#
# Convention : Reuss Voigt Hill
#
# Bulk Modulus (GPa) = 32.71897 36.76577 34.74237
# Shear Modulus (GPa) = 28.98850 31.97185 30.48017
#
# Velocity S-wave (km/s) = 4.21363 4.42515 4.32068
# Velocity P-wave (km/s) = 6.61154 6.97333 6.79484
#
# Compressibility (1/GPa) = 0.03056331
#
# Stress axis : x y z
#
# Youngs Moduli (GPa) = 48.53827 48.53768 94.28456
#
# Poissons Ratio (x) = 0.19575 0.31075
# Poissons Ratio (y) = 0.19575 0.31067
# Poissons Ratio (z) = 0.15997 0.15993
#
# Static dielectric constant tensor:
#      x y z
#    x 3.016680 0.000000 0.000000 
#    y 0.000000 3.016680 0.000000 
#    z 0.000000 0.000000 3.346170 
# 
# 
# High freq. dielectric constant tensor:
#      x y z
#    x 1.593990 0.000000 0.000000 
#    y 0.000000 1.593990 0.000000 
#    z 0.000000 0.000000 1.658500 
# 
# From -- ./inp_files/4064.got.cif
#   From: 2010.03.12/outbox.cif.g09.slc.cpg/sg91_3_cif.got.tgz:4064.got - 2010.04.08 20:27:58.
