data_PCOD8304561
_publ_section_title
;
Structure prediction by ZEFSAII (Michael W. Deem and Ramdas Pophale) SiO2 
 PCOD8304561
Probable space group: P 4 21 2
;
_chemical_formula_sum "Si O2"
_cell_formula_units_Z 64
_cell_length_a 16.197440
_cell_length_b 16.197440
_cell_length_c 13.736720
_cell_angle_alpha 90.000000
_cell_angle_beta 90.000000
_cell_angle_gamma 90.000000
_cell_volume 3603.925508
_symmetry_space_group_name_H-M "P 4 21 2"
_symmetry_group_IT_number 90
_symmetry_cell_setting 'tetragonal'
loop_
_space_group_symop_operation_xyz
x,y,z
1/2-y,1/2+x,z
-x,-y,z
1/2+y,1/2-x,z
1/2+x,1/2-y,-z
1/2-x,1/2+y,-z
y,x,-z
-y,-x,-z
loop_
_atom_site_type_symbol
_atom_site_label
_atom_site_fract_x
_atom_site_fract_y
_atom_site_fract_z
Si Si1 0.678520 0.640828 0.106363
Si Si2 0.867122 0.472889 0.367277
Si Si3 0.372948 0.961447 0.966515
Si Si4 0.950587 0.626602 0.586807
Si Si5 0.431878 0.218978 0.147724
Si Si6 0.297152 0.109134 0.228492
Si Si7 0.185914 0.227646 0.106678
Si Si8 0.508907 0.237922 0.810721
O O1 0.618985 0.698504 0.172026
O O2 0.768513 0.684226 0.097568
O O3 0.687043 0.555405 0.167840
O O4 0.634370 0.634370 0.000000
O O5 0.904451 0.563293 0.346887
O O6 0.838776 0.452237 0.476938
O O7 0.784463 0.468165 0.300715
O O8 0.445479 0.899307 0.991858
O O9 0.344447 0.965035 0.854482
O O10 0.294116 0.934476 0.030633
O O11 0.895263 0.545862 0.606933
O O12 0.911151 0.697906 0.655630
O O13 0.387773 0.139427 0.195449
O O14 0.524065 0.228332 0.180972
O O15 0.228248 0.174231 0.193316
O O16 0.091441 0.240481 0.132321
O O17 0.185901 0.185901 0.000000
#
# Coordination Sequence:
#
# PCOD8304561 Si02
#       8
#     8   8   8   8   8   8   8   8
#     4  10  21  35  53  75 109 150 187 228 280 325
#     4   9  18  32  54  85 114 141 180 234 289 345
#     4  11  20  27  46  80 106 131 175 223 271 345
#     4   9  17  31  54  87 118 141 173 228 296 354
#     4  11  20  31  51  81 111 141 177 226 277 342
#     4  11  20  33  55  79 113 144 178 226 289 343
#     4  10  23  37  52  80 114 146 185 237 282 328
#     4  12  21  36  55  68 106 160 194 221 276 341
#
# _framework density 17.758413000000001
#
# number of rings (size 3 to 8) (size 9 to 14) (size 15 to 20)
#    0.000    1.625    3.750    3.750    1.750    1.250 
#    0.000    1.250    0.000    0.750    0.000    0.000 
#    0.000    2.000    0.000    0.000    0.000    0.000 
#
# Total GULP energy -792889.873056 kJ/mol
# GULP energy per Si atom -12388.904267 kJ/mol
# Density = 1.771799 g / cm^3
# Si number density = 17.758413 Si / 1000 Ang^3
#
#
#
# Elastic Constant Matrix: (Units=GPa)
#
#
# Indices 1 2 3 4 5 6 
#
# 1 63.8865 16.0925 32.5411 0.0000 0.0000 0.0000
# 2 16.0925 63.8865 32.5411 0.0000 0.0000 0.0000
# 3 32.5411 32.5411 123.7502 0.0000 0.0000 0.0000
# 4 0.0000 0.0000 0.0000 26.0715 0.0000 0.0000
# 5 0.0000 0.0000 0.0000 0.0000 26.0715 0.0000
# 6 0.0000 0.0000 0.0000 0.0000 0.0000 7.5355
#
#
#
# Elastic Compliance Matrix: (Units=1/GPa)
#
#
# Indices 1 2 3 4 5 6 
#
# 1 0.018415 -0.002508 -0.004183 0.000000 0.000000 0.000000
# 2 -0.002508 0.018415 -0.004183 0.000000 0.000000 0.000000
# 3 -0.004183 -0.004183 0.010281 0.000000 0.000000 0.000000
# 4 0.000000 0.000000 0.000000 0.038356 0.000000 0.000000
# 5 0.000000 0.000000 0.000000 0.000000 0.038356 0.000000
# 6 0.000000 0.000000 0.000000 0.000000 0.000000 0.132705
#
#
# Mechanical properties :
#
#
# Convention : Reuss Voigt Hill
#
# Bulk Modulus (GPa) = 39.42719 45.98586 42.70653
# Shear Modulus (GPa) = 17.43803 23.29226 20.36514
#
# Velocity S-wave (km/s) = 3.13702 3.62556 3.39010
# Velocity P-wave (km/s) = 5.94738 6.59376 6.27890
#
# Compressibility (1/GPa) = 0.02536321
#
# Stress axis : x y z
#
# Youngs Moduli (GPa) = 54.30327 54.30327 97.27009
#
# Poissons Ratio (x) = 0.13619 0.40687
# Poissons Ratio (y) = 0.13619 0.40687
# Poissons Ratio (z) = 0.22714 0.22714
#
# Static dielectric constant tensor:
#      x y z
#    x 3.149340 0.000000 0.000000 
#    y 0.000000 3.149340 0.000000 
#    z 0.000000 0.000000 3.340200 
# 
# 
# High freq. dielectric constant tensor:
#      x y z
#    x 1.669200 0.000000 0.000000 
#    y 0.000000 1.669200 0.000000 
#    z 0.000000 0.000000 1.676530 
# 
# From -- ./inp_files/2353.got.cif
#   From: 2010.03.12/outbox.cif.g09.slc.cpg/sg90_2_cif.got.tgz:2353.got - 2010.04.08 20:26:03.
