data_PCOD8304483
_publ_section_title
;
Structure prediction by ZEFSAII (Michael W. Deem and Ramdas Pophale) SiO2 
 PCOD8304483
Probable space group: P 4 2 2
;
_chemical_formula_sum "Si O2"
_cell_formula_units_Z 56
_cell_length_a 11.596157
_cell_length_b 11.596157
_cell_length_c 25.427550
_cell_angle_alpha 90.000000
_cell_angle_beta 90.000000
_cell_angle_gamma 90.000000
_cell_volume 3419.264444
_symmetry_space_group_name_H-M "P 4 2 2"
_symmetry_group_IT_number 89
_symmetry_cell_setting 'tetragonal'
loop_
_space_group_symop_operation_xyz
x,y,z
-y,x,z
-x,-y,z
y,-x,z
x,-y,-z
-x,y,-z
y,x,-z
-y,-x,-z
loop_
_atom_site_type_symbol
_atom_site_label
_atom_site_fract_x
_atom_site_fract_y
_atom_site_fract_z
Si Si1 0.426008 0.885970 0.866326
Si Si2 0.174465 0.052895 0.256023
Si Si3 0.507024 0.308689 0.669297
Si Si4 0.496396 0.311808 0.059790
Si Si5 0.497614 0.690508 0.555445
Si Si6 0.574000 0.885369 0.253690
Si Si7 0.174459 0.947114 0.869028
O O1 0.494584 0.793796 0.900503
O O2 0.416799 0.841726 0.806380
O O3 0.298928 0.908884 0.890968
O O4 0.500000 0.000000 0.868646
O O5 0.298830 0.091056 0.278050
O O6 0.179361 0.049902 0.193491
O O7 0.076341 0.142252 0.275759
O O8 0.617577 0.390929 0.675822
O O9 0.506221 0.243714 0.611705
O O10 0.508999 0.212516 0.713835
O O11 0.611003 0.384449 0.070702
O O12 0.500000 0.266338 0.000000
O O13 0.386042 0.611115 0.554947
O O14 0.500000 0.764809 0.500000
O O15 0.500000 0.000000 0.257564
O O16 0.076333 0.857781 0.888818
#
# Coordination Sequence:
#
# PCOD8304483 Si02
#       7
#     8   8   8   8   8   8   8
#     4  10  21  32  50  76  97 123 162 194 229 284
#     4   8  15  29  47  62  82 123 169 196 218 259
#     4   9  18  30  44  66  97 131 159 189 242 298
#     4   9  20  39  58  74  95 123 156 196 236 277
#     4   7  10  20  40  63  85 114 158 200 230 276
#     4  10  21  31  43  68 102 130 154 192 237 279
#     4   8  15  29  48  70  96 121 149 192 235 269
#
# _framework density 16.377790999999998
#
# number of rings (size 3 to 8) (size 9 to 14) (size 15 to 20)
#    0.000    3.286    0.000    2.571    4.000    1.429 
#    0.000    1.429    0.000    0.429    0.000    0.000 
#    0.000    0.000    0.000    0.000    0.286    0.000 
#
# Total GULP energy -693763.986502 kJ/mol
# GULP energy per Si atom -12388.642616 kJ/mol
# Density = 1.634051 g / cm^3
# Si number density = 16.377791 Si / 1000 Ang^3
#
#
#
# Elastic Constant Matrix: (Units=GPa)
#
#
# Indices 1 2 3 4 5 6 
#
# 1 66.8387 15.4696 39.9700 0.0000 0.0000 0.0000
# 2 15.4696 66.8387 39.9700 0.0000 0.0000 0.0000
# 3 39.9700 39.9700 84.5645 0.0000 0.0000 0.0000
# 4 0.0000 0.0000 0.0000 12.3139 0.0000 0.0000
# 5 0.0000 0.0000 0.0000 0.0000 12.3139 0.0000
# 6 0.0000 0.0000 0.0000 0.0000 0.0000 15.5779
#
#
#
# Elastic Compliance Matrix: (Units=1/GPa)
#
#
# Indices 1 2 3 4 5 6 
#
# 1 0.020963 0.001496 -0.010616 0.000000 0.000000 0.000000
# 2 0.001496 0.020963 -0.010616 0.000000 0.000000 0.000000
# 3 -0.010616 -0.010616 0.021860 0.000000 0.000000 0.000000
# 4 0.000000 0.000000 0.000000 0.081209 0.000000 0.000000
# 5 0.000000 0.000000 0.000000 0.000000 0.081209 0.000000
# 6 0.000000 0.000000 0.000000 0.000000 0.000000 0.064194
#
#
# Mechanical properties :
#
#
# Convention : Reuss Voigt Hill
#
# Bulk Modulus (GPa) = 41.12355 45.45122 43.28739
# Shear Modulus (GPa) = 14.79402 16.22997 15.51199
#
# Velocity S-wave (km/s) = 3.00875 3.15139 3.08090
# Velocity P-wave (km/s) = 6.10196 6.40731 6.25650
#
# Compressibility (1/GPa) = 0.02431697
#
# Stress axis : x y z
#
# Youngs Moduli (GPa) = 47.70239 47.70239 45.74467
#
# Poissons Ratio (x) = -0.07138 0.48561
# Poissons Ratio (y) = -0.07138 0.48561
# Poissons Ratio (z) = 0.50639 0.50639
#
# Static dielectric constant tensor:
#      x y z
#    x 3.033260 0.000000 0.000000 
#    y 0.000000 3.033260 0.000000 
#    z 0.000000 0.000000 3.127460 
# 
# 
# High freq. dielectric constant tensor:
#      x y z
#    x 1.617080 0.000000 0.000000 
#    y 0.000000 1.617080 0.000000 
#    z 0.000000 0.000000 1.604770 
# 
# From -- ./inp_files/2599.got.cif
#   From: 2010.03.12/outbox.cif.g09.slc.cpg/sg89_2_cif.got.tgz:2599.got - 2010.04.08 20:24:03.
