data_PCOD8304001
_publ_section_title
;
Structure prediction by ZEFSAII (Michael W. Deem and Ramdas Pophale) SiO2 
 PCOD8304001
Probable space group: I 4/M
;
_chemical_formula_sum "Si O2"
_cell_formula_units_Z 96
_cell_length_a 15.887922
_cell_length_b 15.887922
_cell_length_c 20.101115
_cell_angle_alpha 90.000000
_cell_angle_beta 90.000000
_cell_angle_gamma 90.000000
_cell_volume 5074.045371
_symmetry_space_group_name_H-M "I 4/M"
_symmetry_group_IT_number 87
_symmetry_cell_setting 'tetragonal'
loop_
_space_group_symop_operation_xyz
x,y,z
-y,x,z
-x,-y,z
y,-x,z
-x,-y,-z
y,-x,-z
x,y,-z
-y,x,-z
1/2+x,1/2+y,1/2+z
1/2-y,1/2+x,1/2+z
1/2-x,1/2-y,1/2+z
1/2+y,1/2-x,1/2+z
1/2-x,1/2-y,1/2-z
1/2+y,1/2-x,1/2-z
1/2+x,1/2+y,1/2-z
1/2-y,1/2+x,1/2-z
loop_
_atom_site_type_symbol
_atom_site_label
_atom_site_fract_x
_atom_site_fract_y
_atom_site_fract_z
Si Si1 0.886147 0.077602 0.926263
Si Si2 0.811868 0.778091 0.835326
Si Si3 0.351845 0.154479 0.777304
Si Si4 0.035781 0.873473 0.421081
Si Si5 0.016988 0.599791 0.671741
Si Si6 0.296575 0.118198 0.578720
O O1 0.828344 0.113360 0.868922
O O2 0.978285 0.115023 0.917477
O O3 0.851984 0.101231 0.000000
O O4 0.735526 0.842270 0.818339
O O5 0.851715 0.737009 0.769270
O O6 0.781023 0.707897 0.887309
O O7 0.364419 0.069674 0.734335
O O8 0.429639 0.152530 0.829053
O O9 0.036885 0.875752 0.500000
O O10 0.061536 0.781557 0.396556
O O11 0.942788 0.897101 0.394404
O O12 0.070303 0.619729 0.604923
O O13 0.000000 0.500000 0.676417
O O14 0.303255 0.129822 0.500000
#
# Coordination Sequence:
#
# PCOD8304001 Si02
#       6
#    16  16  16  16  16  16
#     4   9  19  36  58  85 116 150 187 231 291 355
#     4  10  22  35  58  84 113 153 189 246 293 343
#     4  10  21  38  56  84 108 147 202 237 289 344
#     4   8  15  30  51  73 104 147 183 217 274 338
#     4  11  21  39  63  80 113 158 195 246 295 352
#     4  10  22  36  55  87 121 148 189 247 295 355
#
# _framework density 18.919815
#
# number of rings (size 3 to 8) (size 9 to 14) (size 15 to 20)
#    0.000    2.333    1.667    1.500    4.667    0.333 
#    0.000    0.833    0.000    0.000    0.000    0.000 
#    0.000    0.000    0.000    0.000    0.000    0.000 
#
# Total GULP energy -594923.158588 kJ/mol
# GULP energy per Si atom -12394.232471 kJ/mol
# Density = 1.887675 g / cm^3
# Si number density = 18.919815 Si / 1000 Ang^3
#
#
#
# Elastic Constant Matrix: (Units=GPa)
#
#
# Indices 1 2 3 4 5 6 
#
# 1 74.7176 47.4543 20.9599 0.0000 0.0000 -4.0354
# 2 47.4543 74.7176 20.9599 0.0000 0.0000 4.0354
# 3 20.9599 20.9599 60.1706 0.0000 0.0000 0.0000
# 4 0.0000 0.0000 0.0000 26.3387 0.0000 0.0000
# 5 0.0000 0.0000 0.0000 0.0000 26.3387 0.0000
# 6 -4.0354 4.0354 0.0000 0.0000 0.0000 33.5231
#
#
#
# Elastic Compliance Matrix: (Units=1/GPa)
#
#
# Indices 1 2 3 4 5 6 
#
# 1 0.023666 -0.014369 -0.003238 0.000000 0.000000 0.004579
# 2 -0.014369 0.023666 -0.003238 0.000000 0.000000 -0.004579
# 3 -0.003238 -0.003238 0.018875 0.000000 0.000000 0.000000
# 4 0.000000 0.000000 0.000000 0.037967 0.000000 0.000000
# 5 0.000000 0.000000 0.000000 0.000000 0.037967 0.000000
# 6 0.004579 -0.004579 0.000000 0.000000 0.000000 0.030932
#
#
# Mechanical properties :
#
#
# Convention : Reuss Voigt Hill
#
# Bulk Modulus (GPa) = 40.79144 43.15044 41.97094
# Shear Modulus (GPa) = 22.42794 25.25554 23.84174
#
# Velocity S-wave (km/s) = 3.44673 3.65755 3.55371
# Velocity P-wave (km/s) = 6.11939 6.37914 6.25061
#
# Compressibility (1/GPa) = 0.02451495
#
# Stress axis : x y z
#
# Youngs Moduli (GPa) = 42.25558 42.25558 52.97876
#
# Poissons Ratio (x) = 0.60718 0.17156
# Poissons Ratio (y) = 0.60718 0.17156
# Poissons Ratio (z) = 0.13684 0.13684
#
# Static dielectric constant tensor:
#      x y z
#    x 3.632220 0.000000 0.000000 
#    y 0.000000 3.632220 0.000000 
#    z 0.000000 0.000000 3.333000 
# 
# 
# High freq. dielectric constant tensor:
#      x y z
#    x 1.736630 0.000000 0.000000 
#    y 0.000000 1.736630 0.000000 
#    z 0.000000 0.000000 1.719010 
# 
# From -- ./inp_files/5294.got.cif
#   From: 2010.03.12/outbox.cif.g09.slc.cpg/sg87_3_cif.got.tgz:5294.got - 2010.04.08 20:16:13.
