data_PCOD8304514
_publ_section_title
;
Structure prediction by ZEFSAII (Michael W. Deem and Ramdas Pophale) SiO2 
 PCOD8304514
Probable space group: P 4 2 2
;
_chemical_formula_sum "Si O2"
_cell_formula_units_Z 34
_cell_length_a 8.339431
_cell_length_b 8.339431
_cell_length_c 21.899214
_cell_angle_alpha 90.000000
_cell_angle_beta 90.000000
_cell_angle_gamma 90.000000
_cell_volume 1523.005133
_symmetry_space_group_name_H-M "P 4 2 2"
_symmetry_group_IT_number 89
_symmetry_cell_setting 'tetragonal'
loop_
_space_group_symop_operation_xyz
x,y,z
-y,x,z
-x,-y,z
y,-x,z
x,-y,-z
-x,y,-z
y,x,-z
-y,-x,-z
loop_
_atom_site_type_symbol
_atom_site_label
_atom_site_fract_x
_atom_site_fract_y
_atom_site_fract_z
Si Si1 0.214004 0.853914 0.813777
Si Si2 0.674513 0.696942 0.068360
Si Si3 0.500000 0.000000 0.500000
Si Si4 0.732173 0.380973 0.299140
Si Si5 0.912960 0.750576 0.591253
O O1 0.242446 0.818176 0.884971
O O2 0.350226 0.773546 0.771785
O O3 0.041141 0.780901 0.798449
O O4 0.486455 0.721856 0.079266
O O5 0.735921 0.735921 0.000000
O O6 0.389939 0.882502 0.541925
O O7 0.712617 0.567929 0.313228
O O8 0.876488 0.315111 0.341051
O O9 0.097725 0.798705 0.581290
#
# Coordination Sequence:
#
# PCOD8304514 Si02
#       5
#     8   8   2   8   8
#     4  11  24  39  57  86 123 163 208 258 314 378
#     4   9  19  37  60  86 117 155 202 256 314 377
#     4  12  24  42  68  98 132 170 212 264 324 386
#     4  11  24  42  65  94 127 164 211 267 325 387
#     4  11  24  43  68  98 132 172 217 264 322 392
#
# _framework density 22.324287000000002
#
# number of rings (size 3 to 8) (size 9 to 14) (size 15 to 20)
#    0.000    1.412    0.000    5.647    0.000   11.294 
#    0.000    3.529    0.000    1.412    0.000    0.000 
#    0.000    0.000    0.000    0.000    0.000    0.000 
#
# Total GULP energy -421597.802820 kJ/mol
# GULP energy per Si atom -12399.935377 kJ/mol
# Density = 2.227348 g / cm^3
# Si number density = 22.324287 Si / 1000 Ang^3
#
#
#
# Elastic Constant Matrix: (Units=GPa)
#
#
# Indices 1 2 3 4 5 6 
#
# 1 78.3526 48.7518 49.5825 0.0000 0.0000 0.0000
# 2 48.7518 78.3526 49.5825 0.0000 0.0000 0.0000
# 3 49.5825 49.5825 145.9541 0.0000 0.0000 0.0000
# 4 0.0000 0.0000 0.0000 44.1201 0.0000 0.0000
# 5 0.0000 0.0000 0.0000 0.0000 44.1201 0.0000
# 6 0.0000 0.0000 0.0000 0.0000 0.0000 27.1678
#
#
#
# Elastic Compliance Matrix: (Units=1/GPa)
#
#
# Indices 1 2 3 4 5 6 
#
# 1 0.022244 -0.011539 -0.003637 0.000000 0.000000 0.000000
# 2 -0.011539 0.022244 -0.003637 0.000000 0.000000 0.000000
# 3 -0.003637 -0.003637 0.009322 0.000000 0.000000 0.000000
# 4 0.000000 0.000000 0.000000 0.022665 0.000000 0.000000
# 5 0.000000 0.000000 0.000000 0.000000 0.022665 0.000000
# 6 0.000000 0.000000 0.000000 0.000000 0.000000 0.036808
#
#
# Mechanical properties :
#
#
# Convention : Reuss Voigt Hill
#
# Bulk Modulus (GPa) = 61.78360 66.49923 64.14141
# Shear Modulus (GPa) = 27.93791 33.39778 30.66785
#
# Velocity S-wave (km/s) = 3.54143 3.87205 3.71043
# Velocity P-wave (km/s) = 6.66768 7.05995 6.86661
#
# Compressibility (1/GPa) = 0.01618553
#
# Stress axis : x y z
#
# Youngs Moduli (GPa) = 44.95638 44.95638 107.27047
#
# Poissons Ratio (x) = 0.51875 0.39009
# Poissons Ratio (y) = 0.51875 0.39009
# Poissons Ratio (z) = 0.16349 0.16349
#
# Static dielectric constant tensor:
#      x y z
#    x 3.952290 0.000000 0.000000 
#    y 0.000000 3.952290 0.000000 
#    z 0.000000 0.000000 3.989770 
# 
# 
# High freq. dielectric constant tensor:
#      x y z
#    x 1.874810 0.000000 0.000000 
#    y 0.000000 1.874810 0.000000 
#    z 0.000000 0.000000 1.889020 
# 
# From -- ./inp_files/2538.got.cif
#   From: 2010.03.12/outbox.cif.g09.slc.cpg/sg89_2_cif.got.tgz:2538.got - 2010.04.08 20:24:03.
