data_PCOD8304255
_publ_section_title
;
Structure prediction by ZEFSAII (Michael W. Deem and Ramdas Pophale) SiO2 
 PCOD8304255
Probable space group: I 41/A
;
_chemical_formula_sum "Si O2"
_cell_formula_units_Z 116
_cell_length_a 17.547652
_cell_length_b 17.547652
_cell_length_c 18.197048
_cell_angle_alpha 90.000000
_cell_angle_beta 90.000000
_cell_angle_gamma 90.000000
_cell_volume 5603.236671
_symmetry_space_group_name_H-M "I 41/A"
_symmetry_group_IT_number 88
_space_group.IT_coordinate_system_code '2'
_symmetry_cell_setting 'tetragonal'
loop_
_space_group_symop_operation_xyz
x,y,z
3/4-y,1/4+x,1/4+z
-x,1/2-y,z
1/4+y,1/4-x,1/4+z
-x,-y,-z
1/4+y,3/4-x,3/4-z
x,1/2+y,-z
3/4-y,3/4+x,3/4-z
1/2+x,1/2+y,1/2+z
1/4-y,3/4+x,3/4+z
1/2-x,-y,1/2+z
3/4+y,3/4-x,3/4+z
1/2-x,1/2-y,1/2-z
3/4+y,1/4-x,1/4-z
1/2+x,y,1/2-z
1/4-y,1/4+x,1/4-z
loop_
_atom_site_type_symbol
_atom_site_label
_atom_site_fract_x
_atom_site_fract_y
_atom_site_fract_z
Si Si1 0.500000 0.750000 0.125000
Si Si2 0.496222 0.938528 0.935203
Si Si3 0.933047 0.475532 0.276902
Si Si4 0.697639 0.668163 0.552122
Si Si5 0.897732 0.315654 0.509352
Si Si6 0.936812 0.409708 0.977271
Si Si7 0.138445 0.838357 0.563733
Si Si8 0.405178 0.579050 0.529628
O O1 0.563395 0.799534 0.168525
O O2 0.472274 0.971976 0.856717
O O3 0.582141 0.908627 0.928742
O O4 0.436783 0.871137 0.950831
O O5 0.500000 0.000000 0.000000
O O6 0.902623 0.562251 0.271559
O O7 0.865041 0.415469 0.264741
O O8 0.991255 0.458467 0.209942
O O9 0.633553 0.644302 0.495021
O O10 0.780203 0.630808 0.532337
O O11 0.670513 0.642938 0.632975
O O12 0.898814 0.227423 0.485048
O O13 0.951003 0.408722 0.890789
O O14 0.915123 0.494567 0.003887
O O15 0.014522 0.378033 0.014246
#
# Coordination Sequence:
#
# PCOD8304255 Si02
#       8
#     4  16  16  16  16  16  16  16
#     4  12  20  40  68  92 124 172 218 280 336 384
#     4  12  24  43  64  94 125 168 225 271 324 395
#     4  11  24  41  63  97 130 168 217 276 323 400
#     4  10  21  38  63  91 128 158 211 265 319 391
#     4  11  24  41  65  94 126 169 214 272 329 385
#     4  10  20  40  61  88 123 169 204 253 321 392
#     4  10  21  41  63  88 121 167 209 258 325 383
#     4  10  22  37  63  90 126 168 207 257 325 392
#
# _framework density 20.702321999999999
#
# number of rings (size 3 to 8) (size 9 to 14) (size 15 to 20)
#    0.000    1.379    2.759    2.483    0.000    4.966 
#    0.000    4.138    0.000    0.000    0.000    0.000 
#    0.000    0.000    0.000    0.000    0.000    0.000 
#
# Total GULP energy -719110.117923 kJ/mol
# GULP energy per Si atom -12398.450309 kJ/mol
# Density = 2.065520 g / cm^3
# Si number density = 20.702322 Si / 1000 Ang^3
#
#
#
# Elastic Constant Matrix: (Units=GPa)
#
#
# Indices 1 2 3 4 5 6 
#
# 1 94.8740 36.3444 17.6019 0.0000 0.0000 -0.4623
# 2 36.3444 94.8740 17.6019 0.0000 0.0000 0.4623
# 3 17.6019 17.6019 67.9660 0.0000 0.0000 0.0000
# 4 0.0000 0.0000 0.0000 31.5811 0.0000 0.0000
# 5 0.0000 0.0000 0.0000 0.0000 31.5811 0.0000
# 6 -0.4623 0.4623 0.0000 0.0000 0.0000 26.5766
#
#
#
# Elastic Compliance Matrix: (Units=1/GPa)
#
#
# Indices 1 2 3 4 5 6 
#
# 1 0.012640 -0.004450 -0.002121 0.000000 0.000000 0.000297
# 2 -0.004450 0.012640 -0.002121 0.000000 0.000000 -0.000297
# 3 -0.002121 -0.002121 0.015812 0.000000 0.000000 0.000000
# 4 0.000000 0.000000 0.000000 0.031665 0.000000 0.000000
# 5 0.000000 0.000000 0.000000 0.000000 0.031665 0.000000
# 6 0.000297 -0.000297 0.000000 0.000000 0.000000 0.037637
#
#
# Mechanical properties :
#
#
# Convention : Reuss Voigt Hill
#
# Bulk Modulus (GPa) = 42.18064 44.53450 43.35757
# Shear Modulus (GPa) = 29.87836 30.35880 30.11858
#
# Velocity S-wave (km/s) = 3.80312 3.83357 3.81838
# Velocity P-wave (km/s) = 6.30111 6.41511 6.35836
#
# Compressibility (1/GPa) = 0.02370756
#
# Stress axis : x y z
#
# Youngs Moduli (GPa) = 79.11394 79.11394 63.24367
#
# Poissons Ratio (x) = 0.35206 0.13414
# Poissons Ratio (y) = 0.35206 0.13414
# Poissons Ratio (z) = 0.16780 0.16780
#
# Static dielectric constant tensor:
#      x y z
#    x 3.738900 0.000000 0.000000 
#    y 0.000000 3.738900 0.000000 
#    z 0.000000 0.000000 3.682940 
# 
# 
# High freq. dielectric constant tensor:
#      x y z
#    x 1.808160 0.000000 0.000000 
#    y 0.000000 1.808160 0.000000 
#    z 0.000000 0.000000 1.814900 
# 
# From -- ./inp_files/4016.got.cif
#   From: 2010.03.12/outbox.cif.g09.slc.cpg/sg88_3_cif.got.tgz:4016.got - 2010.04.08 20:20:55.
