data_PCOD8304491
_publ_section_title
;
Structure prediction by ZEFSAII (Michael W. Deem and Ramdas Pophale) SiO2 
 PCOD8304491
Probable space group: P 4 2 2
;
_chemical_formula_sum "Si O2"
_cell_formula_units_Z 48
_cell_length_a 8.533079
_cell_length_b 8.533079
_cell_length_c 32.703749
_cell_angle_alpha 90.000000
_cell_angle_beta 90.000000
_cell_angle_gamma 90.000000
_cell_volume 2381.272375
_symmetry_space_group_name_H-M "P 4 2 2"
_symmetry_group_IT_number 89
_symmetry_cell_setting 'tetragonal'
loop_
_space_group_symop_operation_xyz
x,y,z
-y,x,z
-x,-y,z
y,-x,z
x,-y,-z
-x,y,-z
y,x,-z
-y,-x,-z
loop_
_atom_site_type_symbol
_atom_site_label
_atom_site_fract_x
_atom_site_fract_y
_atom_site_fract_z
Si Si1 0.079880 0.245821 0.691278
Si Si2 0.755286 0.451449 0.819673
Si Si3 0.803538 0.835835 0.453453
Si Si4 0.000000 0.500000 0.887982
Si Si5 0.276450 0.624153 0.379156
Si Si6 0.500000 0.000000 0.246705
Si Si7 0.255729 0.981305 0.955839
O O1 0.129061 0.317926 0.647673
O O2 0.900368 0.195354 0.695530
O O3 0.098980 0.375659 0.726392
O O4 0.681834 0.624506 0.818052
O O5 0.869426 0.417581 0.781458
O O6 0.854984 0.438945 0.861043
O O7 0.780136 0.780136 0.500000
O O8 0.669598 0.754310 0.426330
O O9 0.980469 0.784379 0.443649
O O10 0.945120 0.636035 0.917657
O O11 0.290524 0.440521 0.369360
O O12 0.164741 0.142449 0.952592
O O13 0.342959 0.000000 0.000000
#
# Coordination Sequence:
#
# PCOD8304491 Si02
#       7
#     8   8   8   4   8   4   8
#     4  11  23  39  61  87 113 142 181 230 281 337
#     4  10  22  38  56  81 113 147 184 232 289 351
#     4   9  19  37  60  85 114 151 196 243 289 336
#     4  11  19  32  55  80 108 146 192 237 288 349
#     4  11  24  39  56  83 119 155 191 233 283 340
#     4  11  22  40  63  84 109 145 188 231 284 350
#     4   9  18  32  50  75 108 146 190 240 293 349
#
# _framework density 20.15729
#
# number of rings (size 3 to 8) (size 9 to 14) (size 15 to 20)
#    0.000    1.833    0.000    5.250    0.000    4.000 
#    0.000    4.167    0.000    8.000    0.000    7.000 
#    0.000    0.000    0.000    0.000    0.000    0.000 
#
# Total GULP energy -594810.799758 kJ/mol
# GULP energy per Si atom -12391.891662 kJ/mol
# Density = 2.011141 g / cm^3
# Si number density = 20.157290 Si / 1000 Ang^3
#
#
#
# Elastic Constant Matrix: (Units=GPa)
#
#
# Indices 1 2 3 4 5 6 
#
# 1 75.7109 18.9875 41.8305 0.0000 0.0000 0.0000
# 2 18.9875 75.7109 41.8305 0.0000 0.0000 0.0000
# 3 41.8305 41.8305 136.9000 0.0000 0.0000 0.0000
# 4 0.0000 0.0000 0.0000 32.7477 0.0000 0.0000
# 5 0.0000 0.0000 0.0000 0.0000 32.7477 0.0000
# 6 0.0000 0.0000 0.0000 0.0000 0.0000 25.9526
#
#
#
# Elastic Compliance Matrix: (Units=1/GPa)
#
#
# Indices 1 2 3 4 5 6 
#
# 1 0.016047 -0.001583 -0.004420 0.000000 0.000000 0.000000
# 2 -0.001583 0.016047 -0.004420 0.000000 0.000000 0.000000
# 3 -0.004420 -0.004420 0.010006 0.000000 0.000000 0.000000
# 4 0.000000 0.000000 0.000000 0.030537 0.000000 0.000000
# 5 0.000000 0.000000 0.000000 0.000000 0.030537 0.000000
# 6 0.000000 0.000000 0.000000 0.000000 0.000000 0.038532
#
#
# Mechanical properties :
#
#
# Convention : Reuss Voigt Hill
#
# Bulk Modulus (GPa) = 47.04638 54.84651 50.94645
# Shear Modulus (GPa) = 29.47538 30.66780 30.07159
#
# Velocity S-wave (km/s) = 3.82811 3.90478 3.86663
# Velocity P-wave (km/s) = 6.55206 6.89913 6.72784
#
# Compressibility (1/GPa) = 0.02125562
#
# Stress axis : x y z
#
# Youngs Moduli (GPa) = 62.31733 62.31733 99.94499
#
# Poissons Ratio (x) = 0.09862 0.44172
# Poissons Ratio (y) = 0.09862 0.44172
# Poissons Ratio (z) = 0.27542 0.27542
#
# Static dielectric constant tensor:
#      x y z
#    x 3.633190 0.000000 0.000000 
#    y 0.000000 3.633190 0.000000 
#    z 0.000000 0.000000 3.743080 
# 
# 
# High freq. dielectric constant tensor:
#      x y z
#    x 1.785200 0.000000 0.000000 
#    y 0.000000 1.785200 0.000000 
#    z 0.000000 0.000000 1.796530 
# 
# From -- ./inp_files/3021.got.cif
#   From: 2010.03.12/outbox.cif.g09.slc.cpg/sg89_2_cif.got.tgz:3021.got - 2010.04.08 20:24:03.
