data_PCOD8304168
_publ_section_title
;
Structure prediction by ZEFSAII (Michael W. Deem and Ramdas Pophale) SiO2 
 PCOD8304168
Probable space group: I 4/M
;
_chemical_formula_sum "Si O2"
_cell_formula_units_Z 96
_cell_length_a 23.636728
_cell_length_b 23.636728
_cell_length_c 9.125234
_cell_angle_alpha 90.000000
_cell_angle_beta 90.000000
_cell_angle_gamma 90.000000
_cell_volume 5098.221793
_symmetry_space_group_name_H-M "I 4/M"
_symmetry_group_IT_number 87
_symmetry_cell_setting 'tetragonal'
loop_
_space_group_symop_operation_xyz
x,y,z
-y,x,z
-x,-y,z
y,-x,z
-x,-y,-z
y,-x,-z
x,y,-z
-y,x,-z
1/2+x,1/2+y,1/2+z
1/2-y,1/2+x,1/2+z
1/2-x,1/2-y,1/2+z
1/2+y,1/2-x,1/2+z
1/2-x,1/2-y,1/2-z
1/2+y,1/2-x,1/2-z
1/2+x,1/2+y,1/2-z
1/2-y,1/2+x,1/2-z
loop_
_atom_site_type_symbol
_atom_site_label
_atom_site_fract_x
_atom_site_fract_y
_atom_site_fract_z
Si Si1 0.448215 0.576441 0.338691
Si Si2 0.365654 0.359440 0.171054
Si Si3 0.648377 0.052022 0.168419
Si Si4 0.455228 0.280703 0.332030
Si Si5 0.143185 0.425827 0.326807
Si Si6 0.415203 0.729950 0.327296
O O1 0.422402 0.514573 0.323866
O O2 0.431055 0.600936 0.500000
O O3 0.422110 0.611094 0.205454
O O4 0.409155 0.313797 0.235497
O O5 0.303926 0.363717 0.247808
O O6 0.358385 0.348306 0.000000
O O7 0.715036 0.057005 0.193861
O O8 0.617650 0.098597 0.263920
O O9 0.627535 0.989945 0.219472
O O10 0.632754 0.062529 0.000000
O O11 0.444657 0.297789 0.500000
O O12 0.521077 0.294218 0.291640
O O13 0.142907 0.421210 0.500000
O O14 0.205868 0.410730 0.268834
O O15 0.404905 0.727732 0.500000
#
# Coordination Sequence:
#
# PCOD8304168 Si02
#       6
#    16  16  16  16  16  16
#     4   9  18  32  48  65  89 127 172 213 258 315
#     4  12  23  31  46  75 104 131 171 221 270 314
#     4   9  19  36  58  84 111 139 172 210 254 306
#     4   9  19  37  57  74  99 140 184 219 255 307
#     4   9  19  36  58  84 111 139 172 210 254 306
#     4   9  19  37  57  74  99 140 184 219 255 307
#
# _framework density 18.830095
#
# number of rings (size 3 to 8) (size 9 to 14) (size 15 to 20)
#    0.000    2.500    0.000    5.000    0.000    7.667 
#    0.000    6.667    0.000    0.000    0.000    0.000 
#    0.000    0.000    0.000    0.000    0.000    0.000 
#
# Total GULP energy -594807.869451 kJ/mol
# GULP energy per Si atom -12391.830614 kJ/mol
# Density = 1.878724 g / cm^3
# Si number density = 18.830095 Si / 1000 Ang^3
#
#
#
# Elastic Constant Matrix: (Units=GPa)
#
#
# Indices 1 2 3 4 5 6 
#
# 1 55.7932 26.6579 26.3591 0.0000 0.0000 -1.1158
# 2 26.6579 55.7932 26.3591 0.0000 0.0000 1.1158
# 3 26.3591 26.3591 62.7798 0.0000 0.0000 0.0000
# 4 0.0000 0.0000 0.0000 27.9934 0.0000 0.0000
# 5 0.0000 0.0000 0.0000 0.0000 27.9934 0.0000
# 6 -1.1158 1.1158 0.0000 0.0000 0.0000 33.0834
#
#
#
# Elastic Compliance Matrix: (Units=1/GPa)
#
#
# Indices 1 2 3 4 5 6 
#
# 1 0.025495 -0.008916 -0.006961 0.000000 0.000000 0.001161
# 2 -0.008916 0.025495 -0.006961 0.000000 0.000000 -0.001161
# 3 -0.006961 -0.006961 0.021774 0.000000 0.000000 0.000000
# 4 0.000000 0.000000 0.000000 0.035723 0.000000 0.000000
# 5 0.000000 0.000000 0.000000 0.000000 0.035723 0.000000
# 6 0.001161 -0.001161 0.000000 0.000000 0.000000 0.030305
#
#
# Mechanical properties :
#
#
# Convention : Reuss Voigt Hill
#
# Bulk Modulus (GPa) = 36.91623 37.01313 36.96468
# Shear Modulus (GPa) = 21.81301 24.14672 22.97987
#
# Velocity S-wave (km/s) = 3.40724 3.58487 3.49718
# Velocity P-wave (km/s) = 5.92676 6.06911 5.99836
#
# Compressibility (1/GPa) = 0.02708836
#
# Stress axis : x y z
#
# Youngs Moduli (GPa) = 39.22281 39.22281 45.92611
#
# Poissons Ratio (x) = 0.34972 0.31969
# Poissons Ratio (y) = 0.34972 0.31969
# Poissons Ratio (z) = 0.27303 0.27303
#
# Static dielectric constant tensor:
#      x y z
#    x 3.533990 0.000000 0.000000 
#    y 0.000000 3.533990 0.000000 
#    z 0.000000 0.000000 3.223640 
# 
# 
# High freq. dielectric constant tensor:
#      x y z
#    x 1.731480 0.000000 0.000000 
#    y 0.000000 1.731480 0.000000 
#    z 0.000000 0.000000 1.710290 
# 
# From -- ./inp_files/1332.got.cif
#   From: 2010.03.12/outbox.cif.g09.slc.cpg/sg87_1_cif.got.tgz:1332.got - 2010.04.08 20:16:13.
