data_PCOD8304355
_publ_section_title
;
Structure prediction by ZEFSAII (Michael W. Deem and Ramdas Pophale) SiO2 
 PCOD8304355
Probable space group: I 41/A
;
_chemical_formula_sum "Si O2"
_cell_formula_units_Z 96
_cell_length_a 17.189738
_cell_length_b 17.189738
_cell_length_c 17.326741
_cell_angle_alpha 90.000000
_cell_angle_beta 90.000000
_cell_angle_gamma 90.000000
_cell_volume 5119.828321
_symmetry_space_group_name_H-M "I 41/A"
_symmetry_group_IT_number 88
_space_group.IT_coordinate_system_code '2'
_symmetry_cell_setting 'tetragonal'
loop_
_space_group_symop_operation_xyz
x,y,z
3/4-y,1/4+x,1/4+z
-x,1/2-y,z
1/4+y,1/4-x,1/4+z
-x,-y,-z
1/4+y,3/4-x,3/4-z
x,1/2+y,-z
3/4-y,3/4+x,3/4-z
1/2+x,1/2+y,1/2+z
1/4-y,3/4+x,3/4+z
1/2-x,-y,1/2+z
3/4+y,3/4-x,3/4+z
1/2-x,1/2-y,1/2-z
3/4+y,1/4-x,1/4-z
1/2+x,y,1/2-z
1/4-y,1/4+x,1/4-z
loop_
_atom_site_type_symbol
_atom_site_label
_atom_site_fract_x
_atom_site_fract_y
_atom_site_fract_z
Si Si1 0.646650 0.594232 0.372370
Si Si2 0.510169 0.488156 0.090242
Si Si3 0.262843 0.507281 0.747802
Si Si4 0.108522 0.274587 0.588744
Si Si5 0.347740 0.929892 0.879135
Si Si6 0.990401 0.658718 0.161212
O O1 0.665643 0.684197 0.354546
O O2 0.674485 0.541078 0.301284
O O3 0.682338 0.561467 0.450914
O O4 0.553381 0.600822 0.378485
O O5 0.555374 0.557704 0.134620
O O6 0.426568 0.479088 0.130333
O O7 0.500000 0.500000 0.000000
O O8 0.209323 0.448075 0.795573
O O9 0.205763 0.558418 0.695322
O O10 0.092606 0.203344 0.647771
O O11 0.102129 0.245637 0.502457
O O12 0.373630 0.841031 0.884661
O O13 0.000000 0.750000 0.138394
#
# Coordination Sequence:
#
# PCOD8304355 Si02
#       6
#    16  16  16  16  16  16
#     4  11  23  40  60  87 122 154 207 240 313 354
#     4  12  21  32  59  89 125 162 189 246 296 377
#     4  10  24  40  60  88 118 162 196 256 292 372
#     4  11  22  32  51  88 132 164 191 226 302 376
#     4  11  23  40  60  87 122 154 207 240 313 354
#     4  12  22  39  57  86 117 162 199 247 294 369
#
# _framework density 18.750629
#
# number of rings (size 3 to 8) (size 9 to 14) (size 15 to 20)
#    0.000    0.833    5.000    4.000    4.667    0.667 
#    0.000    0.000    0.000    0.000    0.000    0.000 
#    0.000    0.000    0.000    0.000    0.000    0.000 
#
# Total GULP energy -595153.442946 kJ/mol
# GULP energy per Si atom -12399.030061 kJ/mol
# Density = 1.870795 g / cm^3
# Si number density = 18.750629 Si / 1000 Ang^3
#
#
#
# Elastic Constant Matrix: (Units=GPa)
#
#
# Indices 1 2 3 4 5 6 
#
# 1 98.2392 20.2363 31.4759 0.0000 0.0000 -1.2680
# 2 20.2363 98.2392 31.4759 0.0000 0.0000 1.2680
# 3 31.4759 31.4759 86.7642 0.0000 0.0000 0.0000
# 4 0.0000 0.0000 0.0000 26.3497 0.0000 0.0000
# 5 0.0000 0.0000 0.0000 0.0000 26.3497 0.0000
# 6 -1.2680 1.2680 0.0000 0.0000 0.0000 34.7679
#
#
#
# Elastic Compliance Matrix: (Units=1/GPa)
#
#
# Indices 1 2 3 4 5 6 
#
# 1 0.011646 -0.001190 -0.003793 0.000000 0.000000 0.000468
# 2 -0.001190 0.011646 -0.003793 0.000000 0.000000 -0.000468
# 3 -0.003793 -0.003793 0.014278 0.000000 0.000000 0.000000
# 4 0.000000 0.000000 0.000000 0.037951 0.000000 0.000000
# 5 0.000000 0.000000 0.000000 0.000000 0.037951 0.000000
# 6 0.000468 -0.000468 0.000000 0.000000 0.000000 0.028796
#
#
# Mechanical properties :
#
#
# Convention : Reuss Voigt Hill
#
# Bulk Modulus (GPa) = 49.95756 49.95764 49.95760
# Shear Modulus (GPa) = 30.03152 30.83045 30.43099
#
# Velocity S-wave (km/s) = 4.00638 4.05932 4.03293
# Velocity P-wave (km/s) = 6.93559 6.97651 6.95608
#
# Compressibility (1/GPa) = 0.02001699
#
# Stress axis : x y z
#
# Youngs Moduli (GPa) = 85.86890 85.86890 70.03953
#
# Poissons Ratio (x) = 0.10215 0.26567
# Poissons Ratio (y) = 0.10215 0.26567
# Poissons Ratio (z) = 0.32572 0.32572
#
# Static dielectric constant tensor:
#      x y z
#    x 3.594240 0.000000 0.000000 
#    y 0.000000 3.594240 0.000000 
#    z 0.000000 0.000000 3.269980 
# 
# 
# High freq. dielectric constant tensor:
#      x y z
#    x 1.736350 0.000000 0.000000 
#    y 0.000000 1.736350 0.000000 
#    z 0.000000 0.000000 1.711830 
# 
# From -- ./inp_files/3919.got.cif
#   From: 2010.03.12/outbox.cif.g09.slc.cpg/sg88_2_cif.got.tgz:3919.got - 2010.04.08 20:20:55.
