data_PCOD8304397
_publ_section_title
;
Structure prediction by ZEFSAII (Michael W. Deem and Ramdas Pophale) SiO2 
 PCOD8304397
Probable space group: I 41/A
;
_chemical_formula_sum "Si O2"
_cell_formula_units_Z 52
_cell_length_a 14.037821
_cell_length_b 14.037821
_cell_length_c 11.477022
_cell_angle_alpha 90.000000
_cell_angle_beta 90.000000
_cell_angle_gamma 90.000000
_cell_volume 2261.666758
_symmetry_space_group_name_H-M "I 41/A"
_symmetry_group_IT_number 88
_space_group.IT_coordinate_system_code '2'
_symmetry_cell_setting 'tetragonal'
loop_
_space_group_symop_operation_xyz
x,y,z
3/4-y,1/4+x,1/4+z
-x,1/2-y,z
1/4+y,1/4-x,1/4+z
-x,-y,-z
1/4+y,3/4-x,3/4-z
x,1/2+y,-z
3/4-y,3/4+x,3/4-z
1/2+x,1/2+y,1/2+z
1/4-y,3/4+x,3/4+z
1/2-x,-y,1/2+z
3/4+y,3/4-x,3/4+z
1/2-x,1/2-y,1/2-z
3/4+y,1/4-x,1/4-z
1/2+x,y,1/2-z
1/4-y,1/4+x,1/4-z
loop_
_atom_site_type_symbol
_atom_site_label
_atom_site_fract_x
_atom_site_fract_y
_atom_site_fract_z
Si Si1 0.296956 0.730331 0.872955
Si Si2 0.904043 0.901638 0.517586
Si Si3 0.694929 0.175109 0.593212
Si Si4 0.500000 0.750000 0.125000
O O1 0.250000 0.750000 0.750000
O O2 0.324236 0.831466 0.931291
O O3 0.387882 0.662934 0.851888
O O4 0.226355 0.672344 0.958164
O O5 0.986151 0.844068 0.450131
O O6 0.963138 0.951466 0.621312
O O7 0.864165 0.982036 0.426988
#
# Coordination Sequence:
#
# PCOD8304397 Si02
#       4
#    16  16  16   4
#     4  12  28  45  68 108 151 189 236 311 374 437
#     4  11  22  44  75 101 132 186 252 295 352 436
#     4  11  25  45  73 102 138 196 245 299 364 439
#     4  12  16  44  72 102 132 172 252 296 346 420
#
# _framework density 22.991893000000001
#
# number of rings (size 3 to 8) (size 9 to 14) (size 15 to 20)
#    0.000    0.615    6.154    0.000    8.615    2.462 
#    0.000    0.000    0.000    0.000    0.000    0.000 
#    0.000    0.000    0.000    0.000    0.000    0.000 
#
# Total GULP energy -322309.333663 kJ/mol
# GULP energy per Si atom -12396.512833 kJ/mol
# Density = 2.293956 g / cm^3
# Si number density = 22.991893 Si / 1000 Ang^3
#
#
#
# Elastic Constant Matrix: (Units=GPa)
#
#
# Indices 1 2 3 4 5 6 
#
# 1 81.8199 26.0254 45.2265 0.0000 0.0000 -6.3140
# 2 26.0254 81.8199 45.2265 0.0000 0.0000 6.3140
# 3 45.2265 45.2265 163.1234 0.0000 0.0000 0.0000
# 4 0.0000 0.0000 0.0000 25.1860 0.0000 0.0000
# 5 0.0000 0.0000 0.0000 0.0000 25.1860 0.0000
# 6 -6.3140 6.3140 0.0000 0.0000 0.0000 27.0475
#
#
#
# Elastic Compliance Matrix: (Units=1/GPa)
#
#
# Indices 1 2 3 4 5 6 
#
# 1 0.015502 -0.003420 -0.003350 0.000000 0.000000 0.004417
# 2 -0.003420 0.015502 -0.003350 0.000000 0.000000 -0.004417
# 3 -0.003350 -0.003350 0.007988 0.000000 0.000000 0.000000
# 4 0.000000 0.000000 0.000000 0.039705 0.000000 0.000000
# 5 0.000000 0.000000 0.000000 0.000000 0.039705 0.000000
# 6 0.004417 -0.004417 0.000000 0.000000 0.000000 0.039034
#
#
# Mechanical properties :
#
#
# Convention : Reuss Voigt Hill
#
# Bulk Modulus (GPa) = 53.32525 62.19109 57.75817
# Shear Modulus (GPa) = 27.18470 29.50289 28.34380
#
# Velocity S-wave (km/s) = 3.44228 3.58605 3.51490
# Velocity P-wave (km/s) = 6.24840 6.65238 6.45355
#
# Compressibility (1/GPa) = 0.01875284
#
# Stress axis : x y z
#
# Youngs Moduli (GPa) = 64.50604 64.50604 125.19069
#
# Poissons Ratio (x) = 0.22063 0.41936
# Poissons Ratio (y) = 0.22063 0.41936
# Poissons Ratio (z) = 0.21608 0.21608
#
# Static dielectric constant tensor:
#      x y z
#    x 4.034380 0.000000 0.000000 
#    y 0.000000 4.034380 0.000000 
#    z 0.000000 0.000000 4.318340 
# 
# 
# High freq. dielectric constant tensor:
#      x y z
#    x 1.895600 0.000000 0.000000 
#    y 0.000000 1.895600 0.000000 
#    z 0.000000 0.000000 1.919440 
# 
# From -- ./inp_files/2187.got.cif
#   From: 2010.03.12/outbox.cif.g09.slc.cpg/sg88_2_cif.got.tgz:2187.got - 2010.04.08 20:20:55.
