data_PCOD8304734
_publ_section_title
;
Structure prediction by ZEFSAII (Michael W. Deem and Ramdas Pophale) SiO2 
 PCOD8304734
Probable space group: P 41 2 2
;
_chemical_formula_sum "Si O2"
_cell_formula_units_Z 48
_cell_length_a 12.151992
_cell_length_b 12.151992
_cell_length_c 15.923842
_cell_angle_alpha 90.000000
_cell_angle_beta 90.000000
_cell_angle_gamma 90.000000
_cell_volume 2351.488232
_symmetry_space_group_name_H-M "P 41 2 2"
_symmetry_group_IT_number 91
_symmetry_cell_setting 'tetragonal'
loop_
_space_group_symop_operation_xyz
x,y,z
-y,x,1/4+z
-x,-y,1/2+z
y,-x,3/4+z
x,-y,1/2-z
-x,y,-z
y,x,3/4-z
-y,-x,1/4-z
loop_
_atom_site_type_symbol
_atom_site_label
_atom_site_fract_x
_atom_site_fract_y
_atom_site_fract_z
Si Si1 0.844939 0.631134 0.636406
Si Si2 0.046729 0.882888 0.213037
Si Si3 0.899326 0.659191 0.378511
Si Si4 0.809458 0.797156 0.242954
Si Si5 0.127249 0.462742 0.501634
Si Si6 0.745287 0.751343 0.975316
O O1 0.782347 0.726750 0.583867
O O2 0.834606 0.516164 0.586897
O O3 0.779340 0.629212 0.726543
O O4 0.974301 0.653960 0.648699
O O5 0.103978 0.896023 0.125000
O O6 0.141659 0.813430 0.259378
O O7 0.930519 0.822955 0.208539
O O8 0.022205 0.000000 0.250000
O O9 0.823143 0.684263 0.297332
O O10 0.891497 0.760096 0.445282
O O11 0.855321 0.547794 0.421801
O O12 0.200550 0.355989 0.516345
O O13 0.000000 0.426717 0.500000
O O14 0.735188 0.735188 0.875000
#
# Coordination Sequence:
#
# PCOD8304734 Si02
#       6
#     8   8   8   8   8   8
#     4  10  19  37  57  81 117 158 198 240 298 353
#     4  11  21  28  44  76 123 155 179 226 287 359
#     4   9  18  34  56  83 114 156 202 239 285 356
#     4  10  18  30  54  84 114 152 199 236 289 354
#     4   9  20  39  60  83 117 158 199 249 297 357
#     4  11  23  37  54  82 114 158 202 242 298 359
#
# _framework density 20.412603000000001
#
# number of rings (size 3 to 8) (size 9 to 14) (size 15 to 20)
#    0.000    2.000    1.667    4.000    2.333    2.000 
#    0.000    0.833    0.000    0.000   26.000    0.000 
#    0.000    0.000    0.000    0.000    0.000    0.000 
#
# Total GULP energy -594627.838715 kJ/mol
# GULP energy per Si atom -12388.079973 kJ/mol
# Density = 2.036614 g / cm^3
# Si number density = 20.412603 Si / 1000 Ang^3
#
#
#
# Elastic Constant Matrix: (Units=GPa)
#
#
# Indices 1 2 3 4 5 6 
#
# 1 74.5829 26.0672 17.4662 0.0000 0.0000 0.0000
# 2 26.0672 74.5820 17.4653 0.0000 0.0000 0.0000
# 3 17.4662 17.4653 78.6478 0.0000 0.0000 0.0000
# 4 0.0000 0.0000 0.0000 19.2402 0.0000 0.0000
# 5 0.0000 0.0000 0.0000 0.0000 19.2401 0.0000
# 6 0.0000 0.0000 0.0000 0.0000 0.0000 22.4466
#
#
#
# Elastic Compliance Matrix: (Units=1/GPa)
#
#
# Indices 1 2 3 4 5 6 
#
# 1 0.015689 -0.004923 -0.002391 0.000000 0.000000 0.000000
# 2 -0.004923 0.015689 -0.002391 0.000000 0.000000 0.000000
# 3 -0.002391 -0.002391 0.013777 0.000000 0.000000 0.000000
# 4 0.000000 0.000000 0.000000 0.051975 0.000000 0.000000
# 5 0.000000 0.000000 0.000000 0.000000 0.051975 0.000000
# 6 0.000000 0.000000 0.000000 0.000000 0.000000 0.044550
#
#
# Mechanical properties :
#
#
# Convention : Reuss Voigt Hill
#
# Bulk Modulus (GPa) = 38.84348 38.86779 38.85563
# Shear Modulus (GPa) = 22.55862 23.30630 22.93246
#
# Velocity S-wave (km/s) = 3.32796 3.38266 3.35542
# Velocity P-wave (km/s) = 5.81701 5.85994 5.83851
#
# Compressibility (1/GPa) = 0.02574435
#
# Stress axis : x y z
#
# Youngs Moduli (GPa) = 63.74073 63.74025 72.58610
#
# Poissons Ratio (x) = 0.31382 0.17354
# Poissons Ratio (y) = 0.31382 0.17352
# Poissons Ratio (z) = 0.15239 0.15238
#
# Static dielectric constant tensor:
#      x y z
#    x 3.458410 0.000000 0.000000 
#    y 0.000000 3.458410 0.000000 
#    z 0.000000 0.000000 3.800620 
# 
# 
# High freq. dielectric constant tensor:
#      x y z
#    x 1.774510 0.000000 0.000000 
#    y 0.000000 1.774510 0.000000 
#    z 0.000000 0.000000 1.808840 
# 
# From -- ./inp_files/11947.got.cif
#   From: 2010.03.12/outbox.cif.g09.slc.cpg/sg91_6_cif.got.tgz:11947.got - 2010.04.08 20:27:58.
