data_PCOD8304703
_publ_section_title
;
Structure prediction by ZEFSAII (Michael W. Deem and Ramdas Pophale) SiO2 
 PCOD8304703
Probable space group: P 41 2 2
;
_chemical_formula_sum "Si O2"
_cell_formula_units_Z 64
_cell_length_a 11.410526
_cell_length_b 11.410526
_cell_length_c 28.666636
_cell_angle_alpha 90.000000
_cell_angle_beta 90.000000
_cell_angle_gamma 90.000000
_cell_volume 3732.398977
_symmetry_space_group_name_H-M "P 41 2 2"
_symmetry_group_IT_number 91
_symmetry_cell_setting 'tetragonal'
loop_
_space_group_symop_operation_xyz
x,y,z
-y,x,1/4+z
-x,-y,1/2+z
y,-x,3/4+z
x,-y,1/2-z
-x,y,-z
y,x,3/4-z
-y,-x,1/4-z
loop_
_atom_site_type_symbol
_atom_site_label
_atom_site_fract_x
_atom_site_fract_y
_atom_site_fract_z
Si Si1 0.416085 0.764211 0.103318
Si Si2 0.714014 0.681487 0.979834
Si Si3 0.657656 0.200989 0.827189
Si Si4 0.626522 0.062017 0.678508
Si Si5 0.245429 0.615623 0.584015
Si Si6 0.419176 0.635662 0.760156
Si Si7 0.338349 0.757511 0.847558
Si Si8 0.992116 0.635501 0.552510
O O1 0.341635 0.658366 0.125000
O O2 0.385966 0.758315 0.047453
O O3 0.380226 0.890471 0.125004
O O4 0.551081 0.743805 0.117037
O O5 0.842761 0.701267 0.957428
O O6 0.722217 0.711474 0.034511
O O7 0.688064 0.544120 0.975892
O O8 0.524610 0.239186 0.839255
O O9 0.729874 0.224195 0.873182
O O10 0.683494 0.064914 0.817848
O O11 0.499471 0.047059 0.701537
O O12 0.318529 0.681472 0.625000
O O13 0.305999 0.641977 0.534613
O O14 0.111314 0.660532 0.581301
O O15 0.430926 0.500000 0.750000
O O16 0.341484 0.664857 0.805161
O O17 0.305484 0.886941 0.830315
O O18 0.000000 0.685481 0.500000
#
# Coordination Sequence:
#
# PCOD8304703 Si02
#       8
#     8   8   8   8   8   8   8   8
#     4   9  17  28  50  72 103 133 165 205 256 312
#     4  10  18  31  49  75 103 143 168 202 256 323
#     4  10  21  29  51  75 106 130 172 220 258 305
#     4   9  16  32  50  73  98 135 182 210 247 311
#     4  10  20  33  51  78 102 140 170 214 258 314
#     4  11  20  29  48  76 115 138 160 204 261 322
#     4  11  20  32  48  79 106 136 174 218 257 312
#     4  10  16  33  56  70  96 140 188 211 246 313
#
# _framework density 17.147148999999999
#
# number of rings (size 3 to 8) (size 9 to 14) (size 15 to 20)
#    0.000    2.000    5.000    2.625    3.500    0.500 
#    0.000    0.000    2.750    2.250    0.000    0.000 
#    0.000    0.000    0.000    0.000    0.000    0.000 
#
# Total GULP energy -792866.318251 kJ/mol
# GULP energy per Si atom -12388.536223 kJ/mol
# Density = 1.710812 g / cm^3
# Si number density = 17.147149 Si / 1000 Ang^3
#
#
#
# Elastic Constant Matrix: (Units=GPa)
#
#
# Indices 1 2 3 4 5 6 
#
# 1 56.3260 23.5103 42.4443 0.0000 0.0000 0.0000
# 2 23.5103 56.3265 42.4442 0.0000 0.0000 0.0000
# 3 42.4443 42.4442 129.1341 0.0000 0.0000 0.0000
# 4 0.0000 0.0000 0.0000 22.2552 0.0000 0.0000
# 5 0.0000 0.0000 0.0000 0.0000 22.2551 0.0000
# 6 0.0000 0.0000 0.0000 0.0000 0.0000 11.9651
#
#
#
# Elastic Compliance Matrix: (Units=1/GPa)
#
#
# Indices 1 2 3 4 5 6 
#
# 1 0.024864 -0.005609 -0.006329 0.000000 0.000000 0.000000
# 2 -0.005609 0.024864 -0.006329 0.000000 0.000000 0.000000
# 3 -0.006329 -0.006329 0.011904 0.000000 0.000000 0.000000
# 4 0.000000 0.000000 0.000000 0.044933 0.000000 0.000000
# 5 0.000000 0.000000 0.000000 0.000000 0.044934 0.000000
# 6 0.000000 0.000000 0.000000 0.000000 0.000000 0.083576
#
#
# Mechanical properties :
#
#
# Convention : Reuss Voigt Hill
#
# Bulk Modulus (GPa) = 39.84248 50.95380 45.39814
# Shear Modulus (GPa) = 17.85878 20.18761 19.02319
#
# Velocity S-wave (km/s) = 3.23073 3.43493 3.33439
# Velocity P-wave (km/s) = 6.09942 6.74624 6.43097
#
# Compressibility (1/GPa) = 0.02509884
#
# Stress axis : x y z
#
# Youngs Moduli (GPa) = 40.21865 40.21923 84.00406
#
# Poissons Ratio (x) = 0.22559 0.53165
# Poissons Ratio (y) = 0.22559 0.53163
# Poissons Ratio (z) = 0.25454 0.25453
#
# Static dielectric constant tensor:
#      x y z
#    x 3.151420 0.000000 0.000000 
#    y 0.000000 3.151420 0.000000 
#    z 0.000000 0.000000 3.492190 
# 
# 
# High freq. dielectric constant tensor:
#      x y z
#    x 1.632620 0.000000 0.000000 
#    y 0.000000 1.632620 0.000000 
#    z 0.000000 0.000000 1.673590 
# 
# From -- ./inp_files/13283.got.cif
#   From: 2010.03.12/outbox.cif.g09.slc.cpg/sg91_7_cif.got.tgz:13283.got - 2010.04.08 20:27:58.
