data_PCOD8304762
_publ_section_title
;
Structure prediction by ZEFSAII (Michael W. Deem and Ramdas Pophale) SiO2 
 PCOD8304762
Probable space group: P 41 2 2
;
_chemical_formula_sum "Si O2"
_cell_formula_units_Z 40
_cell_length_a 8.668886
_cell_length_b 8.668886
_cell_length_c 27.207517
_cell_angle_alpha 90.000000
_cell_angle_beta 90.000000
_cell_angle_gamma 90.000000
_cell_volume 2044.633597
_symmetry_space_group_name_H-M "P 41 2 2"
_symmetry_group_IT_number 91
_symmetry_cell_setting 'tetragonal'
loop_
_space_group_symop_operation_xyz
x,y,z
-y,x,1/4+z
-x,-y,1/2+z
y,-x,3/4+z
x,-y,1/2-z
-x,y,-z
y,x,3/4-z
-y,-x,1/4-z
loop_
_atom_site_type_symbol
_atom_site_label
_atom_site_fract_x
_atom_site_fract_y
_atom_site_fract_z
Si Si1 0.500000 0.676638 0.000000
Si Si2 0.889432 0.665565 0.903107
Si Si3 0.046500 0.693396 0.272992
Si Si4 0.460348 0.382989 0.667159
Si Si5 0.894258 0.434882 0.322923
Si Si6 0.000000 0.822127 0.000000
O O1 0.380201 0.783445 0.969954
O O2 0.591525 0.569148 0.963315
O O3 0.804548 0.804548 0.875000
O O4 0.787557 0.509164 0.899228
O O5 0.049489 0.622058 0.876235
O O6 0.920901 0.713960 0.959207
O O7 0.928876 0.618465 0.313159
O O8 0.988405 0.657708 0.218132
O O9 0.065633 0.877380 0.277601
O O10 0.490246 0.509755 0.625000
O O11 0.284118 0.394880 0.683052
#
# Coordination Sequence:
#
# PCOD8304762 Si02
#       6
#     4   8   8   8   8   4
#     4  10  18  38  60  82 116 158 212 246 284 364
#     4  11  22  41  61  92 121 170 213 258 314 385
#     4  10  20  40  62  90 121 169 199 252 318 379
#     4  11  22  38  62  89 119 161 207 260 303 364
#     4  10  22  39  61  89 128 160 209 260 321 370
#     4  12  22  38  68  94 124 170 220 252 312 408
#
# _framework density 19.563407000000002
#
# number of rings (size 3 to 8) (size 9 to 14) (size 15 to 20)
#    0.000    1.600    4.000    4.800    5.600    0.000 
#    0.000    4.000    0.000    0.000    0.000    0.000 
#    0.000    0.000    0.000    0.000    0.000    0.000 
#
# Total GULP energy -495889.697419 kJ/mol
# GULP energy per Si atom -12397.242435 kJ/mol
# Density = 1.951888 g / cm^3
# Si number density = 19.563407 Si / 1000 Ang^3
#
#
#
# Elastic Constant Matrix: (Units=GPa)
#
#
# Indices 1 2 3 4 5 6 
#
# 1 117.6780 38.1908 20.6332 0.0000 0.0000 0.0000
# 2 38.1908 117.6773 20.6332 0.0000 0.0000 0.0000
# 3 20.6332 20.6332 78.2190 0.0000 0.0000 0.0000
# 4 0.0000 0.0000 0.0000 28.5434 0.0000 0.0000
# 5 0.0000 0.0000 0.0000 0.0000 28.5434 0.0000
# 6 0.0000 0.0000 0.0000 0.0000 0.0000 16.4947
#
#
#
# Elastic Compliance Matrix: (Units=1/GPa)
#
#
# Indices 1 2 3 4 5 6 
#
# 1 0.009739 -0.002842 -0.001819 0.000000 0.000000 0.000000
# 2 -0.002842 0.009739 -0.001819 0.000000 0.000000 0.000000
# 3 -0.001819 -0.001819 0.013745 0.000000 0.000000 0.000000
# 4 0.000000 0.000000 0.000000 0.035034 0.000000 0.000000
# 5 0.000000 0.000000 0.000000 0.000000 0.035034 0.000000
# 6 0.000000 0.000000 0.000000 0.000000 0.000000 0.060625
#
#
# Mechanical properties :
#
#
# Convention : Reuss Voigt Hill
#
# Bulk Modulus (GPa) = 49.35473 52.49875 50.92674
# Shear Modulus (GPa) = 27.22841 30.32411 28.77626
#
# Velocity S-wave (km/s) = 3.73474 3.94133 3.83942
# Velocity P-wave (km/s) = 6.62424 6.89968 6.76336
#
# Compressibility (1/GPa) = 0.02026148
#
# Stress axis : x y z
#
# Youngs Moduli (GPa) = 102.67993 102.67932 72.75634
#
# Poissons Ratio (x) = 0.29178 0.13238
# Poissons Ratio (y) = 0.29178 0.13238
# Poissons Ratio (z) = 0.18682 0.18682
#
# Static dielectric constant tensor:
#      x y z
#    x 3.566250 0.000000 0.000000 
#    y 0.000000 3.566250 0.000000 
#    z 0.000000 0.000000 2.996260 
# 
# 
# High freq. dielectric constant tensor:
#      x y z
#    x 1.752230 0.000000 0.000000 
#    y 0.000000 1.752230 0.000000 
#    z 0.000000 0.000000 1.761060 
# 
# From -- ./inp_files/6838.got.cif
#   From: 2010.03.12/outbox.cif.g09.slc.cpg/sg91_4_cif.got.tgz:6838.got - 2010.04.08 20:27:58.
