data_PCOD8304205
_publ_section_title
;
Structure prediction by ZEFSAII (Michael W. Deem and Ramdas Pophale) SiO2 
 PCOD8304205
Probable space group: I 41/A
;
_chemical_formula_sum "Si O2"
_cell_formula_units_Z 128
_cell_length_a 24.232675
_cell_length_b 24.232675
_cell_length_c 10.589974
_cell_angle_alpha 90.000000
_cell_angle_beta 90.000000
_cell_angle_gamma 90.000000
_cell_volume 6218.671406
_symmetry_space_group_name_H-M "I 41/A"
_symmetry_group_IT_number 88
_space_group.IT_coordinate_system_code '2'
_symmetry_cell_setting 'tetragonal'
loop_
_space_group_symop_operation_xyz
x,y,z
3/4-y,1/4+x,1/4+z
-x,1/2-y,z
1/4+y,1/4-x,1/4+z
-x,-y,-z
1/4+y,3/4-x,3/4-z
x,1/2+y,-z
3/4-y,3/4+x,3/4-z
1/2+x,1/2+y,1/2+z
1/4-y,3/4+x,3/4+z
1/2-x,-y,1/2+z
3/4+y,3/4-x,3/4+z
1/2-x,1/2-y,1/2-z
3/4+y,1/4-x,1/4-z
1/2+x,y,1/2-z
1/4-y,1/4+x,1/4-z
loop_
_atom_site_type_symbol
_atom_site_label
_atom_site_fract_x
_atom_site_fract_y
_atom_site_fract_z
Si Si1 0.143277 0.344652 0.985928
Si Si2 0.413302 0.499301 0.881682
Si Si3 0.074724 0.877765 0.256582
Si Si4 0.943408 0.687528 0.830305
Si Si5 0.479435 0.607772 0.869253
Si Si6 0.789536 0.485281 0.673656
Si Si7 0.034139 0.112409 0.636835
Si Si8 0.741915 0.134313 0.906682
O O1 0.103839 0.365895 0.874676
O O2 0.159275 0.281513 0.963915
O O3 0.203032 0.375507 0.993410
O O4 0.107588 0.348684 0.113740
O O5 0.436784 0.558738 0.850459
O O6 0.352736 0.502186 0.824024
O O7 0.448679 0.449515 0.823003
O O8 0.414978 0.486240 0.031375
O O9 0.101671 0.839508 0.367434
O O10 0.080933 0.943357 0.279579
O O11 0.008308 0.865831 0.254387
O O12 0.929101 0.752647 0.829158
O O13 0.954274 0.664704 0.688917
O O14 0.494996 0.616019 0.013966
O O15 0.767829 0.495238 0.816008
O O16 0.785761 0.422182 0.634191
#
# Coordination Sequence:
#
# PCOD8304205 Si02
#       8
#    16  16  16  16  16  16  16  16
#     4  10  21  37  58  85 112 157 205 237 299 367
#     4  11  19  36  60  88 114 153 210 247 299 368
#     4  11  21  34  57  87 118 150 189 254 299 357
#     4   9  20  39  60  84 119 163 206 246 295 364
#     4  10  19  34  61  84 109 156 204 245 289 361
#     4  10  22  37  58  86 122 159 206 259 319 368
#     4  11  21  35  56  91 118 152 198 248 309 358
#     4  11  18  37  61  81 116 159 204 241 293 378
#
# _framework density 20.583176000000002
#
# number of rings (size 3 to 8) (size 9 to 14) (size 15 to 20)
#    0.000    1.625    5.000    1.875    0.000    2.250 
#    0.000    2.500    0.000    8.250    0.000    0.000 
#    0.000    0.000    0.000    0.000    0.000    0.000 
#
# Total GULP energy -793141.344887 kJ/mol
# GULP energy per Si atom -12392.833514 kJ/mol
# Density = 2.053633 g / cm^3
# Si number density = 20.583176 Si / 1000 Ang^3
#
#
#
# Elastic Constant Matrix: (Units=GPa)
#
#
# Indices 1 2 3 4 5 6 
#
# 1 90.4095 37.7419 28.2844 0.0000 0.0000 7.2742
# 2 37.7419 90.4095 28.2844 0.0000 0.0000 -7.2742
# 3 28.2844 28.2844 47.3550 0.0000 0.0000 0.0000
# 4 0.0000 0.0000 0.0000 21.8105 0.0000 0.0000
# 5 0.0000 0.0000 0.0000 0.0000 21.8105 0.0000
# 6 7.2742 -7.2742 0.0000 0.0000 0.0000 35.4473
#
#
#
# Elastic Compliance Matrix: (Units=1/GPa)
#
#
# Indices 1 2 3 4 5 6 
#
# 1 0.015363 -0.004765 -0.006330 0.000000 0.000000 -0.004131
# 2 -0.004765 0.015363 -0.006330 0.000000 0.000000 0.004131
# 3 -0.006330 -0.006330 0.028678 0.000000 0.000000 0.000000
# 4 0.000000 0.000000 0.000000 0.045850 0.000000 0.000000
# 5 0.000000 0.000000 0.000000 0.000000 0.045850 0.000000
# 6 -0.004131 0.004131 0.000000 0.000000 0.000000 0.029906
#
#
# Mechanical properties :
#
#
# Convention : Reuss Voigt Hill
#
# Bulk Modulus (GPa) = 40.72586 46.31061 43.51823
# Shear Modulus (GPa) = 22.31717 24.73786 23.52751
#
# Velocity S-wave (km/s) = 3.29636 3.47053 3.38456
# Velocity P-wave (km/s) = 5.85806 6.21350 6.03840
#
# Compressibility (1/GPa) = 0.02455442
#
# Stress axis : x y z
#
# Youngs Moduli (GPa) = 65.09296 65.09296 34.86959
#
# Poissons Ratio (x) = 0.31019 0.22071
# Poissons Ratio (y) = 0.31019 0.22071
# Poissons Ratio (z) = 0.41201 0.41201
#
# Static dielectric constant tensor:
#      x y z
#    x 3.818180 0.000000 0.000000 
#    y 0.000000 3.818180 0.000000 
#    z 0.000000 0.000000 3.452810 
# 
# 
# High freq. dielectric constant tensor:
#      x y z
#    x 1.812090 0.000000 0.000000 
#    y 0.000000 1.812090 0.000000 
#    z 0.000000 0.000000 1.762240 
# 
# From -- ./inp_files/2757.got.cif
#   From: 2010.03.12/outbox.cif.g09.slc.cpg/sg88_2_cif.got.tgz:2757.got - 2010.04.08 20:20:55.
