data_PCOD8304177
_publ_section_title
;
Structure prediction by ZEFSAII (Michael W. Deem and Ramdas Pophale) SiO2 
 PCOD8304177
Probable space group: I 41/A
;
_chemical_formula_sum "Si O2"
_cell_formula_units_Z 96
_cell_length_a 22.807682
_cell_length_b 22.807682
_cell_length_c 11.267290
_cell_angle_alpha 90.000000
_cell_angle_beta 90.000000
_cell_angle_gamma 90.000000
_cell_volume 5861.135621
_symmetry_space_group_name_H-M "I 41/A"
_symmetry_group_IT_number 88
_space_group.IT_coordinate_system_code '2'
_symmetry_cell_setting 'tetragonal'
loop_
_space_group_symop_operation_xyz
x,y,z
3/4-y,1/4+x,1/4+z
-x,1/2-y,z
1/4+y,1/4-x,1/4+z
-x,-y,-z
1/4+y,3/4-x,3/4-z
x,1/2+y,-z
3/4-y,3/4+x,3/4-z
1/2+x,1/2+y,1/2+z
1/4-y,3/4+x,3/4+z
1/2-x,-y,1/2+z
3/4+y,3/4-x,3/4+z
1/2-x,1/2-y,1/2-z
3/4+y,1/4-x,1/4-z
1/2+x,y,1/2-z
1/4-y,1/4+x,1/4-z
loop_
_atom_site_type_symbol
_atom_site_label
_atom_site_fract_x
_atom_site_fract_y
_atom_site_fract_z
Si Si1 0.816514 0.936454 0.887737
Si Si2 0.816680 0.588194 0.604107
Si Si3 0.745695 0.853392 0.273112
Si Si4 0.062967 0.406236 0.688770
Si Si5 0.182893 0.101083 0.363824
Si Si6 0.344262 0.180584 0.916892
O O1 0.747082 0.940498 0.909600
O O2 0.828307 0.892026 0.777964
O O3 0.839762 0.000076 0.852679
O O4 0.849386 0.916086 0.007853
O O5 0.862234 0.542034 0.555112
O O6 0.817918 0.649415 0.533576
O O7 0.782066 0.814783 0.367450
O O8 0.705311 0.898290 0.342515
O O9 0.704721 0.814909 0.186580
O O10 0.089536 0.413347 0.820752
O O11 0.098501 0.355106 0.622886
O O12 0.995921 0.386231 0.701512
#
# Coordination Sequence:
#
# PCOD8304177 Si02
#       6
#    16  16  16  16  16  16
#     4  10  18  28  48  80 106 141 157 198 248 326
#     4  10  18  29  51  74 108 131 170 199 255 311
#     4  10  17  32  50  76 100 130 165 212 258 306
#     4  10  21  34  52  74 101 135 171 216 255 299
#     4  10  18  29  51  74 108 131 170 199 255 311
#     4  10  21  34  52  74 101 135 171 216 255 299
#
# _framework density 16.379078
#
# number of rings (size 3 to 8) (size 9 to 14) (size 15 to 20)
#    0.000    2.000    3.333    2.500    2.333    0.333 
#    0.000    3.333    0.000    0.000    0.000    0.000 
#    0.000    0.000    0.000    0.000    0.000    0.000 
#
# Total GULP energy -595012.289072 kJ/mol
# GULP energy per Si atom -12396.089356 kJ/mol
# Density = 1.634180 g / cm^3
# Si number density = 16.379078 Si / 1000 Ang^3
#
#
#
# Elastic Constant Matrix: (Units=GPa)
#
#
# Indices 1 2 3 4 5 6 
#
# 1 62.8294 2.6346 19.6020 0.0000 0.0000 -0.0366
# 2 2.6346 62.8294 19.6020 0.0000 0.0000 0.0366
# 3 19.6020 19.6020 108.4026 0.0000 0.0000 0.0000
# 4 0.0000 0.0000 0.0000 -350.4386 0.0000 0.0000
# 5 0.0000 0.0000 0.0000 0.0000 -350.4386 0.0000
# 6 -0.0366 0.0366 0.0000 0.0000 0.0000 9.6634
#
#
#
# Elastic Compliance Matrix: (Units=1/GPa)
#
#
# Indices 1 2 3 4 5 6 
#
# 1 0.016872 0.000259 -0.003098 0.000000 0.000000 0.000063
# 2 0.000259 0.016872 -0.003098 0.000000 0.000000 -0.000063
# 3 -0.003098 -0.003098 0.010345 0.000000 0.000000 0.000000
# 4 0.000000 0.000000 0.000000 -0.002854 0.000000 0.000000
# 5 0.000000 0.000000 0.000000 0.000000 -0.002854 0.000000
# 6 0.000063 -0.000063 0.000000 0.000000 0.000000 0.103483
#
#
# Mechanical properties :
#
#
# Convention : Reuss Voigt Hill
#
# Bulk Modulus (GPa) = 31.04066 35.30427 33.17246
# Shear Modulus (GPa) = 30.39953 -125.42790 -47.51419
#
# Velocity S-wave (km/s) = 4.31280 -8.76039 -5.39185
# Velocity P-wave (km/s) = 6.61762 8.98468 4.29719
#
# Compressibility (1/GPa) = 0.03221581
#
# Stress axis : x y z
#
# Youngs Moduli (GPa) = 59.27072 59.27072 96.66363
#
# Poissons Ratio (x) = -0.01535 0.29943
# Poissons Ratio (y) = -0.01535 0.29943
# Poissons Ratio (z) = 0.18360 0.18360
#
# Static dielectric constant tensor:
#      x y z
#    x 2.976260 0.000000 0.000000 
#    y 0.000000 2.976260 0.000000 
#    z 0.000000 0.000000 3.421560 
# 
# 
# High freq. dielectric constant tensor:
#      x y z
#    x 1.605980 0.000000 0.000000 
#    y 0.000000 1.605980 0.000000 
#    z 0.000000 0.000000 1.643680 
# 
# From -- ./inp_files/2601.got.cif
#   From: 2010.03.12/outbox.cif.g09.slc.cpg/sg88_2_cif.got.tgz:2601.got - 2010.04.08 20:20:55.
