data_PCOD8304651
_publ_section_title
;
Structure prediction by ZEFSAII (Michael W. Deem and Ramdas Pophale) SiO2 
 PCOD8304651
Probable space group: P 4 21 2
;
_chemical_formula_sum "Si O2"
_cell_formula_units_Z 50
_cell_length_a 8.556900
_cell_length_b 8.556900
_cell_length_c 32.649451
_cell_angle_alpha 90.000000
_cell_angle_beta 90.000000
_cell_angle_gamma 90.000000
_cell_volume 2390.610355
_symmetry_space_group_name_H-M "P 4 21 2"
_symmetry_group_IT_number 90
_symmetry_cell_setting 'tetragonal'
loop_
_space_group_symop_operation_xyz
x,y,z
1/2-y,1/2+x,z
-x,-y,z
1/2+y,1/2-x,z
1/2+x,1/2-y,-z
1/2-x,1/2+y,-z
y,x,-z
-y,-x,-z
loop_
_atom_site_type_symbol
_atom_site_label
_atom_site_fract_x
_atom_site_fract_y
_atom_site_fract_z
Si Si1 0.243166 0.405995 0.226655
Si Si2 0.095368 0.736162 0.466193
Si Si3 0.500000 0.500000 0.000000
Si Si4 0.391605 0.235714 0.300902
Si Si5 0.430280 0.249756 0.158752
Si Si6 0.888218 0.267966 0.373974
Si Si7 0.030595 0.752322 0.930798
O O1 0.199512 0.587734 0.224469
O O2 0.333641 0.362581 0.268085
O O3 0.366856 0.379482 0.189880
O O4 0.199599 0.584334 0.473051
O O5 0.135253 0.864748 0.500000
O O6 0.130304 0.796075 0.420228
O O7 0.642629 0.523261 0.970160
O O8 0.575131 0.204284 0.295578
O O9 0.364010 0.314414 0.345066
O O10 0.604979 0.187917 0.165782
O O11 0.435362 0.330826 0.113536
O O12 0.795989 0.428887 0.365579
O O13 0.171302 0.634241 0.933528
#
# Coordination Sequence:
#
# PCOD8304651 Si02
#       7
#     8   8   2   8   8   8   8
#     4  11  24  39  57  84 115 146 185 234 284 336
#     4   9  19  35  54  78 109 144 183 230 283 340
#     4  12  20  32  60  88 112 152 196 232 280 336
#     4  11  24  39  56  82 113 145 185 231 281 340
#     4   9  19  37  59  81 109 146 187 230 275 327
#     4   9  19  37  58  79 107 144 186 233 285 340
#     4   9  20  37  55  81 116 150 188 234 280 329
#
# _framework density 20.915163
#
# number of rings (size 3 to 8) (size 9 to 14) (size 15 to 20)
#    0.000    2.240    0.000    4.320    0.000   11.200 
#    0.000    4.800    0.000    1.920    0.000    0.000 
#    0.000    0.000    0.000    0.000    0.000    0.000 
#
# Total GULP energy -619566.868040 kJ/mol
# GULP energy per Si atom -12391.337361 kJ/mol
# Density = 2.086756 g / cm^3
# Si number density = 20.915163 Si / 1000 Ang^3
#
#
#
# Elastic Constant Matrix: (Units=GPa)
#
#
# Indices 1 2 3 4 5 6 
#
# 1 39.9868 1.7581 31.2909 0.0000 0.0000 0.0000
# 2 1.7581 39.9863 31.2904 0.0000 0.0000 0.0000
# 3 31.2909 31.2904 147.1951 0.0000 0.0000 0.0000
# 4 0.0000 0.0000 0.0000 22.9649 0.0000 0.0000
# 5 0.0000 0.0000 0.0000 0.0000 22.9649 0.0000
# 6 0.0000 0.0000 0.0000 0.0000 0.0000 21.5985
#
#
#
# Elastic Compliance Matrix: (Units=1/GPa)
#
#
# Indices 1 2 3 4 5 6 
#
# 1 0.030659 0.004501 -0.007474 0.000000 0.000000 0.000000
# 2 0.004501 0.030660 -0.007474 0.000000 0.000000 0.000000
# 3 -0.007474 -0.007474 0.009972 0.000000 0.000000 0.000000
# 4 0.000000 0.000000 0.000000 0.043545 0.000000 0.000000
# 5 0.000000 0.000000 0.000000 0.000000 0.043545 0.000000
# 6 0.000000 0.000000 0.000000 0.000000 0.000000 0.046299
#
#
# Mechanical properties :
#
#
# Convention : Reuss Voigt Hill
#
# Bulk Modulus (GPa) = 19.84336 39.53856 29.69096
# Shear Modulus (GPa) = 20.62934 24.36090 22.49512
#
# Velocity S-wave (km/s) = 3.14400 3.41654 3.28310
# Velocity P-wave (km/s) = 4.76317 5.87444 5.34775
#
# Compressibility (1/GPa) = 0.05039468
#
# Stress axis : x y z
#
# Youngs Moduli (GPa) = 32.61658 32.61621 100.28581
#
# Poissons Ratio (x) = -0.14680 0.74957
# Poissons Ratio (y) = -0.14680 0.74957
# Poissons Ratio (z) = 0.24379 0.24379
#
# Static dielectric constant tensor:
#      x y z
#    x 3.609200 0.000000 0.000000 
#    y 0.000000 3.609200 0.000000 
#    z 0.000000 0.000000 3.906230 
# 
# 
# High freq. dielectric constant tensor:
#      x y z
#    x 1.814140 0.000000 0.000000 
#    y 0.000000 1.814140 0.000000 
#    z 0.000000 0.000000 1.832010 
# 
# From -- ./inp_files/3051.got.cif
#   From: 2010.03.12/outbox.cif.g09.slc.cpg/sg90_2_cif.got.tgz:3051.got - 2010.04.08 20:26:03.
