data_PCOD8304981
_publ_section_title
;
Structure prediction by ZEFSAII (Michael W. Deem and Ramdas Pophale) SiO2 
 PCOD8304981
Probable space group: P 41 2 2
;
_chemical_formula_sum "Si O2"
_cell_formula_units_Z 40
_cell_length_a 8.501668
_cell_length_b 8.501668
_cell_length_c 23.899942
_cell_angle_alpha 90.000000
_cell_angle_beta 90.000000
_cell_angle_gamma 90.000000
_cell_volume 1727.448583
_symmetry_space_group_name_H-M "P 41 2 2"
_symmetry_group_IT_number 91
_symmetry_cell_setting 'tetragonal'
loop_
_space_group_symop_operation_xyz
x,y,z
-y,x,1/4+z
-x,-y,1/2+z
y,-x,3/4+z
x,-y,1/2-z
-x,y,-z
y,x,3/4-z
-y,-x,1/4-z
loop_
_atom_site_type_symbol
_atom_site_label
_atom_site_fract_x
_atom_site_fract_y
_atom_site_fract_z
Si Si1 0.614234 0.763165 0.329933
Si Si2 0.806033 0.825753 0.227575
Si Si3 0.904155 0.622748 0.794873
Si Si4 0.343396 0.910416 0.880922
Si Si5 0.172197 0.721644 0.973151
O O1 0.618321 0.618321 0.375000
O O2 0.728913 0.725983 0.277809
O O3 0.442039 0.801689 0.307664
O O4 0.678580 0.905804 0.368417
O O5 0.680212 0.820312 0.177360
O O6 0.964894 0.757659 0.200758
O O7 0.840775 0.000000 0.250000
O O8 0.971195 0.500000 0.750000
O O9 0.873995 0.525044 0.851598
O O10 0.741455 0.703344 0.774125
O O11 0.214588 0.859988 0.928272
O O12 0.000000 0.736846 0.000000
#
# Coordination Sequence:
#
# PCOD8304981 Si02
#       5
#     8   8   8   8   8
#     4  11  23  43  67  93 131 175 223 272 329 405
#     4  10  21  40  69  97 125 174 227 272 332 403
#     4  10  21  40  64  93 132 170 212 270 332 393
#     4  10  22  42  66  98 136 173 219 279 341 398
#     4  11  23  43  68  99 135 174 225 281 334 397
#
# _framework density 23.155536999999999
#
# number of rings (size 3 to 8) (size 9 to 14) (size 15 to 20)
#    0.000    1.600    0.000    6.000    0.000    1.600 
#    0.000   34.000    0.000    0.000    0.000    0.000 
#    0.000    0.000    0.000    0.000    0.000    0.000 
#
# Total GULP energy -495660.642698 kJ/mol
# GULP energy per Si atom -12391.516067 kJ/mol
# Density = 2.310283 g / cm^3
# Si number density = 23.155537 Si / 1000 Ang^3
#
#
#
# Elastic Constant Matrix: (Units=GPa)
#
#
# Indices 1 2 3 4 5 6 
#
# 1 98.4953 69.5980 72.9147 0.0000 0.0000 0.0000
# 2 69.5980 98.4953 72.9147 0.0000 0.0000 0.0000
# 3 72.9147 72.9147 153.1187 0.0000 0.0000 0.0000
# 4 0.0000 0.0000 0.0000 47.8005 0.0000 0.0000
# 5 0.0000 0.0000 0.0000 0.0000 47.8005 0.0000
# 6 0.0000 0.0000 0.0000 0.0000 0.0000 25.5719
#
#
#
# Elastic Compliance Matrix: (Units=1/GPa)
#
#
# Indices 1 2 3 4 5 6 
#
# 1 0.022371 -0.012234 -0.004827 0.000000 0.000000 0.000000
# 2 -0.012234 0.022371 -0.004827 0.000000 0.000000 0.000000
# 3 -0.004827 -0.004827 0.011128 0.000000 0.000000 0.000000
# 4 0.000000 0.000000 0.000000 0.020920 0.000000 0.000000
# 5 0.000000 0.000000 0.000000 0.000000 0.020920 0.000000
# 6 0.000000 0.000000 0.000000 0.000000 0.000000 0.039105
#
#
# Mechanical properties :
#
#
# Convention : Reuss Voigt Hill
#
# Bulk Modulus (GPa) = 82.68989 86.77378 84.73183
# Shear Modulus (GPa) = 27.08196 33.21336 30.14766
#
# Velocity S-wave (km/s) = 3.42360 3.79140 3.61219
# Velocity P-wave (km/s) = 7.17051 7.53140 7.35317
#
# Compressibility (1/GPa) = 0.01209338
#
# Stress axis : x y z
#
# Youngs Moduli (GPa) = 44.70047 44.70047 89.86152
#
# Poissons Ratio (x) = 0.54688 0.43378
# Poissons Ratio (y) = 0.54688 0.43378
# Poissons Ratio (z) = 0.21578 0.21578
#
# Static dielectric constant tensor:
#      x y z
#    x 4.081030 0.000000 0.000000 
#    y 0.000000 4.081030 0.000000 
#    z 0.000000 0.000000 4.615280 
# 
# 
# High freq. dielectric constant tensor:
#      x y z
#    x 1.901540 0.000000 0.000000 
#    y 0.000000 1.901540 0.000000 
#    z 0.000000 0.000000 1.934470 
# 
# From -- ./inp_files/6741.got.cif
#   From: 2010.03.12/outbox.cif.g09.slc.cpg/sg91_4_cif.got.tgz:6741.got - 2010.04.08 20:27:58.
