data_PCOD8304600
_publ_section_title
;
Structure prediction by ZEFSAII (Michael W. Deem and Ramdas Pophale) SiO2 
 PCOD8304600
Probable space group: P 4 21 2
;
_chemical_formula_sum "Si O2"
_cell_formula_units_Z 48
_cell_length_a 8.146232
_cell_length_b 8.146232
_cell_length_c 33.052627
_cell_angle_alpha 90.000000
_cell_angle_beta 90.000000
_cell_angle_gamma 90.000000
_cell_volume 2193.408547
_symmetry_space_group_name_H-M "P 4 21 2"
_symmetry_group_IT_number 90
_symmetry_cell_setting 'tetragonal'
loop_
_space_group_symop_operation_xyz
x,y,z
1/2-y,1/2+x,z
-x,-y,z
1/2+y,1/2-x,z
1/2+x,1/2-y,-z
1/2-x,1/2+y,-z
y,x,-z
-y,-x,-z
loop_
_atom_site_type_symbol
_atom_site_label
_atom_site_fract_x
_atom_site_fract_y
_atom_site_fract_z
Si Si1 0.000000 0.000000 0.817652
Si Si2 0.762922 0.080238 0.461800
Si Si3 0.419531 0.740003 0.884876
Si Si4 0.041746 0.762185 0.749822
Si Si5 0.594710 0.256498 0.039071
Si Si6 0.265028 0.455219 0.393952
Si Si7 0.000000 0.000000 0.677899
O O1 0.909321 0.123109 0.787328
O O2 0.130675 0.100690 0.844727
O O3 0.606953 0.202125 0.461772
O O4 0.876112 0.123889 0.500000
O O5 0.886810 0.093239 0.423530
O O6 0.607550 0.796683 0.885818
O O7 0.374158 0.627214 0.922883
O O8 0.186209 0.635623 0.753915
O O9 0.025444 0.843305 0.706086
O O10 0.404576 0.208006 0.039480
O O11 0.635193 0.364808 0.000000
O O12 0.184826 0.629940 0.402198
O O13 0.337369 0.482931 0.349246
#
# Coordination Sequence:
#
# PCOD8304600 Si02
#       7
#     4   8   8   8   8   8   4
#     4  11  22  40  63  90 124 160 201 252 310 375
#     4  11  24  41  62  90 125 168 219 274 331 388
#     4  11  23  39  61  90 124 164 210 261 320 384
#     4  10  22  40  64  92 122 158 200 248 306 374
#     4  11  24  41  62  90 125 168 219 274 331 388
#     4  11  23  39  61  90 124 164 210 261 320 384
#     4  11  22  40  63  90 124 160 201 252 310 375
#
# _framework density 21.883748000000001
#
# number of rings (size 3 to 8) (size 9 to 14) (size 15 to 20)
#    0.000    1.167    0.000    6.000    0.000    6.000 
#    0.000    3.333    0.000    8.000    0.000    0.000 
#    0.000    0.000    0.000    0.000    0.000    0.000 
#
# Total GULP energy -594833.203462 kJ/mol
# GULP energy per Si atom -12392.358405 kJ/mol
# Density = 2.183394 g / cm^3
# Si number density = 21.883748 Si / 1000 Ang^3
#
#
#
# Elastic Constant Matrix: (Units=GPa)
#
#
# Indices 1 2 3 4 5 6 
#
# 1 78.5073 12.5542 33.2424 0.0000 0.0000 0.0000
# 2 12.5542 78.5072 33.2425 0.0000 0.0000 0.0000
# 3 33.2424 33.2425 154.6510 0.0000 0.0000 0.0000
# 4 0.0000 0.0000 0.0000 46.3824 0.0000 0.0000
# 5 0.0000 0.0000 0.0000 0.0000 46.3828 0.0000
# 6 0.0000 0.0000 0.0000 0.0000 0.0000 31.1354
#
#
#
# Elastic Compliance Matrix: (Units=1/GPa)
#
#
# Indices 1 2 3 4 5 6 
#
# 1 0.014094 -0.001068 -0.002800 0.000000 0.000000 0.000000
# 2 -0.001068 0.014094 -0.002800 0.000000 0.000000 0.000000
# 3 -0.002800 -0.002800 0.007670 0.000000 0.000000 0.000000
# 4 0.000000 0.000000 0.000000 0.021560 0.000000 0.000000
# 5 0.000000 0.000000 0.000000 0.000000 0.021560 0.000000
# 6 0.000000 0.000000 0.000000 0.000000 0.000000 0.032118
#
#
# Mechanical properties :
#
#
# Convention : Reuss Voigt Hill
#
# Bulk Modulus (GPa) = 44.40130 52.19375 48.29752
# Shear Modulus (GPa) = 37.89635 40.28855 39.09245
#
# Velocity S-wave (km/s) = 4.16590 4.29537 4.23113
# Velocity P-wave (km/s) = 6.59343 6.96438 6.78144
#
# Compressibility (1/GPa) = 0.02252186
#
# Stress axis : x y z
#
# Youngs Moduli (GPa) = 70.95189 70.95176 130.38043
#
# Poissons Ratio (x) = 0.07579 0.36505
# Poissons Ratio (y) = 0.07579 0.36506
# Poissons Ratio (z) = 0.19866 0.19866
#
# Static dielectric constant tensor:
#      x y z
#    x 3.997450 0.000000 0.000000 
#    y 0.000000 3.997450 0.000000 
#    z 0.000000 0.000000 3.956690 
# 
# 
# High freq. dielectric constant tensor:
#      x y z
#    x 1.875360 0.000000 0.000000 
#    y 0.000000 1.875360 0.000000 
#    z 0.000000 0.000000 1.867380 
# 
# From -- ./inp_files/3083.got.cif
#   From: 2010.03.12/outbox.cif.g09.slc.cpg/sg90_2_cif.got.tgz:3083.got - 2010.04.08 20:26:03.
