data_PCOD8304891
_publ_section_title
;
Structure prediction by ZEFSAII (Michael W. Deem and Ramdas Pophale) SiO2 
 PCOD8304891
Probable space group: P 41 2 2
;
_chemical_formula_sum "Si O2"
_cell_formula_units_Z 52
_cell_length_a 17.910035
_cell_length_b 17.910035
_cell_length_c 9.076735
_cell_angle_alpha 90.000000
_cell_angle_beta 90.000000
_cell_angle_gamma 90.000000
_cell_volume 2911.538420
_symmetry_space_group_name_H-M "P 41 2 2"
_symmetry_group_IT_number 91
_symmetry_cell_setting 'tetragonal'
loop_
_space_group_symop_operation_xyz
x,y,z
-y,x,1/4+z
-x,-y,1/2+z
y,-x,3/4+z
x,-y,1/2-z
-x,y,-z
y,x,3/4-z
-y,-x,1/4-z
loop_
_atom_site_type_symbol
_atom_site_label
_atom_site_fract_x
_atom_site_fract_y
_atom_site_fract_z
Si Si1 0.147168 0.533340 0.602489
Si Si2 0.000000 0.088256 0.000000
Si Si3 0.071699 0.272898 0.597333
Si Si4 0.007994 0.380662 0.809626
Si Si5 0.343077 0.146579 0.653265
Si Si6 0.600943 0.119480 0.647987
Si Si7 0.854633 0.828654 0.543781
O O1 0.187705 0.500000 0.750000
O O2 0.062436 0.552354 0.647582
O O3 0.186087 0.609170 0.535638
O O4 0.149432 0.475101 0.468253
O O5 0.938688 0.142922 0.926417
O O6 0.036514 0.036514 0.875000
O O7 0.050810 0.304506 0.760031
O O8 0.123555 0.334770 0.520126
O O9 0.118764 0.197975 0.610045
O O10 0.000000 0.252093 0.500000
O O11 0.943353 0.359982 0.930625
O O12 0.965430 0.409223 0.660400
O O13 0.374399 0.170664 0.492577
O O14 0.255732 0.160635 0.656454
O O15 0.833920 0.833920 0.375000
#
# Coordination Sequence:
#
# PCOD8304891 Si02
#       7
#     8   4   8   8   8   8   8
#     4  12  21  29  54  74 107 134 160 205 265 330
#     4  10  26  42  58  74  92 120 184 240 304 342
#     4  10  20  38  55  77 100 134 181 228 276 338
#     4   9  21  30  50  74 104 125 163 212 262 318
#     4  10  24  34  50  73 105 129 170 213 270 323
#     4   9  22  33  49  80 103 131 167 210 264 319
#     4  11  25  40  57  73 100 136 175 237 298 338
#
# _framework density 17.859974000000001
#
# number of rings (size 3 to 8) (size 9 to 14) (size 15 to 20)
#    0.923    0.923    1.538    1.846   11.846    0.615 
#    0.000    0.000    0.000    0.000    0.000    0.000 
#    0.000    0.000    0.000    0.000    0.000    0.000 
#
# Total GULP energy -644324.068829 kJ/mol
# GULP energy per Si atom -12390.847477 kJ/mol
# Density = 1.781932 g / cm^3
# Si number density = 17.859974 Si / 1000 Ang^3
#
#
#
# Elastic Constant Matrix: (Units=GPa)
#
#
# Indices 1 2 3 4 5 6 
#
# 1 82.2246 26.7568 36.8003 0.0000 0.0000 0.0000
# 2 26.7568 82.2246 36.8003 0.0000 0.0000 0.0000
# 3 36.8003 36.8003 81.5158 0.0000 0.0000 0.0000
# 4 0.0000 0.0000 0.0000 19.7593 0.0000 0.0000
# 5 0.0000 0.0000 0.0000 0.0000 19.7593 0.0000
# 6 0.0000 0.0000 0.0000 0.0000 0.0000 6.9415
#
#
#
# Elastic Compliance Matrix: (Units=1/GPa)
#
#
# Indices 1 2 3 4 5 6 
#
# 1 0.015615 -0.002414 -0.005959 0.000000 0.000000 0.000000
# 2 -0.002414 0.015615 -0.005959 0.000000 0.000000 0.000000
# 3 -0.005959 -0.005959 0.017648 0.000000 0.000000 0.000000
# 4 0.000000 0.000000 0.000000 0.050609 0.000000 0.000000
# 5 0.000000 0.000000 0.000000 0.000000 0.050609 0.000000
# 6 0.000000 0.000000 0.000000 0.000000 0.000000 0.144060
#
#
# Mechanical properties :
#
#
# Convention : Reuss Voigt Hill
#
# Bulk Modulus (GPa) = 49.47595 49.63110 49.55352
# Shear Modulus (GPa) = 15.17181 18.99921 17.08551
#
# Velocity S-wave (km/s) = 2.91776 3.26511 3.09631
# Velocity P-wave (km/s) = 6.25407 6.48567 6.37092
#
# Compressibility (1/GPa) = 0.02021184
#
# Stress axis : x y z
#
# Youngs Moduli (GPa) = 64.04302 64.04302 56.66269
#
# Poissons Ratio (x) = 0.15460 0.33768
# Poissons Ratio (y) = 0.15460 0.33768
# Poissons Ratio (z) = 0.38166 0.38166
#
# Static dielectric constant tensor:
#      x y z
#    x 3.044840 0.000000 0.000000 
#    y 0.000000 3.044840 0.000000 
#    z 0.000000 0.000000 3.631340 
# 
# 
# High freq. dielectric constant tensor:
#      x y z
#    x 1.646970 0.000000 0.000000 
#    y 0.000000 1.646970 0.000000 
#    z 0.000000 0.000000 1.720030 
# 
# From -- ./inp_files/15270.got.cif
#   From: 2010.03.12/outbox.cif.g09.slc.cpg/sg91_8_cif.got.tgz:15270.got - 2010.04.08 20:27:58.
