data_PCOD8304422
_publ_section_title
;
Structure prediction by ZEFSAII (Michael W. Deem and Ramdas Pophale) SiO2 
 PCOD8304422
Probable space group: I 41/A
;
_chemical_formula_sum "Si O2"
_cell_formula_units_Z 96
_cell_length_a 20.406574
_cell_length_b 20.406574
_cell_length_c 9.983742
_cell_angle_alpha 90.000000
_cell_angle_beta 90.000000
_cell_angle_gamma 90.000000
_cell_volume 4157.512333
_symmetry_space_group_name_H-M "I 41/A"
_symmetry_group_IT_number 88
_space_group.IT_coordinate_system_code '2'
_symmetry_cell_setting 'tetragonal'
loop_
_space_group_symop_operation_xyz
x,y,z
3/4-y,1/4+x,1/4+z
-x,1/2-y,z
1/4+y,1/4-x,1/4+z
-x,-y,-z
1/4+y,3/4-x,3/4-z
x,1/2+y,-z
3/4-y,3/4+x,3/4-z
1/2+x,1/2+y,1/2+z
1/4-y,3/4+x,3/4+z
1/2-x,-y,1/2+z
3/4+y,3/4-x,3/4+z
1/2-x,1/2-y,1/2-z
3/4+y,1/4-x,1/4-z
1/2+x,y,1/2-z
1/4-y,1/4+x,1/4-z
loop_
_atom_site_type_symbol
_atom_site_label
_atom_site_fract_x
_atom_site_fract_y
_atom_site_fract_z
Si Si1 0.946565 0.918317 0.128617
Si Si2 0.699482 0.169418 0.988733
Si Si3 0.635971 0.584442 0.794395
Si Si4 0.813989 0.499949 0.852866
Si Si5 0.595283 0.790339 0.617028
Si Si6 0.056641 0.326234 0.575524
O O1 0.881425 0.959456 0.159578
O O2 0.942623 0.845623 0.192046
O O3 0.010409 0.955924 0.186460
O O4 0.957031 0.906358 0.970631
O O5 0.682369 0.110410 0.089204
O O6 0.766440 0.148838 0.916509
O O7 0.647227 0.170302 0.870788
O O8 0.677947 0.579398 0.658305
O O9 0.577461 0.635493 0.768914
O O10 0.784242 0.510731 0.703188
O O11 0.577716 0.717331 0.571536
O O12 0.074565 0.272335 0.692232
#
# Coordination Sequence:
#
# PCOD8304422 Si02
#       6
#    16  16  16  16  16  16
#     4  11  24  44  69  95 133 174 230 275 340 402
#     4  11  25  44  67 101 132 181 222 278 338 405
#     4  12  24  41  67  93 141 171 221 278 338 400
#     4  12  27  45  68  98 136 187 223 279 340 411
#     4  11  24  39  68 103 128 170 224 283 338 396
#     4   9  22  44  69  96 133 175 221 280 335 398
#
# _framework density 23.090731999999999
#
# number of rings (size 3 to 8) (size 9 to 14) (size 15 to 20)
#    0.000    1.000    5.000    0.000    7.000    2.667 
#    0.000    1.667    0.000    0.000    0.000    0.000 
#    0.000    0.000    0.000    0.000    0.000    0.000 
#
# Total GULP energy -595187.730313 kJ/mol
# GULP energy per Si atom -12399.744382 kJ/mol
# Density = 2.303818 g / cm^3
# Si number density = 23.090732 Si / 1000 Ang^3
#
#
#
# Elastic Constant Matrix: (Units=GPa)
#
#
# Indices 1 2 3 4 5 6 
#
# 1 116.4000 55.8144 15.2644 0.0000 0.0000 -8.2963
# 2 55.8144 116.4000 15.2644 0.0000 0.0000 8.2963
# 3 15.2644 15.2644 44.0011 0.0000 0.0000 0.0000
# 4 0.0000 0.0000 0.0000 27.0488 0.0000 0.0000
# 5 0.0000 0.0000 0.0000 0.0000 27.0488 0.0000
# 6 -8.2963 8.2963 0.0000 0.0000 0.0000 41.8673
#
#
#
# Elastic Compliance Matrix: (Units=1/GPa)
#
#
# Indices 1 2 3 4 5 6 
#
# 1 0.011820 -0.005633 -0.002146 0.000000 0.000000 0.003458
# 2 -0.005633 0.011820 -0.002146 0.000000 0.000000 -0.003458
# 3 -0.002146 -0.002146 0.024216 0.000000 0.000000 0.000000
# 4 0.000000 0.000000 0.000000 0.036970 0.000000 0.000000
# 5 0.000000 0.000000 0.000000 0.000000 0.036970 0.000000
# 6 0.003458 -0.003458 0.000000 0.000000 0.000000 0.025256
#
#
# Mechanical properties :
#
#
# Convention : Reuss Voigt Hill
#
# Bulk Modulus (GPa) = 35.70828 49.94306 42.82567
# Shear Modulus (GPa) = 28.37072 31.89016 30.13044
#
# Velocity S-wave (km/s) = 3.50903 3.72032 3.61622
# Velocity P-wave (km/s) = 5.64939 6.33485 6.00192
#
# Compressibility (1/GPa) = 0.02800471
#
# Stress axis : x y z
#
# Youngs Moduli (GPa) = 84.60256 84.60256 41.29519
#
# Poissons Ratio (x) = 0.47655 0.08864
# Poissons Ratio (y) = 0.47655 0.08864
# Poissons Ratio (z) = 0.18159 0.18159
#
# Static dielectric constant tensor:
#      x y z
#    x 4.266830 0.000000 0.000000 
#    y 0.000000 4.266830 0.000000 
#    z 0.000000 0.000000 3.690940 
# 
# 
# High freq. dielectric constant tensor:
#      x y z
#    x 1.926030 0.000000 0.000000 
#    y 0.000000 1.926030 0.000000 
#    z 0.000000 0.000000 1.881340 
# 
# From -- ./inp_files/2621.got.cif
#   From: 2010.03.12/outbox.cif.g09.slc.cpg/sg88_2_cif.got.tgz:2621.got - 2010.04.08 20:20:55.
