data_PCOD8304619
_publ_section_title
;
Structure prediction by ZEFSAII (Michael W. Deem and Ramdas Pophale) SiO2 
 PCOD8304619
Probable space group: P 4 21 2
;
_chemical_formula_sum "Si O2"
_cell_formula_units_Z 48
_cell_length_a 14.664298
_cell_length_b 14.664298
_cell_length_c 11.745081
_cell_angle_alpha 90.000000
_cell_angle_beta 90.000000
_cell_angle_gamma 90.000000
_cell_volume 2525.681431
_symmetry_space_group_name_H-M "P 4 21 2"
_symmetry_group_IT_number 90
_symmetry_cell_setting 'tetragonal'
loop_
_space_group_symop_operation_xyz
x,y,z
1/2-y,1/2+x,z
-x,-y,z
1/2+y,1/2-x,z
1/2+x,1/2-y,-z
1/2-x,1/2+y,-z
y,x,-z
-y,-x,-z
loop_
_atom_site_type_symbol
_atom_site_label
_atom_site_fract_x
_atom_site_fract_y
_atom_site_fract_z
Si Si1 0.648700 0.628126 0.873478
Si Si2 0.835042 0.944693 0.255669
Si Si3 0.703365 0.484619 0.262724
Si Si4 0.056417 0.361613 0.110571
Si Si5 0.837791 0.725624 0.916116
Si Si6 0.649662 0.503208 0.503564
O O1 0.647385 0.529076 0.823580
O O2 0.581080 0.694632 0.803308
O O3 0.750825 0.667046 0.879159
O O4 0.612858 0.612858 0.000000
O O5 0.931000 0.891975 0.259150
O O6 0.758446 0.880000 0.202334
O O7 0.798934 0.983288 0.377222
O O8 0.784132 0.423887 0.206212
O O9 0.721378 0.499424 0.398208
O O10 0.117479 0.450281 0.128814
O O11 0.083028 0.328716 0.983932
O O12 0.807552 0.807552 0.000000
O O13 0.602875 0.602875 0.500000
O O14 0.573228 0.426773 0.500000
#
# Coordination Sequence:
#
# PCOD8304619 Si02
#       6
#     8   8   8   8   8   8
#     4  11  23  34  57  89 123 155 196 252 312 363
#     4  11  21  36  60  87 120 162 200 250 314 368
#     4  11  21  37  61  87 120 155 205 257 309 368
#     4  11  23  40  61  84 119 169 204 244 313 382
#     4  11  21  38  56  85 123 153 201 256 301 364
#     4   9  18  36  57  84 119 158 193 242 306 366
#
# _framework density 19.004771000000002
#
# number of rings (size 3 to 8) (size 9 to 14) (size 15 to 20)
#    0.000    1.333    3.333    4.500    0.000    0.667 
#    0.000    1.667    3.667    0.000    0.000    2.333 
#    0.000    0.000    0.000    0.000    0.000    0.000 
#
# Total GULP energy -594916.484159 kJ/mol
# GULP energy per Si atom -12394.093420 kJ/mol
# Density = 1.896152 g / cm^3
# Si number density = 19.004771 Si / 1000 Ang^3
#
#
#
# Elastic Constant Matrix: (Units=GPa)
#
#
# Indices 1 2 3 4 5 6 
#
# 1 77.7901 35.9506 58.1320 0.0000 0.0000 0.0000
# 2 35.9506 77.7897 58.1319 0.0000 0.0000 0.0000
# 3 58.1320 58.1319 170.4386 0.0000 0.0000 0.0000
# 4 0.0000 0.0000 0.0000 17.4318 0.0000 0.0000
# 5 0.0000 0.0000 0.0000 0.0000 17.4316 0.0000
# 6 0.0000 0.0000 0.0000 0.0000 0.0000 21.5828
#
#
#
# Elastic Compliance Matrix: (Units=1/GPa)
#
#
# Indices 1 2 3 4 5 6 
#
# 1 0.018699 -0.005202 -0.004604 0.000000 0.000000 0.000000
# 2 -0.005202 0.018699 -0.004604 0.000000 0.000000 0.000000
# 3 -0.004604 -0.004604 0.009008 0.000000 0.000000 0.000000
# 4 0.000000 0.000000 0.000000 0.057367 0.000000 0.000000
# 5 0.000000 0.000000 0.000000 0.000000 0.057367 0.000000
# 6 0.000000 0.000000 0.000000 0.000000 0.000000 0.046333
#
#
# Mechanical properties :
#
#
# Convention : Reuss Voigt Hill
#
# Bulk Modulus (GPa) = 56.85594 70.04973 63.45284
# Shear Modulus (GPa) = 20.64803 22.87618 21.76211
#
# Velocity S-wave (km/s) = 3.29973 3.47321 3.38758
# Velocity P-wave (km/s) = 6.67078 7.28171 6.98293
#
# Compressibility (1/GPa) = 0.01758831
#
# Stress axis : x y z
#
# Youngs Moduli (GPa) = 53.47781 53.47755 111.01701
#
# Poissons Ratio (x) = 0.27817 0.51109
# Poissons Ratio (y) = 0.27817 0.51109
# Poissons Ratio (z) = 0.24620 0.24620
#
# Static dielectric constant tensor:
#      x y z
#    x 3.457230 0.000000 0.000000 
#    y 0.000000 3.457230 0.000000 
#    z 0.000000 0.000000 3.992680 
# 
# 
# High freq. dielectric constant tensor:
#      x y z
#    x 1.727040 0.000000 0.000000 
#    y 0.000000 1.727040 0.000000 
#    z 0.000000 0.000000 1.744060 
# 
# From -- ./inp_files/2129.got.cif
#   From: 2010.03.12/outbox.cif.g09.slc.cpg/sg90_2_cif.got.tgz:2129.got - 2010.04.08 20:26:03.
