data_PCOD8304102
_publ_section_title
;
Structure prediction by ZEFSAII (Michael W. Deem and Ramdas Pophale) SiO2 
 PCOD8304102
Probable space group: I 4/M
;
_chemical_formula_sum "Si O2"
_cell_formula_units_Z 64
_cell_length_a 15.016758
_cell_length_b 15.016758
_cell_length_c 13.967788
_cell_angle_alpha 90.000000
_cell_angle_beta 90.000000
_cell_angle_gamma 90.000000
_cell_volume 3149.778388
_symmetry_space_group_name_H-M "I 4/M"
_symmetry_group_IT_number 87
_symmetry_cell_setting 'tetragonal'
loop_
_space_group_symop_operation_xyz
x,y,z
-y,x,z
-x,-y,z
y,-x,z
-x,-y,-z
y,-x,-z
x,y,-z
-y,x,-z
1/2+x,1/2+y,1/2+z
1/2-y,1/2+x,1/2+z
1/2-x,1/2-y,1/2+z
1/2+y,1/2-x,1/2+z
1/2-x,1/2-y,1/2-z
1/2+y,1/2-x,1/2-z
1/2+x,1/2+y,1/2-z
1/2-y,1/2+x,1/2-z
loop_
_atom_site_type_symbol
_atom_site_label
_atom_site_fract_x
_atom_site_fract_y
_atom_site_fract_z
Si Si1 0.626638 0.425928 0.606592
Si Si2 0.263596 0.421235 0.111898
Si Si3 0.596619 0.099655 0.762803
Si Si4 0.393881 0.283961 0.799138
O O1 0.619496 0.531351 0.620288
O O2 0.663846 0.404174 0.500000
O O3 0.691946 0.386517 0.686659
O O4 0.161773 0.406271 0.143912
O O5 0.306783 0.507933 0.161652
O O6 0.321626 0.335532 0.138824
O O7 0.264888 0.436895 0.000000
O O8 0.503574 0.109945 0.704453
O O9 0.678242 0.127303 0.693045
#
# Coordination Sequence:
#
# PCOD8304102 Si02
#       4
#    16  16  16  16
#     4   9  17  31  53  85 122 160 197 235 286 354
#     4  11  23  38  59  90 125 159 200 240 299 374
#     4   9  21  42  63  80 107 155 212 260 301 336
#     4  11  20  37  61  89 126 162 189 244 304 366
#
# _framework density 20.318888999999999
#
# number of rings (size 3 to 8) (size 9 to 14) (size 15 to 20)
#    0.000    2.000    2.500    2.250    0.000    1.500 
#    0.000   12.500    0.000    7.500    0.000    0.000 
#    0.000    0.000    0.000    0.000    0.000    0.000 
#
# Total GULP energy -396733.882931 kJ/mol
# GULP energy per Si atom -12397.933842 kJ/mol
# Density = 2.027264 g / cm^3
# Si number density = 20.318889 Si / 1000 Ang^3
#
#
#
# Elastic Constant Matrix: (Units=GPa)
#
#
# Indices 1 2 3 4 5 6 
#
# 1 82.4901 32.3293 26.9874 0.0000 0.0000 -0.0913
# 2 32.3293 82.4901 26.9874 0.0000 0.0000 0.0913
# 3 26.9874 26.9874 105.1621 0.0000 0.0000 0.0000
# 4 0.0000 0.0000 0.0000 19.5016 0.0000 0.0000
# 5 0.0000 0.0000 0.0000 0.0000 19.5016 0.0000
# 6 -0.0913 0.0913 0.0000 0.0000 0.0000 26.4144
#
#
#
# Elastic Compliance Matrix: (Units=1/GPa)
#
#
# Indices 1 2 3 4 5 6 
#
# 1 0.014920 -0.005016 -0.002542 0.000000 0.000000 0.000069
# 2 -0.005016 0.014920 -0.002542 0.000000 0.000000 -0.000069
# 3 -0.002542 -0.002542 0.010814 0.000000 0.000000 0.000000
# 4 0.000000 0.000000 0.000000 0.051278 0.000000 0.000000
# 5 0.000000 0.000000 0.000000 0.000000 0.051278 0.000000
# 6 0.000069 -0.000069 0.000000 0.000000 0.000000 0.037859
#
#
# Mechanical properties :
#
#
# Convention : Reuss Voigt Hill
#
# Bulk Modulus (GPa) = 48.88721 49.19449 49.04085
# Shear Modulus (GPa) = 24.02863 25.33942 24.68403
#
# Velocity S-wave (km/s) = 3.44259 3.53524 3.48922
# Velocity P-wave (km/s) = 6.31776 6.39748 6.35774
#
# Compressibility (1/GPa) = 0.02045525
#
# Stress axis : x y z
#
# Youngs Moduli (GPa) = 67.02360 67.02360 92.47569
#
# Poissons Ratio (x) = 0.33619 0.23504
# Poissons Ratio (y) = 0.33619 0.23504
# Poissons Ratio (z) = 0.17035 0.17035
#
# Static dielectric constant tensor:
#      x y z
#    x 3.797090 0.000000 0.000000 
#    y 0.000000 3.797090 0.000000 
#    z 0.000000 0.000000 3.434760 
# 
# 
# High freq. dielectric constant tensor:
#      x y z
#    x 1.798800 0.000000 0.000000 
#    y 0.000000 1.798800 0.000000 
#    z 0.000000 0.000000 1.767570 
# 
# From -- ./inp_files/3331.got.cif
#   From: 2010.03.12/outbox.cif.g09.slc.cpg/sg87_2_cif.got.tgz:3331.got - 2010.04.08 20:16:13.
