data_PCOD8304364
_publ_section_title
;
Structure prediction by ZEFSAII (Michael W. Deem and Ramdas Pophale) SiO2 
 PCOD8304364
Probable space group: I 41/A
;
_chemical_formula_sum "Si O2"
_cell_formula_units_Z 96
_cell_length_a 14.019911
_cell_length_b 14.019911
_cell_length_c 20.449810
_cell_angle_alpha 90.000000
_cell_angle_beta 90.000000
_cell_angle_gamma 90.000000
_cell_volume 4019.571800
_symmetry_space_group_name_H-M "I 41/A"
_symmetry_group_IT_number 88
_space_group.IT_coordinate_system_code '2'
_symmetry_cell_setting 'tetragonal'
loop_
_space_group_symop_operation_xyz
x,y,z
3/4-y,1/4+x,1/4+z
-x,1/2-y,z
1/4+y,1/4-x,1/4+z
-x,-y,-z
1/4+y,3/4-x,3/4-z
x,1/2+y,-z
3/4-y,3/4+x,3/4-z
1/2+x,1/2+y,1/2+z
1/4-y,3/4+x,3/4+z
1/2-x,-y,1/2+z
3/4+y,3/4-x,3/4+z
1/2-x,1/2-y,1/2-z
3/4+y,1/4-x,1/4-z
1/2+x,y,1/2-z
1/4-y,1/4+x,1/4-z
loop_
_atom_site_type_symbol
_atom_site_label
_atom_site_fract_x
_atom_site_fract_y
_atom_site_fract_z
Si Si1 0.396516 0.348578 0.182557
Si Si2 0.635292 0.746509 0.162458
Si Si3 0.614470 0.348355 0.365896
Si Si4 0.287510 0.467065 0.281041
Si Si5 0.076192 0.582794 0.547770
Si Si6 0.395535 0.632271 0.778363
O O1 0.313526 0.414703 0.212547
O O2 0.393837 0.342344 0.103703
O O3 0.497835 0.395464 0.202029
O O4 0.379948 0.243615 0.209285
O O5 0.581132 0.650323 0.136919
O O6 0.749952 0.734481 0.164407
O O7 0.611990 0.770516 0.239300
O O8 0.623362 0.236082 0.350590
O O9 0.696879 0.381481 0.414820
O O10 0.619606 0.399013 0.296444
O O11 0.283476 0.579654 0.267116
O O12 0.187699 0.429565 0.312685
#
# Coordination Sequence:
#
# PCOD8304364 Si02
#       6
#    16  16  16  16  16  16
#     4  11  23  44  65 101 151 174 235 304 356 445
#     4  10  24  50  77  97 138 190 231 299 372 431
#     4  11  20  40  65  94 139 187 223 276 362 430
#     4  12  24  40  70 103 140 188 239 302 353 437
#     4  11  26  44  73 109 133 181 249 295 355 444
#     4  11  24  40  65 101 139 186 227 290 365 430
#
# _framework density 23.883141999999999
#
# number of rings (size 3 to 8) (size 9 to 14) (size 15 to 20)
#    0.000    1.000    3.333    3.500    4.667    2.667 
#    3.000    0.000    0.000    0.000    0.000    0.000 
#    0.000    0.000    0.000    0.000    0.000    0.000 
#
# Total GULP energy -594870.570415 kJ/mol
# GULP energy per Si atom -12393.136884 kJ/mol
# Density = 2.382878 g / cm^3
# Si number density = 23.883142 Si / 1000 Ang^3
#
#
#
# Elastic Constant Matrix: (Units=GPa)
#
#
# Indices 1 2 3 4 5 6 
#
# 1 87.9417 26.7167 23.9203 0.0000 0.0000 1.5660
# 2 26.7167 87.9417 23.9203 0.0000 0.0000 -1.5660
# 3 23.9203 23.9203 127.7514 0.0000 0.0000 0.0000
# 4 0.0000 0.0000 0.0000 28.9174 0.0000 0.0000
# 5 0.0000 0.0000 0.0000 0.0000 28.9174 0.0000
# 6 1.5660 -1.5660 0.0000 0.0000 0.0000 27.1087
#
#
#
# Elastic Compliance Matrix: (Units=1/GPa)
#
#
# Indices 1 2 3 4 5 6 
#
# 1 0.012921 -0.003460 -0.001771 0.000000 0.000000 -0.000946
# 2 -0.003460 0.012921 -0.001771 0.000000 0.000000 0.000946
# 3 -0.001771 -0.001771 0.008491 0.000000 0.000000 0.000000
# 4 0.000000 0.000000 0.000000 0.034581 0.000000 0.000000
# 5 0.000000 0.000000 0.000000 0.000000 0.034581 0.000000
# 6 -0.000946 0.000946 0.000000 0.000000 0.000000 0.036998
#
#
# Mechanical properties :
#
#
# Convention : Reuss Voigt Hill
#
# Bulk Modulus (GPa) = 49.19633 50.30549 49.75091
# Shear Modulus (GPa) = 31.00277 32.26054 31.63165
#
# Velocity S-wave (km/s) = 3.60683 3.67926 3.64323
# Velocity P-wave (km/s) = 6.16353 6.25765 6.21077
#
# Compressibility (1/GPa) = 0.02032672
#
# Stress axis : x y z
#
# Youngs Moduli (GPa) = 77.39249 77.39249 117.77076
#
# Poissons Ratio (x) = 0.26781 0.20862
# Poissons Ratio (y) = 0.26781 0.20862
# Poissons Ratio (z) = 0.13710 0.13710
#
# Static dielectric constant tensor:
#      x y z
#    x 4.218300 0.000000 0.000000 
#    y 0.000000 4.218300 0.000000 
#    z 0.000000 0.000000 4.269280 
# 
# 
# High freq. dielectric constant tensor:
#      x y z
#    x 1.936430 0.000000 0.000000 
#    y 0.000000 1.936430 0.000000 
#    z 0.000000 0.000000 1.950890 
# 
# From -- ./inp_files/4661.got.cif
#   From: 2010.03.12/outbox.cif.g09.slc.cpg/sg88_3_cif.got.tgz:4661.got - 2010.04.08 20:20:55.
