data_PCOD8304155
_publ_section_title
;
Structure prediction by ZEFSAII (Michael W. Deem and Ramdas Pophale) SiO2 
 PCOD8304155
Probable space group: I 4/M
;
_chemical_formula_sum "Si O2"
_cell_formula_units_Z 64
_cell_length_a 12.257298
_cell_length_b 12.257298
_cell_length_c 18.236447
_cell_angle_alpha 90.000000
_cell_angle_beta 90.000000
_cell_angle_gamma 90.000000
_cell_volume 2739.868494
_symmetry_space_group_name_H-M "I 4/M"
_symmetry_group_IT_number 87
_symmetry_cell_setting 'tetragonal'
loop_
_space_group_symop_operation_xyz
x,y,z
-y,x,z
-x,-y,z
y,-x,z
-x,-y,-z
y,-x,-z
x,y,-z
-y,x,-z
1/2+x,1/2+y,1/2+z
1/2-y,1/2+x,1/2+z
1/2-x,1/2-y,1/2+z
1/2+y,1/2-x,1/2+z
1/2-x,1/2-y,1/2-z
1/2+y,1/2-x,1/2-z
1/2+x,1/2+y,1/2-z
1/2-y,1/2+x,1/2-z
loop_
_atom_site_type_symbol
_atom_site_label
_atom_site_fract_x
_atom_site_fract_y
_atom_site_fract_z
Si Si1 0.451060 0.670353 0.209727
Si Si2 0.105556 0.266789 0.918088
Si Si3 0.383930 0.776350 0.650463
Si Si4 0.002042 0.686034 0.416496
O O1 0.366946 0.574028 0.226110
O O2 0.415408 0.769511 0.263380
O O3 0.449494 0.707484 0.124781
O O4 0.200958 0.220516 0.866240
O O5 0.099788 0.399009 0.916270
O O6 0.986181 0.226716 0.894179
O O7 0.130169 0.225223 0.000000
O O8 0.359613 0.900727 0.629598
O O9 0.967222 0.715474 0.500000
#
# Coordination Sequence:
#
# PCOD8304155 Si02
#       4
#    16  16  16  16
#     4  11  25  45  70 105 144 188 241 303 360 432
#     4  11  24  43  70 103 142 186 237 299 363 436
#     4  12  24  44  71 105 145 187 239 300 364 436
#     4  11  26  46  71 103 143 193 245 297 361 433
#
# _framework density 23.358787
#
# number of rings (size 3 to 8) (size 9 to 14) (size 15 to 20)
#    0.000    0.750    2.500    4.500    3.500    7.500 
#    0.000    2.500    0.000    0.000    0.000    0.000 
#    0.000    0.000    0.000    0.000    0.000    0.000 
#
# Total GULP energy -396816.554684 kJ/mol
# GULP energy per Si atom -12400.517334 kJ/mol
# Density = 2.330562 g / cm^3
# Si number density = 23.358787 Si / 1000 Ang^3
#
#
#
# Elastic Constant Matrix: (Units=GPa)
#
#
# Indices 1 2 3 4 5 6 
#
# 1 100.8394 19.9610 43.5783 0.0000 0.0000 8.7749
# 2 19.9610 100.8394 43.5783 0.0000 0.0000 -8.7749
# 3 43.5783 43.5783 161.8009 0.0000 0.0000 0.0000
# 4 0.0000 0.0000 0.0000 36.8079 0.0000 0.0000
# 5 0.0000 0.0000 0.0000 0.0000 36.8079 0.0000
# 6 8.7749 -8.7749 0.0000 0.0000 0.0000 4.6993
#
#
#
# Elastic Compliance Matrix: (Units=1/GPa)
#
#
# Indices 1 2 3 4 5 6 
#
# 1 0.015531 -0.005256 -0.002767 0.000000 0.000000 -0.038815
# 2 -0.005256 0.015531 -0.002767 0.000000 0.000000 0.038815
# 3 -0.002767 -0.002767 0.007671 0.000000 0.000000 0.000000
# 4 0.000000 0.000000 0.000000 0.027168 0.000000 0.000000
# 5 0.000000 0.000000 0.000000 0.000000 0.027168 0.000000
# 6 -0.038815 0.038815 0.000000 0.000000 0.000000 0.357754
#
#
# Mechanical properties :
#
#
# Convention : Reuss Voigt Hill
#
# Bulk Modulus (GPa) = 58.30478 64.19055 61.24767
# Shear Modulus (GPa) = 10.45760 32.75381 21.60571
#
# Velocity S-wave (km/s) = 2.11817 3.74867 3.04460
# Velocity P-wave (km/s) = 5.56749 6.80269 6.21585
#
# Compressibility (1/GPa) = 0.01715125
#
# Stress axis : x y z
#
# Youngs Moduli (GPa) = 64.38876 64.38876 130.35946
#
# Poissons Ratio (x) = 0.33842 0.36075
# Poissons Ratio (y) = 0.33842 0.36075
# Poissons Ratio (z) = 0.17818 0.17818
#
# Static dielectric constant tensor:
#      x y z
#    x 4.145850 0.000000 0.000000 
#    y 0.000000 4.145850 0.000000 
#    z 0.000000 0.000000 4.251250 
# 
# 
# High freq. dielectric constant tensor:
#      x y z
#    x 1.922760 0.000000 0.000000 
#    y 0.000000 1.922760 0.000000 
#    z 0.000000 0.000000 1.930750 
# 
# From -- ./inp_files/4974.got.cif
#   From: 2010.03.12/outbox.cif.g09.slc.cpg/sg87_3_cif.got.tgz:4974.got - 2010.04.08 20:16:13.
