data_PCOD8304974
_publ_section_title
;
Structure prediction by ZEFSAII (Michael W. Deem and Ramdas Pophale) SiO2 
 PCOD8304974
Probable space group: P 41 2 2
;
_chemical_formula_sum "Si O2"
_cell_formula_units_Z 40
_cell_length_a 14.162959
_cell_length_b 14.162959
_cell_length_c 8.812495
_cell_angle_alpha 90.000000
_cell_angle_beta 90.000000
_cell_angle_gamma 90.000000
_cell_volume 1767.693152
_symmetry_space_group_name_H-M "P 41 2 2"
_symmetry_group_IT_number 91
_symmetry_cell_setting 'tetragonal'
loop_
_space_group_symop_operation_xyz
x,y,z
-y,x,1/4+z
-x,-y,1/2+z
y,-x,3/4+z
x,-y,1/2-z
-x,y,-z
y,x,3/4-z
-y,-x,1/4-z
loop_
_atom_site_type_symbol
_atom_site_label
_atom_site_fract_x
_atom_site_fract_y
_atom_site_fract_z
Si Si1 0.135912 0.135912 0.875000
Si Si2 0.439013 0.786815 0.709309
Si Si3 0.576700 0.423301 0.125000
Si Si4 0.777931 0.004975 0.585246
Si Si5 0.269989 0.180056 0.601468
Si Si6 0.160529 0.638236 0.865009
O O1 0.216533 0.143623 0.750076
O O2 0.035139 0.149655 0.791605
O O3 0.439839 0.674467 0.711824
O O4 0.381141 0.822117 0.856776
O O5 0.543546 0.832985 0.716776
O O6 0.385058 0.813091 0.556124
O O7 0.562457 0.500000 0.250000
O O8 0.748534 0.111307 0.541555
O O9 0.829831 0.000000 0.750000
O O10 0.682263 0.943955 0.607317
O O11 0.233597 0.285513 0.563663
#
# Coordination Sequence:
#
# PCOD8304974 Si02
#       6
#     4   8   4   8   8   8
#     4  10  21  40  68 102 128 186 229 286 366 432
#     4  11  18  40  69 103 143 188 242 287 357 435
#     4  12  21  38  68 104 144 198 245 292 348 432
#     4  11  25  44  68 107 144 183 239 305 367 445
#     4  11  19  41  73 103 138 189 238 291 364 435
#     4  10  21  39  68 103 141 182 233 295 359 422
#
# _framework density 22.628364000000001
#
# number of rings (size 3 to 8) (size 9 to 14) (size 15 to 20)
#    0.000    1.200    8.000    0.600    0.000    3.200 
#    7.200    4.000    0.000   48.000    0.000    0.000 
#    0.000    0.000    0.000    0.000    0.000    0.000 
#
# Total GULP energy -495824.543099 kJ/mol
# GULP energy per Si atom -12395.613577 kJ/mol
# Density = 2.257686 g / cm^3
# Si number density = 22.628364 Si / 1000 Ang^3
#
#
#
# Elastic Constant Matrix: (Units=GPa)
#
#
# Indices 1 2 3 4 5 6 
#
# 1 129.6463 25.5600 28.2889 0.0000 0.0000 0.0000
# 2 25.5600 129.6455 28.2891 0.0000 0.0000 0.0000
# 3 28.2889 28.2891 84.5463 0.0000 0.0000 0.0000
# 4 0.0000 0.0000 0.0000 28.6224 0.0000 0.0000
# 5 0.0000 0.0000 0.0000 0.0000 28.6219 0.0000
# 6 0.0000 0.0000 0.0000 0.0000 0.0000 22.4020
#
#
#
# Elastic Compliance Matrix: (Units=1/GPa)
#
#
# Indices 1 2 3 4 5 6 
#
# 1 0.008473 -0.001135 -0.002455 0.000000 0.000000 0.000000
# 2 -0.001135 0.008473 -0.002455 0.000000 0.000000 0.000000
# 3 -0.002455 -0.002455 0.013471 0.000000 0.000000 0.000000
# 4 0.000000 0.000000 0.000000 0.034938 0.000000 0.000000
# 5 0.000000 0.000000 0.000000 0.000000 0.034938 0.000000
# 6 0.000000 0.000000 0.000000 0.000000 0.000000 0.044639
#
#
# Mechanical properties :
#
#
# Convention : Reuss Voigt Hill
#
# Bulk Modulus (GPa) = 54.56764 56.45712 55.51238
# Shear Modulus (GPa) = 30.65029 33.37593 32.01311
#
# Velocity S-wave (km/s) = 3.68436 3.84469 3.76538
# Velocity P-wave (km/s) = 6.50126 6.68676 6.59466
#
# Compressibility (1/GPa) = 0.01832588
#
# Stress axis : x y z
#
# Youngs Moduli (GPa) = 118.02557 118.02463 74.23395
#
# Poissons Ratio (x) = 0.13392 0.18227
# Poissons Ratio (y) = 0.13392 0.18227
# Poissons Ratio (z) = 0.28979 0.28979
#
# Static dielectric constant tensor:
#      x y z
#    x 4.297420 0.000000 0.000000 
#    y 0.000000 4.297410 0.000000 
#    z 0.000000 0.000000 4.101090 
# 
# 
# High freq. dielectric constant tensor:
#      x y z
#    x 1.888810 0.000000 0.000000 
#    y 0.000000 1.888810 0.000000 
#    z 0.000000 0.000000 1.885720 
# 
# From -- ./inp_files/15039.got.cif
#   From: 2010.03.12/outbox.cif.g09.slc.cpg/sg91_8_cif.got.tgz:15039.got - 2010.04.08 20:27:58.
