data_PCOD8304193
_publ_section_title
;
Structure prediction by ZEFSAII (Michael W. Deem and Ramdas Pophale) SiO2 
 PCOD8304193
Probable space group: I 41/A
;
_chemical_formula_sum "Si O2"
_cell_formula_units_Z 96
_cell_length_a 15.466814
_cell_length_b 15.466814
_cell_length_c 18.848406
_cell_angle_alpha 90.000000
_cell_angle_beta 90.000000
_cell_angle_gamma 90.000000
_cell_volume 4508.959700
_symmetry_space_group_name_H-M "I 41/A"
_symmetry_group_IT_number 88
_space_group.IT_coordinate_system_code '2'
_symmetry_cell_setting 'tetragonal'
loop_
_space_group_symop_operation_xyz
x,y,z
3/4-y,1/4+x,1/4+z
-x,1/2-y,z
1/4+y,1/4-x,1/4+z
-x,-y,-z
1/4+y,3/4-x,3/4-z
x,1/2+y,-z
3/4-y,3/4+x,3/4-z
1/2+x,1/2+y,1/2+z
1/4-y,3/4+x,3/4+z
1/2-x,-y,1/2+z
3/4+y,3/4-x,3/4+z
1/2-x,1/2-y,1/2-z
3/4+y,1/4-x,1/4-z
1/2+x,y,1/2-z
1/4-y,1/4+x,1/4-z
loop_
_atom_site_type_symbol
_atom_site_label
_atom_site_fract_x
_atom_site_fract_y
_atom_site_fract_z
Si Si1 0.191401 0.845899 0.162964
Si Si2 0.894163 0.628329 0.430703
Si Si3 0.640882 0.964939 0.738964
Si Si4 0.058134 0.845028 0.275678
Si Si5 0.799323 0.203653 0.992356
Si Si6 0.301059 0.543969 0.580674
O O1 0.286249 0.806115 0.183071
O O2 0.118347 0.805443 0.213907
O O3 0.163255 0.823020 0.083724
O O4 0.202958 0.948063 0.169785
O O5 0.801388 0.620734 0.465698
O O6 0.887963 0.662326 0.349144
O O7 0.945294 0.707859 0.470553
O O8 0.549559 0.914257 0.740235
O O9 0.664375 0.981164 0.657551
O O10 0.719003 0.913752 0.777325
O O11 0.045205 0.945729 0.257764
O O12 0.835028 0.136447 0.051590
#
# Coordination Sequence:
#
# PCOD8304193 Si02
#       6
#    16  16  16  16  16  16
#     4   9  17  33  60  80 114 153 187 239 289 347
#     4   9  19  32  53  82 115 149 192 231 286 356
#     4  10  20  33  58  89 114 151 199 243 288 354
#     4   9  18  34  53  82 116 152 186 234 292 348
#     4   9  18  35  56  87 115 146 200 243 290 351
#     4  10  18  35  60  87 113 155 191 240 298 349
#
# _framework density 21.290942999999999
#
# number of rings (size 3 to 8) (size 9 to 14) (size 15 to 20)
#    0.000    2.667    1.667    0.000    7.000    0.333 
#    3.000    3.333    0.000    0.500    0.000    0.000 
#    0.000    0.000    0.000    0.000    0.000    0.000 
#
# Total GULP energy -594713.709785 kJ/mol
# GULP energy per Si atom -12389.868954 kJ/mol
# Density = 2.124248 g / cm^3
# Si number density = 21.290943 Si / 1000 Ang^3
#
#
#
# Elastic Constant Matrix: (Units=GPa)
#
#
# Indices 1 2 3 4 5 6 
#
# 1 83.9106 16.4420 45.3492 0.0000 0.0000 -1.0139
# 2 16.4420 83.9106 45.3492 0.0000 0.0000 1.0139
# 3 45.3492 45.3492 140.8394 0.0000 0.0000 0.0000
# 4 0.0000 0.0000 0.0000 21.1356 0.0000 0.0000
# 5 0.0000 0.0000 0.0000 0.0000 21.1356 0.0000
# 6 -1.0139 1.0139 0.0000 0.0000 0.0000 3.2952
#
#
#
# Elastic Compliance Matrix: (Units=1/GPa)
#
#
# Indices 1 2 3 4 5 6 
#
# 1 0.014508 -0.000452 -0.004526 0.000000 0.000000 0.004603
# 2 -0.000452 0.014508 -0.004526 0.000000 0.000000 -0.004603
# 3 -0.004526 -0.004526 0.010015 0.000000 0.000000 0.000000
# 4 0.000000 0.000000 0.000000 0.047314 0.000000 0.000000
# 5 0.000000 0.000000 0.000000 0.000000 0.047314 0.000000
# 6 0.004603 -0.004603 0.000000 0.000000 0.000000 0.306305
#
#
# Mechanical properties :
#
#
# Convention : Reuss Voigt Hill
#
# Bulk Modulus (GPa) = 49.94403 58.10462 54.02432
# Shear Modulus (GPa) = 10.73783 22.54795 16.64289
#
# Velocity S-wave (km/s) = 2.24818 3.25782 2.79890
# Velocity P-wave (km/s) = 5.49981 6.44214 5.98954
#
# Compressibility (1/GPa) = 0.02002241
#
# Stress axis : x y z
#
# Youngs Moduli (GPa) = 68.92938 68.92938 99.85291
#
# Poissons Ratio (x) = 0.03119 0.45190
# Poissons Ratio (y) = 0.03119 0.45190
# Poissons Ratio (z) = 0.31195 0.31195
#
# Static dielectric constant tensor:
#      x y z
#    x 4.158500 0.000000 0.000000 
#    y 0.000000 4.158500 0.000000 
#    z 0.000000 0.000000 3.893320 
# 
# 
# High freq. dielectric constant tensor:
#      x y z
#    x 1.822060 0.000000 0.000000 
#    y 0.000000 1.822060 0.000000 
#    z 0.000000 0.000000 1.832280 
# 
# From -- ./inp_files/3927.got.cif
#   From: 2010.03.12/outbox.cif.g09.slc.cpg/sg88_2_cif.got.tgz:3927.got - 2010.04.08 20:20:55.
