data_PCOD8304495
_publ_section_title
;
Structure prediction by ZEFSAII (Michael W. Deem and Ramdas Pophale) SiO2 
 PCOD8304495
Probable space group: P 4 2 2
;
_chemical_formula_sum "Si O2"
_cell_formula_units_Z 48
_cell_length_a 12.019563
_cell_length_b 12.019563
_cell_length_c 18.567438
_cell_angle_alpha 90.000000
_cell_angle_beta 90.000000
_cell_angle_gamma 90.000000
_cell_volume 2682.435813
_symmetry_space_group_name_H-M "P 4 2 2"
_symmetry_group_IT_number 89
_symmetry_cell_setting 'tetragonal'
loop_
_space_group_symop_operation_xyz
x,y,z
-y,x,z
-x,-y,z
y,-x,z
x,-y,-z
-x,y,-z
y,x,-z
-y,-x,-z
loop_
_atom_site_type_symbol
_atom_site_label
_atom_site_fract_x
_atom_site_fract_y
_atom_site_fract_z
Si Si1 0.180415 0.987269 0.916698
Si Si2 0.785927 0.586794 0.717166
Si Si3 0.757589 0.638379 0.217670
Si Si4 0.624864 0.994908 0.192433
Si Si5 0.375324 0.365314 0.921316
Si Si6 0.683362 0.489091 0.419880
O O1 0.101039 0.883599 0.897488
O O2 0.291690 0.963754 0.871455
O O3 0.213720 0.000000 0.000000
O O4 0.737367 0.493510 0.771814
O O5 0.706042 0.693708 0.720494
O O6 0.783504 0.531472 0.637192
O O7 0.909165 0.624999 0.740563
O O8 0.887802 0.664025 0.225149
O O9 0.710646 0.680327 0.140164
O O10 0.500000 0.000000 0.159359
O O11 0.506309 0.345779 0.913312
O O12 0.328800 0.328800 0.000000
O O13 0.614973 0.601646 0.407858
O O14 0.734906 0.500000 0.500000
#
# Coordination Sequence:
#
# PCOD8304495 Si02
#       6
#     8   8   8   8   8   8
#     4   9  18  37  61  75  89 128 191 250 286 316
#     4  11  20  33  55  78 109 143 179 224 272 329
#     4  11  20  33  52  74 105 142 182 222 276 330
#     4  10  23  36  46  74 111 144 179 217 274 345
#     4   9  17  30  47  71  99 127 172 225 270 321
#     4   9  17  30  53  89 114 136 173 220 268 319
#
# _framework density 17.894183999999999
#
# number of rings (size 3 to 8) (size 9 to 14) (size 15 to 20)
#    0.000    2.167    3.333    2.500    0.000    0.667 
#    6.000    0.000    0.000    4.500    0.000    0.000 
#    0.000    0.000    0.000    0.000   14.000    0.000 
#
# Total GULP energy -594816.212479 kJ/mol
# GULP energy per Si atom -12392.004427 kJ/mol
# Density = 1.785346 g / cm^3
# Si number density = 17.894184 Si / 1000 Ang^3
#
#
#
# Elastic Constant Matrix: (Units=GPa)
#
#
# Indices 1 2 3 4 5 6 
#
# 1 89.8835 30.7344 44.8849 0.0000 0.0000 0.0000
# 2 30.7344 89.8835 44.8849 0.0000 0.0000 0.0000
# 3 44.8849 44.8849 130.2046 0.0000 0.0000 0.0000
# 4 0.0000 0.0000 0.0000 24.6699 0.0000 0.0000
# 5 0.0000 0.0000 0.0000 0.0000 24.6699 0.0000
# 6 0.0000 0.0000 0.0000 0.0000 0.0000 20.4564
#
#
#
# Elastic Compliance Matrix: (Units=1/GPa)
#
#
# Indices 1 2 3 4 5 6 
#
# 1 0.014029 -0.002877 -0.003844 0.000000 0.000000 0.000000
# 2 -0.002877 0.014029 -0.003844 0.000000 0.000000 0.000000
# 3 -0.003844 -0.003844 0.010331 0.000000 0.000000 0.000000
# 4 0.000000 0.000000 0.000000 0.040535 0.000000 0.000000
# 5 0.000000 0.000000 0.000000 0.000000 0.040535 0.000000
# 6 0.000000 0.000000 0.000000 0.000000 0.000000 0.048884
#
#
# Mechanical properties :
#
#
# Convention : Reuss Voigt Hill
#
# Bulk Modulus (GPa) = 57.94750 61.22000 59.58375
# Shear Modulus (GPa) = 25.61108 26.59040 26.10074
#
# Velocity S-wave (km/s) = 3.78729 3.85902 3.82333
# Velocity P-wave (km/s) = 7.18182 7.35816 7.27053
#
# Compressibility (1/GPa) = 0.01725700
#
# Stress axis : x y z
#
# Youngs Moduli (GPa) = 71.28042 71.28042 96.79906
#
# Poissons Ratio (x) = 0.20510 0.37212
# Poissons Ratio (y) = 0.20510 0.37212
# Poissons Ratio (z) = 0.27402 0.27402
#
# Static dielectric constant tensor:
#      x y z
#    x 3.198400 0.000000 0.000000 
#    y 0.000000 3.198400 0.000000 
#    z 0.000000 0.000000 3.263090 
# 
# 
# High freq. dielectric constant tensor:
#      x y z
#    x 1.679070 0.000000 0.000000 
#    y 0.000000 1.679070 0.000000 
#    z 0.000000 0.000000 1.674120 
# 
# From -- ./inp_files/2388.got.cif
#   From: 2010.03.12/outbox.cif.g09.slc.cpg/sg89_2_cif.got.tgz:2388.got - 2010.04.08 20:24:03.
