data_PCOD8304675
_publ_section_title
;
Structure prediction by ZEFSAII (Michael W. Deem and Ramdas Pophale) SiO2 
 PCOD8304675
Probable space group: P 4 21 2
;
_chemical_formula_sum "Si O2"
_cell_formula_units_Z 50
_cell_length_a 8.434784
_cell_length_b 8.434784
_cell_length_c 30.670144
_cell_angle_alpha 90.000000
_cell_angle_beta 90.000000
_cell_angle_gamma 90.000000
_cell_volume 2182.045218
_symmetry_space_group_name_H-M "P 4 21 2"
_symmetry_group_IT_number 90
_symmetry_cell_setting 'tetragonal'
loop_
_space_group_symop_operation_xyz
x,y,z
1/2-y,1/2+x,z
-x,-y,z
1/2+y,1/2-x,z
1/2+x,1/2-y,-z
1/2-x,1/2+y,-z
y,x,-z
-y,-x,-z
loop_
_atom_site_type_symbol
_atom_site_label
_atom_site_fract_x
_atom_site_fract_y
_atom_site_fract_z
Si Si1 0.255544 0.090161 0.366714
Si Si2 0.393639 0.762021 0.212602
Si Si3 0.774248 0.374093 0.133235
Si Si4 0.500000 0.000000 0.041857
Si Si5 0.663814 0.406409 0.952578
Si Si6 0.580840 0.246507 0.464601
Si Si7 0.745133 0.907972 0.708861
O O1 0.408674 0.199107 0.358638
O O2 0.187836 0.109360 0.415737
O O3 0.121340 0.145028 0.333247
O O4 0.578301 0.793687 0.219205
O O5 0.362588 0.694846 0.164304
O O6 0.342197 0.631011 0.247596
O O7 0.788085 0.560367 0.142982
O O8 0.731549 0.339754 0.083350
O O9 0.688590 0.029607 0.051254
O O10 0.500000 0.500000 0.948071
O O11 0.677138 0.322863 0.000000
O O12 0.401372 0.196213 0.471916
O O13 0.619092 0.380908 0.500000
O O14 0.590938 0.798154 0.708136
#
# Coordination Sequence:
#
# PCOD8304675 Si02
#       7
#     8   8   8   2   8   8   8
#     4   9  19  37  60  84 114 155 205 256 311 375
#     4  11  26  44  67  96 128 168 218 270 325 394
#     4  11  26  45  70 101 139 179 221 277 338 394
#     4  12  28  44  80 100 144 188 236 284 340 424
#     4  11  28  48  74 111 144 186 237 288 344 405
#     4   9  19  35  54  80 116 156 199 253 310 372
#     4  11  24  41  61  89 125 160 203 258 322 387
#
# _framework density 22.914283000000001
#
# number of rings (size 3 to 8) (size 9 to 14) (size 15 to 20)
#    0.000    1.600    0.000    3.840    8.960    8.000 
#    0.000    4.800    0.000    0.000    0.000    0.000 
#    0.000    0.000    0.000    0.000    0.000    0.000 
#
# Total GULP energy -619452.851173 kJ/mol
# GULP energy per Si atom -12389.057023 kJ/mol
# Density = 2.286213 g / cm^3
# Si number density = 22.914283 Si / 1000 Ang^3
#
#
#
# Elastic Constant Matrix: (Units=GPa)
#
#
# Indices 1 2 3 4 5 6 
#
# 1 55.3312 12.1743 9.6280 0.0000 0.0000 0.0000
# 2 12.1743 55.3311 9.6279 0.0000 0.0000 0.0000
# 3 9.6280 9.6279 117.4056 0.0000 0.0000 0.0000
# 4 0.0000 0.0000 0.0000 20.8415 0.0000 0.0000
# 5 0.0000 0.0000 0.0000 0.0000 20.8414 0.0000
# 6 0.0000 0.0000 0.0000 0.0000 0.0000 34.4627
#
#
#
# Elastic Compliance Matrix: (Units=1/GPa)
#
#
# Indices 1 2 3 4 5 6 
#
# 1 0.019170 -0.004001 -0.001244 0.000000 0.000000 0.000000
# 2 -0.004001 0.019170 -0.001244 0.000000 0.000000 0.000000
# 3 -0.001244 -0.001244 0.008721 0.000000 0.000000 0.000000
# 4 0.000000 0.000000 0.000000 0.047981 0.000000 0.000000
# 5 0.000000 0.000000 0.000000 0.000000 0.047981 0.000000
# 6 0.000000 0.000000 0.000000 0.000000 0.000000 0.029017
#
#
# Mechanical properties :
#
#
# Convention : Reuss Voigt Hill
#
# Bulk Modulus (GPa) = 29.34035 32.32538 30.83287
# Shear Modulus (GPa) = 25.46083 28.33830 26.89957
#
# Velocity S-wave (km/s) = 3.33698 3.52050 3.42997
# Velocity P-wave (km/s) = 5.26113 5.53741 5.40104
#
# Compressibility (1/GPa) = 0.03408275
#
# Stress axis : x y z
#
# Youngs Moduli (GPa) = 52.16525 52.16513 114.65926
#
# Poissons Ratio (x) = 0.20874 0.14263
# Poissons Ratio (y) = 0.20874 0.14262
# Poissons Ratio (z) = 0.06489 0.06489
#
# Static dielectric constant tensor:
#      x y z
#    x 4.602760 0.000000 0.000000 
#    y 0.000000 4.602740 0.000000 
#    z 0.000000 0.000000 4.099620 
# 
# 
# High freq. dielectric constant tensor:
#      x y z
#    x 1.917800 0.000000 0.000000 
#    y 0.000000 1.917800 0.000000 
#    z 0.000000 0.000000 1.898070 
# 
# From -- ./inp_files/3063.got.cif
#   From: 2010.03.12/outbox.cif.g09.slc.cpg/sg90_2_cif.got.tgz:3063.got - 2010.04.08 20:26:03.
