data_PCOD8304707
_publ_section_title
;
Structure prediction by ZEFSAII (Michael W. Deem and Ramdas Pophale) SiO2 
 PCOD8304707
Probable space group: P 41 2 2
;
_chemical_formula_sum "Si O2"
_cell_formula_units_Z 48
_cell_length_a 9.432286
_cell_length_b 9.432286
_cell_length_c 27.695807
_cell_angle_alpha 90.000000
_cell_angle_beta 90.000000
_cell_angle_gamma 90.000000
_cell_volume 2464.041089
_symmetry_space_group_name_H-M "P 41 2 2"
_symmetry_group_IT_number 91
_symmetry_cell_setting 'tetragonal'
loop_
_space_group_symop_operation_xyz
x,y,z
-y,x,1/4+z
-x,-y,1/2+z
y,-x,3/4+z
x,-y,1/2-z
-x,y,-z
y,x,3/4-z
-y,-x,1/4-z
loop_
_atom_site_type_symbol
_atom_site_label
_atom_site_fract_x
_atom_site_fract_y
_atom_site_fract_z
Si Si1 0.024656 0.375136 0.105943
Si Si2 0.500000 0.387128 0.000000
Si Si3 0.467339 0.264545 0.899073
Si Si4 0.885283 0.691949 0.908317
Si Si5 0.000000 0.604213 0.500000
Si Si6 0.257459 0.208185 0.155069
Si Si7 0.594578 0.749356 0.748901
O O1 0.867045 0.378160 0.127854
O O2 0.034825 0.313420 0.050092
O O3 0.099929 0.529077 0.109260
O O4 0.105383 0.265583 0.139845
O O5 0.453029 0.283032 0.956703
O O6 0.624559 0.492191 0.983064
O O7 0.407838 0.407838 0.875000
O O8 0.632325 0.243620 0.887450
O O9 0.788591 0.788591 0.875000
O O10 0.802946 0.695952 0.958820
O O11 0.040515 0.759697 0.913979
O O12 0.125167 0.505566 0.520027
O O13 0.307229 0.290900 0.203424
#
# Coordination Sequence:
#
# PCOD8304707 Si02
#       7
#     8   4   8   8   4   8   8
#     4  10  22  36  65  89 122 160 209 249 301 364
#     4  12  24  34  62  94 122 156 202 260 312 360
#     4  11  21  40  59  87 124 158 202 253 301 366
#     4  10  22  40  62  86 123 159 202 251 300 366
#     4  10  16  42  62  82 118 172 190 236 306 376
#     4  11  21  40  62  90 119 159 204 253 300 363
#     4  11  20  38  63  87 117 163 201 241 312 369
#
# _framework density 19.480194000000001
#
# number of rings (size 3 to 8) (size 9 to 14) (size 15 to 20)
#    0.000    1.333    6.667    2.000    2.333    2.000 
#    6.000    0.000    3.667    0.000    0.000    0.000 
#    0.000    0.000    0.000    0.000    0.000    0.000 
#
# Total GULP energy -595043.924032 kJ/mol
# GULP energy per Si atom -12396.748417 kJ/mol
# Density = 1.943586 g / cm^3
# Si number density = 19.480194 Si / 1000 Ang^3
#
#
#
# Elastic Constant Matrix: (Units=GPa)
#
#
# Indices 1 2 3 4 5 6 
#
# 1 63.4004 34.8700 36.8794 0.0000 0.0000 0.0000
# 2 34.8700 63.4004 36.8794 0.0000 0.0000 0.0000
# 3 36.8794 36.8794 146.2959 0.0000 0.0000 0.0000
# 4 0.0000 0.0000 0.0000 41.4842 0.0000 0.0000
# 5 0.0000 0.0000 0.0000 0.0000 41.4842 0.0000
# 6 0.0000 0.0000 0.0000 0.0000 0.0000 28.0003
#
#
#
# Elastic Compliance Matrix: (Units=1/GPa)
#
#
# Indices 1 2 3 4 5 6 
#
# 1 0.023801 -0.011250 -0.003164 0.000000 0.000000 0.000000
# 2 -0.011250 0.023801 -0.003164 0.000000 0.000000 0.000000
# 3 -0.003164 -0.003164 0.008431 0.000000 0.000000 0.000000
# 4 0.000000 0.000000 0.000000 0.024106 0.000000 0.000000
# 5 0.000000 0.000000 0.000000 0.000000 0.024106 0.000000
# 6 0.000000 0.000000 0.000000 0.000000 0.000000 0.035714
#
#
# Mechanical properties :
#
#
# Convention : Reuss Voigt Hill
#
# Bulk Modulus (GPa) = 47.90071 54.48382 51.19226
# Shear Modulus (GPa) = 27.46184 33.15826 30.31005
#
# Velocity S-wave (km/s) = 3.75871 4.13019 3.94882
# Velocity P-wave (km/s) = 6.59394 7.12560 6.86492
#
# Compressibility (1/GPa) = 0.02087652
#
# Stress axis : x y z
#
# Youngs Moduli (GPa) = 42.01579 42.01579 118.61527
#
# Poissons Ratio (x) = 0.47267 0.37529
# Poissons Ratio (y) = 0.47267 0.37529
# Poissons Ratio (z) = 0.13293 0.13293
#
# Static dielectric constant tensor:
#      x y z
#    x 3.312850 0.000000 0.000000 
#    y 0.000000 3.312850 0.000000 
#    z 0.000000 0.000000 3.602800 
# 
# 
# High freq. dielectric constant tensor:
#      x y z
#    x 1.744920 0.000000 0.000000 
#    y 0.000000 1.744920 0.000000 
#    z 0.000000 0.000000 1.768920 
# 
# From -- ./inp_files/22307.got.cif
#   From: 2010.03.12/outbox.cif.g09.slc.cpg/sg91_12_cif.got.tgz:22307.got - 2010.04.08 20:27:58.
