data_PCOD8304018
_publ_section_title
;
Structure prediction by ZEFSAII (Michael W. Deem and Ramdas Pophale) SiO2 
 PCOD8304018
Probable space group: I 4/M
;
_chemical_formula_sum "Si O2"
_cell_formula_units_Z 120
_cell_length_a 26.847432
_cell_length_b 26.847432
_cell_length_c 7.804213
_cell_angle_alpha 90.000000
_cell_angle_beta 90.000000
_cell_angle_gamma 90.000000
_cell_volume 5625.156584
_symmetry_space_group_name_H-M "I 4/M"
_symmetry_group_IT_number 87
_symmetry_cell_setting 'tetragonal'
loop_
_space_group_symop_operation_xyz
x,y,z
-y,x,z
-x,-y,z
y,-x,z
-x,-y,-z
y,-x,-z
x,y,-z
-y,x,-z
1/2+x,1/2+y,1/2+z
1/2-y,1/2+x,1/2+z
1/2-x,1/2-y,1/2+z
1/2+y,1/2-x,1/2+z
1/2-x,1/2-y,1/2-z
1/2+y,1/2-x,1/2-z
1/2+x,1/2+y,1/2-z
1/2-y,1/2+x,1/2-z
loop_
_atom_site_type_symbol
_atom_site_label
_atom_site_fract_x
_atom_site_fract_y
_atom_site_fract_z
Si Si1 0.420612 0.476885 0.000000
Si Si2 0.689246 0.838727 0.202215
Si Si3 0.343175 0.459607 0.298177
Si Si4 0.135098 0.239451 0.306988
Si Si5 0.849828 0.198298 0.197518
Si Si6 0.017631 0.353813 0.195805
Si Si7 0.085124 0.609053 0.304945
Si Si8 0.972941 0.754653 0.806920
O O1 0.466367 0.438696 0.000000
O O2 0.390522 0.467282 0.823990
O O3 0.669953 0.784350 0.259382
O O4 0.745505 0.845711 0.266679
O O5 0.657266 0.880352 0.296600
O O6 0.685175 0.847221 0.000000
O O7 0.357042 0.469342 0.500000
O O8 0.322576 0.404482 0.272197
O O9 0.300705 0.497102 0.224956
O O10 0.117581 0.250227 0.500000
O O11 0.164968 0.188213 0.303626
O O12 0.085873 0.234788 0.192946
O O13 0.833972 0.196115 0.000000
O O14 0.061638 0.386794 0.280663
O O15 0.015226 0.298797 0.283923
O O16 0.965645 0.382264 0.202815
O O17 0.033946 0.345415 0.000000
O O18 0.070069 0.598176 0.500000
O O19 0.993081 0.751821 0.000000
#
# Coordination Sequence:
#
# PCOD8304018 Si02
#       8
#     8  16  16  16  16  16  16  16
#     4  11  28  50  72  98 136 174 214 283 346 398
#     4  10  21  40  60  87 129 171 207 252 315 382
#     4  10  24  43  70 101 129 174 225 269 333 400
#     4  11  23  35  60  96 127 164 209 258 314 379
#     4  10  22  40  61  88 128 171 209 255 317 386
#     4  10  22  41  61  84 121 162 202 254 316 371
#     4  11  23  38  61  88 115 156 208 259 310 368
#     4  10  21  41  64  88 124 167 209 258 315 385
#
# _framework density 21.332739
#
# number of rings (size 3 to 8) (size 9 to 14) (size 15 to 20)
#    0.000    1.667    1.333    2.000    3.733    5.600 
#    2.400    2.000    0.000    0.000    0.000    0.000 
#    0.000    0.000    0.000    0.000    0.000    0.000 
#
# Total GULP energy -744087.582011 kJ/mol
# GULP energy per Si atom -12401.459700 kJ/mol
# Density = 2.128418 g / cm^3
# Si number density = 21.332739 Si / 1000 Ang^3
#
#
#
# Elastic Constant Matrix: (Units=GPa)
#
#
# Indices 1 2 3 4 5 6 
#
# 1 150.8082 65.9809 25.9536 0.0000 0.0000 -0.7297
# 2 65.9809 150.8082 25.9536 0.0000 0.0000 0.7297
# 3 25.9536 25.9536 50.5837 0.0000 0.0000 0.0000
# 4 0.0000 0.0000 0.0000 27.9194 0.0000 0.0000
# 5 0.0000 0.0000 0.0000 0.0000 27.9194 0.0000
# 6 -0.7297 0.7297 0.0000 0.0000 0.0000 26.9032
#
#
#
# Elastic Compliance Matrix: (Units=1/GPa)
#
#
# Indices 1 2 3 4 5 6 
#
# 1 0.008526 -0.003268 -0.002698 0.000000 0.000000 0.000320
# 2 -0.003268 0.008526 -0.002698 0.000000 0.000000 -0.000320
# 3 -0.002698 -0.002698 0.022538 0.000000 0.000000 0.000000
# 4 0.000000 0.000000 0.000000 0.035817 0.000000 0.000000
# 5 0.000000 0.000000 0.000000 0.000000 0.035817 0.000000
# 6 0.000320 -0.000320 0.000000 0.000000 0.000000 0.037188
#
#
# Mechanical properties :
#
#
# Convention : Reuss Voigt Hill
#
# Bulk Modulus (GPa) = 44.91791 65.33070 55.12431
# Shear Modulus (GPa) = 28.87459 32.16919 30.52189
#
# Velocity S-wave (km/s) = 3.68303 3.88748 3.78663
# Velocity P-wave (km/s) = 6.26002 7.13029 6.70928
#
# Compressibility (1/GPa) = 0.02226283
#
# Stress axis : x y z
#
# Youngs Moduli (GPa) = 117.28154 117.28154 44.36947
#
# Poissons Ratio (x) = 0.38324 0.11972
# Poissons Ratio (y) = 0.38324 0.11972
# Poissons Ratio (z) = 0.31645 0.31645
#
# Static dielectric constant tensor:
#      x y z
#    x 3.887050 0.000000 0.000000 
#    y 0.000000 3.887050 0.000000 
#    z 0.000000 0.000000 3.632750 
# 
# 
# High freq. dielectric constant tensor:
#      x y z
#    x 1.844720 0.000000 0.000000 
#    y 0.000000 1.844720 0.000000 
#    z 0.000000 0.000000 1.821830 
# 
# From -- ./inp_files/1724.got.cif
#   From: 2010.03.12/outbox.cif.g09.slc.cpg/sg87_1_cif.got.tgz:1724.got - 2010.04.08 20:16:13.
