data_PCOD8304081
_publ_section_title
;
Structure prediction by ZEFSAII (Michael W. Deem and Ramdas Pophale) SiO2 
 PCOD8304081
Probable space group: I 4/M
;
_chemical_formula_sum "Si O2"
_cell_formula_units_Z 88
_cell_length_a 12.125496
_cell_length_b 12.125496
_cell_length_c 28.534793
_cell_angle_alpha 90.000000
_cell_angle_beta 90.000000
_cell_angle_gamma 90.000000
_cell_volume 4195.403651
_symmetry_space_group_name_H-M "I 4/M"
_symmetry_group_IT_number 87
_symmetry_cell_setting 'tetragonal'
loop_
_space_group_symop_operation_xyz
x,y,z
-y,x,z
-x,-y,z
y,-x,z
-x,-y,-z
y,-x,-z
x,y,-z
-y,x,-z
1/2+x,1/2+y,1/2+z
1/2-y,1/2+x,1/2+z
1/2-x,1/2-y,1/2+z
1/2+y,1/2-x,1/2+z
1/2-x,1/2-y,1/2-z
1/2+y,1/2-x,1/2-z
1/2+x,1/2+y,1/2-z
1/2-y,1/2+x,1/2-z
loop_
_atom_site_type_symbol
_atom_site_label
_atom_site_fract_x
_atom_site_fract_y
_atom_site_fract_z
Si Si1 0.832874 0.072875 0.822512
Si Si2 0.824750 0.448010 0.000000
Si Si3 0.652774 0.827847 0.601361
Si Si4 0.487756 0.172081 0.754391
Si Si5 0.500000 0.000000 0.575410
Si Si6 0.816385 0.267646 0.500000
Si Si7 0.551185 0.323131 0.161894
O O1 0.778443 0.126433 0.868206
O O2 0.752914 0.085609 0.778097
O O3 0.943484 0.142704 0.820923
O O4 0.901221 0.448655 0.045344
O O5 0.748112 0.344159 0.000000
O O6 0.743903 0.553113 0.000000
O O7 0.664172 0.787855 0.547250
O O8 0.756579 0.904048 0.616768
O O9 0.544519 0.902800 0.607813
O O10 0.583056 0.102761 0.726345
O O11 0.553767 0.239993 0.794201
O O12 0.634634 0.425816 0.162309
#
# Coordination Sequence:
#
# PCOD8304081 Si02
#       7
#    16   8  16  16   8   8  16
#     4  11  26  44  66 100 135 173 225 281 334 399
#     4   9  20  43  64  93 126 166 224 272 335 389
#     4  11  25  43  69  97 130 184 223 276 342 391
#     4  11  24  43  70 103 132 178 223 268 335 415
#     4   9  22  40  64  91 126 168 224 275 320 399
#     4  10  24  41  66  98 129 182 217 281 337 388
#     4  11  26  43  65 102 139 173 220 277 338 406
#
# _framework density 20.975337
#
# number of rings (size 3 to 8) (size 9 to 14) (size 15 to 20)
#    0.000    1.455    1.818    1.636   12.727    3.091 
#    0.000    0.000    0.000    1.091    0.000    0.000 
#    0.000    0.000    0.000    0.000    0.000    0.000 
#
# Total GULP energy -545099.493973 kJ/mol
# GULP energy per Si atom -12388.624863 kJ/mol
# Density = 2.092760 g / cm^3
# Si number density = 20.975337 Si / 1000 Ang^3
#
#
#
# Elastic Constant Matrix: (Units=GPa)
#
#
# Indices 1 2 3 4 5 6 
#
# 1 100.5249 54.4070 23.3038 0.0000 0.0000 -9.6765
# 2 54.4070 100.5249 23.3038 0.0000 0.0000 9.6765
# 3 23.3038 23.3038 97.1193 0.0000 0.0000 0.0000
# 4 0.0000 0.0000 0.0000 16.7654 0.0000 0.0000
# 5 0.0000 0.0000 0.0000 0.0000 16.7654 0.0000
# 6 -9.6765 9.6765 0.0000 0.0000 0.0000 41.5306
#
#
#
# Elastic Compliance Matrix: (Units=1/GPa)
#
#
# Indices 1 2 3 4 5 6 
#
# 1 0.015495 -0.008538 -0.001669 0.000000 0.000000 0.005600
# 2 -0.008538 0.015495 -0.001669 0.000000 0.000000 -0.005600
# 3 -0.001669 -0.001669 0.011098 0.000000 0.000000 0.000000
# 4 0.000000 0.000000 0.000000 0.059646 0.000000 0.000000
# 5 0.000000 0.000000 0.000000 0.000000 0.059646 0.000000
# 6 0.005600 -0.005600 0.000000 0.000000 0.000000 0.026688
#
#
# Mechanical properties :
#
#
# Convention : Reuss Voigt Hill
#
# Bulk Modulus (GPa) = 54.54369 55.57760 55.06064
# Shear Modulus (GPa) = 22.94276 28.15594 25.54935
#
# Velocity S-wave (km/s) = 3.31085 3.66776 3.49387
# Velocity P-wave (km/s) = 6.37776 6.67014 6.52559
#
# Compressibility (1/GPa) = 0.01833393
#
# Stress axis : x y z
#
# Youngs Moduli (GPa) = 64.53695 64.53695 90.10891
#
# Poissons Ratio (x) = 0.55104 0.15041
# Poissons Ratio (y) = 0.55104 0.15041
# Poissons Ratio (z) = 0.10773 0.10773
#
# Static dielectric constant tensor:
#      x y z
#    x 3.908170 0.000000 0.000000 
#    y 0.000000 3.908170 0.000000 
#    z 0.000000 0.000000 3.806320 
# 
# 
# High freq. dielectric constant tensor:
#      x y z
#    x 1.831700 0.000000 0.000000 
#    y 0.000000 1.831700 0.000000 
#    z 0.000000 0.000000 1.810910 
# 
# From -- ./inp_files/6624.got.cif
#   From: 2010.03.12/outbox.cif.g09.slc.cpg/sg87_4_cif.got.tgz:6624.got - 2010.04.08 20:16:13.
