data_PCOD8304443
_publ_section_title
;
Structure prediction by ZEFSAII (Michael W. Deem and Ramdas Pophale) SiO2 
 PCOD8304443
Probable space group: I 41/A
;
_chemical_formula_sum "Si O2"
_cell_formula_units_Z 88
_cell_length_a 11.573967
_cell_length_b 11.573967
_cell_length_c 28.475621
_cell_angle_alpha 90.000000
_cell_angle_beta 90.000000
_cell_angle_gamma 90.000000
_cell_volume 3814.500565
_symmetry_space_group_name_H-M "I 41/A"
_symmetry_group_IT_number 88
_space_group.IT_coordinate_system_code '2'
_symmetry_cell_setting 'tetragonal'
loop_
_space_group_symop_operation_xyz
x,y,z
3/4-y,1/4+x,1/4+z
-x,1/2-y,z
1/4+y,1/4-x,1/4+z
-x,-y,-z
1/4+y,3/4-x,3/4-z
x,1/2+y,-z
3/4-y,3/4+x,3/4-z
1/2+x,1/2+y,1/2+z
1/4-y,3/4+x,3/4+z
1/2-x,-y,1/2+z
3/4+y,3/4-x,3/4+z
1/2-x,1/2-y,1/2-z
3/4+y,1/4-x,1/4-z
1/2+x,y,1/2-z
1/4-y,1/4+x,1/4-z
loop_
_atom_site_type_symbol
_atom_site_label
_atom_site_fract_x
_atom_site_fract_y
_atom_site_fract_z
Si Si1 0.246252 0.220257 0.180041
Si Si2 0.069628 0.522938 0.603513
Si Si3 0.314852 0.601861 0.188528
Si Si4 0.301492 0.357029 0.423815
Si Si5 0.500000 0.750000 0.849594
Si Si6 0.362646 0.492516 0.285204
O O1 0.177924 0.336874 0.190075
O O2 0.198270 0.171476 0.131050
O O3 0.383609 0.245858 0.181700
O O4 0.214385 0.124626 0.219858
O O5 0.100757 0.453569 0.650284
O O6 0.000151 0.637971 0.617451
O O7 0.187251 0.557464 0.578173
O O8 0.989955 0.442513 0.570175
O O9 0.184129 0.558640 0.185500
O O10 0.365533 0.572587 0.239407
O O11 0.294665 0.242595 0.454624
#
# Coordination Sequence:
#
# PCOD8304443 Si02
#       6
#    16  16  16  16   8  16
#     4  12  22  42  75 105 150 199 251 317 386 457
#     4  12  23  49  72 101 154 199 250 321 385 456
#     4  12  27  46  73 110 147 203 258 312 389 462
#     4  12  22  44  73 107 147 198 250 314 387 454
#     4  12  20  42  78 100 142 212 246 310 392 450
#     4  12  26  44  73 114 149 198 259 314 388 469
#
# _framework density 23.069861
#
# number of rings (size 3 to 8) (size 9 to 14) (size 15 to 20)
#    0.000    0.000    9.091    1.091    0.000    4.000 
#    3.273    3.636    0.000    0.000    0.000    0.000 
#    0.000    0.000    0.000    0.000    0.000    0.000 
#
# Total GULP energy -545787.506622 kJ/mol
# GULP energy per Si atom -12404.261514 kJ/mol
# Density = 2.301735 g / cm^3
# Si number density = 23.069861 Si / 1000 Ang^3
#
#
#
# Elastic Constant Matrix: (Units=GPa)
#
#
# Indices 1 2 3 4 5 6 
#
# 1 129.1895 48.8777 26.0651 0.0000 0.0000 6.5322
# 2 48.8777 129.1895 26.0651 0.0000 0.0000 -6.5322
# 3 26.0651 26.0651 74.2592 0.0000 0.0000 0.0000
# 4 0.0000 0.0000 0.0000 15.9954 0.0000 0.0000
# 5 0.0000 0.0000 0.0000 0.0000 15.9954 0.0000
# 6 6.5322 -6.5322 0.0000 0.0000 0.0000 33.6039
#
#
#
# Elastic Compliance Matrix: (Units=1/GPa)
#
#
# Indices 1 2 3 4 5 6 
#
# 1 0.009559 -0.003300 -0.002197 0.000000 0.000000 -0.002499
# 2 -0.003300 0.009559 -0.002197 0.000000 0.000000 0.002499
# 3 -0.002197 -0.002197 0.015009 0.000000 0.000000 0.000000
# 4 0.000000 0.000000 0.000000 0.062518 0.000000 0.000000
# 5 0.000000 0.000000 0.000000 0.000000 0.062518 0.000000
# 6 -0.002499 0.002499 0.000000 0.000000 0.000000 0.030730
#
#
# Mechanical properties :
#
#
# Convention : Reuss Voigt Hill
#
# Bulk Modulus (GPa) = 53.36482 59.40597 56.38539
# Shear Modulus (GPa) = 23.63790 28.56097 26.09943
#
# Velocity S-wave (km/s) = 3.20445 3.52237 3.36716
# Velocity P-wave (km/s) = 6.07234 6.50762 6.29375
#
# Compressibility (1/GPa) = 0.01873894
#
# Stress axis : x y z
#
# Youngs Moduli (GPa) = 104.61850 104.61850 66.62848
#
# Poissons Ratio (x) = 0.34519 0.14638
# Poissons Ratio (y) = 0.34519 0.14638
# Poissons Ratio (z) = 0.22984 0.22984
#
# Static dielectric constant tensor:
#      x y z
#    x 4.414010 0.000000 0.000000 
#    y 0.000000 4.414010 0.000000 
#    z 0.000000 0.000000 3.930490 
# 
# 
# High freq. dielectric constant tensor:
#      x y z
#    x 1.922750 0.000000 0.000000 
#    y 0.000000 1.922750 0.000000 
#    z 0.000000 0.000000 1.899200 
# 
# From -- ./inp_files/6416.got.cif
#   From: 2010.03.12/outbox.cif.g09.slc.cpg/sg88_4_cif.got.tgz:6416.got - 2010.04.08 20:20:55.
