data_PCOD8304181
_publ_section_title
;
Structure prediction by ZEFSAII (Michael W. Deem and Ramdas Pophale) SiO2 
 PCOD8304181
Probable space group: I 41/A
;
_chemical_formula_sum "Si O2"
_cell_formula_units_Z 128
_cell_length_a 20.364924
_cell_length_b 20.364924
_cell_length_c 17.768727
_cell_angle_alpha 90.000000
_cell_angle_beta 90.000000
_cell_angle_gamma 90.000000
_cell_volume 7369.226450
_symmetry_space_group_name_H-M "I 41/A"
_symmetry_group_IT_number 88
_space_group.IT_coordinate_system_code '2'
_symmetry_cell_setting 'tetragonal'
loop_
_space_group_symop_operation_xyz
x,y,z
3/4-y,1/4+x,1/4+z
-x,1/2-y,z
1/4+y,1/4-x,1/4+z
-x,-y,-z
1/4+y,3/4-x,3/4-z
x,1/2+y,-z
3/4-y,3/4+x,3/4-z
1/2+x,1/2+y,1/2+z
1/4-y,3/4+x,3/4+z
1/2-x,-y,1/2+z
3/4+y,3/4-x,3/4+z
1/2-x,1/2-y,1/2-z
3/4+y,1/4-x,1/4-z
1/2+x,y,1/2-z
1/4-y,1/4+x,1/4-z
loop_
_atom_site_type_symbol
_atom_site_label
_atom_site_fract_x
_atom_site_fract_y
_atom_site_fract_z
Si Si1 0.062505 0.465847 0.859353
Si Si2 0.367021 0.695814 0.577890
Si Si3 0.364128 0.061125 0.494799
Si Si4 0.290448 0.915994 0.000874
Si Si5 0.244942 0.590709 0.952630
Si Si6 0.225321 0.030266 0.649761
Si Si7 0.185365 0.329832 0.344711
Si Si8 0.611905 0.663829 0.530403
O O1 0.049993 0.541983 0.851571
O O2 0.119076 0.448840 0.918432
O O3 0.093001 0.441960 0.778753
O O4 0.996621 0.430424 0.885279
O O5 0.391069 0.631034 0.533833
O O6 0.381953 0.757598 0.523619
O O7 0.402840 0.696473 0.659105
O O8 0.285885 0.062910 0.487086
O O9 0.398294 0.999975 0.452024
O O10 0.323626 0.972163 0.948025
O O11 0.309936 0.921131 0.088963
O O12 0.240303 0.525437 0.902095
O O13 0.308892 0.631592 0.924203
O O14 0.178708 0.631571 0.936915
O O15 0.250515 0.578058 0.042196
O O16 0.118462 0.345666 0.300178
#
# Coordination Sequence:
#
# PCOD8304181 Si02
#       8
#    16  16  16  16  16  16  16  16
#     4  11  21  33  52  73 102 151 186 221 271 328
#     4  11  23  34  52  74 115 150 188 225 274 319
#     4  11  19  33  49  76 107 144 182 221 261 330
#     4  10  18  31  48  78 103 134 177 221 279 325
#     4  11  18  32  51  77 104 139 178 223 278 327
#     4  10  18  29  51  76 104 128 170 234 271 325
#     4  12  21  34  53  74 107 147 190 221 265 340
#     4  12  23  36  48  78 114 153 189 223 266 335
#
# _framework density 17.369530000000001
#
# number of rings (size 3 to 8) (size 9 to 14) (size 15 to 20)
#    0.000    1.000    7.500    1.875    1.750    0.250 
#    0.000    0.000    0.000    0.000    3.250    4.375 
#    0.000    0.000    0.000    0.000    0.000    0.000 
#
# Total GULP energy -792887.943287 kJ/mol
# GULP energy per Si atom -12388.874114 kJ/mol
# Density = 1.733000 g / cm^3
# Si number density = 17.369530 Si / 1000 Ang^3
#
#
#
# Elastic Constant Matrix: (Units=GPa)
#
#
# Indices 1 2 3 4 5 6 
#
# 1 59.4735 17.7120 33.1408 0.0000 0.0000 1.1567
# 2 17.7120 59.4735 33.1408 0.0000 0.0000 -1.1567
# 3 33.1408 33.1408 115.5017 0.0000 0.0000 0.0000
# 4 0.0000 0.0000 0.0000 25.8642 0.0000 0.0000
# 5 0.0000 0.0000 0.0000 0.0000 25.8642 0.0000
# 6 1.1567 -1.1567 0.0000 0.0000 0.0000 7.7573
#
#
#
# Elastic Compliance Matrix: (Units=1/GPa)
#
#
# Indices 1 2 3 4 5 6 
#
# 1 0.020668 -0.003477 -0.004933 0.000000 0.000000 -0.003600
# 2 -0.003477 0.020668 -0.004933 0.000000 0.000000 0.003600
# 3 -0.004933 -0.004933 0.011489 0.000000 0.000000 0.000000
# 4 0.000000 0.000000 0.000000 0.038664 0.000000 0.000000
# 5 0.000000 0.000000 0.000000 0.000000 0.038664 0.000000
# 6 -0.003600 0.003600 0.000000 0.000000 0.000000 0.129984
#
#
# Mechanical properties :
#
#
# Convention : Reuss Voigt Hill
#
# Bulk Modulus (GPa) = 38.25425 44.71511 41.48468
# Shear Modulus (GPa) = 16.91851 21.92748 19.42300
#
# Velocity S-wave (km/s) = 3.12434 3.55690 3.34761
# Velocity P-wave (km/s) = 5.92342 6.53207 6.23518
#
# Compressibility (1/GPa) = 0.02614089
#
# Stress axis : x y z
#
# Youngs Moduli (GPa) = 48.38316 48.38316 87.04258
#
# Poissons Ratio (x) = 0.16821 0.42937
# Poissons Ratio (y) = 0.16821 0.42937
# Poissons Ratio (z) = 0.23867 0.23867
#
# Static dielectric constant tensor:
#      x y z
#    x 3.157170 0.000000 0.000000 
#    y 0.000000 3.157170 0.000000 
#    z 0.000000 0.000000 3.690950 
# 
# 
# High freq. dielectric constant tensor:
#      x y z
#    x 1.640880 0.000000 0.000000 
#    y 0.000000 1.640880 0.000000 
#    z 0.000000 0.000000 1.671620 
# 
# From -- ./inp_files/4095.got.cif
#   From: 2010.03.12/outbox.cif.g09.slc.cpg/sg88_3_cif.got.tgz:4095.got - 2010.04.08 20:20:55.
