data_PCOD8304663
_publ_section_title
;
Structure prediction by ZEFSAII (Michael W. Deem and Ramdas Pophale) SiO2 
 PCOD8304663
Probable space group: P 4 21 2
;
_chemical_formula_sum "Si O2"
_cell_formula_units_Z 48
_cell_length_a 8.109296
_cell_length_b 8.109296
_cell_length_c 33.257842
_cell_angle_alpha 90.000000
_cell_angle_beta 90.000000
_cell_angle_gamma 90.000000
_cell_volume 2187.058359
_symmetry_space_group_name_H-M "P 4 21 2"
_symmetry_group_IT_number 90
_symmetry_cell_setting 'tetragonal'
loop_
_space_group_symop_operation_xyz
x,y,z
1/2-y,1/2+x,z
-x,-y,z
1/2+y,1/2-x,z
1/2+x,1/2-y,-z
1/2-x,1/2+y,-z
y,x,-z
-y,-x,-z
loop_
_atom_site_type_symbol
_atom_site_label
_atom_site_fract_x
_atom_site_fract_y
_atom_site_fract_z
Si Si1 0.737189 0.576704 0.036872
Si Si2 0.000000 0.000000 0.104451
Si Si3 0.582971 0.256875 0.667251
Si Si4 0.500000 0.500000 0.604115
Si Si5 0.241663 0.083493 0.757037
Si Si6 0.083749 0.761600 0.538000
Si Si7 0.428569 0.738082 0.171627
O O1 0.797382 0.388573 0.035297
O O2 0.631402 0.600365 0.077417
O O3 0.615435 0.615435 0.000000
O O4 0.127345 0.101370 0.132235
O O5 0.394318 0.204227 0.661325
O O6 0.618287 0.390617 0.632845
O O7 0.607382 0.330756 0.712040
O O8 0.622522 0.611053 0.576910
O O9 0.396573 0.203194 0.763852
O O10 0.098826 0.129674 0.788371
O O11 0.205619 0.606480 0.537867
O O12 0.123709 0.876292 0.500000
O O13 0.614960 0.799067 0.171123
#
# Coordination Sequence:
#
# PCOD8304663 Si02
#       7
#     8   4   8   4   8   8   8
#     4  11  24  43  68  95 124 162 207 254 308 371
#     4  12  23  41  62  88 126 164 202 247 303 370
#     4   9  20  37  58  86 119 158 202 244 294 360
#     4  12  21  35  60  90 122 154 194 251 311 356
#     4   9  19  38  61  84 115 159 207 248 292 354
#     4  11  24  42  63  88 120 159 204 251 304 368
#     4  11  24  39  59  89 122 158 202 254 308 357
#
# _framework density 21.947289000000001
#
# number of rings (size 3 to 8) (size 9 to 14) (size 15 to 20)
#    0.000    1.500    0.000    6.500    0.000    3.333 
#    0.000    5.000    0.000    2.000    0.000    0.000 
#    0.000    0.000    0.000    0.000    0.000    0.000 
#
# Total GULP energy -595269.849108 kJ/mol
# GULP energy per Si atom -12401.455190 kJ/mol
# Density = 2.189734 g / cm^3
# Si number density = 21.947289 Si / 1000 Ang^3
#
#
#
# Elastic Constant Matrix: (Units=GPa)
#
#
# Indices 1 2 3 4 5 6 
#
# 1 87.3281 42.1407 66.5425 0.0000 0.0000 0.0000
# 2 42.1407 87.3278 66.5424 0.0000 0.0000 0.0000
# 3 66.5425 66.5424 198.6647 0.0000 0.0000 0.0000
# 4 0.0000 0.0000 0.0000 31.4091 0.0000 0.0000
# 5 0.0000 0.0000 0.0000 0.0000 31.4090 0.0000
# 6 0.0000 0.0000 0.0000 0.0000 0.0000 32.8765
#
#
#
# Elastic Compliance Matrix: (Units=1/GPa)
#
#
# Indices 1 2 3 4 5 6 
#
# 1 0.016955 -0.005175 -0.003946 0.000000 0.000000 0.000000
# 2 -0.005175 0.016955 -0.003946 0.000000 0.000000 0.000000
# 3 -0.003946 -0.003946 0.007677 0.000000 0.000000 0.000000
# 4 0.000000 0.000000 0.000000 0.031838 0.000000 0.000000
# 5 0.000000 0.000000 0.000000 0.000000 0.031838 0.000000
# 6 0.000000 0.000000 0.000000 0.000000 0.000000 0.030417
#
#
# Mechanical properties :
#
#
# Convention : Reuss Voigt Hill
#
# Bulk Modulus (GPa) = 64.70927 80.41910 72.56419
# Shear Modulus (GPa) = 29.94668 32.34524 31.14596
#
# Velocity S-wave (km/s) = 3.69790 3.84314 3.77122
# Velocity P-wave (km/s) = 6.91235 7.51095 7.21786
#
# Compressibility (1/GPa) = 0.01545374
#
# Stress axis : x y z
#
# Youngs Moduli (GPa) = 58.98015 58.97986 130.26361
#
# Poissons Ratio (x) = 0.30524 0.51396
# Poissons Ratio (y) = 0.30524 0.51397
# Poissons Ratio (z) = 0.23271 0.23271
#
# Static dielectric constant tensor:
#      x y z
#    x 3.835770 0.000000 0.000000 
#    y 0.000000 3.835770 0.000000 
#    z 0.000000 0.000000 4.074930 
# 
# 
# High freq. dielectric constant tensor:
#      x y z
#    x 1.860910 0.000000 0.000000 
#    y 0.000000 1.860910 0.000000 
#    z 0.000000 0.000000 1.876220 
# 
# From -- ./inp_files/3100.got.cif
#   From: 2010.03.12/outbox.cif.g09.slc.cpg/sg90_2_cif.got.tgz:3100.got - 2010.04.08 20:26:03.
