data_PCOD8304528
_publ_section_title
;
Structure prediction by ZEFSAII (Michael W. Deem and Ramdas Pophale) SiO2 
 PCOD8304528
Probable space group: P 4 21 2
;
_chemical_formula_sum "Si O2"
_cell_formula_units_Z 52
_cell_length_a 17.882896
_cell_length_b 17.882896
_cell_length_c 8.979977
_cell_angle_alpha 90.000000
_cell_angle_beta 90.000000
_cell_angle_gamma 90.000000
_cell_volume 2871.778409
_symmetry_space_group_name_H-M "P 4 21 2"
_symmetry_group_IT_number 90
_symmetry_cell_setting 'tetragonal'
loop_
_space_group_symop_operation_xyz
x,y,z
1/2-y,1/2+x,z
-x,-y,z
1/2+y,1/2-x,z
1/2+x,1/2-y,-z
1/2-x,1/2+y,-z
y,x,-z
-y,-x,-z
loop_
_atom_site_type_symbol
_atom_site_label
_atom_site_fract_x
_atom_site_fract_y
_atom_site_fract_z
Si Si1 0.613653 0.613653 0.160674
Si Si2 0.997590 0.622136 0.329839
Si Si3 0.993531 0.777395 0.177329
Si Si4 0.506470 0.277395 0.177330
Si Si5 0.614203 0.385799 0.333923
Si Si6 0.622136 0.997589 0.329839
Si Si7 0.000000 0.000000 0.243349
O O1 0.683110 0.570734 0.241214
O O2 0.570733 0.683110 0.241214
O O3 0.550416 0.550417 0.135985
O O4 0.641952 0.641952 0.000000
O O5 0.925126 0.571972 0.298027
O O6 0.996296 0.690979 0.217917
O O7 0.997008 0.650629 0.500000
O O8 0.919052 0.814025 0.247416
O O9 0.990056 0.787746 1.000000
O O10 0.580949 0.314027 0.247414
O O11 0.503706 0.190980 0.217919
O O12 0.638787 0.361214 0.500000
O O13 0.550991 0.449010 0.349422
O O14 0.574874 0.071972 0.298028
#
# Coordination Sequence:
#
# PCOD8304528 Si02
#       7
#     8   8   8   8   8   8   4
#     4   8  15  27  44  69 103 137 163 196 246 297
#     4   9  19  37  58  76  96 127 169 215 260 307
#     4  10  19  32  51  76 105 136 171 209 251 301
#     4  10  19  32  51  76 105 136 171 209 251 301
#     4  10  18  29  47  72 104 138 170 206 250 299
#     4   9  19  37  58  76  96 127 169 215 260 307
#     4   8  14  24  42  68  95 130 175 210 233 276
#
# _framework density 18.107244999999999
#
# number of rings (size 3 to 8) (size 9 to 14) (size 15 to 20)
#    0.000    2.769    0.000    2.769    0.000    4.923 
#    0.000    5.385    0.000    7.385    0.000    0.000 
#    0.000    0.000    0.000    0.000    0.000    0.000 
#
# Total GULP energy -644236.321898 kJ/mol
# GULP energy per Si atom -12389.160037 kJ/mol
# Density = 1.806603 g / cm^3
# Si number density = 18.107245 Si / 1000 Ang^3
#
#
#
# Elastic Constant Matrix: (Units=GPa)
#
#
# Indices 1 2 3 4 5 6 
#
# 1 105.1169 36.3028 36.7358 0.0000 0.0000 0.0000
# 2 36.3028 105.1170 36.7358 0.0000 0.0000 0.0000
# 3 36.7358 36.7358 84.6158 0.0000 0.0000 0.0000
# 4 0.0000 0.0000 0.0000 26.6860 0.0000 0.0000
# 5 0.0000 0.0000 0.0000 0.0000 26.6860 0.0000
# 6 0.0000 0.0000 0.0000 0.0000 0.0000 13.4110
#
#
#
# Elastic Compliance Matrix: (Units=1/GPa)
#
#
# Indices 1 2 3 4 5 6 
#
# 1 0.011831 -0.002701 -0.003964 0.000000 0.000000 0.000000
# 2 -0.002701 0.011831 -0.003964 0.000000 0.000000 0.000000
# 3 -0.003964 -0.003964 0.015260 0.000000 0.000000 0.000000
# 4 0.000000 0.000000 0.000000 0.037473 0.000000 0.000000
# 5 0.000000 0.000000 0.000000 0.000000 0.037473 0.000000
# 6 0.000000 0.000000 0.000000 0.000000 0.000000 0.074566
#
#
# Mechanical properties :
#
#
# Convention : Reuss Voigt Hill
#
# Bulk Modulus (GPa) = 56.60870 57.15537 56.88204
# Shear Modulus (GPa) = 23.19330 25.69496 24.44413
#
# Velocity S-wave (km/s) = 3.58283 3.77111 3.67817
# Velocity P-wave (km/s) = 6.96035 7.11302 7.03710
#
# Compressibility (1/GPa) = 0.01766513
#
# Stress axis : x y z
#
# Youngs Moduli (GPa) = 84.52204 84.52206 65.53056
#
# Poissons Ratio (x) = 0.22827 0.25976
# Poissons Ratio (y) = 0.22827 0.25976
# Poissons Ratio (z) = 0.33505 0.33505
#
# Static dielectric constant tensor:
#      x y z
#    x 3.241720 0.000000 0.000000 
#    y 0.000000 3.241720 0.000000 
#    z 0.000000 0.000000 3.092250 
# 
# 
# High freq. dielectric constant tensor:
#      x y z
#    x 1.688660 0.000000 0.000000 
#    y 0.000000 1.688660 0.000000 
#    z 0.000000 0.000000 1.689540 
# 
# From -- ./inp_files/1593.got.cif
#   From: 2010.03.12/outbox.cif.g09.slc.cpg/sg90_1_cif.got.tgz:1593.got - 2010.04.08 20:26:03.
