data_PCOD8304824
_publ_section_title
;
Structure prediction by ZEFSAII (Michael W. Deem and Ramdas Pophale) SiO2 
 PCOD8304824
Probable space group: P 41 2 2
;
_chemical_formula_sum "Si O2"
_cell_formula_units_Z 40
_cell_length_a 9.345100
_cell_length_b 9.345100
_cell_length_c 23.020118
_cell_angle_alpha 90.000000
_cell_angle_beta 90.000000
_cell_angle_gamma 90.000000
_cell_volume 2010.367485
_symmetry_space_group_name_H-M "P 41 2 2"
_symmetry_group_IT_number 91
_symmetry_cell_setting 'tetragonal'
loop_
_space_group_symop_operation_xyz
x,y,z
-y,x,1/4+z
-x,-y,1/2+z
y,-x,3/4+z
x,-y,1/2-z
-x,y,-z
y,x,3/4-z
-y,-x,1/4-z
loop_
_atom_site_type_symbol
_atom_site_label
_atom_site_fract_x
_atom_site_fract_y
_atom_site_fract_z
Si Si1 0.334301 0.507730 0.487971
Si Si2 0.682512 0.170458 0.176765
Si Si3 0.151494 0.932289 0.481574
Si Si4 0.155747 0.310712 0.101981
Si Si5 0.186936 0.342494 0.237626
O O1 0.500000 0.551455 0.500000
O O2 0.239925 0.543279 0.544479
O O3 0.269346 0.587372 0.431356
O O4 0.318588 0.337723 0.479992
O O5 0.728705 0.271296 0.125000
O O6 0.810874 0.185667 0.221872
O O7 0.640657 0.008596 0.159178
O O8 0.162518 0.854823 0.418960
O O9 0.000000 0.997199 0.500000
O O10 0.252015 0.067670 0.480079
O O11 0.195904 0.311668 0.169204
O O12 0.132360 0.500000 0.250000
#
# Coordination Sequence:
#
# PCOD8304824 Si02
#       5
#     8   8   8   8   8
#     4  10  24  38  59  89 125 163 203 251 315 374
#     4  10  19  38  65  89 116 159 206 255 307 364
#     4   9  20  38  62  89 120 154 204 252 309 369
#     4  10  22  42  62  89 127 157 205 267 300 365
#     4  11  24  40  60  92 127 161 208 255 309 377
#
# _framework density 19.896858999999999
#
# number of rings (size 3 to 8) (size 9 to 14) (size 15 to 20)
#    0.000    2.000    2.000    1.800    2.800    8.800 
#    0.000    2.000    0.000    0.000    0.000    0.000 
#    0.000    0.000    0.000    0.000    0.000    0.000 
#
# Total GULP energy -495799.161336 kJ/mol
# GULP energy per Si atom -12394.979033 kJ/mol
# Density = 1.985157 g / cm^3
# Si number density = 19.896859 Si / 1000 Ang^3
#
#
#
# Elastic Constant Matrix: (Units=GPa)
#
#
# Indices 1 2 3 4 5 6 
#
# 1 105.1069 64.6740 17.6324 0.0000 0.0000 0.0000
# 2 64.6740 105.1066 17.6327 0.0000 0.0000 0.0000
# 3 17.6324 17.6327 80.4445 0.0000 0.0000 0.0000
# 4 0.0000 0.0000 0.0000 -46.5239 0.0000 0.0000
# 5 0.0000 0.0000 0.0000 0.0000 -46.5204 0.0000
# 6 0.0000 0.0000 0.0000 0.0000 0.0000 42.7331
#
#
#
# Elastic Compliance Matrix: (Units=1/GPa)
#
#
# Indices 1 2 3 4 5 6 
#
# 1 0.015452 -0.009281 -0.001353 0.000000 0.000000 0.000000
# 2 -0.009281 0.015452 -0.001353 0.000000 0.000000 0.000000
# 3 -0.001353 -0.001353 0.013024 0.000000 0.000000 0.000000
# 4 0.000000 0.000000 0.000000 -0.021494 0.000000 0.000000
# 5 0.000000 0.000000 0.000000 0.000000 -0.021496 0.000000
# 6 0.000000 0.000000 0.000000 0.000000 0.000000 0.023401
#
#
# Mechanical properties :
#
#
# Convention : Reuss Voigt Hill
#
# Bulk Modulus (GPa) = 50.11201 54.50403 52.30802
# Shear Modulus (GPa) = 90.97255 2.65237 46.81246
#
# Velocity S-wave (km/s) = 6.76915 1.15583 4.85578
# Velocity P-wave (km/s) = 9.29170 5.40685 7.60163
#
# Compressibility (1/GPa) = 0.01995530
#
# Stress axis : x y z
#
# Youngs Moduli (GPa) = 64.71810 64.71778 76.78206
#
# Poissons Ratio (x) = 0.60063 0.10385
# Poissons Ratio (y) = 0.60063 0.10386
# Poissons Ratio (z) = 0.08753 0.08754
#
# Static dielectric constant tensor:
#      x y z
#    x 4.308170 0.000000 0.000000 
#    y 0.000000 4.308080 0.000000 
#    z 0.000000 0.000000 2.545190 
# 
# 
# High freq. dielectric constant tensor:
#      x y z
#    x 1.779190 0.000000 0.000000 
#    y 0.000000 1.779190 0.000000 
#    z 0.000000 0.000000 1.773030 
# 
# From -- ./inp_files/6748.got.cif
#   From: 2010.03.12/outbox.cif.g09.slc.cpg/sg91_4_cif.got.tgz:6748.got - 2010.04.08 20:27:58.
