data_PCOD8304511
_publ_section_title
;
Structure prediction by ZEFSAII (Michael W. Deem and Ramdas Pophale) SiO2 
 PCOD8304511
Probable space group: P 4 2 2
;
_chemical_formula_sum "Si O2"
_cell_formula_units_Z 48
_cell_length_a 8.352735
_cell_length_b 8.352735
_cell_length_c 29.829804
_cell_angle_alpha 90.000000
_cell_angle_beta 90.000000
_cell_angle_gamma 90.000000
_cell_volume 2081.171194
_symmetry_space_group_name_H-M "P 4 2 2"
_symmetry_group_IT_number 89
_symmetry_cell_setting 'tetragonal'
loop_
_space_group_symop_operation_xyz
x,y,z
-y,x,z
-x,-y,z
y,-x,z
x,-y,-z
-x,y,-z
y,x,-z
-y,-x,-z
loop_
_atom_site_type_symbol
_atom_site_label
_atom_site_fract_x
_atom_site_fract_y
_atom_site_fract_z
Si Si1 0.419350 0.247673 0.115850
Si Si2 0.968475 0.742157 0.948857
Si Si3 0.153835 0.207663 0.637161
Si Si4 0.635033 0.278298 0.721214
Si Si5 0.305366 0.323482 0.550123
Si Si6 0.764239 0.114374 0.803876
O O1 0.601271 0.301716 0.109213
O O2 0.404733 0.100262 0.080169
O O3 0.379670 0.178012 0.164932
O O4 0.133232 0.826244 0.936345
O O5 0.000000 0.689773 0.000000
O O6 0.239230 0.336905 0.668966
O O7 0.189004 0.238147 0.585025
O O8 0.967279 0.220601 0.647965
O O9 0.716337 0.447842 0.731883
O O10 0.714417 0.142602 0.752338
O O11 0.489051 0.278194 0.557770
O O12 0.263257 0.263257 0.500000
O O13 0.927607 0.210480 0.813700
#
# Coordination Sequence:
#
# PCOD8304511 Si02
#       6
#     8   8   8   8   8   8
#     4  11  24  41  63  95 132 167 207 253 302 360
#     4   9  19  39  63  89 119 154 200 248 294 349
#     4  11  24  39  56  83 120 160 203 252 307 370
#     4  11  24  41  62  90 123 159 203 253 305 365
#     4   9  19  37  60  85 113 149 199 257 314 374
#     4  11  24  41  64  95 128 163 206 252 299 359
#
# _framework density 23.063938
#
# number of rings (size 3 to 8) (size 9 to 14) (size 15 to 20)
#    0.000    1.667    0.000    5.000    0.000   14.667 
#    0.000   10.833    0.000    4.000    0.000    0.000 
#    0.000    0.000    0.000    0.000    0.000    0.000 
#
# Total GULP energy -595001.006632 kJ/mol
# GULP energy per Si atom -12395.854305 kJ/mol
# Density = 2.301144 g / cm^3
# Si number density = 23.063938 Si / 1000 Ang^3
#
#
#
# Elastic Constant Matrix: (Units=GPa)
#
#
# Indices 1 2 3 4 5 6 
#
# 1 38.8255 35.3395 34.7565 0.0000 0.0000 0.0000
# 2 35.3395 38.8255 34.7565 0.0000 0.0000 0.0000
# 3 34.7565 34.7565 133.4316 0.0000 0.0000 0.0000
# 4 0.0000 0.0000 0.0000 30.2797 0.0000 0.0000
# 5 0.0000 0.0000 0.0000 0.0000 30.2797 0.0000
# 6 0.0000 0.0000 0.0000 0.0000 0.0000 40.6037
#
#
#
# Elastic Compliance Matrix: (Units=1/GPa)
#
#
# Indices 1 2 3 4 5 6 
#
# 1 0.152351 -0.134512 -0.004647 0.000000 0.000000 0.000000
# 2 -0.134512 0.152351 -0.004647 0.000000 0.000000 0.000000
# 3 -0.004647 -0.004647 0.009915 0.000000 0.000000 0.000000
# 4 0.000000 0.000000 0.000000 0.033025 0.000000 0.000000
# 5 0.000000 0.000000 0.000000 0.000000 0.033025 0.000000
# 6 0.000000 0.000000 0.000000 0.000000 0.000000 0.024628
#
#
# Mechanical properties :
#
#
# Convention : Reuss Voigt Hill
#
# Bulk Modulus (GPa) = 37.02896 46.75419 41.89157
# Shear Modulus (GPa) = 7.12343 27.31464 17.21903
#
# Velocity S-wave (km/s) = 1.75934 3.44510 2.73532
# Velocity P-wave (km/s) = 4.49631 6.01170 5.30836
#
# Compressibility (1/GPa) = 0.02700589
#
# Stress axis : x y z
#
# Youngs Moduli (GPa) = 6.56379 6.56379 100.85527
#
# Poissons Ratio (x) = 0.88291 0.46864
# Poissons Ratio (y) = 0.88291 0.46864
# Poissons Ratio (z) = 0.03050 0.03050
#
# Static dielectric constant tensor:
#      x y z
#    x 4.115690 0.000000 0.000000 
#    y 0.000000 4.115690 0.000000 
#    z 0.000000 0.000000 3.978320 
# 
# 
# High freq. dielectric constant tensor:
#      x y z
#    x 1.914920 0.000000 0.000000 
#    y 0.000000 1.914920 0.000000 
#    z 0.000000 0.000000 1.912450 
# 
# From -- ./inp_files/2961.got.cif
#   From: 2010.03.12/outbox.cif.g09.slc.cpg/sg89_2_cif.got.tgz:2961.got - 2010.04.08 20:24:03.
