data_PCOD8304937
_publ_section_title
;
Structure prediction by ZEFSAII (Michael W. Deem and Ramdas Pophale) SiO2 
 PCOD8304937
Probable space group: P 41 2 2
;
_chemical_formula_sum "Si O2"
_cell_formula_units_Z 48
_cell_length_a 15.462978
_cell_length_b 15.462978
_cell_length_c 12.594807
_cell_angle_alpha 90.000000
_cell_angle_beta 90.000000
_cell_angle_gamma 90.000000
_cell_volume 3011.464811
_symmetry_space_group_name_H-M "P 41 2 2"
_symmetry_group_IT_number 91
_symmetry_cell_setting 'tetragonal'
loop_
_space_group_symop_operation_xyz
x,y,z
-y,x,1/4+z
-x,-y,1/2+z
y,-x,3/4+z
x,-y,1/2-z
-x,y,-z
y,x,3/4-z
-y,-x,1/4-z
loop_
_atom_site_type_symbol
_atom_site_label
_atom_site_fract_x
_atom_site_fract_y
_atom_site_fract_z
Si Si1 0.752051 0.584831 0.617459
Si Si2 0.095727 0.611455 0.977863
Si Si3 0.094580 0.404597 0.968972
Si Si4 0.385806 0.757746 0.110149
Si Si5 0.146974 0.404438 0.746052
Si Si6 0.595582 0.651228 0.490011
O O1 0.829320 0.625922 0.547732
O O2 0.779514 0.612037 0.735729
O O3 0.738518 0.482612 0.601272
O O4 0.658905 0.620775 0.583478
O O5 0.097941 0.508129 0.972487
O O6 0.119890 0.647162 0.860363
O O7 0.160877 0.647607 0.068901
O O8 0.000000 0.646679 0.000000
O O9 0.113726 0.360482 0.854602
O O10 0.000000 0.369984 0.000000
O O11 0.325476 0.674525 0.125000
O O12 0.104302 0.500000 0.750000
O O13 0.248270 0.413986 0.745267
O O14 0.500000 0.608254 0.500000
O O15 0.632806 0.632806 0.375000
#
# Coordination Sequence:
#
# PCOD8304937 Si02
#       6
#     8   8   8   8   8   8
#     4  10  21  34  47  68  90 125 171 205 245 293
#     4   9  18  30  48  69  87 116 154 191 244 298
#     4   9  17  29  47  68  90 113 150 202 251 292
#     4  10  21  34  48  63  97 126 157 202 248 284
#     4   9  17  30  47  64  88 116 153 199 242 286
#     4  11  22  34  49  65  91 129 175 215 245 274
#
# _framework density 15.939088
#
# number of rings (size 3 to 8) (size 9 to 14) (size 15 to 20)
#    0.000    2.333    1.667    1.000    7.000    0.667 
#    0.000    0.000    0.000    0.000    0.000    0.000 
#    0.000    0.000    0.000    7.500    0.000    2.333 
#
# Total GULP energy -594781.540076 kJ/mol
# GULP energy per Si atom -12391.282085 kJ/mol
# Density = 1.590281 g / cm^3
# Si number density = 15.939088 Si / 1000 Ang^3
#
#
#
# Elastic Constant Matrix: (Units=GPa)
#
#
# Indices 1 2 3 4 5 6 
#
# 1 64.0339 30.9841 44.2447 0.0000 0.0000 0.0000
# 2 30.9841 64.0363 44.2433 0.0000 0.0000 0.0000
# 3 44.2447 44.2433 141.1778 0.0000 0.0000 0.0000
# 4 0.0000 0.0000 0.0000 25.8427 0.0000 0.0000
# 5 0.0000 0.0000 0.0000 0.0000 25.8424 0.0000
# 6 0.0000 0.0000 0.0000 0.0000 0.0000 -1.2093
#
#
#
# Elastic Compliance Matrix: (Units=1/GPa)
#
#
# Indices 1 2 3 4 5 6 
#
# 1 0.022560 -0.007697 -0.004658 0.000000 0.000000 0.000000
# 2 -0.007697 0.022558 -0.004657 0.000000 0.000000 0.000000
# 3 -0.004658 -0.004657 0.010003 0.000000 0.000000 0.000000
# 4 0.000000 0.000000 0.000000 0.038696 0.000000 0.000000
# 5 0.000000 0.000000 0.000000 0.000000 0.038696 0.000000
# 6 0.000000 0.000000 0.000000 0.000000 0.000000 -0.826911
#
#
# Mechanical properties :
#
#
# Convention : Reuss Voigt Hill
#
# Bulk Modulus (GPa) = 47.40319 56.46580 51.93449
# Shear Modulus (GPa) = -7.65295 20.08022 6.21363
#
# Velocity S-wave (km/s) = -2.19358 3.55323 1.97657
# Velocity P-wave (km/s) = 4.83622 7.23442 6.15329
#
# Compressibility (1/GPa) = 0.02109563
#
# Stress axis : x y z
#
# Youngs Moduli (GPa) = 44.32689 44.32984 99.97495
#
# Poissons Ratio (x) = 0.34122 0.46567
# Poissons Ratio (y) = 0.34120 0.46559
# Poissons Ratio (z) = 0.20647 0.20645
#
# Static dielectric constant tensor:
#      x y z
#    x 2.848030 0.000000 0.000000 
#    y 0.000000 2.848030 0.000000 
#    z 0.000000 0.000000 3.363280 
# 
# 
# High freq. dielectric constant tensor:
#      x y z
#    x 1.574360 0.000000 0.000000 
#    y 0.000000 1.574360 0.000000 
#    z 0.000000 0.000000 1.640300 
# 
# From -- ./inp_files/10735.got.cif
#   From: 2010.03.12/outbox.cif.g09.slc.cpg/sg91_6_cif.got.tgz:10735.got - 2010.04.08 20:27:58.
