data_PCOD8304109
_publ_section_title
;
Structure prediction by ZEFSAII (Michael W. Deem and Ramdas Pophale) SiO2 
 PCOD8304109
Probable space group: I 4/M
;
_chemical_formula_sum "Si O2"
_cell_formula_units_Z 120
_cell_length_a 26.812252
_cell_length_b 26.812252
_cell_length_c 8.410985
_cell_angle_alpha 90.000000
_cell_angle_beta 90.000000
_cell_angle_gamma 90.000000
_cell_volume 6046.630683
_symmetry_space_group_name_H-M "I 4/M"
_symmetry_group_IT_number 87
_symmetry_cell_setting 'tetragonal'
loop_
_space_group_symop_operation_xyz
x,y,z
-y,x,z
-x,-y,z
y,-x,z
-x,-y,-z
y,-x,-z
x,y,-z
-y,x,-z
1/2+x,1/2+y,1/2+z
1/2-y,1/2+x,1/2+z
1/2-x,1/2-y,1/2+z
1/2+y,1/2-x,1/2+z
1/2-x,1/2-y,1/2-z
1/2+y,1/2-x,1/2-z
1/2+x,1/2+y,1/2-z
1/2-y,1/2+x,1/2-z
loop_
_atom_site_type_symbol
_atom_site_label
_atom_site_fract_x
_atom_site_fract_y
_atom_site_fract_z
Si Si1 0.485650 0.581297 0.000000
Si Si2 0.689054 0.839692 0.684963
Si Si3 0.325401 0.463895 0.176641
Si Si4 0.144511 0.241878 0.314853
Si Si5 0.855716 0.198421 0.311961
Si Si6 0.011839 0.353193 0.315056
Si Si7 0.087832 0.608940 0.184368
Si Si8 0.962500 0.749691 0.817889
O O1 0.442607 0.540059 0.000000
O O2 0.479091 0.616113 0.157220
O O3 0.683173 0.853466 0.500000
O O4 0.673060 0.783043 0.712661
O O5 0.745346 0.846476 0.745286
O O6 0.655779 0.876412 0.789264
O O7 0.321206 0.408775 0.253796
O O8 0.297162 0.502318 0.289518
O O9 0.299964 0.464322 0.000000
O O10 0.157524 0.249312 0.500000
O O11 0.163073 0.188530 0.248171
O O12 0.085452 0.246286 0.294014
O O13 0.855838 0.194715 0.500000
O O14 0.017192 0.341027 0.500000
O O15 0.059423 0.384343 0.253932
O O16 0.007963 0.301119 0.220920
O O17 0.962719 0.385540 0.283635
O O18 0.074030 0.604595 0.000000
O O19 0.945327 0.749419 0.000000
#
# Coordination Sequence:
#
# PCOD8304109 Si02
#       8
#     8  16  16  16  16  16  16  16
#     4   9  20  36  66 102 126 158 218 271 318 384
#     4  11  21  37  59  88 126 164 207 251 303 371
#     4   9  20  36  64  87 122 159 204 257 319 367
#     4  11  22  37  61  86 122 163 208 254 310 368
#     4   9  20  36  58  90 121 159 204 250 308 369
#     4  11  24  42  64  88 120 158 202 254 313 363
#     4  11  24  41  63  89 119 158 204 253 307 368
#     4  12  24  39  60  90 122 160 210 257 306 378
#
# _framework density 19.845763000000002
#
# number of rings (size 3 to 8) (size 9 to 14) (size 15 to 20)
#    0.400    1.133    1.333    4.000    1.867    2.933 
#    0.000    5.333    0.000    0.000    0.000    0.933 
#    0.000    0.000    0.000    0.000    0.000    0.000 
#
# Total GULP energy -744190.290139 kJ/mol
# GULP energy per Si atom -12403.171502 kJ/mol
# Density = 1.980059 g / cm^3
# Si number density = 19.845763 Si / 1000 Ang^3
#
#
#
# Elastic Constant Matrix: (Units=GPa)
#
#
# Indices 1 2 3 4 5 6 
#
# 1 132.9363 57.2924 16.7460 0.0000 0.0000 -0.3131
# 2 57.2924 132.9363 16.7460 0.0000 0.0000 0.3131
# 3 16.7460 16.7460 42.1448 0.0000 0.0000 0.0000
# 4 0.0000 0.0000 0.0000 24.9505 0.0000 0.0000
# 5 0.0000 0.0000 0.0000 0.0000 24.9505 0.0000
# 6 -0.3131 0.3131 0.0000 0.0000 0.0000 32.8429
#
#
#
# Elastic Compliance Matrix: (Units=1/GPa)
#
#
# Indices 1 2 3 4 5 6 
#
# 1 0.009437 -0.003784 -0.002246 0.000000 0.000000 0.000126
# 2 -0.003784 0.009437 -0.002246 0.000000 0.000000 -0.000126
# 3 -0.002246 -0.002246 0.025512 0.000000 0.000000 0.000000
# 4 0.000000 0.000000 0.000000 0.040079 0.000000 0.000000
# 5 0.000000 0.000000 0.000000 0.000000 0.040079 0.000000
# 6 0.000126 -0.000126 0.000000 0.000000 0.000000 0.030450
#
#
# Mechanical properties :
#
#
# Convention : Reuss Voigt Hill
#
# Bulk Modulus (GPa) = 35.92801 54.39845 45.16323
# Shear Modulus (GPa) = 27.65109 31.03098 29.34103
#
# Velocity S-wave (km/s) = 3.73674 3.95854 3.84924
# Velocity P-wave (km/s) = 6.06305 6.95439 6.52396
#
# Compressibility (1/GPa) = 0.02783344
#
# Stress axis : x y z
#
# Youngs Moduli (GPa) = 105.97074 105.97074 39.19653
#
# Poissons Ratio (x) = 0.40103 0.08803
# Poissons Ratio (y) = 0.40103 0.08803
# Poissons Ratio (z) = 0.23800 0.23800
#
# Static dielectric constant tensor:
#      x y z
#    x 3.710050 0.000000 0.000000 
#    y 0.000000 3.710050 0.000000 
#    z 0.000000 0.000000 3.310750 
# 
# 
# High freq. dielectric constant tensor:
#      x y z
#    x 1.781720 0.000000 0.000000 
#    y 0.000000 1.781720 0.000000 
#    z 0.000000 0.000000 1.749230 
# 
# From -- ./inp_files/1726.got.cif
#   From: 2010.03.12/outbox.cif.g09.slc.cpg/sg87_1_cif.got.tgz:1726.got - 2010.04.08 20:16:13.
