data_PCOD8304746
_publ_section_title
;
Structure prediction by ZEFSAII (Michael W. Deem and Ramdas Pophale) SiO2 
 PCOD8304746
Probable space group: P 41 2 2
;
_chemical_formula_sum "Si O2"
_cell_formula_units_Z 64
_cell_length_a 18.871656
_cell_length_b 18.871656
_cell_length_c 11.408930
_cell_angle_alpha 90.000000
_cell_angle_beta 90.000000
_cell_angle_gamma 90.000000
_cell_volume 4063.169487
_symmetry_space_group_name_H-M "P 41 2 2"
_symmetry_group_IT_number 91
_symmetry_cell_setting 'tetragonal'
loop_
_space_group_symop_operation_xyz
x,y,z
-y,x,1/4+z
-x,-y,1/2+z
y,-x,3/4+z
x,-y,1/2-z
-x,y,-z
y,x,3/4-z
-y,-x,1/4-z
loop_
_atom_site_type_symbol
_atom_site_label
_atom_site_fract_x
_atom_site_fract_y
_atom_site_fract_z
Si Si1 0.214260 0.375307 0.407925
Si Si2 0.208132 0.357510 0.138169
Si Si3 0.271893 0.334579 0.642403
Si Si4 0.578440 0.848236 0.499103
Si Si5 0.489896 0.694607 0.868493
Si Si6 0.584807 0.600593 0.504843
Si Si7 0.922670 0.565824 0.013489
Si Si8 0.596311 0.079856 0.247122
O O1 0.213186 0.343734 0.277831
O O2 0.245448 0.324305 0.508026
O O3 0.267047 0.440749 0.427874
O O4 0.132965 0.392772 0.434590
O O5 0.255012 0.296823 0.073571
O O6 0.244437 0.431366 0.106292
O O7 0.128016 0.359103 0.089113
O O8 0.209139 0.361078 0.725495
O O9 0.336681 0.390525 0.657736
O O10 0.500000 0.811288 0.500000
O O11 0.572561 0.906954 0.599321
O O12 0.602101 0.886263 0.381028
O O13 0.471986 0.623258 0.796402
O O14 0.500000 0.668412 0.000000
O O15 0.500000 0.590812 0.500000
O O16 0.615206 0.615206 0.375000
O O17 0.923138 0.485535 0.965106
O O18 0.000000 0.600311 0.000000
O O19 0.628257 0.000000 0.250000
#
# Coordination Sequence:
#
# PCOD8304746 Si02
#       8
#     8   8   8   8   8   8   8   8
#     4  10  18  34  51  68  94 120 161 205 248 292
#     4  10  20  31  50  71  91 127 162 197 246 294
#     4  10  21  33  50  67  91 125 163 207 240 297
#     4   9  19  32  47  69  98 126 159 204 250 287
#     4   9  19  34  49  66  87 117 153 204 257 302
#     4  11  23  34  49  67  86 118 163 210 267 311
#     4   9  18  30  49  71  96 126 156 196 249 302
#     4  10  20  31  46  72  99 123 158 199 250 300
#
# _framework density 15.751251
#
# number of rings (size 3 to 8) (size 9 to 14) (size 15 to 20)
#    0.000    2.250    1.250    1.500    5.250    0.500 
#    0.000    2.500    0.000    0.000    0.000    0.000 
#    0.000    0.000    0.000    0.000    0.000   20.000 
#
# Total GULP energy -793110.358983 kJ/mol
# GULP energy per Si atom -12392.349359 kJ/mol
# Density = 1.571540 g / cm^3
# Si number density = 15.751251 Si / 1000 Ang^3
#
#
#
# Elastic Constant Matrix: (Units=GPa)
#
#
# Indices 1 2 3 4 5 6 
#
# 1 87.0791 39.5830 30.3795 0.0000 0.0000 0.0000
# 2 39.5830 87.0791 30.3795 0.0000 0.0000 0.0000
# 3 30.3795 30.3795 66.9092 0.0000 0.0000 0.0000
# 4 0.0000 0.0000 0.0000 13.3592 0.0000 0.0000
# 5 0.0000 0.0000 0.0000 0.0000 13.3592 0.0000
# 6 0.0000 0.0000 0.0000 0.0000 0.0000 14.0317
#
#
#
# Elastic Compliance Matrix: (Units=1/GPa)
#
#
# Indices 1 2 3 4 5 6 
#
# 1 0.015574 -0.005481 -0.004583 0.000000 0.000000 0.000000
# 2 -0.005481 0.015574 -0.004583 0.000000 0.000000 0.000000
# 3 -0.004583 -0.004583 0.019107 0.000000 0.000000 0.000000
# 4 0.000000 0.000000 0.000000 0.074855 0.000000 0.000000
# 5 0.000000 0.000000 0.000000 0.000000 0.074855 0.000000
# 6 0.000000 0.000000 0.000000 0.000000 0.000000 0.071267
#
#
# Mechanical properties :
#
#
# Convention : Reuss Voigt Hill
#
# Bulk Modulus (GPa) = 47.70376 49.08350 48.39363
# Shear Modulus (GPa) = 16.25958 17.53172 16.89565
#
# Velocity S-wave (km/s) = 3.21638 3.33984 3.27869
# Velocity P-wave (km/s) = 6.64417 6.78985 6.71740
#
# Compressibility (1/GPa) = 0.02096271
#
# Stress axis : x y z
#
# Youngs Moduli (GPa) = 64.21010 64.21010 52.33631
#
# Poissons Ratio (x) = 0.35190 0.23985
# Poissons Ratio (y) = 0.35190 0.23985
# Poissons Ratio (z) = 0.29426 0.29426
#
# Static dielectric constant tensor:
#      x y z
#    x 2.833190 0.000000 0.000000 
#    y 0.000000 2.833190 0.000000 
#    z 0.000000 0.000000 3.104840 
# 
# 
# High freq. dielectric constant tensor:
#      x y z
#    x 1.573660 0.000000 0.000000 
#    y 0.000000 1.573660 0.000000 
#    z 0.000000 0.000000 1.620690 
# 
# From -- ./inp_files/10947.got.cif
#   From: 2010.03.12/outbox.cif.g09.slc.cpg/sg91_6_cif.got.tgz:10947.got - 2010.04.08 20:27:58.
