data_PCOD8304206
_publ_section_title
;
Structure prediction by ZEFSAII (Michael W. Deem and Ramdas Pophale) SiO2 
 PCOD8304206
Probable space group: I 41/A
;
_chemical_formula_sum "Si O2"
_cell_formula_units_Z 112
_cell_length_a 15.146738
_cell_length_b 15.146738
_cell_length_c 25.838837
_cell_angle_alpha 90.000000
_cell_angle_beta 90.000000
_cell_angle_gamma 90.000000
_cell_volume 5928.040866
_symmetry_space_group_name_H-M "I 41/A"
_symmetry_group_IT_number 88
_space_group.IT_coordinate_system_code '2'
_symmetry_cell_setting 'tetragonal'
loop_
_space_group_symop_operation_xyz
x,y,z
3/4-y,1/4+x,1/4+z
-x,1/2-y,z
1/4+y,1/4-x,1/4+z
-x,-y,-z
1/4+y,3/4-x,3/4-z
x,1/2+y,-z
3/4-y,3/4+x,3/4-z
1/2+x,1/2+y,1/2+z
1/4-y,3/4+x,3/4+z
1/2-x,-y,1/2+z
3/4+y,3/4-x,3/4+z
1/2-x,1/2-y,1/2-z
3/4+y,1/4-x,1/4-z
1/2+x,y,1/2-z
1/4-y,1/4+x,1/4-z
loop_
_atom_site_type_symbol
_atom_site_label
_atom_site_fract_x
_atom_site_fract_y
_atom_site_fract_z
Si Si1 0.665559 0.015903 0.820459
Si Si2 0.193353 0.842150 0.211250
Si Si3 0.883526 0.552561 0.955680
Si Si4 0.082600 0.528547 0.937349
Si Si5 0.762650 0.325361 0.424405
Si Si6 0.387083 0.503322 0.710381
Si Si7 0.407100 0.015364 0.070147
O O1 0.726779 0.927483 0.820687
O O2 0.598263 0.004724 0.772257
O O3 0.608473 0.026348 0.872960
O O4 0.722678 0.104546 0.811948
O O5 0.107750 0.901498 0.204301
O O6 0.196020 0.826742 0.273416
O O7 0.179411 0.749145 0.180645
O O8 0.830333 0.643597 0.949421
O O9 0.980624 0.558916 0.930713
O O10 0.899971 0.539493 0.016556
O O11 0.109012 0.479843 0.884513
O O12 0.146707 0.611391 0.945492
O O13 0.768265 0.221527 0.427203
O O14 0.315210 0.432553 0.693129
#
# Coordination Sequence:
#
# PCOD8304206 Si02
#       7
#    16  16  16  16  16  16  16
#     4   9  18  35  55  74 101 135 173 215 257 301
#     4   9  21  34  53  78  98 136 174 207 264 321
#     4   9  20  34  51  76 103 136 176 211 250 316
#     4  10  19  35  53  72 105 140 170 211 263 299
#     4  11  20  33  53  77 104 134 174 214 256 307
#     4  10  21  32  51  81 103 134 175 209 253 314
#     4  10  19  37  54  72 106 134 168 216 263 309
#
# _framework density 18.893256000000001
#
# number of rings (size 3 to 8) (size 9 to 14) (size 15 to 20)
#    0.000    2.286    0.000    4.286    0.000    3.429 
#    0.000    1.429    0.000    7.286    0.000    0.000 
#    0.000    0.000    0.000    0.000    0.000    0.000 
#
# Total GULP energy -693978.801272 kJ/mol
# GULP energy per Si atom -12392.478594 kJ/mol
# Density = 1.885025 g / cm^3
# Si number density = 18.893256 Si / 1000 Ang^3
#
#
#
# Elastic Constant Matrix: (Units=GPa)
#
#
# Indices 1 2 3 4 5 6 
#
# 1 67.5542 5.0188 18.6665 0.0000 0.0000 4.9860
# 2 5.0188 67.5542 18.6665 0.0000 0.0000 -4.9860
# 3 18.6665 18.6665 121.1561 0.0000 0.0000 0.0000
# 4 0.0000 0.0000 0.0000 20.0012 0.0000 0.0000
# 5 0.0000 0.0000 0.0000 0.0000 20.0012 0.0000
# 6 4.9860 -4.9860 0.0000 0.0000 0.0000 7.8686
#
#
#
# Elastic Compliance Matrix: (Units=1/GPa)
#
#
# Indices 1 2 3 4 5 6 
#
# 1 0.016377 -0.001412 -0.002306 0.000000 0.000000 -0.011272
# 2 -0.001412 0.016377 -0.002306 0.000000 0.000000 0.011272
# 3 -0.002306 -0.002306 0.008964 0.000000 0.000000 0.000000
# 4 0.000000 0.000000 0.000000 0.049997 0.000000 0.000000
# 5 0.000000 0.000000 0.000000 0.000000 0.049997 0.000000
# 6 -0.011272 0.011272 0.000000 0.000000 0.000000 0.141372
#
#
# Mechanical properties :
#
#
# Convention : Reuss Voigt Hill
#
# Bulk Modulus (GPa) = 33.70168 37.88534 35.79351
# Shear Modulus (GPa) = 16.39233 23.83507 20.11370
#
# Velocity S-wave (km/s) = 2.94875 3.55571 3.26636
# Velocity P-wave (km/s) = 5.42864 6.07892 5.76296
#
# Compressibility (1/GPa) = 0.02967211
#
# Stress axis : x y z
#
# Youngs Moduli (GPa) = 61.06189 61.06189 111.55373
#
# Poissons Ratio (x) = 0.08619 0.25721
# Poissons Ratio (y) = 0.08619 0.25721
# Poissons Ratio (z) = 0.14079 0.14079
#
# Static dielectric constant tensor:
#      x y z
#    x 3.382610 0.000000 0.000000 
#    y 0.000000 3.382610 0.000000 
#    z 0.000000 0.000000 3.887490 
# 
# 
# High freq. dielectric constant tensor:
#      x y z
#    x 1.716830 0.000000 0.000000 
#    y 0.000000 1.716830 0.000000 
#    z 0.000000 0.000000 1.752980 
# 
# From -- ./inp_files/5885.got.cif
#   From: 2010.03.12/outbox.cif.g09.slc.cpg/sg88_3_cif.got.tgz:5885.got - 2010.04.08 20:20:55.
