data_PCOD8304342
_publ_section_title
;
Structure prediction by ZEFSAII (Michael W. Deem and Ramdas Pophale) SiO2 
 PCOD8304342
Probable space group: I 41/A
;
_chemical_formula_sum "Si O2"
_cell_formula_units_Z 112
_cell_length_a 13.786878
_cell_length_b 13.786878
_cell_length_c 29.010789
_cell_angle_alpha 90.000000
_cell_angle_beta 90.000000
_cell_angle_gamma 90.000000
_cell_volume 5514.312896
_symmetry_space_group_name_H-M "I 41/A"
_symmetry_group_IT_number 88
_space_group.IT_coordinate_system_code '2'
_symmetry_cell_setting 'tetragonal'
loop_
_space_group_symop_operation_xyz
x,y,z
3/4-y,1/4+x,1/4+z
-x,1/2-y,z
1/4+y,1/4-x,1/4+z
-x,-y,-z
1/4+y,3/4-x,3/4-z
x,1/2+y,-z
3/4-y,3/4+x,3/4-z
1/2+x,1/2+y,1/2+z
1/4-y,3/4+x,3/4+z
1/2-x,-y,1/2+z
3/4+y,3/4-x,3/4+z
1/2-x,1/2-y,1/2-z
3/4+y,1/4-x,1/4-z
1/2+x,y,1/2-z
1/4-y,1/4+x,1/4-z
loop_
_atom_site_type_symbol
_atom_site_label
_atom_site_fract_x
_atom_site_fract_y
_atom_site_fract_z
Si Si1 0.960883 0.542395 0.545962
Si Si2 0.438141 0.930743 0.382191
Si Si3 0.301754 0.709890 0.705992
Si Si4 0.000000 0.250000 0.249709
Si Si5 0.841871 0.998856 0.207973
Si Si6 0.500000 0.250000 0.083820
Si Si7 0.995641 0.088840 0.628735
Si Si8 0.811251 0.806506 0.050353
O O1 0.845598 0.524084 0.542770
O O2 0.986800 0.656179 0.551261
O O3 0.010689 0.485864 0.587152
O O4 0.000000 0.500000 0.500000
O O5 0.410349 0.988380 0.336312
O O6 0.509234 0.842962 0.367359
O O7 0.348511 0.887449 0.412542
O O8 0.493258 0.012058 0.410180
O O9 0.250000 0.750000 0.750000
O O10 0.413145 0.736886 0.713791
O O11 0.279453 0.595798 0.701826
O O12 0.993591 0.345561 0.282753
O O13 0.898480 0.007366 0.256278
O O14 0.093403 0.151677 0.623729
O O15 0.993535 0.022975 0.675045
#
# Coordination Sequence:
#
# PCOD8304342 Si02
#       8
#    16  16  16   8  16   8  16  16
#     4  11  24  44  68  97 136 177 229 288 347 407
#     4  11  22  43  69  99 135 182 233 281 337 420
#     4  11  23  41  67  97 138 178 223 280 346 418
#     4  10  23  40  71  97 132 187 220 277 349 410
#     4  10  23  40  64 101 132 168 230 281 325 412
#     4  10  23  44  72  97 129 182 234 284 335 418
#     4  11  25  42  66  97 133 177 223 291 356 412
#     4  11  21  44  67  95 136 174 232 280 340 419
#
# _framework density 20.310782
#
# number of rings (size 3 to 8) (size 9 to 14) (size 15 to 20)
#    0.000    1.286    5.714    1.286    0.000    8.000 
#    2.571    3.571    0.000    0.000    0.000    0.000 
#    0.000    0.000    0.000    0.000    0.000    0.000 
#
# Total GULP energy -694006.775310 kJ/mol
# GULP energy per Si atom -12392.978131 kJ/mol
# Density = 2.026455 g / cm^3
# Si number density = 20.310782 Si / 1000 Ang^3
#
#
#
# Elastic Constant Matrix: (Units=GPa)
#
#
# Indices 1 2 3 4 5 6 
#
# 1 113.8551 39.6041 44.1700 0.0000 0.0000 3.1174
# 2 39.6041 113.8551 44.1700 0.0000 0.0000 -3.1174
# 3 44.1700 44.1700 142.4462 0.0000 0.0000 0.0000
# 4 0.0000 0.0000 0.0000 36.9596 0.0000 0.0000
# 5 0.0000 0.0000 0.0000 0.0000 36.9596 0.0000
# 6 3.1174 -3.1174 0.0000 0.0000 0.0000 36.3360
#
#
#
# Elastic Compliance Matrix: (Units=1/GPa)
#
#
# Indices 1 2 3 4 5 6 
#
# 1 0.010749 -0.002817 -0.002460 0.000000 0.000000 -0.001164
# 2 -0.002817 0.010749 -0.002460 0.000000 0.000000 0.001164
# 3 -0.002460 -0.002460 0.008546 0.000000 0.000000 0.000000
# 4 0.000000 0.000000 0.000000 0.027057 0.000000 0.000000
# 5 0.000000 0.000000 0.000000 0.000000 0.027057 0.000000
# 6 -0.001164 0.001164 0.000000 0.000000 0.000000 0.027721
#
#
# Mechanical properties :
#
#
# Convention : Reuss Voigt Hill
#
# Bulk Modulus (GPa) = 68.62688 69.56052 69.09370
# Shear Modulus (GPa) = 37.81967 38.19853 38.00910
#
# Velocity S-wave (km/s) = 4.31983 4.34141 4.33063
# Velocity P-wave (km/s) = 7.66440 7.71057 7.68752
#
# Compressibility (1/GPa) = 0.01457155
#
# Stress axis : x y z
#
# Youngs Moduli (GPa) = 93.03249 93.03249 117.01947
#
# Poissons Ratio (x) = 0.26204 0.28783
# Poissons Ratio (y) = 0.26204 0.28783
# Poissons Ratio (z) = 0.22883 0.22883
#
# Static dielectric constant tensor:
#      x y z
#    x 3.661210 0.000000 0.000000 
#    y 0.000000 3.661210 0.000000 
#    z 0.000000 0.000000 3.531950 
# 
# 
# High freq. dielectric constant tensor:
#      x y z
#    x 1.790330 0.000000 0.000000 
#    y 0.000000 1.790330 0.000000 
#    z 0.000000 0.000000 1.813200 
# 
# From -- ./inp_files/5899.got.cif
#   From: 2010.03.12/outbox.cif.g09.slc.cpg/sg88_3_cif.got.tgz:5899.got - 2010.04.08 20:20:55.
