data_PCOD8304770
_publ_section_title
;
Structure prediction by ZEFSAII (Michael W. Deem and Ramdas Pophale) SiO2 
 PCOD8304770
Probable space group: P 41 2 2
;
_chemical_formula_sum "Si O2"
_cell_formula_units_Z 40
_cell_length_a 24.992013
_cell_length_b 24.992013
_cell_length_c 5.101243
_cell_angle_alpha 90.000000
_cell_angle_beta 90.000000
_cell_angle_gamma 90.000000
_cell_volume 3186.240019
_symmetry_space_group_name_H-M "P 41 2 2"
_symmetry_group_IT_number 91
_symmetry_cell_setting 'tetragonal'
loop_
_space_group_symop_operation_xyz
x,y,z
-y,x,1/4+z
-x,-y,1/2+z
y,-x,3/4+z
x,-y,1/2-z
-x,y,-z
y,x,3/4-z
-y,-x,1/4-z
loop_
_atom_site_type_symbol
_atom_site_label
_atom_site_fract_x
_atom_site_fract_y
_atom_site_fract_z
Si Si1 0.063911 0.531840 0.498206
Si Si2 0.349504 0.937605 0.739996
Si Si3 0.867747 0.180069 0.369125
Si Si4 0.063344 0.717183 0.004750
Si Si5 0.891861 0.967440 0.487976
O O1 0.085539 0.500000 0.750000
O O2 0.088772 0.591808 0.480761
O O3 0.000000 0.533767 0.500000
O O4 0.085988 0.500000 0.250000
O O5 0.328861 0.923942 0.452226
O O6 0.358437 0.000000 0.750000
O O7 0.306623 0.920339 0.962066
O O8 0.835257 0.164744 0.625000
O O9 0.895655 0.236711 0.421070
O O10 0.915955 0.140761 0.315422
O O11 0.825537 0.174464 0.125000
O O12 0.000000 0.735449 0.000000
O O13 0.949266 0.949266 0.375000
O O14 0.901249 0.000000 0.750000
O O15 0.862510 0.000000 0.250000
#
# Coordination Sequence:
#
# PCOD8304770 Si02
#       5
#     8   8   8   8   8
#     4   9  15  23  36  53  77 103 119 133 151 175
#     4   9  17  27  39  59  77  93 118 137 157 189
#     4  11  22  35  47  58  70  86 109 136 172 214
#     4  10  19  30  45  58  72  90 110 142 173 202
#     4  11  22  35  47  58  70  82  98 122 156 206
#
# _framework density 12.553983000000001
#
# number of rings (size 3 to 8) (size 9 to 14) (size 15 to 20)
#    0.000    2.000    0.000    6.000    0.000    8.000 
#    0.000    1.000    0.000    0.000    0.000    0.000 
#    0.000    0.000    0.000    0.000    0.000    0.000 
#
# Total GULP energy -495584.616829 kJ/mol
# GULP energy per Si atom -12389.615421 kJ/mol
# Density = 1.252541 g / cm^3
# Si number density = 12.553983 Si / 1000 Ang^3
#
#
#
# Elastic Constant Matrix: (Units=GPa)
#
#
# Indices 1 2 3 4 5 6 
#
# 1 50.7993 20.4804 22.1799 0.0000 0.0000 0.0000
# 2 20.4804 50.7989 22.1797 0.0000 0.0000 0.0000
# 3 22.1799 22.1797 98.5995 0.0000 0.0000 0.0000
# 4 0.0000 0.0000 0.0000 35.2833 0.0000 0.0000
# 5 0.0000 0.0000 0.0000 0.0000 35.2823 0.0000
# 6 0.0000 0.0000 0.0000 0.0000 0.0000 31.4607
#
#
#
# Elastic Compliance Matrix: (Units=1/GPa)
#
#
# Indices 1 2 3 4 5 6 
#
# 1 0.024648 -0.008335 -0.003670 0.000000 0.000000 0.000000
# 2 -0.008335 0.024648 -0.003670 0.000000 0.000000 0.000000
# 3 -0.003670 -0.003670 0.011793 0.000000 0.000000 0.000000
# 4 0.000000 0.000000 0.000000 0.028342 0.000000 0.000000
# 5 0.000000 0.000000 0.000000 0.000000 0.028343 0.000000
# 6 0.000000 0.000000 0.000000 0.000000 0.000000 0.031786
#
#
# Mechanical properties :
#
#
# Convention : Reuss Voigt Hill
#
# Bulk Modulus (GPa) = 33.62403 36.65306 35.13854
# Shear Modulus (GPa) = 26.20255 29.42910 27.81582
#
# Velocity S-wave (km/s) = 4.57353 4.84695 4.71223
# Velocity P-wave (km/s) = 7.39806 7.78355 7.59325
#
# Compressibility (1/GPa) = 0.02974064
#
# Stress axis : x y z
#
# Youngs Moduli (GPa) = 40.57148 40.57122 84.79628
#
# Poissons Ratio (x) = 0.33816 0.31117
# Poissons Ratio (y) = 0.33816 0.31116
# Poissons Ratio (z) = 0.14888 0.14888
#
# Static dielectric constant tensor:
#      x y z
#    x 2.396760 0.000000 0.000000 
#    y 0.000000 2.396710 0.000000 
#    z 0.000000 0.000000 2.938850 
# 
# 
# High freq. dielectric constant tensor:
#      x y z
#    x 1.435880 0.000000 0.000000 
#    y 0.000000 1.435890 0.000000 
#    z 0.000000 0.000000 1.506920 
# 
# From -- ./inp_files/8759.got.cif
#   From: 2010.03.12/outbox.cif.g09.slc.cpg/sg91_5_cif.got.tgz:8759.got - 2010.04.08 20:27:58.
