data_PCOD8304042
_publ_section_title
;
Structure prediction by ZEFSAII (Michael W. Deem and Ramdas Pophale) SiO2 
 PCOD8304042
Probable space group: I 4/M
;
_chemical_formula_sum "Si O2"
_cell_formula_units_Z 80
_cell_length_a 14.263877
_cell_length_b 14.263877
_cell_length_c 19.302186
_cell_angle_alpha 90.000000
_cell_angle_beta 90.000000
_cell_angle_gamma 90.000000
_cell_volume 3927.187770
_symmetry_space_group_name_H-M "I 4/M"
_symmetry_group_IT_number 87
_symmetry_cell_setting 'tetragonal'
loop_
_space_group_symop_operation_xyz
x,y,z
-y,x,z
-x,-y,z
y,-x,z
-x,-y,-z
y,-x,-z
x,y,-z
-y,x,-z
1/2+x,1/2+y,1/2+z
1/2-y,1/2+x,1/2+z
1/2-x,1/2-y,1/2+z
1/2+y,1/2-x,1/2+z
1/2-x,1/2-y,1/2-z
1/2+y,1/2-x,1/2-z
1/2+x,1/2+y,1/2-z
1/2-y,1/2+x,1/2-z
loop_
_atom_site_type_symbol
_atom_site_label
_atom_site_fract_x
_atom_site_fract_y
_atom_site_fract_z
Si Si1 0.387879 0.595949 0.417646
Si Si2 0.792337 0.294032 0.578855
Si Si3 0.222091 0.489535 0.752028
Si Si4 0.185403 0.819427 0.290249
Si Si5 0.914377 0.434844 0.645311
O O1 0.369079 0.489541 0.390568
O O2 0.386036 0.593918 0.500000
O O3 0.306198 0.664818 0.391451
O O4 0.784049 0.257993 0.500000
O O5 0.820659 0.207636 0.628119
O O6 0.871332 0.375981 0.581467
O O7 0.271878 0.578702 0.785145
O O8 0.307156 0.414722 0.751990
O O9 0.173392 0.507046 0.677659
O O10 0.136554 0.453380 0.798277
O O11 0.250000 0.750000 0.250000
O O12 0.000000 0.500000 0.619066
#
# Coordination Sequence:
#
# PCOD8304042 Si02
#       5
#    16  16  16  16  16
#     4   8  15  30  49  71 109 159 198 237 302 376
#     4  10  22  37  56  87 126 163 207 265 321 383
#     4  11  20  38  64  92 120 162 210 266 320 376
#     4  11  22  40  63  90 121 163 212 263 315 380
#     4  11  19  37  63  87 121 166 213 263 329 383
#
# _framework density 20.370812000000001
#
# number of rings (size 3 to 8) (size 9 to 14) (size 15 to 20)
#    0.000    1.800    6.000    0.600    0.000    4.000 
#    0.000    4.000    0.000    0.000    0.000    5.600 
#    0.000    0.000    0.000    0.000    0.000    0.000 
#
# Total GULP energy -495723.335522 kJ/mol
# GULP energy per Si atom -12393.083388 kJ/mol
# Density = 2.032445 g / cm^3
# Si number density = 20.370812 Si / 1000 Ang^3
#
#
#
# Elastic Constant Matrix: (Units=GPa)
#
#
# Indices 1 2 3 4 5 6 
#
# 1 89.1874 20.6683 17.1876 0.0000 0.0000 0.1093
# 2 20.6683 89.1874 17.1876 0.0000 0.0000 -0.1093
# 3 17.1876 17.1876 59.1354 0.0000 0.0000 0.0000
# 4 0.0000 0.0000 0.0000 18.2039 0.0000 0.0000
# 5 0.0000 0.0000 0.0000 0.0000 18.2039 0.0000
# 6 0.1093 -0.1093 0.0000 0.0000 0.0000 33.1409
#
#
#
# Elastic Compliance Matrix: (Units=1/GPa)
#
#
# Indices 1 2 3 4 5 6 
#
# 1 0.012304 -0.002291 -0.002910 0.000000 0.000000 -0.000048
# 2 -0.002291 0.012304 -0.002910 0.000000 0.000000 0.000048
# 3 -0.002910 -0.002910 0.018602 0.000000 0.000000 0.000000
# 4 0.000000 0.000000 0.000000 0.054933 0.000000 0.000000
# 5 0.000000 0.000000 0.000000 0.000000 0.054933 0.000000
# 6 -0.000048 0.000048 0.000000 0.000000 0.000000 0.030174
#
#
# Mechanical properties :
#
#
# Convention : Reuss Voigt Hill
#
# Bulk Modulus (GPa) = 37.05405 38.62189 37.83797
# Shear Modulus (GPa) = 23.98424 26.07417 25.02920
#
# Velocity S-wave (km/s) = 3.43502 3.58156 3.50906
# Velocity P-wave (km/s) = 5.82767 6.00866 5.91886
#
# Compressibility (1/GPa) = 0.02698760
#
# Stress axis : x y z
#
# Youngs Moduli (GPa) = 81.27377 81.27377 53.75717
#
# Poissons Ratio (x) = 0.18616 0.15646
# Poissons Ratio (y) = 0.18616 0.15646
# Poissons Ratio (z) = 0.23654 0.23654
#
# Static dielectric constant tensor:
#      x y z
#    x 3.791810 0.000000 0.000000 
#    y 0.000000 3.791810 0.000000 
#    z 0.000000 0.000000 3.479750 
# 
# 
# High freq. dielectric constant tensor:
#      x y z
#    x 1.796790 0.000000 0.000000 
#    y 0.000000 1.796790 0.000000 
#    z 0.000000 0.000000 1.771590 
# 
# From -- ./inp_files/5104.got.cif
#   From: 2010.03.12/outbox.cif.g09.slc.cpg/sg87_3_cif.got.tgz:5104.got - 2010.04.08 20:16:13.
