data_PCOD8304447
_publ_section_title
;
Structure prediction by ZEFSAII (Michael W. Deem and Ramdas Pophale) SiO2 
 PCOD8304447
Probable space group: I 41/A
;
_chemical_formula_sum "Si O2"
_cell_formula_units_Z 28
_cell_length_a 7.287246
_cell_length_b 7.287246
_cell_length_c 24.673053
_cell_angle_alpha 90.000000
_cell_angle_beta 90.000000
_cell_angle_gamma 90.000000
_cell_volume 1310.236678
_symmetry_space_group_name_H-M "I 41/A"
_symmetry_group_IT_number 88
_space_group.IT_coordinate_system_code '2'
_symmetry_cell_setting 'tetragonal'
loop_
_space_group_symop_operation_xyz
x,y,z
3/4-y,1/4+x,1/4+z
-x,1/2-y,z
1/4+y,1/4-x,1/4+z
-x,-y,-z
1/4+y,3/4-x,3/4-z
x,1/2+y,-z
3/4-y,3/4+x,3/4-z
1/2+x,1/2+y,1/2+z
1/4-y,3/4+x,3/4+z
1/2-x,-y,1/2+z
3/4+y,3/4-x,3/4+z
1/2-x,1/2-y,1/2-z
3/4+y,1/4-x,1/4-z
1/2+x,y,1/2-z
1/4-y,1/4+x,1/4-z
loop_
_atom_site_type_symbol
_atom_site_label
_atom_site_fract_x
_atom_site_fract_y
_atom_site_fract_z
Si Si1 0.000000 0.250000 0.710514
Si Si2 0.500000 0.750000 0.625000
Si Si3 0.651709 0.615201 0.935139
O O1 0.898810 0.098977 0.749431
O O2 0.846955 0.347894 0.673159
O O3 0.599777 0.602728 0.662600
O O4 0.500000 0.750000 0.907573
#
# Coordination Sequence:
#
# PCOD8304447 Si02
#       3
#     8   4  16
#     4   8  18  44  61  73 122 168 198 221 300 365
#     4  12  24  32  60 102 120 140 208 254 308 324
#     4   9  20  39  56  87 116 157 196 244 291 356
#
# _framework density 21.370187000000001
#
# number of rings (size 3 to 8) (size 9 to 14) (size 15 to 20)
#    1.714    1.143    0.000    0.000    0.000    6.857 
#    0.000    0.000    0.000    0.000    0.000    0.000 
#    0.000    0.000    0.000    0.000    0.000    0.000 
#
# Total GULP energy -173478.815302 kJ/mol
# GULP energy per Si atom -12391.343950 kJ/mol
# Density = 2.132155 g / cm^3
# Si number density = 21.370187 Si / 1000 Ang^3
#
#
#
# Elastic Constant Matrix: (Units=GPa)
#
#
# Indices 1 2 3 4 5 6 
#
# 1 178.2480 86.4234 41.2645 0.0000 0.0000 -10.4509
# 2 86.4234 178.2480 41.2645 0.0000 0.0000 10.4509
# 3 41.2645 41.2645 33.0317 0.0000 0.0000 0.0000
# 4 0.0000 0.0000 0.0000 9.7150 0.0000 0.0000
# 5 0.0000 0.0000 0.0000 0.0000 9.7151 0.0000
# 6 -10.4509 10.4509 0.0000 0.0000 0.0000 31.4235
#
#
#
# Elastic Compliance Matrix: (Units=1/GPa)
#
#
# Indices 1 2 3 4 5 6 
#
# 1 0.008986 -0.002797 -0.007732 0.000000 0.000000 0.003919
# 2 -0.002797 0.008986 -0.007732 0.000000 0.000000 -0.003919
# 3 -0.007732 -0.007732 0.049592 0.000000 0.000000 0.000000
# 4 0.000000 0.000000 0.000000 0.102933 0.000000 0.000000
# 5 0.000000 0.000000 0.000000 0.000000 0.102933 0.000000
# 6 0.003919 -0.003919 0.000000 0.000000 0.000000 0.034430
#
#
# Mechanical properties :
#
#
# Convention : Reuss Voigt Hill
#
# Bulk Modulus (GPa) = 32.21343 80.82582 56.51963
# Shear Modulus (GPa) = 14.09536 24.87575 19.48555
#
# Velocity S-wave (km/s) = 2.57102 3.41550 3.02290
# Velocity P-wave (km/s) = 4.89083 7.31150 6.22006
#
# Compressibility (1/GPa) = 0.03104295
#
# Stress axis : x y z
#
# Youngs Moduli (GPa) = 111.28747 111.28748 20.16468
#
# Poissons Ratio (x) = 0.31122 0.15591
# Poissons Ratio (y) = 0.31122 0.15591
# Poissons Ratio (z) = 0.86045 0.86045
#
# Static dielectric constant tensor:
#      x y z
#    x 3.697080 0.000000 0.000000 
#    y 0.000000 3.697080 0.000000 
#    z 0.000000 0.000000 3.323300 
# 
# 
# High freq. dielectric constant tensor:
#      x y z
#    x 1.833580 0.000000 0.000000 
#    y 0.000000 1.833580 0.000000 
#    z 0.000000 0.000000 1.800840 
# 
# From -- ./inp_files/4896.got.cif
#   From: 2010.03.12/outbox.cif.g09.slc.cpg/sg88_3_cif.got.tgz:4896.got - 2010.04.08 20:20:55.
