data_PCOD8304725
_publ_section_title
;
Structure prediction by ZEFSAII (Michael W. Deem and Ramdas Pophale) SiO2 
 PCOD8304725
Probable space group: P 41 2 2
;
_chemical_formula_sum "Si O2"
_cell_formula_units_Z 56
_cell_length_a 19.411278
_cell_length_b 19.411278
_cell_length_c 10.323062
_cell_angle_alpha 90.000000
_cell_angle_beta 90.000000
_cell_angle_gamma 90.000000
_cell_volume 3889.706159
_symmetry_space_group_name_H-M "P 41 2 2"
_symmetry_group_IT_number 91
_symmetry_cell_setting 'tetragonal'
loop_
_space_group_symop_operation_xyz
x,y,z
-y,x,1/4+z
-x,-y,1/2+z
y,-x,3/4+z
x,-y,1/2-z
-x,y,-z
y,x,3/4-z
-y,-x,1/4-z
loop_
_atom_site_type_symbol
_atom_site_label
_atom_site_fract_x
_atom_site_fract_y
_atom_site_fract_z
Si Si1 0.920351 0.418418 0.761147
Si Si2 0.418489 0.073736 0.989451
Si Si3 0.619853 0.677447 0.243905
Si Si4 0.571397 0.166648 0.246399
Si Si5 0.704389 0.642087 0.996453
Si Si6 0.408672 0.146095 0.246582
Si Si7 0.376765 0.514621 0.107754
O O1 0.923419 0.500000 0.750000
O O2 0.869046 0.396850 0.876145
O O3 0.892864 0.386485 0.627317
O O4 0.997127 0.389927 0.790805
O O5 0.396808 0.126639 0.876680
O O6 0.500000 0.070837 0.000000
O O7 0.387571 0.098405 0.125988
O O8 0.657571 0.657571 0.375000
O O9 0.592004 0.754243 0.257884
O O10 0.672811 0.674433 0.125759
O O11 0.556867 0.623783 0.220642
O O12 0.489242 0.163290 0.246348
O O13 0.785003 0.635135 0.017307
O O14 0.692062 0.692062 0.875000
O O15 0.670475 0.568204 0.968333
O O16 0.344456 0.500000 0.250000
O O17 0.454129 0.545872 0.125000
#
# Coordination Sequence:
#
# PCOD8304725 Si02
#       7
#     8   8   8   8   8   8   8
#     4   9  17  27  47  67  84 107 129 157 202 270
#     4   9  17  29  42  68  91 102 125 162 208 265
#     4  12  24  36  49  66  83 107 146 188 234 277
#     4  10  19  31  47  61  85 110 134 163 223 271
#     4  11  21  35  50  62  83 111 148 184 220 280
#     4  10  18  29  47  63  83 110 135 172 218 259
#     4  11  22  38  50  60  75 103 145 193 235 282
#
# _framework density 14.396974
#
# number of rings (size 3 to 8) (size 9 to 14) (size 15 to 20)
#    0.000    1.714    4.286    2.571    0.000    4.571 
#    0.000    0.000    0.000    0.000    0.000    0.000 
#    0.000    0.000    0.000    0.000    0.000    0.000 
#
# Total GULP energy -694346.989215 kJ/mol
# GULP energy per Si atom -12399.053379 kJ/mol
# Density = 1.436421 g / cm^3
# Si number density = 14.396974 Si / 1000 Ang^3
#
#
#
# Elastic Constant Matrix: (Units=GPa)
#
#
# Indices 1 2 3 4 5 6 
#
# 1 69.5037 19.4911 29.5632 0.0000 0.0000 0.0000
# 2 19.4911 69.5038 29.5629 0.0000 0.0000 0.0000
# 3 29.5632 29.5629 112.9666 0.0000 0.0000 0.0000
# 4 0.0000 0.0000 0.0000 -1.6151 0.0000 0.0000
# 5 0.0000 0.0000 0.0000 0.0000 -1.6126 0.0000
# 6 0.0000 0.0000 0.0000 0.0000 0.0000 8.0682
#
#
#
# Elastic Compliance Matrix: (Units=1/GPa)
#
#
# Indices 1 2 3 4 5 6 
#
# 1 0.016798 -0.003197 -0.003559 0.000000 0.000000 0.000000
# 2 -0.003197 0.016798 -0.003559 0.000000 0.000000 0.000000
# 3 -0.003559 -0.003559 0.010715 0.000000 0.000000 0.000000
# 4 0.000000 0.000000 0.000000 -0.619144 0.000000 0.000000
# 5 0.000000 0.000000 0.000000 0.000000 -0.620126 0.000000
# 6 0.000000 0.000000 0.000000 0.000000 0.000000 0.123943
#
#
# Mechanical properties :
#
#
# Convention : Reuss Voigt Hill
#
# Bulk Modulus (GPa) = 42.22937 45.46760 43.84849
# Shear Modulus (GPa) = -4.79621 12.52524 3.86452
#
# Velocity S-wave (km/s) = -1.82719 2.95276 1.64015
# Velocity P-wave (km/s) = 4.99443 6.57837 5.84035
#
# Compressibility (1/GPa) = 0.02368020
#
# Stress axis : x y z
#
# Youngs Moduli (GPa) = 59.53018 59.53040 93.32565
#
# Poissons Ratio (x) = 0.19030 0.33219
# Poissons Ratio (y) = 0.19030 0.33218
# Poissons Ratio (z) = 0.21190 0.21189
#
# Static dielectric constant tensor:
#      x y z
#    x 2.641320 0.000000 0.000000 
#    y 0.000000 2.641320 0.000000 
#    z 0.000000 0.000000 3.083790 
# 
# 
# High freq. dielectric constant tensor:
#      x y z
#    x 1.515030 0.000000 0.000000 
#    y 0.000000 1.515030 0.000000 
#    z 0.000000 0.000000 1.574070 
# 
# From -- ./inp_files/10126.got.cif
#   From: 2010.03.12/outbox.cif.g09.slc.cpg/sg91_6_cif.got.tgz:10126.got - 2010.04.08 20:27:58.
