data_PCOD8304991
_publ_section_title
;
Structure prediction by ZEFSAII (Michael W. Deem and Ramdas Pophale) SiO2 
 PCOD8304991
Probable space group: P 41 2 2
;
_chemical_formula_sum "Si O2"
_cell_formula_units_Z 32
_cell_length_a 10.662636
_cell_length_b 10.662636
_cell_length_c 12.934014
_cell_angle_alpha 90.000000
_cell_angle_beta 90.000000
_cell_angle_gamma 90.000000
_cell_volume 1470.491417
_symmetry_space_group_name_H-M "P 41 2 2"
_symmetry_group_IT_number 91
_symmetry_cell_setting 'tetragonal'
loop_
_space_group_symop_operation_xyz
x,y,z
-y,x,1/4+z
-x,-y,1/2+z
y,-x,3/4+z
x,-y,1/2-z
-x,y,-z
y,x,3/4-z
-y,-x,1/4-z
loop_
_atom_site_type_symbol
_atom_site_label
_atom_site_fract_x
_atom_site_fract_y
_atom_site_fract_z
Si Si1 0.587161 0.754675 0.801323
Si Si2 0.752697 0.673600 0.628720
Si Si3 0.952659 0.377724 0.707564
Si Si4 0.857998 0.118152 0.009024
O O1 0.660961 0.660961 0.875000
O O2 0.633889 0.745781 0.681307
O O3 0.441006 0.712869 0.803952
O O4 0.607867 0.899595 0.840156
O O5 0.830124 0.615143 0.721523
O O6 0.844188 0.764548 0.565945
O O7 0.032941 0.500000 0.750000
O O8 0.018015 0.244346 0.722335
O O9 0.834625 0.165375 0.125000
O O10 0.000000 0.063010 0.000000
#
# Coordination Sequence:
#
# PCOD8304991 Si02
#       4
#     8   8   8   8
#     4   9  19  40  69  93 126 166 227 269 332 406
#     4  10  21  41  63  95 127 169 216 284 331 399
#     4   9  20  41  65  90 126 179 220 263 336 416
#     4  12  25  42  61  91 138 175 221 284 341 395
#
# _framework density 21.761434000000001
#
# number of rings (size 3 to 8) (size 9 to 14) (size 15 to 20)
#    0.000    2.000    2.500    2.250    0.000    6.000 
#    0.000    6.250    0.000    0.000    0.000    0.000 
#    0.000    0.000    0.000    0.000    0.000    0.000 
#
# Total GULP energy -396471.302073 kJ/mol
# GULP energy per Si atom -12389.728190 kJ/mol
# Density = 2.171190 g / cm^3
# Si number density = 21.761434 Si / 1000 Ang^3
#
#
#
# Elastic Constant Matrix: (Units=GPa)
#
#
# Indices 1 2 3 4 5 6 
#
# 1 108.7077 66.2240 36.1082 0.0000 0.0000 0.0000
# 2 66.2240 108.7077 36.1082 0.0000 0.0000 0.0000
# 3 36.1082 36.1082 91.0841 0.0000 0.0000 0.0000
# 4 0.0000 0.0000 0.0000 24.5837 0.0000 0.0000
# 5 0.0000 0.0000 0.0000 0.0000 24.5837 0.0000
# 6 0.0000 0.0000 0.0000 0.0000 0.0000 5.9995
#
#
#
# Elastic Compliance Matrix: (Units=1/GPa)
#
#
# Indices 1 2 3 4 5 6 
#
# 1 0.015187 -0.008352 -0.002710 0.000000 0.000000 0.000000
# 2 -0.008352 0.015187 -0.002710 0.000000 0.000000 0.000000
# 3 -0.002710 -0.002710 0.013127 0.000000 0.000000 0.000000
# 4 0.000000 0.000000 0.000000 0.040677 0.000000 0.000000
# 5 0.000000 0.000000 0.000000 0.000000 0.040677 0.000000
# 6 0.000000 0.000000 0.000000 0.000000 0.000000 0.166680
#
#
# Mechanical properties :
#
#
# Convention : Reuss Voigt Hill
#
# Bulk Modulus (GPa) = 62.66080 65.04224 63.85152
# Shear Modulus (GPa) = 15.41321 22.37066 18.89193
#
# Velocity S-wave (km/s) = 2.66424 3.20972 2.94962
# Velocity P-wave (km/s) = 6.19041 6.60984 6.40356
#
# Compressibility (1/GPa) = 0.01595894
#
# Stress axis : x y z
#
# Youngs Moduli (GPa) = 65.84670 65.84670 76.17766
#
# Poissons Ratio (x) = 0.54993 0.20641
# Poissons Ratio (y) = 0.54993 0.20641
# Poissons Ratio (z) = 0.17842 0.17842
#
# Static dielectric constant tensor:
#      x y z
#    x 3.884320 0.000000 0.000000 
#    y 0.000000 3.884320 0.000000 
#    z 0.000000 0.000000 4.151710 
# 
# 
# High freq. dielectric constant tensor:
#      x y z
#    x 1.845380 0.000000 0.000000 
#    y 0.000000 1.845380 0.000000 
#    z 0.000000 0.000000 1.849630 
# 
# From -- ./inp_files/3369.got.cif
#   From: 2010.03.12/outbox.cif.g09.slc.cpg/sg91_2_cif.got.tgz:3369.got - 2010.04.08 20:27:58.
