data_PCOD8304712
_publ_section_title
;
Structure prediction by ZEFSAII (Michael W. Deem and Ramdas Pophale) SiO2 
 PCOD8304712
Probable space group: P 41 2 2
;
_chemical_formula_sum "Si O2"
_cell_formula_units_Z 48
_cell_length_a 9.411847
_cell_length_b 9.411847
_cell_length_c 31.001971
_cell_angle_alpha 90.000000
_cell_angle_beta 90.000000
_cell_angle_gamma 90.000000
_cell_volume 2746.243379
_symmetry_space_group_name_H-M "P 41 2 2"
_symmetry_group_IT_number 91
_symmetry_cell_setting 'tetragonal'
loop_
_space_group_symop_operation_xyz
x,y,z
-y,x,1/4+z
-x,-y,1/2+z
y,-x,3/4+z
x,-y,1/2-z
-x,y,-z
y,x,3/4-z
-y,-x,1/4-z
loop_
_atom_site_type_symbol
_atom_site_label
_atom_site_fract_x
_atom_site_fract_y
_atom_site_fract_z
Si Si1 0.524527 0.041304 0.662736
Si Si2 0.273290 0.756294 0.849040
Si Si3 0.546643 0.498635 0.576380
Si Si4 0.052031 0.238179 0.344415
Si Si5 0.757063 0.300538 0.531253
Si Si6 0.608034 0.745298 0.686694
O O1 0.367004 0.103941 0.658965
O O2 0.610676 0.067819 0.618464
O O3 0.612402 0.108664 0.701803
O O4 0.507910 0.877184 0.674685
O O5 0.346984 0.623072 0.823540
O O6 0.273910 0.726193 0.899936
O O7 0.113652 0.786553 0.832490
O O8 0.560469 0.439532 0.625000
O O9 0.615979 0.381437 0.545929
O O10 0.383327 0.505942 0.561343
O O11 0.111741 0.111741 0.375000
O O12 0.139933 0.243084 0.299749
O O13 0.763972 0.298997 0.479692
#
# Coordination Sequence:
#
# PCOD8304712 Si02
#       6
#     8   8   8   8   8   8
#     4   9  18  32  50  71 101 135 166 196 244 301
#     4   9  18  33  50  70 100 134 162 197 250 304
#     4   9  17  30  49  71  95 128 165 202 247 295
#     4   9  17  31  52  75  99 133 172 207 243 288
#     4  10  17  29  52  76  94 122 170 215 239 275
#     4  10  18  29  52  77  94 122 169 211 239 283
#
# _framework density 17.478422999999999
#
# number of rings (size 3 to 8) (size 9 to 14) (size 15 to 20)
#    0.000    2.667    0.000    4.500    0.000    0.000 
#    0.000    4.167    0.000   58.000    0.000    0.000 
#    0.000    0.000    0.000    0.000    0.000    0.000 
#
# Total GULP energy -594981.000992 kJ/mol
# GULP energy per Si atom -12395.437521 kJ/mol
# Density = 1.743864 g / cm^3
# Si number density = 17.478423 Si / 1000 Ang^3
#
#
#
# Elastic Constant Matrix: (Units=GPa)
#
#
# Indices 1 2 3 4 5 6 
#
# 1 140.8021 61.2209 39.0738 0.0000 0.0000 0.0000
# 2 61.2209 140.8021 39.0738 0.0000 0.0000 0.0000
# 3 39.0738 39.0738 91.8228 0.0000 0.0000 0.0000
# 4 0.0000 0.0000 0.0000 15.5905 0.0000 0.0000
# 5 0.0000 0.0000 0.0000 0.0000 15.5905 0.0000
# 6 0.0000 0.0000 0.0000 0.0000 0.0000 15.7702
#
#
#
# Elastic Compliance Matrix: (Units=1/GPa)
#
#
# Indices 1 2 3 4 5 6 
#
# 1 0.009246 -0.003320 -0.002521 0.000000 0.000000 0.000000
# 2 -0.003320 0.009246 -0.002521 0.000000 0.000000 0.000000
# 3 -0.002521 -0.002521 0.013036 0.000000 0.000000 0.000000
# 4 0.000000 0.000000 0.000000 0.064142 0.000000 0.000000
# 5 0.000000 0.000000 0.000000 0.000000 0.064142 0.000000
# 6 0.000000 0.000000 0.000000 0.000000 0.000000 0.063411
#
#
# Mechanical properties :
#
#
# Convention : Reuss Voigt Hill
#
# Bulk Modulus (GPa) = 67.56142 72.46267 70.01205
# Shear Modulus (GPa) = 20.41806 24.99414 22.70610
#
# Velocity S-wave (km/s) = 3.42158 3.78564 3.60820
# Velocity P-wave (km/s) = 7.37209 7.78822 7.58301
#
# Compressibility (1/GPa) = 0.01480135
#
# Stress axis : x y z
#
# Youngs Moduli (GPa) = 108.16036 108.16040 76.70800
#
# Poissons Ratio (x) = 0.35912 0.19341
# Poissons Ratio (y) = 0.35912 0.19341
# Poissons Ratio (z) = 0.27272 0.27272
#
# Static dielectric constant tensor:
#      x y z
#    x 3.280330 0.000000 0.000000 
#    y 0.000000 3.280330 0.000000 
#    z 0.000000 0.000000 3.124340 
# 
# 
# High freq. dielectric constant tensor:
#      x y z
#    x 1.665850 0.000000 0.000000 
#    y 0.000000 1.665850 0.000000 
#    z 0.000000 0.000000 1.662930 
# 
# From -- ./inp_files/7957.got.cif
#   From: 2010.03.12/outbox.cif.g09.slc.cpg/sg91_4_cif.got.tgz:7957.got - 2010.04.08 20:27:58.
