data_PCOD8304544
_publ_section_title
;
Structure prediction by ZEFSAII (Michael W. Deem and Ramdas Pophale) SiO2 
 PCOD8304544
Probable space group: P 4 21 2
;
_chemical_formula_sum "Si O2"
_cell_formula_units_Z 40
_cell_length_a 12.153949
_cell_length_b 12.153949
_cell_length_c 13.710205
_cell_angle_alpha 90.000000
_cell_angle_beta 90.000000
_cell_angle_gamma 90.000000
_cell_volume 2025.250592
_symmetry_space_group_name_H-M "P 4 21 2"
_symmetry_group_IT_number 90
_symmetry_cell_setting 'tetragonal'
loop_
_space_group_symop_operation_xyz
x,y,z
1/2-y,1/2+x,z
-x,-y,z
1/2+y,1/2-x,z
1/2+x,1/2-y,-z
1/2-x,1/2+y,-z
y,x,-z
-y,-x,-z
loop_
_atom_site_type_symbol
_atom_site_label
_atom_site_fract_x
_atom_site_fract_y
_atom_site_fract_z
Si Si1 0.321918 0.982600 0.457048
Si Si2 0.011871 0.322228 0.196090
Si Si3 0.824154 0.002932 0.632754
Si Si4 0.337784 0.509797 0.699907
Si Si5 0.081622 0.100232 0.106574
O O1 0.402198 0.881463 0.477819
O O2 0.212366 0.966221 0.523244
O O3 0.282769 0.984779 0.343733
O O4 0.115633 0.398938 0.170609
O O5 0.017310 0.209684 0.136430
O O6 0.014121 0.291021 0.310339
O O7 0.896534 0.093305 0.691390
O O8 0.896390 0.892149 0.631178
O O9 0.330819 0.559245 0.810577
O O10 0.130868 0.130868 0.000000
O O11 0.000000 0.000000 0.095026
#
# Coordination Sequence:
#
# PCOD8304544 Si02
#       5
#     8   8   8   8   8
#     4  11  24  37  51  80 122 163 199 239 294 364
#     4  10  20  36  60  93 124 152 199 260 309 351
#     4  10  19  36  58  85 113 157 196 243 292 354
#     4  10  20  37  57  86 112 147 201 253 295 356
#     4  10  20  42  64  86 116 156 203 251 304 376
#
# _framework density 19.750641999999999
#
# number of rings (size 3 to 8) (size 9 to 14) (size 15 to 20)
#    0.000    1.800    4.000    2.400    0.000    9.600 
#    3.600    0.000    0.000    2.400    0.000    0.000 
#    0.000    0.000    0.000    0.000    0.000    0.000 
#
# Total GULP energy -495652.067832 kJ/mol
# GULP energy per Si atom -12391.301696 kJ/mol
# Density = 1.970569 g / cm^3
# Si number density = 19.750642 Si / 1000 Ang^3
#
#
#
# Elastic Constant Matrix: (Units=GPa)
#
#
# Indices 1 2 3 4 5 6 
#
# 1 99.6134 32.0919 36.2463 0.0000 0.0000 0.0000
# 2 32.0919 99.6134 36.2463 0.0000 0.0000 0.0000
# 3 36.2463 36.2463 133.6760 0.0000 0.0000 0.0000
# 4 0.0000 0.0000 0.0000 13.9884 0.0000 0.0000
# 5 0.0000 0.0000 0.0000 0.0000 13.9884 0.0000
# 6 0.0000 0.0000 0.0000 0.0000 0.0000 8.6504
#
#
#
# Elastic Compliance Matrix: (Units=1/GPa)
#
#
# Indices 1 2 3 4 5 6 
#
# 1 0.011867 -0.002943 -0.002420 0.000000 0.000000 0.000000
# 2 -0.002943 0.011867 -0.002420 0.000000 0.000000 0.000000
# 3 -0.002420 -0.002420 0.008793 0.000000 0.000000 0.000000
# 4 0.000000 0.000000 0.000000 0.071488 0.000000 0.000000
# 5 0.000000 0.000000 0.000000 0.000000 0.071488 0.000000
# 6 0.000000 0.000000 0.000000 0.000000 0.000000 0.115601
#
#
# Mechanical properties :
#
#
# Convention : Reuss Voigt Hill
#
# Bulk Modulus (GPa) = 58.95271 60.23017 59.59144
# Shear Modulus (GPa) = 16.00900 22.54666 19.27783
#
# Velocity S-wave (km/s) = 2.85012 3.38237 3.12759
# Velocity P-wave (km/s) = 6.38312 6.76871 6.57874
#
# Compressibility (1/GPa) = 0.01696275
#
# Stress axis : x y z
#
# Youngs Moduli (GPa) = 84.26454 84.26454 113.72550
#
# Poissons Ratio (x) = 0.24797 0.27521
# Poissons Ratio (y) = 0.24797 0.27521
# Poissons Ratio (z) = 0.20391 0.20391
#
# Static dielectric constant tensor:
#      x y z
#    x 3.489880 0.000000 0.000000 
#    y 0.000000 3.489880 0.000000 
#    z 0.000000 0.000000 4.005610 
# 
# 
# High freq. dielectric constant tensor:
#      x y z
#    x 1.759580 0.000000 0.000000 
#    y 0.000000 1.759580 0.000000 
#    z 0.000000 0.000000 1.763740 
# 
# From -- ./inp_files/2464.got.cif
#   From: 2010.03.12/outbox.cif.g09.slc.cpg/sg90_2_cif.got.tgz:2464.got - 2010.04.08 20:26:03.
