data_PCOD8304801
_publ_section_title
;
Structure prediction by ZEFSAII (Michael W. Deem and Ramdas Pophale) SiO2 
 PCOD8304801
Probable space group: P 41 2 2
;
_chemical_formula_sum "Si O2"
_cell_formula_units_Z 52
_cell_length_a 22.756772
_cell_length_b 22.756772
_cell_length_c 4.991370
_cell_angle_alpha 90.000000
_cell_angle_beta 90.000000
_cell_angle_gamma 90.000000
_cell_volume 2584.884135
_symmetry_space_group_name_H-M "P 41 2 2"
_symmetry_group_IT_number 91
_symmetry_cell_setting 'tetragonal'
loop_
_space_group_symop_operation_xyz
x,y,z
-y,x,1/4+z
-x,-y,1/2+z
y,-x,3/4+z
x,-y,1/2-z
-x,y,-z
y,x,3/4-z
-y,-x,1/4-z
loop_
_atom_site_type_symbol
_atom_site_label
_atom_site_fract_x
_atom_site_fract_y
_atom_site_fract_z
Si Si1 0.241424 0.065628 0.733113
Si Si2 0.686349 0.628109 0.116290
Si Si3 0.105866 0.369322 0.993200
Si Si4 0.000000 0.541417 0.500000
Si Si5 0.588515 0.500000 0.750000
Si Si6 0.344428 0.180535 0.237765
Si Si7 0.865948 0.780590 0.022828
Si Si8 0.500000 0.659958 0.500000
O O1 0.309605 0.070163 0.817920
O O2 0.236729 0.081328 0.422756
O O3 0.217667 0.000000 0.750000
O O4 0.203079 0.107079 0.934865
O O5 0.664696 0.664696 0.375000
O O6 0.750271 0.646537 0.017318
O O7 0.694774 0.557816 0.156728
O O8 0.640482 0.640482 0.875000
O O9 0.058348 0.419875 0.047445
O O10 0.152290 0.363397 0.232398
O O11 0.146139 0.382676 0.734903
O O12 0.988666 0.500000 0.250000
O O13 0.551730 0.551730 0.875000
O O14 0.624336 0.526296 0.502042
O O15 0.274755 0.176390 0.185822
O O16 0.833579 0.833579 0.875000
#
# Coordination Sequence:
#
# PCOD8304801 Si02
#       8
#     8   8   8   4   4   8   8   4
#     4  10  19  34  57  81 117 159 191 233 294 354
#     4  12  25  43  66  88 121 159 199 250 309 387
#     4  10  21  40  60  87 121 152 206 253 296 354
#     4  12  24  40  62  92 120 170 212 264 302 344
#     4  12  23  38  62  88 112 136 173 230 300 372
#     4  10  22  39  63  89 117 163 200 245 308 364
#     4  10  20  33  55  88 121 150 195 246 286 342
#     4  12  25  42  60  90 112 148 191 240 302 362
#
# _framework density 20.116956999999999
#
# number of rings (size 3 to 8) (size 9 to 14) (size 15 to 20)
#    0.000    1.231    0.769    6.462    0.000    2.462 
#    4.154    0.000    0.000    0.000    0.000    0.000 
#    0.000   17.231    0.000    0.000    0.000    0.000 
#
# Total GULP energy -644628.062411 kJ/mol
# GULP energy per Si atom -12396.693508 kJ/mol
# Density = 2.007117 g / cm^3
# Si number density = 20.116957 Si / 1000 Ang^3
#
#
#
# Elastic Constant Matrix: (Units=GPa)
#
#
# Indices 1 2 3 4 5 6 
#
# 1 92.9457 33.8284 21.1808 0.0000 0.0000 0.0000
# 2 33.8284 92.9457 21.1808 0.0000 0.0000 0.0000
# 3 21.1808 21.1808 119.5563 0.0000 0.0000 0.0000
# 4 0.0000 0.0000 0.0000 27.7855 0.0000 0.0000
# 5 0.0000 0.0000 0.0000 0.0000 27.7855 0.0000
# 6 0.0000 0.0000 0.0000 0.0000 0.0000 26.3772
#
#
#
# Elastic Compliance Matrix: (Units=1/GPa)
#
#
# Indices 1 2 3 4 5 6 
#
# 1 0.012650 -0.004266 -0.001485 0.000000 0.000000 0.000000
# 2 -0.004266 0.012650 -0.001485 0.000000 0.000000 0.000000
# 3 -0.001485 -0.001485 0.008891 0.000000 0.000000 0.000000
# 4 0.000000 0.000000 0.000000 0.035990 0.000000 0.000000
# 5 0.000000 0.000000 0.000000 0.000000 0.035990 0.000000
# 6 0.000000 0.000000 0.000000 0.000000 0.000000 0.037912
#
#
# Mechanical properties :
#
#
# Convention : Reuss Voigt Hill
#
# Bulk Modulus (GPa) = 50.71566 50.86976 50.79271
# Shear Modulus (GPa) = 30.27969 31.67350 30.97659
#
# Velocity S-wave (km/s) = 3.88388 3.97226 3.92832
# Velocity P-wave (km/s) = 6.73630 6.81031 6.77341
#
# Compressibility (1/GPa) = 0.01971777
#
# Stress axis : x y z
#
# Youngs Moduli (GPa) = 79.05164 79.05164 112.47870
#
# Poissons Ratio (x) = 0.33720 0.16708
# Poissons Ratio (y) = 0.33720 0.16708
# Poissons Ratio (z) = 0.11742 0.11742
#
# Static dielectric constant tensor:
#      x y z
#    x 3.486080 0.000000 0.000000 
#    y 0.000000 3.486080 0.000000 
#    z 0.000000 0.000000 3.923860 
# 
# 
# High freq. dielectric constant tensor:
#      x y z
#    x 1.770840 0.000000 0.000000 
#    y 0.000000 1.770840 0.000000 
#    z 0.000000 0.000000 1.812380 
# 
# From -- ./inp_files/18940.got.cif
#   From: 2010.03.12/outbox.cif.g09.slc.cpg/sg91_10_cif.got.tgz:18940.got - 2010.04.08 20:27:58.
