data_PCOD8304227
_publ_section_title
;
Structure prediction by ZEFSAII (Michael W. Deem and Ramdas Pophale) SiO2 
 PCOD8304227
Probable space group: I 41/A
;
_chemical_formula_sum "Si O2"
_cell_formula_units_Z 96
_cell_length_a 17.084154
_cell_length_b 17.084154
_cell_length_c 18.398828
_cell_angle_alpha 90.000000
_cell_angle_beta 90.000000
_cell_angle_gamma 90.000000
_cell_volume 5370.034980
_symmetry_space_group_name_H-M "I 41/A"
_symmetry_group_IT_number 88
_space_group.IT_coordinate_system_code '2'
_symmetry_cell_setting 'tetragonal'
loop_
_space_group_symop_operation_xyz
x,y,z
3/4-y,1/4+x,1/4+z
-x,1/2-y,z
1/4+y,1/4-x,1/4+z
-x,-y,-z
1/4+y,3/4-x,3/4-z
x,1/2+y,-z
3/4-y,3/4+x,3/4-z
1/2+x,1/2+y,1/2+z
1/4-y,3/4+x,3/4+z
1/2-x,-y,1/2+z
3/4+y,3/4-x,3/4+z
1/2-x,1/2-y,1/2-z
3/4+y,1/4-x,1/4-z
1/2+x,y,1/2-z
1/4-y,1/4+x,1/4-z
loop_
_atom_site_type_symbol
_atom_site_label
_atom_site_fract_x
_atom_site_fract_y
_atom_site_fract_z
Si Si1 0.704724 0.457014 0.176037
Si Si2 0.350800 0.152730 0.947838
Si Si3 0.407366 0.836061 0.898292
Si Si4 0.417257 0.655230 0.898100
Si Si5 0.299158 0.050906 0.562676
Si Si6 0.918826 0.090158 0.697741
O O1 0.658482 0.531176 0.207038
O O2 0.643078 0.393171 0.149826
O O3 0.760843 0.483242 0.111093
O O4 0.759194 0.421110 0.239233
O O5 0.316336 0.240223 0.946678
O O6 0.399260 0.138156 0.874689
O O7 0.407450 0.139348 0.016178
O O8 0.401367 0.745098 0.879358
O O9 0.493657 0.868555 0.878286
O O10 0.340023 0.877457 0.852143
O O11 0.394957 0.851187 0.983859
O O12 0.237913 0.118760 0.544520
#
# Coordination Sequence:
#
# PCOD8304227 Si02
#       6
#    16  16  16  16  16  16
#     4  11  21  37  55  81 110 145 187 224 274 326
#     4  10  20  33  54  83 116 148 179 220 272 333
#     4  10  21  37  57  82 111 146 186 228 276 328
#     4  10  21  37  57  82 111 146 186 228 276 328
#     4  11  21  37  55  81 110 145 187 224 274 326
#     4  10  20  33  54  83 116 148 179 220 272 333
#
# _framework density 17.876978000000001
#
# number of rings (size 3 to 8) (size 9 to 14) (size 15 to 20)
#    0.000    1.667    3.333    2.000    0.000    2.333 
#    0.000    5.000    0.000    0.000    0.000    2.333 
#    0.000    0.000    0.000    0.000    0.000    0.000 
#
# Total GULP energy -595291.514780 kJ/mol
# GULP energy per Si atom -12401.906558 kJ/mol
# Density = 1.783629 g / cm^3
# Si number density = 17.876978 Si / 1000 Ang^3
#
#
#
# Elastic Constant Matrix: (Units=GPa)
#
#
# Indices 1 2 3 4 5 6 
#
# 1 44.9759 10.0177 20.0363 0.0000 0.0000 -0.8746
# 2 10.0177 44.9758 20.0362 0.0000 0.0000 0.8746
# 3 20.0363 20.0362 70.1206 0.0000 0.0000 0.0000
# 4 0.0000 0.0000 0.0000 29.8900 0.0000 0.0000
# 5 0.0000 0.0000 0.0000 0.0000 29.8901 0.0000
# 6 -0.8746 0.8746 0.0000 0.0000 0.0000 30.1625
#
#
#
# Elastic Compliance Matrix: (Units=1/GPa)
#
#
# Indices 1 2 3 4 5 6 
#
# 1 0.025806 -0.002841 -0.006562 0.000000 0.000000 0.000831
# 2 -0.002841 0.025806 -0.006562 0.000000 0.000000 -0.000831
# 3 -0.006562 -0.006562 0.018011 0.000000 0.000000 0.000000
# 4 0.000000 0.000000 0.000000 0.033456 0.000000 0.000000
# 5 0.000000 0.000000 0.000000 0.000000 0.033456 0.000000
# 6 0.000831 -0.000831 0.000000 0.000000 0.000000 0.033202
#
#
# Mechanical properties :
#
#
# Convention : Reuss Voigt Hill
#
# Bulk Modulus (GPa) = 26.52954 28.91697 27.72326
# Shear Modulus (GPa) = 23.33908 25.32066 24.32987
#
# Velocity S-wave (km/s) = 3.61714 3.76757 3.69312
# Velocity P-wave (km/s) = 5.68483 5.92763 5.80750
#
# Compressibility (1/GPa) = 0.03769383
#
# Stress axis : x y z
#
# Youngs Moduli (GPa) = 38.75001 38.75000 55.52067
#
# Poissons Ratio (x) = 0.11008 0.36434
# Poissons Ratio (y) = 0.11008 0.36434
# Poissons Ratio (z) = 0.25429 0.25429
#
# Static dielectric constant tensor:
#      x y z
#    x 3.292210 0.000000 0.000000 
#    y 0.000000 3.292210 0.000000 
#    z 0.000000 0.000000 3.283830 
# 
# 
# High freq. dielectric constant tensor:
#      x y z
#    x 1.691740 0.000000 0.000000 
#    y 0.000000 1.691740 0.000000 
#    z 0.000000 0.000000 1.688690 
# 
# From -- ./inp_files/3924.got.cif
#   From: 2010.03.12/outbox.cif.g09.slc.cpg/sg88_2_cif.got.tgz:3924.got - 2010.04.08 20:20:55.
