data_PCOD8304473
_publ_section_title
;
Structure prediction by ZEFSAII (Michael W. Deem and Ramdas Pophale) SiO2 
 PCOD8304473
Probable space group: P 4 2 2
;
_chemical_formula_sum "Si O2"
_cell_formula_units_Z 48
_cell_length_a 18.460718
_cell_length_b 18.460718
_cell_length_c 7.524781
_cell_angle_alpha 90.000000
_cell_angle_beta 90.000000
_cell_angle_gamma 90.000000
_cell_volume 2564.431136
_symmetry_space_group_name_H-M "P 4 2 2"
_symmetry_group_IT_number 89
_symmetry_cell_setting 'tetragonal'
loop_
_space_group_symop_operation_xyz
x,y,z
-y,x,z
-x,-y,z
y,-x,z
x,-y,-z
-x,y,-z
y,x,-z
-y,-x,-z
loop_
_atom_site_type_symbol
_atom_site_label
_atom_site_fract_x
_atom_site_fract_y
_atom_site_fract_z
Si Si1 0.416638 0.921528 0.970215
Si Si2 0.649022 0.178501 0.265933
Si Si3 0.918082 0.079914 0.711207
Si Si4 0.810121 0.201205 0.289377
Si Si5 0.641928 0.160141 0.655629
Si Si6 0.295966 0.414789 0.488817
O O1 0.388788 0.862710 0.107966
O O2 0.500000 0.932133 0.000000
O O3 0.407235 0.894281 0.768137
O O4 0.378343 0.000000 0.000000
O O5 0.731378 0.191651 0.202996
O O6 0.647676 0.131753 0.450855
O O7 0.607354 0.254841 0.304496
O O8 0.916605 0.083396 0.500000
O O9 0.859469 0.135774 0.790469
O O10 0.998710 0.101192 0.777298
O O11 0.803044 0.196957 0.500000
O O12 0.840074 0.280665 0.244565
O O13 0.608615 0.242020 0.650684
O O14 0.312864 0.500000 0.500000
O O15 0.371567 0.371567 0.500000
#
# Coordination Sequence:
#
# PCOD8304473 Si02
#       6
#     8   8   8   8   8   8
#     4  11  24  37  52  80 112 145 190 235 278 326
#     4   9  19  37  57  79 109 145 183 230 274 329
#     4   8  14  23  39  69 106 139 174 220 269 311
#     4   9  15  31  54  77 105 138 183 224 260 322
#     4   9  19  37  57  79 109 145 183 230 274 329
#     4  10  18  35  59  85 115 145 181 227 285 351
#
# _framework density 18.717601999999999
#
# number of rings (size 3 to 8) (size 9 to 14) (size 15 to 20)
#    1.000    1.667    1.667    1.500    0.000    2.833 
#    0.000    5.000    0.000    0.000    0.000    0.000 
#    0.000    8.000    0.000    0.333    0.000    0.000 
#
# Total GULP energy -594730.794494 kJ/mol
# GULP energy per Si atom -12390.224885 kJ/mol
# Density = 1.867500 g / cm^3
# Si number density = 18.717602 Si / 1000 Ang^3
#
#
#
# Elastic Constant Matrix: (Units=GPa)
#
#
# Indices 1 2 3 4 5 6 
#
# 1 103.4900 30.2798 -6.4740 0.0000 0.0000 0.0000
# 2 30.2798 103.4899 -6.4740 0.0000 0.0000 0.0000
# 3 -6.4740 -6.4740 32.2273 0.0000 0.0000 0.0000
# 4 0.0000 0.0000 0.0000 8.7537 0.0000 0.0000
# 5 0.0000 0.0000 0.0000 0.0000 8.7537 0.0000
# 6 0.0000 0.0000 0.0000 0.0000 0.0000 26.6610
#
#
#
# Elastic Compliance Matrix: (Units=1/GPa)
#
#
# Indices 1 2 3 4 5 6 
#
# 1 0.010642 -0.003018 0.001531 0.000000 0.000000 0.000000
# 2 -0.003018 0.010642 0.001532 0.000000 0.000000 0.000000
# 3 0.001531 0.001532 0.031645 0.000000 0.000000 0.000000
# 4 0.000000 0.000000 0.000000 0.114237 0.000000 0.000000
# 5 0.000000 0.000000 0.000000 0.000000 0.114238 0.000000
# 6 0.000000 0.000000 0.000000 0.000000 0.000000 0.037508
#
#
# Mechanical properties :
#
#
# Convention : Reuss Voigt Hill
#
# Bulk Modulus (GPa) = 18.86137 30.43008 24.64573
# Shear Modulus (GPa) = 14.85915 23.62537 19.24226
#
# Velocity S-wave (km/s) = 2.82061 3.55660 3.20977
# Velocity P-wave (km/s) = 4.55044 5.75835 5.18966
#
# Compressibility (1/GPa) = 0.05301842
#
# Stress axis : x y z
#
# Youngs Moduli (GPa) = 93.97138 93.97128 31.60070
#
# Poissons Ratio (x) = 0.28358 -0.04840
# Poissons Ratio (y) = 0.28358 -0.04840
# Poissons Ratio (z) = -0.14392 -0.14392
#
# Static dielectric constant tensor:
#      x y z
#    x 3.559370 0.000000 0.000000 
#    y 0.000000 3.559380 0.000000 
#    z 0.000000 0.000000 3.033880 
# 
# 
# High freq. dielectric constant tensor:
#      x y z
#    x 1.720860 0.000000 0.000000 
#    y 0.000000 1.720860 0.000000 
#    z 0.000000 0.000000 1.698080 
# 
# From -- ./inp_files/1166.got.cif
#   From: 2010.03.12/outbox.cif.g09.slc.cpg/sg89_1_cif.got.tgz:1166.got - 2010.04.08 20:24:03.
