data_PCOD8304293
_publ_section_title
;
Structure prediction by ZEFSAII (Michael W. Deem and Ramdas Pophale) SiO2 
 PCOD8304293
Probable space group: I 41/A
;
_chemical_formula_sum "Si O2"
_cell_formula_units_Z 100
_cell_length_a 14.274554
_cell_length_b 14.274554
_cell_length_c 23.328613
_cell_angle_alpha 90.000000
_cell_angle_beta 90.000000
_cell_angle_gamma 90.000000
_cell_volume 4753.505649
_symmetry_space_group_name_H-M "I 41/A"
_symmetry_group_IT_number 88
_space_group.IT_coordinate_system_code '2'
_symmetry_cell_setting 'tetragonal'
loop_
_space_group_symop_operation_xyz
x,y,z
3/4-y,1/4+x,1/4+z
-x,1/2-y,z
1/4+y,1/4-x,1/4+z
-x,-y,-z
1/4+y,3/4-x,3/4-z
x,1/2+y,-z
3/4-y,3/4+x,3/4-z
1/2+x,1/2+y,1/2+z
1/4-y,3/4+x,3/4+z
1/2-x,-y,1/2+z
3/4+y,3/4-x,3/4+z
1/2-x,1/2-y,1/2-z
3/4+y,1/4-x,1/4-z
1/2+x,y,1/2-z
1/4-y,1/4+x,1/4-z
loop_
_atom_site_type_symbol
_atom_site_label
_atom_site_fract_x
_atom_site_fract_y
_atom_site_fract_z
Si Si1 0.999179 0.427392 0.917399
Si Si2 0.438106 0.627821 0.147228
Si Si3 0.901016 0.456679 0.512242
Si Si4 0.164286 0.019175 0.832552
Si Si5 0.000000 0.250000 0.125000
Si Si6 0.158744 0.058428 0.388056
Si Si7 0.080700 0.116176 0.034093
O O1 0.925001 0.440327 0.866054
O O2 0.093442 0.379476 0.892095
O O3 0.023987 0.527395 0.943286
O O4 0.956148 0.363277 0.969179
O O5 0.392652 0.699574 0.099961
O O6 0.393969 0.658861 0.207445
O O7 0.414126 0.520563 0.132999
O O8 0.853843 0.532178 0.553319
O O9 0.843030 0.433595 0.455937
O O10 0.000000 0.500000 0.500000
O O11 0.233635 0.966896 0.876449
O O12 0.142244 0.943601 0.782423
O O13 0.067800 0.196359 0.081507
#
# Coordination Sequence:
#
# PCOD8304293 Si02
#       7
#    16  16  16  16   4  16  16
#     4  10  21  41  62  95 133 170 218 268 328 392
#     4  10  21  41  67  90 121 169 213 267 322 389
#     4  11  22  41  65  91 129 166 216 270 322 388
#     4  10  21  40  66  95 129 177 218 267 330 394
#     4  12  20  40  64  96 132 168 220 268 330 396
#     4  10  22  40  62  95 131 168 214 273 323 387
#     4  10  21  39  66  94 130 172 217 268 324 399
#
# _framework density 21.037106000000001
#
# number of rings (size 3 to 8) (size 9 to 14) (size 15 to 20)
#    0.000    1.760    3.200    0.960    0.000    2.560 
#    2.880    1.600    0.000    0.000    0.000    0.000 
#    0.000    0.000    0.000    0.000    0.000    0.000 
#
# Total GULP energy -619745.342584 kJ/mol
# GULP energy per Si atom -12394.906852 kJ/mol
# Density = 2.098922 g / cm^3
# Si number density = 21.037106 Si / 1000 Ang^3
#
#
#
# Elastic Constant Matrix: (Units=GPa)
#
#
# Indices 1 2 3 4 5 6 
#
# 1 106.7231 34.7389 56.5729 0.0000 0.0000 -7.7647
# 2 34.7389 106.7231 56.5729 0.0000 0.0000 7.7647
# 3 56.5729 56.5729 140.9571 0.0000 0.0000 0.0000
# 4 0.0000 0.0000 0.0000 30.7566 0.0000 0.0000
# 5 0.0000 0.0000 0.0000 0.0000 30.7566 0.0000
# 6 -7.7647 7.7647 0.0000 0.0000 0.0000 24.1497
#
#
#
# Elastic Compliance Matrix: (Units=1/GPa)
#
#
# Indices 1 2 3 4 5 6 
#
# 1 0.012669 -0.002258 -0.004178 0.000000 0.000000 0.004800
# 2 -0.002258 0.012669 -0.004178 0.000000 0.000000 -0.004800
# 3 -0.004178 -0.004178 0.010448 0.000000 0.000000 0.000000
# 4 0.000000 0.000000 0.000000 0.032513 0.000000 0.000000
# 5 0.000000 0.000000 0.000000 0.000000 0.032513 0.000000
# 6 0.004800 -0.004800 0.000000 0.000000 0.000000 0.044495
#
#
# Mechanical properties :
#
#
# Convention : Reuss Voigt Hill
#
# Bulk Modulus (GPa) = 68.69683 72.24143 70.46913
# Shear Modulus (GPa) = 29.17310 30.90049 30.03679
#
# Velocity S-wave (km/s) = 3.72794 3.83672 3.78272
# Velocity P-wave (km/s) = 7.15933 7.35131 7.25596
#
# Compressibility (1/GPa) = 0.01455671
#
# Stress axis : x y z
#
# Youngs Moduli (GPa) = 78.93124 78.93124 95.70826
#
# Poissons Ratio (x) = 0.17824 0.39992
# Poissons Ratio (y) = 0.17824 0.39992
# Poissons Ratio (z) = 0.32981 0.32981
#
# Static dielectric constant tensor:
#      x y z
#    x 3.790130 0.000000 0.000000 
#    y 0.000000 3.790130 0.000000 
#    z 0.000000 0.000000 4.033160 
# 
# 
# High freq. dielectric constant tensor:
#      x y z
#    x 1.822350 0.000000 0.000000 
#    y 0.000000 1.822350 0.000000 
#    z 0.000000 0.000000 1.823840 
# 
# From -- ./inp_files/5293.got.cif
#   From: 2010.03.12/outbox.cif.g09.slc.cpg/sg88_3_cif.got.tgz:5293.got - 2010.04.08 20:20:55.
