data_PCOD8304202
_publ_section_title
;
Structure prediction by ZEFSAII (Michael W. Deem and Ramdas Pophale) SiO2 
 PCOD8304202
Probable space group: I 41/A
;
_chemical_formula_sum "Si O2"
_cell_formula_units_Z 96
_cell_length_a 23.288882
_cell_length_b 23.288882
_cell_length_c 8.473722
_cell_angle_alpha 90.000000
_cell_angle_beta 90.000000
_cell_angle_gamma 90.000000
_cell_volume 4595.909759
_symmetry_space_group_name_H-M "I 41/A"
_symmetry_group_IT_number 88
_space_group.IT_coordinate_system_code '2'
_symmetry_cell_setting 'tetragonal'
loop_
_space_group_symop_operation_xyz
x,y,z
3/4-y,1/4+x,1/4+z
-x,1/2-y,z
1/4+y,1/4-x,1/4+z
-x,-y,-z
1/4+y,3/4-x,3/4-z
x,1/2+y,-z
3/4-y,3/4+x,3/4-z
1/2+x,1/2+y,1/2+z
1/4-y,3/4+x,3/4+z
1/2-x,-y,1/2+z
3/4+y,3/4-x,3/4+z
1/2-x,1/2-y,1/2-z
3/4+y,1/4-x,1/4-z
1/2+x,y,1/2-z
1/4-y,1/4+x,1/4-z
loop_
_atom_site_type_symbol
_atom_site_label
_atom_site_fract_x
_atom_site_fract_y
_atom_site_fract_z
Si Si1 0.445621 0.684157 0.686767
Si Si2 0.098607 0.048578 0.407793
Si Si3 0.359327 0.765484 0.303770
Si Si4 0.465579 0.554511 0.258946
Si Si5 0.616102 0.914080 0.528024
Si Si6 0.079664 0.493975 0.278717
O O1 0.424880 0.749706 0.680190
O O2 0.465269 0.669330 0.866766
O O3 0.394129 0.642732 0.633025
O O4 0.154936 0.075751 0.323582
O O5 0.052900 0.100132 0.431162
O O6 0.072845 0.998349 0.301346
O O7 0.115942 0.024847 0.581943
O O8 0.355390 0.785227 0.121935
O O9 0.308413 0.794586 0.400337
O O10 0.439504 0.577859 0.419270
O O11 0.531664 0.536973 0.292212
O O12 0.621974 0.970337 0.641151
#
# Coordination Sequence:
#
# PCOD8304202 Si02
#       6
#    16  16  16  16  16  16
#     4  10  19  32  48  74 114 152 187 223 275 354
#     4   9  17  34  53  73 106 142 180 230 283 333
#     4   8  15  33  51  69 104 150 173 224 280 319
#     4   9  18  33  54  78 106 137 188 237 276 331
#     4  11  19  32  56  81 103 148 192 228 288 345
#     4   8  17  32  53  76 107 139 181 232 273 326
#
# _framework density 20.888138000000001
#
# number of rings (size 3 to 8) (size 9 to 14) (size 15 to 20)
#    0.000    2.833    1.667    2.500    0.000    0.000 
#    6.000    3.333    0.000    4.000    0.000    0.000 
#    0.000    0.000    0.000    0.000    0.000    0.000 
#
# Total GULP energy -594875.511178 kJ/mol
# GULP energy per Si atom -12393.239816 kJ/mol
# Density = 2.084060 g / cm^3
# Si number density = 20.888138 Si / 1000 Ang^3
#
#
#
# Elastic Constant Matrix: (Units=GPa)
#
#
# Indices 1 2 3 4 5 6 
#
# 1 56.0391 26.4222 39.1806 0.0000 0.0000 4.3628
# 2 26.4222 56.0391 39.1806 0.0000 0.0000 -4.3628
# 3 39.1806 39.1806 111.8210 0.0000 0.0000 0.0000
# 4 0.0000 0.0000 0.0000 37.3667 0.0000 0.0000
# 5 0.0000 0.0000 0.0000 0.0000 37.3667 0.0000
# 6 4.3628 -4.3628 0.0000 0.0000 0.0000 27.0303
#
#
#
# Elastic Compliance Matrix: (Units=1/GPa)
#
#
# Indices 1 2 3 4 5 6 
#
# 1 0.026815 -0.008635 -0.006370 0.000000 0.000000 -0.005722
# 2 -0.008635 0.026815 -0.006370 0.000000 0.000000 0.005722
# 3 -0.006370 -0.006370 0.013407 0.000000 0.000000 0.000000
# 4 0.000000 0.000000 0.000000 0.026762 0.000000 0.000000
# 5 0.000000 0.000000 0.000000 0.000000 0.026762 0.000000
# 6 -0.005722 0.005722 0.000000 0.000000 0.000000 0.038842
#
#
# Mechanical properties :
#
#
# Convention : Reuss Voigt Hill
#
# Bulk Modulus (GPa) = 41.17436 48.16286 44.66861
# Shear Modulus (GPa) = 23.78125 28.29379 26.03752
#
# Velocity S-wave (km/s) = 3.37783 3.68440 3.53444
# Velocity P-wave (km/s) = 5.91335 6.41929 6.17151
#
# Compressibility (1/GPa) = 0.02428696
#
# Stress axis : x y z
#
# Youngs Moduli (GPa) = 37.29217 37.29217 74.58855
#
# Poissons Ratio (x) = 0.32202 0.47514
# Poissons Ratio (y) = 0.32202 0.47514
# Poissons Ratio (z) = 0.23756 0.23756
#
# Static dielectric constant tensor:
#      x y z
#    x 3.581790 0.000000 0.000000 
#    y 0.000000 3.581790 0.000000 
#    z 0.000000 0.000000 4.033590 
# 
# 
# High freq. dielectric constant tensor:
#      x y z
#    x 1.785120 0.000000 0.000000 
#    y 0.000000 1.785120 0.000000 
#    z 0.000000 0.000000 1.819790 
# 
# From -- ./inp_files/1690.got.cif
#   From: 2010.03.12/outbox.cif.g09.slc.cpg/sg88_1_cif.got.tgz:1690.got - 2010.04.08 20:20:55.
