data_PCOD8304603
_publ_section_title
;
Structure prediction by ZEFSAII (Michael W. Deem and Ramdas Pophale) SiO2 
 PCOD8304603
Probable space group: P 4 21 2
;
_chemical_formula_sum "Si O2"
_cell_formula_units_Z 54
_cell_length_a 14.757806
_cell_length_b 14.757806
_cell_length_c 11.929916
_cell_angle_alpha 90.000000
_cell_angle_beta 90.000000
_cell_angle_gamma 90.000000
_cell_volume 2598.250262
_symmetry_space_group_name_H-M "P 4 21 2"
_symmetry_group_IT_number 90
_symmetry_cell_setting 'tetragonal'
loop_
_space_group_symop_operation_xyz
x,y,z
1/2-y,1/2+x,z
-x,-y,z
1/2+y,1/2-x,z
1/2+x,1/2-y,-z
1/2-x,1/2+y,-z
y,x,-z
-y,-x,-z
loop_
_atom_site_type_symbol
_atom_site_label
_atom_site_fract_x
_atom_site_fract_y
_atom_site_fract_z
Si Si1 0.805842 0.983446 0.893213
Si Si2 0.997714 0.753284 0.869912
Si Si3 0.124471 0.124471 0.500000
Si Si4 0.429674 0.323897 0.422834
Si Si5 0.967370 0.360228 0.673333
Si Si6 0.819161 0.814880 0.741932
Si Si7 0.832874 0.164880 0.797437
Si Si8 0.500000 0.500000 0.000000
O O1 0.774060 0.078506 0.836982
O O2 0.784202 0.902791 0.808002
O O3 0.744810 0.959859 0.003867
O O4 0.912409 0.992115 0.920362
O O5 0.090296 0.811530 0.890563
O O6 0.035249 0.663965 0.806543
O O7 0.920473 0.791906 0.785816
O O8 0.177492 0.161854 0.609709
O O9 0.017690 0.133151 0.520324
O O10 0.343026 0.343026 0.500000
O O11 0.444518 0.217618 0.413204
O O12 0.400954 0.363803 0.302800
O O13 0.067103 0.392366 0.645004
O O14 0.749700 0.731826 0.764733
#
# Coordination Sequence:
#
# PCOD8304603 Si02
#       8
#     8   8   4   8   8   8   8   2
#     4  12  23  40  66  97 137 184 221 287 360 417
#     4  11  20  39  65  96 128 177 222 291 347 414
#     4  12  25  44  66  94 134 187 224 292 354 407
#     4  11  24  40  64  95 129 172 225 286 343 406
#     4  10  22  41  63  92 130 175 227 281 341 412
#     4  12  25  42  65 100 140 182 237 288 352 421
#     4  11  24  41  64  98 139 177 230 284 349 423
#     4  12  20  40  64  98 136 172 216 280 354 420
#
# _framework density 20.783215999999999
#
# number of rings (size 3 to 8) (size 9 to 14) (size 15 to 20)
#    0.000    0.741    5.926    2.889    1.037    3.556 
#    0.000    0.000    0.000    0.444    0.000    0.000 
#    0.000    0.000    0.000    0.000    0.000    0.000 
#
# Total GULP energy -668980.962799 kJ/mol
# GULP energy per Si atom -12388.536348 kJ/mol
# Density = 2.073591 g / cm^3
# Si number density = 20.783216 Si / 1000 Ang^3
#
#
#
# Elastic Constant Matrix: (Units=GPa)
#
#
# Indices 1 2 3 4 5 6 
#
# 1 107.2099 44.5640 56.1362 0.0000 0.0000 0.0000
# 2 44.5640 107.2099 56.1362 0.0000 0.0000 0.0000
# 3 56.1362 56.1362 128.3786 0.0000 0.0000 0.0000
# 4 0.0000 0.0000 0.0000 27.5969 0.0000 0.0000
# 5 0.0000 0.0000 0.0000 0.0000 27.5969 0.0000
# 6 0.0000 0.0000 0.0000 0.0000 0.0000 45.2275
#
#
#
# Elastic Compliance Matrix: (Units=1/GPa)
#
#
# Indices 1 2 3 4 5 6 
#
# 1 0.012851 -0.003112 -0.004259 0.000000 0.000000 0.000000
# 2 -0.003112 0.012851 -0.004259 0.000000 0.000000 0.000000
# 3 -0.004259 -0.004259 0.011514 0.000000 0.000000 0.000000
# 4 0.000000 0.000000 0.000000 0.036236 0.000000 0.000000
# 5 0.000000 0.000000 0.000000 0.000000 0.036236 0.000000
# 6 0.000000 0.000000 0.000000 0.000000 0.000000 0.022110
#
#
# Mechanical properties :
#
#
# Convention : Reuss Voigt Hill
#
# Bulk Modulus (GPa) = 71.64649 72.94123 72.29386
# Shear Modulus (GPa) = 31.30711 32.48175 31.89443
#
# Velocity S-wave (km/s) = 3.88540 3.95762 3.92168
# Velocity P-wave (km/s) = 7.39436 7.48706 7.44086
#
# Compressibility (1/GPa) = 0.01395742
#
# Stress axis : x y z
#
# Youngs Moduli (GPa) = 77.81595 77.81595 86.85269
#
# Poissons Ratio (x) = 0.24215 0.36987
# Poissons Ratio (y) = 0.24215 0.36987
# Poissons Ratio (z) = 0.33138 0.33138
#
# Static dielectric constant tensor:
#      x y z
#    x 3.877850 0.000000 0.000000 
#    y 0.000000 3.877850 0.000000 
#    z 0.000000 0.000000 3.875340 
# 
# 
# High freq. dielectric constant tensor:
#      x y z
#    x 1.809560 0.000000 0.000000 
#    y 0.000000 1.809560 0.000000 
#    z 0.000000 0.000000 1.812200 
# 
# From -- ./inp_files/2291.got.cif
#   From: 2010.03.12/outbox.cif.g09.slc.cpg/sg90_2_cif.got.tgz:2291.got - 2010.04.08 20:26:03.
