data_PCOD8304846
_publ_section_title
;
Structure prediction by ZEFSAII (Michael W. Deem and Ramdas Pophale) SiO2 
 PCOD8304846
Probable space group: P 41 2 2
;
_chemical_formula_sum "Si O2"
_cell_formula_units_Z 40
_cell_length_a 8.856942
_cell_length_b 8.856942
_cell_length_c 25.776076
_cell_angle_alpha 90.000000
_cell_angle_beta 90.000000
_cell_angle_gamma 90.000000
_cell_volume 2022.015149
_symmetry_space_group_name_H-M "P 41 2 2"
_symmetry_group_IT_number 91
_symmetry_cell_setting 'tetragonal'
loop_
_space_group_symop_operation_xyz
x,y,z
-y,x,1/4+z
-x,-y,1/2+z
y,-x,3/4+z
x,-y,1/2-z
-x,y,-z
y,x,3/4-z
-y,-x,1/4-z
loop_
_atom_site_type_symbol
_atom_site_label
_atom_site_fract_x
_atom_site_fract_y
_atom_site_fract_z
Si Si1 0.828268 0.033745 0.905905
Si Si2 0.506429 0.900203 0.586470
Si Si3 0.263177 0.149308 0.571347
Si Si4 0.943161 0.000000 0.750000
Si Si5 0.330473 0.500000 0.750000
Si Si6 0.349009 0.480194 0.583174
O O1 0.651166 0.992810 0.907537
O O2 0.860584 0.192619 0.878428
O O3 0.909480 0.050530 0.961067
O O4 0.892895 0.892895 0.875000
O O5 0.565361 0.777075 0.544783
O O6 0.470925 0.811841 0.640590
O O7 0.367731 0.000614 0.565319
O O8 0.127458 0.157008 0.529217
O O9 0.358327 0.303523 0.568311
O O10 0.431531 0.371433 0.778514
O O11 0.480613 0.519388 0.625000
#
# Coordination Sequence:
#
# PCOD8304846 Si02
#       6
#     8   8   8   4   4   8
#     4   9  20  36  54  82 115 146 187 233 280 336
#     4  10  20  36  58  82 109 148 189 229 283 339
#     4  10  21  38  59  83 114 150 186 234 285 332
#     4  10  20  34  56  86 116 144 186 232 280 336
#     4  10  20  34  56  82 110 144 188 230 272 334
#     4   9  21  39  57  83 116 147 187 233 279 337
#
# _framework density 19.782246000000001
#
# number of rings (size 3 to 8) (size 9 to 14) (size 15 to 20)
#    0.000    2.400    0.000    1.200    0.000   12.000 
#    0.000   16.000    0.000    6.000    0.000    0.000 
#    0.000    0.000    0.000    0.000    0.000    0.000 
#
# Total GULP energy -495613.969222 kJ/mol
# GULP energy per Si atom -12390.349231 kJ/mol
# Density = 1.973722 g / cm^3
# Si number density = 19.782246 Si / 1000 Ang^3
#
#
#
# Elastic Constant Matrix: (Units=GPa)
#
#
# Indices 1 2 3 4 5 6 
#
# 1 110.1058 71.1420 49.7465 0.0000 0.0000 0.0000
# 2 71.1420 110.1059 49.7463 0.0000 0.0000 0.0000
# 3 49.7465 49.7463 102.2834 0.0000 0.0000 0.0000
# 4 0.0000 0.0000 0.0000 23.0805 0.0000 0.0000
# 5 0.0000 0.0000 0.0000 0.0000 23.0804 0.0000
# 6 0.0000 0.0000 0.0000 0.0000 0.0000 33.2719
#
#
#
# Elastic Compliance Matrix: (Units=1/GPa)
#
#
# Indices 1 2 3 4 5 6 
#
# 1 0.016596 -0.009069 -0.003661 0.000000 0.000000 0.000000
# 2 -0.009069 0.016596 -0.003661 0.000000 0.000000 0.000000
# 3 -0.003661 -0.003661 0.013338 0.000000 0.000000 0.000000
# 4 0.000000 0.000000 0.000000 0.043327 0.000000 0.000000
# 5 0.000000 0.000000 0.000000 0.000000 0.043327 0.000000
# 6 0.000000 0.000000 0.000000 0.000000 0.000000 0.030055
#
#
# Mechanical properties :
#
#
# Convention : Reuss Voigt Hill
#
# Bulk Modulus (GPa) = 72.73622 73.75165 73.24394
# Shear Modulus (GPa) = 24.92501 26.01058 25.46779
#
# Velocity S-wave (km/s) = 3.55345 3.63001 3.59194
# Velocity P-wave (km/s) = 7.32696 7.41161 7.36941
#
# Compressibility (1/GPa) = 0.01374831
#
# Stress axis : x y z
#
# Youngs Moduli (GPa) = 60.25603 60.25626 74.97592
#
# Poissons Ratio (x) = 0.54647 0.27447
# Poissons Ratio (y) = 0.54646 0.27446
# Poissons Ratio (z) = 0.22058 0.22058
#
# Static dielectric constant tensor:
#      x y z
#    x 3.533440 0.000000 0.000000 
#    y 0.000000 3.533440 0.000000 
#    z 0.000000 0.000000 3.929950 
# 
# 
# High freq. dielectric constant tensor:
#      x y z
#    x 1.759220 0.000000 0.000000 
#    y 0.000000 1.759220 0.000000 
#    z 0.000000 0.000000 1.781510 
# 
# From -- ./inp_files/7427.got.cif
#   From: 2010.03.12/outbox.cif.g09.slc.cpg/sg91_4_cif.got.tgz:7427.got - 2010.04.08 20:27:58.
