data_PCOD8304139
_publ_section_title
;
Structure prediction by ZEFSAII (Michael W. Deem and Ramdas Pophale) SiO2 
 PCOD8304139
Probable space group: I 4/M
;
_chemical_formula_sum "Si O2"
_cell_formula_units_Z 72
_cell_length_a 20.711436
_cell_length_b 20.711436
_cell_length_c 7.881920
_cell_angle_alpha 90.000000
_cell_angle_beta 90.000000
_cell_angle_gamma 90.000000
_cell_volume 3381.056630
_symmetry_space_group_name_H-M "I 4/M"
_symmetry_group_IT_number 87
_symmetry_cell_setting 'tetragonal'
loop_
_space_group_symop_operation_xyz
x,y,z
-y,x,z
-x,-y,z
y,-x,z
-x,-y,-z
y,-x,-z
x,y,-z
-y,x,-z
1/2+x,1/2+y,1/2+z
1/2-y,1/2+x,1/2+z
1/2-x,1/2-y,1/2+z
1/2+y,1/2-x,1/2+z
1/2-x,1/2-y,1/2-z
1/2+y,1/2-x,1/2-z
1/2+x,1/2+y,1/2-z
1/2-y,1/2+x,1/2-z
loop_
_atom_site_type_symbol
_atom_site_label
_atom_site_fract_x
_atom_site_fract_y
_atom_site_fract_z
Si Si1 0.091933 0.654626 0.692923
Si Si2 0.530675 0.602000 0.000000
Si Si3 0.685893 0.049276 0.306692
Si Si4 0.766577 0.821866 0.196582
Si Si5 0.085435 0.177827 0.191849
O O1 0.090056 0.630504 0.500000
O O2 0.127905 0.600418 0.801836
O O3 0.127880 0.723335 0.700381
O O4 0.019601 0.662327 0.765557
O O5 0.457225 0.579727 0.000000
O O6 0.540114 0.642919 0.828213
O O7 0.709480 0.041240 0.500000
O O8 0.745289 0.074952 0.195679
O O9 0.750000 0.750000 0.250000
O O10 0.840667 0.837589 0.238489
O O11 0.750944 0.830609 0.000000
O O12 0.069292 0.154035 0.000000
#
# Coordination Sequence:
#
# PCOD8304139 Si02
#       5
#    16   8  16  16  16
#     4  11  25  41  65  96 131 178 228 280 344 409
#     4  11  28  50  72 100 140 183 227 281 341 413
#     4  11  24  43  65  95 137 181 226 285 342 406
#     4  11  23  38  62  97 130 166 214 277 339 396
#     4  11  25  43  70 103 138 177 229 285 342 408
#
# _framework density 21.295117000000001
#
# number of rings (size 3 to 8) (size 9 to 14) (size 15 to 20)
#    0.000    1.000    3.333    2.000    6.222    4.889 
#    0.000    3.333    0.000    0.000    0.000    0.000 
#    0.000    0.000    0.000    0.000    0.000    0.000 
#
# Total GULP energy -446623.991672 kJ/mol
# GULP energy per Si atom -12406.221991 kJ/mol
# Density = 2.124665 g / cm^3
# Si number density = 21.295117 Si / 1000 Ang^3
#
#
#
# Elastic Constant Matrix: (Units=GPa)
#
#
# Indices 1 2 3 4 5 6 
#
# 1 122.4277 46.3609 23.9106 0.0000 0.0000 -5.3151
# 2 46.3609 122.4277 23.9106 0.0000 0.0000 5.3151
# 3 23.9106 23.9106 85.5179 0.0000 0.0000 0.0000
# 4 0.0000 0.0000 0.0000 29.4762 0.0000 0.0000
# 5 0.0000 0.0000 0.0000 0.0000 29.4762 0.0000
# 6 -5.3151 5.3151 0.0000 0.0000 0.0000 29.8421
#
#
#
# Elastic Compliance Matrix: (Units=1/GPa)
#
#
# Indices 1 2 3 4 5 6 
#
# 1 0.009958 -0.003524 -0.001799 0.000000 0.000000 0.002401
# 2 -0.003524 0.009958 -0.001799 0.000000 0.000000 -0.002401
# 3 -0.001799 -0.001799 0.012699 0.000000 0.000000 0.000000
# 4 0.000000 0.000000 0.000000 0.033926 0.000000 0.000000
# 5 0.000000 0.000000 0.000000 0.000000 0.033926 0.000000
# 6 0.002401 -0.002401 0.000000 0.000000 0.000000 0.034365
#
#
# Mechanical properties :
#
#
# Convention : Reuss Voigt Hill
#
# Bulk Modulus (GPa) = 54.43074 57.63748 56.03411
# Shear Modulus (GPa) = 32.21655 33.50496 32.86076
#
# Velocity S-wave (km/s) = 3.89377 3.97087 3.93251
# Velocity P-wave (km/s) = 6.76986 6.93891 6.85491
#
# Compressibility (1/GPa) = 0.01837197
#
# Stress axis : x y z
#
# Youngs Moduli (GPa) = 100.42091 100.42091 78.74351
#
# Poissons Ratio (x) = 0.35386 0.14166
# Poissons Ratio (y) = 0.35386 0.14166
# Poissons Ratio (z) = 0.18066 0.18066
#
# Static dielectric constant tensor:
#      x y z
#    x 3.840070 0.000000 0.000000 
#    y 0.000000 3.840070 0.000000 
#    z 0.000000 0.000000 3.792870 
# 
# 
# High freq. dielectric constant tensor:
#      x y z
#    x 1.836180 0.000000 0.000000 
#    y 0.000000 1.836180 0.000000 
#    z 0.000000 0.000000 1.842730 
# 
# From -- ./inp_files/1036.got.cif
#   From: 2010.03.12/outbox.cif.g09.slc.cpg/sg87_1_cif.got.tgz:1036.got - 2010.04.08 20:16:13.
