data_PCOD8304402
_publ_section_title
;
Structure prediction by ZEFSAII (Michael W. Deem and Ramdas Pophale) SiO2 
 PCOD8304402
Probable space group: I 41/A
;
_chemical_formula_sum "Si O2"
_cell_formula_units_Z 72
_cell_length_a 14.961511
_cell_length_b 14.961511
_cell_length_c 14.932844
_cell_angle_alpha 90.000000
_cell_angle_beta 90.000000
_cell_angle_gamma 90.000000
_cell_volume 3342.669515
_symmetry_space_group_name_H-M "I 41/A"
_symmetry_group_IT_number 88
_space_group.IT_coordinate_system_code '2'
_symmetry_cell_setting 'tetragonal'
loop_
_space_group_symop_operation_xyz
x,y,z
3/4-y,1/4+x,1/4+z
-x,1/2-y,z
1/4+y,1/4-x,1/4+z
-x,-y,-z
1/4+y,3/4-x,3/4-z
x,1/2+y,-z
3/4-y,3/4+x,3/4-z
1/2+x,1/2+y,1/2+z
1/4-y,3/4+x,3/4+z
1/2-x,-y,1/2+z
3/4+y,3/4-x,3/4+z
1/2-x,1/2-y,1/2-z
3/4+y,1/4-x,1/4-z
1/2+x,y,1/2-z
1/4-y,1/4+x,1/4-z
loop_
_atom_site_type_symbol
_atom_site_label
_atom_site_fract_x
_atom_site_fract_y
_atom_site_fract_z
Si Si1 0.254731 0.399331 0.726332
Si Si2 0.500000 0.750000 0.625000
Si Si3 0.831406 0.048533 0.900395
Si Si4 0.441459 0.927086 0.189934
Si Si5 0.177865 0.302586 0.043917
Si Si6 0.500000 0.250000 0.875000
O O1 0.183737 0.398305 0.807418
O O2 0.256408 0.493071 0.674518
O O3 0.224362 0.323605 0.656463
O O4 0.353590 0.384697 0.764762
O O5 0.495934 0.660038 0.683524
O O6 0.909040 0.975277 0.883902
O O7 0.854836 0.117451 0.978992
O O8 0.508378 0.842447 0.180973
O O9 0.486517 0.001635 0.249973
#
# Coordination Sequence:
#
# PCOD8304402 Si02
#       6
#    16   4  16  16  16   4
#     4   9  19  38  62  87 120 165 209 254 320 384
#     4  12  28  44  62  96 128 166 228 264 300 388
#     4   9  19  39  63  85 116 162 207 256 320 379
#     4  11  23  38  61  93 131 168 211 268 322 380
#     4  11  24  41  63  92 127 166 212 267 320 380
#     4  12  24  36  58  96 128 160 216 266 308 380
#
# _framework density 21.539670000000001
#
# number of rings (size 3 to 8) (size 9 to 14) (size 15 to 20)
#    0.000    1.778    0.000    5.333    0.000    8.000 
#    0.000    1.111    0.000    0.000    0.000    0.000 
#    0.000    0.000    0.000    0.000    0.000    0.000 
#
# Total GULP energy -446413.254351 kJ/mol
# GULP energy per Si atom -12400.368176 kJ/mol
# Density = 2.149065 g / cm^3
# Si number density = 21.539670 Si / 1000 Ang^3
#
#
#
# Elastic Constant Matrix: (Units=GPa)
#
#
# Indices 1 2 3 4 5 6 
#
# 1 101.8516 39.2072 27.1352 0.0000 0.0000 3.6095
# 2 39.2072 101.8516 27.1352 0.0000 0.0000 -3.6095
# 3 27.1352 27.1352 77.8950 0.0000 0.0000 0.0000
# 4 0.0000 0.0000 0.0000 29.8156 0.0000 0.0000
# 5 0.0000 0.0000 0.0000 0.0000 29.8156 0.0000
# 6 3.6095 -3.6095 0.0000 0.0000 0.0000 37.2451
#
#
#
# Elastic Compliance Matrix: (Units=1/GPa)
#
#
# Indices 1 2 3 4 5 6 
#
# 1 0.012165 -0.003978 -0.002852 0.000000 0.000000 -0.001564
# 2 -0.003978 0.012165 -0.002852 0.000000 0.000000 0.001564
# 3 -0.002852 -0.002852 0.014825 0.000000 0.000000 0.000000
# 4 0.000000 0.000000 0.000000 0.033540 0.000000 0.000000
# 5 0.000000 0.000000 0.000000 0.000000 0.033540 0.000000
# 6 -0.001564 0.001564 0.000000 0.000000 0.000000 0.027152
#
#
# Mechanical properties :
#
#
# Convention : Reuss Voigt Hill
#
# Bulk Modulus (GPa) = 50.52965 52.06150 51.29558
# Shear Modulus (GPa) = 31.37808 31.91661 31.64734
#
# Velocity S-wave (km/s) = 3.82089 3.85354 3.83725
# Velocity P-wave (km/s) = 6.55556 6.63492 6.59536
#
# Compressibility (1/GPa) = 0.01979036
#
# Stress axis : x y z
#
# Youngs Moduli (GPa) = 82.20360 82.20360 67.45508
#
# Poissons Ratio (x) = 0.32705 0.19237
# Poissons Ratio (y) = 0.32705 0.19237
# Poissons Ratio (z) = 0.23443 0.23443
#
# Static dielectric constant tensor:
#      x y z
#    x 3.838820 0.000000 0.000000 
#    y 0.000000 3.838820 0.000000 
#    z 0.000000 0.000000 4.041140 
# 
# 
# High freq. dielectric constant tensor:
#      x y z
#    x 1.844900 0.000000 0.000000 
#    y 0.000000 1.844900 0.000000 
#    z 0.000000 0.000000 1.842200 
# 
# From -- ./inp_files/3842.got.cif
#   From: 2010.03.12/outbox.cif.g09.slc.cpg/sg88_2_cif.got.tgz:3842.got - 2010.04.08 20:20:55.
