data_PCOD8304418
_publ_section_title
;
Structure prediction by ZEFSAII (Michael W. Deem and Ramdas Pophale) SiO2 
 PCOD8304418
Probable space group: I 41/A
;
_chemical_formula_sum "Si O2"
_cell_formula_units_Z 48
_cell_length_a 16.219027
_cell_length_b 16.219027
_cell_length_c 7.491527
_cell_angle_alpha 90.000000
_cell_angle_beta 90.000000
_cell_angle_gamma 90.000000
_cell_volume 1970.697396
_symmetry_space_group_name_H-M "I 41/A"
_symmetry_group_IT_number 88
_space_group.IT_coordinate_system_code '2'
_symmetry_cell_setting 'tetragonal'
loop_
_space_group_symop_operation_xyz
x,y,z
3/4-y,1/4+x,1/4+z
-x,1/2-y,z
1/4+y,1/4-x,1/4+z
-x,-y,-z
1/4+y,3/4-x,3/4-z
x,1/2+y,-z
3/4-y,3/4+x,3/4-z
1/2+x,1/2+y,1/2+z
1/4-y,3/4+x,3/4+z
1/2-x,-y,1/2+z
3/4+y,3/4-x,3/4+z
1/2-x,1/2-y,1/2-z
3/4+y,1/4-x,1/4-z
1/2+x,y,1/2-z
1/4-y,1/4+x,1/4-z
loop_
_atom_site_type_symbol
_atom_site_label
_atom_site_fract_x
_atom_site_fract_y
_atom_site_fract_z
Si Si1 0.621225 0.768502 0.566009
Si Si2 0.386179 0.802906 0.181375
Si Si3 0.141633 0.995801 0.200872
O O1 0.588758 0.700839 0.708895
O O2 0.639231 0.723903 0.379346
O O3 0.704711 0.813157 0.630575
O O4 0.471755 0.853322 0.191067
O O5 0.316876 0.862515 0.103207
O O6 0.187443 0.951888 0.039907
#
# Coordination Sequence:
#
# PCOD8304418 Si02
#       3
#    16  16  16
#     4  11  25  46  73 108 137 190 244 293 348 430
#     4  11  23  47  74 100 139 192 244 287 354 431
#     4  12  29  47  71 109 149 191 231 305 368 416
#
# _framework density 24.356859
#
# number of rings (size 3 to 8) (size 9 to 14) (size 15 to 20)
#    0.000    0.667    3.333    5.000    4.667    1.333 
#    0.000    0.000    0.000    0.000    0.000    0.000 
#    0.000    0.000    0.000    0.000    0.000    0.000 
#
# Total GULP energy -297642.534937 kJ/mol
# GULP energy per Si atom -12401.772289 kJ/mol
# Density = 2.430142 g / cm^3
# Si number density = 24.356859 Si / 1000 Ang^3
#
#
#
# Elastic Constant Matrix: (Units=GPa)
#
#
# Indices 1 2 3 4 5 6 
#
# 1 52.6788 18.6930 -5.3751 0.0000 0.0000 11.3366
# 2 18.6930 52.6788 -5.3751 0.0000 0.0000 -11.3366
# 3 -5.3751 -5.3751 27.3994 0.0000 0.0000 0.0000
# 4 0.0000 0.0000 0.0000 35.4453 0.0000 0.0000
# 5 0.0000 0.0000 0.0000 0.0000 35.4453 0.0000
# 6 11.3366 -11.3366 0.0000 0.0000 0.0000 62.6060
#
#
#
# Elastic Compliance Matrix: (Units=1/GPa)
#
#
# Indices 1 2 3 4 5 6 
#
# 1 0.023952 -0.009515 0.002832 0.000000 0.000000 -0.006060
# 2 -0.009515 0.023952 0.002832 0.000000 0.000000 0.006060
# 3 0.002832 0.002832 0.037608 0.000000 0.000000 0.000000
# 4 0.000000 0.000000 0.000000 0.028212 0.000000 0.000000
# 5 0.000000 0.000000 0.000000 0.000000 0.028212 0.000000
# 6 -0.006060 0.006060 0.000000 0.000000 0.000000 0.018168
#
#
# Mechanical properties :
#
#
# Convention : Reuss Voigt Hill
#
# Bulk Modulus (GPa) = 12.85129 16.51585 14.68357
# Shear Modulus (GPa) = 25.80730 35.02026 30.41378
#
# Velocity S-wave (km/s) = 3.25860 3.79594 3.53749
# Velocity P-wave (km/s) = 4.40973 5.09978 4.76726
#
# Compressibility (1/GPa) = 0.07781320
#
# Stress axis : x y z
#
# Youngs Moduli (GPa) = 41.74944 41.74944 26.58980
#
# Poissons Ratio (x) = 0.39723 -0.07531
# Poissons Ratio (y) = 0.39723 -0.07531
# Poissons Ratio (z) = -0.11825 -0.11825
#
# Static dielectric constant tensor:
#      x y z
#    x 4.653410 0.000000 0.000000 
#    y 0.000000 4.653410 0.000000 
#    z 0.000000 0.000000 3.896260 
# 
# 
# High freq. dielectric constant tensor:
#      x y z
#    x 1.977330 0.000000 0.000000 
#    y 0.000000 1.977330 0.000000 
#    z 0.000000 0.000000 1.947710 
# 
# From -- ./inp_files/1138.got.cif
#   From: 2010.03.12/outbox.cif.g09.slc.cpg/sg88_1_cif.got.tgz:1138.got - 2010.04.08 20:20:55.
