data_PCOD8304518
_publ_section_title
;
Structure prediction by ZEFSAII (Michael W. Deem and Ramdas Pophale) SiO2 
 PCOD8304518
Probable space group: P 4 2 2
;
_chemical_formula_sum "Si O2"
_cell_formula_units_Z 40
_cell_length_a 8.938809
_cell_length_b 8.938809
_cell_length_c 24.259232
_cell_angle_alpha 90.000000
_cell_angle_beta 90.000000
_cell_angle_gamma 90.000000
_cell_volume 1938.368587
_symmetry_space_group_name_H-M "P 4 2 2"
_symmetry_group_IT_number 89
_symmetry_cell_setting 'tetragonal'
loop_
_space_group_symop_operation_xyz
x,y,z
-y,x,z
-x,-y,z
y,-x,z
x,-y,-z
-x,y,-z
y,x,-z
-y,-x,-z
loop_
_atom_site_type_symbol
_atom_site_label
_atom_site_fract_x
_atom_site_fract_y
_atom_site_fract_z
Si Si1 0.693851 0.652701 0.840662
Si Si2 0.820735 0.835035 0.063684
Si Si3 0.864487 0.792076 0.741602
Si Si4 0.385863 0.278909 0.355878
Si Si5 0.361084 0.841255 0.526346
O O1 0.524421 0.706796 0.830683
O O2 0.737927 0.701445 0.902314
O O3 0.811750 0.733207 0.800727
O O4 0.991305 0.792450 0.078034
O O5 0.795463 0.795463 0.000000
O O6 0.807601 0.672636 0.697158
O O7 0.042978 0.795730 0.734955
O O8 0.563413 0.300877 0.355989
O O9 0.349702 0.173104 0.407941
O O10 0.500000 0.744452 0.500000
O O11 0.207312 0.792689 0.500000
O O12 0.385522 0.000000 0.500000
#
# Coordination Sequence:
#
# PCOD8304518 Si02
#       5
#     8   8   8   8   8
#     4  11  24  41  61  90 127 166 212 262 313 369
#     4   9  19  37  62  92 127 167 212 261 313 371
#     4  11  26  44  65  93 125 161 205 259 315 374
#     4  11  24  42  67  95 126 162 206 256 305 369
#     4  11  24  41  64  94 126 164 204 248 307 366
#
# _framework density 20.635909999999999
#
# number of rings (size 3 to 8) (size 9 to 14) (size 15 to 20)
#    0.000    1.400    2.000    3.000    2.800   10.000 
#    0.000    3.000    0.000    0.000    0.000    0.000 
#    0.000    0.000    0.000    0.000    0.000    0.000 
#
# Total GULP energy -495737.777768 kJ/mol
# GULP energy per Si atom -12393.444444 kJ/mol
# Density = 2.058894 g / cm^3
# Si number density = 20.635910 Si / 1000 Ang^3
#
#
#
# Elastic Constant Matrix: (Units=GPa)
#
#
# Indices 1 2 3 4 5 6 
#
# 1 79.8421 44.4697 40.1064 0.0000 0.0000 0.0000
# 2 44.4697 79.8414 40.1060 0.0000 0.0000 0.0000
# 3 40.1064 40.1060 123.4275 0.0000 0.0000 0.0000
# 4 0.0000 0.0000 0.0000 44.1284 0.0000 0.0000
# 5 0.0000 0.0000 0.0000 0.0000 44.1283 0.0000
# 6 0.0000 0.0000 0.0000 0.0000 0.0000 31.1287
#
#
#
# Elastic Compliance Matrix: (Units=1/GPa)
#
#
# Indices 1 2 3 4 5 6 
#
# 1 0.019225 -0.009046 -0.003307 0.000000 0.000000 0.000000
# 2 -0.009046 0.019225 -0.003307 0.000000 0.000000 0.000000
# 3 -0.003307 -0.003307 0.010251 0.000000 0.000000 0.000000
# 4 0.000000 0.000000 0.000000 0.022661 0.000000 0.000000
# 5 0.000000 0.000000 0.000000 0.000000 0.022661 0.000000
# 6 0.000000 0.000000 0.000000 0.000000 0.000000 0.032125
#
#
# Mechanical properties :
#
#
# Convention : Reuss Voigt Hill
#
# Bulk Modulus (GPa) = 57.54172 59.16391 58.35281
# Shear Modulus (GPa) = 30.62558 34.43903 32.53231
#
# Velocity S-wave (km/s) = 3.85657 4.08963 3.97481
# Velocity P-wave (km/s) = 6.91199 7.14372 7.02881
#
# Compressibility (1/GPa) = 0.01737870
#
# Stress axis : x y z
#
# Youngs Moduli (GPa) = 52.01684 52.01649 97.54888
#
# Poissons Ratio (x) = 0.47055 0.32263
# Poissons Ratio (y) = 0.47056 0.32262
# Poissons Ratio (z) = 0.17204 0.17203
#
# Static dielectric constant tensor:
#      x y z
#    x 3.763230 0.000000 0.000000 
#    y 0.000000 3.763230 0.000000 
#    z 0.000000 0.000000 3.773170 
# 
# 
# High freq. dielectric constant tensor:
#      x y z
#    x 1.811490 0.000000 0.000000 
#    y 0.000000 1.811500 0.000000 
#    z 0.000000 0.000000 1.816390 
# 
# From -- ./inp_files/2680.got.cif
#   From: 2010.03.12/outbox.cif.g09.slc.cpg/sg89_2_cif.got.tgz:2680.got - 2010.04.08 20:24:03.
