data_PCOD8304944
_publ_section_title
;
Structure prediction by ZEFSAII (Michael W. Deem and Ramdas Pophale) SiO2 
 PCOD8304944
Probable space group: P 41 2 2
;
_chemical_formula_sum "Si O2"
_cell_formula_units_Z 64
_cell_length_a 12.284773
_cell_length_b 12.284773
_cell_length_c 20.752825
_cell_angle_alpha 90.000000
_cell_angle_beta 90.000000
_cell_angle_gamma 90.000000
_cell_volume 3131.926026
_symmetry_space_group_name_H-M "P 41 2 2"
_symmetry_group_IT_number 91
_symmetry_cell_setting 'tetragonal'
loop_
_space_group_symop_operation_xyz
x,y,z
-y,x,1/4+z
-x,-y,1/2+z
y,-x,3/4+z
x,-y,1/2-z
-x,y,-z
y,x,3/4-z
-y,-x,1/4-z
loop_
_atom_site_type_symbol
_atom_site_label
_atom_site_fract_x
_atom_site_fract_y
_atom_site_fract_z
Si Si1 0.121193 0.616096 0.508676
Si Si2 0.442069 0.845895 0.879457
Si Si3 0.091100 0.440167 0.850674
Si Si4 0.800899 0.771922 0.689842
Si Si5 0.681261 0.924777 0.602002
Si Si6 0.763546 0.832103 0.476933
Si Si7 0.074034 0.999699 0.938629
Si Si8 0.676983 0.822690 0.918501
O O1 0.148346 0.537854 0.447818
O O2 0.125031 0.549215 0.574574
O O3 0.214451 0.705997 0.512921
O O4 0.000000 0.667373 0.500000
O O5 0.332292 0.778361 0.893855
O O6 0.547650 0.795945 0.915054
O O7 0.414196 0.964239 0.908751
O O8 0.111271 0.562421 0.825273
O O9 0.158592 0.348344 0.813327
O O10 0.711608 0.863994 0.669480
O O11 0.916953 0.827257 0.679153
O O12 0.798635 0.726660 0.761909
O O13 0.763265 0.889746 0.546211
O O14 0.691711 0.055015 0.609370
O O15 0.868910 0.882287 0.441850
O O16 0.997879 0.997879 0.875000
O O17 0.000000 0.969628 0.000000
O O18 0.738162 0.738162 0.875000
#
# Coordination Sequence:
#
# PCOD8304944 Si02
#       8
#     8   8   8   8   8   8   8   8
#     4  10  21  35  60  93 126 160 204 255 310 382
#     4  10  21  43  63  87 125 168 219 257 314 382
#     4  10  21  37  60  89 124 166 208 259 312 380
#     4  12  24  41  63  89 129 173 211 263 325 387
#     4  11  24  39  61  92 129 159 214 271 324 378
#     4  12  20  38  60  92 127 170 206 248 315 392
#     4  12  26  37  59  91 140 177 207 248 316 403
#     4  11  26  43  66  92 124 171 221 267 325 391
#
# _framework density 20.434709000000002
#
# number of rings (size 3 to 8) (size 9 to 14) (size 15 to 20)
#    0.000    1.000    3.750    3.000    5.250    2.000 
#    0.000    0.000    0.000    1.500    0.000    0.000 
#    0.000    0.000    0.000    0.000    0.000    0.000 
#
# Total GULP energy -793340.550667 kJ/mol
# GULP energy per Si atom -12395.946104 kJ/mol
# Density = 2.038820 g / cm^3
# Si number density = 20.434709 Si / 1000 Ang^3
#
#
#
# Elastic Constant Matrix: (Units=GPa)
#
#
# Indices 1 2 3 4 5 6 
#
# 1 70.9780 34.1374 30.4300 0.0000 0.0000 0.0000
# 2 34.1374 70.9780 30.4300 0.0000 0.0000 0.0000
# 3 30.4300 30.4300 103.9299 0.0000 0.0000 0.0000
# 4 0.0000 0.0000 0.0000 31.8628 0.0000 0.0000
# 5 0.0000 0.0000 0.0000 0.0000 31.8628 0.0000
# 6 0.0000 0.0000 0.0000 0.0000 0.0000 22.3397
#
#
#
# Elastic Compliance Matrix: (Units=1/GPa)
#
#
# Indices 1 2 3 4 5 6 
#
# 1 0.019300 -0.007844 -0.003354 0.000000 0.000000 0.000000
# 2 -0.007844 0.019300 -0.003354 0.000000 0.000000 0.000000
# 3 -0.003354 -0.003354 0.011586 0.000000 0.000000 0.000000
# 4 0.000000 0.000000 0.000000 0.031385 0.000000 0.000000
# 5 0.000000 0.000000 0.000000 0.000000 0.031385 0.000000
# 6 0.000000 0.000000 0.000000 0.000000 0.000000 0.044763
#
#
# Mechanical properties :
#
#
# Convention : Reuss Voigt Hill
#
# Bulk Modulus (GPa) = 47.43746 48.43118 47.93432
# Shear Modulus (GPa) = 25.79323 27.27229 26.53276
#
# Velocity S-wave (km/s) = 3.55664 3.65719 3.60726
# Velocity P-wave (km/s) = 6.33489 6.44867 6.39203
#
# Compressibility (1/GPa) = 0.02108039
#
# Stress axis : x y z
#
# Youngs Moduli (GPa) = 51.81445 51.81445 86.31138
#
# Poissons Ratio (x) = 0.40645 0.28949
# Poissons Ratio (y) = 0.40645 0.28949
# Poissons Ratio (z) = 0.17379 0.17379
#
# Static dielectric constant tensor:
#      x y z
#    x 3.563030 0.000000 0.000000 
#    y 0.000000 3.563030 0.000000 
#    z 0.000000 0.000000 4.097590 
# 
# 
# High freq. dielectric constant tensor:
#      x y z
#    x 1.779710 0.000000 0.000000 
#    y 0.000000 1.779710 0.000000 
#    z 0.000000 0.000000 1.816360 
# 
# From -- ./inp_files/21860.got.cif
#   From: 2010.03.12/outbox.cif.g09.slc.cpg/sg91_11_cif.got.tgz:21860.got - 2010.04.08 20:27:58.
