data_PCOD8304946
_publ_section_title
;
Structure prediction by ZEFSAII (Michael W. Deem and Ramdas Pophale) SiO2 
 PCOD8304946
Probable space group: P 41 2 2
;
_chemical_formula_sum "Si O2"
_cell_formula_units_Z 24
_cell_length_a 15.762266
_cell_length_b 15.762266
_cell_length_c 5.051175
_cell_angle_alpha 90.000000
_cell_angle_beta 90.000000
_cell_angle_gamma 90.000000
_cell_volume 1254.959526
_symmetry_space_group_name_H-M "P 41 2 2"
_symmetry_group_IT_number 91
_symmetry_cell_setting 'tetragonal'
loop_
_space_group_symop_operation_xyz
x,y,z
-y,x,1/4+z
-x,-y,1/2+z
y,-x,3/4+z
x,-y,1/2-z
-x,y,-z
y,x,3/4-z
-y,-x,1/4-z
loop_
_atom_site_type_symbol
_atom_site_label
_atom_site_fract_x
_atom_site_fract_y
_atom_site_fract_z
Si Si1 0.211369 0.289202 0.630902
Si Si2 0.825216 0.947296 0.488415
Si Si3 0.906805 0.558849 0.004024
O O1 0.260424 0.260424 0.375000
O O2 0.130916 0.232475 0.688790
O O3 0.174138 0.381824 0.565122
O O4 0.278817 0.278817 0.875000
O O5 0.914941 0.914941 0.375000
O O6 0.780266 0.000000 0.250000
O O7 0.843349 0.000000 0.750000
O O8 0.887630 0.500000 0.750000
O O9 0.917891 0.500000 0.250000
O O10 0.000000 0.607044 0.000000
#
# Coordination Sequence:
#
# PCOD8304946 Si02
#       3
#     8   8   8
#     4  11  22  37  56  78 108 144 182 223 273 334
#     4  11  22  35  49  68  96 136 184 231 273 312
#     4  10  21  36  57  84 113 146 184 230 280 330
#
# _framework density 19.124122
#
# number of rings (size 3 to 8) (size 9 to 14) (size 15 to 20)
#    0.000    1.333    0.000    8.000    0.000    5.333 
#    0.000    1.667    0.000    0.000    0.000    0.000 
#    0.000   37.333    0.000    0.000    0.000    0.000 
#
# Total GULP energy -297316.893179 kJ/mol
# GULP energy per Si atom -12388.203882 kJ/mol
# Density = 1.908059 g / cm^3
# Si number density = 19.124122 Si / 1000 Ang^3
#
#
#
# Elastic Constant Matrix: (Units=GPa)
#
#
# Indices 1 2 3 4 5 6 
#
# 1 63.2916 34.8735 30.6760 0.0000 0.0000 0.0000
# 2 34.8735 63.2916 30.6760 0.0000 0.0000 0.0000
# 3 30.6760 30.6760 160.0013 0.0000 0.0000 0.0000
# 4 0.0000 0.0000 0.0000 15.2440 0.0000 0.0000
# 5 0.0000 0.0000 0.0000 0.0000 15.2440 0.0000
# 6 0.0000 0.0000 0.0000 0.0000 0.0000 47.9165
#
#
#
# Elastic Compliance Matrix: (Units=1/GPa)
#
#
# Indices 1 2 3 4 5 6 
#
# 1 0.023381 -0.011808 -0.002219 0.000000 0.000000 0.000000
# 2 -0.011808 0.023381 -0.002219 0.000000 0.000000 0.000000
# 3 -0.002219 -0.002219 0.007101 0.000000 0.000000 0.000000
# 4 0.000000 0.000000 0.000000 0.065599 0.000000 0.000000
# 5 0.000000 0.000000 0.000000 0.000000 0.065599 0.000000
# 6 0.000000 0.000000 0.000000 0.000000 0.000000 0.020870
#
#
# Mechanical properties :
#
#
# Convention : Reuss Voigt Hill
#
# Bulk Modulus (GPa) = 46.78920 53.22617 50.00769
# Shear Modulus (GPa) = 20.36270 28.37151 24.36711
#
# Velocity S-wave (km/s) = 3.26661 3.85586 3.57340
# Velocity P-wave (km/s) = 6.22470 6.90767 6.57506
#
# Compressibility (1/GPa) = 0.02137245
#
# Stress axis : x y z
#
# Youngs Moduli (GPa) = 42.76916 42.76916 140.82918
#
# Poissons Ratio (x) = 0.50500 0.31249
# Poissons Ratio (y) = 0.50500 0.31249
# Poissons Ratio (z) = 0.09490 0.09490
#
# Static dielectric constant tensor:
#      x y z
#    x 3.619580 0.000000 0.000000 
#    y 0.000000 3.619580 0.000000 
#    z 0.000000 0.000000 3.792190 
# 
# 
# High freq. dielectric constant tensor:
#      x y z
#    x 1.718400 0.000000 0.000000 
#    y 0.000000 1.718400 0.000000 
#    z 0.000000 0.000000 1.780050 
# 
# From -- ./inp_files/224.got.cif
#   From: 2010.03.12/outbox.cif.g09.slc.cpg/sg91_1_cif.got.tgz:224.got - 2010.04.08 20:27:58.
