data_PCOD8304277
_publ_section_title
;
Structure prediction by ZEFSAII (Michael W. Deem and Ramdas Pophale) SiO2 
 PCOD8304277
Probable space group: I 41/A
;
_chemical_formula_sum "Si O2"
_cell_formula_units_Z 112
_cell_length_a 14.507704
_cell_length_b 14.507704
_cell_length_c 28.159841
_cell_angle_alpha 90.000000
_cell_angle_beta 90.000000
_cell_angle_gamma 90.000000
_cell_volume 5926.899601
_symmetry_space_group_name_H-M "I 41/A"
_symmetry_group_IT_number 88
_space_group.IT_coordinate_system_code '2'
_symmetry_cell_setting 'tetragonal'
loop_
_space_group_symop_operation_xyz
x,y,z
3/4-y,1/4+x,1/4+z
-x,1/2-y,z
1/4+y,1/4-x,1/4+z
-x,-y,-z
1/4+y,3/4-x,3/4-z
x,1/2+y,-z
3/4-y,3/4+x,3/4-z
1/2+x,1/2+y,1/2+z
1/4-y,3/4+x,3/4+z
1/2-x,-y,1/2+z
3/4+y,3/4-x,3/4+z
1/2-x,1/2-y,1/2-z
3/4+y,1/4-x,1/4-z
1/2+x,y,1/2-z
1/4-y,1/4+x,1/4-z
loop_
_atom_site_type_symbol
_atom_site_label
_atom_site_fract_x
_atom_site_fract_y
_atom_site_fract_z
Si Si1 0.630596 0.029930 0.890247
Si Si2 0.726168 0.647404 0.459425
Si Si3 0.740696 0.305966 0.606684
Si Si4 0.782441 0.699048 0.703817
Si Si5 0.040023 0.350548 0.874450
Si Si6 0.137974 0.185988 0.126777
Si Si7 0.598059 0.048343 0.689204
O O1 0.685006 0.118101 0.909730
O O2 0.660308 0.019389 0.834743
O O3 0.518621 0.039930 0.892075
O O4 0.653751 0.939916 0.920329
O O5 0.708062 0.752418 0.441264
O O6 0.631170 0.598636 0.472841
O O7 0.795596 0.648981 0.503821
O O8 0.650667 0.349431 0.632053
O O9 0.750000 0.750000 0.750000
O O10 0.837639 0.768362 0.670065
O O11 0.694469 0.661027 0.674499
O O12 0.000000 0.250000 0.883406
O O13 0.991353 0.393984 0.827921
O O14 0.121388 0.294849 0.123356
O O15 0.194514 0.156176 0.080334
#
# Coordination Sequence:
#
# PCOD8304277 Si02
#       7
#    16  16  16  16  16  16  16
#     4  10  22  44  65  91 127 167 217 273 333 378
#     4  10  22  42  59  96 125 162 221 267 321 403
#     4  10  22  42  69  87 126 175 211 271 332 392
#     4  11  22  36  61  91 130 172 215 257 324 407
#     4  11  19  42  65  89 131 173 207 268 335 383
#     4  10  21  37  52  84 129 167 198 257 313 374
#     4  11  22  39  65  92 129 160 223 269 313 405
#
# _framework density 18.896896000000002
#
# number of rings (size 3 to 8) (size 9 to 14) (size 15 to 20)
#    0.857    0.714    5.714    0.857    6.000    1.429 
#    5.143    2.143    0.000    0.000    0.000    0.000 
#    0.000    0.000    0.000    0.000    0.000    0.000 
#
# Total GULP energy -694111.363302 kJ/mol
# GULP energy per Si atom -12394.845773 kJ/mol
# Density = 1.885389 g / cm^3
# Si number density = 18.896896 Si / 1000 Ang^3
#
#
#
# Elastic Constant Matrix: (Units=GPa)
#
#
# Indices 1 2 3 4 5 6 
#
# 1 95.3754 38.0814 25.3473 0.0000 0.0000 -2.5711
# 2 38.0814 95.3754 25.3473 0.0000 0.0000 2.5711
# 3 25.3473 25.3473 111.7082 0.0000 0.0000 0.0000
# 4 0.0000 0.0000 0.0000 21.9549 0.0000 0.0000
# 5 0.0000 0.0000 0.0000 0.0000 21.9549 0.0000
# 6 -2.5711 2.5711 0.0000 0.0000 0.0000 41.5452
#
#
#
# Elastic Compliance Matrix: (Units=1/GPa)
#
#
# Indices 1 2 3 4 5 6 
#
# 1 0.012876 -0.004676 -0.001861 0.000000 0.000000 0.001086
# 2 -0.004676 0.012876 -0.001861 0.000000 0.000000 -0.001086
# 3 -0.001861 -0.001861 0.009796 0.000000 0.000000 0.000000
# 4 0.000000 0.000000 0.000000 0.045548 0.000000 0.000000
# 5 0.000000 0.000000 0.000000 0.000000 0.045548 0.000000
# 6 0.001086 -0.001086 0.000000 0.000000 0.000000 0.024205
#
#
# Mechanical properties :
#
#
# Convention : Reuss Voigt Hill
#
# Bulk Modulus (GPa) = 53.32327 53.33453 53.32890
# Shear Modulus (GPa) = 28.75332 31.33653 30.04492
#
# Velocity S-wave (km/s) = 3.90499 4.07663 3.99173
# Velocity P-wave (km/s) = 6.97217 7.10238 7.03758
#
# Compressibility (1/GPa) = 0.01875354
#
# Stress axis : x y z
#
# Youngs Moduli (GPa) = 77.66644 77.66644 102.07983
#
# Poissons Ratio (x) = 0.36315 0.18993
# Poissons Ratio (y) = 0.36315 0.18993
# Poissons Ratio (z) = 0.14451 0.14451
#
# Static dielectric constant tensor:
#      x y z
#    x 3.478640 0.000000 0.000000 
#    y 0.000000 3.478640 0.000000 
#    z 0.000000 0.000000 3.271990 
# 
# 
# High freq. dielectric constant tensor:
#      x y z
#    x 1.735850 0.000000 0.000000 
#    y 0.000000 1.735850 0.000000 
#    z 0.000000 0.000000 1.711990 
# 
# From -- ./inp_files/6572.got.cif
#   From: 2010.03.12/outbox.cif.g09.slc.cpg/sg88_4_cif.got.tgz:6572.got - 2010.04.08 20:20:55.
