data_PCOD8304591
_publ_section_title
;
Structure prediction by ZEFSAII (Michael W. Deem and Ramdas Pophale) SiO2 
 PCOD8304591
Probable space group: P 4 21 2
;
_chemical_formula_sum "Si O2"
_cell_formula_units_Z 48
_cell_length_a 8.413150
_cell_length_b 8.413150
_cell_length_c 32.774860
_cell_angle_alpha 90.000000
_cell_angle_beta 90.000000
_cell_angle_gamma 90.000000
_cell_volume 2319.840411
_symmetry_space_group_name_H-M "P 4 21 2"
_symmetry_group_IT_number 90
_symmetry_cell_setting 'tetragonal'
loop_
_space_group_symop_operation_xyz
x,y,z
1/2-y,1/2+x,z
-x,-y,z
1/2+y,1/2-x,z
1/2+x,1/2-y,-z
1/2-x,1/2+y,-z
y,x,-z
-y,-x,-z
loop_
_atom_site_type_symbol
_atom_site_label
_atom_site_fract_x
_atom_site_fract_y
_atom_site_fract_z
Si Si1 0.000000 0.000000 0.258551
Si Si2 0.759389 0.949446 0.531479
Si Si3 0.000000 0.000000 0.398530
Si Si4 0.486510 0.742345 0.327865
Si Si5 0.243155 0.942494 0.810151
Si Si6 0.750060 0.077741 0.124435
Si Si7 0.251056 0.927418 0.031893
O O1 0.858728 0.949312 0.287880
O O2 0.934557 0.146483 0.231876
O O3 0.623270 0.816675 0.525280
O O4 0.900474 0.900474 0.500000
O O5 0.841384 0.963309 0.575533
O O6 0.848013 0.011213 0.370045
O O7 0.334487 0.850841 0.326506
O O8 0.381360 0.812246 0.812958
O O9 0.122848 0.899193 0.846971
O O10 0.602067 0.195174 0.133124
O O11 0.810773 0.095002 0.078034
O O12 0.394797 0.806682 0.023997
O O13 0.111287 0.888714 0.000000
#
# Coordination Sequence:
#
# PCOD8304591 Si02
#       7
#     4   8   4   8   8   8   8
#     4  11  22  40  61  82 114 150 185 230 288 357
#     4  11  23  39  61  90 127 172 221 272 324 378
#     4  11  21  38  61  88 124 160 203 258 317 371
#     4  10  22  39  61  88 116 151 196 244 295 358
#     4  11  23  37  56  84 114 144 182 233 289 344
#     4   9  19  37  58  79 108 149 192 233 284 347
#     4   9  19  35  54  78 109 145 186 230 276 330
#
# _framework density 20.691081000000001
#
# number of rings (size 3 to 8) (size 9 to 14) (size 15 to 20)
#    0.000    1.833    0.000    5.250    0.000    1.667 
#    0.000    8.333    0.000    8.000    0.000    0.000 
#    0.000    0.000    0.000    0.000    0.000    0.000 
#
# Total GULP energy -594882.478569 kJ/mol
# GULP energy per Si atom -12393.384970 kJ/mol
# Density = 2.064399 g / cm^3
# Si number density = 20.691081 Si / 1000 Ang^3
#
#
#
# Elastic Constant Matrix: (Units=GPa)
#
#
# Indices 1 2 3 4 5 6 
#
# 1 74.6822 41.9772 53.1537 0.0000 0.0000 0.0000
# 2 41.9772 74.6736 53.1485 0.0000 0.0000 0.0000
# 3 53.1537 53.1485 147.3530 0.0000 0.0000 0.0000
# 4 0.0000 0.0000 0.0000 43.2814 0.0000 0.0000
# 5 0.0000 0.0000 0.0000 0.0000 43.2816 0.0000
# 6 0.0000 0.0000 0.0000 0.0000 0.0000 40.0936
#
#
#
# Elastic Compliance Matrix: (Units=1/GPa)
#
#
# Indices 1 2 3 4 5 6 
#
# 1 0.021674 -0.008905 -0.004606 0.000000 0.000000 0.000000
# 2 -0.008905 0.021676 -0.004606 0.000000 0.000000 0.000000
# 3 -0.004606 -0.004606 0.010109 0.000000 0.000000 0.000000
# 4 0.000000 0.000000 0.000000 0.023105 0.000000 0.000000
# 5 0.000000 0.000000 0.000000 0.000000 0.023104 0.000000
# 6 0.000000 0.000000 0.000000 0.000000 0.000000 0.024942
#
#
# Mechanical properties :
#
#
# Convention : Reuss Voigt Hill
#
# Bulk Modulus (GPa) = 58.05789 65.91862 61.98825
# Shear Modulus (GPa) = 30.01445 35.22662 32.62054
#
# Velocity S-wave (km/s) = 3.81280 4.13062 3.97489
# Velocity P-wave (km/s) = 6.89229 7.39439 7.14775
#
# Compressibility (1/GPa) = 0.01722419
#
# Stress axis : x y z
#
# Youngs Moduli (GPa) = 46.13816 46.13415 98.91883
#
# Poissons Ratio (x) = 0.41084 0.45565
# Poissons Ratio (y) = 0.41088 0.45561
# Poissons Ratio (z) = 0.21252 0.21249
#
# Static dielectric constant tensor:
#      x y z
#    x 3.749550 0.000000 0.000000 
#    y 0.000000 3.749550 0.000000 
#    z 0.000000 0.000000 3.740580 
# 
# 
# High freq. dielectric constant tensor:
#      x y z
#    x 1.819770 0.000000 0.000000 
#    y 0.000000 1.819770 0.000000 
#    z 0.000000 0.000000 1.812120 
# 
# From -- ./inp_files/3109.got.cif
#   From: 2010.03.12/outbox.cif.g09.slc.cpg/sg90_2_cif.got.tgz:3109.got - 2010.04.08 20:26:03.
