data_PCOD8304282
_publ_section_title
;
Structure prediction by ZEFSAII (Michael W. Deem and Ramdas Pophale) SiO2 
 PCOD8304282
Probable space group: I 41/A
;
_chemical_formula_sum "Si O2"
_cell_formula_units_Z 116
_cell_length_a 18.996078
_cell_length_b 18.996078
_cell_length_c 16.696234
_cell_angle_alpha 90.000000
_cell_angle_beta 90.000000
_cell_angle_gamma 90.000000
_cell_volume 6024.852391
_symmetry_space_group_name_H-M "I 41/A"
_symmetry_group_IT_number 88
_space_group.IT_coordinate_system_code '2'
_symmetry_cell_setting 'tetragonal'
loop_
_space_group_symop_operation_xyz
x,y,z
3/4-y,1/4+x,1/4+z
-x,1/2-y,z
1/4+y,1/4-x,1/4+z
-x,-y,-z
1/4+y,3/4-x,3/4-z
x,1/2+y,-z
3/4-y,3/4+x,3/4-z
1/2+x,1/2+y,1/2+z
1/4-y,3/4+x,3/4+z
1/2-x,-y,1/2+z
3/4+y,3/4-x,3/4+z
1/2-x,1/2-y,1/2-z
3/4+y,1/4-x,1/4-z
1/2+x,y,1/2-z
1/4-y,1/4+x,1/4-z
loop_
_atom_site_type_symbol
_atom_site_label
_atom_site_fract_x
_atom_site_fract_y
_atom_site_fract_z
Si Si1 0.580455 0.735365 0.928578
Si Si2 0.339078 0.497729 0.995398
Si Si3 0.870863 0.751464 0.747552
Si Si4 0.221644 0.513354 0.875420
Si Si5 0.500000 0.750000 0.625000
Si Si6 0.942905 0.385278 0.538986
Si Si7 0.896606 0.142706 0.535220
Si Si8 0.610802 0.004433 0.513766
O O1 0.500000 0.750000 0.948470
O O2 0.591084 0.725960 0.834247
O O3 0.599538 0.664602 0.976813
O O4 0.624062 0.800337 0.966785
O O5 0.296064 0.453320 0.060888
O O6 0.344192 0.577913 0.024646
O O7 0.294523 0.491936 0.915340
O O8 0.414689 0.463734 0.977572
O O9 0.811651 0.808688 0.766061
O O10 0.829930 0.678368 0.730817
O O11 0.929592 0.746646 0.818800
O O12 0.237548 0.589529 0.838270
O O13 0.154875 0.512987 0.932928
O O14 0.928393 0.360180 0.628775
O O15 0.025222 0.386597 0.522512
#
# Coordination Sequence:
#
# PCOD8304282 Si02
#       8
#    16  16  16  16   4  16  16  16
#     4  10  21  37  61  85 116 153 190 233 297 356
#     4  11  21  37  57  85 119 152 190 242 287 343
#     4  11  22  41  62  90 121 156 204 264 303 368
#     4  10  21  38  60  83 117 158 200 235 300 358
#     4  12  24  40  68  92 126 160 212 256 332 368
#     4  11  21  36  59  87 118 153 192 235 289 353
#     4  11  21  36  59  87 118 153 192 235 289 353
#     4  10  22  39  63  86 118 160 204 252 306 356
#
# _framework density 19.253584
#
# number of rings (size 3 to 8) (size 9 to 14) (size 15 to 20)
#    0.000    1.379    3.448    2.897    0.000    0.000 
#    0.000    0.000    0.000    0.000    0.000    0.000 
#    0.000    0.000    0.000    0.000    0.000    0.000 
#
# Total GULP energy -718923.638840 kJ/mol
# GULP energy per Si atom -12395.235152 kJ/mol
# Density = 1.920976 g / cm^3
# Si number density = 19.253584 Si / 1000 Ang^3
#
#
#
# Elastic Constant Matrix: (Units=GPa)
#
#
# Indices 1 2 3 4 5 6 
#
# 1 59.4202 4.7470 19.8795 0.0000 0.0000 -3.8455
# 2 4.7470 59.4202 19.8795 0.0000 0.0000 3.8455
# 3 19.8795 19.8795 106.0215 0.0000 0.0000 0.0000
# 4 0.0000 0.0000 0.0000 -10.7323 0.0000 0.0000
# 5 0.0000 0.0000 0.0000 0.0000 -10.7323 0.0000
# 6 -3.8455 3.8455 0.0000 0.0000 0.0000 35.1764
#
#
#
# Elastic Compliance Matrix: (Units=1/GPa)
#
#
# Indices 1 2 3 4 5 6 
#
# 1 0.018105 -0.000472 -0.003306 0.000000 0.000000 0.002031
# 2 -0.000472 0.018105 -0.003306 0.000000 0.000000 -0.002031
# 3 -0.003306 -0.003306 0.010672 0.000000 0.000000 0.000000
# 4 0.000000 0.000000 0.000000 -0.093177 0.000000 0.000000
# 5 0.000000 0.000000 0.000000 0.000000 -0.093177 0.000000
# 6 0.002031 -0.002031 0.000000 0.000000 0.000000 0.028872
#
#
# Mechanical properties :
#
#
# Convention : Reuss Voigt Hill
#
# Bulk Modulus (GPa) = 30.56916 34.87488 32.72202
# Shear Modulus (GPa) = -58.46066 14.76609 -21.84729
#
# Velocity S-wave (km/s) = -5.51629 2.77235 -3.37220
# Velocity P-wave (km/s) = 4.96598 5.32923 1.36742
#
# Compressibility (1/GPa) = 0.03271271
#
# Stress axis : x y z
#
# Youngs Moduli (GPa) = 55.23484 55.23484 93.70384
#
# Poissons Ratio (x) = 0.02605 0.30981
# Poissons Ratio (y) = 0.02605 0.30981
# Poissons Ratio (z) = 0.18262 0.18262
#
# Static dielectric constant tensor:
#      x y z
#    x 3.514750 0.000000 0.000000 
#    y 0.000000 3.514750 0.000000 
#    z 0.000000 0.000000 3.528700 
# 
# 
# High freq. dielectric constant tensor:
#      x y z
#    x 1.750330 0.000000 0.000000 
#    y 0.000000 1.750330 0.000000 
#    z 0.000000 0.000000 1.759670 
# 
# From -- ./inp_files/4025.got.cif
#   From: 2010.03.12/outbox.cif.g09.slc.cpg/sg88_3_cif.got.tgz:4025.got - 2010.04.08 20:20:55.
