data_PCOD8304327
_publ_section_title
;
Structure prediction by ZEFSAII (Michael W. Deem and Ramdas Pophale) SiO2 
 PCOD8304327
Probable space group: I 41/A
;
_chemical_formula_sum "Si O2"
_cell_formula_units_Z 96
_cell_length_a 14.347503
_cell_length_b 14.347503
_cell_length_c 21.001634
_cell_angle_alpha 90.000000
_cell_angle_beta 90.000000
_cell_angle_gamma 90.000000
_cell_volume 4323.204049
_symmetry_space_group_name_H-M "I 41/A"
_symmetry_group_IT_number 88
_space_group.IT_coordinate_system_code '2'
_symmetry_cell_setting 'tetragonal'
loop_
_space_group_symop_operation_xyz
x,y,z
3/4-y,1/4+x,1/4+z
-x,1/2-y,z
1/4+y,1/4-x,1/4+z
-x,-y,-z
1/4+y,3/4-x,3/4-z
x,1/2+y,-z
3/4-y,3/4+x,3/4-z
1/2+x,1/2+y,1/2+z
1/4-y,3/4+x,3/4+z
1/2-x,-y,1/2+z
3/4+y,3/4-x,3/4+z
1/2-x,1/2-y,1/2-z
3/4+y,1/4-x,1/4-z
1/2+x,y,1/2-z
1/4-y,1/4+x,1/4-z
loop_
_atom_site_type_symbol
_atom_site_label
_atom_site_fract_x
_atom_site_fract_y
_atom_site_fract_z
Si Si1 0.623247 0.408490 0.128551
Si Si2 0.210357 0.239390 0.320579
Si Si3 0.090565 0.807881 0.504761
Si Si4 0.286457 0.906405 0.156813
Si Si5 0.403330 0.515589 0.305212
Si Si6 0.842466 0.189187 0.940777
O O1 0.707316 0.341807 0.149818
O O2 0.570163 0.374575 0.065130
O O3 0.669349 0.508145 0.117542
O O4 0.550422 0.402438 0.187073
O O5 0.250000 0.250000 0.250000
O O6 0.267617 0.175957 0.371744
O O7 0.107991 0.191071 0.326508
O O8 0.114554 0.878447 0.447508
O O9 0.170095 0.734271 0.523963
O O10 0.000000 0.750000 0.484550
O O11 0.198896 0.937824 0.200487
O O12 0.245692 0.835714 0.104742
O O13 0.403069 0.423563 0.262361
#
# Coordination Sequence:
#
# PCOD8304327 Si02
#       6
#    16  16  16  16  16  16
#     4  11  22  41  65  90 129 177 217 275 346 403
#     4  10  22  41  67  94 126 175 222 276 339 404
#     4  11  23  42  64  94 133 178 222 278 344 408
#     4  11  23  39  67  95 131 179 225 278 335 415
#     4  10  22  42  63  96 133 169 224 275 337 410
#     4  11  22  41  62  95 132 170 221 277 335 408
#
# _framework density 22.205752
#
# number of rings (size 3 to 8) (size 9 to 14) (size 15 to 20)
#    0.000    1.333    1.667    5.500    0.000    5.333 
#    3.000    0.000    0.000    0.000    0.000    0.000 
#    0.000    0.000    0.000    0.000    0.000    0.000 
#
# Total GULP energy -594791.381654 kJ/mol
# GULP energy per Si atom -12391.487118 kJ/mol
# Density = 2.215521 g / cm^3
# Si number density = 22.205752 Si / 1000 Ang^3
#
#
#
# Elastic Constant Matrix: (Units=GPa)
#
#
# Indices 1 2 3 4 5 6 
#
# 1 86.8661 20.9408 29.0393 0.0000 0.0000 -0.3028
# 2 20.9408 86.8661 29.0393 0.0000 0.0000 0.3028
# 3 29.0393 29.0393 103.4616 0.0000 0.0000 0.0000
# 4 0.0000 0.0000 0.0000 35.1502 0.0000 0.0000
# 5 0.0000 0.0000 0.0000 0.0000 35.1502 0.0000
# 6 -0.3028 0.3028 0.0000 0.0000 0.0000 23.7706
#
#
#
# Elastic Compliance Matrix: (Units=1/GPa)
#
#
# Indices 1 2 3 4 5 6 
#
# 1 0.013049 -0.002121 -0.003067 0.000000 0.000000 0.000193
# 2 -0.002121 0.013049 -0.003067 0.000000 0.000000 -0.000193
# 3 -0.003067 -0.003067 0.011387 0.000000 0.000000 0.000000
# 4 0.000000 0.000000 0.000000 0.028449 0.000000 0.000000
# 5 0.000000 0.000000 0.000000 0.000000 0.028449 0.000000
# 6 0.000193 -0.000193 0.000000 0.000000 0.000000 0.042074
#
#
# Mechanical properties :
#
#
# Convention : Reuss Voigt Hill
#
# Bulk Modulus (GPa) = 47.67676 48.35918 48.01797
# Shear Modulus (GPa) = 31.25756 32.02584 31.64170
#
# Velocity S-wave (km/s) = 3.75591 3.80179 3.77892
# Velocity P-wave (km/s) = 6.35030 6.41066 6.38055
#
# Compressibility (1/GPa) = 0.02097458
#
# Stress axis : x y z
#
# Youngs Moduli (GPa) = 76.63205 76.63205 87.81730
#
# Poissons Ratio (x) = 0.16254 0.26936
# Poissons Ratio (y) = 0.16254 0.26936
# Poissons Ratio (z) = 0.23506 0.23506
#
# Static dielectric constant tensor:
#      x y z
#    x 3.946220 0.000000 0.000000 
#    y 0.000000 3.946220 0.000000 
#    z 0.000000 0.000000 4.084030 
# 
# 
# High freq. dielectric constant tensor:
#      x y z
#    x 1.871540 0.000000 0.000000 
#    y 0.000000 1.871540 0.000000 
#    z 0.000000 0.000000 1.873150 
# 
# From -- ./inp_files/4676.got.cif
#   From: 2010.03.12/outbox.cif.g09.slc.cpg/sg88_3_cif.got.tgz:4676.got - 2010.04.08 20:20:55.
