data_PCOD8304357
_publ_section_title
;
Structure prediction by ZEFSAII (Michael W. Deem and Ramdas Pophale) SiO2 
 PCOD8304357
Probable space group: I 41/A
;
_chemical_formula_sum "Si O2"
_cell_formula_units_Z 112
_cell_length_a 27.462196
_cell_length_b 27.462196
_cell_length_c 6.615836
_cell_angle_alpha 90.000000
_cell_angle_beta 90.000000
_cell_angle_gamma 90.000000
_cell_volume 4989.479651
_symmetry_space_group_name_H-M "I 41/A"
_symmetry_group_IT_number 88
_space_group.IT_coordinate_system_code '2'
_symmetry_cell_setting 'tetragonal'
loop_
_space_group_symop_operation_xyz
x,y,z
3/4-y,1/4+x,1/4+z
-x,1/2-y,z
1/4+y,1/4-x,1/4+z
-x,-y,-z
1/4+y,3/4-x,3/4-z
x,1/2+y,-z
3/4-y,3/4+x,3/4-z
1/2+x,1/2+y,1/2+z
1/4-y,3/4+x,3/4+z
1/2-x,-y,1/2+z
3/4+y,3/4-x,3/4+z
1/2-x,1/2-y,1/2-z
3/4+y,1/4-x,1/4-z
1/2+x,y,1/2-z
1/4-y,1/4+x,1/4-z
loop_
_atom_site_type_symbol
_atom_site_label
_atom_site_fract_x
_atom_site_fract_y
_atom_site_fract_z
Si Si1 0.142710 0.403712 0.750496
Si Si2 0.610630 0.524066 0.223144
Si Si3 0.022460 0.371260 0.044200
Si Si4 0.426648 0.076392 0.099307
Si Si5 0.898067 0.188108 0.913200
Si Si6 0.015086 0.582647 0.340401
Si Si7 0.245354 0.070158 0.307672
O O1 0.198321 0.390446 0.699334
O O2 0.106034 0.394070 0.562160
O O3 0.126206 0.365949 0.925739
O O4 0.143681 0.460088 0.815590
O O5 0.556931 0.546888 0.237687
O O6 0.643160 0.527959 0.424604
O O7 0.606437 0.468034 0.167856
O O8 0.061503 0.390286 0.207979
O O9 0.969811 0.366688 0.143971
O O10 0.043825 0.321081 0.944648
O O11 0.017005 0.407317 0.856590
O O12 0.477583 0.057974 0.998707
O O13 0.881509 0.213214 0.701047
O O14 0.282895 0.038798 0.436426
#
# Coordination Sequence:
#
# PCOD8304357 Si02
#       7
#    16  16  16  16  16  16  16
#     4  11  23  44  67  95 137 180 227 281 335 408
#     4  11  24  40  68  98 132 181 225 277 339 408
#     4  11  24  43  71  98 134 175 223 275 340 404
#     4  11  23  45  66 100 139 175 223 286 339 400
#     4  10  24  41  68  99 129 176 219 275 334 402
#     4  10  24  43  68 100 137 172 222 280 339 405
#     4  12  25  42  65  99 137 185 231 286 337 402
#
# _framework density 22.447229
#
# number of rings (size 3 to 8) (size 9 to 14) (size 15 to 20)
#    0.000    1.143    1.429    3.857    6.000    0.857 
#    2.571    0.000    0.000    0.000    0.000    0.000 
#    0.000    0.000    0.000    0.000    0.000    0.000 
#
# Total GULP energy -693993.269063 kJ/mol
# GULP energy per Si atom -12392.736948 kJ/mol
# Density = 2.239614 g / cm^3
# Si number density = 22.447229 Si / 1000 Ang^3
#
#
#
# Elastic Constant Matrix: (Units=GPa)
#
#
# Indices 1 2 3 4 5 6 
#
# 1 80.0026 16.8035 30.8176 0.0000 0.0000 -12.7202
# 2 16.8035 80.0026 30.8176 0.0000 0.0000 12.7202
# 3 30.8176 30.8176 89.8781 0.0000 0.0000 0.0000
# 4 0.0000 0.0000 0.0000 42.9476 0.0000 0.0000
# 5 0.0000 0.0000 0.0000 0.0000 42.9476 0.0000
# 6 -12.7202 12.7202 0.0000 0.0000 0.0000 47.3959
#
#
#
# Elastic Compliance Matrix: (Units=1/GPa)
#
#
# Indices 1 2 3 4 5 6 
#
# 1 0.015477 -0.002262 -0.004531 0.000000 0.000000 0.004761
# 2 -0.002262 0.015477 -0.004531 0.000000 0.000000 -0.004761
# 3 -0.004531 -0.004531 0.014233 0.000000 0.000000 0.000000
# 4 0.000000 0.000000 0.000000 0.023284 0.000000 0.000000
# 5 0.000000 0.000000 0.000000 0.000000 0.023284 0.000000
# 6 0.004761 -0.004761 0.000000 0.000000 0.000000 0.023654
#
#
# Mechanical properties :
#
#
# Convention : Reuss Voigt Hill
#
# Bulk Modulus (GPa) = 44.36828 45.19564 44.78196
# Shear Modulus (GPa) = 34.34709 38.08785 36.21747
#
# Velocity S-wave (km/s) = 3.91593 4.12366 4.02113
# Velocity P-wave (km/s) = 6.34464 6.54604 6.44613
#
# Compressibility (1/GPa) = 0.02253862
#
# Stress axis : x y z
#
# Youngs Moduli (GPa) = 64.61122 64.61122 70.25690
#
# Poissons Ratio (x) = 0.14617 0.31834
# Poissons Ratio (y) = 0.14617 0.31834
# Poissons Ratio (z) = 0.29276 0.29276
#
# Static dielectric constant tensor:
#      x y z
#    x 4.110020 0.000000 0.000000 
#    y 0.000000 4.110020 0.000000 
#    z 0.000000 0.000000 4.077660 
# 
# 
# High freq. dielectric constant tensor:
#      x y z
#    x 1.885060 0.000000 0.000000 
#    y 0.000000 1.885060 0.000000 
#    z 0.000000 0.000000 1.887850 
# 
# From -- ./inp_files/803.got.cif
#   From: 2010.03.12/outbox.cif.g09.slc.cpg/sg88_1_cif.got.tgz:803.got - 2010.04.08 20:20:55.
