data_PCOD8304004
_publ_section_title
;
Structure prediction by ZEFSAII (Michael W. Deem and Ramdas Pophale) SiO2 
 PCOD8304004
Probable space group: I 4/M
;
_chemical_formula_sum "Si O2"
_cell_formula_units_Z 64
_cell_length_a 19.352096
_cell_length_b 19.352096
_cell_length_c 8.766552
_cell_angle_alpha 90.000000
_cell_angle_beta 90.000000
_cell_angle_gamma 90.000000
_cell_volume 3283.105455
_symmetry_space_group_name_H-M "I 4/M"
_symmetry_group_IT_number 87
_symmetry_cell_setting 'tetragonal'
loop_
_space_group_symop_operation_xyz
x,y,z
-y,x,z
-x,-y,z
y,-x,z
-x,-y,-z
y,-x,-z
x,y,-z
-y,x,-z
1/2+x,1/2+y,1/2+z
1/2-y,1/2+x,1/2+z
1/2-x,1/2-y,1/2+z
1/2+y,1/2-x,1/2+z
1/2-x,1/2-y,1/2-z
1/2+y,1/2-x,1/2-z
1/2+x,1/2+y,1/2-z
1/2-y,1/2+x,1/2-z
loop_
_atom_site_type_symbol
_atom_site_label
_atom_site_fract_x
_atom_site_fract_y
_atom_site_fract_z
Si Si1 0.139977 0.759535 0.675928
Si Si2 0.740171 0.490179 0.674526
Si Si3 0.109219 0.971491 0.331804
Si Si4 0.353714 0.234271 0.823230
O O1 0.120568 0.753122 0.500000
O O2 0.185289 0.694340 0.723626
O O3 0.185214 0.829719 0.704582
O O4 0.068144 0.755854 0.766190
O O5 0.763741 0.487777 0.500000
O O6 0.662128 0.462319 0.694097
O O7 0.782437 0.432525 0.770621
O O8 0.144969 0.963191 0.500000
O O9 0.049176 0.917143 0.316986
O O10 0.344975 0.214800 0.000000
#
# Coordination Sequence:
#
# PCOD8304004 Si02
#       4
#    16  16  16  16
#     4  10  21  38  59  82 110 144 183 228 277 327
#     4  12  23  33  51  79 109 142 181 222 267 322
#     4   9  18  32  48  68  99 139 179 218 263 315
#     4  10  21  38  59  82 110 144 183 228 277 327
#
# _framework density 19.493739000000001
#
# number of rings (size 3 to 8) (size 9 to 14) (size 15 to 20)
#    0.000    1.750    0.000    6.000    0.000   10.000 
#    0.000    1.250    0.000    0.750    0.000    5.250 
#    0.000    0.000    0.000    0.000    0.000    0.000 
#
# Total GULP energy -396525.230695 kJ/mol
# GULP energy per Si atom -12391.413459 kJ/mol
# Density = 1.944937 g / cm^3
# Si number density = 19.493739 Si / 1000 Ang^3
#
#
#
# Elastic Constant Matrix: (Units=GPa)
#
#
# Indices 1 2 3 4 5 6 
#
# 1 68.6979 -3.4540 20.4690 0.0000 0.0000 1.1711
# 2 -3.4540 68.6979 20.4690 0.0000 0.0000 -1.1711
# 3 20.4690 20.4690 79.1693 0.0000 0.0000 0.0000
# 4 0.0000 0.0000 0.0000 30.7785 0.0000 0.0000
# 5 0.0000 0.0000 0.0000 0.0000 30.7785 0.0000
# 6 1.1711 -1.1711 0.0000 0.0000 0.0000 9.5194
#
#
#
# Elastic Compliance Matrix: (Units=1/GPa)
#
#
# Indices 1 2 3 4 5 6 
#
# 1 0.016105 0.002190 -0.004730 0.000000 0.000000 -0.001712
# 2 0.002190 0.016105 -0.004730 0.000000 0.000000 0.001712
# 3 -0.004730 -0.004730 0.015077 0.000000 0.000000 0.000000
# 4 0.000000 0.000000 0.000000 0.032490 0.000000 0.000000
# 5 0.000000 0.000000 0.000000 0.000000 0.032490 0.000000
# 6 -0.001712 0.001712 0.000000 0.000000 0.000000 0.105469
#
#
# Mechanical properties :
#
#
# Convention : Reuss Voigt Hill
#
# Bulk Modulus (GPa) = 30.53746 32.39259 31.46503
# Shear Modulus (GPa) = 20.55976 26.15404 23.35690
#
# Velocity S-wave (km/s) = 3.25112 3.66685 3.46522
# Velocity P-wave (km/s) = 5.45823 5.88053 5.67331
#
# Compressibility (1/GPa) = 0.03274666
#
# Stress axis : x y z
#
# Youngs Moduli (GPa) = 62.09192 62.09192 66.32581
#
# Poissons Ratio (x) = -0.13598 0.31373
# Poissons Ratio (y) = -0.13598 0.31373
# Poissons Ratio (z) = 0.29370 0.29370
#
# Static dielectric constant tensor:
#      x y z
#    x 3.571810 0.000000 0.000000 
#    y 0.000000 3.571810 0.000000 
#    z 0.000000 0.000000 3.572490 
# 
# 
# High freq. dielectric constant tensor:
#      x y z
#    x 1.750260 0.000000 0.000000 
#    y 0.000000 1.750260 0.000000 
#    z 0.000000 0.000000 1.760040 
# 
# From -- ./inp_files/918.got.cif
#   From: 2010.03.12/outbox.cif.g09.slc.cpg/sg87_1_cif.got.tgz:918.got - 2010.04.08 20:16:13.
