data_PCOD8304371
_publ_section_title
;
Structure prediction by ZEFSAII (Michael W. Deem and Ramdas Pophale) SiO2 
 PCOD8304371
Probable space group: I 41/A
;
_chemical_formula_sum "Si O2"
_cell_formula_units_Z 96
_cell_length_a 21.958391
_cell_length_b 21.958391
_cell_length_c 9.130090
_cell_angle_alpha 90.000000
_cell_angle_beta 90.000000
_cell_angle_gamma 90.000000
_cell_volume 4402.264035
_symmetry_space_group_name_H-M "I 41/A"
_symmetry_group_IT_number 88
_space_group.IT_coordinate_system_code '2'
_symmetry_cell_setting 'tetragonal'
loop_
_space_group_symop_operation_xyz
x,y,z
3/4-y,1/4+x,1/4+z
-x,1/2-y,z
1/4+y,1/4-x,1/4+z
-x,-y,-z
1/4+y,3/4-x,3/4-z
x,1/2+y,-z
3/4-y,3/4+x,3/4-z
1/2+x,1/2+y,1/2+z
1/4-y,3/4+x,3/4+z
1/2-x,-y,1/2+z
3/4+y,3/4-x,3/4+z
1/2-x,1/2-y,1/2-z
3/4+y,1/4-x,1/4-z
1/2+x,y,1/2-z
1/4-y,1/4+x,1/4-z
loop_
_atom_site_type_symbol
_atom_site_label
_atom_site_fract_x
_atom_site_fract_y
_atom_site_fract_z
Si Si1 0.172369 0.901228 0.957892
Si Si2 0.910569 0.228922 0.583092
Si Si3 0.214162 0.122002 0.646761
Si Si4 0.200816 0.346865 0.599268
Si Si5 0.654524 0.689224 0.889490
Si Si6 0.741143 0.339210 0.208127
O O1 0.185875 0.859068 0.816304
O O2 0.149871 0.969101 0.916802
O O3 0.232904 0.909789 0.053458
O O4 0.119292 0.871597 0.062428
O O5 0.932032 0.283573 0.690858
O O6 0.855344 0.193022 0.661911
O O7 0.892896 0.256275 0.421613
O O8 0.242093 0.153968 0.791084
O O9 0.165668 0.069955 0.687860
O O10 0.181385 0.173098 0.549688
O O11 0.217100 0.313406 0.445511
O O12 0.712165 0.709292 0.786441
#
# Coordination Sequence:
#
# PCOD8304371 Si02
#       6
#    16  16  16  16  16  16
#     4   9  17  35  55  86 135 171 196 235 322 387
#     4  11  23  44  67  83 115 164 225 279 312 361
#     4  11  19  35  59  96 135 162 208 252 304 406
#     4  12  23  35  61 102 130 166 208 253 327 383
#     4   9  20  40  57  91 119 171 208 259 320 366
#     4   9  20  33  57  93 135 168 191 253 315 402
#
# _framework density 21.806958999999999
#
# number of rings (size 3 to 8) (size 9 to 14) (size 15 to 20)
#    1.000    0.833    3.333    1.000    0.000    5.333 
#    0.000    0.000    0.000    0.000    0.000    0.000 
#    0.000    0.000    0.000    0.000    0.000    0.000 
#
# Total GULP energy -594664.901733 kJ/mol
# GULP energy per Si atom -12388.852119 kJ/mol
# Density = 2.175733 g / cm^3
# Si number density = 21.806959 Si / 1000 Ang^3
#
#
#
# Elastic Constant Matrix: (Units=GPa)
#
#
# Indices 1 2 3 4 5 6 
#
# 1 37.4916 58.9029 35.6939 0.0000 0.0000 12.5407
# 2 58.9029 37.4916 35.6939 0.0000 0.0000 -12.5407
# 3 35.6939 35.6939 133.1194 0.0000 0.0000 0.0000
# 4 0.0000 0.0000 0.0000 13.1715 0.0000 0.0000
# 5 0.0000 0.0000 0.0000 0.0000 13.1715 0.0000
# 6 12.5407 -12.5407 0.0000 0.0000 0.0000 37.8542
#
#
#
# Elastic Compliance Matrix: (Units=1/GPa)
#
#
# Indices 1 2 3 4 5 6 
#
# 1 -0.010351 0.023296 -0.003471 0.000000 0.000000 0.011147
# 2 0.023296 -0.010351 -0.003471 0.000000 0.000000 -0.011147
# 3 -0.003471 -0.003471 0.009373 0.000000 0.000000 0.000000
# 4 0.000000 0.000000 0.000000 0.075922 0.000000 0.000000
# 5 0.000000 0.000000 0.000000 0.000000 0.075922 0.000000
# 6 0.011147 -0.011147 0.000000 0.000000 0.000000 0.019032
#
#
# Mechanical properties :
#
#
# Convention : Reuss Voigt Hill
#
# Bulk Modulus (GPa) = 46.77509 52.07599 49.42554
# Shear Modulus (GPa) = 37.32333 18.02688 27.67510
#
# Velocity S-wave (km/s) = 4.14156 2.87828 3.56630
# Velocity P-wave (km/s) = 6.66079 5.91425 6.29859
#
# Compressibility (1/GPa) = 0.02137890
#
# Stress axis : x y z
#
# Youngs Moduli (GPa) = -96.60747 -96.60747 106.68521
#
# Poissons Ratio (x) = 2.25054 0.37029
# Poissons Ratio (y) = 2.25054 0.37029
# Poissons Ratio (z) = -0.33531 -0.33531
#
# Static dielectric constant tensor:
#      x y z
#    x 3.940200 0.000000 0.000000 
#    y 0.000000 3.940200 0.000000 
#    z 0.000000 0.000000 3.815420 
# 
# 
# High freq. dielectric constant tensor:
#      x y z
#    x 1.850680 0.000000 0.000000 
#    y 0.000000 1.850680 0.000000 
#    z 0.000000 0.000000 1.836230 
# 
# From -- ./inp_files/1741.got.cif
#   From: 2010.03.12/outbox.cif.g09.slc.cpg/sg88_1_cif.got.tgz:1741.got - 2010.04.08 20:20:55.
