data_PCOD8304509
_publ_section_title
;
Structure prediction by ZEFSAII (Michael W. Deem and Ramdas Pophale) SiO2 
 PCOD8304509
Probable space group: P 4 2 2
;
_chemical_formula_sum "Si O2"
_cell_formula_units_Z 48
_cell_length_a 11.262811
_cell_length_b 11.262811
_cell_length_c 18.881805
_cell_angle_alpha 90.000000
_cell_angle_beta 90.000000
_cell_angle_gamma 90.000000
_cell_volume 2395.174177
_symmetry_space_group_name_H-M "P 4 2 2"
_symmetry_group_IT_number 89
_symmetry_cell_setting 'tetragonal'
loop_
_space_group_symop_operation_xyz
x,y,z
-y,x,z
-x,-y,z
y,-x,z
x,-y,-z
-x,y,-z
y,x,-z
-y,-x,-z
loop_
_atom_site_type_symbol
_atom_site_label
_atom_site_fract_x
_atom_site_fract_y
_atom_site_fract_z
Si Si1 0.811686 0.042214 0.273569
Si Si2 0.808810 0.486990 0.423291
Si Si3 0.574634 0.113222 0.191166
Si Si4 0.312423 0.499804 0.714616
Si Si5 0.304794 0.998299 0.420821
Si Si6 0.527921 0.688902 0.918311
O O1 0.702463 0.075142 0.222023
O O2 0.911014 0.140323 0.255945
O O3 0.783570 0.040888 0.357983
O O4 0.749242 0.500000 0.500000
O O5 0.701068 0.503285 0.369514
O O6 0.870366 0.359204 0.407729
O O7 0.906699 0.588328 0.418647
O O8 0.501174 0.182830 0.251280
O O9 0.572461 0.192292 0.120295
O O10 0.500000 0.000000 0.170273
O O11 0.383069 0.383303 0.739210
O O12 0.244580 0.000000 0.500000
O O13 0.402854 0.631452 0.895835
O O14 0.500000 0.716429 0.000000
#
# Coordination Sequence:
#
# PCOD8304509 Si02
#       6
#     8   8   8   8   8   8
#     4  11  26  42  57  87 128 167 217 272 317 374
#     4   9  18  33  54  81 113 150 196 255 326 393
#     4  12  25  38  67  93 127 168 208 254 312 379
#     4  11  24  38  56  86 120 155 204 261 320 387
#     4   9  18  35  59  82 111 158 214 274 330 378
#     4   9  20  42  72 106 140 167 201 256 311 366
#
# _framework density 20.040293999999999
#
# number of rings (size 3 to 8) (size 9 to 14) (size 15 to 20)
#    0.000    1.833    1.667    3.500    7.000    3.000 
#    0.000    5.000    0.000    0.000    0.000    0.000 
#    0.000    0.000    0.000    0.000    0.000    0.000 
#
# Total GULP energy -594675.341266 kJ/mol
# GULP energy per Si atom -12389.069610 kJ/mol
# Density = 1.999468 g / cm^3
# Si number density = 20.040294 Si / 1000 Ang^3
#
#
#
# Elastic Constant Matrix: (Units=GPa)
#
#
# Indices 1 2 3 4 5 6 
#
# 1 104.7701 46.7385 46.5204 0.0000 0.0000 0.0000
# 2 46.7385 104.7701 46.5204 0.0000 0.0000 0.0000
# 3 46.5204 46.5204 105.8712 0.0000 0.0000 0.0000
# 4 0.0000 0.0000 0.0000 16.5422 0.0000 0.0000
# 5 0.0000 0.0000 0.0000 0.0000 16.5422 0.0000
# 6 0.0000 0.0000 0.0000 0.0000 0.0000 20.6467
#
#
#
# Elastic Compliance Matrix: (Units=1/GPa)
#
#
# Indices 1 2 3 4 5 6 
#
# 1 0.013136 -0.004096 -0.003972 0.000000 0.000000 0.000000
# 2 -0.004096 0.013136 -0.003972 0.000000 0.000000 0.000000
# 3 -0.003972 -0.003972 0.012936 0.000000 0.000000 0.000000
# 4 0.000000 0.000000 0.000000 0.060451 0.000000 0.000000
# 5 0.000000 0.000000 0.000000 0.000000 0.060451 0.000000
# 6 0.000000 0.000000 0.000000 0.000000 0.000000 0.048434
#
#
# Mechanical properties :
#
#
# Convention : Reuss Voigt Hill
#
# Bulk Modulus (GPa) = 66.10681 66.10779 66.10730
# Shear Modulus (GPa) = 21.03784 22.45503 21.74644
#
# Velocity S-wave (km/s) = 3.24354 3.35101 3.29771
# Velocity P-wave (km/s) = 6.86192 6.93047 6.89628
#
# Compressibility (1/GPa) = 0.01512703
#
# Stress axis : x y z
#
# Youngs Moduli (GPa) = 76.12816 76.12816 77.30315
#
# Poissons Ratio (x) = 0.31184 0.30705
# Poissons Ratio (y) = 0.31184 0.30705
# Poissons Ratio (z) = 0.30238 0.30238
#
# Static dielectric constant tensor:
#      x y z
#    x 3.597790 0.000000 0.000000 
#    y 0.000000 3.597790 0.000000 
#    z 0.000000 0.000000 3.829230 
# 
# 
# High freq. dielectric constant tensor:
#      x y z
#    x 1.775670 0.000000 0.000000 
#    y 0.000000 1.775670 0.000000 
#    z 0.000000 0.000000 1.776290 
# 
# From -- ./inp_files/2418.got.cif
#   From: 2010.03.12/outbox.cif.g09.slc.cpg/sg89_2_cif.got.tgz:2418.got - 2010.04.08 20:24:03.
