data_PCOD8304760
_publ_section_title
;
Structure prediction by ZEFSAII (Michael W. Deem and Ramdas Pophale) SiO2 
 PCOD8304760
Probable space group: P 41 2 2
;
_chemical_formula_sum "Si O2"
_cell_formula_units_Z 36
_cell_length_a 8.461256
_cell_length_b 8.461256
_cell_length_c 24.905241
_cell_angle_alpha 90.000000
_cell_angle_beta 90.000000
_cell_angle_gamma 90.000000
_cell_volume 1783.037260
_symmetry_space_group_name_H-M "P 41 2 2"
_symmetry_group_IT_number 91
_symmetry_cell_setting 'tetragonal'
loop_
_space_group_symop_operation_xyz
x,y,z
-y,x,1/4+z
-x,-y,1/2+z
y,-x,3/4+z
x,-y,1/2-z
-x,y,-z
y,x,3/4-z
-y,-x,1/4-z
loop_
_atom_site_type_symbol
_atom_site_label
_atom_site_fract_x
_atom_site_fract_y
_atom_site_fract_z
Si Si1 0.628183 0.371818 0.625000
Si Si2 0.000000 0.952627 0.500000
Si Si3 0.756977 0.187082 0.532848
Si Si4 0.757981 0.254470 0.187241
Si Si5 0.586805 0.366141 0.794962
Si Si6 0.957906 0.500000 0.250000
O O1 0.751839 0.326128 0.577725
O O2 0.449311 0.359841 0.601280
O O3 0.106919 0.836267 0.533835
O O4 0.093495 0.072762 0.460764
O O5 0.752546 0.274158 0.474410
O O6 0.606454 0.071090 0.537148
O O7 0.777780 0.222221 0.125000
O O8 0.572385 0.266376 0.199455
O O9 0.847717 0.410409 0.207347
O O10 0.561143 0.500000 0.750000
#
# Coordination Sequence:
#
# PCOD8304760 Si02
#       6
#     4   4   8   8   8   4
#     4  10  18  36  68  92 114 154 224 258 312 364
#     4  10  26  44  56  92 144 164 208 256 320 408
#     4  10  21  42  62  91 125 168 207 264 319 373
#     4  11  23  42  65  94 129 173 212 263 336 379
#     4  10  19  38  65  96 117 153 215 274 301 366
#     4  10  20  42  62  86 134 162 202 278 316 384
#
# _framework density 20.190266999999999
#
# number of rings (size 3 to 8) (size 9 to 14) (size 15 to 20)
#    0.000    1.778    5.556    0.000    1.556    0.889 
#   12.000    2.222    0.000    0.000    0.000    0.000 
#    0.000    0.000    0.000    0.000    0.000    0.000 
#
# Total GULP energy -446040.759017 kJ/mol
# GULP energy per Si atom -12390.021084 kJ/mol
# Density = 2.014431 g / cm^3
# Si number density = 20.190267 Si / 1000 Ang^3
#
#
#
# Elastic Constant Matrix: (Units=GPa)
#
#
# Indices 1 2 3 4 5 6 
#
# 1 117.8422 64.9573 48.4618 0.0000 0.0000 0.0000
# 2 64.9573 117.8426 48.4620 0.0000 0.0000 0.0000
# 3 48.4618 48.4620 113.6296 0.0000 0.0000 0.0000
# 4 0.0000 0.0000 0.0000 19.2319 0.0000 0.0000
# 5 0.0000 0.0000 0.0000 0.0000 19.2318 0.0000
# 6 0.0000 0.0000 0.0000 0.0000 0.0000 32.4923
#
#
#
# Elastic Compliance Matrix: (Units=1/GPa)
#
#
# Indices 1 2 3 4 5 6 
#
# 1 0.012989 -0.005920 -0.003015 0.000000 0.000000 0.000000
# 2 -0.005920 0.012989 -0.003015 0.000000 0.000000 0.000000
# 3 -0.003015 -0.003015 0.011372 0.000000 0.000000 0.000000
# 4 0.000000 0.000000 0.000000 0.051997 0.000000 0.000000
# 5 0.000000 0.000000 0.000000 0.000000 0.051997 0.000000
# 6 0.000000 0.000000 0.000000 0.000000 0.000000 0.030777
#
#
# Mechanical properties :
#
#
# Convention : Reuss Voigt Hill
#
# Bulk Modulus (GPa) = 74.34555 74.78630 74.56592
# Shear Modulus (GPa) = 24.93719 26.68675 25.81197
#
# Velocity S-wave (km/s) = 3.51823 3.63955 3.57940
# Velocity P-wave (km/s) = 7.30796 7.40155 7.35490
#
# Compressibility (1/GPa) = 0.01345070
#
# Stress axis : x y z
#
# Youngs Moduli (GPa) = 76.98839 76.98853 87.93422
#
# Poissons Ratio (x) = 0.45577 0.26511
# Poissons Ratio (y) = 0.45577 0.26511
# Poissons Ratio (z) = 0.23211 0.23211
#
# Static dielectric constant tensor:
#      x y z
#    x 3.825230 0.000000 0.000000 
#    y 0.000000 3.825230 0.000000 
#    z 0.000000 0.000000 3.796190 
# 
# 
# High freq. dielectric constant tensor:
#      x y z
#    x 1.788870 0.000000 0.000000 
#    y 0.000000 1.788860 0.000000 
#    z 0.000000 0.000000 1.775600 
# 
# From -- ./inp_files/13112.got.cif
#   From: 2010.03.12/outbox.cif.g09.slc.cpg/sg91_7_cif.got.tgz:13112.got - 2010.04.08 20:27:58.
