data_PCOD8304031
_publ_section_title
;
Structure prediction by ZEFSAII (Michael W. Deem and Ramdas Pophale) SiO2 
 PCOD8304031
Probable space group: I 4/M
;
_chemical_formula_sum "Si O2"
_cell_formula_units_Z 64
_cell_length_a 15.162888
_cell_length_b 15.162888
_cell_length_c 16.068457
_cell_angle_alpha 90.000000
_cell_angle_beta 90.000000
_cell_angle_gamma 90.000000
_cell_volume 3694.349926
_symmetry_space_group_name_H-M "I 4/M"
_symmetry_group_IT_number 87
_symmetry_cell_setting 'tetragonal'
loop_
_space_group_symop_operation_xyz
x,y,z
-y,x,z
-x,-y,z
y,-x,z
-x,-y,-z
y,-x,-z
x,y,-z
-y,x,-z
1/2+x,1/2+y,1/2+z
1/2-y,1/2+x,1/2+z
1/2-x,1/2-y,1/2+z
1/2+y,1/2-x,1/2+z
1/2-x,1/2-y,1/2-z
1/2+y,1/2-x,1/2-z
1/2+x,1/2+y,1/2-z
1/2-y,1/2+x,1/2-z
loop_
_atom_site_type_symbol
_atom_site_label
_atom_site_fract_x
_atom_site_fract_y
_atom_site_fract_z
Si Si1 0.386938 0.590699 0.808045
Si Si2 0.674402 0.729985 0.316365
Si Si3 0.272754 0.838644 0.405561
Si Si4 0.078541 0.378766 0.258278
O O1 0.377232 0.486193 0.819068
O O2 0.354852 0.618941 0.715061
O O3 0.326726 0.635829 0.878624
O O4 0.750000 0.750000 0.250000
O O5 0.730802 0.714634 0.400569
O O6 0.609858 0.814941 0.317259
O O7 0.289561 0.867753 0.500000
O O8 0.342694 0.889729 0.347700
O O9 0.120127 0.473494 0.241655
#
# Coordination Sequence:
#
# PCOD8304031 Si02
#       4
#    16  16  16  16
#     4   9  18  32  55  80  99 134 178 211 249 308
#     4   8  18  30  53  71 102 134 173 203 251 310
#     4  10  22  34  50  78 112 136 163 217 269 304
#     4   9  18  34  57  77  97 137 184 213 245 311
#
# _framework density 17.323751999999999
#
# number of rings (size 3 to 8) (size 9 to 14) (size 15 to 20)
#    0.000    3.500    0.000    0.000   21.000    1.000 
#    0.000    5.000    0.000    0.000    0.000    1.750 
#    0.000    0.000    0.000    0.000    0.000    0.000 
#
# Total GULP energy -396422.527725 kJ/mol
# GULP energy per Si atom -12388.203991 kJ/mol
# Density = 1.728432 g / cm^3
# Si number density = 17.323752 Si / 1000 Ang^3
#
#
#
# Elastic Constant Matrix: (Units=GPa)
#
#
# Indices 1 2 3 4 5 6 
#
# 1 66.6255 27.0372 51.8982 0.0000 0.0000 -1.3664
# 2 27.0372 66.6255 51.8982 0.0000 0.0000 1.3664
# 3 51.8982 51.8982 83.8050 0.0000 0.0000 0.0000
# 4 0.0000 0.0000 0.0000 13.5028 0.0000 0.0000
# 5 0.0000 0.0000 0.0000 0.0000 13.5028 0.0000
# 6 -1.3664 1.3664 0.0000 0.0000 0.0000 30.5855
#
#
#
# Elastic Compliance Matrix: (Units=1/GPa)
#
#
# Indices 1 2 3 4 5 6 
#
# 1 0.029685 0.004347 -0.021075 0.000000 0.000000 0.001132
# 2 0.004347 0.029685 -0.021075 0.000000 0.000000 -0.001132
# 3 -0.021075 -0.021075 0.038035 0.000000 0.000000 0.000000
# 4 0.000000 0.000000 0.000000 0.074058 0.000000 0.000000
# 5 0.000000 0.000000 0.000000 0.000000 0.074058 0.000000
# 6 0.001132 -0.001132 0.000000 0.000000 0.000000 0.032796
#
#
# Mechanical properties :
#
#
# Convention : Reuss Voigt Hill
#
# Bulk Modulus (GPa) = 45.87485 53.19147 49.53316
# Shear Modulus (GPa) = 13.84314 17.26640 15.55477
#
# Velocity S-wave (km/s) = 2.82987 3.16046 2.99973
# Velocity P-wave (km/s) = 6.10049 6.63996 6.37593
#
# Compressibility (1/GPa) = 0.02179844
#
# Stress axis : x y z
#
# Youngs Moduli (GPa) = 33.68720 33.68720 26.29182
#
# Poissons Ratio (x) = -0.14643 0.55410
# Poissons Ratio (y) = -0.14643 0.55410
# Poissons Ratio (z) = 0.70995 0.70995
#
# Static dielectric constant tensor:
#      x y z
#    x 3.549280 0.000000 0.000000 
#    y 0.000000 3.549280 0.000000 
#    z 0.000000 0.000000 3.287760 
# 
# 
# High freq. dielectric constant tensor:
#      x y z
#    x 1.679950 0.000000 0.000000 
#    y 0.000000 1.679950 0.000000 
#    z 0.000000 0.000000 1.618420 
# 
# From -- ./inp_files/3366.got.cif
#   From: 2010.03.12/outbox.cif.g09.slc.cpg/sg87_2_cif.got.tgz:3366.got - 2010.04.08 20:16:13.
