data_PCOD8304437
_publ_section_title
;
Structure prediction by ZEFSAII (Michael W. Deem and Ramdas Pophale) SiO2 
 PCOD8304437
Probable space group: I 41/A
;
_chemical_formula_sum "Si O2"
_cell_formula_units_Z 48
_cell_length_a 8.054669
_cell_length_b 8.054669
_cell_length_c 28.539317
_cell_angle_alpha 90.000000
_cell_angle_beta 90.000000
_cell_angle_gamma 90.000000
_cell_volume 1851.565038
_symmetry_space_group_name_H-M "I 41/A"
_symmetry_group_IT_number 88
_space_group.IT_coordinate_system_code '2'
_symmetry_cell_setting 'tetragonal'
loop_
_space_group_symop_operation_xyz
x,y,z
3/4-y,1/4+x,1/4+z
-x,1/2-y,z
1/4+y,1/4-x,1/4+z
-x,-y,-z
1/4+y,3/4-x,3/4-z
x,1/2+y,-z
3/4-y,3/4+x,3/4-z
1/2+x,1/2+y,1/2+z
1/4-y,3/4+x,3/4+z
1/2-x,-y,1/2+z
3/4+y,3/4-x,3/4+z
1/2-x,1/2-y,1/2-z
3/4+y,1/4-x,1/4-z
1/2+x,y,1/2-z
1/4-y,1/4+x,1/4-z
loop_
_atom_site_type_symbol
_atom_site_label
_atom_site_fract_x
_atom_site_fract_y
_atom_site_fract_z
Si Si1 0.083801 0.572296 0.313105
Si Si2 0.811530 0.023369 0.984836
Si Si3 0.221885 0.108500 0.111376
O O1 0.245977 0.562935 0.279235
O O2 0.132570 0.500253 0.364241
O O3 0.000000 0.750000 0.319126
O O4 0.956581 0.451349 0.286483
O O5 0.755011 0.893265 0.944490
O O6 0.000000 0.000000 0.000000
O O7 0.229197 0.295821 0.128659
#
# Coordination Sequence:
#
# PCOD8304437 Si02
#       3
#    16  16  16
#     4  12  28  51  79 120 162 214 276 347 419 497
#     4  12  26  49  79 113 166 216 272 335 416 500
#     4  11  26  48  81 115 156 211 278 338 413 492
#
# _framework density 25.924014
#
# number of rings (size 3 to 8) (size 9 to 14) (size 15 to 20)
#    0.000    0.333    3.333    4.000    9.333    0.000 
#    0.000    0.000    0.000    0.000    0.000    0.000 
#    0.000    0.000    0.000    0.000    0.000    0.000 
#
# Total GULP energy -297652.405552 kJ/mol
# GULP energy per Si atom -12402.183565 kJ/mol
# Density = 2.586501 g / cm^3
# Si number density = 25.924014 Si / 1000 Ang^3
#
#
#
# Elastic Constant Matrix: (Units=GPa)
#
#
# Indices 1 2 3 4 5 6 
#
# 1 125.4483 46.5898 25.1759 0.0000 0.0000 9.1210
# 2 46.5898 125.4483 25.1759 0.0000 0.0000 -9.1210
# 3 25.1759 25.1759 138.0255 0.0000 0.0000 0.0000
# 4 0.0000 0.0000 0.0000 47.8948 0.0000 0.0000
# 5 0.0000 0.0000 0.0000 0.0000 47.8948 0.0000
# 6 9.1210 -9.1210 0.0000 0.0000 0.0000 48.1698
#
#
#
# Elastic Compliance Matrix: (Units=1/GPa)
#
#
# Indices 1 2 3 4 5 6 
#
# 1 0.009701 -0.003561 -0.001120 0.000000 0.000000 -0.002511
# 2 -0.003561 0.009701 -0.001120 0.000000 0.000000 0.002511
# 3 -0.001120 -0.001120 0.007654 0.000000 0.000000 0.000000
# 4 0.000000 0.000000 0.000000 0.020879 0.000000 0.000000
# 5 0.000000 0.000000 0.000000 0.000000 0.020879 0.000000
# 6 -0.002511 0.002511 0.000000 0.000000 0.000000 0.021711
#
#
# Mechanical properties :
#
#
# Convention : Reuss Voigt Hill
#
# Bulk Modulus (GPa) = 64.70619 64.75615 64.73117
# Shear Modulus (GPa) = 46.60790 48.25724 47.43257
#
# Velocity S-wave (km/s) = 4.24472 4.31918 4.28211
# Velocity P-wave (km/s) = 7.00269 7.06450 7.03366
#
# Compressibility (1/GPa) = 0.01545447
#
# Stress axis : x y z
#
# Youngs Moduli (GPa) = 103.08051 103.08054 130.65709
#
# Poissons Ratio (x) = 0.36704 0.14634
# Poissons Ratio (y) = 0.36704 0.14634
# Poissons Ratio (z) = 0.11545 0.11545
#
# Static dielectric constant tensor:
#      x y z
#    x 4.707380 0.000000 0.000000 
#    y 0.000000 4.707380 0.000000 
#    z 0.000000 0.000000 5.327190 
# 
# 
# High freq. dielectric constant tensor:
#      x y z
#    x 2.034050 0.000000 0.000000 
#    y 0.000000 2.034050 0.000000 
#    z 0.000000 0.000000 2.063150 
# 
# From -- ./inp_files/6030.got.cif
#   From: 2010.03.12/outbox.cif.g09.slc.cpg/sg88_4_cif.got.tgz:6030.got - 2010.04.08 20:20:55.
