data_PCOD8304816
_publ_section_title
;
Structure prediction by ZEFSAII (Michael W. Deem and Ramdas Pophale) SiO2 
 PCOD8304816
Probable space group: P 41 2 2
;
_chemical_formula_sum "Si O2"
_cell_formula_units_Z 56
_cell_length_a 14.276198
_cell_length_b 14.276198
_cell_length_c 12.697018
_cell_angle_alpha 90.000000
_cell_angle_beta 90.000000
_cell_angle_gamma 90.000000
_cell_volume 2587.777072
_symmetry_space_group_name_H-M "P 41 2 2"
_symmetry_group_IT_number 91
_symmetry_cell_setting 'tetragonal'
loop_
_space_group_symop_operation_xyz
x,y,z
-y,x,1/4+z
-x,-y,1/2+z
y,-x,3/4+z
x,-y,1/2-z
-x,y,-z
y,x,3/4-z
-y,-x,1/4-z
loop_
_atom_site_type_symbol
_atom_site_label
_atom_site_fract_x
_atom_site_fract_y
_atom_site_fract_z
Si Si1 0.958131 0.607730 0.270256
Si Si2 0.334474 0.195504 0.821073
Si Si3 0.339697 0.488715 0.871358
Si Si4 0.287127 0.862751 0.913085
Si Si5 0.092407 0.340158 0.546854
Si Si6 0.295159 0.341742 0.489431
Si Si7 0.900099 0.870531 0.993342
O O1 0.966827 0.500000 0.250000
O O2 0.898185 0.633904 0.371379
O O3 0.901242 0.648236 0.171611
O O4 0.063984 0.642055 0.285759
O O5 0.245682 0.245682 0.875000
O O6 0.422026 0.266901 0.816682
O O7 0.304692 0.158532 0.707811
O O8 0.306082 0.500000 0.750000
O O9 0.442472 0.442472 0.875000
O O10 0.348602 0.588916 0.929840
O O11 0.183524 0.908981 0.932260
O O12 0.298319 0.765122 0.973769
O O13 0.186445 0.376259 0.488683
O O14 0.077614 0.231407 0.534107
O O15 0.000000 0.393161 0.500000
O O16 0.344673 0.344673 0.375000
O O17 0.863988 0.863988 0.875000
O O18 0.000000 0.927381 0.000000
#
# Coordination Sequence:
#
# PCOD8304816 Si02
#       7
#     8   8   8   8   8   8   8
#     4  12  25  41  65  96 134 180 227 277 346 424
#     4  11  23  42  67  95 132 179 226 283 351 423
#     4  11  24  45  67  90 124 176 233 280 342 426
#     4  11  23  41  63  98 137 171 222 285 343 409
#     4  10  19  36  63  92 125 166 212 267 336 408
#     4  11  22  40  67  97 129 169 221 285 343 402
#     4  10  20  39  66  94 126 169 217 263 323 400
#
# _framework density 21.640194000000001
#
# number of rings (size 3 to 8) (size 9 to 14) (size 15 to 20)
#    0.000    1.143    0.000   10.286    0.000    4.000 
#    0.000    4.286    0.000    0.000    0.000    0.000 
#    0.000    0.000    0.000    0.000    0.000    0.000 
#
# Total GULP energy -694139.973614 kJ/mol
# GULP energy per Si atom -12395.356672 kJ/mol
# Density = 2.159094 g / cm^3
# Si number density = 21.640194 Si / 1000 Ang^3
#
#
#
# Elastic Constant Matrix: (Units=GPa)
#
#
# Indices 1 2 3 4 5 6 
#
# 1 120.1003 46.5921 52.7861 0.0000 0.0000 0.0000
# 2 46.5921 120.1003 52.7861 0.0000 0.0000 0.0000
# 3 52.7861 52.7861 154.8226 0.0000 0.0000 0.0000
# 4 0.0000 0.0000 0.0000 27.9248 0.0000 0.0000
# 5 0.0000 0.0000 0.0000 0.0000 27.9248 0.0000
# 6 0.0000 0.0000 0.0000 0.0000 0.0000 28.8739
#
#
#
# Elastic Compliance Matrix: (Units=1/GPa)
#
#
# Indices 1 2 3 4 5 6 
#
# 1 0.010628 -0.002976 -0.002609 0.000000 0.000000 0.000000
# 2 -0.002976 0.010628 -0.002609 0.000000 0.000000 0.000000
# 3 -0.002609 -0.002609 0.008238 0.000000 0.000000 0.000000
# 4 0.000000 0.000000 0.000000 0.035810 0.000000 0.000000
# 5 0.000000 0.000000 0.000000 0.000000 0.035810 0.000000
# 6 0.000000 0.000000 0.000000 0.000000 0.000000 0.034633
#
#
# Mechanical properties :
#
#
# Convention : Reuss Voigt Hill
#
# Bulk Modulus (GPa) = 76.30289 77.70576 77.00432
# Shear Modulus (GPa) = 31.94824 33.13529 32.54177
#
# Velocity S-wave (km/s) = 3.84648 3.91729 3.88205
# Velocity P-wave (km/s) = 7.42048 7.51307 7.46692
#
# Compressibility (1/GPa) = 0.01310566
#
# Stress axis : x y z
#
# Youngs Moduli (GPa) = 94.09484 94.09484 121.39130
#
# Poissons Ratio (x) = 0.28006 0.31667
# Poissons Ratio (y) = 0.28006 0.31667
# Poissons Ratio (z) = 0.24546 0.24546
#
# Static dielectric constant tensor:
#      x y z
#    x 4.234930 0.000000 0.000000 
#    y 0.000000 4.234930 0.000000 
#    z 0.000000 0.000000 3.945040 
# 
# 
# High freq. dielectric constant tensor:
#      x y z
#    x 1.848450 0.000000 0.000000 
#    y 0.000000 1.848450 0.000000 
#    z 0.000000 0.000000 1.856910 
# 
# From -- ./inp_files/15963.got.cif
#   From: 2010.03.12/outbox.cif.g09.slc.cpg/sg91_8_cif.got.tgz:15963.got - 2010.04.08 20:27:58.
