data_PCOD8304309
_publ_section_title
;
Structure prediction by ZEFSAII (Michael W. Deem and Ramdas Pophale) SiO2 
 PCOD8304309
Probable space group: I 41/A
;
_chemical_formula_sum "Si O2"
_cell_formula_units_Z 72
_cell_length_a 17.213526
_cell_length_b 17.213526
_cell_length_c 9.620713
_cell_angle_alpha 90.000000
_cell_angle_beta 90.000000
_cell_angle_gamma 90.000000
_cell_volume 2850.669958
_symmetry_space_group_name_H-M "I 41/A"
_symmetry_group_IT_number 88
_space_group.IT_coordinate_system_code '2'
_symmetry_cell_setting 'tetragonal'
loop_
_space_group_symop_operation_xyz
x,y,z
3/4-y,1/4+x,1/4+z
-x,1/2-y,z
1/4+y,1/4-x,1/4+z
-x,-y,-z
1/4+y,3/4-x,3/4-z
x,1/2+y,-z
3/4-y,3/4+x,3/4-z
1/2+x,1/2+y,1/2+z
1/4-y,3/4+x,3/4+z
1/2-x,-y,1/2+z
3/4+y,3/4-x,3/4+z
1/2-x,1/2-y,1/2-z
3/4+y,1/4-x,1/4-z
1/2+x,y,1/2-z
1/4-y,1/4+x,1/4-z
loop_
_atom_site_type_symbol
_atom_site_label
_atom_site_fract_x
_atom_site_fract_y
_atom_site_fract_z
Si Si1 0.782667 0.076611 0.646206
Si Si2 0.076747 0.325018 0.701135
Si Si3 0.926322 0.901342 0.935822
Si Si4 0.000000 0.250000 0.944153
Si Si5 0.074250 0.475221 0.168646
O O1 0.735960 0.040840 0.773532
O O2 0.866391 0.101855 0.705167
O O3 0.741247 0.152737 0.579273
O O4 0.104990 0.259596 0.590802
O O5 0.070205 0.286188 0.852982
O O6 0.844424 0.880646 0.861887
O O7 0.982990 0.952265 0.837894
O O8 0.965109 0.818307 0.963106
O O9 0.909215 0.948396 0.077534
#
# Coordination Sequence:
#
# PCOD8304309 Si02
#       5
#    16  16  16   8  16
#     4  12  27  49  71 107 157 197 250 312 379 454
#     4   9  21  43  69 101 134 181 245 302 356 435
#     4  11  23  42  72 102 149 184 252 297 376 435
#     4  10  21  45  72 104 136 192 249 311 354 462
#     4  11  23  43  66 102 145 196 232 312 354 459
#
# _framework density 25.25722
#
# number of rings (size 3 to 8) (size 9 to 14) (size 15 to 20)
#    0.000    1.556    2.222    4.000    0.000    2.667 
#    8.000    0.000    0.000    0.000    0.000    0.000 
#    0.000    0.000    0.000    0.000    0.000    0.000 
#
# Total GULP energy -446338.946513 kJ/mol
# GULP energy per Si atom -12398.304070 kJ/mol
# Density = 2.519973 g / cm^3
# Si number density = 25.257220 Si / 1000 Ang^3
#
#
#
# Elastic Constant Matrix: (Units=GPa)
#
#
# Indices 1 2 3 4 5 6 
#
# 1 108.4693 63.2354 37.1246 0.0000 0.0000 8.7996
# 2 63.2354 108.4693 37.1246 0.0000 0.0000 -8.7996
# 3 37.1246 37.1246 76.6008 0.0000 0.0000 0.0000
# 4 0.0000 0.0000 0.0000 38.1509 0.0000 0.0000
# 5 0.0000 0.0000 0.0000 0.0000 38.1509 0.0000
# 6 8.7996 -8.7996 0.0000 0.0000 0.0000 48.9572
#
#
#
# Elastic Compliance Matrix: (Units=1/GPa)
#
#
# Indices 1 2 3 4 5 6 
#
# 1 0.015569 -0.008201 -0.003571 0.000000 0.000000 -0.004272
# 2 -0.008201 0.015569 -0.003571 0.000000 0.000000 0.004272
# 3 -0.003571 -0.003571 0.016516 0.000000 0.000000 0.000000
# 4 0.000000 0.000000 0.000000 0.026212 0.000000 0.000000
# 5 0.000000 0.000000 0.000000 0.000000 0.026212 0.000000
# 6 -0.004272 0.004272 0.000000 0.000000 0.000000 0.021962
#
#
# Mechanical properties :
#
#
# Convention : Reuss Voigt Hill
#
# Bulk Modulus (GPa) = 58.93297 63.16760 61.05028
# Shear Modulus (GPa) = 31.56954 35.45543 33.51248
#
# Velocity S-wave (km/s) = 3.53926 3.75076 3.64654
# Velocity P-wave (km/s) = 6.33132 6.61979 6.47716
#
# Compressibility (1/GPa) = 0.01696843
#
# Stress axis : x y z
#
# Youngs Moduli (GPa) = 64.23078 64.23078 60.54722
#
# Poissons Ratio (x) = 0.52674 0.21621
# Poissons Ratio (y) = 0.52674 0.21621
# Poissons Ratio (z) = 0.22937 0.22937
#
# Static dielectric constant tensor:
#      x y z
#    x 4.766920 0.000000 0.000000 
#    y 0.000000 4.766920 0.000000 
#    z 0.000000 0.000000 4.361760 
# 
# 
# High freq. dielectric constant tensor:
#      x y z
#    x 2.013520 0.000000 0.000000 
#    y 0.000000 2.013520 0.000000 
#    z 0.000000 0.000000 1.987950 
# 
# From -- ./inp_files/2435.got.cif
#   From: 2010.03.12/outbox.cif.g09.slc.cpg/sg88_2_cif.got.tgz:2435.got - 2010.04.08 20:20:55.
