data_PCOD8304094
_publ_section_title
;
Structure prediction by ZEFSAII (Michael W. Deem and Ramdas Pophale) SiO2 
 PCOD8304094
Probable space group: I 4/M
;
_chemical_formula_sum "Si O2"
_cell_formula_units_Z 60
_cell_length_a 11.743555
_cell_length_b 11.743555
_cell_length_c 21.756084
_cell_angle_alpha 90.000000
_cell_angle_beta 90.000000
_cell_angle_gamma 90.000000
_cell_volume 3000.405129
_symmetry_space_group_name_H-M "I 4/M"
_symmetry_group_IT_number 87
_symmetry_cell_setting 'tetragonal'
loop_
_space_group_symop_operation_xyz
x,y,z
-y,x,z
-x,-y,z
y,-x,z
-x,-y,-z
y,-x,-z
x,y,-z
-y,x,-z
1/2+x,1/2+y,1/2+z
1/2-y,1/2+x,1/2+z
1/2-x,1/2-y,1/2+z
1/2+y,1/2-x,1/2+z
1/2-x,1/2-y,1/2-z
1/2+y,1/2-x,1/2-z
1/2+x,1/2+y,1/2-z
1/2-y,1/2+x,1/2-z
loop_
_atom_site_type_symbol
_atom_site_label
_atom_site_fract_x
_atom_site_fract_y
_atom_site_fract_z
Si Si1 0.500000 0.000000 0.250000
Si Si2 0.364914 0.000482 0.931493
Si Si3 0.643163 0.234448 0.875917
Si Si4 0.644359 0.617777 0.000000
Si Si5 0.181170 0.605005 0.160073
O O1 0.419999 0.086123 0.211838
O O2 0.323849 0.897291 0.887308
O O3 0.500000 0.000000 0.937357
O O4 0.335495 0.117956 0.897966
O O5 0.310238 0.994107 0.000000
O O6 0.723016 0.298337 0.824621
O O7 0.512456 0.245963 0.855036
O O8 0.666873 0.297613 0.939715
O O9 0.516600 0.659784 0.000000
#
# Coordination Sequence:
#
# PCOD8304094 Si02
#       5
#     4  16  16   8  16
#     4  12  24  48  58  80 116 164 216 254 284 336
#     4   9  18  33  55  87 121 153 187 228 288 364
#     4  11  20  35  58  91 121 155 195 240 304 361
#     4  11  20  28  51  93 139 144 165 242 321 371
#     4  11  24  38  61  88 118 159 201 248 298 352
#
# _framework density 19.997299000000002
#
# number of rings (size 3 to 8) (size 9 to 14) (size 15 to 20)
#    0.000    1.467    8.000    0.000    3.733    1.600 
#    0.000    0.000    0.000    0.800    0.000    1.867 
#    0.000    0.000    0.000    0.000    0.000    0.000 
#
# Total GULP energy -371671.201620 kJ/mol
# GULP energy per Si atom -12389.040054 kJ/mol
# Density = 1.995178 g / cm^3
# Si number density = 19.997299 Si / 1000 Ang^3
#
#
#
# Elastic Constant Matrix: (Units=GPa)
#
#
# Indices 1 2 3 4 5 6 
#
# 1 100.4981 53.5606 28.4829 0.0000 0.0000 -6.3324
# 2 53.5606 100.4981 28.4829 0.0000 0.0000 6.3324
# 3 28.4829 28.4829 60.5746 0.0000 0.0000 0.0000
# 4 0.0000 0.0000 0.0000 16.2163 0.0000 0.0000
# 5 0.0000 0.0000 0.0000 0.0000 16.2163 0.0000
# 6 -6.3324 6.3324 0.0000 0.0000 0.0000 23.0783
#
#
#
# Elastic Compliance Matrix: (Units=1/GPa)
#
#
# Indices 1 2 3 4 5 6 
#
# 1 0.015433 -0.007576 -0.003695 0.000000 0.000000 0.006313
# 2 -0.007576 0.015433 -0.003695 0.000000 0.000000 -0.006313
# 3 -0.003695 -0.003695 0.019983 0.000000 0.000000 0.000000
# 4 0.000000 0.000000 0.000000 0.061666 0.000000 0.000000
# 5 0.000000 0.000000 0.000000 0.000000 0.061666 0.000000
# 6 0.006313 -0.006313 0.000000 0.000000 0.000000 0.046795
#
#
# Mechanical properties :
#
#
# Convention : Reuss Voigt Hill
#
# Bulk Modulus (GPa) = 47.80300 53.62484 50.71392
# Shear Modulus (GPa) = 19.38898 21.17182 20.28040
#
# Velocity S-wave (km/s) = 3.11719 3.25735 3.18804
# Velocity P-wave (km/s) = 6.07556 6.40479 6.24235
#
# Compressibility (1/GPa) = 0.02091919
#
# Stress axis : x y z
#
# Youngs Moduli (GPa) = 64.79724 64.79724 50.04256
#
# Poissons Ratio (x) = 0.49088 0.18488
# Poissons Ratio (y) = 0.49088 0.18488
# Poissons Ratio (z) = 0.23939 0.23939
#
# Static dielectric constant tensor:
#      x y z
#    x 3.636360 0.000000 0.000000 
#    y 0.000000 3.636360 0.000000 
#    z 0.000000 0.000000 3.715100 
# 
# 
# High freq. dielectric constant tensor:
#      x y z
#    x 1.764850 0.000000 0.000000 
#    y 0.000000 1.764850 0.000000 
#    z 0.000000 0.000000 1.766590 
# 
# From -- ./inp_files/5699.got.cif
#   From: 2010.03.12/outbox.cif.g09.slc.cpg/sg87_3_cif.got.tgz:5699.got - 2010.04.08 20:16:13.
