data_PCOD8304696
_publ_section_title
;
Structure prediction by ZEFSAII (Michael W. Deem and Ramdas Pophale) SiO2 
 PCOD8304696
Probable space group: P 4 21 2
;
_chemical_formula_sum "Si O2"
_cell_formula_units_Z 50
_cell_length_a 8.417039
_cell_length_b 8.417039
_cell_length_c 30.763156
_cell_angle_alpha 90.000000
_cell_angle_beta 90.000000
_cell_angle_gamma 90.000000
_cell_volume 2179.463332
_symmetry_space_group_name_H-M "P 4 21 2"
_symmetry_group_IT_number 90
_symmetry_cell_setting 'tetragonal'
loop_
_space_group_symop_operation_xyz
x,y,z
1/2-y,1/2+x,z
-x,-y,z
1/2+y,1/2-x,z
1/2+x,1/2-y,-z
1/2-x,1/2+y,-z
y,x,-z
-y,-x,-z
loop_
_atom_site_type_symbol
_atom_site_label
_atom_site_fract_x
_atom_site_fract_y
_atom_site_fract_z
Si Si1 0.000000 0.500000 0.852211
Si Si2 0.907401 0.164696 0.871017
Si Si3 0.253312 0.915146 0.632624
Si Si4 0.251681 0.922028 0.535148
Si Si5 0.233997 0.390785 0.216327
Si Si6 0.246823 0.411670 0.706930
Si Si7 0.635579 0.775331 0.956955
O O1 0.028956 0.309678 0.859745
O O2 0.778605 0.140368 0.832952
O O3 0.819262 0.202794 0.915903
O O4 0.000000 0.000000 0.875329
O O5 0.404051 0.802280 0.640318
O O6 0.184613 0.895308 0.583840
O O7 0.119233 0.864779 0.666704
O O8 0.398733 0.804657 0.527873
O O9 0.116249 0.883752 0.500000
O O10 0.207436 0.575284 0.226983
O O11 0.377050 0.331420 0.247298
O O12 0.200102 0.593706 0.704578
O O13 0.446564 0.784058 0.955759
O O14 0.682546 0.682546 0.000000
#
# Coordination Sequence:
#
# PCOD8304696 Si02
#       7
#     2   8   8   8   8   8   8
#     4  12  28  44  80 108 144 188 244 288 352 432
#     4  12  28  48  76 110 145 191 236 294 360 417
#     4   9  19  39  62  84 117 162 214 265 326 398
#     4   9  19  35  56  84 118 159 206 263 324 392
#     4  11  25  45  70  99 134 176 226 281 343 413
#     4  11  26  41  60  92 130 168 215 272 336 406
#     4  11  27  47  73 108 147 189 241 295 353 426
#
# _framework density 22.941426
#
# number of rings (size 3 to 8) (size 9 to 14) (size 15 to 20)
#    0.000    1.440    0.000    4.800    8.960    6.080 
#    0.000    4.800    0.000    0.000    0.000    0.000 
#    0.000    0.000    0.000    0.000    0.000    0.000 
#
# Total GULP energy -619467.499485 kJ/mol
# GULP energy per Si atom -12389.349990 kJ/mol
# Density = 2.288921 g / cm^3
# Si number density = 22.941426 Si / 1000 Ang^3
#
#
#
# Elastic Constant Matrix: (Units=GPa)
#
#
# Indices 1 2 3 4 5 6 
#
# 1 40.7707 22.5096 5.5309 0.0000 0.0000 0.0000
# 2 22.5096 40.7703 5.5307 0.0000 0.0000 0.0000
# 3 5.5309 5.5307 122.4708 0.0000 0.0000 0.0000
# 4 0.0000 0.0000 0.0000 7.2252 0.0000 0.0000
# 5 0.0000 0.0000 0.0000 0.0000 7.2252 0.0000
# 6 0.0000 0.0000 0.0000 0.0000 0.0000 32.1032
#
#
#
# Elastic Compliance Matrix: (Units=1/GPa)
#
#
# Indices 1 2 3 4 5 6 
#
# 1 0.035345 -0.019417 -0.000719 0.000000 0.000000 0.000000
# 2 -0.019417 0.035345 -0.000719 0.000000 0.000000 0.000000
# 3 -0.000719 -0.000719 0.008230 0.000000 0.000000 0.000000
# 4 0.000000 0.000000 0.000000 0.138405 0.000000 0.000000
# 5 0.000000 0.000000 0.000000 0.000000 0.138404 0.000000
# 6 0.000000 0.000000 0.000000 0.000000 0.000000 0.031150
#
#
# Mechanical properties :
#
#
# Convention : Reuss Voigt Hill
#
# Bulk Modulus (GPa) = 26.87461 30.12825 28.50143
# Shear Modulus (GPa) = 11.33806 20.67343 16.00574
#
# Velocity S-wave (km/s) = 2.22551 3.00516 2.64423
# Velocity P-wave (km/s) = 4.28296 5.02021 4.66617
#
# Compressibility (1/GPa) = 0.03720984
#
# Stress axis : x y z
#
# Youngs Moduli (GPa) = 28.29261 28.29237 121.50400
#
# Poissons Ratio (x) = 0.54934 0.08741
# Poissons Ratio (y) = 0.54935 0.08740
# Poissons Ratio (z) = 0.02035 0.02035
#
# Static dielectric constant tensor:
#      x y z
#    x 4.883290 0.000000 0.000000 
#    y 0.000000 4.883290 0.000000 
#    z 0.000000 0.000000 4.095940 
# 
# 
# High freq. dielectric constant tensor:
#      x y z
#    x 1.921740 0.000000 0.000000 
#    y 0.000000 1.921740 0.000000 
#    z 0.000000 0.000000 1.901180 
# 
# From -- ./inp_files/3076.got.cif
#   From: 2010.03.12/outbox.cif.g09.slc.cpg/sg90_2_cif.got.tgz:3076.got - 2010.04.08 20:26:03.
