data_PCOD8304433
_publ_section_title
;
Structure prediction by ZEFSAII (Michael W. Deem and Ramdas Pophale) SiO2 
 PCOD8304433
Probable space group: I 41/A
;
_chemical_formula_sum "Si O2"
_cell_formula_units_Z 72
_cell_length_a 17.490618
_cell_length_b 17.490618
_cell_length_c 10.375594
_cell_angle_alpha 90.000000
_cell_angle_beta 90.000000
_cell_angle_gamma 90.000000
_cell_volume 3174.119542
_symmetry_space_group_name_H-M "I 41/A"
_symmetry_group_IT_number 88
_space_group.IT_coordinate_system_code '2'
_symmetry_cell_setting 'tetragonal'
loop_
_space_group_symop_operation_xyz
x,y,z
3/4-y,1/4+x,1/4+z
-x,1/2-y,z
1/4+y,1/4-x,1/4+z
-x,-y,-z
1/4+y,3/4-x,3/4-z
x,1/2+y,-z
3/4-y,3/4+x,3/4-z
1/2+x,1/2+y,1/2+z
1/4-y,3/4+x,3/4+z
1/2-x,-y,1/2+z
3/4+y,3/4-x,3/4+z
1/2-x,1/2-y,1/2-z
3/4+y,1/4-x,1/4-z
1/2+x,y,1/2-z
1/4-y,1/4+x,1/4-z
loop_
_atom_site_type_symbol
_atom_site_label
_atom_site_fract_x
_atom_site_fract_y
_atom_site_fract_z
Si Si1 0.000000 0.250000 0.125000
Si Si2 0.644154 0.681743 0.263544
Si Si3 0.030904 0.512485 0.701232
Si Si4 0.000000 0.250000 0.625000
Si Si5 0.084337 0.041842 0.889684
Si Si6 0.124996 0.366938 0.097161
O O1 0.952665 0.180089 0.057380
O O2 0.703014 0.688772 0.149493
O O3 0.680209 0.716087 0.394731
O O4 0.566997 0.725035 0.222358
O O5 0.630921 0.591609 0.284630
O O6 0.103385 0.563453 0.736110
O O7 0.000434 0.469168 0.829508
O O8 0.118379 0.957678 0.902606
O O9 0.082618 0.090980 0.019696
#
# Coordination Sequence:
#
# PCOD8304433 Si02
#       6
#     4  16  16   4  16  16
#     4  12  24  46  68 108 130 192 242 300 340 414
#     4  11  25  47  73 107 146 182 244 295 352 429
#     4  11  25  48  72 104 146 191 238 298 350 427
#     4  12  24  42  80 102 132 200 230 288 358 420
#     4  12  24  47  69 109 144 185 237 299 354 429
#     4  12  27  45  75 101 148 188 240 297 360 427
#
# _framework density 22.683454999999999
#
# number of rings (size 3 to 8) (size 9 to 14) (size 15 to 20)
#    0.000    0.444    6.667    0.667    0.000    7.111 
#    0.000    0.000    0.000    0.000    0.000    0.000 
#    0.000    0.000    0.000    0.000    0.000    0.000 
#
# Total GULP energy -446054.825913 kJ/mol
# GULP energy per Si atom -12390.411831 kJ/mol
# Density = 2.263183 g / cm^3
# Si number density = 22.683455 Si / 1000 Ang^3
#
#
#
# Elastic Constant Matrix: (Units=GPa)
#
#
# Indices 1 2 3 4 5 6 
#
# 1 149.1325 62.8626 33.0707 0.0000 0.0000 -12.8537
# 2 62.8626 149.1325 33.0707 0.0000 0.0000 12.8537
# 3 33.0707 33.0707 54.8928 0.0000 0.0000 0.0000
# 4 0.0000 0.0000 0.0000 -10.5830 0.0000 0.0000
# 5 0.0000 0.0000 0.0000 0.0000 -10.5830 0.0000
# 6 -12.8537 12.8537 0.0000 0.0000 0.0000 12.0418
#
#
#
# Elastic Compliance Matrix: (Units=1/GPa)
#
#
# Indices 1 2 3 4 5 6 
#
# 1 0.011404 -0.005595 -0.003500 0.000000 0.000000 0.018144
# 2 -0.005595 0.011404 -0.003500 0.000000 0.000000 -0.018144
# 3 -0.003500 -0.003500 0.022434 0.000000 0.000000 0.000000
# 4 0.000000 0.000000 0.000000 -0.094491 0.000000 0.000000
# 5 0.000000 0.000000 0.000000 0.000000 -0.094491 0.000000
# 6 0.018144 -0.018144 0.000000 0.000000 0.000000 0.121779
#
#
# Mechanical properties :
#
#
# Convention : Reuss Voigt Hill
#
# Bulk Modulus (GPa) = 49.86683 67.90730 58.88707
# Shear Modulus (GPa) = 504.46848 13.11874 258.79361
#
# Velocity S-wave (km/s) = 14.92909 2.40748 10.69284
# Velocity P-wave (km/s) = 17.86622 6.14246 13.35911
#
# Compressibility (1/GPa) = 0.02005341
#
# Stress axis : x y z
#
# Youngs Moduli (GPa) = 87.69111 87.69111 44.57487
#
# Poissons Ratio (x) = 0.49060 0.15600
# Poissons Ratio (y) = 0.49060 0.15600
# Poissons Ratio (z) = 0.30689 0.30689
#
# Static dielectric constant tensor:
#      x y z
#    x 4.318780 0.000000 0.000000 
#    y 0.000000 4.318780 0.000000 
#    z 0.000000 0.000000 4.191770 
# 
# 
# High freq. dielectric constant tensor:
#      x y z
#    x 1.905620 0.000000 0.000000 
#    y 0.000000 1.905620 0.000000 
#    z 0.000000 0.000000 1.893450 
# 
# From -- ./inp_files/2472.got.cif
#   From: 2010.03.12/outbox.cif.g09.slc.cpg/sg88_2_cif.got.tgz:2472.got - 2010.04.08 20:20:55.
