data_PCOD8304337
_publ_section_title
;
Structure prediction by ZEFSAII (Michael W. Deem and Ramdas Pophale) SiO2 
 PCOD8304337
Probable space group: I 41/A
;
_chemical_formula_sum "Si O2"
_cell_formula_units_Z 64
_cell_length_a 17.951105
_cell_length_b 17.951105
_cell_length_c 9.789462
_cell_angle_alpha 90.000000
_cell_angle_beta 90.000000
_cell_angle_gamma 90.000000
_cell_volume 3154.577485
_symmetry_space_group_name_H-M "I 41/A"
_symmetry_group_IT_number 88
_space_group.IT_coordinate_system_code '2'
_symmetry_cell_setting 'tetragonal'
loop_
_space_group_symop_operation_xyz
x,y,z
3/4-y,1/4+x,1/4+z
-x,1/2-y,z
1/4+y,1/4-x,1/4+z
-x,-y,-z
1/4+y,3/4-x,3/4-z
x,1/2+y,-z
3/4-y,3/4+x,3/4-z
1/2+x,1/2+y,1/2+z
1/4-y,3/4+x,3/4+z
1/2-x,-y,1/2+z
3/4+y,3/4-x,3/4+z
1/2-x,1/2-y,1/2-z
3/4+y,1/4-x,1/4-z
1/2+x,y,1/2-z
1/4-y,1/4+x,1/4-z
loop_
_atom_site_type_symbol
_atom_site_label
_atom_site_fract_x
_atom_site_fract_y
_atom_site_fract_z
Si Si1 0.727857 0.168464 0.038268
Si Si2 0.651856 0.226647 0.543236
Si Si3 0.557007 0.354642 0.907709
Si Si4 0.115870 0.381615 0.032766
O O1 0.794020 0.106767 0.034683
O O2 0.694423 0.174015 0.191359
O O3 0.762704 0.247636 0.987987
O O4 0.661239 0.145664 0.936413
O O5 0.640251 0.193264 0.692515
O O6 0.632070 0.162443 0.436984
O O7 0.597921 0.298922 0.527285
O O8 0.597758 0.275369 0.907310
#
# Coordination Sequence:
#
# PCOD8304337 Si02
#       4
#    16  16  16  16
#     4  10  22  44  61  93 131 164 214 272 310 389
#     4  10  23  37  67  91 127 167 213 260 318 379
#     4  11  22  38  64  95 126 170 220 264 319 373
#     4  10  23  40  66  91 130 166 212 264 324 378
#
# _framework density 20.287980000000001
#
# number of rings (size 3 to 8) (size 9 to 14) (size 15 to 20)
#    1.500    0.250    2.500    1.500    3.500    0.500 
#    0.000    5.000    0.000    0.000    0.000    0.000 
#    0.000    0.000    0.000    0.000    0.000    0.000 
#
# Total GULP energy -396565.244088 kJ/mol
# GULP energy per Si atom -12392.663878 kJ/mol
# Density = 2.024180 g / cm^3
# Si number density = 20.287980 Si / 1000 Ang^3
#
#
#
# Elastic Constant Matrix: (Units=GPa)
#
#
# Indices 1 2 3 4 5 6 
#
# 1 71.3066 25.3257 39.9355 0.0000 0.0000 -3.7337
# 2 25.3257 71.3066 39.9355 0.0000 0.0000 3.7337
# 3 39.9355 39.9355 150.5173 0.0000 0.0000 0.0000
# 4 0.0000 0.0000 0.0000 33.2186 0.0000 0.0000
# 5 0.0000 0.0000 0.0000 0.0000 33.2186 0.0000
# 6 -3.7337 3.7337 0.0000 0.0000 0.0000 23.3423
#
#
#
# Elastic Compliance Matrix: (Units=1/GPa)
#
#
# Indices 1 2 3 4 5 6 
#
# 1 0.017792 -0.004536 -0.003517 0.000000 0.000000 0.003572
# 2 -0.004536 0.017792 -0.003517 0.000000 0.000000 -0.003572
# 3 -0.003517 -0.003517 0.008510 0.000000 0.000000 0.000000
# 4 0.000000 0.000000 0.000000 0.030104 0.000000 0.000000
# 5 0.000000 0.000000 0.000000 0.000000 0.030104 0.000000
# 6 0.003572 -0.003572 0.000000 0.000000 0.000000 0.043983
#
#
# Mechanical properties :
#
#
# Convention : Reuss Voigt Hill
#
# Bulk Modulus (GPa) = 47.72572 55.94709 51.83641
# Shear Modulus (GPa) = 28.02548 30.48481 29.25515
#
# Velocity S-wave (km/s) = 3.72073 3.88055 3.80148
# Velocity P-wave (km/s) = 6.48334 6.90757 6.69881
#
# Compressibility (1/GPa) = 0.02095306
#
# Stress axis : x y z
#
# Youngs Moduli (GPa) = 56.20562 56.20562 117.50877
#
# Poissons Ratio (x) = 0.25497 0.41327
# Poissons Ratio (y) = 0.25497 0.41327
# Poissons Ratio (z) = 0.19767 0.19767
#
# Static dielectric constant tensor:
#      x y z
#    x 3.454490 0.000000 0.000000 
#    y 0.000000 3.454490 0.000000 
#    z 0.000000 0.000000 3.523340 
# 
# 
# High freq. dielectric constant tensor:
#      x y z
#    x 1.772050 0.000000 0.000000 
#    y 0.000000 1.772050 0.000000 
#    z 0.000000 0.000000 1.803280 
# 
# From -- ./inp_files/1473.got.cif
#   From: 2010.03.12/outbox.cif.g09.slc.cpg/sg88_1_cif.got.tgz:1473.got - 2010.04.08 20:20:55.
