data_PCOD8304811
_publ_section_title
;
Structure prediction by ZEFSAII (Michael W. Deem and Ramdas Pophale) SiO2 
 PCOD8304811
Probable space group: P 41 2 2
;
_chemical_formula_sum "Si O2"
_cell_formula_units_Z 48
_cell_length_a 9.051674
_cell_length_b 9.051674
_cell_length_c 31.019952
_cell_angle_alpha 90.000000
_cell_angle_beta 90.000000
_cell_angle_gamma 90.000000
_cell_volume 2541.551592
_symmetry_space_group_name_H-M "P 41 2 2"
_symmetry_group_IT_number 91
_symmetry_cell_setting 'tetragonal'
loop_
_space_group_symop_operation_xyz
x,y,z
-y,x,1/4+z
-x,-y,1/2+z
y,-x,3/4+z
x,-y,1/2-z
-x,y,-z
y,x,3/4-z
-y,-x,1/4-z
loop_
_atom_site_type_symbol
_atom_site_label
_atom_site_fract_x
_atom_site_fract_y
_atom_site_fract_z
Si Si1 0.644522 0.594913 0.790798
Si Si2 0.836645 0.174332 0.753546
Si Si3 0.338476 0.640129 0.832650
Si Si4 0.175879 0.655723 0.658979
Si Si5 0.162996 0.358144 0.163309
Si Si6 0.329003 0.866121 0.496444
O O1 0.587314 0.500000 0.750000
O O2 0.709044 0.751221 0.775147
O O3 0.511321 0.624768 0.823205
O O4 0.770365 0.506389 0.816316
O O5 0.821765 0.222450 0.803354
O O6 0.994499 0.227233 0.735081
O O7 0.819853 0.000000 0.750000
O O8 0.277242 0.485677 0.850019
O O9 0.310452 0.759381 0.869427
O O10 0.256893 0.694816 0.789591
O O11 0.217211 0.782790 0.625000
O O12 0.203623 0.716991 0.707414
O O13 0.006762 0.608371 0.652806
O O14 0.500000 0.919237 0.500000
#
# Coordination Sequence:
#
# PCOD8304811 Si02
#       6
#     8   8   8   8   8   8
#     4  10  19  36  58  79 108 144 184 226 272 325
#     4  10  21  38  58  80 111 150 185 222 273 332
#     4  11  21  35  60  85 106 142 189 232 275 326
#     4  10  20  36  56  80 111 145 184 227 273 326
#     4  10  22  37  55  81 113 147 180 224 281 332
#     4   9  19  38  59  81 112 152 185 223 284 337
#
# _framework density 18.886099000000002
#
# number of rings (size 3 to 8) (size 9 to 14) (size 15 to 20)
#    0.000    2.000    0.000    6.500    0.000    5.333 
#    0.000    2.500    0.000    0.000    0.000    0.000 
#    0.000    0.000    0.000    0.000    0.000    0.000 
#
# Total GULP energy -595363.440612 kJ/mol
# GULP energy per Si atom -12403.405013 kJ/mol
# Density = 1.884311 g / cm^3
# Si number density = 18.886099 Si / 1000 Ang^3
#
#
#
# Elastic Constant Matrix: (Units=GPa)
#
#
# Indices 1 2 3 4 5 6 
#
# 1 122.1530 62.4695 51.4635 0.0000 0.0000 0.0000
# 2 62.4695 122.1528 51.4629 0.0000 0.0000 0.0000
# 3 51.4635 51.4629 106.7292 0.0000 0.0000 0.0000
# 4 0.0000 0.0000 0.0000 24.8561 0.0000 0.0000
# 5 0.0000 0.0000 0.0000 0.0000 24.8561 0.0000
# 6 0.0000 0.0000 0.0000 0.0000 0.0000 25.0227
#
#
#
# Elastic Compliance Matrix: (Units=1/GPa)
#
#
# Indices 1 2 3 4 5 6 
#
# 1 0.012081 -0.004674 -0.003572 0.000000 0.000000 0.000000
# 2 -0.004674 0.012081 -0.003572 0.000000 0.000000 0.000000
# 3 -0.003572 -0.003572 0.012814 0.000000 0.000000 0.000000
# 4 0.000000 0.000000 0.000000 0.040232 0.000000 0.000000
# 5 0.000000 0.000000 0.000000 0.000000 0.040232 0.000000
# 6 0.000000 0.000000 0.000000 0.000000 0.000000 0.039964
#
#
# Mechanical properties :
#
#
# Convention : Reuss Voigt Hill
#
# Bulk Modulus (GPa) = 74.95103 75.75857 75.35480
# Shear Modulus (GPa) = 26.95618 27.32292 27.13955
#
# Velocity S-wave (km/s) = 3.78206 3.80771 3.79491
# Velocity P-wave (km/s) = 7.67098 7.71570 7.69337
#
# Compressibility (1/GPa) = 0.01334204
#
# Stress axis : x y z
#
# Youngs Moduli (GPa) = 82.77143 82.77174 78.03863
#
# Poissons Ratio (x) = 0.38685 0.27875
# Poissons Ratio (y) = 0.38684 0.27874
# Poissons Ratio (z) = 0.29566 0.29565
#
# Static dielectric constant tensor:
#      x y z
#    x 3.322660 0.000000 0.000000 
#    y 0.000000 3.322660 0.000000 
#    z 0.000000 0.000000 3.677230 
# 
# 
# High freq. dielectric constant tensor:
#      x y z
#    x 1.725770 0.000000 0.000000 
#    y 0.000000 1.725770 0.000000 
#    z 0.000000 0.000000 1.742870 
# 
# From -- ./inp_files/13596.got.cif
#   From: 2010.03.12/outbox.cif.g09.slc.cpg/sg91_7_cif.got.tgz:13596.got - 2010.04.08 20:27:58.
