data_PCOD8304554
_publ_section_title
;
Structure prediction by ZEFSAII (Michael W. Deem and Ramdas Pophale) SiO2 
 PCOD8304554
Probable space group: P 4 21 2
;
_chemical_formula_sum "Si O2"
_cell_formula_units_Z 52
_cell_length_a 18.733013
_cell_length_b 18.733013
_cell_length_c 7.261341
_cell_angle_alpha 90.000000
_cell_angle_beta 90.000000
_cell_angle_gamma 90.000000
_cell_volume 2548.191726
_symmetry_space_group_name_H-M "P 4 21 2"
_symmetry_group_IT_number 90
_symmetry_cell_setting 'tetragonal'
loop_
_space_group_symop_operation_xyz
x,y,z
1/2-y,1/2+x,z
-x,-y,z
1/2+y,1/2-x,z
1/2+x,1/2-y,-z
1/2-x,1/2+y,-z
y,x,-z
-y,-x,-z
loop_
_atom_site_type_symbol
_atom_site_label
_atom_site_fract_x
_atom_site_fract_y
_atom_site_fract_z
Si Si1 0.209664 0.536472 0.780662
Si Si2 0.051633 0.167241 0.500000
Si Si3 0.119503 0.669199 0.783415
Si Si4 0.169199 0.380498 0.216585
Si Si5 0.036472 0.290336 0.219337
Si Si6 0.182555 0.817445 0.782422
Si Si7 0.595411 0.595411 0.500000
O O1 0.285644 0.546975 0.684618
O O2 0.155752 0.597413 0.707444
O O3 0.175880 0.461627 0.713337
O O4 0.222037 0.539004 1.000000
O O5 0.126809 0.126809 0.500000
O O6 0.046976 0.214356 0.315381
O O7 0.988738 0.109198 0.499998
O O8 0.165410 0.737134 0.717321
O O9 0.119199 0.665397 0.000000
O O10 0.097414 0.344248 0.292556
O O11 0.175880 0.461628 0.286663
O O12 0.237134 0.334591 0.282682
O O13 0.128872 0.871126 0.684157
O O14 0.172043 0.827958 0.000000
#
# Coordination Sequence:
#
# PCOD8304554 Si02
#       7
#     8   8   8   8   8   8   4
#     4  10  22  41  62  91 126 159 198 248 298 356
#     4  12  27  41  61  90 120 158 205 250 304 358
#     4   9  19  37  63  90 121 160 201 243 299 359
#     4   9  19  37  63  90 121 160 201 243 299 359
#     4  10  22  41  62  91 126 159 198 248 298 356
#     4  10  20  37  63  91 116 156 206 249 295 352
#     4  12  23  42  66  82 118 162 200 251 300 356
#
# _framework density 20.40663
#
# number of rings (size 3 to 8) (size 9 to 14) (size 15 to 20)
#    0.000    1.846    3.077    0.231    2.154    3.692 
#    0.000    3.077    0.000    4.615    0.000    0.000 
#    0.000    0.000    0.000    0.000    0.000    0.000 
#
# Total GULP energy -644799.936929 kJ/mol
# GULP energy per Si atom -12399.998787 kJ/mol
# Density = 2.036018 g / cm^3
# Si number density = 20.406630 Si / 1000 Ang^3
#
#
#
# Elastic Constant Matrix: (Units=GPa)
#
#
# Indices 1 2 3 4 5 6 
#
# 1 113.6984 131.6792 27.5088 0.0000 0.0000 0.0000
# 2 131.6792 113.7019 27.5097 0.0000 0.0000 0.0000
# 3 27.5088 27.5097 79.9906 0.0000 0.0000 0.0000
# 4 0.0000 0.0000 0.0000 7.5224 0.0000 0.0000
# 5 0.0000 0.0000 0.0000 0.0000 7.5229 0.0000
# 6 0.0000 0.0000 0.0000 0.0000 0.0000 50.3351
#
#
#
# Elastic Compliance Matrix: (Units=1/GPa)
#
#
# Indices 1 2 3 4 5 6 
#
# 1 -0.025603 0.030018 -0.001519 0.000000 0.000000 0.000000
# 2 0.030018 -0.025602 -0.001518 0.000000 0.000000 0.000000
# 3 -0.001519 -0.001518 0.013546 0.000000 0.000000 0.000000
# 4 0.000000 0.000000 0.000000 0.132937 0.000000 0.000000
# 5 0.000000 0.000000 0.000000 0.000000 0.132928 0.000000
# 6 0.000000 0.000000 0.000000 0.000000 0.000000 0.019867
#
#
# Mechanical properties :
#
#
# Convention : Reuss Voigt Hill
#
# Bulk Modulus (GPa) = 61.33788 75.64290 68.49039
# Shear Modulus (GPa) = 25.05695 21.12228 23.08962
#
# Velocity S-wave (km/s) = 3.50792 3.22074 3.36739
# Velocity P-wave (km/s) = 6.82132 7.13997 6.98246
#
# Compressibility (1/GPa) = 0.01630314
#
# Stress axis : x y z
#
# Youngs Moduli (GPa) = -39.05849 -39.05959 73.82254
#
# Poissons Ratio (x) = 1.17249 0.11212
# Poissons Ratio (y) = 1.17246 0.11210
# Poissons Ratio (z) = -0.05932 -0.05931
#
# Static dielectric constant tensor:
#      x y z
#    x 4.011150 0.000000 0.000000 
#    y 0.000000 4.011150 0.000000 
#    z 0.000000 0.000000 3.544260 
# 
# 
# High freq. dielectric constant tensor:
#      x y z
#    x 1.800310 0.000000 0.000000 
#    y 0.000000 1.800310 0.000000 
#    z 0.000000 0.000000 1.800010 
# 
# From -- ./inp_files/1583.got.cif
#   From: 2010.03.12/outbox.cif.g09.slc.cpg/sg90_1_cif.got.tgz:1583.got - 2010.04.08 20:26:03.
