data_PCOD8304469
_publ_section_title
;
Structure prediction by ZEFSAII (Michael W. Deem and Ramdas Pophale) SiO2 
 PCOD8304469
Probable space group: P 4 2 2
;
_chemical_formula_sum "Si O2"
_cell_formula_units_Z 40
_cell_length_a 15.040472
_cell_length_b 15.040472
_cell_length_c 9.852166
_cell_angle_alpha 90.000000
_cell_angle_beta 90.000000
_cell_angle_gamma 90.000000
_cell_volume 2228.715594
_symmetry_space_group_name_H-M "P 4 2 2"
_symmetry_group_IT_number 89
_symmetry_cell_setting 'tetragonal'
loop_
_space_group_symop_operation_xyz
x,y,z
-y,x,z
-x,-y,z
y,-x,z
x,-y,-z
-x,y,-z
y,x,-z
-y,-x,-z
loop_
_atom_site_type_symbol
_atom_site_label
_atom_site_fract_x
_atom_site_fract_y
_atom_site_fract_z
Si Si1 0.900676 0.772295 0.033720
Si Si2 0.182843 0.316557 0.786250
Si Si3 0.240025 0.897276 0.527556
Si Si4 0.180429 0.318325 0.272694
Si Si5 0.895109 0.500972 0.161676
O O1 0.882106 0.750965 0.190343
O O2 0.875011 0.875011 0.000000
O O3 0.838451 0.710311 0.940475
O O4 0.000000 0.748732 0.000000
O O5 0.116655 0.266932 0.683128
O O6 0.284501 0.283538 0.750430
O O7 0.162550 0.420991 0.773934
O O8 0.142235 0.857766 0.500000
O O9 0.310992 0.846250 0.430475
O O10 0.238707 0.000000 0.500000
O O11 0.159617 0.415927 0.219141
O O12 0.000000 0.500000 0.207014
O O13 0.890840 0.500000 0.000000
#
# Coordination Sequence:
#
# PCOD8304469 Si02
#       5
#     8   8   8   8   8
#     4  10  18  30  47  67  96 130 166 206 250 302
#     4  10  21  35  51  74 104 136 168 214 270 312
#     4  10  20  34  51  73 106 142 176 214 258 310
#     4  10  21  35  51  74 104 136 168 214 270 312
#     4  11  20  31  55  82 102 131 178 223 260 318
#
# _framework density 17.947558000000001
#
# number of rings (size 3 to 8) (size 9 to 14) (size 15 to 20)
#    0.000    1.800    2.000    3.600    0.000    1.200 
#    0.000    2.000    0.000    7.800    0.000    1.400 
#    0.000    4.800    0.000    0.000    0.000    0.000 
#
# Total GULP energy -495627.357710 kJ/mol
# GULP energy per Si atom -12390.683943 kJ/mol
# Density = 1.790671 g / cm^3
# Si number density = 17.947558 Si / 1000 Ang^3
#
#
#
# Elastic Constant Matrix: (Units=GPa)
#
#
# Indices 1 2 3 4 5 6 
#
# 1 104.2762 61.7756 11.5056 0.0000 0.0000 0.0000
# 2 61.7756 104.2736 11.5040 0.0000 0.0000 0.0000
# 3 11.5056 11.5040 55.4185 0.0000 0.0000 0.0000
# 4 0.0000 0.0000 0.0000 17.7936 0.0000 0.0000
# 5 0.0000 0.0000 0.0000 0.0000 17.7940 0.0000
# 6 0.0000 0.0000 0.0000 0.0000 0.0000 21.2606
#
#
#
# Elastic Compliance Matrix: (Units=1/GPa)
#
#
# Indices 1 2 3 4 5 6 
#
# 1 0.014865 -0.008665 -0.001288 0.000000 0.000000 0.000000
# 2 -0.008665 0.014865 -0.001287 0.000000 0.000000 0.000000
# 3 -0.001288 -0.001287 0.018579 0.000000 0.000000 0.000000
# 4 0.000000 0.000000 0.000000 0.056200 0.000000 0.000000
# 5 0.000000 0.000000 0.000000 0.000000 0.056199 0.000000
# 6 0.000000 0.000000 0.000000 0.000000 0.000000 0.047035
#
#
# Mechanical properties :
#
#
# Convention : Reuss Voigt Hill
#
# Bulk Modulus (GPa) = 38.71275 48.17096 43.44186
# Shear Modulus (GPa) = 20.93521 23.31518 22.12519
#
# Velocity S-wave (km/s) = 3.41906 3.60817 3.51489
# Velocity P-wave (km/s) = 6.09946 6.65257 6.38201
#
# Compressibility (1/GPa) = 0.02583128
#
# Stress axis : x y z
#
# Youngs Moduli (GPa) = 67.27169 67.27039 53.82429
#
# Poissons Ratio (x) = 0.58287 0.06930
# Poissons Ratio (y) = 0.58288 0.06927
# Poissons Ratio (z) = 0.08662 0.08657
#
# Static dielectric constant tensor:
#      x y z
#    x 3.348010 0.000000 0.000000 
#    y 0.000000 3.348010 0.000000 
#    z 0.000000 0.000000 3.571350 
# 
# 
# High freq. dielectric constant tensor:
#      x y z
#    x 1.673940 0.000000 0.000000 
#    y 0.000000 1.673940 0.000000 
#    z 0.000000 0.000000 1.712070 
# 
# From -- ./inp_files/983.got.cif
#   From: 2010.03.12/outbox.cif.g09.slc.cpg/sg89_1_cif.got.tgz:983.got - 2010.04.08 20:24:03.
