data_PCOD8304556
_publ_section_title
;
Structure prediction by ZEFSAII (Michael W. Deem and Ramdas Pophale) SiO2 
 PCOD8304556
Probable space group: P 4 21 2
;
_chemical_formula_sum "Si O2"
_cell_formula_units_Z 48
_cell_length_a 11.391255
_cell_length_b 11.391255
_cell_length_c 18.694545
_cell_angle_alpha 90.000000
_cell_angle_beta 90.000000
_cell_angle_gamma 90.000000
_cell_volume 2425.817067
_symmetry_space_group_name_H-M "P 4 21 2"
_symmetry_group_IT_number 90
_symmetry_cell_setting 'tetragonal'
loop_
_space_group_symop_operation_xyz
x,y,z
1/2-y,1/2+x,z
-x,-y,z
1/2+y,1/2-x,z
1/2+x,1/2-y,-z
1/2-x,1/2+y,-z
y,x,-z
-y,-x,-z
loop_
_atom_site_type_symbol
_atom_site_label
_atom_site_fract_x
_atom_site_fract_y
_atom_site_fract_z
Si Si1 0.043293 0.685433 0.543543
Si Si2 0.725239 0.782238 0.122530
Si Si3 0.109285 0.930245 0.346194
Si Si4 0.455033 0.184922 0.621109
Si Si5 0.995696 0.140861 0.812167
Si Si6 0.871595 0.639491 0.028833
O O1 0.138744 0.586125 0.559726
O O2 0.070942 0.790541 0.595457
O O3 0.053572 0.724957 0.461405
O O4 0.616778 0.713814 0.159311
O O5 0.825635 0.688999 0.104422
O O6 0.784349 0.888417 0.167070
O O7 0.691346 0.825164 0.044439
O O8 0.072097 0.796109 0.329127
O O9 0.148722 0.991883 0.273261
O O10 0.000000 0.000000 0.379801
O O11 0.584813 0.139287 0.638536
O O12 0.000000 0.000000 0.835823
O O13 0.834450 0.506774 0.028789
#
# Coordination Sequence:
#
# PCOD8304556 Si02
#       6
#     8   8   8   8   8   8
#     4   9  20  38  60  90 121 157 207 263 325 383
#     4  11  22  41  64  92 131 172 204 271 323 376
#     4  11  25  38  59  89 124 166 213 259 309 390
#     4   9  20  40  64  88 119 159 211 270 322 372
#     4  11  26  43  61  93 132 173 222 256 324 395
#     4  10  20  38  65  97 124 158 217 264 316 380
#
# _framework density 19.787147000000001
#
# number of rings (size 3 to 8) (size 9 to 14) (size 15 to 20)
#    0.000    1.833    1.667    2.500    4.667    3.000 
#    0.000    0.000    0.000    2.000    0.000    0.000 
#    0.000    0.000    0.000    0.000    0.000    0.000 
#
# Total GULP energy -594807.378015 kJ/mol
# GULP energy per Si atom -12391.820375 kJ/mol
# Density = 1.974211 g / cm^3
# Si number density = 19.787147 Si / 1000 Ang^3
#
#
#
# Elastic Constant Matrix: (Units=GPa)
#
#
# Indices 1 2 3 4 5 6 
#
# 1 321.2253 -185.7472 22.8662 0.0000 0.0000 0.0000
# 2 -185.7472 321.2253 22.8662 0.0000 0.0000 0.0000
# 3 22.8662 22.8662 39.9028 0.0000 0.0000 0.0000
# 4 0.0000 0.0000 0.0000 -10.7670 0.0000 0.0000
# 5 0.0000 0.0000 0.0000 0.0000 -10.7670 0.0000
# 6 0.0000 0.0000 0.0000 0.0000 0.0000 32.5920
#
#
#
# Elastic Compliance Matrix: (Units=1/GPa)
#
#
# Indices 1 2 3 4 5 6 
#
# 1 0.005562 0.003590 -0.005244 0.000000 0.000000 0.000000
# 2 0.003590 0.005562 -0.005244 0.000000 0.000000 0.000000
# 3 -0.005244 -0.005244 0.031071 0.000000 0.000000 0.000000
# 4 0.000000 0.000000 0.000000 -0.092876 0.000000 0.000000
# 5 0.000000 0.000000 0.000000 0.000000 -0.092876 0.000000
# 6 0.000000 0.000000 0.000000 0.000000 0.000000 0.030682
#
#
# Mechanical properties :
#
#
# Convention : Reuss Voigt Hill
#
# Bulk Modulus (GPa) = 35.21456 44.70265 39.95860
# Shear Modulus (GPa) = -55.79683 57.03612 0.61964
#
# Velocity S-wave (km/s) = -5.31599 5.37470 0.56021
# Velocity P-wave (km/s) = 4.45470 7.82032 4.54494
#
# Compressibility (1/GPa) = 0.02839734
#
# Stress axis : x y z
#
# Youngs Moduli (GPa) = 179.79073 179.79073 32.18394
#
# Poissons Ratio (x) = -0.64536 0.16878
# Poissons Ratio (y) = -0.64536 0.16878
# Poissons Ratio (z) = 0.94287 0.94287
#
# Static dielectric constant tensor:
#      x y z
#    x 3.860340 0.000000 0.000000 
#    y 0.000000 3.860340 0.000000 
#    z 0.000000 0.000000 3.444430 
# 
# 
# High freq. dielectric constant tensor:
#      x y z
#    x 1.785940 0.000000 0.000000 
#    y 0.000000 1.785940 0.000000 
#    z 0.000000 0.000000 1.759700 
# 
# From -- ./inp_files/2658.got.cif
#   From: 2010.03.12/outbox.cif.g09.slc.cpg/sg90_2_cif.got.tgz:2658.got - 2010.04.08 20:26:03.
