data_PCOD8304615
_publ_section_title
;
Structure prediction by ZEFSAII (Michael W. Deem and Ramdas Pophale) SiO2 
 PCOD8304615
Probable space group: P 4 21 2
;
_chemical_formula_sum "Si O2"
_cell_formula_units_Z 32
_cell_length_a 11.850974
_cell_length_b 11.850974
_cell_length_c 10.887828
_cell_angle_alpha 90.000000
_cell_angle_beta 90.000000
_cell_angle_gamma 90.000000
_cell_volume 1529.147370
_symmetry_space_group_name_H-M "P 4 21 2"
_symmetry_group_IT_number 90
_symmetry_cell_setting 'tetragonal'
loop_
_space_group_symop_operation_xyz
x,y,z
1/2-y,1/2+x,z
-x,-y,z
1/2+y,1/2-x,z
1/2+x,1/2-y,-z
1/2-x,1/2+y,-z
y,x,-z
-y,-x,-z
loop_
_atom_site_type_symbol
_atom_site_label
_atom_site_fract_x
_atom_site_fract_y
_atom_site_fract_z
Si Si1 0.684660 0.004246 0.976657
Si Si2 0.367870 0.699340 0.633310
Si Si3 0.905305 0.232837 0.274741
Si Si4 0.500748 0.632672 0.182637
O O1 0.609001 0.114175 0.003271
O O2 0.795983 0.994122 0.058480
O O3 0.726712 0.014566 0.837453
O O4 0.316289 0.683712 0.500000
O O5 0.503680 0.705015 0.618711
O O6 0.327517 0.819174 0.684591
O O7 0.331741 0.598945 0.725112
O O8 0.835422 0.119918 0.244698
O O9 0.500000 0.500000 0.150700
#
# Coordination Sequence:
#
# PCOD8304615 Si02
#       4
#     8   8   8   8
#     4  11  22  41  67  97 137 178 223 274 337 410
#     4  11  26  43  69  98 131 182 231 278 336 406
#     4  11  23  44  68  92 135 176 223 277 338 401
#     4  10  24  41  66 102 135 171 222 281 344 396
#
# _framework density 20.926694000000001
#
# number of rings (size 3 to 8) (size 9 to 14) (size 15 to 20)
#    0.000    1.250    2.500    2.250    3.500   11.000 
#    0.000    0.000    0.000    0.000    0.000    0.000 
#    0.000    0.000    0.000    0.000    0.000    0.000 
#
# Total GULP energy -396826.047729 kJ/mol
# GULP energy per Si atom -12400.813992 kJ/mol
# Density = 2.087906 g / cm^3
# Si number density = 20.926694 Si / 1000 Ang^3
#
#
#
# Elastic Constant Matrix: (Units=GPa)
#
#
# Indices 1 2 3 4 5 6 
#
# 1 91.9036 27.2271 43.3944 0.0000 0.0000 0.0000
# 2 27.2271 91.9039 43.3944 0.0000 0.0000 0.0000
# 3 43.3944 43.3944 112.3385 0.0000 0.0000 0.0000
# 4 0.0000 0.0000 0.0000 26.4516 0.0000 0.0000
# 5 0.0000 0.0000 0.0000 0.0000 26.4522 0.0000
# 6 0.0000 0.0000 0.0000 0.0000 0.0000 31.8038
#
#
#
# Elastic Compliance Matrix: (Units=1/GPa)
#
#
# Indices 1 2 3 4 5 6 
#
# 1 0.013572 -0.001890 -0.004512 0.000000 0.000000 0.000000
# 2 -0.001890 0.013571 -0.004512 0.000000 0.000000 0.000000
# 3 -0.004512 -0.004512 0.012388 0.000000 0.000000 0.000000
# 4 0.000000 0.000000 0.000000 0.037805 0.000000 0.000000
# 5 0.000000 0.000000 0.000000 0.000000 0.037804 0.000000
# 6 0.000000 0.000000 0.000000 0.000000 0.000000 0.031443
#
#
# Mechanical properties :
#
#
# Convention : Reuss Voigt Hill
#
# Bulk Modulus (GPa) = 56.49308 58.24197 57.36753
# Shear Modulus (GPa) = 28.68415 29.08353 28.88384
#
# Velocity S-wave (km/s) = 3.70631 3.73202 3.71919
# Velocity P-wave (km/s) = 6.73572 6.81634 6.77615
#
# Compressibility (1/GPa) = 0.01770128
#
# Stress axis : x y z
#
# Youngs Moduli (GPa) = 73.68379 73.68405 80.72493
#
# Poissons Ratio (x) = 0.13927 0.36426
# Poissons Ratio (y) = 0.13926 0.36426
# Poissons Ratio (z) = 0.33249 0.33249
#
# Static dielectric constant tensor:
#      x y z
#    x 3.972440 0.000000 0.000000 
#    y 0.000000 3.972440 0.000000 
#    z 0.000000 0.000000 3.539990 
# 
# 
# High freq. dielectric constant tensor:
#      x y z
#    x 1.831510 0.000000 0.000000 
#    y 0.000000 1.831510 0.000000 
#    z 0.000000 0.000000 1.804290 
# 
# From -- ./inp_files/1848.got.cif
#   From: 2010.03.12/outbox.cif.g09.slc.cpg/sg90_1_cif.got.tgz:1848.got - 2010.04.08 20:26:03.
