data_PCOD8304664
_publ_section_title
;
Structure prediction by ZEFSAII (Michael W. Deem and Ramdas Pophale) SiO2 
 PCOD8304664
Probable space group: P 4 21 2
;
_chemical_formula_sum "Si O2"
_cell_formula_units_Z 48
_cell_length_a 8.159141
_cell_length_b 8.159141
_cell_length_c 32.806544
_cell_angle_alpha 90.000000
_cell_angle_beta 90.000000
_cell_angle_gamma 90.000000
_cell_volume 2183.983529
_symmetry_space_group_name_H-M "P 4 21 2"
_symmetry_group_IT_number 90
_symmetry_cell_setting 'tetragonal'
loop_
_space_group_symop_operation_xyz
x,y,z
1/2-y,1/2+x,z
-x,-y,z
1/2+y,1/2-x,z
1/2+x,1/2-y,-z
1/2-x,1/2+y,-z
y,x,-z
-y,-x,-z
loop_
_atom_site_type_symbol
_atom_site_label
_atom_site_fract_x
_atom_site_fract_y
_atom_site_fract_z
Si Si1 0.734487 0.457354 0.031272
Si Si2 0.000000 0.000000 0.103628
Si Si3 0.577241 0.256215 0.669120
Si Si4 0.500000 0.500000 0.605085
Si Si5 0.238825 0.071006 0.760600
Si Si6 0.082191 0.760725 0.538121
Si Si7 0.467550 0.734747 0.176265
O O1 0.815722 0.632781 0.023837
O O2 0.662473 0.476664 0.076565
O O3 0.586534 0.413467 0.000000
O O4 0.838630 0.989786 0.131253
O O5 0.391053 0.200990 0.662781
O O6 0.614153 0.389246 0.634430
O O7 0.596173 0.328611 0.714672
O O8 0.624737 0.607780 0.577720
O O9 0.387719 0.197079 0.768245
O O10 0.084952 0.096513 0.790991
O O11 0.203865 0.606671 0.537680
O O12 0.123357 0.876644 0.500000
O O13 0.638935 0.820538 0.183191
#
# Coordination Sequence:
#
# PCOD8304664 Si02
#       7
#     8   4   8   4   8   8   8
#     4  11  24  43  69  99 131 169 211 258 313 375
#     4  12  23  41  62  88 128 170 210 253 305 376
#     4   9  20  37  58  87 122 162 205 248 302 371
#     4  12  21  35  60  90 122 156 198 255 313 364
#     4   9  19  38  62  87 119 163 212 256 304 369
#     4  11  24  42  63  88 120 159 205 255 311 376
#     4  11  24  39  59  89 123 161 208 262 314 361
#
# _framework density 21.978187999999999
#
# number of rings (size 3 to 8) (size 9 to 14) (size 15 to 20)
#    0.000    1.500    0.000    6.500    0.000    3.333 
#    0.000    5.000    0.000    2.000    0.000    0.000 
#    0.000    0.000    0.000    0.000    0.000    0.000 
#
# Total GULP energy -594819.150044 kJ/mol
# GULP energy per Si atom -12392.065626 kJ/mol
# Density = 2.192816 g / cm^3
# Si number density = 21.978188 Si / 1000 Ang^3
#
#
#
# Elastic Constant Matrix: (Units=GPa)
#
#
# Indices 1 2 3 4 5 6 
#
# 1 89.7919 56.3116 58.5868 0.0000 0.0000 0.0000
# 2 56.3116 89.7904 58.5870 0.0000 0.0000 0.0000
# 3 58.5868 58.5870 164.6551 0.0000 0.0000 0.0000
# 4 0.0000 0.0000 0.0000 27.9480 0.0000 0.0000
# 5 0.0000 0.0000 0.0000 0.0000 27.9478 0.0000
# 6 0.0000 0.0000 0.0000 0.0000 0.0000 53.1040
#
#
#
# Elastic Compliance Matrix: (Units=1/GPa)
#
#
# Indices 1 2 3 4 5 6 
#
# 1 0.019723 -0.010146 -0.003408 0.000000 0.000000 0.000000
# 2 -0.010146 0.019724 -0.003408 0.000000 0.000000 0.000000
# 3 -0.003408 -0.003408 0.008498 0.000000 0.000000 0.000000
# 4 0.000000 0.000000 0.000000 0.035781 0.000000 0.000000
# 5 0.000000 0.000000 0.000000 0.000000 0.035781 0.000000
# 6 0.000000 0.000000 0.000000 0.000000 0.000000 0.018831
#
#
# Mechanical properties :
#
#
# Convention : Reuss Voigt Hill
#
# Bulk Modulus (GPa) = 71.31559 76.80093 74.05826
# Shear Modulus (GPa) = 28.25901 33.18343 30.72122
#
# Velocity S-wave (km/s) = 3.58966 3.88987 3.74278
# Velocity P-wave (km/s) = 7.04980 7.42932 7.24205
#
# Compressibility (1/GPa) = 0.01402218
#
# Stress axis : x y z
#
# Youngs Moduli (GPa) = 50.70203 50.70084 117.66867
#
# Poissons Ratio (x) = 0.51440 0.40099
# Poissons Ratio (y) = 0.51441 0.40101
# Poissons Ratio (z) = 0.17278 0.17279
#
# Static dielectric constant tensor:
#      x y z
#    x 3.928950 0.000000 0.000000 
#    y 0.000000 3.928950 0.000000 
#    z 0.000000 0.000000 3.958830 
# 
# 
# High freq. dielectric constant tensor:
#      x y z
#    x 1.871920 0.000000 0.000000 
#    y 0.000000 1.871920 0.000000 
#    z 0.000000 0.000000 1.867990 
# 
# From -- ./inp_files/3101.got.cif
#   From: 2010.03.12/outbox.cif.g09.slc.cpg/sg90_2_cif.got.tgz:3101.got - 2010.04.08 20:26:03.
