data_PCOD8304058
_publ_section_title
;
Structure prediction by ZEFSAII (Michael W. Deem and Ramdas Pophale) SiO2 
 PCOD8304058
Probable space group: I 4/M
;
_chemical_formula_sum "Si O2"
_cell_formula_units_Z 72
_cell_length_a 20.470256
_cell_length_b 20.470256
_cell_length_c 8.138230
_cell_angle_alpha 90.000000
_cell_angle_beta 90.000000
_cell_angle_gamma 90.000000
_cell_volume 3410.173753
_symmetry_space_group_name_H-M "I 4/M"
_symmetry_group_IT_number 87
_symmetry_cell_setting 'tetragonal'
loop_
_space_group_symop_operation_xyz
x,y,z
-y,x,z
-x,-y,z
y,-x,z
-x,-y,-z
y,-x,-z
x,y,-z
-y,x,-z
1/2+x,1/2+y,1/2+z
1/2-y,1/2+x,1/2+z
1/2-x,1/2-y,1/2+z
1/2+y,1/2-x,1/2+z
1/2-x,1/2-y,1/2-z
1/2+y,1/2-x,1/2-z
1/2+x,1/2+y,1/2-z
1/2-y,1/2+x,1/2-z
loop_
_atom_site_type_symbol
_atom_site_label
_atom_site_fract_x
_atom_site_fract_y
_atom_site_fract_z
Si Si1 0.054362 0.809218 0.691589
Si Si2 0.048722 0.416157 0.816463
Si Si3 0.931996 0.722746 0.311004
Si Si4 0.306730 0.297073 0.808291
Si Si5 0.975839 0.103416 0.000000
O O1 0.050653 0.835193 0.500000
O O2 0.128397 0.790143 0.741635
O O3 0.031155 0.860323 0.826545
O O4 0.005941 0.748039 0.712533
O O5 0.082761 0.470091 0.701632
O O6 0.077086 0.344838 0.783428
O O7 0.067701 0.436015 0.000000
O O8 0.917695 0.708668 0.500000
O O9 0.877721 0.773604 0.239189
O O10 0.250000 0.250000 0.750000
O O11 0.310773 0.292344 0.000000
O O12 0.048580 0.078159 0.000000
#
# Coordination Sequence:
#
# PCOD8304058 Si02
#       5
#    16  16  16  16   8
#     4  10  23  44  67  91 130 175 219 268 328 392
#     4  11  23  40  63  90 125 166 214 266 323 391
#     4  10  22  41  65  92 128 169 215 266 323 388
#     4  10  23  41  64  95 129 170 216 272 331 392
#     4  11  24  40  66 100 130 163 216 272 324 390
#
# _framework density 21.113294
#
# number of rings (size 3 to 8) (size 9 to 14) (size 15 to 20)
#    0.000    1.667    0.000    4.000    6.222    3.556 
#    0.000    1.111    0.000    0.000    0.000    0.000 
#    0.000    0.000    0.000    0.000    0.000    0.000 
#
# Total GULP energy -446208.863522 kJ/mol
# GULP energy per Si atom -12394.690653 kJ/mol
# Density = 2.106524 g / cm^3
# Si number density = 21.113294 Si / 1000 Ang^3
#
#
#
# Elastic Constant Matrix: (Units=GPa)
#
#
# Indices 1 2 3 4 5 6 
#
# 1 92.7789 4.5364 1.3066 0.0000 0.0000 1.6483
# 2 4.5364 92.7789 1.3066 0.0000 0.0000 -1.6483
# 3 1.3066 1.3066 65.0219 0.0000 0.0000 0.0000
# 4 0.0000 0.0000 0.0000 31.9356 0.0000 0.0000
# 5 0.0000 0.0000 0.0000 0.0000 31.9356 0.0000
# 6 1.6483 -1.6483 0.0000 0.0000 0.0000 38.2329
#
#
#
# Elastic Compliance Matrix: (Units=1/GPa)
#
#
# Indices 1 2 3 4 5 6 
#
# 1 0.010816 -0.000535 -0.000207 0.000000 0.000000 -0.000489
# 2 -0.000535 0.010816 -0.000207 0.000000 0.000000 0.000489
# 3 -0.000207 -0.000207 0.015388 0.000000 0.000000 0.000000
# 4 0.000000 0.000000 0.000000 0.031313 0.000000 0.000000
# 5 0.000000 0.000000 0.000000 0.000000 0.031313 0.000000
# 6 -0.000489 0.000489 0.000000 0.000000 0.000000 0.026198
#
#
# Mechanical properties :
#
#
# Convention : Reuss Voigt Hill
#
# Bulk Modulus (GPa) = 28.47042 29.43099 28.95070
# Shear Modulus (GPa) = 35.85585 36.64950 36.25268
#
# Velocity S-wave (km/s) = 4.12547 4.17087 4.14823
# Velocity P-wave (km/s) = 6.01718 6.09629 6.05686
#
# Compressibility (1/GPa) = 0.03512418
#
# Stress axis : x y z
#
# Youngs Moduli (GPa) = 92.45510 92.45510 64.98682
#
# Poissons Ratio (x) = 0.04943 0.01343
# Poissons Ratio (y) = 0.04943 0.01343
# Poissons Ratio (z) = 0.01910 0.01910
#
# Static dielectric constant tensor:
#      x y z
#    x 3.907800 0.000000 0.000000 
#    y 0.000000 3.907800 0.000000 
#    z 0.000000 0.000000 4.009960 
# 
# 
# High freq. dielectric constant tensor:
#      x y z
#    x 1.829890 0.000000 0.000000 
#    y 0.000000 1.829890 0.000000 
#    z 0.000000 0.000000 1.830060 
# 
# From -- ./inp_files/1060.got.cif
#   From: 2010.03.12/outbox.cif.g09.slc.cpg/sg87_1_cif.got.tgz:1060.got - 2010.04.08 20:16:13.
