data_PCOD8304640
_publ_section_title
;
Structure prediction by ZEFSAII (Michael W. Deem and Ramdas Pophale) SiO2 
 PCOD8304640
Probable space group: P 4 21 2
;
_chemical_formula_sum "Si O2"
_cell_formula_units_Z 42
_cell_length_a 8.657587
_cell_length_b 8.657587
_cell_length_c 27.379267
_cell_angle_alpha 90.000000
_cell_angle_beta 90.000000
_cell_angle_gamma 90.000000
_cell_volume 2052.180450
_symmetry_space_group_name_H-M "P 4 21 2"
_symmetry_group_IT_number 90
_symmetry_cell_setting 'tetragonal'
loop_
_space_group_symop_operation_xyz
x,y,z
1/2-y,1/2+x,z
-x,-y,z
1/2+y,1/2-x,z
1/2+x,1/2-y,-z
1/2-x,1/2+y,-z
y,x,-z
-y,-x,-z
loop_
_atom_site_type_symbol
_atom_site_label
_atom_site_fract_x
_atom_site_fract_y
_atom_site_fract_z
Si Si1 0.758920 0.408754 0.767460
Si Si2 0.029910 0.250504 0.418886
Si Si3 0.409486 0.765507 0.961631
Si Si4 0.000000 0.000000 0.500000
Si Si5 0.753632 0.429824 0.311497
Si Si6 0.603164 0.232489 0.850658
O O1 0.803228 0.588031 0.764095
O O2 0.634356 0.377367 0.724562
O O3 0.670115 0.370583 0.817790
O O4 0.168953 0.367182 0.423256
O O5 0.063714 0.176146 0.365630
O O6 0.022382 0.141270 0.464524
O O7 0.586296 0.804052 0.971164
O O8 0.379927 0.710003 0.906298
O O9 0.367024 0.632977 0.000000
O O10 0.813626 0.602930 0.302598
O O11 0.423381 0.199479 0.839647
#
# Coordination Sequence:
#
# PCOD8304640 Si02
#       6
#     8   8   8   2   8   8
#     4  11  24  37  51  79 115 144 177 229 287 336
#     4   9  20  37  55  81 114 145 183 226 267 319
#     4   9  19  35  54  78 108 141 180 229 281 335
#     4  12  20  32  60  88 112 148 184 224 274 316
#     4   9  19  37  59  79 103 140 184 225 265 319
#     4   9  19  37  58  78 103 141 189 232 275 336
#
# _framework density 20.466034000000001
#
# number of rings (size 3 to 8) (size 9 to 14) (size 15 to 20)
#    0.000    2.476    0.000    4.000    0.000    9.524 
#    0.000    5.714    0.000    2.286    0.000    0.000 
#    0.000    0.000    0.000    0.000    0.000    0.000 
#
# Total GULP energy -520362.261254 kJ/mol
# GULP energy per Si atom -12389.577649 kJ/mol
# Density = 2.041945 g / cm^3
# Si number density = 20.466034 Si / 1000 Ang^3
#
#
#
# Elastic Constant Matrix: (Units=GPa)
#
#
# Indices 1 2 3 4 5 6 
#
# 1 41.5467 4.6733 36.6234 0.0000 0.0000 0.0000
# 2 4.6733 41.5474 36.6239 0.0000 0.0000 0.0000
# 3 36.6234 36.6239 145.0854 0.0000 0.0000 0.0000
# 4 0.0000 0.0000 0.0000 25.7531 0.0000 0.0000
# 5 0.0000 0.0000 0.0000 0.0000 25.7529 0.0000
# 6 0.0000 0.0000 0.0000 0.0000 0.0000 21.9449
#
#
#
# Elastic Compliance Matrix: (Units=1/GPa)
#
#
# Indices 1 2 3 4 5 6 
#
# 1 0.031591 0.004471 -0.009103 0.000000 0.000000 0.000000
# 2 0.004471 0.031590 -0.009103 0.000000 0.000000 0.000000
# 3 -0.009103 -0.009103 0.011488 0.000000 0.000000 0.000000
# 4 0.000000 0.000000 0.000000 0.038830 0.000000 0.000000
# 5 0.000000 0.000000 0.000000 0.000000 0.038831 0.000000
# 6 0.000000 0.000000 0.000000 0.000000 0.000000 0.045569
#
#
# Mechanical properties :
#
#
# Convention : Reuss Voigt Hill
#
# Bulk Modulus (GPa) = 21.18685 42.66896 31.92790
# Shear Modulus (GPa) = 20.73817 24.70745 22.72281
#
# Velocity S-wave (km/s) = 3.18669 3.47831 3.33569
# Velocity P-wave (km/s) = 4.89026 6.08485 5.51997
#
# Compressibility (1/GPa) = 0.04719910
#
# Stress axis : x y z
#
# Youngs Moduli (GPa) = 31.65497 31.65542 87.04628
#
# Poissons Ratio (x) = -0.14153 0.79237
# Poissons Ratio (y) = -0.14152 0.79237
# Poissons Ratio (z) = 0.28815 0.28815
#
# Static dielectric constant tensor:
#      x y z
#    x 3.502660 0.000000 0.000000 
#    y 0.000000 3.502660 0.000000 
#    z 0.000000 0.000000 3.803280 
# 
# 
# High freq. dielectric constant tensor:
#      x y z
#    x 1.792590 0.000000 0.000000 
#    y 0.000000 1.792590 0.000000 
#    z 0.000000 0.000000 1.811640 
# 
# From -- ./inp_files/2983.got.cif
#   From: 2010.03.12/outbox.cif.g09.slc.cpg/sg90_2_cif.got.tgz:2983.got - 2010.04.08 20:26:03.
