data_PCOD8304191
_publ_section_title
;
Structure prediction by ZEFSAII (Michael W. Deem and Ramdas Pophale) SiO2 
 PCOD8304191
Probable space group: I 41/A
;
_chemical_formula_sum "Si O2"
_cell_formula_units_Z 96
_cell_length_a 18.014107
_cell_length_b 18.014107
_cell_length_c 16.148070
_cell_angle_alpha 90.000000
_cell_angle_beta 90.000000
_cell_angle_gamma 90.000000
_cell_volume 5240.178723
_symmetry_space_group_name_H-M "I 41/A"
_symmetry_group_IT_number 88
_space_group.IT_coordinate_system_code '2'
_symmetry_cell_setting 'tetragonal'
loop_
_space_group_symop_operation_xyz
x,y,z
3/4-y,1/4+x,1/4+z
-x,1/2-y,z
1/4+y,1/4-x,1/4+z
-x,-y,-z
1/4+y,3/4-x,3/4-z
x,1/2+y,-z
3/4-y,3/4+x,3/4-z
1/2+x,1/2+y,1/2+z
1/4-y,3/4+x,3/4+z
1/2-x,-y,1/2+z
3/4+y,3/4-x,3/4+z
1/2-x,1/2-y,1/2-z
3/4+y,1/4-x,1/4-z
1/2+x,y,1/2-z
1/4-y,1/4+x,1/4-z
loop_
_atom_site_type_symbol
_atom_site_label
_atom_site_fract_x
_atom_site_fract_y
_atom_site_fract_z
Si Si1 0.783072 0.646149 0.515246
Si Si2 0.796853 0.572877 0.072751
Si Si3 0.806189 0.973055 0.073246
Si Si4 0.681968 0.179368 0.768630
Si Si5 0.446830 0.062931 0.794824
Si Si6 0.918548 0.903365 0.537456
O O1 0.784691 0.622742 0.611645
O O2 0.715246 0.606942 0.466394
O O3 0.861265 0.623347 0.475545
O O4 0.779242 0.734850 0.507646
O O5 0.755592 0.517790 0.135669
O O6 0.737629 0.625190 0.026950
O O7 0.852571 0.626810 0.123528
O O8 0.836809 0.526387 0.000173
O O9 0.685652 0.218626 0.858789
O O10 0.765302 0.150560 0.745600
O O11 0.651842 0.241481 0.704201
O O12 0.418520 0.144043 0.765377
#
# Coordination Sequence:
#
# PCOD8304191 Si02
#       6
#    16  16  16  16  16  16
#     4  11  22  33  54  79 113 139 187 226 277 326
#     4  10  18  35  58  74 104 137 187 218 269 321
#     4  10  20  36  55  80 101 146 183 232 268 323
#     4  10  21  31  56  79 113 150 176 215 270 345
#     4  11  20  32  51  83 111 144 180 222 273 334
#     4  10  19  33  52  78 108 145 183 211 271 331
#
# _framework density 18.319986
#
# number of rings (size 3 to 8) (size 9 to 14) (size 15 to 20)
#    0.000    1.667    5.000    2.000    7.000    0.667 
#    0.000    2.500    0.000    0.000    0.000    0.000 
#    0.000    0.000    0.000    0.000    0.000    0.000 
#
# Total GULP energy -594848.052622 kJ/mol
# GULP energy per Si atom -12392.667763 kJ/mol
# Density = 1.827829 g / cm^3
# Si number density = 18.319986 Si / 1000 Ang^3
#
#
#
# Elastic Constant Matrix: (Units=GPa)
#
#
# Indices 1 2 3 4 5 6 
#
# 1 75.3176 15.8380 44.9189 0.0000 0.0000 -8.8134
# 2 15.8380 75.3176 44.9189 0.0000 0.0000 8.8134
# 3 44.9189 44.9189 89.2785 0.0000 0.0000 0.0000
# 4 0.0000 0.0000 0.0000 27.2504 0.0000 0.0000
# 5 0.0000 0.0000 0.0000 0.0000 27.2504 0.0000
# 6 -8.8134 8.8134 0.0000 0.0000 0.0000 20.3658
#
#
#
# Elastic Compliance Matrix: (Units=1/GPa)
#
#
# Indices 1 2 3 4 5 6 
#
# 1 0.020523 0.001237 -0.010948 0.000000 0.000000 0.008346
# 2 0.001237 0.020523 -0.010948 0.000000 0.000000 -0.008346
# 3 -0.010948 -0.010948 0.022218 0.000000 0.000000 0.000000
# 4 0.000000 0.000000 0.000000 0.036697 0.000000 0.000000
# 5 0.000000 0.000000 0.000000 0.000000 0.036697 0.000000
# 6 0.008346 -0.008346 0.000000 0.000000 0.000000 0.056325
#
#
# Mechanical properties :
#
#
# Convention : Reuss Voigt Hill
#
# Bulk Modulus (GPa) = 45.56814 50.14056 47.85435
# Shear Modulus (GPa) = 20.69396 23.92252 22.30824
#
# Velocity S-wave (km/s) = 3.36457 3.61753 3.49334
# Velocity P-wave (km/s) = 6.32624 6.69906 6.51532
#
# Compressibility (1/GPa) = 0.02194516
#
# Stress axis : x y z
#
# Youngs Moduli (GPa) = 48.72574 48.72574 45.00903
#
# Poissons Ratio (x) = -0.06028 0.49277
# Poissons Ratio (y) = -0.06028 0.49277
# Poissons Ratio (z) = 0.53346 0.53346
#
# Static dielectric constant tensor:
#      x y z
#    x 3.178300 0.000000 0.000000 
#    y 0.000000 3.178300 0.000000 
#    z 0.000000 0.000000 3.390960 
# 
# 
# High freq. dielectric constant tensor:
#      x y z
#    x 1.686290 0.000000 0.000000 
#    y 0.000000 1.686290 0.000000 
#    z 0.000000 0.000000 1.701400 
# 
# From -- ./inp_files/3943.got.cif
#   From: 2010.03.12/outbox.cif.g09.slc.cpg/sg88_2_cif.got.tgz:3943.got - 2010.04.08 20:20:55.
