data_PCOD8304847
_publ_section_title
;
Structure prediction by ZEFSAII (Michael W. Deem and Ramdas Pophale) SiO2 
 PCOD8304847
Probable space group: P 41 2 2
;
_chemical_formula_sum "Si O2"
_cell_formula_units_Z 52
_cell_length_a 15.204659
_cell_length_b 15.204659
_cell_length_c 11.609873
_cell_angle_alpha 90.000000
_cell_angle_beta 90.000000
_cell_angle_gamma 90.000000
_cell_volume 2683.989658
_symmetry_space_group_name_H-M "P 41 2 2"
_symmetry_group_IT_number 91
_symmetry_cell_setting 'tetragonal'
loop_
_space_group_symop_operation_xyz
x,y,z
-y,x,1/4+z
-x,-y,1/2+z
y,-x,3/4+z
x,-y,1/2-z
-x,y,-z
y,x,3/4-z
-y,-x,1/4-z
loop_
_atom_site_type_symbol
_atom_site_label
_atom_site_fract_x
_atom_site_fract_y
_atom_site_fract_z
Si Si1 0.334947 0.822848 0.857939
Si Si2 0.677410 0.011083 0.509060
Si Si3 0.914959 0.785220 0.427572
Si Si4 0.500000 0.085452 0.000000
Si Si5 0.000000 0.355393 0.500000
Si Si6 0.835913 0.518676 0.015586
Si Si7 0.553807 0.500000 0.750000
Si Si8 0.680540 0.347063 0.499787
O O1 0.271158 0.846267 0.752188
O O2 0.437308 0.828068 0.822480
O O3 0.307855 0.726295 0.900956
O O4 0.317751 0.890370 0.961842
O O5 0.726521 0.942883 0.429231
O O6 0.577954 0.980911 0.523998
O O7 0.711609 0.001487 0.640824
O O8 0.871996 0.871996 0.375000
O O9 0.000000 0.814376 0.500000
O O10 0.520982 0.147760 0.108056
O O11 0.915007 0.417152 0.518315
O O12 0.746040 0.572573 0.019848
O O13 0.500850 0.500850 0.875000
O O14 0.616960 0.582695 0.743391
O O15 0.696589 0.303412 0.625000
#
# Coordination Sequence:
#
# PCOD8304847 Si02
#       8
#     8   8   8   4   4   8   4   8
#     4  11  21  37  62  90 118 160 206 248 310 362
#     4  10  20  37  60  92 120 157 195 242 310 369
#     4  10  23  41  67  89 119 155 197 247 302 369
#     4  10  20  34  56  88 126 142 194 247 319 376
#     4  10  22  34  62  86 130 154 188 254 310 366
#     4  11  22  37  58  89 119 162 197 255 315 363
#     4  10  22  42  60  80 118 174 224 269 303 362
#     4  11  24  38  57  84 121 167 216 257 301 369
#
# _framework density 19.374144000000001
#
# number of rings (size 3 to 8) (size 9 to 14) (size 15 to 20)
#    0.000    1.538    1.538    4.615    5.385    2.462 
#    0.000    1.538    1.692    0.000    0.000    0.000 
#    0.000    0.000    0.000    0.000    0.000    0.000 
#
# Total GULP energy -644592.837423 kJ/mol
# GULP energy per Si atom -12396.016104 kJ/mol
# Density = 1.933005 g / cm^3
# Si number density = 19.374144 Si / 1000 Ang^3
#
#
#
# Elastic Constant Matrix: (Units=GPa)
#
#
# Indices 1 2 3 4 5 6 
#
# 1 85.5796 33.7701 33.0123 0.0000 0.0000 0.0000
# 2 33.7701 85.5797 33.0123 0.0000 0.0000 0.0000
# 3 33.0123 33.0123 153.9536 0.0000 0.0000 0.0000
# 4 0.0000 0.0000 0.0000 20.3387 0.0000 0.0000
# 5 0.0000 0.0000 0.0000 0.0000 20.3390 0.0000
# 6 0.0000 0.0000 0.0000 0.0000 0.0000 23.8706
#
#
#
# Elastic Compliance Matrix: (Units=1/GPa)
#
#
# Indices 1 2 3 4 5 6 
#
# 1 0.014404 -0.004898 -0.002038 0.000000 0.000000 0.000000
# 2 -0.004898 0.014404 -0.002038 0.000000 0.000000 0.000000
# 3 -0.002038 -0.002038 0.007370 0.000000 0.000000 0.000000
# 4 0.000000 0.000000 0.000000 0.049167 0.000000 0.000000
# 5 0.000000 0.000000 0.000000 0.000000 0.049167 0.000000
# 6 0.000000 0.000000 0.000000 0.000000 0.000000 0.041892
#
#
# Mechanical properties :
#
#
# Convention : Reuss Voigt Hill
#
# Bulk Modulus (GPa) = 54.85865 58.30025 56.57945
# Shear Modulus (GPa) = 24.94646 27.93088 26.43867
#
# Velocity S-wave (km/s) = 3.59223 3.80104 3.69811
# Velocity P-wave (km/s) = 6.75147 7.03000 6.89214
#
# Compressibility (1/GPa) = 0.01822867
#
# Stress axis : x y z
#
# Youngs Moduli (GPa) = 69.42538 69.42553 135.69118
#
# Poissons Ratio (x) = 0.34001 0.27660
# Poissons Ratio (y) = 0.34001 0.27660
# Poissons Ratio (z) = 0.14152 0.14152
#
# Static dielectric constant tensor:
#      x y z
#    x 3.491090 0.000000 0.000000 
#    y 0.000000 3.491080 0.000000 
#    z 0.000000 0.000000 3.998320 
# 
# 
# High freq. dielectric constant tensor:
#      x y z
#    x 1.740020 0.000000 0.000000 
#    y 0.000000 1.740020 0.000000 
#    z 0.000000 0.000000 1.779760 
# 
# From -- ./inp_files/10872.got.cif
#   From: 2010.03.12/outbox.cif.g09.slc.cpg/sg91_6_cif.got.tgz:10872.got - 2010.04.08 20:27:58.
