data_PCOD8304104
_publ_section_title
;
Structure prediction by ZEFSAII (Michael W. Deem and Ramdas Pophale) SiO2 
 PCOD8304104
Probable space group: I 4/M
;
_chemical_formula_sum "Si O2"
_cell_formula_units_Z 112
_cell_length_a 15.421049
_cell_length_b 15.421049
_cell_length_c 25.290689
_cell_angle_alpha 90.000000
_cell_angle_beta 90.000000
_cell_angle_gamma 90.000000
_cell_volume 6014.347195
_symmetry_space_group_name_H-M "I 4/M"
_symmetry_group_IT_number 87
_symmetry_cell_setting 'tetragonal'
loop_
_space_group_symop_operation_xyz
x,y,z
-y,x,z
-x,-y,z
y,-x,z
-x,-y,-z
y,-x,-z
x,y,-z
-y,x,-z
1/2+x,1/2+y,1/2+z
1/2-y,1/2+x,1/2+z
1/2-x,1/2-y,1/2+z
1/2+y,1/2-x,1/2+z
1/2-x,1/2-y,1/2-z
1/2+y,1/2-x,1/2-z
1/2+x,1/2+y,1/2-z
1/2-y,1/2+x,1/2-z
loop_
_atom_site_type_symbol
_atom_site_label
_atom_site_fract_x
_atom_site_fract_y
_atom_site_fract_z
Si Si1 0.194369 0.868839 0.819115
Si Si2 0.366047 0.051885 0.250423
Si Si3 0.865706 0.559622 0.939394
Si Si4 0.103176 0.899300 0.291157
Si Si5 0.366472 0.768650 0.157803
Si Si6 0.748027 0.942455 0.150741
Si Si7 0.379600 0.058911 0.060065
O O1 0.153492 0.869284 0.760878
O O2 0.275152 0.804668 0.822427
O O3 0.116982 0.832367 0.854708
O O4 0.221343 0.959751 0.843214
O O5 0.451198 0.110637 0.257082
O O6 0.306505 0.060722 0.302240
O O7 0.313727 0.084278 0.199469
O O8 0.796281 0.606807 0.901545
O O9 0.871154 0.456176 0.929878
O O10 0.961515 0.592377 0.926119
O O11 0.839368 0.580246 0.000000
O O12 0.138428 0.836845 0.338363
O O13 0.000720 0.879354 0.294351
O O14 0.700217 0.919866 0.096819
O O15 0.348155 0.065168 0.000000
#
# Coordination Sequence:
#
# PCOD8304104 Si02
#       7
#    16  16  16  16  16  16  16
#     4  12  23  38  58  82 116 155 198 248 300 354
#     4  11  21  33  54  83 119 146 176 242 316 368
#     4   9  18  35  63  92 122 155 191 249 318 374
#     4  11  24  41  58  80 119 166 201 235 290 365
#     4  12  22  36  60  91 116 150 205 251 299 359
#     4  12  23  37  56  85 117 158 206 244 296 363
#     4   9  18  37  61  87 121 159 196 243 313 376
#
# _framework density 18.622136999999999
#
# number of rings (size 3 to 8) (size 9 to 14) (size 15 to 20)
#    0.000    1.143    5.714    2.143    0.000    3.714 
#    0.000    1.429    0.000    0.857    0.000    2.000 
#    0.000    0.000    0.000    0.000    0.000    0.000 
#
# Total GULP energy -694116.528003 kJ/mol
# GULP energy per Si atom -12394.938000 kJ/mol
# Density = 1.857975 g / cm^3
# Si number density = 18.622137 Si / 1000 Ang^3
#
#
#
# Elastic Constant Matrix: (Units=GPa)
#
#
# Indices 1 2 3 4 5 6 
#
# 1 72.0402 19.6523 21.0871 0.0000 0.0000 4.4444
# 2 19.6523 72.0402 21.0871 0.0000 0.0000 -4.4444
# 3 21.0871 21.0871 82.2259 0.0000 0.0000 0.0000
# 4 0.0000 0.0000 0.0000 7.7496 0.0000 0.0000
# 5 0.0000 0.0000 0.0000 0.0000 7.7496 0.0000
# 6 4.4444 -4.4444 0.0000 0.0000 0.0000 22.2554
#
#
#
# Elastic Compliance Matrix: (Units=1/GPa)
#
#
# Indices 1 2 3 4 5 6 
#
# 1 0.016061 -0.003697 -0.003171 0.000000 0.000000 -0.003946
# 2 -0.003697 0.016061 -0.003171 0.000000 0.000000 0.003946
# 3 -0.003171 -0.003171 0.013788 0.000000 0.000000 0.000000
# 4 0.000000 0.000000 0.000000 0.129039 0.000000 0.000000
# 5 0.000000 0.000000 0.000000 0.000000 0.129039 0.000000
# 6 -0.003946 0.003946 0.000000 0.000000 0.000000 0.046509
#
#
# Mechanical properties :
#
#
# Convention : Reuss Voigt Hill
#
# Bulk Modulus (GPa) = 38.70968 38.88435 38.79702
# Shear Modulus (GPa) = 13.18620 18.51626 15.85123
#
# Velocity S-wave (km/s) = 2.66389 3.15670 2.92070
# Velocity P-wave (km/s) = 5.50398 5.84913 5.67918
#
# Compressibility (1/GPa) = 0.02583333
#
# Stress axis : x y z
#
# Youngs Moduli (GPa) = 62.26207 62.26207 72.52689
#
# Poissons Ratio (x) = 0.23016 0.22998
# Poissons Ratio (y) = 0.23016 0.22998
# Poissons Ratio (z) = 0.19743 0.19743
#
# Static dielectric constant tensor:
#      x y z
#    x 3.583100 0.000000 0.000000 
#    y 0.000000 3.583100 0.000000 
#    z 0.000000 0.000000 3.295760 
# 
# 
# High freq. dielectric constant tensor:
#      x y z
#    x 1.724170 0.000000 0.000000 
#    y 0.000000 1.724170 0.000000 
#    z 0.000000 0.000000 1.702330 
# 
# From -- ./inp_files/6278.got.cif
#   From: 2010.03.12/outbox.cif.g09.slc.cpg/sg87_4_cif.got.tgz:6278.got - 2010.04.08 20:16:13.
