data_PCOD8304832
_publ_section_title
;
Structure prediction by ZEFSAII (Michael W. Deem and Ramdas Pophale) SiO2 
 PCOD8304832
Probable space group: P 41 2 2
;
_chemical_formula_sum "Si O2"
_cell_formula_units_Z 48
_cell_length_a 11.603919
_cell_length_b 11.603919
_cell_length_c 18.002814
_cell_angle_alpha 90.000000
_cell_angle_beta 90.000000
_cell_angle_gamma 90.000000
_cell_volume 2424.095759
_symmetry_space_group_name_H-M "P 41 2 2"
_symmetry_group_IT_number 91
_symmetry_cell_setting 'tetragonal'
loop_
_space_group_symop_operation_xyz
x,y,z
-y,x,1/4+z
-x,-y,1/2+z
y,-x,3/4+z
x,-y,1/2-z
-x,y,-z
y,x,3/4-z
-y,-x,1/4-z
loop_
_atom_site_type_symbol
_atom_site_label
_atom_site_fract_x
_atom_site_fract_y
_atom_site_fract_z
Si Si1 0.272262 0.189843 0.154020
Si Si2 0.307455 0.092555 0.510774
Si Si3 0.748029 0.748029 0.375000
Si Si4 0.040591 0.484061 0.354900
Si Si5 0.388791 0.000000 0.250000
Si Si6 0.220877 0.508268 0.832381
Si Si7 0.881973 0.860544 0.240538
O O1 0.217226 0.258156 0.221820
O O2 0.379416 0.270512 0.125341
O O3 0.312368 0.072594 0.193447
O O4 0.176082 0.165051 0.090474
O O5 0.384025 0.058420 0.582296
O O6 0.388373 0.113657 0.439444
O O7 0.200826 0.005183 0.500596
O O8 0.766421 0.610552 0.376033
O O9 0.795415 0.810474 0.302117
O O10 0.068823 0.472958 0.442940
O O11 0.911757 0.452427 0.328111
O O12 0.274700 0.500000 0.750000
O O13 0.893143 0.000000 0.250000
#
# Coordination Sequence:
#
# PCOD8304832 Si02
#       7
#     8   8   4   8   4   8   8
#     4  11  24  40  61  94 133 171 226 266 324 397
#     4  11  21  42  66  91 136 174 213 274 326 392
#     4  12  22  40  72  94 128 174 222 276 324 398
#     4  10  19  41  69  87 121 184 227 257 315 395
#     4  10  22  40  64  92 124 184 226 264 318 402
#     4  11  19  42  65  90 127 173 216 270 339 376
#     4  12  24  39  62 103 138 174 204 271 344 402
#
# _framework density 19.801197999999999
#
# number of rings (size 3 to 8) (size 9 to 14) (size 15 to 20)
#    0.000    1.000    8.333    1.000    1.167    3.333 
#    1.500    0.000    3.667    0.000    0.000    0.000 
#    0.000    0.000    0.000    0.000    0.000    0.000 
#
# Total GULP energy -594696.649093 kJ/mol
# GULP energy per Si atom -12389.513523 kJ/mol
# Density = 1.975613 g / cm^3
# Si number density = 19.801198 Si / 1000 Ang^3
#
#
#
# Elastic Constant Matrix: (Units=GPa)
#
#
# Indices 1 2 3 4 5 6 
#
# 1 109.0511 19.4264 35.4608 0.0000 0.0000 0.0000
# 2 19.4264 109.0511 35.4608 0.0000 0.0000 0.0000
# 3 35.4608 35.4608 125.9839 0.0000 0.0000 0.0000
# 4 0.0000 0.0000 0.0000 30.9142 0.0000 0.0000
# 5 0.0000 0.0000 0.0000 0.0000 30.9142 0.0000
# 6 0.0000 0.0000 0.0000 0.0000 0.0000 5.0038
#
#
#
# Elastic Compliance Matrix: (Units=1/GPa)
#
#
# Indices 1 2 3 4 5 6 
#
# 1 0.010186 -0.000971 -0.002594 0.000000 0.000000 0.000000
# 2 -0.000971 0.010186 -0.002594 0.000000 0.000000 0.000000
# 3 -0.002594 -0.002594 0.009398 0.000000 0.000000 0.000000
# 4 0.000000 0.000000 0.000000 0.032348 0.000000 0.000000
# 5 0.000000 0.000000 0.000000 0.000000 0.032348 0.000000
# 6 0.000000 0.000000 0.000000 0.000000 0.000000 0.199848
#
#
# Mechanical properties :
#
#
# Convention : Reuss Voigt Hill
#
# Bulk Modulus (GPa) = 57.29690 58.30912 57.80301
# Shear Modulus (GPa) = 16.00259 30.28232 23.14246
#
# Velocity S-wave (km/s) = 2.84590 3.91489 3.42239
# Velocity P-wave (km/s) = 6.30855 7.06727 6.69866
#
# Compressibility (1/GPa) = 0.01745295
#
# Stress axis : x y z
#
# Youngs Moduli (GPa) = 98.16943 98.16943 106.40902
#
# Poissons Ratio (x) = 0.09534 0.27601
# Poissons Ratio (y) = 0.09534 0.27601
# Poissons Ratio (z) = 0.25464 0.25464
#
# Static dielectric constant tensor:
#      x y z
#    x 3.837410 0.000000 0.000000 
#    y 0.000000 3.837410 0.000000 
#    z 0.000000 0.000000 4.006700 
# 
# 
# High freq. dielectric constant tensor:
#      x y z
#    x 1.755720 0.000000 0.000000 
#    y 0.000000 1.755720 0.000000 
#    z 0.000000 0.000000 1.788070 
# 
# From -- ./inp_files/5632.got.cif
#   From: 2010.03.12/outbox.cif.g09.slc.cpg/sg91_3_cif.got.tgz:5632.got - 2010.04.08 20:27:58.
