data_PCOD8304264
_publ_section_title
;
Structure prediction by ZEFSAII (Michael W. Deem and Ramdas Pophale) SiO2 
 PCOD8304264
Probable space group: I 41/A
;
_chemical_formula_sum "Si O2"
_cell_formula_units_Z 112
_cell_length_a 27.105740
_cell_length_b 27.105740
_cell_length_c 7.220957
_cell_angle_alpha 90.000000
_cell_angle_beta 90.000000
_cell_angle_gamma 90.000000
_cell_volume 5305.389766
_symmetry_space_group_name_H-M "I 41/A"
_symmetry_group_IT_number 88
_space_group.IT_coordinate_system_code '2'
_symmetry_cell_setting 'tetragonal'
loop_
_space_group_symop_operation_xyz
x,y,z
3/4-y,1/4+x,1/4+z
-x,1/2-y,z
1/4+y,1/4-x,1/4+z
-x,-y,-z
1/4+y,3/4-x,3/4-z
x,1/2+y,-z
3/4-y,3/4+x,3/4-z
1/2+x,1/2+y,1/2+z
1/4-y,3/4+x,3/4+z
1/2-x,-y,1/2+z
3/4+y,3/4-x,3/4+z
1/2-x,1/2-y,1/2-z
3/4+y,1/4-x,1/4-z
1/2+x,y,1/2-z
1/4-y,1/4+x,1/4-z
loop_
_atom_site_type_symbol
_atom_site_label
_atom_site_fract_x
_atom_site_fract_y
_atom_site_fract_z
Si Si1 0.759737 0.434182 0.515147
Si Si2 0.968559 0.414165 0.153863
Si Si3 0.593344 0.154040 0.116727
Si Si4 0.846519 0.884730 0.284279
Si Si5 0.500536 0.313740 0.476193
Si Si6 0.578686 0.427240 0.327220
Si Si7 0.383904 0.970987 0.461322
O O1 0.726688 0.457568 0.674505
O O2 0.795540 0.393560 0.606492
O O3 0.723200 0.408598 0.367434
O O4 0.941646 0.392621 0.335904
O O5 0.978786 0.368273 0.018782
O O6 0.020783 0.439843 0.196970
O O7 0.934908 0.453573 0.050632
O O8 0.562373 0.205971 0.117603
O O9 0.635279 0.159566 0.273331
O O10 0.614762 0.142419 0.917181
O O11 0.840271 0.846433 0.120965
O O12 0.867106 0.936325 0.206735
O O13 0.526218 0.296642 0.272879
O O14 0.609354 0.475003 0.380970
#
# Coordination Sequence:
#
# PCOD8304264 Si02
#       7
#    16  16  16  16  16  16  16
#     4  12  24  42  67  99 134 180 236 285 333 399
#     4  10  21  40  68  96 134 175 214 273 348 393
#     4  10  20  43  65  97 135 173 219 281 330 396
#     4  12  24  43  68  97 135 178 228 277 339 403
#     4   8  16  34  68  96 124 174 218 263 329 395
#     4  11  23  44  65  96 133 178 222 273 336 410
#     4  12  23  42  67  96 138 179 222 279 347 403
#
# _framework density 21.110607000000002
#
# number of rings (size 3 to 8) (size 9 to 14) (size 15 to 20)
#    0.000    1.286    2.857    3.857    0.000    0.000 
#    5.143    1.429    0.000    0.000    3.714    0.000 
#    0.000    0.000    0.000    0.000    0.000    0.000 
#
# Total GULP energy -693998.014205 kJ/mol
# GULP energy per Si atom -12392.821682 kJ/mol
# Density = 2.106256 g / cm^3
# Si number density = 21.110607 Si / 1000 Ang^3
#
#
#
# Elastic Constant Matrix: (Units=GPa)
#
#
# Indices 1 2 3 4 5 6 
#
# 1 79.8054 7.0500 22.6242 0.0000 0.0000 -1.4080
# 2 7.0500 79.8054 22.6242 0.0000 0.0000 1.4080
# 3 22.6242 22.6242 90.1477 0.0000 0.0000 0.0000
# 4 0.0000 0.0000 0.0000 32.1785 0.0000 0.0000
# 5 0.0000 0.0000 0.0000 0.0000 32.1785 0.0000
# 6 -1.4080 1.4080 0.0000 0.0000 0.0000 40.3701
#
#
#
# Elastic Compliance Matrix: (Units=1/GPa)
#
#
# Indices 1 2 3 4 5 6 
#
# 1 0.013504 -0.000259 -0.003324 0.000000 0.000000 0.000480
# 2 -0.000259 0.013504 -0.003324 0.000000 0.000000 -0.000480
# 3 -0.003324 -0.003324 0.012761 0.000000 0.000000 0.000000
# 4 0.000000 0.000000 0.000000 0.031077 0.000000 0.000000
# 5 0.000000 0.000000 0.000000 0.000000 0.031077 0.000000
# 6 0.000480 -0.000480 0.000000 0.000000 0.000000 0.024804
#
#
# Mechanical properties :
#
#
# Convention : Reuss Voigt Hill
#
# Bulk Modulus (GPa) = 38.52789 39.37281 38.95035
# Shear Modulus (GPa) = 33.51348 34.10942 33.81145
#
# Velocity S-wave (km/s) = 3.98869 4.02400 4.00638
# Velocity P-wave (km/s) = 6.28514 6.34675 6.31602
#
# Compressibility (1/GPa) = 0.02595522
#
# Stress axis : x y z
#
# Youngs Moduli (GPa) = 74.05103 74.05103 78.36132
#
# Poissons Ratio (x) = 0.01919 0.26048
# Poissons Ratio (y) = 0.01919 0.26048
# Poissons Ratio (z) = 0.24615 0.24615
#
# Static dielectric constant tensor:
#      x y z
#    x 4.076780 0.000000 0.000000 
#    y 0.000000 4.076780 0.000000 
#    z 0.000000 0.000000 3.554690 
# 
# 
# High freq. dielectric constant tensor:
#      x y z
#    x 1.842810 0.000000 0.000000 
#    y 0.000000 1.842810 0.000000 
#    z 0.000000 0.000000 1.795250 
# 
# From -- ./inp_files/798.got.cif
#   From: 2010.03.12/outbox.cif.g09.slc.cpg/sg88_1_cif.got.tgz:798.got - 2010.04.08 20:20:55.
