data_PCOD8304793
_publ_section_title
;
Structure prediction by ZEFSAII (Michael W. Deem and Ramdas Pophale) SiO2 
 PCOD8304793
Probable space group: P 41 2 2
;
_chemical_formula_sum "Si O2"
_cell_formula_units_Z 48
_cell_length_a 9.153779
_cell_length_b 9.153779
_cell_length_c 31.320054
_cell_angle_alpha 90.000000
_cell_angle_beta 90.000000
_cell_angle_gamma 90.000000
_cell_volume 2624.359629
_symmetry_space_group_name_H-M "P 41 2 2"
_symmetry_group_IT_number 91
_symmetry_cell_setting 'tetragonal'
loop_
_space_group_symop_operation_xyz
x,y,z
-y,x,1/4+z
-x,-y,1/2+z
y,-x,3/4+z
x,-y,1/2-z
-x,y,-z
y,x,3/4-z
-y,-x,1/4-z
loop_
_atom_site_type_symbol
_atom_site_label
_atom_site_fract_x
_atom_site_fract_y
_atom_site_fract_z
Si Si1 0.566317 0.088014 0.293327
Si Si2 0.664747 0.247047 0.997982
Si Si3 0.768991 0.851751 0.329599
Si Si4 0.909539 0.661982 0.757721
Si Si5 0.075875 0.070546 0.545409
Si Si6 0.832939 0.741449 0.921364
O O1 0.664413 0.229574 0.283459
O O2 0.427823 0.152732 0.317645
O O3 0.524555 0.000000 0.250000
O O4 0.647054 0.978116 0.325996
O O5 0.663030 0.081150 0.980913
O O6 0.500000 0.311012 0.000000
O O7 0.724916 0.258409 0.045706
O O8 0.770621 0.770621 0.375000
O O9 0.923041 0.930681 0.322196
O O10 0.850993 0.500000 0.750000
O O11 0.879134 0.758246 0.714980
O O12 0.819683 0.722399 0.797059
O O13 0.000000 0.039514 0.500000
O O14 0.995534 0.192405 0.573469
O O15 0.766202 0.766202 0.875000
#
# Coordination Sequence:
#
# PCOD8304793 Si02
#       6
#     8   8   8   8   8   8
#     4  10  20  36  55  75 104 141 176 211 262 322
#     4   9  19  36  57  76 103 142 178 211 260 328
#     4  10  19  33  55  81 103 132 178 225 259 301
#     4   9  18  34  55  77 103 138 175 209 255 320
#     4   9  17  33  54  75 102 138 174 207 257 318
#     4  11  22  34  51  80 109 135 173 223 266 307
#
# _framework density 18.290178000000001
#
# number of rings (size 3 to 8) (size 9 to 14) (size 15 to 20)
#    0.000    2.333    0.000    5.500    0.000    4.667 
#    0.000    0.833    0.000    0.000    0.000    0.000 
#    0.000    0.000    0.000    0.000    0.000    0.000 
#
# Total GULP energy -595124.238552 kJ/mol
# GULP energy per Si atom -12398.421636 kJ/mol
# Density = 1.824855 g / cm^3
# Si number density = 18.290178 Si / 1000 Ang^3
#
#
#
# Elastic Constant Matrix: (Units=GPa)
#
#
# Indices 1 2 3 4 5 6 
#
# 1 119.4450 64.9143 56.4522 0.0000 0.0000 0.0000
# 2 64.9143 119.4450 56.4522 0.0000 0.0000 0.0000
# 3 56.4522 56.4522 102.5333 0.0000 0.0000 0.0000
# 4 0.0000 0.0000 0.0000 14.9804 0.0000 0.0000
# 5 0.0000 0.0000 0.0000 0.0000 14.9804 0.0000
# 6 0.0000 0.0000 0.0000 0.0000 0.0000 14.5309
#
#
#
# Elastic Compliance Matrix: (Units=1/GPa)
#
#
# Indices 1 2 3 4 5 6 
#
# 1 0.013261 -0.005077 -0.004506 0.000000 0.000000 0.000000
# 2 -0.005077 0.013261 -0.004506 0.000000 0.000000 0.000000
# 3 -0.004506 -0.004506 0.014714 0.000000 0.000000 0.000000
# 4 0.000000 0.000000 0.000000 0.066754 0.000000 0.000000
# 5 0.000000 0.000000 0.000000 0.000000 0.066754 0.000000
# 6 0.000000 0.000000 0.000000 0.000000 0.000000 0.068819
#
#
# Mechanical properties :
#
#
# Convention : Reuss Voigt Hill
#
# Bulk Modulus (GPa) = 76.57676 77.45119 77.01398
# Shear Modulus (GPa) = 18.10983 19.80530 18.95757
#
# Velocity S-wave (km/s) = 3.15006 3.29422 3.22295
# Velocity P-wave (km/s) = 7.42894 7.54367 7.48652
#
# Compressibility (1/GPa) = 0.01305879
#
# Stress axis : x y z
#
# Youngs Moduli (GPa) = 75.40964 75.40964 67.96113
#
# Poissons Ratio (x) = 0.38288 0.30621
# Poissons Ratio (y) = 0.38288 0.30621
# Poissons Ratio (z) = 0.33977 0.33977
#
# Static dielectric constant tensor:
#      x y z
#    x 3.490880 0.000000 0.000000 
#    y 0.000000 3.490880 0.000000 
#    z 0.000000 0.000000 3.022390 
# 
# 
# High freq. dielectric constant tensor:
#      x y z
#    x 1.709070 0.000000 0.000000 
#    y 0.000000 1.709070 0.000000 
#    z 0.000000 0.000000 1.691490 
# 
# From -- ./inp_files/13604.got.cif
#   From: 2010.03.12/outbox.cif.g09.slc.cpg/sg91_7_cif.got.tgz:13604.got - 2010.04.08 20:27:58.
