data_PCOD8304349
_publ_section_title
;
Structure prediction by ZEFSAII (Michael W. Deem and Ramdas Pophale) SiO2 
 PCOD8304349
Probable space group: I 41/A
;
_chemical_formula_sum "Si O2"
_cell_formula_units_Z 88
_cell_length_a 15.504644
_cell_length_b 15.504644
_cell_length_c 17.591556
_cell_angle_alpha 90.000000
_cell_angle_beta 90.000000
_cell_angle_gamma 90.000000
_cell_volume 4228.904259
_symmetry_space_group_name_H-M "I 41/A"
_symmetry_group_IT_number 88
_space_group.IT_coordinate_system_code '2'
_symmetry_cell_setting 'tetragonal'
loop_
_space_group_symop_operation_xyz
x,y,z
3/4-y,1/4+x,1/4+z
-x,1/2-y,z
1/4+y,1/4-x,1/4+z
-x,-y,-z
1/4+y,3/4-x,3/4-z
x,1/2+y,-z
3/4-y,3/4+x,3/4-z
1/2+x,1/2+y,1/2+z
1/4-y,3/4+x,3/4+z
1/2-x,-y,1/2+z
3/4+y,3/4-x,3/4+z
1/2-x,1/2-y,1/2-z
3/4+y,1/4-x,1/4-z
1/2+x,y,1/2-z
1/4-y,1/4+x,1/4-z
loop_
_atom_site_type_symbol
_atom_site_label
_atom_site_fract_x
_atom_site_fract_y
_atom_site_fract_z
Si Si1 0.764314 0.566376 0.432354
Si Si2 0.993322 0.409338 0.737518
Si Si3 0.179973 0.818415 0.650911
Si Si4 0.662186 0.010858 0.210382
Si Si5 0.000000 0.250000 0.125000
Si Si6 0.142061 0.694443 0.775575
Si Si7 0.000000 0.750000 0.375000
O O1 0.791068 0.662646 0.452423
O O2 0.670635 0.577372 0.396207
O O3 0.767187 0.503050 0.503747
O O4 0.831956 0.520258 0.376087
O O5 0.969783 0.386491 0.824533
O O6 0.077781 0.468095 0.746124
O O7 0.014155 0.329474 0.682325
O O8 0.129931 0.779502 0.723580
O O9 0.280268 0.793539 0.664002
O O10 0.654713 0.113645 0.219407
O O11 0.065997 0.305900 0.074699
#
# Coordination Sequence:
#
# PCOD8304349 Si02
#       7
#    16  16  16  16   4  16   4
#     4  11  23  43  70  97 128 177 224 277 344 399
#     4  12  24  46  67  95 133 181 223 291 328 409
#     4  10  23  43  68  95 135 177 221 277 342 406
#     4  11  23  43  68  95 136 172 222 277 335 403
#     4  12  24  38  64 104 140 174 216 280 328 422
#     4  10  24  40  66 105 136 174 220 270 348 415
#     4  12  28  46  64  96 136 174 248 276 336 386
#
# _framework density 20.809173999999999
#
# number of rings (size 3 to 8) (size 9 to 14) (size 15 to 20)
#    0.000    1.091    3.636    2.182    5.091    3.636 
#    3.273    2.727    0.000    0.000    0.000    0.000 
#    0.000    0.000    0.000    0.000    0.000    0.000 
#
# Total GULP energy -545441.574166 kJ/mol
# GULP energy per Si atom -12396.399413 kJ/mol
# Density = 2.076181 g / cm^3
# Si number density = 20.809174 Si / 1000 Ang^3
#
#
#
# Elastic Constant Matrix: (Units=GPa)
#
#
# Indices 1 2 3 4 5 6 
#
# 1 68.2065 37.1873 17.9747 0.0000 0.0000 -5.4498
# 2 37.1873 68.2065 17.9747 0.0000 0.0000 5.4498
# 3 17.9747 17.9747 59.1965 0.0000 0.0000 0.0000
# 4 0.0000 0.0000 0.0000 31.4153 0.0000 0.0000
# 5 0.0000 0.0000 0.0000 0.0000 31.4153 0.0000
# 6 -5.4498 5.4498 0.0000 0.0000 0.0000 27.1674
#
#
#
# Elastic Compliance Matrix: (Units=1/GPa)
#
#
# Indices 1 2 3 4 5 6 
#
# 1 0.022634 -0.012049 -0.003214 0.000000 0.000000 0.006957
# 2 -0.012049 0.022634 -0.003214 0.000000 0.000000 -0.006957
# 3 -0.003214 -0.003214 0.018845 0.000000 0.000000 0.000000
# 4 0.000000 0.000000 0.000000 0.031832 0.000000 0.000000
# 5 0.000000 0.000000 0.000000 0.000000 0.031832 0.000000
# 6 0.006957 -0.006957 0.000000 0.000000 0.000000 0.039600
#
#
# Mechanical properties :
#
#
# Convention : Reuss Voigt Hill
#
# Bulk Modulus (GPa) = 36.82161 37.98696 37.40429
# Shear Modulus (GPa) = 23.43220 26.16448 24.79834
#
# Velocity S-wave (km/s) = 3.35931 3.54976 3.45585
# Velocity P-wave (km/s) = 5.72537 5.92416 5.82561
#
# Compressibility (1/GPa) = 0.02715796
#
# Stress axis : x y z
#
# Youngs Moduli (GPa) = 44.18210 44.18210 53.06546
#
# Poissons Ratio (x) = 0.53236 0.17055
# Poissons Ratio (y) = 0.53236 0.17055
# Poissons Ratio (z) = 0.14200 0.14200
#
# Static dielectric constant tensor:
#      x y z
#    x 3.722280 0.000000 0.000000 
#    y 0.000000 3.722280 0.000000 
#    z 0.000000 0.000000 3.752430 
# 
# 
# High freq. dielectric constant tensor:
#      x y z
#    x 1.814510 0.000000 0.000000 
#    y 0.000000 1.814510 0.000000 
#    z 0.000000 0.000000 1.821770 
# 
# From -- ./inp_files/4647.got.cif
#   From: 2010.03.12/outbox.cif.g09.slc.cpg/sg88_3_cif.got.tgz:4647.got - 2010.04.08 20:20:55.
