data_PCOD8304665
_publ_section_title
;
Structure prediction by ZEFSAII (Michael W. Deem and Ramdas Pophale) SiO2 
 PCOD8304665
Probable space group: P 4 21 2
;
_chemical_formula_sum "Si O2"
_cell_formula_units_Z 48
_cell_length_a 8.081936
_cell_length_b 8.081936
_cell_length_c 33.273560
_cell_angle_alpha 90.000000
_cell_angle_beta 90.000000
_cell_angle_gamma 90.000000
_cell_volume 2173.352061
_symmetry_space_group_name_H-M "P 4 21 2"
_symmetry_group_IT_number 90
_symmetry_cell_setting 'tetragonal'
loop_
_space_group_symop_operation_xyz
x,y,z
1/2-y,1/2+x,z
-x,-y,z
1/2+y,1/2-x,z
1/2+x,1/2-y,-z
1/2-x,1/2+y,-z
y,x,-z
-y,-x,-z
loop_
_atom_site_type_symbol
_atom_site_label
_atom_site_fract_x
_atom_site_fract_y
_atom_site_fract_z
Si Si1 0.736786 0.578149 0.037178
Si Si2 0.000000 0.000000 0.104664
Si Si3 0.589302 0.256833 0.666335
Si Si4 0.500000 0.500000 0.604708
Si Si5 0.242599 0.086726 0.756621
Si Si6 0.737207 0.582570 0.462091
Si Si7 0.427141 0.738018 0.171577
O O1 0.796131 0.389064 0.035887
O O2 0.629514 0.603156 0.077500
O O3 0.616260 0.616260 0.000000
O O4 0.875287 0.895412 0.132653
O O5 0.398688 0.206193 0.659173
O O6 0.627130 0.399049 0.633662
O O7 0.612181 0.326464 0.711472
O O8 0.608831 0.624581 0.577356
O O9 0.398712 0.205148 0.763779
O O10 0.098702 0.133584 0.787707
O O11 0.794726 0.392253 0.462161
O O12 0.621240 0.621240 0.500000
O O13 0.614414 0.797737 0.170417
#
# Coordination Sequence:
#
# PCOD8304665 Si02
#       7
#     8   4   8   4   8   8   8
#     4  11  24  43  68  95 124 162 208 259 317 382
#     4  12  23  41  62  88 126 166 208 253 307 378
#     4   9  20  38  60  88 122 164 214 262 311 372
#     4  12  21  33  60  92 124 160 202 255 317 368
#     4   9  19  38  62  86 117 163 216 262 308 367
#     4  11  24  43  66  92 126 169 218 267 319 385
#     4  11  24  39  59  89 124 163 207 259 316 370
#
# _framework density 22.085701
#
# number of rings (size 3 to 8) (size 9 to 14) (size 15 to 20)
#    0.000    1.500    0.000    6.500    0.000    4.667 
#    0.000    3.333    0.000    4.500    0.000    0.000 
#    0.000    0.000    0.000    0.000    0.000    0.000 
#
# Total GULP energy -595256.151928 kJ/mol
# GULP energy per Si atom -12401.169832 kJ/mol
# Density = 2.203543 g / cm^3
# Si number density = 22.085701 Si / 1000 Ang^3
#
#
#
# Elastic Constant Matrix: (Units=GPa)
#
#
# Indices 1 2 3 4 5 6 
#
# 1 107.2410 44.1569 75.3604 0.0000 0.0000 0.0000
# 2 44.1569 107.2410 75.3604 0.0000 0.0000 0.0000
# 3 75.3604 75.3604 206.3049 0.0000 0.0000 0.0000
# 4 0.0000 0.0000 0.0000 38.3920 0.0000 0.0000
# 5 0.0000 0.0000 0.0000 0.0000 38.3920 0.0000
# 6 0.0000 0.0000 0.0000 0.0000 0.0000 34.2648
#
#
#
# Elastic Compliance Matrix: (Units=1/GPa)
#
#
# Indices 1 2 3 4 5 6 
#
# 1 0.013116 -0.002736 -0.003792 0.000000 0.000000 0.000000
# 2 -0.002736 0.013116 -0.003792 0.000000 0.000000 0.000000
# 3 -0.003792 -0.003792 0.007617 0.000000 0.000000 0.000000
# 4 0.000000 0.000000 0.000000 0.026047 0.000000 0.000000
# 5 0.000000 0.000000 0.000000 0.000000 0.026047 0.000000
# 6 0.000000 0.000000 0.000000 0.000000 0.000000 0.029184
#
#
# Mechanical properties :
#
#
# Convention : Reuss Voigt Hill
#
# Bulk Modulus (GPa) = 75.69808 90.06024 82.87916
# Shear Modulus (GPa) = 35.67114 37.27037 36.47076
#
# Velocity S-wave (km/s) = 4.02322 4.11242 4.06806
# Velocity P-wave (km/s) = 7.47869 7.96338 7.72484
#
# Compressibility (1/GPa) = 0.01321038
#
# Stress axis : x y z
#
# Youngs Moduli (GPa) = 76.24392 76.24392 131.28161
#
# Poissons Ratio (x) = 0.20861 0.49776
# Poissons Ratio (y) = 0.20861 0.49776
# Poissons Ratio (z) = 0.28908 0.28908
#
# Static dielectric constant tensor:
#      x y z
#    x 3.881090 0.000000 0.000000 
#    y 0.000000 3.881090 0.000000 
#    z 0.000000 0.000000 4.161070 
# 
# 
# High freq. dielectric constant tensor:
#      x y z
#    x 1.863210 0.000000 0.000000 
#    y 0.000000 1.863210 0.000000 
#    z 0.000000 0.000000 1.885890 
# 
# From -- ./inp_files/3098.got.cif
#   From: 2010.03.12/outbox.cif.g09.slc.cpg/sg90_2_cif.got.tgz:3098.got - 2010.04.08 20:26:03.
