data_PCOD8304592
_publ_section_title
;
Structure prediction by ZEFSAII (Michael W. Deem and Ramdas Pophale) SiO2 
 PCOD8304592
Probable space group: P 4 21 2
;
_chemical_formula_sum "Si O2"
_cell_formula_units_Z 40
_cell_length_a 8.225710
_cell_length_b 8.225710
_cell_length_c 27.917309
_cell_angle_alpha 90.000000
_cell_angle_beta 90.000000
_cell_angle_gamma 90.000000
_cell_volume 1888.949476
_symmetry_space_group_name_H-M "P 4 21 2"
_symmetry_group_IT_number 90
_symmetry_cell_setting 'tetragonal'
loop_
_space_group_symop_operation_xyz
x,y,z
1/2-y,1/2+x,z
-x,-y,z
1/2+y,1/2-x,z
1/2+x,1/2-y,-z
1/2-x,1/2+y,-z
y,x,-z
-y,-x,-z
loop_
_atom_site_type_symbol
_atom_site_label
_atom_site_fract_x
_atom_site_fract_y
_atom_site_fract_z
Si Si1 0.537604 0.260778 0.794724
Si Si2 0.958544 0.764341 0.963789
Si Si3 0.000000 0.000000 0.714549
Si Si4 0.000000 0.000000 0.120746
Si Si5 0.258019 0.420662 0.635404
Si Si6 0.097306 0.753388 0.453811
O O1 0.682347 0.136869 0.790395
O O2 0.584768 0.373715 0.750100
O O3 0.521156 0.343775 0.846114
O O4 0.817895 0.632243 0.972525
O O5 0.982861 0.837783 0.910954
O O6 0.912097 0.912097 0.000000
O O7 0.903804 0.133184 0.682910
O O8 0.201009 0.606716 0.634008
O O9 0.370276 0.371658 0.590868
O O10 0.207200 0.591873 0.453191
O O11 0.140035 0.859966 0.500000
#
# Coordination Sequence:
#
# PCOD8304592 Si02
#       6
#     8   8   4   4   8   8
#     4  10  22  39  61  88 118 155 199 251 311 374
#     4  11  23  39  61  90 127 171 218 269 322 379
#     4  11  22  40  62  86 118 154 196 249 306 370
#     4  11  21  38  61  88 123 160 207 259 316 378
#     4  11  23  39  61  89 120 157 201 250 307 370
#     4  11  24  41  62  90 124 163 207 255 309 369
#
# _framework density 21.175789000000002
#
# number of rings (size 3 to 8) (size 9 to 14) (size 15 to 20)
#    0.000    1.200    0.000    6.300    0.000    3.600 
#    0.000    4.000    0.000    9.600    0.000    0.000 
#    0.000    0.000    0.000    0.000    0.000    0.000 
#
# Total GULP energy -495667.202344 kJ/mol
# GULP energy per Si atom -12391.680059 kJ/mol
# Density = 2.112759 g / cm^3
# Si number density = 21.175789 Si / 1000 Ang^3
#
#
#
# Elastic Constant Matrix: (Units=GPa)
#
#
# Indices 1 2 3 4 5 6 
#
# 1 82.0034 32.3903 46.7018 0.0000 0.0000 0.0000
# 2 32.3903 82.0029 46.7017 0.0000 0.0000 0.0000
# 3 46.7018 46.7017 159.1370 0.0000 0.0000 0.0000
# 4 0.0000 0.0000 0.0000 70.4927 0.0000 0.0000
# 5 0.0000 0.0000 0.0000 0.0000 70.4923 0.0000
# 6 0.0000 0.0000 0.0000 0.0000 0.0000 34.1783
#
#
#
# Elastic Compliance Matrix: (Units=1/GPa)
#
#
# Indices 1 2 3 4 5 6 
#
# 1 0.015826 -0.004330 -0.003374 0.000000 0.000000 0.000000
# 2 -0.004330 0.015826 -0.003374 0.000000 0.000000 0.000000
# 3 -0.003374 -0.003374 0.008264 0.000000 0.000000 0.000000
# 4 0.000000 0.000000 0.000000 0.014186 0.000000 0.000000
# 5 0.000000 0.000000 0.000000 0.000000 0.014186 0.000000
# 6 0.000000 0.000000 0.000000 0.000000 0.000000 0.029258
#
#
# Mechanical properties :
#
#
# Convention : Reuss Voigt Hill
#
# Bulk Modulus (GPa) = 56.30075 63.85900 60.07987
# Shear Modulus (GPa) = 39.80176 48.18929 43.99552
#
# Velocity S-wave (km/s) = 4.34012 4.77558 4.56305
# Velocity P-wave (km/s) = 7.19449 7.78655 7.49636
#
# Compressibility (1/GPa) = 0.01776175
#
# Stress axis : x y z
#
# Youngs Moduli (GPa) = 63.18603 63.18572 121.00447
#
# Poissons Ratio (x) = 0.27358 0.40826
# Poissons Ratio (y) = 0.27358 0.40826
# Poissons Ratio (z) = 0.21318 0.21318
#
# Static dielectric constant tensor:
#      x y z
#    x 3.870910 0.000000 0.000000 
#    y 0.000000 3.870920 0.000000 
#    z 0.000000 0.000000 3.848550 
# 
# 
# High freq. dielectric constant tensor:
#      x y z
#    x 1.844370 0.000000 0.000000 
#    y 0.000000 1.844370 0.000000 
#    z 0.000000 0.000000 1.837880 
# 
# From -- ./inp_files/2975.got.cif
#   From: 2010.03.12/outbox.cif.g09.slc.cpg/sg90_2_cif.got.tgz:2975.got - 2010.04.08 20:26:03.
