data_PCOD8304419
_publ_section_title
;
Structure prediction by ZEFSAII (Michael W. Deem and Ramdas Pophale) SiO2 
 PCOD8304419
Probable space group: I 41/A
;
_chemical_formula_sum "Si O2"
_cell_formula_units_Z 96
_cell_length_a 15.558295
_cell_length_b 15.558295
_cell_length_c 16.221275
_cell_angle_alpha 90.000000
_cell_angle_beta 90.000000
_cell_angle_gamma 90.000000
_cell_volume 3926.530640
_symmetry_space_group_name_H-M "I 41/A"
_symmetry_group_IT_number 88
_space_group.IT_coordinate_system_code '2'
_symmetry_cell_setting 'tetragonal'
loop_
_space_group_symop_operation_xyz
x,y,z
3/4-y,1/4+x,1/4+z
-x,1/2-y,z
1/4+y,1/4-x,1/4+z
-x,-y,-z
1/4+y,3/4-x,3/4-z
x,1/2+y,-z
3/4-y,3/4+x,3/4-z
1/2+x,1/2+y,1/2+z
1/4-y,3/4+x,3/4+z
1/2-x,-y,1/2+z
3/4+y,3/4-x,3/4+z
1/2-x,1/2-y,1/2-z
3/4+y,1/4-x,1/4-z
1/2+x,y,1/2-z
1/4-y,1/4+x,1/4-z
loop_
_atom_site_type_symbol
_atom_site_label
_atom_site_fract_x
_atom_site_fract_y
_atom_site_fract_z
Si Si1 0.577443 0.427245 0.065537
Si Si2 0.696664 0.284683 0.450244
Si Si3 0.811969 0.967217 0.310309
Si Si4 0.645000 0.765772 0.854000
Si Si5 0.899183 0.929223 0.626736
Si Si6 0.876836 0.391651 0.042669
O O1 0.625361 0.504062 0.115752
O O2 0.578368 0.339356 0.118570
O O3 0.475034 0.448539 0.058868
O O4 0.625768 0.408322 0.979438
O O5 0.775230 0.228551 0.415744
O O6 0.724109 0.327125 0.536567
O O7 0.667743 0.358886 0.387285
O O8 0.624948 0.211830 0.464698
O O9 0.716854 0.942231 0.345344
O O10 0.809201 0.041320 0.240701
O O11 0.606819 0.671334 0.855966
O O12 0.672812 0.790698 0.760547
#
# Coordination Sequence:
#
# PCOD8304419 Si02
#       6
#    16  16  16  16  16  16
#     4  11  23  49  69 101 145 188 246 319 373 434
#     4  12  25  44  71 111 145 203 249 301 376 456
#     4  11  26  45  72  99 148 191 244 316 373 437
#     4  11  24  43  71 106 148 195 241 308 374 441
#     4  12  26  43  77 104 143 197 258 296 376 450
#     4  11  25  46  71 107 160 189 244 314 375 447
#
# _framework density 24.449065000000001
#
# number of rings (size 3 to 8) (size 9 to 14) (size 15 to 20)
#    0.000    0.667    5.000    2.500    4.667    1.667 
#    0.000    0.000    0.000    0.000    0.000    0.000 
#    0.000    0.000    0.000    0.000    0.000    0.000 
#
# Total GULP energy -595046.702262 kJ/mol
# GULP energy per Si atom -12396.806297 kJ/mol
# Density = 2.439342 g / cm^3
# Si number density = 24.449065 Si / 1000 Ang^3
#
#
#
# Elastic Constant Matrix: (Units=GPa)
#
#
# Indices 1 2 3 4 5 6 
#
# 1 113.1569 61.0879 27.2311 0.0000 0.0000 -14.9616
# 2 61.0879 113.1568 27.2311 0.0000 0.0000 14.9616
# 3 27.2311 27.2311 75.4881 0.0000 0.0000 0.0000
# 4 0.0000 0.0000 0.0000 36.2222 0.0000 0.0000
# 5 0.0000 0.0000 0.0000 0.0000 36.2222 0.0000
# 6 -14.9616 14.9616 0.0000 0.0000 0.0000 40.1101
#
#
#
# Elastic Compliance Matrix: (Units=1/GPa)
#
#
# Indices 1 2 3 4 5 6 
#
# 1 0.015457 -0.008989 -0.002333 0.000000 0.000000 0.009119
# 2 -0.008989 0.015457 -0.002333 0.000000 0.000000 -0.009119
# 3 -0.002333 -0.002333 0.014931 0.000000 0.000000 0.000000
# 4 0.000000 0.000000 0.000000 0.027607 0.000000 0.000000
# 5 0.000000 0.000000 0.000000 0.000000 0.027607 0.000000
# 6 0.009119 -0.009119 0.000000 0.000000 0.000000 0.031734
#
#
# Mechanical properties :
#
#
# Convention : Reuss Voigt Hill
#
# Bulk Modulus (GPa) = 53.95526 59.21133 56.58329
# Shear Modulus (GPa) = 30.06942 34.92767 32.49854
#
# Velocity S-wave (km/s) = 3.51077 3.78377 3.64982
# Velocity P-wave (km/s) = 6.20889 6.58483 6.39962
#
# Compressibility (1/GPa) = 0.01853387
#
# Stress axis : x y z
#
# Youngs Moduli (GPa) = 64.69578 64.69578 66.97666
#
# Poissons Ratio (x) = 0.58152 0.15628
# Poissons Ratio (y) = 0.58152 0.15628
# Poissons Ratio (z) = 0.15096 0.15096
#
# Static dielectric constant tensor:
#      x y z
#    x 4.298380 0.000000 0.000000 
#    y 0.000000 4.298380 0.000000 
#    z 0.000000 0.000000 4.550030 
# 
# 
# High freq. dielectric constant tensor:
#      x y z
#    x 1.969530 0.000000 0.000000 
#    y 0.000000 1.969530 0.000000 
#    z 0.000000 0.000000 1.978170 
# 
# From -- ./inp_files/4726.got.cif
#   From: 2010.03.12/outbox.cif.g09.slc.cpg/sg88_3_cif.got.tgz:4726.got - 2010.04.08 20:20:55.
