data_PCOD8304144
_publ_section_title
;
Structure prediction by ZEFSAII (Michael W. Deem and Ramdas Pophale) SiO2 
 PCOD8304144
Probable space group: I 4/M
;
_chemical_formula_sum "Si O2"
_cell_formula_units_Z 96
_cell_length_a 23.651144
_cell_length_b 23.651144
_cell_length_c 8.615569
_cell_angle_alpha 90.000000
_cell_angle_beta 90.000000
_cell_angle_gamma 90.000000
_cell_volume 4819.347802
_symmetry_space_group_name_H-M "I 4/M"
_symmetry_group_IT_number 87
_symmetry_cell_setting 'tetragonal'
loop_
_space_group_symop_operation_xyz
x,y,z
-y,x,z
-x,-y,z
y,-x,z
-x,-y,-z
y,-x,-z
x,y,-z
-y,x,-z
1/2+x,1/2+y,1/2+z
1/2-y,1/2+x,1/2+z
1/2-x,1/2-y,1/2+z
1/2+y,1/2-x,1/2+z
1/2-x,1/2-y,1/2-z
1/2+y,1/2-x,1/2-z
1/2+x,1/2+y,1/2-z
1/2-y,1/2+x,1/2-z
loop_
_atom_site_type_symbol
_atom_site_label
_atom_site_fract_x
_atom_site_fract_y
_atom_site_fract_z
Si Si1 0.792163 0.960664 0.319241
Si Si2 0.727572 0.666230 0.816879
Si Si3 0.512008 0.916298 0.818432
Si Si4 0.459521 0.201225 0.318028
Si Si5 0.234211 0.664261 0.316800
Si Si6 0.590719 0.516809 0.677947
O O1 0.777029 0.967591 0.500000
O O2 0.778310 0.897731 0.258414
O O3 0.857820 0.973647 0.294196
O O4 0.756160 0.003627 0.216792
O O5 0.676362 0.703352 0.748793
O O6 0.787732 0.690602 0.757667
O O7 0.723113 0.669332 0.000000
O O8 0.450194 0.939587 0.773726
O O9 0.514368 0.850841 0.775556
O O10 0.521709 0.924936 0.000000
O O11 0.460269 0.187675 0.500000
O O12 0.396047 0.212262 0.256588
O O13 0.238872 0.663890 0.500000
O O14 0.544523 0.564783 0.711939
O O15 0.611318 0.520602 0.500000
#
# Coordination Sequence:
#
# PCOD8304144 Si02
#       6
#    16  16  16  16  16  16
#     4  11  24  38  58  89 123 158 195 247 305 361
#     4   9  20  39  60  85 116 153 194 241 299 356
#     4  11  23  42  66  93 124 162 204 251 304 362
#     4  11  24  40  61  91 122 159 205 251 300 358
#     4   9  20  39  62  85 114 155 197 243 296 349
#     4   9  20  40  63  85 114 155 200 248 302 362
#
# _framework density 19.919706999999999
#
# number of rings (size 3 to 8) (size 9 to 14) (size 15 to 20)
#    0.000    2.000    0.000    3.500    4.667    3.333 
#    0.000    0.833    0.000    0.000    0.000    0.000 
#    0.000    0.000    0.000    0.000    0.000    0.000 
#
# Total GULP energy -595434.792555 kJ/mol
# GULP energy per Si atom -12404.891512 kJ/mol
# Density = 1.987437 g / cm^3
# Si number density = 19.919707 Si / 1000 Ang^3
#
#
#
# Elastic Constant Matrix: (Units=GPa)
#
#
# Indices 1 2 3 4 5 6 
#
# 1 115.8128 43.0584 23.3965 0.0000 0.0000 2.6283
# 2 43.0584 115.8128 23.3965 0.0000 0.0000 -2.6283
# 3 23.3965 23.3965 50.6355 0.0000 0.0000 0.0000
# 4 0.0000 0.0000 0.0000 33.6311 0.0000 0.0000
# 5 0.0000 0.0000 0.0000 0.0000 33.6311 0.0000
# 6 2.6283 -2.6283 0.0000 0.0000 0.0000 23.9619
#
#
#
# Elastic Compliance Matrix: (Units=1/GPa)
#
#
# Indices 1 2 3 4 5 6 
#
# 1 0.010570 -0.003284 -0.003367 0.000000 0.000000 -0.001520
# 2 -0.003284 0.010570 -0.003367 0.000000 0.000000 0.001520
# 3 -0.003367 -0.003367 0.022860 0.000000 0.000000 0.000000
# 4 0.000000 0.000000 0.000000 0.029734 0.000000 0.000000
# 5 0.000000 0.000000 0.000000 0.000000 0.029734 0.000000
# 6 -0.001520 0.001520 0.000000 0.000000 0.000000 0.042066
#
#
# Mechanical properties :
#
#
# Convention : Reuss Voigt Hill
#
# Bulk Modulus (GPa) = 41.72602 51.32931 46.52767
# Shear Modulus (GPa) = 28.80862 31.07214 29.94038
#
# Velocity S-wave (km/s) = 3.80707 3.95380 3.88113
# Velocity P-wave (km/s) = 6.34961 6.83136 6.59489
#
# Compressibility (1/GPa) = 0.02396586
#
# Stress axis : x y z
#
# Youngs Moduli (GPa) = 94.60454 94.60454 43.74442
#
# Poissons Ratio (x) = 0.31071 0.14727
# Poissons Ratio (y) = 0.31071 0.14727
# Poissons Ratio (z) = 0.31849 0.31849
#
# Static dielectric constant tensor:
#      x y z
#    x 3.699550 0.000000 0.000000 
#    y 0.000000 3.699550 0.000000 
#    z 0.000000 0.000000 3.466270 
# 
# 
# High freq. dielectric constant tensor:
#      x y z
#    x 1.783040 0.000000 0.000000 
#    y 0.000000 1.783040 0.000000 
#    z 0.000000 0.000000 1.772550 
# 
# From -- ./inp_files/1430.got.cif
#   From: 2010.03.12/outbox.cif.g09.slc.cpg/sg87_1_cif.got.tgz:1430.got - 2010.04.08 20:16:13.
