data_PCOD8304016
_publ_section_title
;
Structure prediction by ZEFSAII (Michael W. Deem and Ramdas Pophale) SiO2 
 PCOD8304016
Probable space group: I 4/M
;
_chemical_formula_sum "Si O2"
_cell_formula_units_Z 120
_cell_length_a 27.024360
_cell_length_b 27.024360
_cell_length_c 7.948660
_cell_angle_alpha 90.000000
_cell_angle_beta 90.000000
_cell_angle_gamma 90.000000
_cell_volume 5805.033842
_symmetry_space_group_name_H-M "I 4/M"
_symmetry_group_IT_number 87
_symmetry_cell_setting 'tetragonal'
loop_
_space_group_symop_operation_xyz
x,y,z
-y,x,z
-x,-y,z
y,-x,z
-x,-y,-z
y,-x,-z
x,y,-z
-y,x,-z
1/2+x,1/2+y,1/2+z
1/2-y,1/2+x,1/2+z
1/2-x,1/2-y,1/2+z
1/2+y,1/2-x,1/2+z
1/2-x,1/2-y,1/2-z
1/2+y,1/2-x,1/2-z
1/2+x,1/2+y,1/2-z
1/2-y,1/2+x,1/2-z
loop_
_atom_site_type_symbol
_atom_site_label
_atom_site_fract_x
_atom_site_fract_y
_atom_site_fract_z
Si Si1 0.947897 0.368227 0.301594
Si Si2 0.649793 0.494212 0.805086
Si Si3 0.442138 0.128867 0.801083
Si Si4 0.811735 0.110808 0.693821
Si Si5 0.629146 0.211451 0.801134
Si Si6 0.420768 0.513133 0.500000
Si Si7 0.180997 0.103220 0.300532
Si Si8 0.362613 0.205983 0.801352
O O1 0.950680 0.363151 0.500000
O O2 0.924525 0.420948 0.251898
O O3 0.913947 0.324012 0.226421
O O4 0.002974 0.364678 0.224001
O O5 0.688329 0.448791 0.786261
O O6 0.607195 0.480232 0.675729
O O7 0.673198 0.546193 0.745241
O O8 0.630524 0.496843 0.000000
O O9 0.406350 0.171509 0.726043
O O10 0.444252 0.132634 0.000000
O O11 0.811784 0.125879 0.500000
O O12 0.860400 0.137961 0.772831
O O13 0.761101 0.131651 0.776898
O O14 0.621772 0.266459 0.726927
O O15 0.682884 0.190541 0.747388
O O16 0.625599 0.212997 0.000000
O O17 0.443338 0.459406 0.500000
O O18 0.181383 0.104559 0.500000
O O19 0.368193 0.208856 0.000000
#
# Coordination Sequence:
#
# PCOD8304016 Si02
#       8
#    16  16  16  16  16   8  16  16
#     4   9  18  31  48  69  95 131 171 212 261 316
#     4  10  21  39  63  88 118 156 197 245 299 353
#     4   9  18  31  48  69  95 131 171 212 261 316
#     4   9  18  33  56  83 109 142 184 229 276 335
#     4   9  18  33  52  75 107 141 179 223 274 332
#     4  11  24  40  60  88 124 160 196 246 299 354
#     4   9  18  33  56  83 109 142 184 229 276 335
#     4   9  18  33  52  75 107 141 179 223 274 332
#
# _framework density 20.671714000000001
#
# number of rings (size 3 to 8) (size 9 to 14) (size 15 to 20)
#    0.000    2.733    0.000    0.800    1.867    2.933 
#    2.400    2.000    0.000    0.000    0.000    0.000 
#    0.000    0.000    0.000    0.000    0.000    0.000 
#
# Total GULP energy -743613.627018 kJ/mol
# GULP energy per Si atom -12393.560450 kJ/mol
# Density = 2.062466 g / cm^3
# Si number density = 20.671714 Si / 1000 Ang^3
#
#
#
# Elastic Constant Matrix: (Units=GPa)
#
#
# Indices 1 2 3 4 5 6 
#
# 1 128.5025 45.3688 3.7670 0.0000 0.0000 0.9601
# 2 45.3688 128.5025 3.7670 0.0000 0.0000 -0.9601
# 3 3.7670 3.7670 33.3256 0.0000 0.0000 0.0000
# 4 0.0000 0.0000 0.0000 15.3898 0.0000 0.0000
# 5 0.0000 0.0000 0.0000 0.0000 15.3898 0.0000
# 6 0.9601 -0.9601 0.0000 0.0000 0.0000 36.2735
#
#
#
# Elastic Compliance Matrix: (Units=1/GPa)
#
#
# Indices 1 2 3 4 5 6 
#
# 1 0.008908 -0.003128 -0.000653 0.000000 0.000000 -0.000319
# 2 -0.003128 0.008908 -0.000653 0.000000 0.000000 0.000319
# 3 -0.000653 -0.000653 0.030155 0.000000 0.000000 0.000000
# 4 0.000000 0.000000 0.000000 0.064978 0.000000 0.000000
# 5 0.000000 0.000000 0.000000 0.000000 0.064978 0.000000
# 6 -0.000319 0.000319 0.000000 0.000000 0.000000 0.027585
#
#
# Mechanical properties :
#
#
# Convention : Reuss Voigt Hill
#
# Bulk Modulus (GPa) = 25.57492 44.01512 34.79502
# Shear Modulus (GPa) = 21.98619 29.23913 25.61266
#
# Velocity S-wave (km/s) = 3.26481 3.76500 3.52379
# Velocity P-wave (km/s) = 5.15856 6.34342 5.78142
#
# Compressibility (1/GPa) = 0.03910081
#
# Stress axis : x y z
#
# Youngs Moduli (GPa) = 112.25951 112.25951 33.16236
#
# Poissons Ratio (x) = 0.35117 0.02167
# Poissons Ratio (y) = 0.35117 0.02167
# Poissons Ratio (z) = 0.07334 0.07334
#
# Static dielectric constant tensor:
#      x y z
#    x 4.019250 0.000000 0.000000 
#    y 0.000000 4.019250 0.000000 
#    z 0.000000 0.000000 3.461930 
# 
# 
# High freq. dielectric constant tensor:
#      x y z
#    x 1.810800 0.000000 0.000000 
#    y 0.000000 1.810800 0.000000 
#    z 0.000000 0.000000 1.775410 
# 
# From -- ./inp_files/1721.got.cif
#   From: 2010.03.12/outbox.cif.g09.slc.cpg/sg87_1_cif.got.tgz:1721.got - 2010.04.08 20:16:13.
