data_PCOD8304967
_publ_section_title
;
Structure prediction by ZEFSAII (Michael W. Deem and Ramdas Pophale) SiO2 
 PCOD8304967
Probable space group: P 41 2 2
;
_chemical_formula_sum "Si O2"
_cell_formula_units_Z 48
_cell_length_a 8.885776
_cell_length_b 8.885776
_cell_length_c 30.549354
_cell_angle_alpha 90.000000
_cell_angle_beta 90.000000
_cell_angle_gamma 90.000000
_cell_volume 2412.085806
_symmetry_space_group_name_H-M "P 41 2 2"
_symmetry_group_IT_number 91
_symmetry_cell_setting 'tetragonal'
loop_
_space_group_symop_operation_xyz
x,y,z
-y,x,1/4+z
-x,-y,1/2+z
y,-x,3/4+z
x,-y,1/2-z
-x,y,-z
y,x,3/4-z
-y,-x,1/4-z
loop_
_atom_site_type_symbol
_atom_site_label
_atom_site_fract_x
_atom_site_fract_y
_atom_site_fract_z
Si Si1 0.176268 0.849610 0.919646
Si Si2 0.678586 0.832470 0.414028
Si Si3 0.159441 0.322000 0.667989
Si Si4 0.155079 0.823751 0.174213
Si Si5 0.677927 0.341165 0.001003
Si Si6 0.321336 0.321314 0.501481
O O1 0.207942 0.739365 0.879149
O O2 0.265698 0.790304 0.961231
O O3 0.001562 0.860195 0.931868
O O4 0.236347 0.012016 0.905858
O O5 0.718115 0.718115 0.375000
O O6 0.500656 0.857147 0.415090
O O7 0.737515 0.764097 0.459895
O O8 0.281451 0.267034 0.703814
O O9 0.002938 0.253838 0.684222
O O10 0.209387 0.790613 0.125000
O O11 0.278365 0.750715 0.205277
O O12 0.736273 0.509554 0.010201
O O13 0.500000 0.340824 0.000000
O O14 0.500000 0.309733 0.500000
#
# Coordination Sequence:
#
# PCOD8304967 Si02
#       6
#     8   8   8   8   8   8
#     4  11  23  39  59  86 120 154 192 237 289 346
#     4  11  21  38  61  86 117 154 195 239 292 349
#     4  10  21  39  61  85 116 155 196 239 292 350
#     4  10  22  40  58  84 118 152 191 238 289 348
#     4   9  21  38  58  85 115 148 191 241 288 341
#     4  11  22  38  60  86 115 151 194 240 290 340
#
# _framework density 19.899788999999998
#
# number of rings (size 3 to 8) (size 9 to 14) (size 15 to 20)
#    0.000    1.667    0.000    5.000    0.000    5.333 
#    0.000    9.167    0.000    0.000    0.000    0.000 
#    0.000    0.000    0.000    0.000    0.000    0.000 
#
# Total GULP energy -595386.775578 kJ/mol
# GULP energy per Si atom -12403.891158 kJ/mol
# Density = 1.985450 g / cm^3
# Si number density = 19.899789 Si / 1000 Ang^3
#
#
#
# Elastic Constant Matrix: (Units=GPa)
#
#
# Indices 1 2 3 4 5 6 
#
# 1 100.0370 44.2678 47.1368 0.0000 0.0000 0.0000
# 2 44.2678 100.0373 47.1370 0.0000 0.0000 0.0000
# 3 47.1368 47.1370 117.4478 0.0000 0.0000 0.0000
# 4 0.0000 0.0000 0.0000 35.4350 0.0000 0.0000
# 5 0.0000 0.0000 0.0000 0.0000 35.4350 0.0000
# 6 0.0000 0.0000 0.0000 0.0000 0.0000 29.3519
#
#
#
# Elastic Compliance Matrix: (Units=1/GPa)
#
#
# Indices 1 2 3 4 5 6 
#
# 1 0.013662 -0.004269 -0.003770 0.000000 0.000000 0.000000
# 2 -0.004269 0.013662 -0.003770 0.000000 0.000000 0.000000
# 3 -0.003770 -0.003770 0.011540 0.000000 0.000000 0.000000
# 4 0.000000 0.000000 0.000000 0.028221 0.000000 0.000000
# 5 0.000000 0.000000 0.000000 0.000000 0.028221 0.000000
# 6 0.000000 0.000000 0.000000 0.000000 0.000000 0.034069
#
#
# Mechanical properties :
#
#
# Convention : Reuss Voigt Hill
#
# Bulk Modulus (GPa) = 65.58789 66.06726 65.82757
# Shear Modulus (GPa) = 31.63084 31.97641 31.80362
#
# Velocity S-wave (km/s) = 3.99119 4.01293 4.00207
# Velocity P-wave (km/s) = 7.36682 7.39889 7.38287
#
# Compressibility (1/GPa) = 0.01524672
#
# Stress axis : x y z
#
# Youngs Moduli (GPa) = 73.19719 73.19737 86.65344
#
# Poissons Ratio (x) = 0.31250 0.32665
# Poissons Ratio (y) = 0.31250 0.32665
# Poissons Ratio (z) = 0.27592 0.27592
#
# Static dielectric constant tensor:
#      x y z
#    x 3.656310 0.000000 0.000000 
#    y 0.000000 3.656310 0.000000 
#    z 0.000000 0.000000 3.789470 
# 
# 
# High freq. dielectric constant tensor:
#      x y z
#    x 1.779110 0.000000 0.000000 
#    y 0.000000 1.779110 0.000000 
#    z 0.000000 0.000000 1.791820 
# 
# From -- ./inp_files/7979.got.cif
#   From: 2010.03.12/outbox.cif.g09.slc.cpg/sg91_4_cif.got.tgz:7979.got - 2010.04.08 20:27:58.
