data_PCOD8304821
_publ_section_title
;
Structure prediction by ZEFSAII (Michael W. Deem and Ramdas Pophale) SiO2 
 PCOD8304821
Probable space group: P 41 2 2
;
_chemical_formula_sum "Si O2"
_cell_formula_units_Z 56
_cell_length_a 11.431611
_cell_length_b 11.431611
_cell_length_c 22.471146
_cell_angle_alpha 90.000000
_cell_angle_beta 90.000000
_cell_angle_gamma 90.000000
_cell_volume 2936.568236
_symmetry_space_group_name_H-M "P 41 2 2"
_symmetry_group_IT_number 91
_symmetry_cell_setting 'tetragonal'
loop_
_space_group_symop_operation_xyz
x,y,z
-y,x,1/4+z
-x,-y,1/2+z
y,-x,3/4+z
x,-y,1/2-z
-x,y,-z
y,x,3/4-z
-y,-x,1/4-z
loop_
_atom_site_type_symbol
_atom_site_label
_atom_site_fract_x
_atom_site_fract_y
_atom_site_fract_z
Si Si1 0.194485 0.134899 0.736826
Si Si2 0.980506 0.470386 0.153290
Si Si3 0.314843 0.998871 0.018452
Si Si4 0.242019 0.632551 0.257469
Si Si5 0.624062 0.211116 0.359263
Si Si6 0.371605 0.770114 0.670139
Si Si7 0.498748 0.632143 0.767018
O O1 0.068375 0.194062 0.728061
O O2 0.267268 0.158021 0.676951
O O3 0.258418 0.188900 0.793685
O O4 0.172900 0.000000 0.750000
O O5 0.978843 0.374296 0.204895
O O6 0.958563 0.600394 0.178438
O O7 0.876789 0.439434 0.109065
O O8 0.104201 0.467146 0.118078
O O9 0.287375 0.859145 0.022366
O O10 0.192748 0.500000 0.250000
O O11 0.260181 0.665307 0.326841
O O12 0.362562 0.643059 0.221549
O O13 0.565936 0.322301 0.326171
O O14 0.329073 0.670927 0.625000
O O15 0.467501 0.714861 0.712748
O O16 0.461473 0.500000 0.750000
#
# Coordination Sequence:
#
# PCOD8304821 Si02
#       7
#     8   8   8   8   8   8   8
#     4  11  22  36  59  89 120 152 195 250 308 349
#     4  10  19  38  62  84 112 158 208 239 292 359
#     4  10  20  37  61  87 109 157 211 240 286 360
#     4  10  20  40  60  83 115 163 200 236 300 365
#     4  10  21  39  60  85 121 156 194 248 299 364
#     4  11  22  35  59  86 119 156 191 251 305 354
#     4  10  25  36  56  91 124 155 194 245 308 362
#
# _framework density 19.069880000000001
#
# number of rings (size 3 to 8) (size 9 to 14) (size 15 to 20)
#    0.000    1.714    5.714    0.000    4.000    2.857 
#    0.000    0.000    3.143    3.429    0.000    0.000 
#    0.000    0.000    0.000    0.000    0.000    0.000 
#
# Total GULP energy -694377.387236 kJ/mol
# GULP energy per Si atom -12399.596201 kJ/mol
# Density = 1.902648 g / cm^3
# Si number density = 19.069880 Si / 1000 Ang^3
#
#
#
# Elastic Constant Matrix: (Units=GPa)
#
#
# Indices 1 2 3 4 5 6 
#
# 1 98.0268 46.0959 17.3672 0.0000 0.0000 0.0000
# 2 46.0959 98.0273 17.3674 0.0000 0.0000 0.0000
# 3 17.3672 17.3674 63.9806 0.0000 0.0000 0.0000
# 4 0.0000 0.0000 0.0000 17.1248 0.0000 0.0000
# 5 0.0000 0.0000 0.0000 0.0000 17.1230 0.0000
# 6 0.0000 0.0000 0.0000 0.0000 0.0000 29.9556
#
#
#
# Elastic Compliance Matrix: (Units=1/GPa)
#
#
# Indices 1 2 3 4 5 6 
#
# 1 0.013340 -0.005916 -0.002015 0.000000 0.000000 0.000000
# 2 -0.005916 0.013340 -0.002015 0.000000 0.000000 0.000000
# 3 -0.002015 -0.002015 0.016724 0.000000 0.000000 0.000000
# 4 0.000000 0.000000 0.000000 0.058395 0.000000 0.000000
# 5 0.000000 0.000000 0.000000 0.000000 0.058401 0.000000
# 6 0.000000 0.000000 0.000000 0.000000 0.000000 0.033383
#
#
# Mechanical properties :
#
#
# Convention : Reuss Voigt Hill
#
# Bulk Modulus (GPa) = 42.53302 46.85507 44.69405
# Shear Modulus (GPa) = 22.59245 24.78764 23.69004
#
# Velocity S-wave (km/s) = 3.44571 3.60923 3.52842
# Velocity P-wave (km/s) = 6.17922 6.48014 6.33147
#
# Compressibility (1/GPa) = 0.02351114
#
# Stress axis : x y z
#
# Youngs Moduli (GPa) = 74.96100 74.96134 59.79498
#
# Poissons Ratio (x) = 0.44347 0.12050
# Poissons Ratio (y) = 0.44347 0.12050
# Poissons Ratio (z) = 0.15107 0.15107
#
# Static dielectric constant tensor:
#      x y z
#    x 3.469790 0.000000 0.000000 
#    y 0.000000 3.469790 0.000000 
#    z 0.000000 0.000000 3.595190 
# 
# 
# High freq. dielectric constant tensor:
#      x y z
#    x 1.732870 0.000000 0.000000 
#    y 0.000000 1.732870 0.000000 
#    z 0.000000 0.000000 1.744620 
# 
# From -- ./inp_files/21818.got.cif
#   From: 2010.03.12/outbox.cif.g09.slc.cpg/sg91_11_cif.got.tgz:21818.got - 2010.04.08 20:27:58.
