data_PCOD8304533
_publ_section_title
;
Structure prediction by ZEFSAII (Michael W. Deem and Ramdas Pophale) SiO2 
 PCOD8304533
Probable space group: P 4 21 2
;
_chemical_formula_sum "Si O2"
_cell_formula_units_Z 60
_cell_length_a 15.063826
_cell_length_b 15.063826
_cell_length_c 14.541261
_cell_angle_alpha 90.000000
_cell_angle_beta 90.000000
_cell_angle_gamma 90.000000
_cell_volume 3299.686278
_symmetry_space_group_name_H-M "P 4 21 2"
_symmetry_group_IT_number 90
_symmetry_cell_setting 'tetragonal'
loop_
_space_group_symop_operation_xyz
x,y,z
1/2-y,1/2+x,z
-x,-y,z
1/2+y,1/2-x,z
1/2+x,1/2-y,-z
1/2-x,1/2+y,-z
y,x,-z
-y,-x,-z
loop_
_atom_site_type_symbol
_atom_site_label
_atom_site_fract_x
_atom_site_fract_y
_atom_site_fract_z
Si Si1 0.767080 0.176755 0.292807
Si Si2 0.621886 0.083709 0.399699
Si Si3 0.930932 0.895092 0.101718
Si Si4 0.686562 0.686562 0.000000
Si Si5 0.801955 0.309763 0.441763
Si Si6 0.072790 0.372416 0.293643
Si Si7 0.123370 0.923968 0.155585
Si Si8 0.325323 0.775584 0.854384
O O1 0.676163 0.123819 0.314002
O O2 0.813908 0.219265 0.382848
O O3 0.838266 0.108661 0.252169
O O4 0.743282 0.253383 0.220045
O O5 0.522521 0.122359 0.396918
O O6 0.672051 0.114644 0.492090
O O7 0.873949 0.807766 0.103004
O O8 0.029133 0.875471 0.138973
O O9 0.885165 0.970400 0.164546
O O10 0.936082 0.936082 0.000000
O O11 0.603156 0.686828 0.070010
O O12 0.776997 0.677278 0.059565
O O13 0.709354 0.290647 0.500000
O O14 0.801138 0.392159 0.369857
O O15 0.120110 0.467755 0.306489
O O16 0.101170 0.339474 0.192196
#
# Coordination Sequence:
#
# PCOD8304533 Si02
#       8
#     8   8   8   4   8   8   8   8
#     4   9  21  36  54  77 112 141 179 224 284 319
#     4  10  20  35  58  82 109 142 179 222 272 335
#     4  11  20  35  56  84 105 144 198 231 270 321
#     4  10  18  35  50  77 108 140 182 220 282 322
#     4   9  18  35  54  79 106 139 179 218 270 326
#     4  10  21  35  55  84 115 146 182 227 280 333
#     4  10  20  35  57  77 109 147 183 236 274 315
#     4  10  22  33  53  81 109 145 185 227 278 325
#
# _framework density 18.183546
#
# number of rings (size 3 to 8) (size 9 to 14) (size 15 to 20)
#    0.000    2.133    2.000    1.200    7.467    1.067 
#    0.000    0.000    0.000    0.000    0.000   20.533 
#    0.000    0.000    0.000    0.000    0.000    0.000 
#
# Total GULP energy -743577.492072 kJ/mol
# GULP energy per Si atom -12392.958201 kJ/mol
# Density = 1.814216 g / cm^3
# Si number density = 18.183546 Si / 1000 Ang^3
#
#
#
# Elastic Constant Matrix: (Units=GPa)
#
#
# Indices 1 2 3 4 5 6 
#
# 1 84.8224 50.3954 33.6018 0.0000 0.0000 0.0000
# 2 50.3954 84.8221 33.6016 0.0000 0.0000 0.0000
# 3 33.6018 33.6016 74.4213 0.0000 0.0000 0.0000
# 4 0.0000 0.0000 0.0000 26.5814 0.0000 0.0000
# 5 0.0000 0.0000 0.0000 0.0000 26.5815 0.0000
# 6 0.0000 0.0000 0.0000 0.0000 0.0000 33.3576
#
#
#
# Elastic Compliance Matrix: (Units=1/GPa)
#
#
# Indices 1 2 3 4 5 6 
#
# 1 0.019291 -0.009756 -0.004305 0.000000 0.000000 0.000000
# 2 -0.009756 0.019291 -0.004305 0.000000 0.000000 0.000000
# 3 -0.004305 -0.004305 0.017325 0.000000 0.000000 0.000000
# 4 0.000000 0.000000 0.000000 0.037620 0.000000 0.000000
# 5 0.000000 0.000000 0.000000 0.000000 0.037620 0.000000
# 6 0.000000 0.000000 0.000000 0.000000 0.000000 0.029978
#
#
# Mechanical properties :
#
#
# Convention : Reuss Voigt Hill
#
# Bulk Modulus (GPa) = 52.15329 53.25146 52.70238
# Shear Modulus (GPa) = 24.47986 25.73524 25.10755
#
# Velocity S-wave (km/s) = 3.67313 3.76613 3.71992
# Velocity P-wave (km/s) = 6.83615 6.94700 6.89180
#
# Compressibility (1/GPa) = 0.01917424
#
# Stress axis : x y z
#
# Youngs Moduli (GPa) = 51.83737 51.83722 57.72119
#
# Poissons Ratio (x) = 0.50572 0.24850
# Poissons Ratio (y) = 0.50572 0.24850
# Poissons Ratio (z) = 0.22317 0.22317
#
# Static dielectric constant tensor:
#      x y z
#    x 3.321130 0.000000 0.000000 
#    y 0.000000 3.321130 0.000000 
#    z 0.000000 0.000000 3.526410 
# 
# 
# High freq. dielectric constant tensor:
#      x y z
#    x 1.695340 0.000000 0.000000 
#    y 0.000000 1.695340 0.000000 
#    z 0.000000 0.000000 1.709460 
# 
# From -- ./inp_files/2581.got.cif
#   From: 2010.03.12/outbox.cif.g09.slc.cpg/sg90_2_cif.got.tgz:2581.got - 2010.04.08 20:26:03.
