data_PCOD8304268
_publ_section_title
;
Structure prediction by ZEFSAII (Michael W. Deem and Ramdas Pophale) SiO2 
 PCOD8304268
Probable space group: I 41/A
;
_chemical_formula_sum "Si O2"
_cell_formula_units_Z 116
_cell_length_a 17.390402
_cell_length_b 17.390402
_cell_length_c 18.649801
_cell_angle_alpha 90.000000
_cell_angle_beta 90.000000
_cell_angle_gamma 90.000000
_cell_volume 5640.186241
_symmetry_space_group_name_H-M "I 41/A"
_symmetry_group_IT_number 88
_space_group.IT_coordinate_system_code '2'
_symmetry_cell_setting 'tetragonal'
loop_
_space_group_symop_operation_xyz
x,y,z
3/4-y,1/4+x,1/4+z
-x,1/2-y,z
1/4+y,1/4-x,1/4+z
-x,-y,-z
1/4+y,3/4-x,3/4-z
x,1/2+y,-z
3/4-y,3/4+x,3/4-z
1/2+x,1/2+y,1/2+z
1/4-y,3/4+x,3/4+z
1/2-x,-y,1/2+z
3/4+y,3/4-x,3/4+z
1/2-x,1/2-y,1/2-z
3/4+y,1/4-x,1/4-z
1/2+x,y,1/2-z
1/4-y,1/4+x,1/4-z
loop_
_atom_site_type_symbol
_atom_site_label
_atom_site_fract_x
_atom_site_fract_y
_atom_site_fract_z
Si Si1 0.000000 0.250000 0.625000
Si Si2 0.329600 0.133364 0.618625
Si Si3 0.608602 0.079198 0.970694
Si Si4 0.249469 0.781227 0.406656
Si Si5 0.999961 0.162330 0.901384
Si Si6 0.256959 0.482717 0.431410
Si Si7 0.329995 0.602459 0.814609
Si Si8 0.386846 0.242531 0.987056
O O1 0.953209 0.304807 0.680312
O O2 0.324766 0.169660 0.697826
O O3 0.278846 0.195130 0.576194
O O4 0.415464 0.128682 0.587345
O O5 0.299739 0.046814 0.615834
O O6 0.623671 0.169658 0.958502
O O7 0.542378 0.048180 0.917504
O O8 0.684240 0.025862 0.965406
O O9 0.319262 0.839334 0.408662
O O10 0.194156 0.800437 0.474439
O O11 0.057081 0.102465 0.942467
O O12 0.000000 0.250000 0.931228
O O13 0.021421 0.165050 0.817126
O O14 0.232766 0.414478 0.376744
O O15 0.315463 0.448437 0.490241
#
# Coordination Sequence:
#
# PCOD8304268 Si02
#       8
#     4  16  16  16  16  16  16  16
#     4  12  20  32  52  88 140 172 208 230 288 384
#     4  11  22  39  62  86 119 166 208 252 313 371
#     4  10  21  35  55  87 125 161 204 240 300 366
#     4  11  21  35  58  87 127 166 202 249 301 373
#     4  11  23  41  60  87 124 164 211 261 316 374
#     4  11  22  41  64  89 122 160 206 261 312 373
#     4  11  24  42  62  92 122 161 211 266 317 376
#     4  11  21  34  55  88 126 173 201 243 294 374
#
# _framework density 20.566696
#
# number of rings (size 3 to 8) (size 9 to 14) (size 15 to 20)
#    0.000    1.103    6.207    1.241    0.000    0.552 
#    4.966    0.000    0.000    0.000    0.000    0.000 
#    0.000    0.000    0.000    0.000    0.000    0.000 
#
# Total GULP energy -718653.745256 kJ/mol
# GULP energy per Si atom -12390.581815 kJ/mol
# Density = 2.051988 g / cm^3
# Si number density = 20.566696 Si / 1000 Ang^3
#
#
#
# Elastic Constant Matrix: (Units=GPa)
#
#
# Indices 1 2 3 4 5 6 
#
# 1 88.3469 32.1175 17.4407 0.0000 0.0000 -2.1265
# 2 32.1175 88.3469 17.4407 0.0000 0.0000 2.1265
# 3 17.4407 17.4407 61.3223 0.0000 0.0000 0.0000
# 4 0.0000 0.0000 0.0000 25.9877 0.0000 0.0000
# 5 0.0000 0.0000 0.0000 0.0000 25.9877 0.0000
# 6 -2.1265 2.1265 0.0000 0.0000 0.0000 35.9475
#
#
#
# Elastic Compliance Matrix: (Units=1/GPa)
#
#
# Indices 1 2 3 4 5 6 
#
# 1 0.013455 -0.004409 -0.002573 0.000000 0.000000 0.001057
# 2 -0.004409 0.013455 -0.002573 0.000000 0.000000 -0.001057
# 3 -0.002573 -0.002573 0.017771 0.000000 0.000000 0.000000
# 4 0.000000 0.000000 0.000000 0.038480 0.000000 0.000000
# 5 0.000000 0.000000 0.000000 0.000000 0.038480 0.000000
# 6 0.001057 -0.001057 0.000000 0.000000 0.000000 0.027943
#
#
# Mechanical properties :
#
#
# Convention : Reuss Voigt Hill
#
# Bulk Modulus (GPa) = 39.10556 41.33488 40.22022
# Shear Modulus (GPa) = 28.21394 28.98572 28.59983
#
# Velocity S-wave (km/s) = 3.70784 3.75821 3.73311
# Velocity P-wave (km/s) = 6.11441 6.24290 6.17899
#
# Compressibility (1/GPa) = 0.02557181
#
# Stress axis : x y z
#
# Youngs Moduli (GPa) = 74.32070 74.32071 56.27225
#
# Poissons Ratio (x) = 0.32768 0.14478
# Poissons Ratio (y) = 0.32768 0.14478
# Poissons Ratio (z) = 0.19121 0.19121
#
# Static dielectric constant tensor:
#      x y z
#    x 3.735440 0.000000 0.000000 
#    y 0.000000 3.735440 0.000000 
#    z 0.000000 0.000000 3.392340 
# 
# 
# High freq. dielectric constant tensor:
#      x y z
#    x 1.804460 0.000000 0.000000 
#    y 0.000000 1.804460 0.000000 
#    z 0.000000 0.000000 1.774640 
# 
# From -- ./inp_files/4030.got.cif
#   From: 2010.03.12/outbox.cif.g09.slc.cpg/sg88_3_cif.got.tgz:4030.got - 2010.04.08 20:20:55.
