data_PCOD8304738
_publ_section_title
;
Structure prediction by ZEFSAII (Michael W. Deem and Ramdas Pophale) SiO2 
 PCOD8304738
Probable space group: P 41 2 2
;
_chemical_formula_sum "Si O2"
_cell_formula_units_Z 64
_cell_length_a 14.230171
_cell_length_b 14.230171
_cell_length_c 17.905828
_cell_angle_alpha 90.000000
_cell_angle_beta 90.000000
_cell_angle_gamma 90.000000
_cell_volume 3625.890181
_symmetry_space_group_name_H-M "P 41 2 2"
_symmetry_group_IT_number 91
_symmetry_cell_setting 'tetragonal'
loop_
_space_group_symop_operation_xyz
x,y,z
-y,x,1/4+z
-x,-y,1/2+z
y,-x,3/4+z
x,-y,1/2-z
-x,y,-z
y,x,3/4-z
-y,-x,1/4-z
loop_
_atom_site_type_symbol
_atom_site_label
_atom_site_fract_x
_atom_site_fract_y
_atom_site_fract_z
Si Si1 0.856968 0.241044 0.327707
Si Si2 0.005278 0.613265 0.168259
Si Si3 0.208126 0.673658 0.175813
Si Si4 0.029664 0.094114 0.086708
Si Si5 0.661550 0.773921 0.099274
Si Si6 0.646700 0.488183 0.665576
Si Si7 0.892502 0.756760 0.345040
Si Si8 0.593866 0.017816 0.404587
O O1 0.889391 0.138227 0.351671
O O2 0.748923 0.255201 0.349231
O O3 0.875262 0.255218 0.241338
O O4 0.921635 0.321944 0.364746
O O5 0.103014 0.660658 0.147394
O O6 0.996357 0.511911 0.128323
O O7 0.008403 0.600807 0.256923
O O8 0.240921 0.759080 0.125000
O O9 0.220439 0.695559 0.263494
O O10 0.265637 0.580513 0.156625
O O11 0.971890 0.166865 0.137472
O O12 0.006467 0.993534 0.125000
O O13 0.000000 0.102500 0.000000
O O14 0.587022 0.689332 0.114024
O O15 0.622686 0.877120 0.122239
O O16 0.613614 0.500000 0.750000
O O17 0.553566 0.446434 0.625000
O O18 0.790541 0.790541 0.375000
O O19 0.935355 0.660514 0.380275
#
# Coordination Sequence:
#
# PCOD8304738 Si02
#       8
#     8   8   8   8   8   8   8   8
#     4  11  21  33  53  82 111 145 182 232 275 333
#     4   9  18  31  50  78 106 137 177 215 272 324
#     4   9  17  31  55  81 107 136 177 225 274 334
#     4  11  20  33  52  80 113 145 191 234 271 333
#     4  10  18  31  56  82 104 139 185 223 270 329
#     4   9  17  32  59  85 104 138 185 235 278 339
#     4  10  19  33  57  79 105 140 192 233 272 324
#     4   9  16  31  55  75 100 138 182 222 258 324
#
# _framework density 17.650838
#
# number of rings (size 3 to 8) (size 9 to 14) (size 15 to 20)
#    0.000    2.250    5.000    0.000    0.000    0.500 
#    0.000    0.625   13.750    1.500    0.000    0.000 
#    0.000    0.000    0.000    0.000    0.000    0.000 
#
# Total GULP energy -792902.262192 kJ/mol
# GULP energy per Si atom -12389.097847 kJ/mol
# Density = 1.761066 g / cm^3
# Si number density = 17.650838 Si / 1000 Ang^3
#
#
#
# Elastic Constant Matrix: (Units=GPa)
#
#
# Indices 1 2 3 4 5 6 
#
# 1 133.7088 79.6756 37.9867 0.0000 0.0000 0.0000
# 2 79.6756 133.7093 37.9856 0.0000 0.0000 0.0000
# 3 37.9867 37.9856 39.4301 0.0000 0.0000 0.0000
# 4 0.0000 0.0000 0.0000 27.7980 0.0000 0.0000
# 5 0.0000 0.0000 0.0000 0.0000 27.7865 0.0000
# 6 0.0000 0.0000 0.0000 0.0000 0.0000 25.3641
#
#
#
# Elastic Compliance Matrix: (Units=1/GPa)
#
#
# Indices 1 2 3 4 5 6 
#
# 1 0.012820 -0.005687 -0.006872 0.000000 0.000000 0.000000
# 2 -0.005687 0.012820 -0.006871 0.000000 0.000000 0.000000
# 3 -0.006872 -0.006871 0.038601 0.000000 0.000000 0.000000
# 4 0.000000 0.000000 0.000000 0.035974 0.000000 0.000000
# 5 0.000000 0.000000 0.000000 0.000000 0.035989 0.000000
# 6 0.000000 0.000000 0.000000 0.000000 0.000000 0.039426
#
#
# Mechanical properties :
#
#
# Convention : Reuss Voigt Hill
#
# Bulk Modulus (GPa) = 39.40040 68.68267 54.04153
# Shear Modulus (GPa) = 22.42646 26.26975 24.34811
#
# Velocity S-wave (km/s) = 3.56836 3.86204 3.71810
# Velocity P-wave (km/s) = 6.27281 7.67355 7.00827
#
# Compressibility (1/GPa) = 0.02538045
#
# Stress axis : x y z
#
# Youngs Moduli (GPa) = 78.00208 78.00427 25.90574
#
# Poissons Ratio (x) = 0.44361 0.17803
# Poissons Ratio (y) = 0.44360 0.17801
# Poissons Ratio (z) = 0.53604 0.53599
#
# Static dielectric constant tensor:
#      x y z
#    x 3.399290 0.000000 0.000000 
#    y 0.000000 3.399880 0.000000 
#    z 0.000000 0.000000 3.050110 
# 
# 
# High freq. dielectric constant tensor:
#      x y z
#    x 1.681910 0.000000 0.000000 
#    y 0.000000 1.681910 0.000000 
#    z 0.000000 0.000000 1.651170 
# 
# From -- ./inp_files/5744.got.cif
#   From: 2010.03.12/outbox.cif.g09.slc.cpg/sg91_3_cif.got.tgz:5744.got - 2010.04.08 20:27:58.
