data_PCOD8304376
_publ_section_title
;
Structure prediction by ZEFSAII (Michael W. Deem and Ramdas Pophale) SiO2 
 PCOD8304376
Probable space group: I 41/A
;
_chemical_formula_sum "Si O2"
_cell_formula_units_Z 68
_cell_length_a 15.626753
_cell_length_b 15.626753
_cell_length_c 13.542229
_cell_angle_alpha 90.000000
_cell_angle_beta 90.000000
_cell_angle_gamma 90.000000
_cell_volume 3306.950154
_symmetry_space_group_name_H-M "I 41/A"
_symmetry_group_IT_number 88
_space_group.IT_coordinate_system_code '2'
_symmetry_cell_setting 'tetragonal'
loop_
_space_group_symop_operation_xyz
x,y,z
3/4-y,1/4+x,1/4+z
-x,1/2-y,z
1/4+y,1/4-x,1/4+z
-x,-y,-z
1/4+y,3/4-x,3/4-z
x,1/2+y,-z
3/4-y,3/4+x,3/4-z
1/2+x,1/2+y,1/2+z
1/4-y,3/4+x,3/4+z
1/2-x,-y,1/2+z
3/4+y,3/4-x,3/4+z
1/2-x,1/2-y,1/2-z
3/4+y,1/4-x,1/4-z
1/2+x,y,1/2-z
1/4-y,1/4+x,1/4-z
loop_
_atom_site_type_symbol
_atom_site_label
_atom_site_fract_x
_atom_site_fract_y
_atom_site_fract_z
Si Si1 0.451793 0.045819 0.589145
Si Si2 0.000000 0.250000 0.625000
Si Si3 0.786894 0.582544 0.985768
Si Si4 0.663506 0.496814 0.125679
Si Si5 0.085384 0.621723 0.232885
O O1 0.412535 0.974701 0.662872
O O2 0.500000 0.000000 0.500000
O O3 0.372437 0.101916 0.548237
O O4 0.513373 0.109117 0.649537
O O5 0.949520 0.185050 0.555082
O O6 0.801352 0.493351 0.927483
O O7 0.702766 0.571417 0.055239
O O8 0.596809 0.535260 0.203492
O O9 0.608472 0.427101 0.066190
#
# Coordination Sequence:
#
# PCOD8304376 Si02
#       5
#    16   4  16  16  16
#     4  11  21  35  61  89 120 152 195 247 295 353
#     4  12  28  40  52  88 126 156 192 244 304 344
#     4   9  19  37  59  91 114 150 199 241 294 345
#     4   9  19  39  65  81 110 158 205 238 275 355
#     4  11  23  39  60  86 119 155 196 244 293 353
#
# _framework density 20.562754000000002
#
# number of rings (size 3 to 8) (size 9 to 14) (size 15 to 20)
#    0.000    1.882    2.353    1.412    0.000    2.824 
#    0.000    0.000    0.000    0.000    0.000    0.000 
#    0.000    0.000    0.000    0.000    0.000    0.000 
#
# Total GULP energy -421601.912259 kJ/mol
# GULP energy per Si atom -12400.056243 kJ/mol
# Density = 2.051595 g / cm^3
# Si number density = 20.562754 Si / 1000 Ang^3
#
#
#
# Elastic Constant Matrix: (Units=GPa)
#
#
# Indices 1 2 3 4 5 6 
#
# 1 55.4267 27.0020 32.1089 0.0000 0.0000 -2.4369
# 2 27.0020 55.4267 32.1089 0.0000 0.0000 2.4369
# 3 32.1089 32.1089 114.3850 0.0000 0.0000 0.0000
# 4 0.0000 0.0000 0.0000 49.2430 0.0000 0.0000
# 5 0.0000 0.0000 0.0000 0.0000 49.2430 0.0000
# 6 -2.4369 2.4369 0.0000 0.0000 0.0000 16.2418
#
#
#
# Elastic Compliance Matrix: (Units=1/GPa)
#
#
# Indices 1 2 3 4 5 6 
#
# 1 0.025819 -0.010291 -0.004359 0.000000 0.000000 0.005418
# 2 -0.010291 0.025819 -0.004359 0.000000 0.000000 -0.005418
# 3 -0.004359 -0.004359 0.011189 0.000000 0.000000 0.000000
# 4 0.000000 0.000000 0.000000 0.020307 0.000000 0.000000
# 5 0.000000 0.000000 0.000000 0.000000 0.020307 0.000000
# 6 0.005418 -0.005418 0.000000 0.000000 0.000000 0.063195
#
#
# Mechanical properties :
#
#
# Convention : Reuss Voigt Hill
#
# Bulk Modulus (GPa) = 40.30706 45.29755 42.80230
# Shear Modulus (GPa) = 23.48260 31.88013 27.68137
#
# Velocity S-wave (km/s) = 3.38301 3.94176 3.67303
# Velocity P-wave (km/s) = 5.90798 6.54167 6.23288
#
# Compressibility (1/GPa) = 0.02480955
#
# Stress axis : x y z
#
# Youngs Moduli (GPa) = 38.73185 38.73185 89.36994
#
# Poissons Ratio (x) = 0.39859 0.38954
# Poissons Ratio (y) = 0.39859 0.38954
# Poissons Ratio (z) = 0.16882 0.16882
#
# Static dielectric constant tensor:
#      x y z
#    x 3.467130 0.000000 0.000000 
#    y 0.000000 3.467130 0.000000 
#    z 0.000000 0.000000 4.169850 
# 
# 
# High freq. dielectric constant tensor:
#      x y z
#    x 1.781010 0.000000 0.000000 
#    y 0.000000 1.781010 0.000000 
#    z 0.000000 0.000000 1.833030 
# 
# From -- ./inp_files/3110.got.cif
#   From: 2010.03.12/outbox.cif.g09.slc.cpg/sg88_2_cif.got.tgz:3110.got - 2010.04.08 20:20:55.
