data_PCOD8304805
_publ_section_title
;
Structure prediction by ZEFSAII (Michael W. Deem and Ramdas Pophale) SiO2 
 PCOD8304805
Probable space group: P 41 2 2
;
_chemical_formula_sum "Si O2"
_cell_formula_units_Z 60
_cell_length_a 14.690383
_cell_length_b 14.690383
_cell_length_c 15.138066
_cell_angle_alpha 90.000000
_cell_angle_beta 90.000000
_cell_angle_gamma 90.000000
_cell_volume 3266.905948
_symmetry_space_group_name_H-M "P 41 2 2"
_symmetry_group_IT_number 91
_symmetry_cell_setting 'tetragonal'
loop_
_space_group_symop_operation_xyz
x,y,z
-y,x,1/4+z
-x,-y,1/2+z
y,-x,3/4+z
x,-y,1/2-z
-x,y,-z
y,x,3/4-z
-y,-x,1/4-z
loop_
_atom_site_type_symbol
_atom_site_label
_atom_site_fract_x
_atom_site_fract_y
_atom_site_fract_z
Si Si1 0.094970 0.153432 0.037965
Si Si2 0.367720 0.112468 0.954716
Si Si3 0.554211 0.097847 0.867924
Si Si4 0.092015 0.667906 0.352409
Si Si5 0.295010 0.156572 0.418828
Si Si6 0.206283 0.793718 0.625000
Si Si7 0.160758 0.013054 0.352866
Si Si8 0.530561 0.112708 0.670867
O O1 0.083739 0.254805 0.074516
O O2 0.140203 0.085808 0.107819
O O3 0.162801 0.158220 0.958197
O O4 0.000000 0.115264 0.000000
O O5 0.466730 0.132678 0.918822
O O6 0.311115 0.184836 0.895576
O O7 0.343121 0.008098 0.936629
O O8 0.364161 0.125138 0.062921
O O9 0.556667 0.143128 0.770946
O O10 0.551204 0.991154 0.850425
O O11 0.160401 0.702499 0.275470
O O12 0.131450 0.575338 0.397056
O O13 0.236954 0.236954 0.375000
O O14 0.252632 0.058889 0.390192
O O15 0.399805 0.169488 0.389366
O O16 0.075523 0.075523 0.375000
O O17 0.175224 0.000000 0.250000
#
# Coordination Sequence:
#
# PCOD8304805 Si02
#       8
#     8   8   8   8   8   4   8   8
#     4  12  25  35  54  73 106 148 196 238 277 331
#     4  10  19  35  53  79 105 146 185 238 278 346
#     4   9  19  33  56  77 104 137 198 223 285 341
#     4  11  21  39  54  78 109 148 191 237 296 336
#     4  11  23  37  54  81 112 148 192 235 284 347
#     4  12  24  34  54  78 110 142 186 234 294 324
#     4  11  25  39  52  71 108 157 206 244 280 330
#     4  10  20  34  59  78 103 148 183 239 290 342
#
# _framework density 18.366002999999999
#
# number of rings (size 3 to 8) (size 9 to 14) (size 15 to 20)
#    0.000    1.333    2.667    4.000    6.533    1.067 
#    0.000    0.000    0.000    0.000    0.000    0.000 
#    0.000    0.000  108.800    0.533    0.000    0.000 
#
# Total GULP energy -743462.389174 kJ/mol
# GULP energy per Si atom -12391.039820 kJ/mol
# Density = 1.832420 g / cm^3
# Si number density = 18.366003 Si / 1000 Ang^3
#
#
#
# Elastic Constant Matrix: (Units=GPa)
#
#
# Indices 1 2 3 4 5 6 
#
# 1 59.8843 33.1643 22.9608 0.0000 0.0000 0.0000
# 2 33.1643 59.8842 22.9617 0.0000 0.0000 0.0000
# 3 22.9608 22.9617 110.8817 0.0000 0.0000 0.0000
# 4 0.0000 0.0000 0.0000 26.1480 0.0000 0.0000
# 5 0.0000 0.0000 0.0000 0.0000 26.1481 0.0000
# 6 0.0000 0.0000 0.0000 0.0000 0.0000 14.0918
#
#
#
# Elastic Compliance Matrix: (Units=1/GPa)
#
#
# Indices 1 2 3 4 5 6 
#
# 1 0.024698 -0.012727 -0.002479 0.000000 0.000000 0.000000
# 2 -0.012727 0.024698 -0.002479 0.000000 0.000000 0.000000
# 3 -0.002479 -0.002479 0.010045 0.000000 0.000000 0.000000
# 4 0.000000 0.000000 0.000000 0.038244 0.000000 0.000000
# 5 0.000000 0.000000 0.000000 0.000000 0.038244 0.000000
# 6 0.000000 0.000000 0.000000 0.000000 0.000000 0.070963
#
#
# Mechanical properties :
#
#
# Convention : Reuss Voigt Hill
#
# Bulk Modulus (GPa) = 41.54402 43.20265 42.37334
# Shear Modulus (GPa) = 19.97718 23.38180 21.67949
#
# Velocity S-wave (km/s) = 3.30165 3.57193 3.43944
# Velocity P-wave (km/s) = 6.09948 6.37070 6.23656
#
# Compressibility (1/GPa) = 0.02407085
#
# Stress axis : x y z
#
# Youngs Moduli (GPa) = 40.48955 40.48920 99.54960
#
# Poissons Ratio (x) = 0.51532 0.24675
# Poissons Ratio (y) = 0.51533 0.24678
# Poissons Ratio (z) = 0.10036 0.10037
#
# Static dielectric constant tensor:
#      x y z
#    x 3.422470 0.000000 0.000000 
#    y 0.000000 3.422460 0.000000 
#    z 0.000000 0.000000 3.853780 
# 
# 
# High freq. dielectric constant tensor:
#      x y z
#    x 1.684160 0.000000 0.000000 
#    y 0.000000 1.684160 0.000000 
#    z 0.000000 0.000000 1.740890 
# 
# From -- ./inp_files/11579.got.cif
#   From: 2010.03.12/outbox.cif.g09.slc.cpg/sg91_6_cif.got.tgz:11579.got - 2010.04.08 20:27:58.
