data_PCOD8304324
_publ_section_title
;
Structure prediction by ZEFSAII (Michael W. Deem and Ramdas Pophale) SiO2 
 PCOD8304324
Probable space group: I 41/A
;
_chemical_formula_sum "Si O2"
_cell_formula_units_Z 48
_cell_length_a 11.193002
_cell_length_b 11.193002
_cell_length_c 16.767440
_cell_angle_alpha 90.000000
_cell_angle_beta 90.000000
_cell_angle_gamma 90.000000
_cell_volume 2100.680111
_symmetry_space_group_name_H-M "I 41/A"
_symmetry_group_IT_number 88
_space_group.IT_coordinate_system_code '2'
_symmetry_cell_setting 'tetragonal'
loop_
_space_group_symop_operation_xyz
x,y,z
3/4-y,1/4+x,1/4+z
-x,1/2-y,z
1/4+y,1/4-x,1/4+z
-x,-y,-z
1/4+y,3/4-x,3/4-z
x,1/2+y,-z
3/4-y,3/4+x,3/4-z
1/2+x,1/2+y,1/2+z
1/4-y,3/4+x,3/4+z
1/2-x,-y,1/2+z
3/4+y,3/4-x,3/4+z
1/2-x,1/2-y,1/2-z
3/4+y,1/4-x,1/4-z
1/2+x,y,1/2-z
1/4-y,1/4+x,1/4-z
loop_
_atom_site_type_symbol
_atom_site_label
_atom_site_fract_x
_atom_site_fract_y
_atom_site_fract_z
Si Si1 0.798812 0.078746 0.436795
Si Si2 0.892442 0.096162 0.601315
Si Si3 0.873044 0.686359 0.724213
O O1 0.895435 0.062895 0.507992
O O2 0.859409 0.160270 0.369561
O O3 0.681426 0.138546 0.472524
O O4 0.761965 0.949129 0.400173
O O5 0.836091 0.228850 0.609957
O O6 0.750000 0.750000 0.750000
O O7 0.000000 0.750000 0.738922
#
# Coordination Sequence:
#
# PCOD8304324 Si02
#       3
#    16  16  16
#     4  10  25  43  66 102 140 188 244 302 376 444
#     4  10  22  40  68  98 139 185 235 300 366 448
#     4  11  28  46  75 104 147 197 251 316 377 458
#
# _framework density 22.849744000000001
#
# number of rings (size 3 to 8) (size 9 to 14) (size 15 to 20)
#    0.000    1.667    0.000    1.000   18.667    2.667 
#    0.000    0.000    0.000    0.000    0.000    0.000 
#    0.000    0.000    0.000    0.000    0.000    0.000 
#
# Total GULP energy -297481.085810 kJ/mol
# GULP energy per Si atom -12395.045242 kJ/mol
# Density = 2.279774 g / cm^3
# Si number density = 22.849744 Si / 1000 Ang^3
#
#
#
# Elastic Constant Matrix: (Units=GPa)
#
#
# Indices 1 2 3 4 5 6 
#
# 1 106.8779 28.4192 38.2180 0.0000 0.0000 2.5674
# 2 28.4192 106.8779 38.2180 0.0000 0.0000 -2.5674
# 3 38.2180 38.2180 165.3587 0.0000 0.0000 0.0000
# 4 0.0000 0.0000 0.0000 25.0619 0.0000 0.0000
# 5 0.0000 0.0000 0.0000 0.0000 25.0619 0.0000
# 6 2.5674 -2.5674 0.0000 0.0000 0.0000 45.1500
#
#
#
# Elastic Compliance Matrix: (Units=1/GPa)
#
#
# Indices 1 2 3 4 5 6 
#
# 1 0.010647 -0.002146 -0.001965 0.000000 0.000000 -0.000727
# 2 -0.002146 0.010647 -0.001965 0.000000 0.000000 0.000727
# 3 -0.001965 -0.001965 0.006956 0.000000 0.000000 0.000000
# 4 0.000000 0.000000 0.000000 0.039901 0.000000 0.000000
# 5 0.000000 0.000000 0.000000 0.000000 0.039901 0.000000
# 6 -0.000727 0.000727 0.000000 0.000000 0.000000 0.022231
#
#
# Mechanical properties :
#
#
# Convention : Reuss Voigt Hill
#
# Bulk Modulus (GPa) = 62.11654 65.42502 63.77078
# Shear Modulus (GPa) = 33.82928 37.33871 35.58399
#
# Velocity S-wave (km/s) = 3.85191 4.04678 3.95055
# Velocity P-wave (km/s) = 6.85761 7.10846 6.98416
#
# Compressibility (1/GPa) = 0.01609877
#
# Stress axis : x y z
#
# Youngs Moduli (GPa) = 93.92173 93.92173 143.76747
#
# Poissons Ratio (x) = 0.20156 0.28247
# Poissons Ratio (y) = 0.20156 0.28247
# Poissons Ratio (z) = 0.18454 0.18454
#
# Static dielectric constant tensor:
#      x y z
#    x 4.125050 0.000000 0.000000 
#    y 0.000000 4.125050 0.000000 
#    z 0.000000 0.000000 4.366020 
# 
# 
# High freq. dielectric constant tensor:
#      x y z
#    x 1.901770 0.000000 0.000000 
#    y 0.000000 1.901770 0.000000 
#    z 0.000000 0.000000 1.920340 
# 
# From -- ./inp_files/3568.got.cif
#   From: 2010.03.12/outbox.cif.g09.slc.cpg/sg88_2_cif.got.tgz:3568.got - 2010.04.08 20:20:55.
