data_PCOD8304360
_publ_section_title
;
Structure prediction by ZEFSAII (Michael W. Deem and Ramdas Pophale) SiO2 
 PCOD8304360
Probable space group: I 41/A
;
_chemical_formula_sum "Si O2"
_cell_formula_units_Z 64
_cell_length_a 14.623023
_cell_length_b 14.623023
_cell_length_c 11.324114
_cell_angle_alpha 90.000000
_cell_angle_beta 90.000000
_cell_angle_gamma 90.000000
_cell_volume 2421.467023
_symmetry_space_group_name_H-M "I 41/A"
_symmetry_group_IT_number 88
_space_group.IT_coordinate_system_code '2'
_symmetry_cell_setting 'tetragonal'
loop_
_space_group_symop_operation_xyz
x,y,z
3/4-y,1/4+x,1/4+z
-x,1/2-y,z
1/4+y,1/4-x,1/4+z
-x,-y,-z
1/4+y,3/4-x,3/4-z
x,1/2+y,-z
3/4-y,3/4+x,3/4-z
1/2+x,1/2+y,1/2+z
1/4-y,3/4+x,3/4+z
1/2-x,-y,1/2+z
3/4+y,3/4-x,3/4+z
1/2-x,1/2-y,1/2-z
3/4+y,1/4-x,1/4-z
1/2+x,y,1/2-z
1/4-y,1/4+x,1/4-z
loop_
_atom_site_type_symbol
_atom_site_label
_atom_site_fract_x
_atom_site_fract_y
_atom_site_fract_z
Si Si1 0.539984 0.578425 0.342817
Si Si2 0.640655 0.275590 0.354608
Si Si3 0.426252 0.345813 0.943823
Si Si4 0.262303 0.452890 0.724431
O O1 0.570154 0.585947 0.478508
O O2 0.488065 0.481830 0.318420
O O3 0.469313 0.658427 0.307519
O O4 0.632289 0.580106 0.264792
O O5 0.593423 0.177360 0.327945
O O6 0.534001 0.362733 0.917902
O O7 0.381174 0.443477 0.963094
O O8 0.238306 0.503527 0.850643
#
# Coordination Sequence:
#
# PCOD8304360 Si02
#       4
#    16  16  16  16
#     4  11  25  49  77 117 168 209 286 342 426 506
#     4  10  24  44  75 114 155 213 272 347 419 492
#     4  11  27  52  75 118 162 220 272 345 415 506
#     4  12  28  52  85 123 164 220 279 344 424 503
#
# _framework density 26.430260000000001
#
# number of rings (size 3 to 8) (size 9 to 14) (size 15 to 20)
#    0.000    1.000    2.500    1.500   10.500    5.000 
#    4.500    0.000    0.000    0.000    0.000    0.000 
#    0.000    0.000    0.000    0.000    0.000    0.000 
#
# Total GULP energy -396434.580490 kJ/mol
# GULP energy per Si atom -12388.580640 kJ/mol
# Density = 2.637010 g / cm^3
# Si number density = 26.430260 Si / 1000 Ang^3
#
#
#
# Elastic Constant Matrix: (Units=GPa)
#
#
# Indices 1 2 3 4 5 6 
#
# 1 63.6361 -16.6297 6.9574 0.0000 0.0000 10.9579
# 2 -16.6297 63.6361 6.9574 0.0000 0.0000 -10.9579
# 3 6.9574 6.9574 136.3992 0.0000 0.0000 0.0000
# 4 0.0000 0.0000 0.0000 40.8661 0.0000 0.0000
# 5 0.0000 0.0000 0.0000 0.0000 40.8661 0.0000
# 6 10.9579 -10.9579 0.0000 0.0000 0.0000 32.7025
#
#
#
# Elastic Compliance Matrix: (Units=1/GPa)
#
#
# Indices 1 2 3 4 5 6 
#
# 1 0.017657 0.003943 -0.001102 0.000000 0.000000 -0.004595
# 2 0.003943 0.017657 -0.001102 0.000000 0.000000 0.004595
# 3 -0.001102 -0.001102 0.007444 0.000000 0.000000 0.000000
# 4 0.000000 0.000000 0.000000 0.024470 0.000000 0.000000
# 5 0.000000 0.000000 0.000000 0.000000 0.024470 0.000000
# 6 -0.004595 0.004595 0.000000 0.000000 0.000000 0.033658
#
#
# Mechanical properties :
#
#
# Convention : Reuss Voigt Hill
#
# Bulk Modulus (GPa) = 21.62795 28.69351 25.16073
# Shear Modulus (GPa) = 36.41983 40.64602 38.53292
#
# Velocity S-wave (km/s) = 3.71611 3.92581 3.82240
# Velocity P-wave (km/s) = 5.15882 5.60617 5.38714
#
# Compressibility (1/GPa) = 0.04623646
#
# Stress axis : x y z
#
# Youngs Moduli (GPa) = 56.63628 56.63628 134.33965
#
# Poissons Ratio (x) = -0.22333 0.14801
# Poissons Ratio (y) = -0.22333 0.14801
# Poissons Ratio (z) = 0.06240 0.06240
#
# Static dielectric constant tensor:
#      x y z
#    x 4.655990 0.000000 0.000000 
#    y 0.000000 4.655990 0.000000 
#    z 0.000000 0.000000 4.904540 
# 
# 
# High freq. dielectric constant tensor:
#      x y z
#    x 2.058850 0.000000 0.000000 
#    y 0.000000 2.058850 0.000000 
#    z 0.000000 0.000000 2.061310 
# 
# From -- ./inp_files/2380.got.cif
#   From: 2010.03.12/outbox.cif.g09.slc.cpg/sg88_2_cif.got.tgz:2380.got - 2010.04.08 20:20:55.
