data_PCOD8304359
_publ_section_title
;
Structure prediction by ZEFSAII (Michael W. Deem and Ramdas Pophale) SiO2 
 PCOD8304359
Probable space group: I 41/A
;
_chemical_formula_sum "Si O2"
_cell_formula_units_Z 96
_cell_length_a 14.405801
_cell_length_b 14.405801
_cell_length_c 21.048943
_cell_angle_alpha 90.000000
_cell_angle_beta 90.000000
_cell_angle_gamma 90.000000
_cell_volume 4368.226150
_symmetry_space_group_name_H-M "I 41/A"
_symmetry_group_IT_number 88
_space_group.IT_coordinate_system_code '2'
_symmetry_cell_setting 'tetragonal'
loop_
_space_group_symop_operation_xyz
x,y,z
3/4-y,1/4+x,1/4+z
-x,1/2-y,z
1/4+y,1/4-x,1/4+z
-x,-y,-z
1/4+y,3/4-x,3/4-z
x,1/2+y,-z
3/4-y,3/4+x,3/4-z
1/2+x,1/2+y,1/2+z
1/4-y,3/4+x,3/4+z
1/2-x,-y,1/2+z
3/4+y,3/4-x,3/4+z
1/2-x,1/2-y,1/2-z
3/4+y,1/4-x,1/4-z
1/2+x,y,1/2-z
1/4-y,1/4+x,1/4-z
loop_
_atom_site_type_symbol
_atom_site_label
_atom_site_fract_x
_atom_site_fract_y
_atom_site_fract_z
Si Si1 0.982072 0.996118 0.074436
Si Si2 0.434102 0.334991 0.769289
Si Si3 0.862446 0.944188 0.834033
Si Si4 0.682552 0.949573 0.108740
Si Si5 0.048630 0.518971 0.708410
Si Si6 0.134242 0.663579 0.128529
O O1 0.904571 0.067210 0.099823
O O2 0.079111 0.022472 0.105815
O O3 0.947662 0.894273 0.095103
O O4 0.000000 0.000000 0.000000
O O5 0.500000 0.250000 0.792672
O O6 0.348244 0.349662 0.817887
O O7 0.484323 0.433922 0.769539
O O8 0.396611 0.309390 0.699521
O O9 0.924741 0.928561 0.772465
O O10 0.785263 0.023354 0.819741
O O11 0.765847 0.884113 0.130242
O O12 0.639851 0.981133 0.174900
O O13 0.004740 0.598191 0.663565
#
# Coordination Sequence:
#
# PCOD8304359 Si02
#       6
#    16  16  16  16  16  16
#     4  11  25  44  71  98 134 178 229 286 341 406
#     4  11  25  40  67 101 140 172 230 282 332 415
#     4  11  24  45  69  98 135 177 233 281 341 410
#     4  10  24  43  70  94 137 184 223 270 351 406
#     4  11  24  41  68  98 133 183 223 279 344 408
#     4  10  24  45  66  95 139 182 220 278 342 413
#
# _framework density 21.976884999999999
#
# number of rings (size 3 to 8) (size 9 to 14) (size 15 to 20)
#    0.000    1.333    1.667    2.000    9.333    5.000 
#    0.000    0.000    0.000    0.000    0.000    0.000 
#    0.000    0.000    0.000    0.000    0.000    0.000 
#
# Total GULP energy -595251.155994 kJ/mol
# GULP energy per Si atom -12401.065750 kJ/mol
# Density = 2.192686 g / cm^3
# Si number density = 21.976885 Si / 1000 Ang^3
#
#
#
# Elastic Constant Matrix: (Units=GPa)
#
#
# Indices 1 2 3 4 5 6 
#
# 1 94.2801 38.6777 31.5481 0.0000 0.0000 6.4583
# 2 38.6777 94.2801 31.5481 0.0000 0.0000 -6.4583
# 3 31.5481 31.5481 93.4701 0.0000 0.0000 0.0000
# 4 0.0000 0.0000 0.0000 29.5453 0.0000 0.0000
# 5 0.0000 0.0000 0.0000 0.0000 29.5453 0.0000
# 6 6.4583 -6.4583 0.0000 0.0000 0.0000 26.7278
#
#
#
# Elastic Compliance Matrix: (Units=1/GPa)
#
#
# Indices 1 2 3 4 5 6 
#
# 1 0.014005 -0.005049 -0.003023 0.000000 0.000000 -0.004604
# 2 -0.005049 0.014005 -0.003023 0.000000 0.000000 0.004604
# 3 -0.003023 -0.003023 0.012739 0.000000 0.000000 0.000000
# 4 0.000000 0.000000 0.000000 0.033846 0.000000 0.000000
# 5 0.000000 0.000000 0.000000 0.000000 0.033846 0.000000
# 6 -0.004604 0.004604 0.000000 0.000000 0.000000 0.039639
#
#
# Mechanical properties :
#
#
# Convention : Reuss Voigt Hill
#
# Bulk Modulus (GPa) = 53.88081 53.95312 53.91696
# Shear Modulus (GPa) = 28.33552 29.18080 28.75816
#
# Velocity S-wave (km/s) = 3.59462 3.64785 3.62133
# Velocity P-wave (km/s) = 6.46519 6.50735 6.48630
#
# Compressibility (1/GPa) = 0.01855948
#
# Stress axis : x y z
#
# Youngs Moduli (GPa) = 71.40301 71.40301 78.49865
#
# Poissons Ratio (x) = 0.36054 0.23728
# Poissons Ratio (y) = 0.36054 0.23728
# Poissons Ratio (z) = 0.21583 0.21583
#
# Static dielectric constant tensor:
#      x y z
#    x 4.139650 0.000000 0.000000 
#    y 0.000000 4.139650 0.000000 
#    z 0.000000 0.000000 3.899110 
# 
# 
# High freq. dielectric constant tensor:
#      x y z
#    x 1.868910 0.000000 0.000000 
#    y 0.000000 1.868910 0.000000 
#    z 0.000000 0.000000 1.869530 
# 
# From -- ./inp_files/4692.got.cif
#   From: 2010.03.12/outbox.cif.g09.slc.cpg/sg88_3_cif.got.tgz:4692.got - 2010.04.08 20:20:55.
