data_PCOD8304579
_publ_section_title
;
Structure prediction by ZEFSAII (Michael W. Deem and Ramdas Pophale) SiO2 
 PCOD8304579
Probable space group: P 4 21 2
;
_chemical_formula_sum "Si O2"
_cell_formula_units_Z 56
_cell_length_a 15.169061
_cell_length_b 15.169061
_cell_length_c 13.926508
_cell_angle_alpha 90.000000
_cell_angle_beta 90.000000
_cell_angle_gamma 90.000000
_cell_volume 3204.495223
_symmetry_space_group_name_H-M "P 4 21 2"
_symmetry_group_IT_number 90
_symmetry_cell_setting 'tetragonal'
loop_
_space_group_symop_operation_xyz
x,y,z
1/2-y,1/2+x,z
-x,-y,z
1/2+y,1/2-x,z
1/2+x,1/2-y,-z
1/2-x,1/2+y,-z
y,x,-z
-y,-x,-z
loop_
_atom_site_type_symbol
_atom_site_label
_atom_site_fract_x
_atom_site_fract_y
_atom_site_fract_z
Si Si1 0.906640 0.610824 0.863815
Si Si2 0.641609 0.188148 0.731844
Si Si3 0.703092 0.436128 0.541783
Si Si4 0.894098 0.401278 0.078364
Si Si5 0.883778 0.158330 0.604915
Si Si6 0.467044 0.240324 0.643622
Si Si7 0.707765 0.819133 0.308346
O O1 0.878274 0.510447 0.847617
O O2 0.859832 0.675073 0.790302
O O3 0.876832 0.638619 0.971314
O O4 0.654754 0.158616 0.842136
O O5 0.540847 0.218125 0.721313
O O6 0.667197 0.110250 0.656274
O O7 0.699822 0.272868 0.711521
O O8 0.637126 0.362875 0.500000
O O9 0.645089 0.510518 0.597720
O O10 0.760282 0.486272 0.460547
O O11 0.775118 0.393551 0.611834
O O12 0.878227 0.504354 0.093430
O O13 0.838628 0.161373 0.500000
O O14 0.837187 0.077394 0.662413
O O15 0.865798 0.251350 0.655249
#
# Coordination Sequence:
#
# PCOD8304579 Si02
#       7
#     8   8   8   8   8   8   8
#     4   9  19  36  56  78 104 140 177 214 271 335
#     4  11  20  35  55  81 108 137 176 226 275 314
#     4  11  21  36  55  75 105 150 184 213 261 318
#     4   9  17  32  56  79 105 136 172 221 271 321
#     4   9  21  36  52  74 109 143 180 222 260 307
#     4  10  22  34  53  80 108 138 178 221 267 316
#     4  11  21  34  54  79 111 141 177 225 268 310
#
# _framework density 17.475451
#
# number of rings (size 3 to 8) (size 9 to 14) (size 15 to 20)
#    0.000    2.000    2.857    2.143    4.000    3.429 
#    0.000    0.000    0.000    0.000    0.000    0.000 
#    0.000    2.286    0.000    0.000    0.000    0.000 
#
# Total GULP energy -694155.171485 kJ/mol
# GULP energy per Si atom -12395.628062 kJ/mol
# Density = 1.743568 g / cm^3
# Si number density = 17.475451 Si / 1000 Ang^3
#
#
#
# Elastic Constant Matrix: (Units=GPa)
#
#
# Indices 1 2 3 4 5 6 
#
# 1 64.1287 36.5954 46.5396 0.0000 0.0000 0.0000
# 2 36.5954 64.1290 46.5397 0.0000 0.0000 0.0000
# 3 46.5396 46.5397 107.1210 0.0000 0.0000 0.0000
# 4 0.0000 0.0000 0.0000 30.2681 0.0000 0.0000
# 5 0.0000 0.0000 0.0000 0.0000 30.2680 0.0000
# 6 0.0000 0.0000 0.0000 0.0000 0.0000 12.4053
#
#
#
# Elastic Compliance Matrix: (Units=1/GPa)
#
#
# Indices 1 2 3 4 5 6 
#
# 1 0.026454 -0.009866 -0.007207 0.000000 0.000000 0.000000
# 2 -0.009866 0.026454 -0.007207 0.000000 0.000000 0.000000
# 3 -0.007207 -0.007207 0.015597 0.000000 0.000000 0.000000
# 4 0.000000 0.000000 0.000000 0.033038 0.000000 0.000000
# 5 0.000000 0.000000 0.000000 0.000000 0.033038 0.000000
# 6 0.000000 0.000000 0.000000 0.000000 0.000000 0.080611
#
#
# Mechanical properties :
#
#
# Convention : Reuss Voigt Hill
#
# Bulk Modulus (GPa) = 50.13524 54.96979 52.55252
# Shear Modulus (GPa) = 18.49121 21.63522 20.06321
#
# Velocity S-wave (km/s) = 3.25641 3.52239 3.39201
# Velocity P-wave (km/s) = 6.54906 6.93301 6.74377
#
# Compressibility (1/GPa) = 0.01994605
#
# Stress axis : x y z
#
# Youngs Moduli (GPa) = 37.80185 37.80208 64.11362
#
# Poissons Ratio (x) = 0.37295 0.46205
# Poissons Ratio (y) = 0.37295 0.46205
# Poissons Ratio (z) = 0.27243 0.27243
#
# Static dielectric constant tensor:
#      x y z
#    x 3.216530 0.000000 0.000000 
#    y 0.000000 3.216530 0.000000 
#    z 0.000000 0.000000 3.271410 
# 
# 
# High freq. dielectric constant tensor:
#      x y z
#    x 1.668380 0.000000 0.000000 
#    y 0.000000 1.668380 0.000000 
#    z 0.000000 0.000000 1.670140 
# 
# From -- ./inp_files/2251.got.cif
#   From: 2010.03.12/outbox.cif.g09.slc.cpg/sg90_2_cif.got.tgz:2251.got - 2010.04.08 20:26:03.
