data_PCOD8304601
_publ_section_title
;
Structure prediction by ZEFSAII (Michael W. Deem and Ramdas Pophale) SiO2 
 PCOD8304601
Probable space group: P 4 21 2
;
_chemical_formula_sum "Si O2"
_cell_formula_units_Z 56
_cell_length_a 14.331818
_cell_length_b 14.331818
_cell_length_c 12.956797
_cell_angle_alpha 90.000000
_cell_angle_beta 90.000000
_cell_angle_gamma 90.000000
_cell_volume 2661.339154
_symmetry_space_group_name_H-M "P 4 21 2"
_symmetry_group_IT_number 90
_symmetry_cell_setting 'tetragonal'
loop_
_space_group_symop_operation_xyz
x,y,z
1/2-y,1/2+x,z
-x,-y,z
1/2+y,1/2-x,z
1/2+x,1/2-y,-z
1/2-x,1/2+y,-z
y,x,-z
-y,-x,-z
loop_
_atom_site_type_symbol
_atom_site_label
_atom_site_fract_x
_atom_site_fract_y
_atom_site_fract_z
Si Si1 0.731054 0.762259 0.382482
Si Si2 0.597310 0.739265 0.055559
Si Si3 0.093438 0.627387 0.759280
Si Si4 0.150152 0.483191 0.119434
Si Si5 0.970310 0.093957 0.805203
Si Si6 0.611543 0.408334 0.383809
Si Si7 0.279235 0.432034 0.288226
O O1 0.727583 0.727583 0.500000
O O2 0.636492 0.811846 0.337166
O O3 0.812824 0.835191 0.364776
O O4 0.757317 0.666350 0.327885
O O5 0.629310 0.823160 0.133892
O O6 0.519065 0.680396 0.119088
O O7 0.683823 0.683823 0.000000
O O8 0.529240 0.772676 0.966460
O O9 0.129241 0.520070 0.753629
O O10 0.102392 0.581098 0.103726
O O11 0.193389 0.482706 0.233162
O O12 0.859675 0.092814 0.791737
O O13 0.025174 0.096104 0.695768
O O14 0.000000 0.000000 0.864673
O O15 0.576784 0.423216 0.500000
O O16 0.680276 0.496141 0.371488
#
# Coordination Sequence:
#
# PCOD8304601 Si02
#       7
#     8   8   8   8   8   8   8
#     4  11  24  39  67 100 135 178 222 282 341 408
#     4  12  22  41  67  96 133 174 228 284 343 411
#     4  11  24  44  72 100 139 184 232 289 345 409
#     4  11  24  43  65  91 130 177 226 278 340 412
#     4  10  22  40  65  93 129 175 215 276 343 403
#     4  10  24  42  66 100 135 175 226 271 347 411
#     4  11  22  41  65  91 132 173 224 278 335 403
#
# _framework density 21.042037000000001
#
# number of rings (size 3 to 8) (size 9 to 14) (size 15 to 20)
#    0.000    1.143    2.857    2.571    2.000    4.571 
#    0.000    1.429    0.000    1.714    0.000    0.000 
#    0.000    0.000    0.000    0.000    0.000    0.000 
#
# Total GULP energy -693751.246611 kJ/mol
# GULP energy per Si atom -12388.415118 kJ/mol
# Density = 2.099414 g / cm^3
# Si number density = 21.042037 Si / 1000 Ang^3
#
#
#
# Elastic Constant Matrix: (Units=GPa)
#
#
# Indices 1 2 3 4 5 6 
#
# 1 97.9684 19.5594 56.9855 0.0000 0.0000 0.0000
# 2 19.5594 97.9683 56.9855 0.0000 0.0000 0.0000
# 3 56.9855 56.9855 114.2389 0.0000 0.0000 0.0000
# 4 0.0000 0.0000 0.0000 63.5483 0.0000 0.0000
# 5 0.0000 0.0000 0.0000 0.0000 63.5363 0.0000
# 6 0.0000 0.0000 0.0000 0.0000 0.0000 61.0687
#
#
#
# Elastic Compliance Matrix: (Units=1/GPa)
#
#
# Indices 1 2 3 4 5 6 
#
# 1 0.014617 0.001864 -0.008221 0.000000 0.000000 0.000000
# 2 0.001864 0.014617 -0.008221 0.000000 0.000000 0.000000
# 3 -0.008221 -0.008221 0.016955 0.000000 0.000000 0.000000
# 4 0.000000 0.000000 0.000000 0.015736 0.000000 0.000000
# 5 0.000000 0.000000 0.000000 0.000000 0.015739 0.000000
# 6 0.000000 0.000000 0.000000 0.000000 0.000000 0.016375
#
#
# Mechanical properties :
#
#
# Convention : Reuss Voigt Hill
#
# Bulk Modulus (GPa) = 58.71030 64.13737 61.42384
# Shear Modulus (GPa) = 38.79725 49.40700 44.10212
#
# Velocity S-wave (km/s) = 4.29860 4.85089 4.58307
# Velocity P-wave (km/s) = 7.25254 7.86903 7.56706
#
# Compressibility (1/GPa) = 0.01703279
#
# Stress axis : x y z
#
# Youngs Moduli (GPa) = 68.41200 68.41198 58.97805
#
# Poissons Ratio (x) = -0.12750 0.48487
# Poissons Ratio (y) = -0.12750 0.48487
# Poissons Ratio (z) = 0.56243 0.56243
#
# Static dielectric constant tensor:
#      x y z
#    x 3.644670 0.000000 0.000000 
#    y 0.000000 3.644780 0.000000 
#    z 0.000000 0.000000 4.012550 
# 
# 
# High freq. dielectric constant tensor:
#      x y z
#    x 1.832360 0.000000 0.000000 
#    y 0.000000 1.832360 0.000000 
#    z 0.000000 0.000000 1.824920 
# 
# From -- ./inp_files/2264.got.cif
#   From: 2010.03.12/outbox.cif.g09.slc.cpg/sg90_2_cif.got.tgz:2264.got - 2010.04.08 20:26:03.
