data_PCOD8304209
_publ_section_title
;
Structure prediction by ZEFSAII (Michael W. Deem and Ramdas Pophale) SiO2 
 PCOD8304209
Probable space group: I 41/A
;
_chemical_formula_sum "Si O2"
_cell_formula_units_Z 128
_cell_length_a 20.288699
_cell_length_b 20.288699
_cell_length_c 15.896118
_cell_angle_alpha 90.000000
_cell_angle_beta 90.000000
_cell_angle_gamma 90.000000
_cell_volume 6543.339830
_symmetry_space_group_name_H-M "I 41/A"
_symmetry_group_IT_number 88
_space_group.IT_coordinate_system_code '2'
_symmetry_cell_setting 'tetragonal'
loop_
_space_group_symop_operation_xyz
x,y,z
3/4-y,1/4+x,1/4+z
-x,1/2-y,z
1/4+y,1/4-x,1/4+z
-x,-y,-z
1/4+y,3/4-x,3/4-z
x,1/2+y,-z
3/4-y,3/4+x,3/4-z
1/2+x,1/2+y,1/2+z
1/4-y,3/4+x,3/4+z
1/2-x,-y,1/2+z
3/4+y,3/4-x,3/4+z
1/2-x,1/2-y,1/2-z
3/4+y,1/4-x,1/4-z
1/2+x,y,1/2-z
1/4-y,1/4+x,1/4-z
loop_
_atom_site_type_symbol
_atom_site_label
_atom_site_fract_x
_atom_site_fract_y
_atom_site_fract_z
Si Si1 0.278022 0.570807 0.230695
Si Si2 0.224333 0.654348 0.380238
Si Si3 0.006532 0.054427 0.249881
Si Si4 0.887848 0.362806 0.952940
Si Si5 0.176097 0.490864 0.300871
Si Si6 0.325528 0.180806 0.028787
Si Si7 0.986466 0.649246 0.355088
Si Si8 0.399263 0.716300 0.639095
O O1 0.265792 0.627910 0.300030
O O2 0.351241 0.558611 0.194772
O O3 0.252033 0.504046 0.276094
O O4 0.231648 0.585527 0.150438
O O5 0.279141 0.693175 0.431139
O O6 0.164569 0.702667 0.350523
O O7 0.045650 0.088896 0.174065
O O8 0.961249 0.108475 0.298328
O O9 0.966788 0.994272 0.207238
O O10 0.827977 0.406591 0.990609
O O11 0.913247 0.387485 0.863938
O O12 0.948339 0.371205 0.016396
O O13 0.135209 0.556774 0.273290
O O14 0.376219 0.228516 0.980578
O O15 0.931220 0.705817 0.336225
O O16 0.419346 0.792284 0.641772
#
# Coordination Sequence:
#
# PCOD8304209 Si02
#       8
#    16  16  16  16  16  16  16  16
#     4  10  20  36  61  82 122 158 185 248 302 356
#     4  10  22  41  59  90 122 158 200 249 303 359
#     4   9  21  41  59  88 122 152 200 251 299 368
#     4  10  20  37  64  89 115 161 194 254 299 359
#     4  10  19  35  59  91 117 151 198 241 303 366
#     4  10  20  39  60  88 121 147 207 250 291 365
#     4  10  21  40  58  81 121 161 199 249 288 347
#     4   9  19  39  61  82 120 158 198 244 304 356
#
# _framework density 19.561875000000001
#
# number of rings (size 3 to 8) (size 9 to 14) (size 15 to 20)
#    0.000    2.250    1.250    1.500    0.000    2.500 
#   13.500    6.250    0.000    0.000    0.000    0.000 
#    0.000    0.000    0.000    0.000    0.000    0.000 
#
# Total GULP energy -792965.924577 kJ/mol
# GULP energy per Si atom -12390.092572 kJ/mol
# Density = 1.951735 g / cm^3
# Si number density = 19.561875 Si / 1000 Ang^3
#
#
#
# Elastic Constant Matrix: (Units=GPa)
#
#
# Indices 1 2 3 4 5 6 
#
# 1 78.7933 30.8115 54.2999 0.0000 0.0000 3.3028
# 2 30.8115 78.7933 54.2999 0.0000 0.0000 -3.3028
# 3 54.2999 54.2999 128.0033 0.0000 0.0000 0.0000
# 4 0.0000 0.0000 0.0000 28.7023 0.0000 0.0000
# 5 0.0000 0.0000 0.0000 0.0000 28.7023 0.0000
# 6 3.3028 -3.3028 0.0000 0.0000 0.0000 23.3723
#
#
#
# Elastic Compliance Matrix: (Units=1/GPa)
#
#
# Indices 1 2 3 4 5 6 
#
# 1 0.018497 -0.002758 -0.006677 0.000000 0.000000 -0.003004
# 2 -0.002758 0.018497 -0.006677 0.000000 0.000000 0.003004
# 3 -0.006677 -0.006677 0.013477 0.000000 0.000000 0.000000
# 4 0.000000 0.000000 0.000000 0.034840 0.000000 0.000000
# 5 0.000000 0.000000 0.000000 0.000000 0.034840 0.000000
# 6 -0.003004 0.003004 0.000000 0.000000 0.000000 0.043635
#
#
# Mechanical properties :
#
#
# Convention : Reuss Voigt Hill
#
# Bulk Modulus (GPa) = 54.79898 62.71251 58.75575
# Shear Modulus (GPa) = 24.74131 25.90062 25.32097
#
# Velocity S-wave (km/s) = 3.56022 3.64268 3.60169
# Velocity P-wave (km/s) = 6.70628 7.05835 6.88457
#
# Compressibility (1/GPa) = 0.01824851
#
# Stress axis : x y z
#
# Youngs Moduli (GPa) = 54.06305 54.06305 74.20117
#
# Poissons Ratio (x) = 0.14909 0.49542
# Poissons Ratio (y) = 0.14909 0.49542
# Poissons Ratio (z) = 0.36096 0.36096
#
# Static dielectric constant tensor:
#      x y z
#    x 3.710370 0.000000 0.000000 
#    y 0.000000 3.710370 0.000000 
#    z 0.000000 0.000000 3.412440 
# 
# 
# High freq. dielectric constant tensor:
#      x y z
#    x 1.765860 0.000000 0.000000 
#    y 0.000000 1.765860 0.000000 
#    z 0.000000 0.000000 1.746180 
# 
# From -- ./inp_files/4083.got.cif
#   From: 2010.03.12/outbox.cif.g09.slc.cpg/sg88_3_cif.got.tgz:4083.got - 2010.04.08 20:20:55.
