data_PCOD8304741
_publ_section_title
;
Structure prediction by ZEFSAII (Michael W. Deem and Ramdas Pophale) SiO2 
 PCOD8304741
Probable space group: P 41 2 2
;
_chemical_formula_sum "Si O2"
_cell_formula_units_Z 48
_cell_length_a 12.440862
_cell_length_b 12.440862
_cell_length_c 16.641291
_cell_angle_alpha 90.000000
_cell_angle_beta 90.000000
_cell_angle_gamma 90.000000
_cell_volume 2575.656602
_symmetry_space_group_name_H-M "P 41 2 2"
_symmetry_group_IT_number 91
_symmetry_cell_setting 'tetragonal'
loop_
_space_group_symop_operation_xyz
x,y,z
-y,x,1/4+z
-x,-y,1/2+z
y,-x,3/4+z
x,-y,1/2-z
-x,y,-z
y,x,3/4-z
-y,-x,1/4-z
loop_
_atom_site_type_symbol
_atom_site_label
_atom_site_fract_x
_atom_site_fract_y
_atom_site_fract_z
Si Si1 0.403823 0.500000 0.750000
Si Si2 0.953201 0.277938 0.368181
Si Si3 0.682964 0.457715 0.423065
Si Si4 0.924223 0.492871 0.068611
Si Si5 0.825918 0.174083 0.625000
Si Si6 0.224235 0.261703 0.202986
Si Si7 0.613341 0.984434 0.037245
O O1 0.479980 0.599167 0.728146
O O2 0.329725 0.524385 0.827177
O O3 0.973539 0.389541 0.414039
O O4 0.842767 0.223578 0.395715
O O5 0.047681 0.194181 0.388199
O O6 0.953443 0.306654 0.273485
O O7 0.799284 0.497377 0.453437
O O8 0.669177 0.331326 0.438948
O O9 0.931136 0.410441 0.142496
O O10 0.000000 0.443111 0.000000
O O11 0.764033 0.217855 0.547460
O O12 0.122292 0.331879 0.177114
O O13 0.500000 0.947451 0.000000
#
# Coordination Sequence:
#
# PCOD8304741 Si02
#       7
#     4   8   8   8   4   8   8
#     4  10  24  42  54  88 114 168 202 232 310 362
#     4   9  18  34  54  82 110 150 186 230 300 354
#     4  10  23  38  61  81 123 159 200 247 298 375
#     4  10  20  35  57  84 111 152 198 249 290 352
#     4  10  18  32  54  86 112 138 194 234 300 346
#     4  10  20  33  58  83 113 153 184 252 289 352
#     4   9  20  34  55  87 112 147 197 240 290 344
#
# _framework density 18.636025
#
# number of rings (size 3 to 8) (size 9 to 14) (size 15 to 20)
#    0.000    2.333    0.000    2.500    9.333    1.333 
#    0.000    0.000    0.000    6.000    0.000    0.000 
#    0.000    0.000    0.000    0.000    0.000    0.000 
#
# Total GULP energy -595134.656494 kJ/mol
# GULP energy per Si atom -12398.638677 kJ/mol
# Density = 1.859361 g / cm^3
# Si number density = 18.636025 Si / 1000 Ang^3
#
#
#
# Elastic Constant Matrix: (Units=GPa)
#
#
# Indices 1 2 3 4 5 6 
#
# 1 85.2850 40.0173 33.6248 0.0000 0.0000 0.0000
# 2 40.0173 85.2843 33.6248 0.0000 0.0000 0.0000
# 3 33.6248 33.6248 72.4031 0.0000 0.0000 0.0000
# 4 0.0000 0.0000 0.0000 26.2461 0.0000 0.0000
# 5 0.0000 0.0000 0.0000 0.0000 26.2462 0.0000
# 6 0.0000 0.0000 0.0000 0.0000 0.0000 24.5712
#
#
#
# Elastic Compliance Matrix: (Units=1/GPa)
#
#
# Indices 1 2 3 4 5 6 
#
# 1 0.016361 -0.005730 -0.004937 0.000000 0.000000 0.000000
# 2 -0.005730 0.016361 -0.004937 0.000000 0.000000 0.000000
# 3 -0.004937 -0.004937 0.018397 0.000000 0.000000 0.000000
# 4 0.000000 0.000000 0.000000 0.038101 0.000000 0.000000
# 5 0.000000 0.000000 0.000000 0.000000 0.038101 0.000000
# 6 0.000000 0.000000 0.000000 0.000000 0.000000 0.040698
#
#
# Mechanical properties :
#
#
# Convention : Reuss Voigt Hill
#
# Bulk Modulus (GPa) = 50.22526 50.83403 50.52964
# Shear Modulus (GPa) = 24.28803 24.45974 24.37388
#
# Velocity S-wave (km/s) = 3.61402 3.62677 3.62040
# Velocity P-wave (km/s) = 6.66513 6.69884 6.68201
#
# Compressibility (1/GPa) = 0.01991030
#
# Stress axis : x y z
#
# Youngs Moduli (GPa) = 61.12253 61.12194 54.35663
#
# Poissons Ratio (x) = 0.35025 0.26835
# Poissons Ratio (y) = 0.35025 0.26835
# Poissons Ratio (z) = 0.30175 0.30175
#
# Static dielectric constant tensor:
#      x y z
#    x 3.390110 0.000000 0.000000 
#    y 0.000000 3.390110 0.000000 
#    z 0.000000 0.000000 3.527600 
# 
# 
# High freq. dielectric constant tensor:
#      x y z
#    x 1.715410 0.000000 0.000000 
#    y 0.000000 1.715410 0.000000 
#    z 0.000000 0.000000 1.729040 
# 
# From -- ./inp_files/21157.got.cif
#   From: 2010.03.12/outbox.cif.g09.slc.cpg/sg91_11_cif.got.tgz:21157.got - 2010.04.08 20:27:58.
