data_PCOD8304394
_publ_section_title
;
Structure prediction by ZEFSAII (Michael W. Deem and Ramdas Pophale) SiO2 
 PCOD8304394
Probable space group: I 41/A
;
_chemical_formula_sum "Si O2"
_cell_formula_units_Z 80
_cell_length_a 10.085888
_cell_length_b 10.085888
_cell_length_c 38.905942
_cell_angle_alpha 90.000000
_cell_angle_beta 90.000000
_cell_angle_gamma 90.000000
_cell_volume 3957.712270
_symmetry_space_group_name_H-M "I 41/A"
_symmetry_group_IT_number 88
_space_group.IT_coordinate_system_code '2'
_symmetry_cell_setting 'tetragonal'
loop_
_space_group_symop_operation_xyz
x,y,z
3/4-y,1/4+x,1/4+z
-x,1/2-y,z
1/4+y,1/4-x,1/4+z
-x,-y,-z
1/4+y,3/4-x,3/4-z
x,1/2+y,-z
3/4-y,3/4+x,3/4-z
1/2+x,1/2+y,1/2+z
1/4-y,3/4+x,3/4+z
1/2-x,-y,1/2+z
3/4+y,3/4-x,3/4+z
1/2-x,1/2-y,1/2-z
3/4+y,1/4-x,1/4-z
1/2+x,y,1/2-z
1/4-y,1/4+x,1/4-z
loop_
_atom_site_type_symbol
_atom_site_label
_atom_site_fract_x
_atom_site_fract_y
_atom_site_fract_z
Si Si1 0.500000 0.750000 0.882659
Si Si2 0.163761 0.500518 0.963376
Si Si3 0.261501 0.237875 0.581026
Si Si4 0.000000 0.750000 0.875000
Si Si5 0.352995 0.493452 0.542526
Si Si6 0.765756 0.257002 0.076518
Si Si7 0.500000 0.750000 0.125000
O O1 0.529066 0.623656 0.859489
O O2 0.376414 0.721671 0.906995
O O3 0.248454 0.395785 0.941372
O O4 0.219523 0.647467 0.956350
O O5 0.010460 0.488784 0.952680
O O6 0.184812 0.473805 0.003493
O O7 0.292841 0.354919 0.554459
O O8 0.125042 0.266068 0.600198
O O9 0.122211 0.695302 0.896992
O O10 0.289027 0.605621 0.566233
#
# Coordination Sequence:
#
# PCOD8304394 Si02
#       7
#     8  16  16   4  16  16   4
#     4  12  24  40  64  92 134 164 216 252 318 390
#     4  11  22  41  67  94 124 162 215 267 319 375
#     4  12  23  45  62  95 123 180 204 259 319 393
#     4  12  20  36  62  88 120 152 212 262 312 352
#     4  11  22  41  67  94 124 162 215 267 319 375
#     4  12  23  39  60  97 121 164 204 269 309 371
#     4  12  28  44  66  88 144 172 212 250 332 404
#
# _framework density 20.213699999999999
#
# number of rings (size 3 to 8) (size 9 to 14) (size 15 to 20)
#    0.000    0.400    4.000    6.000    0.000    3.200 
#    0.000    6.000    0.000    0.000    0.000    0.000 
#    0.000    0.000    0.000    0.000    0.000    0.000 
#
# Total GULP energy -496300.720502 kJ/mol
# GULP energy per Si atom -12407.518013 kJ/mol
# Density = 2.016769 g / cm^3
# Si number density = 20.213700 Si / 1000 Ang^3
#
#
#
# Elastic Constant Matrix: (Units=GPa)
#
#
# Indices 1 2 3 4 5 6 
#
# 1 105.3661 3.1988 33.7440 0.0000 0.0000 2.1406
# 2 3.1988 105.3661 33.7440 0.0000 0.0001 -2.1406
# 3 33.7440 33.7440 92.9244 0.0000 0.0001 0.0000
# 4 0.0000 0.0000 0.0000 71.6980 -0.0001 0.0000
# 5 0.0000 0.0001 0.0001 -0.0001 71.6977 0.0000
# 6 2.1406 -2.1406 0.0000 0.0000 0.0000 24.3979
#
#
#
# Elastic Compliance Matrix: (Units=1/GPa)
#
#
# Indices 1 2 3 4 5 6 
#
# 1 0.010860 0.001036 -0.004320 0.000000 0.000000 -0.000862
# 2 0.001036 0.010860 -0.004320 0.000000 0.000000 0.000862
# 3 -0.004320 -0.004320 0.013899 0.000000 0.000000 0.000000
# 4 0.000000 0.000000 0.000000 0.013947 0.000000 0.000000
# 5 0.000000 0.000000 0.000000 0.000000 0.013947 0.000000
# 6 -0.000862 0.000862 0.000000 0.000000 0.000000 0.041138
#
#
# Mechanical properties :
#
#
# Convention : Reuss Voigt Hill
#
# Bulk Modulus (GPa) = 48.99099 49.44778 49.21939
# Shear Modulus (GPa) = 39.47441 49.09004 44.28223
#
# Velocity S-wave (km/s) = 4.42391 4.93338 4.68557
# Velocity P-wave (km/s) = 7.09815 7.54762 7.32633
#
# Compressibility (1/GPa) = 0.02041192
#
# Stress axis : x y z
#
# Youngs Moduli (GPa) = 92.07865 92.07862 71.94790
#
# Poissons Ratio (x) = -0.09542 0.31082
# Poissons Ratio (y) = -0.09542 0.31082
# Poissons Ratio (z) = 0.39778 0.39778
#
# Static dielectric constant tensor:
#      x y z
#    x 2.242130 0.000000 0.000000 
#    y 0.000000 2.242130 0.000000 
#    z 0.000000 0.000000 3.726130 
# 
# 
# High freq. dielectric constant tensor:
#      x y z
#    x 1.791350 0.000000 0.000000 
#    y 0.000000 1.791350 0.000000 
#    z 0.000000 0.000000 1.802740 
# 
# From -- ./inp_files/6410.got.cif
#   From: 2010.03.12/outbox.cif.g09.slc.cpg/sg88_4_cif.got.tgz:6410.got - 2010.04.08 20:20:55.
