data_PCOD8304693
_publ_section_title
;
Structure prediction by ZEFSAII (Michael W. Deem and Ramdas Pophale) SiO2 
 PCOD8304693
Probable space group: P 4 21 2
;
_chemical_formula_sum "Si O2"
_cell_formula_units_Z 50
_cell_length_a 13.757493
_cell_length_b 13.757493
_cell_length_c 11.486445
_cell_angle_alpha 90.000000
_cell_angle_beta 90.000000
_cell_angle_gamma 90.000000
_cell_volume 2174.023521
_symmetry_space_group_name_H-M "P 4 21 2"
_symmetry_group_IT_number 90
_symmetry_cell_setting 'tetragonal'
loop_
_space_group_symop_operation_xyz
x,y,z
1/2-y,1/2+x,z
-x,-y,z
1/2+y,1/2-x,z
1/2+x,1/2-y,-z
1/2-x,1/2+y,-z
y,x,-z
-y,-x,-z
loop_
_atom_site_type_symbol
_atom_site_label
_atom_site_fract_x
_atom_site_fract_y
_atom_site_fract_z
Si Si1 0.673594 0.260562 0.758019
Si Si2 0.500000 0.000000 0.535496
Si Si3 0.656516 0.005500 0.116866
Si Si4 0.822173 0.965605 0.944723
Si Si5 0.288904 0.018505 0.581583
Si Si6 0.339554 0.385988 0.256938
Si Si7 0.778762 0.972765 0.323978
O O1 0.613475 0.254965 0.878430
O O2 0.616357 0.203089 0.657787
O O3 0.778794 0.211462 0.774590
O O4 0.680876 0.374230 0.730430
O O5 0.609574 0.037984 0.561472
O O6 0.592295 0.098494 0.085561
O O7 0.680326 0.004560 0.255259
O O8 0.756874 0.011269 0.047132
O O9 0.855334 0.051888 0.859807
O O10 0.917784 0.917784 0.000000
O O11 0.215413 0.945829 0.644727
O O12 0.245456 0.046858 0.456857
O O13 0.443951 0.359253 0.309380
#
# Coordination Sequence:
#
# PCOD8304693 Si02
#       7
#     8   2   8   8   8   8   8
#     4  11  24  48  71 105 144 191 242 299 368 431
#     4  12  24  44  72 116 146 196 244 292 356 442
#     4  11  25  44  68 104 142 186 241 305 371 435
#     4  11  24  48  72 100 139 188 250 304 367 440
#     4  11  26  43  75 108 148 194 240 300 356 446
#     4  11  26  47  73 106 147 196 244 304 368 438
#     4  12  26  43  71 105 148 190 239 298 362 446
#
# _framework density 22.998830999999999
#
# number of rings (size 3 to 8) (size 9 to 14) (size 15 to 20)
#    0.000    0.800    3.200    2.880    4.480    4.480 
#    2.880    3.200    0.000    0.000    0.000    0.000 
#    0.000    0.000    0.000    0.000    0.000    0.000 
#
# Total GULP energy -619509.595550 kJ/mol
# GULP energy per Si atom -12390.191911 kJ/mol
# Density = 2.294648 g / cm^3
# Si number density = 22.998831 Si / 1000 Ang^3
#
#
#
# Elastic Constant Matrix: (Units=GPa)
#
#
# Indices 1 2 3 4 5 6 
#
# 1 97.7586 15.1202 20.7987 0.0000 0.0000 0.0000
# 2 15.1202 97.7586 20.7987 0.0000 0.0000 0.0000
# 3 20.7987 20.7987 105.3445 0.0000 0.0000 0.0000
# 4 0.0000 0.0000 0.0000 19.4895 0.0000 0.0000
# 5 0.0000 0.0000 0.0000 0.0000 19.4895 0.0000
# 6 0.0000 0.0000 0.0000 0.0000 0.0000 28.1845
#
#
#
# Elastic Compliance Matrix: (Units=1/GPa)
#
#
# Indices 1 2 3 4 5 6 
#
# 1 0.010828 -0.001273 -0.001886 0.000000 0.000000 0.000000
# 2 -0.001273 0.010828 -0.001886 0.000000 0.000000 0.000000
# 3 -0.001886 -0.001886 0.010238 0.000000 0.000000 0.000000
# 4 0.000000 0.000000 0.000000 0.051310 0.000000 0.000000
# 5 0.000000 0.000000 0.000000 0.000000 0.051310 0.000000
# 6 0.000000 0.000000 0.000000 0.000000 0.000000 0.035481
#
#
# Mechanical properties :
#
#
# Convention : Reuss Voigt Hill
#
# Bulk Modulus (GPa) = 45.87034 46.03300 45.95167
# Shear Modulus (GPa) = 26.68783 29.70898 28.19840
#
# Velocity S-wave (km/s) = 3.41016 3.59801 3.50534
# Velocity P-wave (km/s) = 5.95764 6.10898 6.03379
#
# Compressibility (1/GPa) = 0.02180058
#
# Stress axis : x y z
#
# Youngs Moduli (GPa) = 92.35697 92.35697 97.67992
#
# Poissons Ratio (x) = 0.11760 0.18426
# Poissons Ratio (y) = 0.11760 0.18426
# Poissons Ratio (z) = 0.17422 0.17422
#
# Static dielectric constant tensor:
#      x y z
#    x 4.338870 0.000000 0.000000 
#    y 0.000000 4.338870 0.000000 
#    z 0.000000 0.000000 4.198070 
# 
# 
# High freq. dielectric constant tensor:
#      x y z
#    x 1.925670 0.000000 0.000000 
#    y 0.000000 1.925670 0.000000 
#    z 0.000000 0.000000 1.901410 
# 
# From -- ./inp_files/2193.got.cif
#   From: 2010.03.12/outbox.cif.g09.slc.cpg/sg90_2_cif.got.tgz:2193.got - 2010.04.08 20:26:03.
