data_PCOD8304531
_publ_section_title
;
Structure prediction by ZEFSAII (Michael W. Deem and Ramdas Pophale) SiO2 
 PCOD8304531
Probable space group: P 4 21 2
;
_chemical_formula_sum "Si O2"
_cell_formula_units_Z 48
_cell_length_a 15.007618
_cell_length_b 15.007618
_cell_length_c 11.996439
_cell_angle_alpha 90.000000
_cell_angle_beta 90.000000
_cell_angle_gamma 90.000000
_cell_volume 2701.941137
_symmetry_space_group_name_H-M "P 4 21 2"
_symmetry_group_IT_number 90
_symmetry_cell_setting 'tetragonal'
loop_
_space_group_symop_operation_xyz
x,y,z
1/2-y,1/2+x,z
-x,-y,z
1/2+y,1/2-x,z
1/2+x,1/2-y,-z
1/2-x,1/2+y,-z
y,x,-z
-y,-x,-z
loop_
_atom_site_type_symbol
_atom_site_label
_atom_site_fract_x
_atom_site_fract_y
_atom_site_fract_z
Si Si1 0.819248 0.708578 0.247325
Si Si2 0.417394 0.878707 0.956015
Si Si3 0.171390 0.083643 0.601310
Si Si4 0.098871 0.008198 0.236693
Si Si5 0.126139 0.217667 0.898976
Si Si6 0.166819 0.882195 0.617274
O O1 0.882302 0.658919 0.160388
O O2 0.882197 0.735386 0.349793
O O3 0.775409 0.796673 0.193550
O O4 0.742593 0.645175 0.295334
O O5 0.523459 0.877319 0.963993
O O6 0.385859 0.818625 0.059357
O O7 0.146778 0.146778 0.500000
O O8 0.094723 0.090816 0.690054
O O9 0.182159 0.981016 0.569749
O O10 0.175801 0.032491 0.146503
O O11 0.127186 0.924944 0.313245
O O12 0.000000 0.000000 0.180701
O O13 0.154320 0.154320 0.000000
O O14 0.171869 0.828132 0.500000
#
# Coordination Sequence:
#
# PCOD8304531 Si02
#       6
#     8   8   8   8   8   8
#     4  10  21  35  53  81 108 137 182 233 274 316
#     4  10  21  38  58  76 103 146 187 226 277 337
#     4  10  18  34  53  74 113 144 171 221 269 327
#     4   9  19  32  53  81 111 144 175 219 274 329
#     4   9  20  37  54  78 111 141 182 231 279 327
#     4  11  20  32  56  83 107 145 187 219 275 344
#
# _framework density 17.765004999999999
#
# number of rings (size 3 to 8) (size 9 to 14) (size 15 to 20)
#    0.000    2.167    1.667    1.500    2.333    1.667 
#    0.000    0.000    0.000    0.000    0.000    0.000 
#    0.000    0.000    0.000    0.000    0.000    0.000 
#
# Total GULP energy -594863.506820 kJ/mol
# GULP energy per Si atom -12392.989725 kJ/mol
# Density = 1.772457 g / cm^3
# Si number density = 17.765005 Si / 1000 Ang^3
#
#
#
# Elastic Constant Matrix: (Units=GPa)
#
#
# Indices 1 2 3 4 5 6 
#
# 1 507.0169 -382.9473 36.9849 0.0000 0.0000 0.0000
# 2 -382.9473 507.0044 36.9787 0.0000 0.0000 0.0000
# 3 36.9849 36.9787 81.4022 0.0000 0.0000 0.0000
# 4 0.0000 0.0000 0.0000 26.9423 0.0000 0.0000
# 5 0.0000 0.0000 0.0000 0.0000 26.9419 0.0000
# 6 0.0000 0.0000 0.0000 0.0000 0.0000 24.0983
#
#
#
# Elastic Compliance Matrix: (Units=1/GPa)
#
#
# Indices 1 2 3 4 5 6 
#
# 1 0.006089 0.004965 -0.005022 0.000000 0.000000 0.000000
# 2 0.004965 0.006089 -0.005022 0.000000 0.000000 0.000000
# 3 -0.005022 -0.005022 0.016848 0.000000 0.000000 0.000000
# 4 0.000000 0.000000 0.000000 0.037116 0.000000 0.000000
# 5 0.000000 0.000000 0.000000 0.000000 0.037117 0.000000
# 6 0.000000 0.000000 0.000000 0.000000 0.000000 0.041497
#
#
# Mechanical properties :
#
#
# Convention : Reuss Voigt Hill
#
# Bulk Modulus (GPa) = 52.99909 53.05068 53.02489
# Shear Modulus (GPa) = 31.01677 109.22367 70.12022
#
# Velocity S-wave (km/s) = 4.18299 7.84958 6.28941
# Velocity P-wave (km/s) = 7.29575 10.58687 9.09148
#
# Compressibility (1/GPa) = 0.01886825
#
# Stress axis : x y z
#
# Youngs Moduli (GPa) = 164.22982 164.22751 59.35451
#
# Poissons Ratio (x) = -0.81546 0.29809
# Poissons Ratio (y) = -0.81547 0.29809
# Poissons Ratio (z) = 0.82479 0.82477
#
# Static dielectric constant tensor:
#      x y z
#    x 3.387010 0.000000 0.000000 
#    y 0.000000 3.387010 0.000000 
#    z 0.000000 0.000000 2.933910 
# 
# 
# High freq. dielectric constant tensor:
#      x y z
#    x 1.685130 0.000000 0.000000 
#    y 0.000000 1.685130 0.000000 
#    z 0.000000 0.000000 1.687180 
# 
# From -- ./inp_files/2124.got.cif
#   From: 2010.03.12/outbox.cif.g09.slc.cpg/sg90_2_cif.got.tgz:2124.got - 2010.04.08 20:26:03.
