data_PCOD8304990
_publ_section_title
;
Structure prediction by ZEFSAII (Michael W. Deem and Ramdas Pophale) SiO2 
 PCOD8304990
Probable space group: P 41 2 2
;
_chemical_formula_sum "Si O2"
_cell_formula_units_Z 64
_cell_length_a 11.508032
_cell_length_b 11.508032
_cell_length_c 22.602902
_cell_angle_alpha 90.000000
_cell_angle_beta 90.000000
_cell_angle_gamma 90.000000
_cell_volume 2993.410817
_symmetry_space_group_name_H-M "P 41 2 2"
_symmetry_group_IT_number 91
_symmetry_cell_setting 'tetragonal'
loop_
_space_group_symop_operation_xyz
x,y,z
-y,x,1/4+z
-x,-y,1/2+z
y,-x,3/4+z
x,-y,1/2-z
-x,y,-z
y,x,3/4-z
-y,-x,1/4-z
loop_
_atom_site_type_symbol
_atom_site_label
_atom_site_fract_x
_atom_site_fract_y
_atom_site_fract_z
Si Si1 0.673632 0.318363 0.780136
Si Si2 0.912762 0.233150 0.267701
Si Si3 0.598674 0.233169 0.904237
Si Si4 0.506361 0.167583 0.402288
Si Si5 0.117725 0.696816 0.526075
Si Si6 0.450934 0.308334 0.712117
Si Si7 0.843504 0.245931 0.686858
Si Si8 0.077006 0.619854 0.651453
O O1 0.631319 0.243213 0.835595
O O2 0.756338 0.423344 0.799977
O O3 0.558979 0.368114 0.746210
O O4 0.743296 0.230386 0.736423
O O5 0.851164 0.305039 0.319184
O O6 0.827765 0.128517 0.249189
O O7 0.937573 0.310324 0.210904
O O8 0.036444 0.186564 0.291321
O O9 0.597167 0.359416 0.936640
O O10 0.473064 0.178241 0.912385
O O11 0.492633 0.238817 0.342172
O O12 0.383174 0.137002 0.429993
O O13 0.566835 0.047301 0.385912
O O14 0.224538 0.616637 0.506959
O O15 0.114573 0.701660 0.597148
O O16 0.000000 0.642098 0.500000
O O17 0.811486 0.188515 0.625000
#
# Coordination Sequence:
#
# PCOD8304990 Si02
#       8
#     8   8   8   8   8   8   8   8
#     4  11  22  41  66 100 140 175 228 283 349 420
#     4  11  25  42  64  99 133 176 238 294 337 426
#     4  10  23  39  67  95 137 181 225 287 337 416
#     4  11  22  38  69 100 132 185 235 280 348 426
#     4  11  23  42  69  96 134 180 231 289 356 416
#     4  10  21  41  63 101 142 178 229 281 347 426
#     4  12  24  42  68  99 138 183 230 283 353 424
#     4  12  21  41  71  98 129 185 236 288 349 414
#
# _framework density 21.380292000000001
#
# number of rings (size 3 to 8) (size 9 to 14) (size 15 to 20)
#    0.000    1.000    6.250    1.125    0.000    0.000 
#    0.000    9.375    2.750    0.000    0.000    0.000 
#    0.000    0.000    0.000    0.000    0.000    0.000 
#
# Total GULP energy -793687.438904 kJ/mol
# GULP energy per Si atom -12401.366233 kJ/mol
# Density = 2.133163 g / cm^3
# Si number density = 21.380292 Si / 1000 Ang^3
#
#
#
# Elastic Constant Matrix: (Units=GPa)
#
#
# Indices 1 2 3 4 5 6 
#
# 1 81.5390 11.5270 35.2658 0.0000 0.0000 0.0000
# 2 11.5270 81.5378 35.2655 0.0000 0.0000 0.0000
# 3 35.2658 35.2655 144.1566 0.0000 0.0000 0.0000
# 4 0.0000 0.0000 0.0000 34.5821 0.0000 0.0000
# 5 0.0000 0.0000 0.0000 0.0000 34.5823 0.0000
# 6 0.0000 0.0000 0.0000 0.0000 0.0000 19.8570
#
#
#
# Elastic Compliance Matrix: (Units=1/GPa)
#
#
# Indices 1 2 3 4 5 6 
#
# 1 0.013737 -0.000546 -0.003227 0.000000 0.000000 0.000000
# 2 -0.000546 0.013737 -0.003227 0.000000 0.000000 0.000000
# 3 -0.003227 -0.003227 0.008516 0.000000 0.000000 0.000000
# 4 0.000000 0.000000 0.000000 0.028917 0.000000 0.000000
# 5 0.000000 0.000000 0.000000 0.000000 0.028917 0.000000
# 6 0.000000 0.000000 0.000000 0.000000 0.000000 0.050360
#
#
# Mechanical properties :
#
#
# Convention : Reuss Voigt Hill
#
# Bulk Modulus (GPa) = 45.47620 52.37222 48.92421
# Shear Modulus (GPa) = 30.20905 32.81594 31.51250
#
# Velocity S-wave (km/s) = 3.76299 3.92199 3.84331
# Velocity P-wave (km/s) = 6.34006 6.71253 6.52895
#
# Compressibility (1/GPa) = 0.02198952
#
# Stress axis : x y z
#
# Youngs Moduli (GPa) = 72.79637 72.79530 117.42980
#
# Poissons Ratio (x) = 0.03977 0.37893
# Poissons Ratio (y) = 0.03977 0.37894
# Poissons Ratio (z) = 0.23491 0.23490
#
# Static dielectric constant tensor:
#      x y z
#    x 3.785770 0.000000 0.000000 
#    y 0.000000 3.785770 0.000000 
#    z 0.000000 0.000000 4.109130 
# 
# 
# High freq. dielectric constant tensor:
#      x y z
#    x 1.827300 0.000000 0.000000 
#    y 0.000000 1.827300 0.000000 
#    z 0.000000 0.000000 1.864510 
# 
# From -- ./inp_files/21858.got.cif
#   From: 2010.03.12/outbox.cif.g09.slc.cpg/sg91_11_cif.got.tgz:21858.got - 2010.04.08 20:27:58.
