data_PCOD8304899
_publ_section_title
;
Structure prediction by ZEFSAII (Michael W. Deem and Ramdas Pophale) SiO2 
 PCOD8304899
Probable space group: P 41 2 2
;
_chemical_formula_sum "Si O2"
_cell_formula_units_Z 36
_cell_length_a 12.635447
_cell_length_b 12.635447
_cell_length_c 10.964575
_cell_angle_alpha 90.000000
_cell_angle_beta 90.000000
_cell_angle_gamma 90.000000
_cell_volume 1750.543968
_symmetry_space_group_name_H-M "P 41 2 2"
_symmetry_group_IT_number 91
_symmetry_cell_setting 'tetragonal'
loop_
_space_group_symop_operation_xyz
x,y,z
-y,x,1/4+z
-x,-y,1/2+z
y,-x,3/4+z
x,-y,1/2-z
-x,y,-z
y,x,3/4-z
-y,-x,1/4-z
loop_
_atom_site_type_symbol
_atom_site_label
_atom_site_fract_x
_atom_site_fract_y
_atom_site_fract_z
Si Si1 0.891983 0.354336 0.888176
Si Si2 0.401559 0.188823 0.090337
Si Si3 0.000000 0.463563 0.500000
Si Si4 0.101461 0.741172 0.645293
Si Si5 0.377040 0.326623 0.508034
O O1 0.952663 0.466560 0.888975
O O2 0.792734 0.365269 0.802124
O O3 0.974723 0.266490 0.835223
O O4 0.863060 0.329027 0.028361
O O5 0.400407 0.305466 0.153499
O O6 0.397252 0.096779 0.192901
O O7 0.500000 0.182348 0.000000
O O8 0.296831 0.169704 0.010999
O O9 0.136595 0.863406 0.625000
O O10 0.500000 0.364045 0.500000
O O11 0.328138 0.328138 0.375000
#
# Coordination Sequence:
#
# PCOD8304899 Si02
#       5
#     8   8   4   8   8
#     4  10  21  40  67  93 132 168 228 304 340 397
#     4  12  23  40  72  99 132 185 236 287 349 433
#     4  10  22  38  68 106 120 168 242 306 332 394
#     4  10  20  38  66  97 125 163 224 287 343 416
#     4  12  29  44  62  99 148 187 228 293 362 424
#
# _framework density 20.565035000000002
#
# number of rings (size 3 to 8) (size 9 to 14) (size 15 to 20)
#    0.000    1.333    6.667    1.333    6.222    0.889 
#    0.000    0.000    0.000    8.000    0.000    0.000 
#    0.000    0.000    0.000    0.000    0.000    0.000 
#
# Total GULP energy -446126.981115 kJ/mol
# GULP energy per Si atom -12392.416142 kJ/mol
# Density = 2.051823 g / cm^3
# Si number density = 20.565035 Si / 1000 Ang^3
#
#
#
# Elastic Constant Matrix: (Units=GPa)
#
#
# Indices 1 2 3 4 5 6 
#
# 1 109.5321 40.3149 43.0743 0.0000 0.0000 0.0000
# 2 40.3149 109.5310 43.0741 0.0000 0.0000 0.0000
# 3 43.0743 43.0741 103.4090 0.0000 0.0000 0.0000
# 4 0.0000 0.0000 0.0000 30.6452 0.0000 0.0000
# 5 0.0000 0.0000 0.0000 0.0000 30.6455 0.0000
# 6 0.0000 0.0000 0.0000 0.0000 0.0000 36.5661
#
#
#
# Elastic Compliance Matrix: (Units=1/GPa)
#
#
# Indices 1 2 3 4 5 6 
#
# 1 0.011611 -0.002836 -0.003655 0.000000 0.000000 0.000000
# 2 -0.002836 0.011611 -0.003655 0.000000 0.000000 0.000000
# 3 -0.003655 -0.003655 0.012715 0.000000 0.000000 0.000000
# 4 0.000000 0.000000 0.000000 0.032631 0.000000 0.000000
# 5 0.000000 0.000000 0.000000 0.000000 0.032631 0.000000
# 6 0.000000 0.000000 0.000000 0.000000 0.000000 0.027348
#
#
# Mechanical properties :
#
#
# Convention : Reuss Voigt Hill
#
# Bulk Modulus (GPa) = 63.91957 63.93320 63.92638
# Shear Modulus (GPa) = 32.45576 32.63862 32.54719
#
# Velocity S-wave (km/s) = 3.97697 3.98816 3.98257
# Velocity P-wave (km/s) = 7.22755 7.23623 7.23189
#
# Compressibility (1/GPa) = 0.01564466
#
# Stress axis : x y z
#
# Youngs Moduli (GPa) = 86.12481 86.12390 78.64514
#
# Poissons Ratio (x) = 0.24427 0.28745
# Poissons Ratio (y) = 0.24427 0.28746
# Poissons Ratio (z) = 0.31479 0.31479
#
# Static dielectric constant tensor:
#      x y z
#    x 3.830750 0.000000 0.000000 
#    y 0.000000 3.830760 0.000000 
#    z 0.000000 0.000000 3.796690 
# 
# 
# High freq. dielectric constant tensor:
#      x y z
#    x 1.790610 0.000000 0.000000 
#    y 0.000000 1.790610 0.000000 
#    z 0.000000 0.000000 1.811080 
# 
# From -- ./inp_files/10520.got.cif
#   From: 2010.03.12/outbox.cif.g09.slc.cpg/sg91_6_cif.got.tgz:10520.got - 2010.04.08 20:27:58.
