data_PCOD8304669
_publ_section_title
;
Structure prediction by ZEFSAII (Michael W. Deem and Ramdas Pophale) SiO2 
 PCOD8304669
Probable space group: P 4 21 2
;
_chemical_formula_sum "Si O2"
_cell_formula_units_Z 38
_cell_length_a 8.188327
_cell_length_b 8.188327
_cell_length_c 25.973436
_cell_angle_alpha 90.000000
_cell_angle_beta 90.000000
_cell_angle_gamma 90.000000
_cell_volume 1741.485094
_symmetry_space_group_name_H-M "P 4 21 2"
_symmetry_group_IT_number 90
_symmetry_cell_setting 'tetragonal'
loop_
_space_group_symop_operation_xyz
x,y,z
1/2-y,1/2+x,z
-x,-y,z
1/2+y,1/2-x,z
1/2+x,1/2-y,-z
1/2-x,1/2+y,-z
y,x,-z
-y,-x,-z
loop_
_atom_site_type_symbol
_atom_site_label
_atom_site_fract_x
_atom_site_fract_y
_atom_site_fract_z
Si Si1 0.760137 0.071105 0.828625
Si Si2 0.076262 0.755493 0.287000
Si Si3 0.000000 0.000000 0.367649
Si Si4 0.081597 0.239844 0.547911
Si Si5 0.235661 0.964812 0.091412
Si Si6 0.500000 0.500000 0.000000
O O1 0.611603 0.196542 0.838350
O O2 0.827165 0.095385 0.770578
O O3 0.913266 0.098533 0.866912
O O4 0.199965 0.609067 0.295103
O O5 0.112826 0.888594 0.330647
O O6 0.874359 0.893667 0.402054
O O7 0.202968 0.393444 0.547206
O O8 0.123530 0.123530 0.500000
O O9 0.363239 0.819567 0.099833
O O10 0.160763 0.983820 0.034725
#
# Coordination Sequence:
#
# PCOD8304669 Si02
#       6
#     8   8   4   8   8   2
#     4   9  19  38  63  90 122 162 203 241 290 357
#     4   9  20  37  58  88 125 165 204 239 289 362
#     4  12  21  35  60  90 123 159 202 258 310 352
#     4  11  24  42  63  88 120 160 209 262 318 377
#     4  11  24  40  61  89 117 151 199 251 302 356
#     4  12  24  42  60  80 118 160 192 240 306 372
#
# _framework density 21.820456
#
# number of rings (size 3 to 8) (size 9 to 14) (size 15 to 20)
#    0.000    1.684    0.000    6.000    0.000    4.211 
#    0.000    4.211    0.000    2.526    0.000    0.000 
#    0.000    0.000    0.000    0.000    0.000    0.000 
#
# Total GULP energy -470994.948813 kJ/mol
# GULP energy per Si atom -12394.603916 kJ/mol
# Density = 2.177079 g / cm^3
# Si number density = 21.820456 Si / 1000 Ang^3
#
#
#
# Elastic Constant Matrix: (Units=GPa)
#
#
# Indices 1 2 3 4 5 6 
#
# 1 88.6088 41.7028 58.3034 0.0000 0.0000 0.0000
# 2 41.7028 88.6088 58.3034 0.0000 0.0000 0.0000
# 3 58.3034 58.3034 170.9012 0.0000 0.0000 0.0000
# 4 0.0000 0.0000 0.0000 22.4258 0.0000 0.0000
# 5 0.0000 0.0000 0.0000 0.0000 22.4258 0.0000
# 6 0.0000 0.0000 0.0000 0.0000 0.0000 46.6006
#
#
#
# Elastic Compliance Matrix: (Units=1/GPa)
#
#
# Indices 1 2 3 4 5 6 
#
# 1 0.016183 -0.005137 -0.003768 0.000000 0.000000 0.000000
# 2 -0.005137 0.016183 -0.003768 0.000000 0.000000 0.000000
# 3 -0.003768 -0.003768 0.008423 0.000000 0.000000 0.000000
# 4 0.000000 0.000000 0.000000 0.044591 0.000000 0.000000
# 5 0.000000 0.000000 0.000000 0.000000 0.044591 0.000000
# 6 0.000000 0.000000 0.000000 0.000000 0.000000 0.021459
#
#
# Mechanical properties :
#
#
# Convention : Reuss Voigt Hill
#
# Bulk Modulus (GPa) = 64.76271 73.85979 69.31125
# Shear Modulus (GPa) = 27.48412 30.94439 29.21425
#
# Velocity S-wave (km/s) = 3.55287 3.76990 3.66300
# Velocity P-wave (km/s) = 6.82457 7.27131 7.05148
#
# Compressibility (1/GPa) = 0.01544098
#
# Stress axis : x y z
#
# Youngs Moduli (GPa) = 61.79477 61.79477 118.72941
#
# Poissons Ratio (x) = 0.31742 0.44742
# Poissons Ratio (y) = 0.31742 0.44742
# Poissons Ratio (z) = 0.23287 0.23287
#
# Static dielectric constant tensor:
#      x y z
#    x 3.856520 0.000000 0.000000 
#    y 0.000000 3.856520 0.000000 
#    z 0.000000 0.000000 3.969980 
# 
# 
# High freq. dielectric constant tensor:
#      x y z
#    x 1.859990 0.000000 0.000000 
#    y 0.000000 1.859990 0.000000 
#    z 0.000000 0.000000 1.864520 
# 
# From -- ./inp_files/2897.got.cif
#   From: 2010.03.12/outbox.cif.g09.slc.cpg/sg90_2_cif.got.tgz:2897.got - 2010.04.08 20:26:03.
