data_PCOD8304390
_publ_section_title
;
Structure prediction by ZEFSAII (Michael W. Deem and Ramdas Pophale) SiO2 
 PCOD8304390
Probable space group: I 41/A
;
_chemical_formula_sum "Si O2"
_cell_formula_units_Z 72
_cell_length_a 18.962898
_cell_length_b 18.962898
_cell_length_c 7.749383
_cell_angle_alpha 90.000000
_cell_angle_beta 90.000000
_cell_angle_gamma 90.000000
_cell_volume 2786.612261
_symmetry_space_group_name_H-M "I 41/A"
_symmetry_group_IT_number 88
_space_group.IT_coordinate_system_code '2'
_symmetry_cell_setting 'tetragonal'
loop_
_space_group_symop_operation_xyz
x,y,z
3/4-y,1/4+x,1/4+z
-x,1/2-y,z
1/4+y,1/4-x,1/4+z
-x,-y,-z
1/4+y,3/4-x,3/4-z
x,1/2+y,-z
3/4-y,3/4+x,3/4-z
1/2+x,1/2+y,1/2+z
1/4-y,3/4+x,3/4+z
1/2-x,-y,1/2+z
3/4+y,3/4-x,3/4+z
1/2-x,1/2-y,1/2-z
3/4+y,1/4-x,1/4-z
1/2+x,y,1/2-z
1/4-y,1/4+x,1/4-z
loop_
_atom_site_type_symbol
_atom_site_label
_atom_site_fract_x
_atom_site_fract_y
_atom_site_fract_z
Si Si1 0.353242 0.293282 0.928157
Si Si2 0.308079 0.938300 0.985553
Si Si3 0.500000 0.250000 0.875000
Si Si4 0.906278 0.130645 0.293557
Si Si5 0.269848 0.162839 0.028198
Si Si6 0.500000 0.250000 0.375000
O O1 0.337150 0.359945 0.049119
O O2 0.428965 0.260787 0.989844
O O3 0.357118 0.316778 0.731004
O O4 0.291853 0.236737 0.943513
O O5 0.227461 0.936663 0.052816
O O6 0.352770 0.977586 0.132520
O O7 0.916792 0.062739 0.166428
O O8 0.822136 0.148504 0.309322
O O9 0.952659 0.196528 0.235544
#
# Coordination Sequence:
#
# PCOD8304390 Si02
#       6
#    16  16   4  16  16   4
#     4  11  22  39  70 102 128 175 228 286 328 413
#     4  11  23  43  67  98 139 179 229 293 348 412
#     4  12  18  32  68 102 132 166 220 272 338 388
#     4  11  25  45  68  97 141 176 231 280 342 409
#     4  11  22  42  73  99 131 173 233 284 339 410
#     4  12  30  48  66  96 144 194 212 286 352 408
#
# _framework density 25.837823
#
# number of rings (size 3 to 8) (size 9 to 14) (size 15 to 20)
#    0.000    0.889    8.889    1.333    0.000    0.889 
#    4.000    0.000    4.889    0.000    0.000    0.000 
#    0.000    0.000    0.000    0.000    0.000    0.000 
#
# Total GULP energy -446334.378338 kJ/mol
# GULP energy per Si atom -12398.177176 kJ/mol
# Density = 2.577902 g / cm^3
# Si number density = 25.837823 Si / 1000 Ang^3
#
#
#
# Elastic Constant Matrix: (Units=GPa)
#
#
# Indices 1 2 3 4 5 6 
#
# 1 175.6246 66.3064 33.4874 0.0000 0.0000 3.9026
# 2 66.3064 175.6246 33.4874 0.0000 0.0000 -3.9026
# 3 33.4874 33.4874 36.2073 0.0000 0.0000 0.0000
# 4 0.0000 0.0000 0.0000 12.4136 0.0000 0.0000
# 5 0.0000 0.0000 0.0000 0.0000 12.4136 0.0000
# 6 3.9026 -3.9026 0.0000 0.0000 0.0000 31.0456
#
#
#
# Elastic Compliance Matrix: (Units=1/GPa)
#
#
# Indices 1 2 3 4 5 6 
#
# 1 0.007393 -0.001837 -0.005139 0.000000 0.000000 -0.001160
# 2 -0.001837 0.007393 -0.005139 0.000000 0.000000 0.001160
# 3 -0.005139 -0.005139 0.037124 0.000000 0.000000 0.000000
# 4 0.000000 0.000000 0.000000 0.080557 0.000000 0.000000
# 5 0.000000 0.000000 0.000000 0.000000 0.080557 0.000000
# 6 -0.001160 0.001160 0.000000 0.000000 0.000000 0.032502
#
#
# Mechanical properties :
#
#
# Convention : Reuss Voigt Hill
#
# Bulk Modulus (GPa) = 36.12529 72.66877 54.39703
# Shear Modulus (GPa) = 17.92225 28.11956 23.02090
#
# Velocity S-wave (km/s) = 2.63657 3.30253 2.98816
# Velocity P-wave (km/s) = 4.82499 6.53669 5.74495
#
# Compressibility (1/GPa) = 0.02768144
#
# Stress axis : x y z
#
# Youngs Moduli (GPa) = 135.25945 135.25945 26.93686
#
# Poissons Ratio (x) = 0.24851 0.13842
# Poissons Ratio (y) = 0.24851 0.13842
# Poissons Ratio (z) = 0.69504 0.69504
#
# Static dielectric constant tensor:
#      x y z
#    x 5.227120 0.000000 0.000000 
#    y 0.000000 5.227120 0.000000 
#    z 0.000000 0.000000 3.941820 
# 
# 
# High freq. dielectric constant tensor:
#      x y z
#    x 2.052890 0.000000 0.000000 
#    y 0.000000 2.052890 0.000000 
#    z 0.000000 0.000000 1.985660 
# 
# From -- ./inp_files/2465.got.cif
#   From: 2010.03.12/outbox.cif.g09.slc.cpg/sg88_2_cif.got.tgz:2465.got - 2010.04.08 20:20:55.
