data_PCOD8304574
_publ_section_title
;
Structure prediction by ZEFSAII (Michael W. Deem and Ramdas Pophale) SiO2 
 PCOD8304574
Probable space group: P 4 21 2
;
_chemical_formula_sum "Si O2"
_cell_formula_units_Z 40
_cell_length_a 14.102566
_cell_length_b 14.102566
_cell_length_c 9.136748
_cell_angle_alpha 90.000000
_cell_angle_beta 90.000000
_cell_angle_gamma 90.000000
_cell_volume 1817.138076
_symmetry_space_group_name_H-M "P 4 21 2"
_symmetry_group_IT_number 90
_symmetry_cell_setting 'tetragonal'
loop_
_space_group_symop_operation_xyz
x,y,z
1/2-y,1/2+x,z
-x,-y,z
1/2+y,1/2-x,z
1/2+x,1/2-y,-z
1/2-x,1/2+y,-z
y,x,-z
-y,-x,-z
loop_
_atom_site_type_symbol
_atom_site_label
_atom_site_fract_x
_atom_site_fract_y
_atom_site_fract_z
Si Si1 0.780929 0.954321 0.847353
Si Si2 0.277100 0.166672 0.386609
Si Si3 0.591979 0.122528 0.650936
Si Si4 0.045908 0.176000 0.832328
Si Si5 0.328972 0.336264 0.166939
O O1 0.708320 0.880579 0.764040
O O2 0.887213 0.916036 0.823380
O O3 0.775098 0.065008 0.794406
O O4 0.761385 0.945604 0.019856
O O5 0.194797 0.194797 0.500000
O O6 0.362924 0.127594 0.485467
O O7 0.247182 0.074867 0.295835
O O8 0.304025 0.255814 0.284791
O O9 0.480491 0.129022 0.685962
O O10 0.939548 0.139576 0.816588
O O11 0.304356 0.304356 0.000000
#
# Coordination Sequence:
#
# PCOD8304574 Si02
#       5
#     8   8   8   8   8
#     4  10  21  40  67  92 129 166 217 270 334 395
#     4  12  23  39  62  91 127 172 215 263 326 395
#     4  11  24  42  63  91 132 177 219 268 324 393
#     4  10  22  39  64  96 127 167 213 277 330 389
#     4  10  23  41  67  97 129 169 223 277 334 396
#
# _framework density 22.012637999999999
#
# number of rings (size 3 to 8) (size 9 to 14) (size 15 to 20)
#    0.000    1.400    2.000    3.000    2.800    4.000 
#    0.000    0.000    0.000    2.400    0.000    0.000 
#    0.000    0.000    0.000    0.000    0.000    0.000 
#
# Total GULP energy -495628.906099 kJ/mol
# GULP energy per Si atom -12390.722652 kJ/mol
# Density = 2.196254 g / cm^3
# Si number density = 22.012638 Si / 1000 Ang^3
#
#
#
# Elastic Constant Matrix: (Units=GPa)
#
#
# Indices 1 2 3 4 5 6 
#
# 1 71.2701 -5.3682 33.2551 0.0000 0.0000 0.0000
# 2 -5.3682 71.2701 33.2551 0.0000 0.0000 0.0000
# 3 33.2551 33.2551 115.6711 0.0000 0.0000 0.0000
# 4 0.0000 0.0000 0.0000 35.7225 0.0000 0.0000
# 5 0.0000 0.0000 0.0000 0.0000 35.7225 0.0000
# 6 0.0000 0.0000 0.0000 0.0000 0.0000 34.2414
#
#
#
# Elastic Compliance Matrix: (Units=1/GPa)
#
#
# Indices 1 2 3 4 5 6 
#
# 1 0.017212 0.004164 -0.006146 0.000000 0.000000 0.000000
# 2 0.004164 0.017212 -0.006146 0.000000 0.000000 0.000000
# 3 -0.006146 -0.006146 0.012179 0.000000 0.000000 0.000000
# 4 0.000000 0.000000 0.000000 0.027994 0.000000 0.000000
# 5 0.000000 0.000000 0.000000 0.000000 0.027994 0.000000
# 6 0.000000 0.000000 0.000000 0.000000 0.000000 0.029204
#
#
# Mechanical properties :
#
#
# Convention : Reuss Voigt Hill
#
# Bulk Modulus (GPa) = 32.94986 42.27728 37.61357
# Shear Modulus (GPa) = 31.61232 34.27522 32.94377
#
# Velocity S-wave (km/s) = 3.79370 3.95025 3.87277
# Velocity P-wave (km/s) = 5.84728 6.32879 6.09279
#
# Compressibility (1/GPa) = 0.03034915
#
# Stress axis : x y z
#
# Youngs Moduli (GPa) = 58.09774 58.09774 82.10912
#
# Poissons Ratio (x) = -0.24192 0.50461
# Poissons Ratio (y) = -0.24192 0.50461
# Poissons Ratio (z) = 0.35705 0.35705
#
# Static dielectric constant tensor:
#      x y z
#    x 3.962840 0.000000 0.000000 
#    y 0.000000 3.962840 0.000000 
#    z 0.000000 0.000000 4.215290 
# 
# 
# High freq. dielectric constant tensor:
#      x y z
#    x 1.870720 0.000000 0.000000 
#    y 0.000000 1.870720 0.000000 
#    z 0.000000 0.000000 1.868070 
# 
# From -- ./inp_files/1318.got.cif
#   From: 2010.03.12/outbox.cif.g09.slc.cpg/sg90_1_cif.got.tgz:1318.got - 2010.04.08 20:26:03.
