data_PCOD8304563
_publ_section_title
;
Structure prediction by ZEFSAII (Michael W. Deem and Ramdas Pophale) SiO2 
 PCOD8304563
Probable space group: P 4 21 2
;
_chemical_formula_sum "Si O2"
_cell_formula_units_Z 56
_cell_length_a 14.479221
_cell_length_b 14.479221
_cell_length_c 13.155331
_cell_angle_alpha 90.000000
_cell_angle_beta 90.000000
_cell_angle_gamma 90.000000
_cell_volume 2757.986739
_symmetry_space_group_name_H-M "P 4 21 2"
_symmetry_group_IT_number 90
_symmetry_cell_setting 'tetragonal'
loop_
_space_group_symop_operation_xyz
x,y,z
1/2-y,1/2+x,z
-x,-y,z
1/2+y,1/2-x,z
1/2+x,1/2-y,-z
1/2-x,1/2+y,-z
y,x,-z
-y,-x,-z
loop_
_atom_site_type_symbol
_atom_site_label
_atom_site_fract_x
_atom_site_fract_y
_atom_site_fract_z
Si Si1 0.806597 0.933008 0.376835
Si Si2 0.085645 0.625689 0.933807
Si Si3 0.723536 0.457618 0.398068
Si Si4 0.143957 0.867724 0.380647
Si Si5 0.166386 0.264058 0.080193
Si Si6 0.805310 0.306206 0.756546
Si Si7 0.042165 0.353930 0.221962
O O1 0.878131 0.850942 0.387179
O O2 0.752939 0.960229 0.481775
O O3 0.735262 0.901196 0.290297
O O4 0.862478 0.025241 0.346036
O O5 0.127446 0.523025 0.951067
O O6 0.104880 0.662495 0.819978
O O7 0.142173 0.687772 0.015361
O O8 0.683509 0.550855 0.346163
O O9 0.816500 0.437309 0.335410
O O10 0.147935 0.852066 0.500000
O O11 0.237469 0.826789 0.335114
O O12 0.237706 0.250375 0.170824
O O13 0.066949 0.275797 0.136583
O O14 0.177275 0.177275 0.000000
O O15 0.113193 0.438254 0.205565
#
# Coordination Sequence:
#
# PCOD8304563 Si02
#       7
#     8   8   8   8   8   8   8
#     4  10  21  37  58  85 118 162 198 249 294 357
#     4  10  21  38  59  83 114 149 188 240 300 364
#     4  10  21  36  60  84 120 157 207 242 295 360
#     4  10  22  37  58  87 121 160 202 244 296 361
#     4  10  21  36  56  83 112 152 198 244 300 364
#     4  11  21  36  59  86 117 148 199 244 300 353
#     4  11  22  37  60  93 127 159 199 255 319 374
#
# _framework density 20.304667999999999
#
# number of rings (size 3 to 8) (size 9 to 14) (size 15 to 20)
#    0.000    1.714    1.429    3.000    2.000    4.000 
#    0.000    0.000    0.000    1.714    0.000    3.000 
#    0.000    0.000    0.000    0.000    0.000    0.000 
#
# Total GULP energy -693884.033126 kJ/mol
# GULP energy per Si atom -12390.786306 kJ/mol
# Density = 2.025845 g / cm^3
# Si number density = 20.304668 Si / 1000 Ang^3
#
#
#
# Elastic Constant Matrix: (Units=GPa)
#
#
# Indices 1 2 3 4 5 6 
#
# 1 81.1256 26.3762 40.5076 0.0000 0.0000 0.0000
# 2 26.3762 81.1256 40.5074 0.0000 0.0000 0.0000
# 3 40.5076 40.5074 74.3975 0.0000 0.0000 0.0000
# 4 0.0000 0.0000 0.0000 35.6618 0.0000 0.0000
# 5 0.0000 0.0000 0.0000 0.0000 35.6618 0.0000
# 6 0.0000 0.0000 0.0000 0.0000 0.0000 27.4917
#
#
#
# Elastic Compliance Matrix: (Units=1/GPa)
#
#
# Indices 1 2 3 4 5 6 
#
# 1 0.017020 -0.001245 -0.008589 0.000000 0.000000 0.000000
# 2 -0.001245 0.017020 -0.008589 0.000000 0.000000 0.000000
# 3 -0.008589 -0.008589 0.022794 0.000000 0.000000 0.000000
# 4 0.000000 0.000000 0.000000 0.028041 0.000000 0.000000
# 5 0.000000 0.000000 0.000000 0.000000 0.028041 0.000000
# 6 0.000000 0.000000 0.000000 0.000000 0.000000 0.036375
#
#
# Mechanical properties :
#
#
# Convention : Reuss Voigt Hill
#
# Bulk Modulus (GPa) = 50.02979 50.15899 50.09439
# Shear Modulus (GPa) = 25.93352 28.38022 27.15687
#
# Velocity S-wave (km/s) = 3.57770 3.74266 3.66111
# Velocity P-wave (km/s) = 6.46217 6.59041 6.52660
#
# Compressibility (1/GPa) = 0.01998809
#
# Stress axis : x y z
#
# Youngs Moduli (GPa) = 58.75417 58.75440 43.87043
#
# Poissons Ratio (x) = 0.07315 0.37681
# Poissons Ratio (y) = 0.07315 0.37681
# Poissons Ratio (z) = 0.50465 0.50464
#
# Static dielectric constant tensor:
#      x y z
#    x 3.710150 0.000000 0.000000 
#    y 0.000000 3.710150 0.000000 
#    z 0.000000 0.000000 4.246060 
# 
# 
# High freq. dielectric constant tensor:
#      x y z
#    x 1.781540 0.000000 0.000000 
#    y 0.000000 1.781540 0.000000 
#    z 0.000000 0.000000 1.806950 
# 
# From -- ./inp_files/2544.got.cif
#   From: 2010.03.12/outbox.cif.g09.slc.cpg/sg90_2_cif.got.tgz:2544.got - 2010.04.08 20:26:03.
