data_PCOD8304694
_publ_section_title
;
Structure prediction by ZEFSAII (Michael W. Deem and Ramdas Pophale) SiO2 
 PCOD8304694
Probable space group: P 4 21 2
;
_chemical_formula_sum "Si O2"
_cell_formula_units_Z 56
_cell_length_a 11.638544
_cell_length_b 11.638544
_cell_length_c 21.240091
_cell_angle_alpha 90.000000
_cell_angle_beta 90.000000
_cell_angle_gamma 90.000000
_cell_volume 2877.091531
_symmetry_space_group_name_H-M "P 4 21 2"
_symmetry_group_IT_number 90
_symmetry_cell_setting 'tetragonal'
loop_
_space_group_symop_operation_xyz
x,y,z
1/2-y,1/2+x,z
-x,-y,z
1/2+y,1/2-x,z
1/2+x,1/2-y,-z
1/2-x,1/2+y,-z
y,x,-z
-y,-x,-z
loop_
_atom_site_type_symbol
_atom_site_label
_atom_site_fract_x
_atom_site_fract_y
_atom_site_fract_z
Si Si1 0.037460 0.312149 0.122161
Si Si2 0.183538 0.537782 0.585935
Si Si3 0.599986 0.416051 0.356561
Si Si4 0.036892 0.315918 0.442309
Si Si5 0.398893 0.583850 0.210964
Si Si6 0.460129 0.813167 0.150570
Si Si7 0.037996 0.315291 0.985959
O O1 0.133080 0.411219 0.129673
O O2 0.055465 0.217559 0.174770
O O3 0.051362 0.249312 0.052877
O O4 0.133431 0.412232 0.599184
O O5 0.286252 0.558932 0.633764
O O6 0.227351 0.546763 0.514111
O O7 0.500000 0.500000 0.380291
O O8 0.712615 0.442613 0.395707
O O9 0.628290 0.436847 0.283833
O O10 0.133101 0.411414 0.429357
O O11 0.500000 0.500000 0.187483
O O12 0.438129 0.715398 0.201756
O O13 0.586836 0.865853 0.159300
O O14 0.447553 0.750791 0.081204
O O15 0.132583 0.412714 0.985959
#
# Coordination Sequence:
#
# PCOD8304694 Si02
#       7
#     8   8   8   8   8   8   8
#     4   9  19  38  63  85 110 150 193 239 297 351
#     4   9  20  40  65  92 118 145 185 239 292 340
#     4  11  25  40  56  85 121 161 196 230 278 336
#     4   9  20  40  65  92 118 145 185 239 292 340
#     4  11  26  40  54  81 123 158 196 240 273 328
#     4   9  19  38  63  85 110 150 193 239 297 351
#     4   7  12  29  58  87 109 135 184 242 295 350
#
# _framework density 19.464099999999998
#
# number of rings (size 3 to 8) (size 9 to 14) (size 15 to 20)
#    0.000    2.714    0.000    3.000    4.000    4.000 
#    0.000    4.286    0.000    0.000    0.000    0.000 
#    0.000    0.000    0.000    0.000    0.000    0.000 
#
# Total GULP energy -694019.923589 kJ/mol
# GULP energy per Si atom -12393.212921 kJ/mol
# Density = 1.941980 g / cm^3
# Si number density = 19.464100 Si / 1000 Ang^3
#
#
#
# Elastic Constant Matrix: (Units=GPa)
#
#
# Indices 1 2 3 4 5 6 
#
# 1 77.1588 27.6100 19.1566 0.0000 0.0000 0.0000
# 2 27.6100 77.1588 19.1566 0.0000 0.0000 0.0000
# 3 19.1566 19.1566 44.9121 0.0000 0.0000 0.0000
# 4 0.0000 0.0000 0.0000 28.9156 0.0000 0.0000
# 5 0.0000 0.0000 0.0000 0.0000 28.9156 0.0000
# 6 0.0000 0.0000 0.0000 0.0000 0.0000 16.9618
#
#
#
# Elastic Compliance Matrix: (Units=1/GPa)
#
#
# Indices 1 2 3 4 5 6 
#
# 1 0.015745 -0.004437 -0.004824 0.000000 0.000000 0.000000
# 2 -0.004437 0.015745 -0.004824 0.000000 0.000000 0.000000
# 3 -0.004824 -0.004824 0.026381 0.000000 0.000000 0.000000
# 4 0.000000 0.000000 0.000000 0.034583 0.000000 0.000000
# 5 0.000000 0.000000 0.000000 0.000000 0.034583 0.000000
# 6 0.000000 0.000000 0.000000 0.000000 0.000000 0.058956
#
#
# Mechanical properties :
#
#
# Convention : Reuss Voigt Hill
#
# Bulk Modulus (GPa) = 33.66578 36.78624 35.22601
# Shear Modulus (GPa) = 22.31512 23.84571 23.08042
#
# Velocity S-wave (km/s) = 3.38964 3.50396 3.44727
# Velocity P-wave (km/s) = 5.71432 5.94229 5.82942
#
# Compressibility (1/GPa) = 0.02970376
#
# Stress axis : x y z
#
# Youngs Moduli (GPa) = 63.51045 63.51045 37.90670
#
# Poissons Ratio (x) = 0.28177 0.18285
# Poissons Ratio (y) = 0.28177 0.18285
# Poissons Ratio (z) = 0.30635 0.30635
#
# Static dielectric constant tensor:
#      x y z
#    x 3.413810 0.000000 0.000000 
#    y 0.000000 3.413810 0.000000 
#    z 0.000000 0.000000 3.680380 
# 
# 
# High freq. dielectric constant tensor:
#      x y z
#    x 1.749450 0.000000 0.000000 
#    y 0.000000 1.749450 0.000000 
#    z 0.000000 0.000000 1.763630 
# 
# From -- ./inp_files/2812.got.cif
#   From: 2010.03.12/outbox.cif.g09.slc.cpg/sg90_2_cif.got.tgz:2812.got - 2010.04.08 20:26:03.
