data_PCOD8304005
_publ_section_title
;
Structure prediction by ZEFSAII (Michael W. Deem and Ramdas Pophale) SiO2 
 PCOD8304005
Probable space group: I 4/M
;
_chemical_formula_sum "Si O2"
_cell_formula_units_Z 96
_cell_length_a 23.804361
_cell_length_b 23.804361
_cell_length_c 8.871754
_cell_angle_alpha 90.000000
_cell_angle_beta 90.000000
_cell_angle_gamma 90.000000
_cell_volume 5027.158135
_symmetry_space_group_name_H-M "I 4/M"
_symmetry_group_IT_number 87
_symmetry_cell_setting 'tetragonal'
loop_
_space_group_symop_operation_xyz
x,y,z
-y,x,z
-x,-y,z
y,-x,z
-x,-y,-z
y,-x,-z
x,y,-z
-y,x,-z
1/2+x,1/2+y,1/2+z
1/2-y,1/2+x,1/2+z
1/2-x,1/2-y,1/2+z
1/2+y,1/2-x,1/2+z
1/2-x,1/2-y,1/2-z
1/2+y,1/2-x,1/2-z
1/2+x,1/2+y,1/2-z
1/2-y,1/2+x,1/2-z
loop_
_atom_site_type_symbol
_atom_site_label
_atom_site_fract_x
_atom_site_fract_y
_atom_site_fract_z
Si Si1 0.709392 0.545558 0.678101
Si Si2 0.484284 0.587263 0.679260
Si Si3 0.331919 0.230118 0.174166
Si Si4 0.208718 0.541495 0.824843
Si Si5 0.161598 0.760992 0.674259
Si Si6 0.519952 0.919602 0.177745
O O1 0.707119 0.545462 0.500000
O O2 0.649096 0.526785 0.746529
O O3 0.757003 0.503093 0.729738
O O4 0.723316 0.607613 0.731078
O O5 0.435401 0.544804 0.736038
O O6 0.483727 0.588959 0.500000
O O7 0.396759 0.229537 0.221352
O O8 0.299379 0.184610 0.274134
O O9 0.308732 0.292206 0.206435
O O10 0.323847 0.213175 0.000000
O O11 0.143705 0.535838 0.782341
O O12 0.219063 0.529307 0.000000
O O13 0.145196 0.757182 0.500000
O O14 0.458968 0.933099 0.246343
O O15 0.519092 0.930858 0.000000
#
# Coordination Sequence:
#
# PCOD8304005 Si02
#       6
#    16  16  16  16  16  16
#     4  11  23  35  57  88 116 150 192 237 282 338
#     4   8  16  33  55  80 112 148 187 234 284 330
#     4   9  20  40  62  84 113 153 194 236 287 343
#     4  10  23  40  58  84 117 150 187 234 286 336
#     4  10  21  38  60  85 116 153 190 236 289 341
#     4  10  21  38  60  84 112 147 186 229 279 335
#
# _framework density 19.096276
#
# number of rings (size 3 to 8) (size 9 to 14) (size 15 to 20)
#    0.000    2.333    0.000    2.500    4.667    2.667 
#    0.000    0.000    0.000    0.000    0.000    4.667 
#    0.000    0.000    0.000    0.000    0.000    0.000 
#
# Total GULP energy -595308.019016 kJ/mol
# GULP energy per Si atom -12402.250396 kJ/mol
# Density = 1.905281 g / cm^3
# Si number density = 19.096276 Si / 1000 Ang^3
#
#
#
# Elastic Constant Matrix: (Units=GPa)
#
#
# Indices 1 2 3 4 5 6 
#
# 1 118.4877 58.6677 42.6351 0.0000 0.0000 0.8980
# 2 58.6677 118.4877 42.6351 0.0000 0.0000 -0.8980
# 3 42.6351 42.6351 57.9428 0.0000 0.0000 0.0000
# 4 0.0000 0.0000 0.0000 19.3003 0.0000 0.0000
# 5 0.0000 0.0000 0.0000 0.0000 19.3003 0.0000
# 6 0.8980 -0.8980 0.0000 0.0000 0.0000 20.5059
#
#
#
# Elastic Compliance Matrix: (Units=1/GPa)
#
#
# Indices 1 2 3 4 5 6 
#
# 1 0.012740 -0.003999 -0.006431 0.000000 0.000000 -0.000733
# 2 -0.003999 0.012740 -0.006431 0.000000 0.000000 0.000733
# 3 -0.006431 -0.006431 0.026723 0.000000 0.000000 0.000000
# 4 0.000000 0.000000 0.000000 0.051813 0.000000 0.000000
# 5 0.000000 0.000000 0.000000 0.000000 0.051813 0.000000
# 6 -0.000733 0.000733 0.000000 0.000000 0.000000 0.048831
#
#
# Mechanical properties :
#
#
# Convention : Reuss Voigt Hill
#
# Bulk Modulus (GPa) = 54.11708 64.75488 59.43598
# Shear Modulus (GPa) = 20.44650 21.88667 21.16658
#
# Velocity S-wave (km/s) = 3.27571 3.38912 3.33290
# Velocity P-wave (km/s) = 6.53511 7.02126 6.78254
#
# Compressibility (1/GPa) = 0.01847846
#
# Stress axis : x y z
#
# Youngs Moduli (GPa) = 78.49557 78.49557 37.42125
#
# Poissons Ratio (x) = 0.31392 0.24066
# Poissons Ratio (y) = 0.31392 0.24066
# Poissons Ratio (z) = 0.50482 0.50482
#
# Static dielectric constant tensor:
#      x y z
#    x 3.641170 0.000000 0.000000 
#    y 0.000000 3.641170 0.000000 
#    z 0.000000 0.000000 3.353890 
# 
# 
# High freq. dielectric constant tensor:
#      x y z
#    x 1.751300 0.000000 0.000000 
#    y 0.000000 1.751300 0.000000 
#    z 0.000000 0.000000 1.730030 
# 
# From -- ./inp_files/1345.got.cif
#   From: 2010.03.12/outbox.cif.g09.slc.cpg/sg87_1_cif.got.tgz:1345.got - 2010.04.08 20:16:13.
