data_PCOD8304030
_publ_section_title
;
Structure prediction by ZEFSAII (Michael W. Deem and Ramdas Pophale) SiO2 
 PCOD8304030
Probable space group: I 4/M
;
_chemical_formula_sum "Si O2"
_cell_formula_units_Z 96
_cell_length_a 14.285185
_cell_length_b 14.285185
_cell_length_c 23.349291
_cell_angle_alpha 90.000000
_cell_angle_beta 90.000000
_cell_angle_gamma 90.000000
_cell_volume 4764.808337
_symmetry_space_group_name_H-M "I 4/M"
_symmetry_group_IT_number 87
_symmetry_cell_setting 'tetragonal'
loop_
_space_group_symop_operation_xyz
x,y,z
-y,x,z
-x,-y,z
y,-x,z
-x,-y,-z
y,-x,-z
x,y,-z
-y,x,-z
1/2+x,1/2+y,1/2+z
1/2-y,1/2+x,1/2+z
1/2-x,1/2-y,1/2+z
1/2+y,1/2-x,1/2+z
1/2-x,1/2-y,1/2-z
1/2+y,1/2-x,1/2-z
1/2+x,1/2+y,1/2-z
1/2-y,1/2+x,1/2-z
loop_
_atom_site_type_symbol
_atom_site_label
_atom_site_fract_x
_atom_site_fract_y
_atom_site_fract_z
Si Si1 0.286678 0.807194 0.620634
Si Si2 0.529978 0.224435 0.000000
Si Si3 0.179147 0.219590 0.500000
Si Si4 0.667441 0.705694 0.285275
Si Si5 0.894754 0.496125 0.108428
Si Si6 0.602068 0.611474 0.181123
Si Si7 0.438253 0.109279 0.718822
O O1 0.272691 0.777775 0.554784
O O2 0.323212 0.712950 0.653515
O O3 0.185544 0.837990 0.645306
O O4 0.361557 0.891073 0.624528
O O5 0.432384 0.277604 0.000000
O O6 0.610372 0.300696 0.000000
O O7 0.541167 0.164922 0.942270
O O8 0.750000 0.750000 0.250000
O O9 0.623374 0.619824 0.249569
O O10 0.585316 0.782512 0.286057
O O11 0.889985 0.560832 0.164397
O O12 0.000000 0.500000 0.085078
O O13 0.493888 0.630727 0.165116
O O14 0.552313 0.100623 0.724292
#
# Coordination Sequence:
#
# PCOD8304030 Si02
#       7
#    16   8   8  16  16  16  16
#     4  10  23  38  59  87 116 157 197 250 293 361
#     4  10  23  39  60  82 114 156 196 247 291 359
#     4  10  22  39  58  84 118 151 202 240 298 348
#     4  10  22  33  57  77 116 150 196 239 297 341
#     4  11  22  38  58  83 116 150 198 245 302 349
#     4  10  23  38  56  82 121 157 196 240 291 355
#     4  11  21  33  54  83 113 147 193 242 288 354
#
# _framework density 20.147713
#
# number of rings (size 3 to 8) (size 9 to 14) (size 15 to 20)
#    0.000    1.667    1.667    3.250   14.000    0.167 
#    0.000    0.000    0.000    0.000    0.000    0.000 
#    0.000    1.333    0.000    0.000    0.000    0.000 
#
# Total GULP energy -594800.040911 kJ/mol
# GULP energy per Si atom -12391.667519 kJ/mol
# Density = 2.010186 g / cm^3
# Si number density = 20.147713 Si / 1000 Ang^3
#
#
#
# Elastic Constant Matrix: (Units=GPa)
#
#
# Indices 1 2 3 4 5 6 
#
# 1 45.8750 9.6613 19.6708 0.0000 0.0000 6.6309
# 2 9.6613 45.8750 19.6708 0.0000 0.0000 -6.6309
# 3 19.6708 19.6708 120.9202 0.0000 0.0000 0.0000
# 4 0.0000 0.0000 0.0000 18.0150 0.0000 0.0000
# 5 0.0000 0.0000 0.0000 0.0000 18.0150 0.0000
# 6 6.6309 -6.6309 0.0000 0.0000 0.0000 26.2987
#
#
#
# Elastic Compliance Matrix: (Units=1/GPa)
#
#
# Indices 1 2 3 4 5 6 
#
# 1 0.025387 -0.005036 -0.003311 0.000000 0.000000 -0.007671
# 2 -0.005036 0.025387 -0.003311 0.000000 0.000000 0.007671
# 3 -0.003311 -0.003311 0.009347 0.000000 0.000000 0.000000
# 4 0.000000 0.000000 0.000000 0.055509 0.000000 0.000000
# 5 0.000000 0.000000 0.000000 0.000000 0.055509 0.000000
# 6 -0.007671 0.007671 0.000000 0.000000 0.000000 0.041893
#
#
# Mechanical properties :
#
#
# Convention : Reuss Voigt Hill
#
# Bulk Modulus (GPa) = 27.16851 34.51954 30.84402
# Shear Modulus (GPa) = 20.11131 23.37689 21.74410
#
# Velocity S-wave (km/s) = 3.16285 3.40998 3.28873
# Velocity P-wave (km/s) = 5.18190 5.71615 5.45557
#
# Compressibility (1/GPa) = 0.03680732
#
# Stress axis : x y z
#
# Youngs Moduli (GPa) = 39.38983 39.38983 106.98558
#
# Poissons Ratio (x) = 0.19836 0.35420
# Poissons Ratio (y) = 0.19836 0.35420
# Poissons Ratio (z) = 0.13041 0.13041
#
# Static dielectric constant tensor:
#      x y z
#    x 3.405620 0.000000 0.000000 
#    y 0.000000 3.405620 0.000000 
#    z 0.000000 0.000000 4.194650 
# 
# 
# High freq. dielectric constant tensor:
#      x y z
#    x 1.772720 0.000000 0.000000 
#    y 0.000000 1.772720 0.000000 
#    z 0.000000 0.000000 1.790810 
# 
# From -- ./inp_files/5331.got.cif
#   From: 2010.03.12/outbox.cif.g09.slc.cpg/sg87_3_cif.got.tgz:5331.got - 2010.04.08 20:16:13.
