data_PCOD8304265
_publ_section_title
;
Structure prediction by ZEFSAII (Michael W. Deem and Ramdas Pophale) SiO2 
 PCOD8304265
Probable space group: I 41/A
;
_chemical_formula_sum "Si O2"
_cell_formula_units_Z 88
_cell_length_a 11.573319
_cell_length_b 11.573319
_cell_length_c 31.108616
_cell_angle_alpha 90.000000
_cell_angle_beta 90.000000
_cell_angle_gamma 90.000000
_cell_volume 4166.741306
_symmetry_space_group_name_H-M "I 41/A"
_symmetry_group_IT_number 88
_space_group.IT_coordinate_system_code '2'
_symmetry_cell_setting 'tetragonal'
loop_
_space_group_symop_operation_xyz
x,y,z
3/4-y,1/4+x,1/4+z
-x,1/2-y,z
1/4+y,1/4-x,1/4+z
-x,-y,-z
1/4+y,3/4-x,3/4-z
x,1/2+y,-z
3/4-y,3/4+x,3/4-z
1/2+x,1/2+y,1/2+z
1/4-y,3/4+x,3/4+z
1/2-x,-y,1/2+z
3/4+y,3/4-x,3/4+z
1/2-x,1/2-y,1/2-z
3/4+y,1/4-x,1/4-z
1/2+x,y,1/2-z
1/4-y,1/4+x,1/4-z
loop_
_atom_site_type_symbol
_atom_site_label
_atom_site_fract_x
_atom_site_fract_y
_atom_site_fract_z
Si Si1 0.302878 0.838331 0.372698
Si Si2 0.000000 0.250000 0.815492
Si Si3 0.882657 0.008945 0.053514
Si Si4 0.050560 0.472194 0.770517
Si Si5 0.664865 0.369622 0.286457
Si Si6 0.733459 0.123491 0.927308
O O1 0.410634 0.825041 0.342052
O O2 0.285400 0.713244 0.393526
O O3 0.189275 0.874068 0.345227
O O4 0.340731 0.939377 0.405124
O O5 0.062161 0.341859 0.785693
O O6 0.775640 0.082460 0.037685
O O7 0.995474 0.091818 0.061310
O O8 0.911318 0.922228 0.014257
O O9 0.048615 0.456785 0.719016
O O10 0.944726 0.546107 0.790688
O O11 0.776522 0.426051 0.308382
#
# Coordination Sequence:
#
# PCOD8304265 Si02
#       6
#    16   8  16  16  16  16
#     4  12  24  44  64 104 134 182 214 297 339 403
#     4  12  26  42  68  89 144 174 226 271 348 394
#     4  10  22  38  73  98 135 165 227 275 350 404
#     4  11  23  45  67 100 126 189 223 279 330 421
#     4  10  20  44  67 102 128 177 221 284 334 421
#     4  11  25  42  70  95 140 175 238 269 347 404
#
# _framework density 21.119620999999999
#
# number of rings (size 3 to 8) (size 9 to 14) (size 15 to 20)
#    0.000    1.091    3.636    2.727    0.000    2.545 
#    0.000    0.000    4.000    0.000    0.000    0.000 
#    0.000    0.000    0.000    0.000    0.000    0.000 
#
# Total GULP energy -545323.264263 kJ/mol
# GULP energy per Si atom -12393.710551 kJ/mol
# Density = 2.107155 g / cm^3
# Si number density = 21.119621 Si / 1000 Ang^3
#
#
#
# Elastic Constant Matrix: (Units=GPa)
#
#
# Indices 1 2 3 4 5 6 
#
# 1 95.8718 16.9193 39.9814 0.0000 0.0000 -8.2210
# 2 16.9193 95.8718 39.9814 0.0000 0.0000 8.2210
# 3 39.9814 39.9814 74.4195 0.0000 0.0000 0.0000
# 4 0.0000 0.0000 0.0000 37.6983 0.0000 0.0000
# 5 0.0000 0.0000 0.0000 0.0000 37.6983 0.0000
# 6 -8.2210 8.2210 0.0000 0.0000 0.0000 39.2447
#
#
#
# Elastic Compliance Matrix: (Units=1/GPa)
#
#
# Indices 1 2 3 4 5 6 
#
# 1 0.013782 0.000538 -0.007693 0.000000 0.000000 0.002774
# 2 0.000538 0.013782 -0.007693 0.000000 0.000000 -0.002774
# 3 -0.007693 -0.007693 0.021704 0.000000 0.000000 0.000000
# 4 0.000000 0.000000 0.000000 0.026526 0.000000 0.000000
# 5 0.000000 0.000000 0.000000 0.000000 0.026526 0.000000
# 6 0.002774 -0.002774 0.000000 0.000000 0.000000 0.026643
#
#
# Mechanical properties :
#
#
# Convention : Reuss Voigt Hill
#
# Bulk Modulus (GPa) = 51.09739 51.10306 51.10023
# Shear Modulus (GPa) = 30.26919 34.21365 32.24142
#
# Velocity S-wave (km/s) = 3.78990 4.02928 3.91142
# Velocity P-wave (km/s) = 6.58771 6.77468 6.68185
#
# Compressibility (1/GPa) = 0.01957047
#
# Stress axis : x y z
#
# Youngs Moduli (GPa) = 72.55906 72.55906 46.07480
#
# Poissons Ratio (x) = -0.03906 0.35447
# Poissons Ratio (y) = -0.03906 0.35447
# Poissons Ratio (z) = 0.55823 0.55823
#
# Static dielectric constant tensor:
#      x y z
#    x 3.898740 0.000000 0.000000 
#    y 0.000000 3.898740 0.000000 
#    z 0.000000 0.000000 4.060000 
# 
# 
# High freq. dielectric constant tensor:
#      x y z
#    x 1.830860 0.000000 0.000000 
#    y 0.000000 1.830860 0.000000 
#    z 0.000000 0.000000 1.831920 
# 
# From -- ./inp_files/6462.got.cif
#   From: 2010.03.12/outbox.cif.g09.slc.cpg/sg88_4_cif.got.tgz:6462.got - 2010.04.08 20:20:55.
