data_PCOD8304966
_publ_section_title
;
Structure prediction by ZEFSAII (Michael W. Deem and Ramdas Pophale) SiO2 
 PCOD8304966
Probable space group: P 41 2 2
;
_chemical_formula_sum "Si O2"
_cell_formula_units_Z 64
_cell_length_a 12.030109
_cell_length_b 12.030109
_cell_length_c 20.727569
_cell_angle_alpha 90.000000
_cell_angle_beta 90.000000
_cell_angle_gamma 90.000000
_cell_volume 2999.766800
_symmetry_space_group_name_H-M "P 41 2 2"
_symmetry_group_IT_number 91
_symmetry_cell_setting 'tetragonal'
loop_
_space_group_symop_operation_xyz
x,y,z
-y,x,1/4+z
-x,-y,1/2+z
y,-x,3/4+z
x,-y,1/2-z
-x,y,-z
y,x,3/4-z
-y,-x,1/4-z
loop_
_atom_site_type_symbol
_atom_site_label
_atom_site_fract_x
_atom_site_fract_y
_atom_site_fract_z
Si Si1 0.733729 0.055652 0.317350
Si Si2 0.844289 0.241949 0.741875
Si Si3 0.764463 0.588975 0.857021
Si Si4 0.350067 0.753571 0.883954
Si Si5 0.320596 0.846512 0.595814
Si Si6 0.818794 0.419571 0.375117
Si Si7 0.874880 0.372557 0.515259
Si Si8 0.236344 0.090110 0.040768
O O1 0.641082 0.151522 0.328563
O O2 0.851830 0.122376 0.315461
O O3 0.704856 0.000000 0.250000
O O4 0.727641 0.958188 0.370963
O O5 0.832177 0.353285 0.699556
O O6 0.816085 0.268482 0.815632
O O7 0.758070 0.147163 0.719565
O O8 0.967536 0.197672 0.730092
O O9 0.653976 0.653976 0.875000
O O10 0.726588 0.467431 0.833250
O O11 0.838777 0.564989 0.920133
O O12 0.298251 0.639389 0.854851
O O13 0.263108 0.736893 0.625000
O O14 0.454894 0.835629 0.600805
O O15 0.289612 0.848333 0.520747
O O16 0.810041 0.417845 0.452872
O O17 0.912089 0.334267 0.345761
O O18 0.000000 0.398393 0.500000
#
# Coordination Sequence:
#
# PCOD8304966 Si02
#       8
#     8   8   8   8   8   8   8   8
#     4  11  24  40  63  95 126 165 211 261 317 389
#     4  10  21  39  60  90 121 162 211 261 311 388
#     4  10  22  37  60  90 123 163 214 265 323 386
#     4  10  22  40  63  91 125 165 214 265 324 381
#     4  12  25  43  65  95 128 171 217 257 325 393
#     4  10  25  40  62  93 125 164 215 267 311 389
#     4  10  22  38  57  91 123 159 210 253 320 377
#     4  11  23  43  64  94 132 164 216 263 324 384
#
# _framework density 21.334993000000001
#
# number of rings (size 3 to 8) (size 9 to 14) (size 15 to 20)
#    0.000    1.500    2.500    1.500    5.250    2.000 
#    0.000    0.625    0.000    4.500    0.000    0.000 
#    0.000    0.000    0.000    0.000    0.000    0.000 
#
# Total GULP energy -793049.332976 kJ/mol
# GULP energy per Si atom -12391.395828 kJ/mol
# Density = 2.128643 g / cm^3
# Si number density = 21.334993 Si / 1000 Ang^3
#
#
#
# Elastic Constant Matrix: (Units=GPa)
#
#
# Indices 1 2 3 4 5 6 
#
# 1 94.8928 53.8755 13.6255 0.0000 0.0000 0.0000
# 2 53.8755 94.8948 13.6253 0.0000 0.0000 0.0000
# 3 13.6255 13.6253 66.6767 0.0000 0.0000 0.0000
# 4 0.0000 0.0000 0.0000 22.2216 0.0000 0.0000
# 5 0.0000 0.0000 0.0000 0.0000 22.2215 0.0000
# 6 0.0000 0.0000 0.0000 0.0000 0.0000 12.5845
#
#
#
# Elastic Compliance Matrix: (Units=1/GPa)
#
#
# Indices 1 2 3 4 5 6 
#
# 1 0.015681 -0.008698 -0.001427 0.000000 0.000000 0.000000
# 2 -0.008698 0.015681 -0.001427 0.000000 0.000000 0.000000
# 3 -0.001427 -0.001427 0.015581 0.000000 0.000000 0.000000
# 4 0.000000 0.000000 0.000000 0.045001 0.000000 0.000000
# 5 0.000000 0.000000 0.000000 0.000000 0.045001 0.000000
# 6 0.000000 0.000000 0.000000 0.000000 0.000000 0.079463
#
#
# Mechanical properties :
#
#
# Convention : Reuss Voigt Hill
#
# Bulk Modulus (GPa) = 41.94750 46.52407 44.23579
# Shear Modulus (GPa) = 20.20530 23.09472 21.65001
#
# Velocity S-wave (km/s) = 3.08076 3.29368 3.18899
# Velocity P-wave (km/s) = 5.68848 6.02646 5.85991
#
# Compressibility (1/GPa) = 0.02383932
#
# Stress axis : x y z
#
# Youngs Moduli (GPa) = 63.76962 63.77101 64.18085
#
# Poissons Ratio (x) = 0.55468 0.09159
# Poissons Ratio (y) = 0.55467 0.09158
# Poissons Ratio (z) = 0.09100 0.09100
#
# Static dielectric constant tensor:
#      x y z
#    x 3.771370 0.000000 0.000000 
#    y 0.000000 3.771370 0.000000 
#    z 0.000000 0.000000 1.102810 
# 
# 
# High freq. dielectric constant tensor:
#      x y z
#    x 1.828330 0.000000 0.000000 
#    y 0.000000 1.828330 0.000000 
#    z 0.000000 0.000000 1.850600 
# 
# From -- ./inp_files/17660.got.cif
#   From: 2010.03.12/outbox.cif.g09.slc.cpg/sg91_9_cif.got.tgz:17660.got - 2010.04.08 20:27:58.
