data_PCOD8304247
_publ_section_title
;
Structure prediction by ZEFSAII (Michael W. Deem and Ramdas Pophale) SiO2 
 PCOD8304247
Probable space group: I 41/A
;
_chemical_formula_sum "Si O2"
_cell_formula_units_Z 88
_cell_length_a 16.673179
_cell_length_b 16.673179
_cell_length_c 15.731982
_cell_angle_alpha 90.000000
_cell_angle_beta 90.000000
_cell_angle_gamma 90.000000
_cell_volume 4373.410731
_symmetry_space_group_name_H-M "I 41/A"
_symmetry_group_IT_number 88
_space_group.IT_coordinate_system_code '2'
_symmetry_cell_setting 'tetragonal'
loop_
_space_group_symop_operation_xyz
x,y,z
3/4-y,1/4+x,1/4+z
-x,1/2-y,z
1/4+y,1/4-x,1/4+z
-x,-y,-z
1/4+y,3/4-x,3/4-z
x,1/2+y,-z
3/4-y,3/4+x,3/4-z
1/2+x,1/2+y,1/2+z
1/4-y,3/4+x,3/4+z
1/2-x,-y,1/2+z
3/4+y,3/4-x,3/4+z
1/2-x,1/2-y,1/2-z
3/4+y,1/4-x,1/4-z
1/2+x,y,1/2-z
1/4-y,1/4+x,1/4-z
loop_
_atom_site_type_symbol
_atom_site_label
_atom_site_fract_x
_atom_site_fract_y
_atom_site_fract_z
Si Si1 0.921671 0.385777 0.416542
Si Si2 0.956520 0.013359 0.873440
Si Si3 0.050179 0.131047 0.609969
Si Si4 0.853104 0.669243 0.732630
Si Si5 0.000000 0.250000 0.931469
Si Si6 0.774916 0.781431 0.051084
O O1 0.832513 0.360429 0.387380
O O2 0.920946 0.396189 0.517303
O O3 0.984926 0.320462 0.384661
O O4 0.960565 0.463586 0.371903
O O5 0.040765 0.044506 0.912644
O O6 0.982398 0.971992 0.786320
O O7 0.912423 0.945383 0.929628
O O8 0.100109 0.206184 0.643079
O O9 0.068890 0.061622 0.678300
O O10 0.926460 0.731513 0.744309
O O11 0.891909 0.585049 0.702106
#
# Coordination Sequence:
#
# PCOD8304247 Si02
#       6
#    16  16  16  16   8  16
#     4  10  20  38  61  90 125 157 210 262 311 368
#     4  10  21  42  62  92 125 165 205 259 313 372
#     4  11  22  38  66  92 120 165 213 266 312 369
#     4   9  21  37  63  89 127 161 209 256 308 374
#     4   8  16  34  62  90 114 162 208 260 299 365
#     4  11  23  38  64  91 125 164 208 260 316 375
#
# _framework density 20.121594000000002
#
# number of rings (size 3 to 8) (size 9 to 14) (size 15 to 20)
#    0.000    2.000    1.818    1.636    5.091    5.818 
#    0.000    4.545    0.000    0.000    0.000    0.000 
#    0.000    0.000    0.000    0.000    0.000    0.000 
#
# Total GULP energy -545245.953719 kJ/mol
# GULP energy per Si atom -12391.953494 kJ/mol
# Density = 2.007580 g / cm^3
# Si number density = 20.121594 Si / 1000 Ang^3
#
#
#
# Elastic Constant Matrix: (Units=GPa)
#
#
# Indices 1 2 3 4 5 6 
#
# 1 87.2267 27.6793 25.5704 0.0000 0.0000 1.9143
# 2 27.6793 87.2267 25.5704 0.0000 0.0000 -1.9143
# 3 25.5704 25.5704 97.5675 0.0000 0.0000 0.0000
# 4 0.0000 0.0000 0.0000 29.8767 0.0000 0.0000
# 5 0.0000 0.0000 0.0000 0.0000 29.8767 0.0000
# 6 1.9143 -1.9143 0.0000 0.0000 0.0000 20.1802
#
#
#
# Elastic Compliance Matrix: (Units=1/GPa)
#
#
# Indices 1 2 3 4 5 6 
#
# 1 0.013374 -0.003522 -0.002582 0.000000 0.000000 -0.001603
# 2 -0.003522 0.013374 -0.002582 0.000000 0.000000 0.001603
# 3 -0.002582 -0.002582 0.011603 0.000000 0.000000 0.000000
# 4 0.000000 0.000000 0.000000 0.033471 0.000000 0.000000
# 5 0.000000 0.000000 0.000000 0.000000 0.033471 0.000000
# 6 -0.001603 0.001603 0.000000 0.000000 0.000000 0.049858
#
#
# Mechanical properties :
#
#
# Convention : Reuss Voigt Hill
#
# Bulk Modulus (GPa) = 47.66764 47.74013 47.70388
# Shear Modulus (GPa) = 27.85271 28.86677 28.35974
#
# Velocity S-wave (km/s) = 3.72455 3.79174 3.75829
# Velocity P-wave (km/s) = 6.49904 6.55340 6.52628
#
# Compressibility (1/GPa) = 0.02097859
#
# Stress axis : x y z
#
# Youngs Moduli (GPa) = 74.77100 74.77100 86.18696
#
# Poissons Ratio (x) = 0.26336 0.22253
# Poissons Ratio (y) = 0.26336 0.22253
# Poissons Ratio (z) = 0.19306 0.19306
#
# Static dielectric constant tensor:
#      x y z
#    x 3.879690 0.000000 0.000000 
#    y 0.000000 3.879690 0.000000 
#    z 0.000000 0.000000 3.599800 
# 
# 
# High freq. dielectric constant tensor:
#      x y z
#    x 1.780830 0.000000 0.000000 
#    y 0.000000 1.780830 0.000000 
#    z 0.000000 0.000000 1.784810 
# 
# From -- ./inp_files/3213.got.cif
#   From: 2010.03.12/outbox.cif.g09.slc.cpg/sg88_2_cif.got.tgz:3213.got - 2010.04.08 20:20:55.
