data_PCOD8304833
_publ_section_title
;
Structure prediction by ZEFSAII (Michael W. Deem and Ramdas Pophale) SiO2 
 PCOD8304833
Probable space group: P 41 2 2
;
_chemical_formula_sum "Si O2"
_cell_formula_units_Z 60
_cell_length_a 17.545029
_cell_length_b 17.545029
_cell_length_c 9.355108
_cell_angle_alpha 90.000000
_cell_angle_beta 90.000000
_cell_angle_gamma 90.000000
_cell_volume 2879.764584
_symmetry_space_group_name_H-M "P 41 2 2"
_symmetry_group_IT_number 91
_symmetry_cell_setting 'tetragonal'
loop_
_space_group_symop_operation_xyz
x,y,z
-y,x,1/4+z
-x,-y,1/2+z
y,-x,3/4+z
x,-y,1/2-z
-x,y,-z
y,x,3/4-z
-y,-x,1/4-z
loop_
_atom_site_type_symbol
_atom_site_label
_atom_site_fract_x
_atom_site_fract_y
_atom_site_fract_z
Si Si1 0.063422 0.808351 0.128431
Si Si2 0.044023 0.166326 0.860549
Si Si3 0.325638 0.092906 0.869113
Si Si4 0.927454 0.651960 0.704996
Si Si5 0.500000 0.163524 0.500000
Si Si6 0.341681 0.631033 0.974809
Si Si7 0.747785 0.640994 0.302313
Si Si8 0.470586 0.703459 0.792120
O O1 0.143252 0.856749 0.125000
O O2 0.082370 0.721743 0.181911
O O3 0.019307 0.855569 0.247364
O O4 0.000000 0.805568 0.000000
O O5 0.091063 0.091063 0.875000
O O6 0.094761 0.239286 0.818840
O O7 0.000000 0.193925 0.000000
O O8 0.325775 0.108348 0.698506
O O9 0.368861 0.161945 0.944111
O O10 0.366614 0.016108 0.922694
O O11 0.888115 0.575845 0.766375
O O12 0.505667 0.214344 0.356342
O O13 0.272842 0.641363 0.864513
O O14 0.419644 0.661578 0.909456
O O15 0.324711 0.675290 0.125000
O O16 0.350437 0.542361 0.013338
O O17 0.720091 0.720091 0.375000
O O18 0.710398 0.571695 0.390084
#
# Coordination Sequence:
#
# PCOD8304833 Si02
#       8
#     8   8   8   8   4   8   8   8
#     4  11  24  44  63 100 148 177 226 289 346 410
#     4  11  21  37  65  93 128 179 227 268 328 406
#     4  10  19  44  66  91 127 170 233 281 329 404
#     4  10  23  44  67  93 128 180 224 288 346 407
#     4  12  22  46  70  88 134 172 226 286 344 402
#     4  11  22  43  67 100 136 174 215 274 339 408
#     4  10  22  40  69  98 131 175 226 275 333 412
#     4  11  23  44  67  97 138 172 223 272 338 415
#
# _framework density 20.835037
#
# number of rings (size 3 to 8) (size 9 to 14) (size 15 to 20)
#    0.000    1.333    5.333    1.600    0.000    1.600 
#   12.000    7.333    0.000    0.000    0.000    0.000 
#    0.000    0.000    0.000    0.000    0.000    0.000 
#
# Total GULP energy -743450.453477 kJ/mol
# GULP energy per Si atom -12390.840891 kJ/mol
# Density = 2.078762 g / cm^3
# Si number density = 20.835037 Si / 1000 Ang^3
#
#
#
# Elastic Constant Matrix: (Units=GPa)
#
#
# Indices 1 2 3 4 5 6 
#
# 1 115.2343 71.8003 53.1333 0.0000 0.0000 0.0000
# 2 71.8003 115.2347 53.1336 0.0000 0.0000 0.0000
# 3 53.1333 53.1336 141.6934 0.0000 0.0000 0.0000
# 4 0.0000 0.0000 0.0000 22.9455 0.0000 0.0000
# 5 0.0000 0.0000 0.0000 0.0000 22.9448 0.0000
# 6 0.0000 0.0000 0.0000 0.0000 0.0000 40.5261
#
#
#
# Elastic Compliance Matrix: (Units=1/GPa)
#
#
# Indices 1 2 3 4 5 6 
#
# 1 0.014909 -0.008115 -0.002548 0.000000 0.000000 0.000000
# 2 -0.008115 0.014909 -0.002548 0.000000 0.000000 0.000000
# 3 -0.002548 -0.002548 0.008968 0.000000 0.000000 0.000000
# 4 0.000000 0.000000 0.000000 0.043582 0.000000 0.000000
# 5 0.000000 0.000000 0.000000 0.000000 0.043583 0.000000
# 6 0.000000 0.000000 0.000000 0.000000 0.000000 0.024675
#
#
# Mechanical properties :
#
#
# Convention : Reuss Voigt Hill
#
# Bulk Modulus (GPa) = 80.86957 80.92189 80.89573
# Shear Modulus (GPa) = 27.59878 30.22297 28.91087
#
# Velocity S-wave (km/s) = 3.64350 3.81278 3.72910
# Velocity P-wave (km/s) = 7.52320 7.63589 7.57975
#
# Compressibility (1/GPa) = 0.01236559
#
# Stress axis : x y z
#
# Youngs Moduli (GPa) = 67.07471 67.07486 111.50473
#
# Poissons Ratio (x) = 0.54429 0.28408
# Poissons Ratio (y) = 0.54428 0.28409
# Poissons Ratio (z) = 0.17089 0.17089
#
# Static dielectric constant tensor:
#      x y z
#    x 3.766660 0.000000 0.000000 
#    y 0.000000 3.766660 0.000000 
#    z 0.000000 0.000000 3.969560 
# 
# 
# High freq. dielectric constant tensor:
#      x y z
#    x 1.812170 0.000000 0.000000 
#    y 0.000000 1.812170 0.000000 
#    z 0.000000 0.000000 1.822220 
# 
# From -- ./inp_files/15326.got.cif
#   From: 2010.03.12/outbox.cif.g09.slc.cpg/sg91_8_cif.got.tgz:15326.got - 2010.04.08 20:27:58.
