data_PCOD8304325
_publ_section_title
;
Structure prediction by ZEFSAII (Michael W. Deem and Ramdas Pophale) SiO2 
 PCOD8304325
Probable space group: I 41/A
;
_chemical_formula_sum "Si O2"
_cell_formula_units_Z 116
_cell_length_a 17.101670
_cell_length_b 17.101670
_cell_length_c 17.731761
_cell_angle_alpha 90.000000
_cell_angle_beta 90.000000
_cell_angle_gamma 90.000000
_cell_volume 5185.957015
_symmetry_space_group_name_H-M "I 41/A"
_symmetry_group_IT_number 88
_space_group.IT_coordinate_system_code '2'
_symmetry_cell_setting 'tetragonal'
loop_
_space_group_symop_operation_xyz
x,y,z
3/4-y,1/4+x,1/4+z
-x,1/2-y,z
1/4+y,1/4-x,1/4+z
-x,-y,-z
1/4+y,3/4-x,3/4-z
x,1/2+y,-z
3/4-y,3/4+x,3/4-z
1/2+x,1/2+y,1/2+z
1/4-y,3/4+x,3/4+z
1/2-x,-y,1/2+z
3/4+y,3/4-x,3/4+z
1/2-x,1/2-y,1/2-z
3/4+y,1/4-x,1/4-z
1/2+x,y,1/2-z
1/4-y,1/4+x,1/4-z
loop_
_atom_site_type_symbol
_atom_site_label
_atom_site_fract_x
_atom_site_fract_y
_atom_site_fract_z
Si Si1 0.500000 0.750000 0.125000
Si Si2 0.699531 0.742965 0.363441
Si Si3 0.848960 0.475412 0.666011
Si Si4 0.144350 0.696404 0.294970
Si Si5 0.776474 0.355901 0.382109
Si Si6 0.947493 0.352793 0.150563
Si Si7 0.791186 0.002227 0.727150
Si Si8 0.427426 0.310095 0.183688
O O1 0.496009 0.826927 0.073705
O O2 0.716810 0.672192 0.420460
O O3 0.776580 0.790166 0.341031
O O4 0.652825 0.712189 0.292269
O O5 0.646914 0.802769 0.407523
O O6 0.879941 0.392833 0.695136
O O7 0.781699 0.510617 0.717581
O O8 0.825720 0.470469 0.577721
O O9 0.689957 0.320160 0.370662
O O10 0.796607 0.424442 0.322681
O O11 0.775095 0.385183 0.469276
O O12 0.846027 0.291627 0.363661
O O13 0.910092 0.291305 0.090620
O O14 0.908083 0.323319 0.228479
O O15 0.500000 0.250000 0.167887
#
# Coordination Sequence:
#
# PCOD8304325 Si02
#       8
#     4  16  16  16  16  16  16  16
#     4  12  24  40  68 100 136 184 246 280 368 448
#     4  11  25  44  67  94 144 185 234 298 362 425
#     4  11  21  41  65  98 141 180 235 286 360 430
#     4  11  24  43  65  98 136 189 230 298 355 437
#     4  11  24  47  76 109 143 194 248 305 377 444
#     4  11  25  51  78 105 152 193 244 316 383 439
#     4  10  22  40  71 107 141 183 239 300 360 441
#     4  12  27  51  73 107 147 197 248 308 377 445
#
# _framework density 22.368099000000001
#
# number of rings (size 3 to 8) (size 9 to 14) (size 15 to 20)
#    0.000    0.966    5.517    1.655    4.828    0.552 
#    7.448    0.000    0.000    0.000    0.000    0.000 
#    0.000    0.000    0.000    0.000    0.000    0.000 
#
# Total GULP energy -718922.418238 kJ/mol
# GULP energy per Si atom -12395.214108 kJ/mol
# Density = 2.231719 g / cm^3
# Si number density = 22.368099 Si / 1000 Ang^3
#
#
#
# Elastic Constant Matrix: (Units=GPa)
#
#
# Indices 1 2 3 4 5 6 
#
# 1 102.8255 35.8356 26.1241 0.0000 0.0000 1.6429
# 2 35.8356 102.8255 26.1241 0.0000 0.0000 -1.6429
# 3 26.1241 26.1241 70.5714 0.0000 0.0000 0.0000
# 4 0.0000 0.0000 0.0000 26.0435 0.0000 0.0000
# 5 0.0000 0.0000 0.0000 0.0000 26.0435 0.0000
# 6 1.6429 -1.6429 0.0000 0.0000 0.0000 34.1464
#
#
#
# Elastic Compliance Matrix: (Units=1/GPa)
#
#
# Indices 1 2 3 4 5 6 
#
# 1 0.011672 -0.003291 -0.003102 0.000000 0.000000 -0.000720
# 2 -0.003291 0.011672 -0.003102 0.000000 0.000000 0.000720
# 3 -0.003102 -0.003102 0.016467 0.000000 0.000000 0.000000
# 4 0.000000 0.000000 0.000000 0.038397 0.000000 0.000000
# 5 0.000000 0.000000 0.000000 0.000000 0.038397 0.000000
# 6 -0.000720 0.000720 0.000000 0.000000 0.000000 0.029355
#
#
# Mechanical properties :
#
#
# Convention : Reuss Voigt Hill
#
# Bulk Modulus (GPa) = 48.03316 50.26555 49.14936
# Shear Modulus (GPa) = 29.08806 29.78923 29.43864
#
# Velocity S-wave (km/s) = 3.61005 3.65331 3.63174
# Velocity P-wave (km/s) = 6.23676 6.34951 6.29339
#
# Compressibility (1/GPa) = 0.02081895
#
# Stress axis : x y z
#
# Youngs Moduli (GPa) = 85.67595 85.67595 60.72772
#
# Poissons Ratio (x) = 0.28196 0.18840
# Poissons Ratio (y) = 0.28196 0.18840
# Poissons Ratio (z) = 0.26580 0.26580
#
# Static dielectric constant tensor:
#      x y z
#    x 4.050560 0.000000 0.000000 
#    y 0.000000 4.050560 0.000000 
#    z 0.000000 0.000000 4.312320 
# 
# 
# High freq. dielectric constant tensor:
#      x y z
#    x 1.879530 0.000000 0.000000 
#    y 0.000000 1.879530 0.000000 
#    z 0.000000 0.000000 1.886260 
# 
# From -- ./inp_files/4010.got.cif
#   From: 2010.03.12/outbox.cif.g09.slc.cpg/sg88_3_cif.got.tgz:4010.got - 2010.04.08 20:20:55.
