data_PCOD8304457
_publ_section_title
;
Structure prediction by ZEFSAII (Michael W. Deem and Ramdas Pophale) SiO2 
 PCOD8304457
Probable space group: I 41/A
;
_chemical_formula_sum "Si O2"
_cell_formula_units_Z 64
_cell_length_a 18.954015
_cell_length_b 18.954015
_cell_length_c 10.267323
_cell_angle_alpha 90.000000
_cell_angle_beta 90.000000
_cell_angle_gamma 90.000000
_cell_volume 3688.583886
_symmetry_space_group_name_H-M "I 41/A"
_symmetry_group_IT_number 88
_space_group.IT_coordinate_system_code '2'
_symmetry_cell_setting 'tetragonal'
loop_
_space_group_symop_operation_xyz
x,y,z
3/4-y,1/4+x,1/4+z
-x,1/2-y,z
1/4+y,1/4-x,1/4+z
-x,-y,-z
1/4+y,3/4-x,3/4-z
x,1/2+y,-z
3/4-y,3/4+x,3/4-z
1/2+x,1/2+y,1/2+z
1/4-y,3/4+x,3/4+z
1/2-x,-y,1/2+z
3/4+y,3/4-x,3/4+z
1/2-x,1/2-y,1/2-z
3/4+y,1/4-x,1/4-z
1/2+x,y,1/2-z
1/4-y,1/4+x,1/4-z
loop_
_atom_site_type_symbol
_atom_site_label
_atom_site_fract_x
_atom_site_fract_y
_atom_site_fract_z
Si Si1 0.099648 0.809486 0.876575
Si Si2 0.879133 0.617554 0.619802
Si Si3 0.919267 0.467462 0.638360
Si Si4 0.327455 0.219693 0.628298
O O1 0.094912 0.726130 0.852462
O O2 0.140563 0.844262 0.755170
O O3 0.144768 0.825158 0.006152
O O4 0.864126 0.533238 0.632756
O O5 0.834082 0.651492 0.505469
O O6 0.963165 0.629293 0.592352
O O7 0.917363 0.424735 0.502047
O O8 0.998963 0.499098 0.654469
#
# Coordination Sequence:
#
# PCOD8304457 Si02
#       4
#    16  16  16  16
#     4   9  17  32  51  76 100 120 157 203 243 282
#     4   9  18  33  51  69 100 128 157 199 238 283
#     4   9  18  35  50  69  99 128 161 196 240 281
#     4   8  18  34  51  71  96 128 160 199 240 278
#
# _framework density 17.350833999999999
#
# number of rings (size 3 to 8) (size 9 to 14) (size 15 to 20)
#    1.500    1.750    0.000    0.000    0.000    3.000 
#    0.000    2.500    0.000    0.000    0.000    0.000 
#    0.000    0.000    0.000    0.000    0.000    0.000 
#
# Total GULP energy -396459.423495 kJ/mol
# GULP energy per Si atom -12389.356984 kJ/mol
# Density = 1.731134 g / cm^3
# Si number density = 17.350834 Si / 1000 Ang^3
#
#
#
# Elastic Constant Matrix: (Units=GPa)
#
#
# Indices 1 2 3 4 5 6 
#
# 1 50.1771 23.3181 71.6395 0.0000 0.0000 3.9239
# 2 23.3181 50.1771 71.6395 0.0000 0.0000 -3.9239
# 3 71.6395 71.6395 208.9381 0.0000 0.0000 0.0000
# 4 0.0000 0.0000 0.0000 27.6387 0.0000 0.0000
# 5 0.0000 0.0000 0.0000 0.0000 27.6387 0.0000
# 6 3.9239 -3.9239 0.0000 0.0000 0.0000 12.9783
#
#
#
# Elastic Compliance Matrix: (Units=1/GPa)
#
#
# Indices 1 2 3 4 5 6 
#
# 1 0.040938 0.000099 -0.014070 0.000000 0.000000 -0.012348
# 2 0.000099 0.040938 -0.014070 0.000000 0.000000 0.012348
# 3 -0.014070 -0.014070 0.014435 0.000000 0.000000 0.000000
# 4 0.000000 0.000000 0.000000 0.036181 0.000000 0.000000
# 5 0.000000 0.000000 0.000000 0.000000 0.036181 0.000000
# 6 -0.012348 0.012348 0.000000 0.000000 0.000000 0.084518
#
#
# Mechanical properties :
#
#
# Convention : Reuss Voigt Hill
#
# Bulk Modulus (GPa) = 24.85932 71.38738 48.12335
# Shear Modulus (GPa) = 15.49503 23.16414 19.32959
#
# Velocity S-wave (km/s) = 2.99162 3.65779 3.34135
# Velocity P-wave (km/s) = 5.12754 7.68583 6.53313
#
# Compressibility (1/GPa) = 0.04022636
#
# Stress axis : x y z
#
# Youngs Moduli (GPa) = 24.42726 24.42726 69.27698
#
# Poissons Ratio (x) = -0.00241 0.97475
# Poissons Ratio (y) = -0.00241 0.97475
# Poissons Ratio (z) = 0.34370 0.34370
#
# Static dielectric constant tensor:
#      x y z
#    x 2.963160 0.000000 0.000000 
#    y 0.000000 2.963160 0.000000 
#    z 0.000000 0.000000 3.230700 
# 
# 
# High freq. dielectric constant tensor:
#      x y z
#    x 1.639880 0.000000 0.000000 
#    y 0.000000 1.639880 0.000000 
#    z 0.000000 0.000000 1.678810 
# 
# From -- ./inp_files/1471.got.cif
#   From: 2010.03.12/outbox.cif.g09.slc.cpg/sg88_1_cif.got.tgz:1471.got - 2010.04.08 20:20:55.
