data_PCOD8304972
_publ_section_title
;
Structure prediction by ZEFSAII (Michael W. Deem and Ramdas Pophale) SiO2 
 PCOD8304972
Probable space group: P 41 2 2
;
_chemical_formula_sum "Si O2"
_cell_formula_units_Z 48
_cell_length_a 11.589963
_cell_length_b 11.589963
_cell_length_c 17.334640
_cell_angle_alpha 90.000000
_cell_angle_beta 90.000000
_cell_angle_gamma 90.000000
_cell_volume 2328.514388
_symmetry_space_group_name_H-M "P 41 2 2"
_symmetry_group_IT_number 91
_symmetry_cell_setting 'tetragonal'
loop_
_space_group_symop_operation_xyz
x,y,z
-y,x,1/4+z
-x,-y,1/2+z
y,-x,3/4+z
x,-y,1/2-z
-x,y,-z
y,x,3/4-z
-y,-x,1/4-z
loop_
_atom_site_type_symbol
_atom_site_label
_atom_site_fract_x
_atom_site_fract_y
_atom_site_fract_z
Si Si1 0.226227 0.622814 0.021977
Si Si2 0.156748 0.894167 0.298059
Si Si3 0.516809 0.920780 0.323434
Si Si4 0.065821 0.753291 0.656877
Si Si5 0.311824 0.033404 0.066790
Si Si6 0.200266 0.601763 0.195349
O O1 0.199318 0.566341 0.105319
O O2 0.355991 0.673700 0.025465
O O3 0.149151 0.735264 0.003146
O O4 0.207428 0.523258 0.957045
O O5 0.206802 0.937042 0.378829
O O6 0.060947 0.802995 0.325755
O O7 0.099200 0.000000 0.250000
O O8 0.650754 0.932562 0.343817
O O9 0.439325 0.950738 0.397392
O O10 0.484523 0.000000 0.250000
O O11 0.147608 0.852393 0.625000
O O12 0.110025 0.701360 0.738732
O O13 0.299005 0.897208 0.045019
O O14 0.159335 0.500000 0.250000
#
# Coordination Sequence:
#
# PCOD8304972 Si02
#       6
#     8   8   8   8   8   8
#     4  10  21  39  65  94 129 165 218 276 334 390
#     4  11  23  39  62  98 137 176 214 270 332 397
#     4  11  23  44  66  92 127 175 226 274 327 399
#     4  12  29  40  64  97 140 182 217 269 334 415
#     4  11  22  42  65  92 130 177 219 269 334 397
#     4  11  20  36  66 102 124 162 219 285 337 390
#
# _framework density 20.614003
#
# number of rings (size 3 to 8) (size 9 to 14) (size 15 to 20)
#    0.000    1.000    5.000    2.500    4.667    0.000 
#    3.000    0.000    3.667    0.000    0.000    0.000 
#    0.000    0.000    0.000    0.000    0.000    0.000 
#
# Total GULP energy -594664.453290 kJ/mol
# GULP energy per Si atom -12388.842777 kJ/mol
# Density = 2.056708 g / cm^3
# Si number density = 20.614003 Si / 1000 Ang^3
#
#
#
# Elastic Constant Matrix: (Units=GPa)
#
#
# Indices 1 2 3 4 5 6 
#
# 1 85.8118 40.5719 49.7587 0.0000 0.0000 0.0000
# 2 40.5719 85.8097 49.7584 0.0000 0.0000 0.0000
# 3 49.7587 49.7584 130.9769 0.0000 0.0000 0.0000
# 4 0.0000 0.0000 0.0000 37.0805 0.0000 0.0000
# 5 0.0000 0.0000 0.0000 0.0000 37.0804 0.0000
# 6 0.0000 0.0000 0.0000 0.0000 0.0000 9.3013
#
#
#
# Elastic Compliance Matrix: (Units=1/GPa)
#
#
# Indices 1 2 3 4 5 6 
#
# 1 0.016697 -0.005408 -0.004289 0.000000 0.000000 0.000000
# 2 -0.005408 0.016698 -0.004289 0.000000 0.000000 0.000000
# 3 -0.004289 -0.004289 0.010894 0.000000 0.000000 0.000000
# 4 0.000000 0.000000 0.000000 0.026968 0.000000 0.000000
# 5 0.000000 0.000000 0.000000 0.000000 0.026968 0.000000
# 6 0.000000 0.000000 0.000000 0.000000 0.000000 0.107512
#
#
# Mechanical properties :
#
#
# Convention : Reuss Voigt Hill
#
# Bulk Modulus (GPa) = 61.28498 64.75295 63.01896
# Shear Modulus (GPa) = 20.90761 27.52641 24.21701
#
# Velocity S-wave (km/s) = 3.18817 3.65818 3.43123
# Velocity P-wave (km/s) = 6.58384 7.02306 6.80699
#
# Compressibility (1/GPa) = 0.01631721
#
# Stress axis : x y z
#
# Youngs Moduli (GPa) = 59.89068 59.88902 91.79560
#
# Poissons Ratio (x) = 0.32385 0.39371
# Poissons Ratio (y) = 0.32386 0.39372
# Poissons Ratio (z) = 0.25687 0.25687
#
# Static dielectric constant tensor:
#      x y z
#    x 3.582690 0.000000 0.000000 
#    y 0.000000 3.582690 0.000000 
#    z 0.000000 0.000000 4.069130 
# 
# 
# High freq. dielectric constant tensor:
#      x y z
#    x 1.783110 0.000000 0.000000 
#    y 0.000000 1.783110 0.000000 
#    z 0.000000 0.000000 1.828920 
# 
# From -- ./inp_files/11934.got.cif
#   From: 2010.03.12/outbox.cif.g09.slc.cpg/sg91_6_cif.got.tgz:11934.got - 2010.04.08 20:27:58.
