data_PCOD8304365
_publ_section_title
;
Structure prediction by ZEFSAII (Michael W. Deem and Ramdas Pophale) SiO2 
 PCOD8304365
Probable space group: I 41/A
;
_chemical_formula_sum "Si O2"
_cell_formula_units_Z 116
_cell_length_a 16.947690
_cell_length_b 16.947690
_cell_length_c 18.584368
_cell_angle_alpha 90.000000
_cell_angle_beta 90.000000
_cell_angle_gamma 90.000000
_cell_volume 5337.880163
_symmetry_space_group_name_H-M "I 41/A"
_symmetry_group_IT_number 88
_space_group.IT_coordinate_system_code '2'
_symmetry_cell_setting 'tetragonal'
loop_
_space_group_symop_operation_xyz
x,y,z
3/4-y,1/4+x,1/4+z
-x,1/2-y,z
1/4+y,1/4-x,1/4+z
-x,-y,-z
1/4+y,3/4-x,3/4-z
x,1/2+y,-z
3/4-y,3/4+x,3/4-z
1/2+x,1/2+y,1/2+z
1/4-y,3/4+x,3/4+z
1/2-x,-y,1/2+z
3/4+y,3/4-x,3/4+z
1/2-x,1/2-y,1/2-z
3/4+y,1/4-x,1/4-z
1/2+x,y,1/2-z
1/4-y,1/4+x,1/4-z
loop_
_atom_site_type_symbol
_atom_site_label
_atom_site_fract_x
_atom_site_fract_y
_atom_site_fract_z
Si Si1 0.407582 0.509498 0.418411
Si Si2 0.356853 0.857074 0.968781
Si Si3 0.946576 0.096936 0.053504
Si Si4 0.358895 0.173680 0.004055
Si Si5 0.000000 0.750000 0.875000
Si Si6 0.989874 0.565613 0.559764
Si Si7 0.762008 0.921450 0.903878
Si Si8 0.207273 0.881131 0.363894
O O1 0.391106 0.533362 0.335316
O O2 0.434500 0.584034 0.467548
O O3 0.475110 0.444543 0.418337
O O4 0.328625 0.468096 0.449813
O O5 0.427841 0.893108 0.919736
O O6 0.367674 0.767850 0.996600
O O7 0.350681 0.913765 0.038253
O O8 0.954002 0.189288 0.072634
O O9 0.871447 0.057344 0.089920
O O10 0.357364 0.135027 0.924554
O O11 0.437756 0.140002 0.037424
O O12 0.282317 0.143193 0.047318
O O13 0.945416 0.515439 0.620909
O O14 0.000000 0.500000 0.500000
O O15 0.704923 0.986969 0.869289
#
# Coordination Sequence:
#
# PCOD8304365 Si02
#       8
#    16  16  16  16   4  16  16  16
#     4  11  25  43  68  99 134 175 223 278 347 400
#     4  11  24  43  67  98 137 176 229 271 328 412
#     4  11  24  46  68  97 137 170 218 289 342 406
#     4  11  23  43  67 100 133 180 220 274 345 393
#     4  12  24  48  72 100 128 172 230 276 348 408
#     4   9  22  43  59  94 138 167 221 273 316 397
#     4  11  23  44  68  97 137 168 225 277 336 411
#     4  10  25  39  69  97 133 180 223 270 334 398
#
# _framework density 21.731473999999999
#
# number of rings (size 3 to 8) (size 9 to 14) (size 15 to 20)
#    0.000    1.379    2.759    1.241   11.586    0.000 
#    4.966    0.000    0.000    0.000    0.000    0.000 
#    0.000    0.000    0.000    0.000    0.000    0.000 
#
# Total GULP energy -718701.170635 kJ/mol
# GULP energy per Si atom -12391.399494 kJ/mol
# Density = 2.168201 g / cm^3
# Si number density = 21.731474 Si / 1000 Ang^3
#
#
#
# Elastic Constant Matrix: (Units=GPa)
#
#
# Indices 1 2 3 4 5 6 
#
# 1 57.2723 29.3364 -1.4111 0.0000 0.0000 1.4042
# 2 29.3364 57.2723 -1.4111 0.0000 0.0000 -1.4042
# 3 -1.4111 -1.4111 62.4532 0.0000 0.0000 0.0000
# 4 0.0000 0.0000 0.0000 16.8992 0.0000 0.0000
# 5 0.0000 0.0000 0.0000 0.0000 16.8992 0.0000
# 6 1.4042 -1.4042 0.0000 0.0000 0.0000 39.2183
#
#
#
# Elastic Compliance Matrix: (Units=1/GPa)
#
#
# Indices 1 2 3 4 5 6 
#
# 1 0.023740 -0.012185 0.000261 0.000000 0.000000 -0.001286
# 2 -0.012185 0.023740 0.000261 0.000000 0.000000 0.001286
# 3 0.000261 0.000261 0.016024 0.000000 0.000000 0.000000
# 4 0.000000 0.000000 0.000000 0.059175 0.000000 0.000000
# 5 0.000000 0.000000 0.000000 0.000000 0.059175 0.000000
# 6 -0.001286 0.001286 0.000000 0.000000 0.000000 0.025590
#
#
# Mechanical properties :
#
#
# Convention : Reuss Voigt Hill
#
# Bulk Modulus (GPa) = 24.88955 25.55844 25.22400
# Shear Modulus (GPa) = 20.47817 24.63558 22.55687
#
# Velocity S-wave (km/s) = 3.07307 3.37060 3.22527
# Velocity P-wave (km/s) = 4.90609 5.18985 5.04996
#
# Compressibility (1/GPa) = 0.04017750
#
# Stress axis : x y z
#
# Youngs Moduli (GPa) = 42.12283 42.12284 62.40721
#
# Poissons Ratio (x) = 0.51328 -0.01629
# Poissons Ratio (y) = 0.51328 -0.01629
# Poissons Ratio (z) = -0.01100 -0.01100
#
# Static dielectric constant tensor:
#      x y z
#    x 4.179860 0.000000 0.000000 
#    y 0.000000 4.179860 0.000000 
#    z 0.000000 0.000000 3.629930 
# 
# 
# High freq. dielectric constant tensor:
#      x y z
#    x 1.868140 0.000000 0.000000 
#    y 0.000000 1.868140 0.000000 
#    z 0.000000 0.000000 1.829270 
# 
# From -- ./inp_files/4031.got.cif
#   From: 2010.03.12/outbox.cif.g09.slc.cpg/sg88_3_cif.got.tgz:4031.got - 2010.04.08 20:20:55.
