data_PCOD8304874
_publ_section_title
;
Structure prediction by ZEFSAII (Michael W. Deem and Ramdas Pophale) SiO2 
 PCOD8304874
Probable space group: P 41 2 2
;
_chemical_formula_sum "Si O2"
_cell_formula_units_Z 48
_cell_length_a 14.362337
_cell_length_b 14.362337
_cell_length_c 11.473601
_cell_angle_alpha 90.000000
_cell_angle_beta 90.000000
_cell_angle_gamma 90.000000
_cell_volume 2366.736828
_symmetry_space_group_name_H-M "P 41 2 2"
_symmetry_group_IT_number 91
_symmetry_cell_setting 'tetragonal'
loop_
_space_group_symop_operation_xyz
x,y,z
-y,x,1/4+z
-x,-y,1/2+z
y,-x,3/4+z
x,-y,1/2-z
-x,y,-z
y,x,3/4-z
-y,-x,1/4-z
loop_
_atom_site_type_symbol
_atom_site_label
_atom_site_fract_x
_atom_site_fract_y
_atom_site_fract_z
Si Si1 0.762966 0.500000 0.250000
Si Si2 0.653132 0.000000 0.250000
Si Si3 0.241842 0.982491 0.975914
Si Si4 0.825944 0.469041 0.001021
Si Si5 0.307300 0.301042 0.742236
Si Si6 0.089275 0.648495 0.068539
Si Si7 0.147107 0.802542 0.893652
O O1 0.830431 0.482679 0.140740
O O2 0.697946 0.588431 0.219333
O O3 0.716233 0.029356 0.139935
O O4 0.592421 0.912676 0.211142
O O5 0.165700 0.906560 0.937888
O O6 0.325993 0.934658 0.048700
O O7 0.193186 0.062480 0.052199
O O8 0.731536 0.413701 0.966590
O O9 0.830875 0.568767 0.935521
O O10 0.279369 0.279369 0.875000
O O11 0.238317 0.242414 0.662363
O O12 0.121348 0.742741 0.006350
O O13 0.000000 0.606617 0.000000
#
# Coordination Sequence:
#
# PCOD8304874 Si02
#       7
#     4   4   8   8   8   8   8
#     4  10  20  36  62  90 132 172 210 258 320 388
#     4  12  24  36  62 102 128 160 210 278 324 392
#     4  11  25  41  69  89 133 168 220 267 330 389
#     4  11  21  35  62  98 127 166 210 264 331 380
#     4  10  20  36  61  94 129 164 212 260 322 386
#     4  10  22  40  64  93 124 167 213 270 329 381
#     4  11  22  44  66  92 127 170 215 270 319 386
#
# _framework density 20.281086999999999
#
# number of rings (size 3 to 8) (size 9 to 14) (size 15 to 20)
#    0.000    1.333    4.167    2.500    2.333    0.667 
#    0.000    0.000   20.167    6.000    0.000    0.000 
#    0.000    0.000    0.000    0.000    0.000    0.000 
#
# Total GULP energy -595268.792854 kJ/mol
# GULP energy per Si atom -12401.433184 kJ/mol
# Density = 2.023493 g / cm^3
# Si number density = 20.281087 Si / 1000 Ang^3
#
#
#
# Elastic Constant Matrix: (Units=GPa)
#
#
# Indices 1 2 3 4 5 6 
#
# 1 101.3619 47.6019 32.5000 0.0000 0.0000 0.0000
# 2 47.6019 101.3619 32.5000 0.0000 0.0000 0.0000
# 3 32.5000 32.5000 96.4718 0.0000 0.0000 0.0000
# 4 0.0000 0.0000 0.0000 26.7172 0.0000 0.0000
# 5 0.0000 0.0000 0.0000 0.0000 26.7172 0.0000
# 6 0.0000 0.0000 0.0000 0.0000 0.0000 33.1525
#
#
#
# Elastic Compliance Matrix: (Units=1/GPa)
#
#
# Indices 1 2 3 4 5 6 
#
# 1 0.013236 -0.005366 -0.002651 0.000000 0.000000 0.000000
# 2 -0.005366 0.013236 -0.002651 0.000000 0.000000 0.000000
# 3 -0.002651 -0.002651 0.012152 0.000000 0.000000 0.000000
# 4 0.000000 0.000000 0.000000 0.037429 0.000000 0.000000
# 5 0.000000 0.000000 0.000000 0.000000 0.037429 0.000000
# 6 0.000000 0.000000 0.000000 0.000000 0.000000 0.030164
#
#
# Mechanical properties :
#
#
# Convention : Reuss Voigt Hill
#
# Bulk Modulus (GPa) = 57.84747 58.26660 58.05704
# Shear Modulus (GPa) = 29.28367 29.75695 29.52031
#
# Velocity S-wave (km/s) = 3.80398 3.83459 3.81932
# Velocity P-wave (km/s) = 6.91943 6.95682 6.93815
#
# Compressibility (1/GPa) = 0.01728684
#
# Stress axis : x y z
#
# Youngs Moduli (GPa) = 75.55411 75.55411 82.29042
#
# Poissons Ratio (x) = 0.40540 0.21817
# Poissons Ratio (y) = 0.40540 0.21817
# Poissons Ratio (z) = 0.20031 0.20031
#
# Static dielectric constant tensor:
#      x y z
#    x 3.733500 0.000000 0.000000 
#    y 0.000000 3.733500 0.000000 
#    z 0.000000 0.000000 3.689110 
# 
# 
# High freq. dielectric constant tensor:
#      x y z
#    x 1.784040 0.000000 0.000000 
#    y 0.000000 1.784040 0.000000 
#    z 0.000000 0.000000 1.793770 
# 
# From -- ./inp_files/10818.got.cif
#   From: 2010.03.12/outbox.cif.g09.slc.cpg/sg91_6_cif.got.tgz:10818.got - 2010.04.08 20:27:58.
