data_PCOD8304893
_publ_section_title
;
Structure prediction by ZEFSAII (Michael W. Deem and Ramdas Pophale) SiO2 
 PCOD8304893
Probable space group: P 41 2 2
;
_chemical_formula_sum "Si O2"
_cell_formula_units_Z 60
_cell_length_a 17.820237
_cell_length_b 17.820237
_cell_length_c 8.930390
_cell_angle_alpha 90.000000
_cell_angle_beta 90.000000
_cell_angle_gamma 90.000000
_cell_volume 2835.942210
_symmetry_space_group_name_H-M "P 41 2 2"
_symmetry_group_IT_number 91
_symmetry_cell_setting 'tetragonal'
loop_
_space_group_symop_operation_xyz
x,y,z
-y,x,1/4+z
-x,-y,1/2+z
y,-x,3/4+z
x,-y,1/2-z
-x,y,-z
y,x,3/4-z
-y,-x,1/4-z
loop_
_atom_site_type_symbol
_atom_site_label
_atom_site_fract_x
_atom_site_fract_y
_atom_site_fract_z
Si Si1 0.009111 0.285374 0.175358
Si Si2 0.570005 0.959892 0.591868
Si Si3 0.143679 0.769754 0.742163
Si Si4 0.794080 0.611543 0.232653
Si Si5 0.653304 0.381101 0.458816
Si Si6 0.331309 0.443612 0.952718
Si Si7 0.000000 0.913561 0.500000
Si Si8 0.834974 0.116508 0.468640
O O1 0.998019 0.360996 0.262714
O O2 0.945881 0.227131 0.229639
O O3 0.088297 0.251102 0.232907
O O4 0.000000 0.301454 0.000000
O O5 0.500000 0.988239 0.500000
O O6 0.571328 0.867779 0.588753
O O7 0.563328 0.000000 0.750000
O O8 0.170249 0.829752 0.625000
O O9 0.177404 0.689262 0.696832
O O10 0.165688 0.797668 0.908740
O O11 0.736866 0.633370 0.101204
O O12 0.749254 0.564543 0.363990
O O13 0.649401 0.350599 0.625000
O O14 0.590227 0.331680 0.370626
O O15 0.640425 0.470943 0.450139
O O16 0.394644 0.394644 0.875000
O O17 0.937793 0.865801 0.588507
O O18 0.035636 0.964365 0.625000
O O19 0.881677 0.118324 0.625000
#
# Coordination Sequence:
#
# PCOD8304893 Si02
#       8
#     8   8   8   8   8   8   4   8
#     4  11  23  42  65  97 131 167 215 268 327 405
#     4  11  25  47  74  99 128 166 221 278 344 399
#     4  11  21  40  65  89 124 170 218 265 328 400
#     4  10  23  42  66  91 127 179 217 268 329 408
#     4  11  22  37  60  98 138 172 221 271 324 385
#     4  10  20  38  63  91 133 181 223 260 320 393
#     4  12  24  42  60  90 128 174 222 266 324 410
#     4  12  25  39  63  94 132 171 216 271 341 396
#
# _framework density 21.156988999999999
#
# number of rings (size 3 to 8) (size 9 to 14) (size 15 to 20)
#    0.000    1.067    2.000    6.000    3.733    3.200 
#    0.000    2.667    0.000    0.000    0.000    0.000 
#    0.000    0.000    0.000    0.000    0.000    0.000 
#
# Total GULP energy -743456.918005 kJ/mol
# GULP energy per Si atom -12390.948633 kJ/mol
# Density = 2.110883 g / cm^3
# Si number density = 21.156989 Si / 1000 Ang^3
#
#
#
# Elastic Constant Matrix: (Units=GPa)
#
#
# Indices 1 2 3 4 5 6 
#
# 1 111.6868 -12.1298 51.3079 0.0000 0.0000 0.0000
# 2 -12.1298 111.6759 51.3088 0.0000 0.0000 0.0000
# 3 51.3079 51.3088 159.6356 0.0000 0.0000 0.0000
# 4 0.0000 0.0000 0.0000 21.2144 0.0000 0.0000
# 5 0.0000 0.0000 0.0000 0.0000 21.2094 0.0000
# 6 0.0000 0.0000 0.0000 0.0000 0.0000 42.1890
#
#
#
# Elastic Compliance Matrix: (Units=1/GPa)
#
#
# Indices 1 2 3 4 5 6 
#
# 1 0.011549 0.003473 -0.004828 0.000000 0.000000 0.000000
# 2 0.003473 0.011550 -0.004828 0.000000 0.000000 0.000000
# 3 -0.004828 -0.004828 0.009368 0.000000 0.000000 0.000000
# 4 0.000000 0.000000 0.000000 0.047138 0.000000 0.000000
# 5 0.000000 0.000000 0.000000 0.000000 0.047149 0.000000
# 6 0.000000 0.000000 0.000000 0.000000 0.000000 0.023703
#
#
# Mechanical properties :
#
#
# Convention : Reuss Voigt Hill
#
# Bulk Modulus (GPa) = 49.75377 62.66354 56.20865
# Shear Modulus (GPa) = 29.49447 36.42332 32.95890
#
# Velocity S-wave (km/s) = 3.73778 4.15369 3.95121
# Velocity P-wave (km/s) = 6.49581 7.25857 6.88776
#
# Compressibility (1/GPa) = 0.02009898
#
# Stress axis : x y z
#
# Youngs Moduli (GPa) = 86.59024 86.57975 106.74749
#
# Poissons Ratio (x) = -0.30065 0.51537
# Poissons Ratio (y) = -0.30069 0.51542
# Poissons Ratio (z) = 0.41805 0.41804
#
# Static dielectric constant tensor:
#      x y z
#    x 4.055340 0.000000 0.000000 
#    y 0.000000 4.055350 0.000000 
#    z 0.000000 0.000000 4.038280 
# 
# 
# High freq. dielectric constant tensor:
#      x y z
#    x 1.832560 0.000000 0.000000 
#    y 0.000000 1.832560 0.000000 
#    z 0.000000 0.000000 1.830680 
# 
# From -- ./inp_files/10072.got.cif
#   From: 2010.03.12/outbox.cif.g09.slc.cpg/sg91_6_cif.got.tgz:10072.got - 2010.04.08 20:27:58.
