data_PCOD8304988
_publ_section_title
;
Structure prediction by ZEFSAII (Michael W. Deem and Ramdas Pophale) SiO2 
 PCOD8304988
Probable space group: P 41 2 2
;
_chemical_formula_sum "Si O2"
_cell_formula_units_Z 36
_cell_length_a 11.773902
_cell_length_b 11.773902
_cell_length_c 12.238791
_cell_angle_alpha 90.000000
_cell_angle_beta 90.000000
_cell_angle_gamma 90.000000
_cell_volume 1696.599567
_symmetry_space_group_name_H-M "P 41 2 2"
_symmetry_group_IT_number 91
_symmetry_cell_setting 'tetragonal'
loop_
_space_group_symop_operation_xyz
x,y,z
-y,x,1/4+z
-x,-y,1/2+z
y,-x,3/4+z
x,-y,1/2-z
-x,y,-z
y,x,3/4-z
-y,-x,1/4-z
loop_
_atom_site_type_symbol
_atom_site_label
_atom_site_fract_x
_atom_site_fract_y
_atom_site_fract_z
Si Si1 0.089661 0.500000 0.250000
Si Si2 0.866668 0.580806 0.976908
Si Si3 0.788437 0.812411 0.636835
Si Si4 0.976025 0.728273 0.303365
Si Si5 0.350204 0.216007 0.799578
O O1 0.162019 0.443389 0.349034
O O2 0.012046 0.597478 0.300145
O O3 0.816623 0.703223 0.010071
O O4 0.807453 0.483942 0.050649
O O5 0.000000 0.577297 0.000000
O O6 0.765865 0.920933 0.560760
O O7 0.764192 0.694458 0.573328
O O8 0.918759 0.813191 0.676851
O O9 0.887021 0.728369 0.403065
O O10 0.326714 0.326714 0.875000
#
# Coordination Sequence:
#
# PCOD8304988 Si02
#       5
#     4   8   8   8   8
#     4  12  22  40  70  88 132 170 226 288 314 386
#     4  12  22  41  64  97 127 171 226 275 320 395
#     4  11  23  39  66  96 132 176 223 266 335 409
#     4  11  21  40  65  98 129 177 218 274 337 397
#     4  10  21  40  69  96 128 171 220 279 328 392
#
# _framework density 21.218914000000002
#
# number of rings (size 3 to 8) (size 9 to 14) (size 15 to 20)
#    0.000    0.889    6.667    0.667    0.000    3.556 
#    0.000    8.889    0.000    2.667    0.000    0.000 
#    0.000    0.000    0.000    0.000    0.000    0.000 
#
# Total GULP energy -446325.864279 kJ/mol
# GULP energy per Si atom -12397.940674 kJ/mol
# Density = 2.117062 g / cm^3
# Si number density = 21.218914 Si / 1000 Ang^3
#
#
#
# Elastic Constant Matrix: (Units=GPa)
#
#
# Indices 1 2 3 4 5 6 
#
# 1 81.0660 14.8564 25.8021 0.0000 0.0000 0.0000
# 2 14.8564 81.0660 25.8021 0.0000 0.0000 0.0000
# 3 25.8021 25.8021 112.3139 0.0000 0.0000 0.0000
# 4 0.0000 0.0000 0.0000 34.7505 0.0000 0.0000
# 5 0.0000 0.0000 0.0000 0.0000 34.7505 0.0000
# 6 0.0000 0.0000 0.0000 0.0000 0.0000 23.9600
#
#
#
# Elastic Compliance Matrix: (Units=1/GPa)
#
#
# Indices 1 2 3 4 5 6 
#
# 1 0.013499 -0.001604 -0.002733 0.000000 0.000000 0.000000
# 2 -0.001604 0.013499 -0.002733 0.000000 0.000000 0.000000
# 3 -0.002733 -0.002733 0.010159 0.000000 0.000000 0.000000
# 4 0.000000 0.000000 0.000000 0.028777 0.000000 0.000000
# 5 0.000000 0.000000 0.000000 0.000000 0.028777 0.000000
# 6 0.000000 0.000000 0.000000 0.000000 0.000000 0.041736
#
#
# Mechanical properties :
#
#
# Convention : Reuss Voigt Hill
#
# Bulk Modulus (GPa) = 43.44275 45.26302 44.35288
# Shear Modulus (GPa) = 31.59370 32.55790 32.07580
#
# Velocity S-wave (km/s) = 3.86287 3.92137 3.89223
# Velocity P-wave (km/s) = 6.35718 6.47152 6.41460
#
# Compressibility (1/GPa) = 0.02301880
#
# Stress axis : x y z
#
# Youngs Moduli (GPa) = 74.07743 74.07743 98.43287
#
# Poissons Ratio (x) = 0.11883 0.26899
# Poissons Ratio (y) = 0.11883 0.26899
# Poissons Ratio (z) = 0.20243 0.20243
#
# Static dielectric constant tensor:
#      x y z
#    x 3.747260 0.000000 0.000000 
#    y 0.000000 3.747260 0.000000 
#    z 0.000000 0.000000 4.122600 
# 
# 
# High freq. dielectric constant tensor:
#      x y z
#    x 1.812590 0.000000 0.000000 
#    y 0.000000 1.812590 0.000000 
#    z 0.000000 0.000000 1.845460 
# 
# From -- ./inp_files/3541.got.cif
#   From: 2010.03.12/outbox.cif.g09.slc.cpg/sg91_2_cif.got.tgz:3541.got - 2010.04.08 20:27:58.
