data_PCOD8304062
_publ_section_title
;
Structure prediction by ZEFSAII (Michael W. Deem and Ramdas Pophale) SiO2 
 PCOD8304062
Probable space group: I 4/M
;
_chemical_formula_sum "Si O2"
_cell_formula_units_Z 80
_cell_length_a 11.183958
_cell_length_b 11.183958
_cell_length_c 28.363069
_cell_angle_alpha 90.000000
_cell_angle_beta 90.000000
_cell_angle_gamma 90.000000
_cell_volume 3547.678667
_symmetry_space_group_name_H-M "I 4/M"
_symmetry_group_IT_number 87
_symmetry_cell_setting 'tetragonal'
loop_
_space_group_symop_operation_xyz
x,y,z
-y,x,z
-x,-y,z
y,-x,z
-x,-y,-z
y,-x,-z
x,y,-z
-y,x,-z
1/2+x,1/2+y,1/2+z
1/2-y,1/2+x,1/2+z
1/2-x,1/2-y,1/2+z
1/2+y,1/2-x,1/2+z
1/2-x,1/2-y,1/2-z
1/2+y,1/2-x,1/2-z
1/2+x,1/2+y,1/2-z
1/2-y,1/2+x,1/2-z
loop_
_atom_site_type_symbol
_atom_site_label
_atom_site_fract_x
_atom_site_fract_y
_atom_site_fract_z
Si Si1 0.322102 0.413369 0.343020
Si Si2 0.750000 0.750000 0.420349
Si Si3 0.820555 0.583245 0.250000
Si Si4 0.091175 0.176090 0.500000
Si Si5 0.086631 0.822102 0.656980
Si Si6 0.408825 0.323910 0.500000
O O1 0.446005 0.341592 0.345777
O O2 0.243522 0.368206 0.387293
O O3 0.255659 0.378292 0.295176
O O4 0.868167 0.752648 0.453288
O O5 0.743522 0.868206 0.387293
O O6 0.631832 0.747352 0.453288
O O7 0.843383 0.442399 0.250000
O O8 0.744341 0.621708 0.204824
O O9 0.950324 0.160608 0.500000
O O10 0.946005 0.841592 0.654223
O O11 0.549676 0.339392 0.500000
#
# Coordination Sequence:
#
# PCOD8304062 Si02
#       6
#    16  16  16   8  16   8
#     4  11  23  40  64  92 124 168 216 257 305 370
#     4  11  22  37  64  94 122 155 204 265 312 356
#     4  11  24  41  62  93 132 168 204 255 314 367
#     4  10  22  42  66  92 122 160 206 255 316 387
#     4  11  23  40  64  92 124 168 216 257 305 370
#     4  10  22  42  66  92 122 160 206 255 316 387
#
# _framework density 22.549958
#
# number of rings (size 3 to 8) (size 9 to 14) (size 15 to 20)
#    0.000    1.200    0.000    6.000    0.000    7.200 
#    0.000    0.000    0.000   40.800    0.000    0.000 
#    0.000    0.000    0.000    0.000    0.000    0.000 
#
# Total GULP energy -496099.126399 kJ/mol
# GULP energy per Si atom -12402.478160 kJ/mol
# Density = 2.249863 g / cm^3
# Si number density = 22.549958 Si / 1000 Ang^3
#
#
#
# Elastic Constant Matrix: (Units=GPa)
#
#
# Indices 1 2 3 4 5 6 
#
# 1 111.9351 51.9480 66.4966 0.0000 0.0000 -4.6514
# 2 51.9480 111.9351 66.4966 0.0000 0.0000 4.6514
# 3 66.4966 66.4966 214.0234 0.0000 0.0000 0.0000
# 4 0.0000 0.0000 0.0000 36.2585 0.0000 0.0000
# 5 0.0000 0.0000 0.0000 0.0000 36.2585 0.0000
# 6 -4.6514 4.6514 0.0000 0.0000 0.0000 41.2611
#
#
#
# Elastic Compliance Matrix: (Units=1/GPa)
#
#
# Indices 1 2 3 4 5 6 
#
# 1 0.012563 -0.004404 -0.002535 0.000000 0.000000 0.001913
# 2 -0.004404 0.012563 -0.002535 0.000000 0.000000 -0.001913
# 3 -0.002535 -0.002535 0.006248 0.000000 0.000000 0.000000
# 4 0.000000 0.000000 0.000000 0.027580 0.000000 0.000000
# 5 0.000000 0.000000 0.000000 0.000000 0.027580 0.000000
# 6 0.001913 -0.001913 0.000000 0.000000 0.000000 0.024667
#
#
# Mechanical properties :
#
#
# Convention : Reuss Voigt Hill
#
# Bulk Modulus (GPa) = 80.47784 89.75290 85.11537
# Shear Modulus (GPa) = 37.23286 39.61913 38.42599
#
# Velocity S-wave (km/s) = 4.06782 4.19614 4.13248
# Velocity P-wave (km/s) = 7.60454 7.96022 7.78441
#
# Compressibility (1/GPa) = 0.01242578
#
# Stress axis : x y z
#
# Youngs Moduli (GPa) = 79.59888 79.59888 160.06061
#
# Poissons Ratio (x) = 0.35054 0.40576
# Poissons Ratio (y) = 0.35054 0.40576
# Poissons Ratio (z) = 0.20178 0.20178
#
# Static dielectric constant tensor:
#      x y z
#    x 4.024870 0.000000 0.000000 
#    y 0.000000 4.024870 0.000000 
#    z 0.000000 0.000000 4.326080 
# 
# 
# High freq. dielectric constant tensor:
#      x y z
#    x 1.884290 0.000000 0.000000 
#    y 0.000000 1.884290 0.000000 
#    z 0.000000 0.000000 1.911720 
# 
# From -- ./inp_files/6550.got.cif
#   From: 2010.03.12/outbox.cif.g09.slc.cpg/sg87_4_cif.got.tgz:6550.got - 2010.04.08 20:16:13.
