data_PCOD8304661
_publ_section_title
;
Structure prediction by ZEFSAII (Michael W. Deem and Ramdas Pophale) SiO2 
 PCOD8304661
Probable space group: P 4 21 2
;
_chemical_formula_sum "Si O2"
_cell_formula_units_Z 36
_cell_length_a 8.202820
_cell_length_b 8.202820
_cell_length_c 23.784163
_cell_angle_alpha 90.000000
_cell_angle_beta 90.000000
_cell_angle_gamma 90.000000
_cell_volume 1600.347279
_symmetry_space_group_name_H-M "P 4 21 2"
_symmetry_group_IT_number 90
_symmetry_cell_setting 'tetragonal'
loop_
_space_group_symop_operation_xyz
x,y,z
1/2-y,1/2+x,z
-x,-y,z
1/2+y,1/2-x,z
1/2+x,1/2-y,-z
1/2-x,1/2+y,-z
y,x,-z
-y,-x,-z
loop_
_atom_site_type_symbol
_atom_site_label
_atom_site_fract_x
_atom_site_fract_y
_atom_site_fract_z
Si Si1 0.042970 0.764573 0.457076
Si Si2 0.742006 0.565622 0.045263
Si Si3 0.500000 0.500000 0.642220
Si Si4 0.932070 0.239748 0.172056
Si Si5 0.466729 0.264299 0.258110
O O1 0.183497 0.631750 0.467199
O O2 0.088038 0.911963 0.500000
O O3 0.022699 0.837695 0.394841
O O4 0.805613 0.385359 0.035322
O O5 0.673901 0.586708 0.108444
O O6 0.600670 0.600670 0.000000
O O7 0.338795 0.489457 0.680035
O O8 0.804922 0.386255 0.183209
O O9 0.902778 0.085370 0.213142
O O10 0.637559 0.178837 0.248686
#
# Coordination Sequence:
#
# PCOD8304661 Si02
#       5
#     8   8   4   8   8
#     4  11  24  43  70 103 139 179 221 266 316 374
#     4   9  19  35  55  82 116 154 199 251 310 381
#     4  12  23  42  64  90 129 172 216 260 312 384
#     4   9  19  38  61  83 114 160 209 259 323 399
#     4  11  24  39  58  87 121 159 207 266 323 375
#
# _framework density 22.495115999999999
#
# number of rings (size 3 to 8) (size 9 to 14) (size 15 to 20)
#    0.000    1.778    0.000    5.667    0.000    2.222 
#    0.000   11.111    0.000    0.000    0.000    0.000 
#    0.000    0.000    0.000    0.000    0.000    0.000 
#
# Total GULP energy -446031.124762 kJ/mol
# GULP energy per Si atom -12389.753466 kJ/mol
# Density = 2.244392 g / cm^3
# Si number density = 22.495116 Si / 1000 Ang^3
#
#
#
# Elastic Constant Matrix: (Units=GPa)
#
#
# Indices 1 2 3 4 5 6 
#
# 1 265.8157 -116.6637 56.8512 0.0000 0.0000 0.0000
# 2 -116.6637 265.8169 56.8519 0.0000 0.0000 0.0000
# 3 56.8512 56.8519 153.4837 0.0000 0.0000 0.0000
# 4 0.0000 0.0000 0.0000 -334.3866 0.0000 0.0000
# 5 0.0000 0.0000 0.0000 0.0000 -334.5496 0.0000
# 6 0.0000 0.0000 0.0000 0.0000 0.0000 54.1416
#
#
#
# Elastic Compliance Matrix: (Units=1/GPa)
#
#
# Indices 1 2 3 4 5 6 
#
# 1 0.005979 0.003364 -0.003461 0.000000 0.000000 0.000000
# 2 0.003364 0.005979 -0.003461 0.000000 0.000000 0.000000
# 3 -0.003461 -0.003461 0.009079 0.000000 0.000000 0.000000
# 4 0.000000 0.000000 0.000000 -0.002991 0.000000 0.000000
# 5 0.000000 0.000000 0.000000 0.000000 -0.002989 0.000000
# 6 0.000000 0.000000 0.000000 0.000000 0.000000 0.018470
#
#
# Mechanical properties :
#
#
# Convention : Reuss Voigt Hill
#
# Bulk Modulus (GPa) = 71.82905 75.46611 73.64758
# Shear Modulus (GPa) = 110.42037 -77.08715 16.66661
#
# Velocity S-wave (km/s) = 7.01377 -5.86027 2.72490
# Velocity P-wave (km/s) = 9.87881 3.48852 6.53533
#
# Compressibility (1/GPa) = 0.01392194
#
# Stress axis : x y z
#
# Youngs Moduli (GPa) = 167.26356 167.26401 110.14418
#
# Poissons Ratio (x) = -0.56269 0.38116
# Poissons Ratio (y) = -0.56269 0.38116
# Poissons Ratio (z) = 0.57883 0.57883
#
# Static dielectric constant tensor:
#      x y z
#    x 4.047760 0.000000 0.000000 
#    y 0.000000 4.047770 0.000000 
#    z 0.000000 0.000000 3.929540 
# 
# 
# High freq. dielectric constant tensor:
#      x y z
#    x 1.902510 0.000000 0.000000 
#    y 0.000000 1.902510 0.000000 
#    z 0.000000 0.000000 1.879940 
# 
# From -- ./inp_files/2751.got.cif
#   From: 2010.03.12/outbox.cif.g09.slc.cpg/sg90_2_cif.got.tgz:2751.got - 2010.04.08 20:26:03.
