data_PCOD8304858
_publ_section_title
;
Structure prediction by ZEFSAII (Michael W. Deem and Ramdas Pophale) SiO2 
 PCOD8304858
Probable space group: P 41 2 2
;
_chemical_formula_sum "Si O2"
_cell_formula_units_Z 44
_cell_length_a 12.094402
_cell_length_b 12.094402
_cell_length_c 15.804415
_cell_angle_alpha 90.000000
_cell_angle_beta 90.000000
_cell_angle_gamma 90.000000
_cell_volume 2311.783846
_symmetry_space_group_name_H-M "P 41 2 2"
_symmetry_group_IT_number 91
_symmetry_cell_setting 'tetragonal'
loop_
_space_group_symop_operation_xyz
x,y,z
-y,x,1/4+z
-x,-y,1/2+z
y,-x,3/4+z
x,-y,1/2-z
-x,y,-z
y,x,3/4-z
-y,-x,1/4-z
loop_
_atom_site_type_symbol
_atom_site_label
_atom_site_fract_x
_atom_site_fract_y
_atom_site_fract_z
Si Si1 0.001132 0.787425 0.161661
Si Si2 0.174043 0.623381 0.769524
Si Si3 0.658096 0.341905 0.125000
Si Si4 0.420556 0.297763 0.189302
Si Si5 0.000000 0.902590 0.000000
Si Si6 0.500000 0.726842 0.000000
Si Si7 0.631613 0.802205 0.857003
O O1 0.026257 0.896615 0.216553
O O2 0.108203 0.723905 0.127596
O O3 0.927336 0.705874 0.216781
O O4 0.944974 0.828973 0.074680
O O5 0.129301 0.500000 0.750000
O O6 0.240377 0.667994 0.689118
O O7 0.251798 0.624554 0.851122
O O8 0.546325 0.337647 0.179634
O O9 0.348673 0.401994 0.215332
O O10 0.411850 0.199092 0.259783
O O11 0.468384 0.810465 0.076233
O O12 0.681648 0.681648 0.875000
#
# Coordination Sequence:
#
# PCOD8304858 Si02
#       7
#     8   8   4   8   4   4   8
#     4  11  22  40  63  84 121 148 208 257 311 364
#     4  10  23  39  60  85 122 164 190 248 307 370
#     4  10  22  38  56  88 124 162 204 226 302 384
#     4  10  21  36  59  88 121 161 200 240 295 367
#     4  10  22  40  64  88 102 158 204 260 306 354
#     4  10  22  30  58  90 118 154 190 246 296 344
#     4  10  20  36  55  89 115 150 200 255 301 358
#
# _framework density 19.032920000000001
#
# number of rings (size 3 to 8) (size 9 to 14) (size 15 to 20)
#    0.000    1.818    1.818    2.182   11.455    1.455 
#    0.000    0.000    0.000    0.000    0.000    0.000 
#    0.000    0.000    0.000    0.000    0.000    0.000 
#
# Total GULP energy -545332.583870 kJ/mol
# GULP energy per Si atom -12393.922361 kJ/mol
# Density = 1.898960 g / cm^3
# Si number density = 19.032920 Si / 1000 Ang^3
#
#
#
# Elastic Constant Matrix: (Units=GPa)
#
#
# Indices 1 2 3 4 5 6 
#
# 1 90.2539 55.0559 55.8095 0.0000 0.0000 0.0000
# 2 55.0559 90.2540 55.8089 0.0000 0.0000 0.0000
# 3 55.8095 55.8089 144.0289 0.0000 0.0000 0.0000
# 4 0.0000 0.0000 0.0000 31.6980 0.0000 0.0000
# 5 0.0000 0.0000 0.0000 0.0000 31.6981 0.0000
# 6 0.0000 0.0000 0.0000 0.0000 0.0000 23.3447
#
#
#
# Elastic Compliance Matrix: (Units=1/GPa)
#
#
# Indices 1 2 3 4 5 6 
#
# 1 0.019105 -0.009306 -0.003797 0.000000 0.000000 0.000000
# 2 -0.009306 0.019104 -0.003797 0.000000 0.000000 0.000000
# 3 -0.003797 -0.003797 0.009885 0.000000 0.000000 0.000000
# 4 0.000000 0.000000 0.000000 0.031548 0.000000 0.000000
# 5 0.000000 0.000000 0.000000 0.000000 0.031548 0.000000
# 6 0.000000 0.000000 0.000000 0.000000 0.000000 0.042836
#
#
# Mechanical properties :
#
#
# Convention : Reuss Voigt Hill
#
# Bulk Modulus (GPa) = 69.95394 73.09837 71.52616
# Shear Modulus (GPa) = 25.96189 27.87234 26.91712
#
# Velocity S-wave (km/s) = 3.69731 3.83094 3.76472
# Velocity P-wave (km/s) = 7.42030 7.61956 7.52059
#
# Compressibility (1/GPa) = 0.01429512
#
# Stress axis : x y z
#
# Youngs Moduli (GPa) = 52.34362 52.34405 101.15958
#
# Poissons Ratio (x) = 0.48712 0.38408
# Poissons Ratio (y) = 0.48712 0.38406
# Poissons Ratio (z) = 0.19874 0.19873
#
# Static dielectric constant tensor:
#      x y z
#    x 3.358710 0.000000 0.000000 
#    y 0.000000 3.358700 0.000000 
#    z 0.000000 0.000000 3.900950 
# 
# 
# High freq. dielectric constant tensor:
#      x y z
#    x 1.728690 0.000000 0.000000 
#    y 0.000000 1.728690 0.000000 
#    z 0.000000 0.000000 1.763960 
# 
# From -- ./inp_files/11899.got.cif
#   From: 2010.03.12/outbox.cif.g09.slc.cpg/sg91_6_cif.got.tgz:11899.got - 2010.04.08 20:27:58.
