data_PCOD8304369
_publ_section_title
;
Structure prediction by ZEFSAII (Michael W. Deem and Ramdas Pophale) SiO2 
 PCOD8304369
Probable space group: I 41/A
;
_chemical_formula_sum "Si O2"
_cell_formula_units_Z 72
_cell_length_a 17.039607
_cell_length_b 17.039607
_cell_length_c 10.539040
_cell_angle_alpha 90.000000
_cell_angle_beta 90.000000
_cell_angle_gamma 90.000000
_cell_volume 3059.991364
_symmetry_space_group_name_H-M "I 41/A"
_symmetry_group_IT_number 88
_space_group.IT_coordinate_system_code '2'
_symmetry_cell_setting 'tetragonal'
loop_
_space_group_symop_operation_xyz
x,y,z
3/4-y,1/4+x,1/4+z
-x,1/2-y,z
1/4+y,1/4-x,1/4+z
-x,-y,-z
1/4+y,3/4-x,3/4-z
x,1/2+y,-z
3/4-y,3/4+x,3/4-z
1/2+x,1/2+y,1/2+z
1/4-y,3/4+x,3/4+z
1/2-x,-y,1/2+z
3/4+y,3/4-x,3/4+z
1/2-x,1/2-y,1/2-z
3/4+y,1/4-x,1/4-z
1/2+x,y,1/2-z
1/4-y,1/4+x,1/4-z
loop_
_atom_site_type_symbol
_atom_site_label
_atom_site_fract_x
_atom_site_fract_y
_atom_site_fract_z
Si Si1 0.879091 0.126599 0.793832
Si Si2 0.870778 0.340536 0.997295
Si Si3 0.684335 0.000281 0.889243
Si Si4 0.203458 0.319220 0.044701
Si Si5 0.000000 0.250000 0.856627
O O1 0.827665 0.118513 0.665715
O O2 0.940896 0.197648 0.772329
O O3 0.924664 0.045841 0.821257
O O4 0.819119 0.147289 0.906948
O O5 0.824213 0.378118 0.879130
O O6 0.953812 0.308472 0.949607
O O7 0.818471 0.271877 0.058140
O O8 0.880947 0.406264 0.102811
O O9 0.737868 0.011768 0.764125
#
# Coordination Sequence:
#
# PCOD8304369 Si02
#       5
#    16  16  16  16   8
#     4  11  24  47  72 106 148 198 249 316 381 452
#     4  11  26  45  75 110 153 200 258 314 378 457
#     4  12  27  49  78 112 149 197 256 313 376 450
#     4  11  24  43  75 107 150 197 256 313 376 455
#     4  10  26  47  69 106 156 202 246 316 392 456
#
# _framework density 23.529478999999998
#
# number of rings (size 3 to 8) (size 9 to 14) (size 15 to 20)
#    0.000    0.889    2.222    4.000    6.222    6.222 
#    0.000    1.111    0.000    0.000    0.000    0.000 
#    0.000    0.000    0.000    0.000    0.000    0.000 
#
# Total GULP energy -446577.107949 kJ/mol
# GULP energy per Si atom -12404.919665 kJ/mol
# Density = 2.347592 g / cm^3
# Si number density = 23.529479 Si / 1000 Ang^3
#
#
#
# Elastic Constant Matrix: (Units=GPa)
#
#
# Indices 1 2 3 4 5 6 
#
# 1 117.8743 48.2445 49.5612 0.0000 0.0000 0.7305
# 2 48.2445 117.8743 49.5612 0.0000 0.0000 -0.7305
# 3 49.5612 49.5612 109.5823 0.0000 0.0000 0.0000
# 4 0.0000 0.0000 0.0000 30.9042 0.0000 0.0000
# 5 0.0000 0.0000 0.0000 0.0000 30.9042 0.0000
# 6 0.7305 -0.7305 0.0000 0.0000 0.0000 43.9667
#
#
#
# Elastic Compliance Matrix: (Units=1/GPa)
#
#
# Indices 1 2 3 4 5 6 
#
# 1 0.011306 -0.003061 -0.003729 0.000000 0.000000 -0.000239
# 2 -0.003061 0.011306 -0.003729 0.000000 0.000000 0.000239
# 3 -0.003729 -0.003729 0.012499 0.000000 0.000000 0.000000
# 4 0.000000 0.000000 0.000000 0.032358 0.000000 0.000000
# 5 0.000000 0.000000 0.000000 0.000000 0.032358 0.000000
# 6 -0.000239 0.000239 0.000000 0.000000 0.000000 0.022752
#
#
# Mechanical properties :
#
#
# Convention : Reuss Voigt Hill
#
# Bulk Modulus (GPa) = 71.06050 71.11831 71.08940
# Shear Modulus (GPa) = 33.71388 34.35263 34.03325
#
# Velocity S-wave (km/s) = 3.78939 3.82512 3.80729
# Velocity P-wave (km/s) = 7.02938 7.05688 7.04314
#
# Compressibility (1/GPa) = 0.01407252
#
# Stress axis : x y z
#
# Youngs Moduli (GPa) = 88.45055 88.45055 80.00930
#
# Poissons Ratio (x) = 0.27074 0.29835
# Poissons Ratio (y) = 0.27074 0.29835
# Poissons Ratio (z) = 0.32982 0.32982
#
# Static dielectric constant tensor:
#      x y z
#    x 4.384610 0.000000 0.000000 
#    y 0.000000 4.384610 0.000000 
#    z 0.000000 0.000000 3.992590 
# 
# 
# High freq. dielectric constant tensor:
#      x y z
#    x 1.944500 0.000000 0.000000 
#    y 0.000000 1.944500 0.000000 
#    z 0.000000 0.000000 1.916710 
# 
# From -- ./inp_files/2413.got.cif
#   From: 2010.03.12/outbox.cif.g09.slc.cpg/sg88_2_cif.got.tgz:2413.got - 2010.04.08 20:20:55.
