data_PCOD8304998
_publ_section_title
;
Structure prediction by ZEFSAII (Michael W. Deem and Ramdas Pophale) SiO2 
 PCOD8304998
Probable space group: P 41 2 2
;
_chemical_formula_sum "Si O2"
_cell_formula_units_Z 36
_cell_length_a 8.833040
_cell_length_b 8.833040
_cell_length_c 20.474372
_cell_angle_alpha 90.000000
_cell_angle_beta 90.000000
_cell_angle_gamma 90.000000
_cell_volume 1597.463648
_symmetry_space_group_name_H-M "P 41 2 2"
_symmetry_group_IT_number 91
_symmetry_cell_setting 'tetragonal'
loop_
_space_group_symop_operation_xyz
x,y,z
-y,x,1/4+z
-x,-y,1/2+z
y,-x,3/4+z
x,-y,1/2-z
-x,y,-z
y,x,3/4-z
-y,-x,1/4-z
loop_
_atom_site_type_symbol
_atom_site_label
_atom_site_fract_x
_atom_site_fract_y
_atom_site_fract_z
Si Si1 0.355021 0.322699 0.257863
Si Si2 0.705767 0.144521 0.871391
Si Si3 0.716930 0.429894 0.181223
Si Si4 0.827704 0.325766 0.985586
Si Si5 0.806491 0.806491 0.875000
O O1 0.374431 0.500000 0.250000
O O2 0.291621 0.243440 0.193318
O O3 0.513434 0.249055 0.279442
O O4 0.231269 0.297140 0.313518
O O5 0.533376 0.147317 0.902388
O O6 0.819173 0.220798 0.922476
O O7 0.769332 0.979296 0.856231
O O8 0.655033 0.500000 0.250000
O O9 0.584583 0.415418 0.125000
O O10 0.757401 0.256383 0.202185
O O11 0.000000 0.357461 0.000000
#
# Coordination Sequence:
#
# PCOD8304998 Si02
#       5
#     8   8   8   8   4
#     4  12  25  45  74 103 141 191 255 311 361 450
#     4  11  25  46  71 107 147 195 244 310 373 456
#     4  10  21  41  74 105 146 194 259 312 368 449
#     4  11  24  44  71 108 148 192 244 305 383 446
#     4  12  28  48  68 106 152 192 242 308 394 444
#
# _framework density 22.535724999999999
#
# number of rings (size 3 to 8) (size 9 to 14) (size 15 to 20)
#    0.000    0.889    2.222    5.333    0.000    4.444 
#   10.000    0.000    0.000    0.000    0.000    0.000 
#    0.000    0.000    0.000    0.000    0.000    0.000 
#
# Total GULP energy -446058.651695 kJ/mol
# GULP energy per Si atom -12390.518103 kJ/mol
# Density = 2.248443 g / cm^3
# Si number density = 22.535725 Si / 1000 Ang^3
#
#
#
# Elastic Constant Matrix: (Units=GPa)
#
#
# Indices 1 2 3 4 5 6 
#
# 1 138.4465 62.6505 41.8356 0.0000 0.0000 0.0000
# 2 62.6505 138.4462 41.8354 0.0000 0.0000 0.0000
# 3 41.8356 41.8354 144.6990 0.0000 0.0000 0.0000
# 4 0.0000 0.0000 0.0000 24.9036 0.0000 0.0000
# 5 0.0000 0.0000 0.0000 0.0000 24.9037 0.0000
# 6 0.0000 0.0000 0.0000 0.0000 0.0000 29.6524
#
#
#
# Elastic Compliance Matrix: (Units=1/GPa)
#
#
# Indices 1 2 3 4 5 6 
#
# 1 0.009423 -0.003770 -0.001634 0.000000 0.000000 0.000000
# 2 -0.003770 0.009423 -0.001634 0.000000 0.000000 0.000000
# 3 -0.001634 -0.001634 0.007856 0.000000 0.000000 0.000000
# 4 0.000000 0.000000 0.000000 0.040155 0.000000 0.000000
# 5 0.000000 0.000000 0.000000 0.000000 0.040155 0.000000
# 6 0.000000 0.000000 0.000000 0.000000 0.000000 0.033724
#
#
# Mechanical properties :
#
#
# Convention : Reuss Voigt Hill
#
# Bulk Modulus (GPa) = 79.21360 79.35942 79.28651
# Shear Modulus (GPa) = 31.44230 34.24329 32.84279
#
# Velocity S-wave (km/s) = 3.73932 3.90232 3.82169
# Velocity P-wave (km/s) = 7.33961 7.45624 7.39815
#
# Compressibility (1/GPa) = 0.01262410
#
# Stress axis : x y z
#
# Youngs Moduli (GPa) = 106.12302 106.12285 127.29235
#
# Poissons Ratio (x) = 0.40012 0.20804
# Poissons Ratio (y) = 0.40012 0.20804
# Poissons Ratio (z) = 0.17344 0.17344
#
# Static dielectric constant tensor:
#      x y z
#    x 4.250620 0.000000 0.000000 
#    y 0.000000 4.250620 0.000000 
#    z 0.000000 0.000000 4.625300 
# 
# 
# High freq. dielectric constant tensor:
#      x y z
#    x 1.877610 0.000000 0.000000 
#    y 0.000000 1.877610 0.000000 
#    z 0.000000 0.000000 1.911860 
# 
# From -- ./inp_files/21373.got.cif
#   From: 2010.03.12/outbox.cif.g09.slc.cpg/sg91_11_cif.got.tgz:21373.got - 2010.04.08 20:27:58.
