data_PCOD8304252
_publ_section_title
;
Structure prediction by ZEFSAII (Michael W. Deem and Ramdas Pophale) SiO2 
 PCOD8304252
Probable space group: I 41/A
;
_chemical_formula_sum "Si O2"
_cell_formula_units_Z 120
_cell_length_a 23.879969
_cell_length_b 23.879969
_cell_length_c 9.504394
_cell_angle_alpha 90.000000
_cell_angle_beta 90.000000
_cell_angle_gamma 90.000000
_cell_volume 5419.908426
_symmetry_space_group_name_H-M "I 41/A"
_symmetry_group_IT_number 88
_space_group.IT_coordinate_system_code '2'
_symmetry_cell_setting 'tetragonal'
loop_
_space_group_symop_operation_xyz
x,y,z
3/4-y,1/4+x,1/4+z
-x,1/2-y,z
1/4+y,1/4-x,1/4+z
-x,-y,-z
1/4+y,3/4-x,3/4-z
x,1/2+y,-z
3/4-y,3/4+x,3/4-z
1/2+x,1/2+y,1/2+z
1/4-y,3/4+x,3/4+z
1/2-x,-y,1/2+z
3/4+y,3/4-x,3/4+z
1/2-x,1/2-y,1/2-z
3/4+y,1/4-x,1/4-z
1/2+x,y,1/2-z
1/4-y,1/4+x,1/4-z
loop_
_atom_site_type_symbol
_atom_site_label
_atom_site_fract_x
_atom_site_fract_y
_atom_site_fract_z
Si Si1 0.500000 0.750000 0.953846
Si Si2 0.905246 0.175088 0.370154
Si Si3 0.686813 0.709166 0.311884
Si Si4 0.155994 0.358434 0.113146
Si Si5 0.251340 0.294463 0.960417
Si Si6 0.607707 0.912770 0.363297
Si Si7 0.945751 0.859582 0.432812
Si Si8 0.195678 0.005909 0.088058
O O1 0.459671 0.714403 0.851270
O O2 0.534756 0.705298 0.050049
O O3 0.918229 0.108390 0.369611
O O4 0.866980 0.184202 0.232095
O O5 0.876142 0.192184 0.516634
O O6 0.731478 0.730425 0.430443
O O7 0.653854 0.763014 0.251381
O O8 0.721742 0.680679 0.184726
O O9 0.195442 0.327749 0.000646
O O10 0.191238 0.405866 0.192600
O O11 0.105155 0.385014 0.019368
O O12 0.298885 0.302115 0.082314
O O13 0.613766 0.866115 0.244533
O O14 0.661827 0.952530 0.353442
O O15 0.243333 0.021962 0.196795
#
# Coordination Sequence:
#
# PCOD8304252 Si02
#       8
#     8  16  16  16  16  16  16  16
#     4  10  23  42  71  96 129 166 223 270 323 390
#     4  11  22  40  65 100 126 166 215 272 316 390
#     4  10  21  39  66  94 124 167 227 258 310 401
#     4  10  22  42  61  89 135 162 209 267 327 385
#     4  10  20  41  63  88 126 171 210 266 322 376
#     4  10  20  39  65  85 123 173 201 258 331 370
#     4  11  20  40  68  96 122 169 216 269 312 385
#     4   9  20  39  62  88 121 161 207 261 316 380
#
# _framework density 22.140595000000001
#
# number of rings (size 3 to 8) (size 9 to 14) (size 15 to 20)
#    0.000    1.867    2.667    2.000    0.000    1.067 
#    4.800   10.000    0.000    0.000    0.000    0.000 
#    0.000    0.000    0.000    0.000    0.000    0.000 
#
# Total GULP energy -743576.523589 kJ/mol
# GULP energy per Si atom -12392.942060 kJ/mol
# Density = 2.209020 g / cm^3
# Si number density = 22.140595 Si / 1000 Ang^3
#
#
#
# Elastic Constant Matrix: (Units=GPa)
#
#
# Indices 1 2 3 4 5 6 
#
# 1 71.4244 18.2505 47.0216 0.0000 0.0000 2.0947
# 2 18.2505 71.4244 47.0216 0.0000 0.0000 -2.0947
# 3 47.0216 47.0216 111.6731 0.0000 0.0000 0.0000
# 4 0.0000 0.0000 0.0000 34.7598 0.0000 0.0000
# 5 0.0000 0.0000 0.0000 0.0000 34.7598 0.0000
# 6 2.0947 -2.0947 0.0000 0.0000 0.0000 25.5872
#
#
#
# Elastic Compliance Matrix: (Units=1/GPa)
#
#
# Indices 1 2 3 4 5 6 
#
# 1 0.019449 0.000521 -0.008408 0.000000 0.000000 -0.001550
# 2 0.000521 0.019449 -0.008408 0.000000 0.000000 0.001550
# 3 -0.008408 -0.008408 0.016036 0.000000 0.000000 0.000000
# 4 0.000000 0.000000 0.000000 0.028769 0.000000 0.000000
# 5 0.000000 0.000000 0.000000 0.000000 0.028769 0.000000
# 6 -0.001550 0.001550 0.000000 0.000000 0.000000 0.039336
#
#
# Mechanical properties :
#
#
# Convention : Reuss Voigt Hill
#
# Bulk Modulus (GPa) = 44.76109 53.23436 48.99772
# Shear Modulus (GPa) = 26.06256 28.50326 27.28291
#
# Velocity S-wave (km/s) = 3.43467 3.59189 3.51416
# Velocity P-wave (km/s) = 5.99916 6.42637 6.21644
#
# Compressibility (1/GPa) = 0.02234083
#
# Stress axis : x y z
#
# Youngs Moduli (GPa) = 51.41701 51.41701 62.36107
#
# Poissons Ratio (x) = -0.02677 0.52436
# Poissons Ratio (y) = -0.02677 0.52436
# Poissons Ratio (z) = 0.43233 0.43233
#
# Static dielectric constant tensor:
#      x y z
#    x 4.144500 0.000000 0.000000 
#    y 0.000000 4.144500 0.000000 
#    z 0.000000 0.000000 3.785050 
# 
# 
# High freq. dielectric constant tensor:
#      x y z
#    x 1.866940 0.000000 0.000000 
#    y 0.000000 1.866940 0.000000 
#    z 0.000000 0.000000 1.857790 
# 
# From -- ./inp_files/1861.got.cif
#   From: 2010.03.12/outbox.cif.g09.slc.cpg/sg88_1_cif.got.tgz:1861.got - 2010.04.08 20:20:55.
