data_PCOD8304127
_publ_section_title
;
Structure prediction by ZEFSAII (Michael W. Deem and Ramdas Pophale) SiO2 
 PCOD8304127
Probable space group: I 4/M
;
_chemical_formula_sum "Si O2"
_cell_formula_units_Z 80
_cell_length_a 10.635096
_cell_length_b 10.635096
_cell_length_c 30.865852
_cell_angle_alpha 90.000000
_cell_angle_beta 90.000000
_cell_angle_gamma 90.000000
_cell_volume 3491.090429
_symmetry_space_group_name_H-M "I 4/M"
_symmetry_group_IT_number 87
_symmetry_cell_setting 'tetragonal'
loop_
_space_group_symop_operation_xyz
x,y,z
-y,x,z
-x,-y,z
y,-x,z
-x,-y,-z
y,-x,-z
x,y,-z
-y,x,-z
1/2+x,1/2+y,1/2+z
1/2-y,1/2+x,1/2+z
1/2-x,1/2-y,1/2+z
1/2+y,1/2-x,1/2+z
1/2-x,1/2-y,1/2-z
1/2+y,1/2-x,1/2-z
1/2+x,1/2+y,1/2-z
1/2-y,1/2+x,1/2-z
loop_
_atom_site_type_symbol
_atom_site_label
_atom_site_fract_x
_atom_site_fract_y
_atom_site_fract_z
Si Si1 0.684393 0.589909 0.656298
Si Si2 0.162522 0.124806 0.318673
Si Si3 0.857239 0.520287 0.050753
Si Si4 0.615277 0.168777 0.259011
Si Si5 0.741370 0.281676 0.907949
O O1 0.556310 0.665693 0.664115
O O2 0.790398 0.636456 0.690481
O O3 0.727316 0.621483 0.606554
O O4 0.232023 0.177822 0.275310
O O5 0.226214 0.163765 0.363433
O O6 0.023209 0.174406 0.317064
O O7 0.761144 0.420123 0.072289
O O8 0.807317 0.662097 0.059550
O O9 0.000000 0.500000 0.068095
O O10 0.854196 0.494285 0.000000
O O11 0.467553 0.171527 0.248838
#
# Coordination Sequence:
#
# PCOD8304127 Si02
#       5
#    16  16  16  16  16
#     4  11  24  42  65  95 134 184 238 291 343 406
#     4  11  22  38  60  90 127 170 223 273 333 397
#     4  11  26  47  73 106 141 180 226 286 360 434
#     4  11  24  40  60  91 132 183 235 286 341 401
#     4  12  23  44  70 101 137 177 225 286 348 423
#
# _framework density 22.915476999999999
#
# number of rings (size 3 to 8) (size 9 to 14) (size 15 to 20)
#    0.000    0.800    2.000    5.400    0.000    4.400 
#    0.000    1.000    0.000    0.000    0.000    8.400 
#    0.000    0.000    0.000    0.000    0.000    0.000 
#
# Total GULP energy -496008.682385 kJ/mol
# GULP energy per Si atom -12400.217060 kJ/mol
# Density = 2.286332 g / cm^3
# Si number density = 22.915477 Si / 1000 Ang^3
#
#
#
# Elastic Constant Matrix: (Units=GPa)
#
#
# Indices 1 2 3 4 5 6 
#
# 1 100.9627 26.6444 34.8890 0.0000 0.0000 -1.4235
# 2 26.6444 100.9627 34.8890 0.0000 0.0000 1.4235
# 3 34.8890 34.8890 95.1740 0.0000 0.0000 0.0000
# 4 0.0000 0.0000 0.0000 39.7184 0.0000 0.0000
# 5 0.0000 0.0000 0.0000 0.0000 39.7184 0.0000
# 6 -1.4235 1.4235 0.0000 0.0000 0.0000 37.1119
#
#
#
# Elastic Compliance Matrix: (Units=1/GPa)
#
#
# Indices 1 2 3 4 5 6 
#
# 1 0.011638 -0.001837 -0.003593 0.000000 0.000000 0.000517
# 2 -0.001837 0.011638 -0.003593 0.000000 0.000000 -0.000517
# 3 -0.003593 -0.003593 0.013141 0.000000 0.000000 0.000000
# 4 0.000000 0.000000 0.000000 0.025177 0.000000 0.000000
# 5 0.000000 0.000000 0.000000 0.000000 0.025177 0.000000
# 6 0.000517 -0.000517 0.000000 0.000000 0.000000 0.026985
#
#
# Mechanical properties :
#
#
# Convention : Reuss Voigt Hill
#
# Bulk Modulus (GPa) = 54.43071 54.43822 54.43447
# Shear Modulus (GPa) = 36.25089 36.68821 36.46955
#
# Velocity S-wave (km/s) = 3.98167 4.00562 3.99367
# Velocity P-wave (km/s) = 6.70393 6.72317 6.71356
#
# Compressibility (1/GPa) = 0.01837198
#
# Stress axis : x y z
#
# Youngs Moduli (GPa) = 85.92289 85.92289 76.09601
#
# Poissons Ratio (x) = 0.15785 0.27341
# Poissons Ratio (y) = 0.15785 0.27341
# Poissons Ratio (z) = 0.30872 0.30872
#
# Static dielectric constant tensor:
#      x y z
#    x 4.332770 0.000000 0.000000 
#    y 0.000000 4.332770 0.000000 
#    z 0.000000 0.000000 4.079870 
# 
# 
# High freq. dielectric constant tensor:
#      x y z
#    x 1.926790 0.000000 0.000000 
#    y 0.000000 1.926790 0.000000 
#    z 0.000000 0.000000 1.898480 
# 
# From -- ./inp_files/6469.got.cif
#   From: 2010.03.12/outbox.cif.g09.slc.cpg/sg87_4_cif.got.tgz:6469.got - 2010.04.08 20:16:13.
