data_PCOD8304901
_publ_section_title
;
Structure prediction by ZEFSAII (Michael W. Deem and Ramdas Pophale) SiO2 
 PCOD8304901
Probable space group: P 41 2 2
;
_chemical_formula_sum "Si O2"
_cell_formula_units_Z 52
_cell_length_a 21.731054
_cell_length_b 21.731054
_cell_length_c 5.958464
_cell_angle_alpha 90.000000
_cell_angle_beta 90.000000
_cell_angle_gamma 90.000000
_cell_volume 2813.817341
_symmetry_space_group_name_H-M "P 41 2 2"
_symmetry_group_IT_number 91
_symmetry_cell_setting 'tetragonal'
loop_
_space_group_symop_operation_xyz
x,y,z
-y,x,1/4+z
-x,-y,1/2+z
y,-x,3/4+z
x,-y,1/2-z
-x,y,-z
y,x,3/4-z
-y,-x,1/4-z
loop_
_atom_site_type_symbol
_atom_site_label
_atom_site_fract_x
_atom_site_fract_y
_atom_site_fract_z
Si Si1 0.214107 0.689665 0.551150
Si Si2 0.264606 0.102892 0.063012
Si Si3 0.071005 0.446641 0.066224
Si Si4 0.435311 0.820527 0.482096
Si Si5 0.144317 0.641038 0.159129
Si Si6 0.771794 0.000000 0.250000
Si Si7 0.063264 0.160722 0.380153
O O1 0.278859 0.721142 0.625000
O O2 0.161635 0.733935 0.651751
O O3 0.214878 0.620165 0.645195
O O4 0.197915 0.681743 0.284545
O O5 0.322936 0.105759 0.223481
O O6 0.204760 0.106089 0.219361
O O7 0.269163 0.038723 0.925744
O O8 0.081623 0.500000 0.250000
O O9 0.092840 0.381130 0.166384
O O10 0.113558 0.452938 0.846384
O O11 0.000000 0.443373 0.000000
O O12 0.500000 0.782394 0.500000
O O13 0.417302 0.826141 0.219820
O O14 0.812863 0.050529 0.381378
O O15 0.095329 0.095329 0.375000
O O16 0.000000 0.148771 0.500000
#
# Coordination Sequence:
#
# PCOD8304901 Si02
#       7
#     8   8   8   8   8   4   8
#     4  10  23  38  59  88 113 149 192 243 289 347
#     4  10  22  38  58  80 108 147 180 234 294 348
#     4  11  22  36  53  77 111 154 203 245 282 337
#     4  10  20  39  58  78 113 156 191 237 295 344
#     4  10  22  40  54  81 111 151 195 239 291 344
#     4  10  22  42  56  80 108 134 180 224 294 360
#     4  10  23  41  61  81 103 133 171 229 293 367
#
# _framework density 18.480232999999998
#
# number of rings (size 3 to 8) (size 9 to 14) (size 15 to 20)
#    0.000    1.846    1.538    1.385    4.308    3.692 
#   42.923    0.000    0.000    0.000    0.000    0.000 
#    0.000    0.000    5.231    0.000    0.000    0.000 
#
# Total GULP energy -644342.367066 kJ/mol
# GULP energy per Si atom -12391.199367 kJ/mol
# Density = 1.843817 g / cm^3
# Si number density = 18.480233 Si / 1000 Ang^3
#
#
#
# Elastic Constant Matrix: (Units=GPa)
#
#
# Indices 1 2 3 4 5 6 
#
# 1 79.3154 59.0084 38.7472 0.0000 0.0000 0.0000
# 2 59.0084 79.3170 38.7477 0.0000 0.0000 0.0000
# 3 38.7472 38.7477 115.5297 0.0000 0.0000 0.0000
# 4 0.0000 0.0000 0.0000 17.5350 0.0000 0.0000
# 5 0.0000 0.0000 0.0000 0.0000 17.5351 0.0000
# 6 0.0000 0.0000 0.0000 0.0000 0.0000 17.4861
#
#
#
# Elastic Compliance Matrix: (Units=1/GPa)
#
#
# Indices 1 2 3 4 5 6 
#
# 1 0.029072 -0.020170 -0.002986 0.000000 0.000000 0.000000
# 2 -0.020170 0.029072 -0.002986 0.000000 0.000000 0.000000
# 3 -0.002986 -0.002986 0.010659 0.000000 0.000000 0.000000
# 4 0.000000 0.000000 0.000000 0.057029 0.000000 0.000000
# 5 0.000000 0.000000 0.000000 0.000000 0.057028 0.000000
# 6 0.000000 0.000000 0.000000 0.000000 0.000000 0.057188
#
#
# Mechanical properties :
#
#
# Convention : Reuss Voigt Hill
#
# Bulk Modulus (GPa) = 60.53274 60.79652 60.66463
# Shear Modulus (GPa) = 16.78765 19.68848 18.23807
#
# Velocity S-wave (km/s) = 3.01726 3.26756 3.14490
# Velocity P-wave (km/s) = 6.70559 6.87062 6.78861
#
# Compressibility (1/GPa) = 0.01651998
#
# Stress axis : x y z
#
# Youngs Moduli (GPa) = 34.39685 34.39751 93.82183
#
# Poissons Ratio (x) = 0.69380 0.28012
# Poissons Ratio (y) = 0.69379 0.28012
# Poissons Ratio (z) = 0.10270 0.10270
#
# Static dielectric constant tensor:
#      x y z
#    x 3.314710 0.000000 0.000000 
#    y 0.000000 3.314700 0.000000 
#    z 0.000000 0.000000 4.335910 
# 
# 
# High freq. dielectric constant tensor:
#      x y z
#    x 1.689490 0.000000 0.000000 
#    y 0.000000 1.689490 0.000000 
#    z 0.000000 0.000000 1.742600 
# 
# From -- ./inp_files/1348.got.cif
#   From: 2010.03.12/outbox.cif.g09.slc.cpg/sg91_1_cif.got.tgz:1348.got - 2010.04.08 20:27:58.
