data_PCOD8304861
_publ_section_title
;
Structure prediction by ZEFSAII (Michael W. Deem and Ramdas Pophale) SiO2 
 PCOD8304861
Probable space group: P 41 2 2
;
_chemical_formula_sum "Si O2"
_cell_formula_units_Z 24
_cell_length_a 9.362590
_cell_length_b 9.362590
_cell_length_c 14.272644
_cell_angle_alpha 90.000000
_cell_angle_beta 90.000000
_cell_angle_gamma 90.000000
_cell_volume 1251.112734
_symmetry_space_group_name_H-M "P 41 2 2"
_symmetry_group_IT_number 91
_symmetry_cell_setting 'tetragonal'
loop_
_space_group_symop_operation_xyz
x,y,z
-y,x,1/4+z
-x,-y,1/2+z
y,-x,3/4+z
x,-y,1/2-z
-x,y,-z
y,x,3/4-z
-y,-x,1/4-z
loop_
_atom_site_type_symbol
_atom_site_label
_atom_site_fract_x
_atom_site_fract_y
_atom_site_fract_z
Si Si1 0.718167 0.057747 0.646040
Si Si2 0.539716 0.835207 0.228660
Si Si3 0.776082 0.386371 0.330653
O O1 0.864398 0.135603 0.625000
O O2 0.731839 0.000000 0.750000
O O3 0.580758 0.162238 0.646908
O O4 0.691490 0.929812 0.572933
O O5 0.663820 0.740780 0.184047
O O6 0.471567 0.761040 0.321262
O O7 0.590288 0.000000 0.250000
O O8 0.756015 0.500000 0.250000
#
# Coordination Sequence:
#
# PCOD8304861 Si02
#       3
#     8   8   8
#     4   9  21  38  54  77 108 141 179 221 269 325
#     4   9  21  38  54  80 113 144 182 227 275 331
#     4  10  20  36  57  83 111 141 183 230 273 326
#
# _framework density 19.182924
#
# number of rings (size 3 to 8) (size 9 to 14) (size 15 to 20)
#    0.000    3.333    0.000    1.000    0.000   14.667 
#    0.000    0.000    0.000    0.000    0.000    0.000 
#    0.000    0.000    0.000    0.000    0.000    0.000 
#
# Total GULP energy -297314.702574 kJ/mol
# GULP energy per Si atom -12388.112607 kJ/mol
# Density = 1.913926 g / cm^3
# Si number density = 19.182924 Si / 1000 Ang^3
#
#
#
# Elastic Constant Matrix: (Units=GPa)
#
#
# Indices 1 2 3 4 5 6 
#
# 1 103.6352 87.4236 37.1732 0.0000 0.0000 0.0000
# 2 87.4236 103.6407 37.1754 0.0000 0.0000 0.0000
# 3 37.1732 37.1754 46.5175 0.0000 0.0000 0.0000
# 4 0.0000 0.0000 0.0000 18.1586 0.0000 0.0000
# 5 0.0000 0.0000 0.0000 0.0000 18.1571 0.0000
# 6 0.0000 0.0000 0.0000 0.0000 0.0000 29.6889
#
#
#
# Elastic Compliance Matrix: (Units=1/GPa)
#
#
# Indices 1 2 3 4 5 6 
#
# 1 0.034635 -0.027039 -0.006069 0.000000 0.000000 0.000000
# 2 -0.027039 0.034635 -0.006071 0.000000 0.000000 0.000000
# 3 -0.006069 -0.006071 0.031200 0.000000 0.000000 0.000000
# 4 0.000000 0.000000 0.000000 0.055070 0.000000 0.000000
# 5 0.000000 0.000000 0.000000 0.000000 0.055075 0.000000
# 6 0.000000 0.000000 0.000000 0.000000 0.000000 0.033683
#
#
# Mechanical properties :
#
#
# Convention : Reuss Voigt Hill
#
# Bulk Modulus (GPa) = 45.22803 64.14866 54.68835
# Shear Modulus (GPa) = 15.15027 19.33564 17.24296
#
# Velocity S-wave (km/s) = 2.81335 3.17828 3.00137
# Velocity P-wave (km/s) = 5.84651 6.85432 6.37038
#
# Compressibility (1/GPa) = 0.02211018
#
# Stress axis : x y z
#
# Youngs Moduli (GPa) = 28.87212 28.87294 32.05168
#
# Poissons Ratio (x) = 0.78069 0.19453
# Poissons Ratio (y) = 0.78067 0.19460
# Poissons Ratio (z) = 0.17524 0.17530
#
# Static dielectric constant tensor:
#      x y z
#    x 3.896730 0.000000 0.000000 
#    y 0.000000 3.896750 0.000000 
#    z 0.000000 0.000000 3.384220 
# 
# 
# High freq. dielectric constant tensor:
#      x y z
#    x 1.748350 0.000000 0.000000 
#    y 0.000000 1.748350 0.000000 
#    z 0.000000 0.000000 1.735810 
# 
# From -- ./inp_files/20895.got.cif
#   From: 2010.03.12/outbox.cif.g09.slc.cpg/sg91_11_cif.got.tgz:20895.got - 2010.04.08 20:27:58.
