data_PCOD8304161
_publ_section_title
;
Structure prediction by ZEFSAII (Michael W. Deem and Ramdas Pophale) SiO2 
 PCOD8304161
Probable space group: I 4/M
;
_chemical_formula_sum "Si O2"
_cell_formula_units_Z 72
_cell_length_a 12.841231
_cell_length_b 12.841231
_cell_length_c 23.323347
_cell_angle_alpha 90.000000
_cell_angle_beta 90.000000
_cell_angle_gamma 90.000000
_cell_volume 3845.954932
_symmetry_space_group_name_H-M "I 4/M"
_symmetry_group_IT_number 87
_symmetry_cell_setting 'tetragonal'
loop_
_space_group_symop_operation_xyz
x,y,z
-y,x,z
-x,-y,z
y,-x,z
-x,-y,-z
y,-x,-z
x,y,-z
-y,x,-z
1/2+x,1/2+y,1/2+z
1/2-y,1/2+x,1/2+z
1/2-x,1/2-y,1/2+z
1/2+y,1/2-x,1/2+z
1/2-x,1/2-y,1/2-z
1/2+y,1/2-x,1/2-z
1/2+x,1/2+y,1/2-z
1/2-y,1/2+x,1/2-z
loop_
_atom_site_type_symbol
_atom_site_label
_atom_site_fract_x
_atom_site_fract_y
_atom_site_fract_z
Si Si1 0.606392 0.135355 0.188347
Si Si2 0.865038 0.596208 0.317923
Si Si3 0.115010 0.130200 0.500000
Si Si4 0.365189 0.587393 0.432997
Si Si5 0.730074 0.264294 0.894606
O O1 0.628573 0.168739 0.253825
O O2 0.486861 0.114722 0.176384
O O3 0.641826 0.235087 0.151349
O O4 0.664184 0.025958 0.172674
O O5 0.812031 0.668280 0.365160
O O6 0.159689 0.185005 0.443129
O O7 0.990942 0.145798 0.500000
O O8 0.357162 0.469965 0.407638
O O9 0.377349 0.578607 0.500000
O O10 0.262729 0.653397 0.420363
#
# Coordination Sequence:
#
# PCOD8304161 Si02
#       5
#    16  16   8  16  16
#     4   9  19  35  54  79 109 136 168 217 268 307
#     4   9  19  35  54  79 109 136 168 217 268 307
#     4  11  26  42  52  71 106 140 174 219 264 304
#     4   9  18  32  49  74 108 138 166 209 260 299
#     4  12  19  34  57  80  98 141 185 210 247 311
#
# _framework density 18.720967000000002
#
# number of rings (size 3 to 8) (size 9 to 14) (size 15 to 20)
#    0.000    2.111    1.111    5.333    0.000    0.000 
#    0.000    0.000    0.000    5.333    0.000   18.667 
#    0.000    0.000    0.000    0.000    0.000    0.000 
#
# Total GULP energy -446106.409905 kJ/mol
# GULP energy per Si atom -12391.844720 kJ/mol
# Density = 1.867836 g / cm^3
# Si number density = 18.720967 Si / 1000 Ang^3
#
#
#
# Elastic Constant Matrix: (Units=GPa)
#
#
# Indices 1 2 3 4 5 6 
#
# 1 52.3055 23.7982 35.5894 0.0000 0.0000 0.0438
# 2 23.7982 52.3055 35.5894 0.0000 0.0000 -0.0438
# 3 35.5894 35.5894 95.1119 0.0000 0.0000 0.0000
# 4 0.0000 0.0000 0.0000 21.7306 0.0000 0.0000
# 5 0.0000 0.0000 0.0000 0.0000 21.7306 0.0000
# 6 0.0438 -0.0438 0.0000 0.0000 0.0000 35.2697
#
#
#
# Elastic Compliance Matrix: (Units=1/GPa)
#
#
# Indices 1 2 3 4 5 6 
#
# 1 0.027647 -0.007432 -0.007564 0.000000 0.000000 -0.000044
# 2 -0.007432 0.027647 -0.007564 0.000000 0.000000 0.000044
# 3 -0.007564 -0.007564 0.016175 0.000000 0.000000 0.000000
# 4 0.000000 0.000000 0.000000 0.046018 0.000000 0.000000
# 5 0.000000 0.000000 0.000000 0.000000 0.046018 0.000000
# 6 -0.000044 0.000044 0.000000 0.000000 0.000000 0.028353
#
#
# Mechanical properties :
#
#
# Convention : Reuss Voigt Hill
#
# Bulk Modulus (GPa) = 37.95402 43.29745 40.62574
# Shear Modulus (GPa) = 20.34507 22.72924 21.53715
#
# Velocity S-wave (km/s) = 3.30017 3.48818 3.39548
# Velocity P-wave (km/s) = 5.90246 6.27704 6.09263
#
# Compressibility (1/GPa) = 0.02634767
#
# Stress axis : x y z
#
# Youngs Moduli (GPa) = 36.17074 36.17074 61.82552
#
# Poissons Ratio (x) = 0.26883 0.46764
# Poissons Ratio (y) = 0.26883 0.46764
# Poissons Ratio (z) = 0.27359 0.27359
#
# Static dielectric constant tensor:
#      x y z
#    x 3.427020 0.000000 0.000000 
#    y 0.000000 3.427020 0.000000 
#    z 0.000000 0.000000 3.439030 
# 
# 
# High freq. dielectric constant tensor:
#      x y z
#    x 1.725740 0.000000 0.000000 
#    y 0.000000 1.725740 0.000000 
#    z 0.000000 0.000000 1.721940 
# 
# From -- ./inp_files/6182.got.cif
#   From: 2010.03.12/outbox.cif.g09.slc.cpg/sg87_4_cif.got.tgz:6182.got - 2010.04.08 20:16:13.
