data_PCOD8304756
_publ_section_title
;
Structure prediction by ZEFSAII (Michael W. Deem and Ramdas Pophale) SiO2 
 PCOD8304756
Probable space group: P 41 2 2
;
_chemical_formula_sum "Si O2"
_cell_formula_units_Z 32
_cell_length_a 12.594408
_cell_length_b 12.594408
_cell_length_c 10.952755
_cell_angle_alpha 90.000000
_cell_angle_beta 90.000000
_cell_angle_gamma 90.000000
_cell_volume 1737.316282
_symmetry_space_group_name_H-M "P 41 2 2"
_symmetry_group_IT_number 91
_symmetry_cell_setting 'tetragonal'
loop_
_space_group_symop_operation_xyz
x,y,z
-y,x,1/4+z
-x,-y,1/2+z
y,-x,3/4+z
x,-y,1/2-z
-x,y,-z
y,x,3/4-z
-y,-x,1/4-z
loop_
_atom_site_type_symbol
_atom_site_label
_atom_site_fract_x
_atom_site_fract_y
_atom_site_fract_z
Si Si1 0.767822 0.500000 0.750000
Si Si2 0.120364 0.611583 0.046113
Si Si3 0.000000 0.049264 0.500000
Si Si4 0.166452 0.833549 0.125000
Si Si5 0.617128 0.617128 0.375000
Si Si6 0.321688 0.624039 0.888133
O O1 0.841743 0.486295 0.630086
O O2 0.696336 0.604146 0.724500
O O3 0.135178 0.711147 0.136712
O O4 0.199487 0.628600 0.931751
O O5 0.000000 0.594837 0.000000
O O6 0.105850 0.121327 0.494376
O O7 0.017259 0.982741 0.625000
O O8 0.633515 0.493661 0.400353
O O9 0.658419 0.679109 0.495376
#
# Coordination Sequence:
#
# PCOD8304756 Si02
#       6
#     4   8   4   4   4   8
#     4  12  22  38  64  94 122 170 218 256 324 394
#     4  12  24  40  65  90 131 171 212 263 323 392
#     4   8  16  32  62  86 114 150 214 260 310 358
#     4  10  18  35  64  85 116 162 212 260 310 375
#     4  10  22  35  64  99 130 160 214 268 324 369
#     4  11  21  38  64  95 130 166 212 268 315 388
#
# _framework density 18.419214
#
# number of rings (size 3 to 8) (size 9 to 14) (size 15 to 20)
#    0.750    0.500    6.250    1.500    0.000    2.000 
#    0.000    0.000   13.750    0.000    0.000    0.000 
#    0.000    0.000    0.000    0.000    0.000    0.000 
#
# Total GULP energy -396467.428981 kJ/mol
# GULP energy per Si atom -12389.607156 kJ/mol
# Density = 1.837729 g / cm^3
# Si number density = 18.419214 Si / 1000 Ang^3
#
#
#
# Elastic Constant Matrix: (Units=GPa)
#
#
# Indices 1 2 3 4 5 6 
#
# 1 109.3769 29.6758 43.0950 0.0000 0.0000 0.0000
# 2 29.6758 109.3762 43.0952 0.0000 0.0000 0.0000
# 3 43.0950 43.0952 134.2427 0.0000 0.0000 0.0000
# 4 0.0000 0.0000 0.0000 31.8671 0.0000 0.0000
# 5 0.0000 0.0000 0.0000 0.0000 31.8670 0.0000
# 6 0.0000 0.0000 0.0000 0.0000 0.0000 23.1288
#
#
#
# Elastic Compliance Matrix: (Units=1/GPa)
#
#
# Indices 1 2 3 4 5 6 
#
# 1 0.010762 -0.001784 -0.002882 0.000000 0.000000 0.000000
# 2 -0.001784 0.010763 -0.002882 0.000000 0.000000 0.000000
# 3 -0.002882 -0.002882 0.009300 0.000000 0.000000 0.000000
# 4 0.000000 0.000000 0.000000 0.031380 0.000000 0.000000
# 5 0.000000 0.000000 0.000000 0.000000 0.031380 0.000000
# 6 0.000000 0.000000 0.000000 0.000000 0.000000 0.043236
#
#
# Mechanical properties :
#
#
# Convention : Reuss Voigt Hill
#
# Bulk Modulus (GPa) = 63.58461 64.96976 64.27719
# Shear Modulus (GPa) = 31.81442 33.18123 32.49783
#
# Velocity S-wave (km/s) = 4.16052 4.24895 4.20497
# Velocity P-wave (km/s) = 7.59445 7.70849 7.65168
#
# Compressibility (1/GPa) = 0.01572708
#
# Stress axis : x y z
#
# Youngs Moduli (GPa) = 92.91585 92.91505 107.53058
#
# Poissons Ratio (x) = 0.16580 0.30992
# Poissons Ratio (y) = 0.16580 0.30992
# Poissons Ratio (z) = 0.26780 0.26780
#
# Static dielectric constant tensor:
#      x y z
#    x 3.313760 0.000000 0.000000 
#    y 0.000000 3.313770 0.000000 
#    z 0.000000 0.000000 4.117110 
# 
# 
# High freq. dielectric constant tensor:
#      x y z
#    x 1.702600 0.000000 0.000000 
#    y 0.000000 1.702600 0.000000 
#    z 0.000000 0.000000 1.717190 
# 
# From -- ./inp_files/3486.got.cif
#   From: 2010.03.12/outbox.cif.g09.slc.cpg/sg91_2_cif.got.tgz:3486.got - 2010.04.08 20:27:58.
