data_PCOD8304957
_publ_section_title
;
Structure prediction by ZEFSAII (Michael W. Deem and Ramdas Pophale) SiO2 
 PCOD8304957
Probable space group: P 41 2 2
;
_chemical_formula_sum "Si O2"
_cell_formula_units_Z 40
_cell_length_a 12.173286
_cell_length_b 12.173286
_cell_length_c 13.401116
_cell_angle_alpha 90.000000
_cell_angle_beta 90.000000
_cell_angle_gamma 90.000000
_cell_volume 1985.896532
_symmetry_space_group_name_H-M "P 41 2 2"
_symmetry_group_IT_number 91
_symmetry_cell_setting 'tetragonal'
loop_
_space_group_symop_operation_xyz
x,y,z
-y,x,1/4+z
-x,-y,1/2+z
y,-x,3/4+z
x,-y,1/2-z
-x,y,-z
y,x,3/4-z
-y,-x,1/4-z
loop_
_atom_site_type_symbol
_atom_site_label
_atom_site_fract_x
_atom_site_fract_y
_atom_site_fract_z
Si Si1 0.617186 0.500000 0.250000
Si Si2 0.866334 0.133667 0.625000
Si Si3 0.099016 0.707100 0.558843
Si Si4 0.329292 0.878783 0.275863
Si Si5 0.474692 0.723832 0.704640
Si Si6 0.912907 0.790147 0.225193
O O1 0.540142 0.392159 0.261372
O O2 0.699361 0.502520 0.340735
O O3 0.774312 0.149376 0.707952
O O4 0.982142 0.143970 0.682196
O O5 0.208634 0.637791 0.543139
O O6 0.119165 0.823110 0.503979
O O7 0.063287 0.720030 0.674479
O O8 0.000000 0.648100 0.500000
O O9 0.424631 0.792131 0.249460
O O10 0.294803 0.870075 0.391555
O O11 0.374237 0.000000 0.250000
#
# Coordination Sequence:
#
# PCOD8304957 Si02
#       6
#     4   4   8   8   8   8
#     4  10  22  36  60  80 108 150 186 242 290 342
#     4  10  22  38  58  86 118 158 194 230 294 356
#     4  11  22  35  59  88 115 151 193 244 292 350
#     4  10  21  38  60  83 118 156 189 239 289 347
#     4  11  21  39  58  85 114 147 197 242 299 354
#     4  10  21  38  57  85 120 154 195 238 291 352
#
# _framework density 20.142036000000001
#
# number of rings (size 3 to 8) (size 9 to 14) (size 15 to 20)
#    0.000    1.600    0.000    6.600    0.000    5.600 
#    0.000    0.000    0.000    4.800    0.000    0.000 
#    0.000    0.000    0.000    0.000    0.000    0.000 
#
# Total GULP energy -495942.922117 kJ/mol
# GULP energy per Si atom -12398.573053 kJ/mol
# Density = 2.009619 g / cm^3
# Si number density = 20.142036 Si / 1000 Ang^3
#
#
#
# Elastic Constant Matrix: (Units=GPa)
#
#
# Indices 1 2 3 4 5 6 
#
# 1 123.8688 79.6460 50.7211 0.0000 0.0000 0.0000
# 2 79.6460 123.8681 50.7218 0.0000 0.0000 0.0000
# 3 50.7211 50.7218 116.0645 0.0000 0.0000 0.0000
# 4 0.0000 0.0000 0.0000 21.3105 0.0000 0.0000
# 5 0.0000 0.0000 0.0000 0.0000 21.3104 0.0000
# 6 0.0000 0.0000 0.0000 0.0000 0.0000 50.3025
#
#
#
# Elastic Compliance Matrix: (Units=1/GPa)
#
#
# Indices 1 2 3 4 5 6 
#
# 1 0.014447 -0.008165 -0.002745 0.000000 0.000000 0.000000
# 2 -0.008165 0.014448 -0.002745 0.000000 0.000000 0.000000
# 3 -0.002745 -0.002745 0.011015 0.000000 0.000000 0.000000
# 4 0.000000 0.000000 0.000000 0.046925 0.000000 0.000000
# 5 0.000000 0.000000 0.000000 0.000000 0.046925 0.000000
# 6 0.000000 0.000000 0.000000 0.000000 0.000000 0.019880
#
#
# Mechanical properties :
#
#
# Convention : Reuss Voigt Hill
#
# Bulk Modulus (GPa) = 79.37643 80.66436 80.02040
# Shear Modulus (GPa) = 27.00479 30.76552 28.88515
#
# Velocity S-wave (km/s) = 3.66555 3.91247 3.79102
# Velocity P-wave (km/s) = 7.57687 7.78104 7.67963
#
# Compressibility (1/GPa) = 0.01259820
#
# Stress axis : x y z
#
# Youngs Moduli (GPa) = 69.21656 69.21562 90.78205
#
# Poissons Ratio (x) = 0.56517 0.24922
# Poissons Ratio (y) = 0.56518 0.24924
# Poissons Ratio (z) = 0.19002 0.19003
#
# Static dielectric constant tensor:
#      x y z
#    x 3.689510 0.000000 0.000000 
#    y 0.000000 3.689510 0.000000 
#    z 0.000000 0.000000 3.941200 
# 
# 
# High freq. dielectric constant tensor:
#      x y z
#    x 1.789030 0.000000 0.000000 
#    y 0.000000 1.789030 0.000000 
#    z 0.000000 0.000000 1.791460 
# 
# From -- ./inp_files/11407.got.cif
#   From: 2010.03.12/outbox.cif.g09.slc.cpg/sg91_6_cif.got.tgz:11407.got - 2010.04.08 20:27:58.
