data_PCOD8304677
_publ_section_title
;
Structure prediction by ZEFSAII (Michael W. Deem and Ramdas Pophale) SiO2 
 PCOD8304677
Probable space group: P 4 21 2
;
_chemical_formula_sum "Si O2"
_cell_formula_units_Z 40
_cell_length_a 8.063537
_cell_length_b 8.063537
_cell_length_c 25.089380
_cell_angle_alpha 90.000000
_cell_angle_beta 90.000000
_cell_angle_gamma 90.000000
_cell_volume 1631.327268
_symmetry_space_group_name_H-M "P 4 21 2"
_symmetry_group_IT_number 90
_symmetry_cell_setting 'tetragonal'
loop_
_space_group_symop_operation_xyz
x,y,z
1/2-y,1/2+x,z
-x,-y,z
1/2+y,1/2-x,z
1/2+x,1/2-y,-z
1/2-x,1/2+y,-z
y,x,-z
-y,-x,-z
loop_
_atom_site_type_symbol
_atom_site_label
_atom_site_fract_x
_atom_site_fract_y
_atom_site_fract_z
Si Si1 0.927211 0.236168 0.740793
Si Si2 0.119766 0.747264 0.945629
Si Si3 0.966126 0.768453 0.461367
Si Si4 0.025482 0.768797 0.341436
Si Si5 0.252647 0.396356 0.159886
O O1 0.798854 0.386715 0.733782
O O2 0.915944 0.088358 0.696807
O O3 0.894726 0.157411 0.798705
O O4 0.218300 0.575697 0.941579
O O5 0.176081 0.869934 0.898948
O O6 0.159043 0.840958 0.000000
O O7 0.819640 0.639349 0.473214
O O8 0.924956 0.924956 0.500000
O O9 0.994406 0.834029 0.401375
O O10 0.175852 0.643051 0.328816
O O11 0.212923 0.588629 0.168801
#
# Coordination Sequence:
#
# PCOD8304677 Si02
#       5
#     8   8   8   8   8
#     4  11  24  41  63  96 132 166 213 271 329 393
#     4  11  24  41  62  92 131 176 229 285 340 403
#     4   9  19  39  64  94 129 164 207 256 308 374
#     4   9  19  39  63  91 125 162 207 256 310 379
#     4  11  24  41  64  95 130 171 222 277 335 403
#
# _framework density 24.519912999999999
#
# number of rings (size 3 to 8) (size 9 to 14) (size 15 to 20)
#    0.000    1.800    0.000    4.800    0.000   12.800 
#    0.000   20.000    0.000    9.600    0.000    0.000 
#    0.000    0.000    0.000    0.000    0.000    0.000 
#
# Total GULP energy -495600.067256 kJ/mol
# GULP energy per Si atom -12390.001681 kJ/mol
# Density = 2.446410 g / cm^3
# Si number density = 24.519913 Si / 1000 Ang^3
#
#
#
# Elastic Constant Matrix: (Units=GPa)
#
#
# Indices 1 2 3 4 5 6 
#
# 1 19.0306 96.8609 54.9079 0.0000 0.0000 0.0000
# 2 96.8609 19.0296 54.9078 0.0000 0.0000 0.0000
# 3 54.9079 54.9078 191.8933 0.0000 0.0000 0.0000
# 4 0.0000 0.0000 0.0000 27.4464 0.0000 0.0000
# 5 0.0000 0.0000 0.0000 0.0000 27.4467 0.0000
# 6 0.0000 0.0000 0.0000 0.0000 0.0000 61.9207
#
#
#
# Elastic Compliance Matrix: (Units=1/GPa)
#
#
# Indices 1 2 3 4 5 6 
#
# 1 -0.000505 0.012344 -0.003388 0.000000 0.000000 0.000000
# 2 0.012344 -0.000505 -0.003387 0.000000 0.000000 0.000000
# 3 -0.003388 -0.003387 0.007150 0.000000 0.000000 0.000000
# 4 0.000000 0.000000 0.000000 0.036435 0.000000 0.000000
# 5 0.000000 0.000000 0.000000 0.000000 0.036434 0.000000
# 6 0.000000 0.000000 0.000000 0.000000 0.000000 0.016150
#
#
# Mechanical properties :
#
#
# Convention : Reuss Voigt Hill
#
# Bulk Modulus (GPa) = 57.87962 71.47855 64.67909
# Shear Modulus (GPa) = 55.69121 24.91454 40.30288
#
# Velocity S-wave (km/s) = 4.77095 3.19108 4.05863
# Velocity P-wave (km/s) = 7.34885 6.54155 6.95692
#
# Compressibility (1/GPa) = 0.01727724
#
# Stress axis : x y z
#
# Youngs Moduli (GPa) = -1981.11500 -1980.55563 139.86383
#
# Poissons Ratio (x) = 24.44710 0.47379
# Poissons Ratio (y) = 24.45400 0.47379
# Poissons Ratio (z) = -6.71106 -6.70910
#
# Static dielectric constant tensor:
#      x y z
#    x 4.512180 0.000000 0.000000 
#    y 0.000000 4.512180 0.000000 
#    z 0.000000 0.000000 4.285300 
# 
# 
# High freq. dielectric constant tensor:
#      x y z
#    x 1.998470 0.000000 0.000000 
#    y 0.000000 1.998470 0.000000 
#    z 0.000000 0.000000 1.969210 
# 
# From -- ./inp_files/2964.got.cif
#   From: 2010.03.12/outbox.cif.g09.slc.cpg/sg90_2_cif.got.tgz:2964.got - 2010.04.08 20:26:03.
