data_PCOD8304076
_publ_section_title
;
Structure prediction by ZEFSAII (Michael W. Deem and Ramdas Pophale) SiO2 
 PCOD8304076
Probable space group: I 4/M
;
_chemical_formula_sum "Si O2"
_cell_formula_units_Z 88
_cell_length_a 12.274290
_cell_length_b 12.274290
_cell_length_c 29.295827
_cell_angle_alpha 90.000000
_cell_angle_beta 90.000000
_cell_angle_gamma 90.000000
_cell_volume 4413.656417
_symmetry_space_group_name_H-M "I 4/M"
_symmetry_group_IT_number 87
_symmetry_cell_setting 'tetragonal'
loop_
_space_group_symop_operation_xyz
x,y,z
-y,x,z
-x,-y,z
y,-x,z
-x,-y,-z
y,-x,-z
x,y,-z
-y,x,-z
1/2+x,1/2+y,1/2+z
1/2-y,1/2+x,1/2+z
1/2-x,1/2-y,1/2+z
1/2+y,1/2-x,1/2+z
1/2-x,1/2-y,1/2-z
1/2+y,1/2-x,1/2-z
1/2+x,1/2+y,1/2-z
1/2-y,1/2+x,1/2-z
loop_
_atom_site_type_symbol
_atom_site_label
_atom_site_fract_x
_atom_site_fract_y
_atom_site_fract_z
Si Si1 0.828900 0.053815 0.798446
Si Si2 0.128808 0.819500 0.500000
Si Si3 0.343196 0.983414 0.730750
Si Si4 0.000000 0.500000 0.076276
Si Si5 0.055697 0.343990 0.500000
Si Si6 0.093835 0.859404 0.601415
Si Si7 0.141041 0.367283 0.855793
O O1 0.742288 0.089342 0.836372
O O2 0.929327 0.134743 0.804048
O O3 0.773506 0.062526 0.748006
O O4 0.070567 0.700700 0.500000
O O5 0.087010 0.872183 0.546691
O O6 0.259488 0.842093 0.500000
O O7 0.384603 0.069299 0.770084
O O8 0.335930 0.040815 0.682182
O O9 0.940991 0.589030 0.106787
O O10 0.915505 0.431916 0.045465
O O11 0.161070 0.755923 0.619695
O O12 0.969512 0.849984 0.619979
#
# Coordination Sequence:
#
# PCOD8304076 Si02
#       7
#    16   8  16   8   8  16  16
#     4  10  23  41  59  84 119 163 208 249 292 356
#     4  12  18  39  56  88 116 166 188 244 305 377
#     4   9  19  37  60  84 108 148 190 243 308 365
#     4  11  22  42  55  94 120 162 201 260 288 369
#     4  11  24  35  64  82 128 160 207 240 310 367
#     4  11  22  35  57  91 124 153 191 248 315 377
#     4  11  22  37  62  85 121 156 198 252 309 359
#
# _framework density 19.938116999999998
#
# number of rings (size 3 to 8) (size 9 to 14) (size 15 to 20)
#    0.000    1.455    3.636    2.182    0.000    9.636 
#    0.000    1.818    0.000    0.000    0.000    0.000 
#    0.000    7.273    0.000    0.000    0.000    0.000 
#
# Total GULP energy -545166.463521 kJ/mol
# GULP energy per Si atom -12390.146898 kJ/mol
# Density = 1.989274 g / cm^3
# Si number density = 19.938117 Si / 1000 Ang^3
#
#
#
# Elastic Constant Matrix: (Units=GPa)
#
#
# Indices 1 2 3 4 5 6 
#
# 1 105.4806 41.5444 43.3428 0.0000 0.0000 3.0172
# 2 41.5444 105.4806 43.3428 0.0000 0.0000 -3.0172
# 3 43.3428 43.3428 96.6223 0.0000 0.0000 0.0000
# 4 0.0000 0.0000 0.0000 16.2445 0.0000 0.0000
# 5 0.0000 0.0000 0.0000 0.0000 16.2445 0.0000
# 6 3.0172 -3.0172 0.0000 0.0000 0.0000 26.2779
#
#
#
# Elastic Compliance Matrix: (Units=1/GPa)
#
#
# Indices 1 2 3 4 5 6 
#
# 1 0.012530 -0.003282 -0.004148 0.000000 0.000000 -0.001815
# 2 -0.003282 0.012530 -0.004148 0.000000 0.000000 0.001815
# 3 -0.004148 -0.004148 0.014071 0.000000 0.000000 0.000000
# 4 0.000000 0.000000 0.000000 0.061559 0.000000 0.000000
# 5 0.000000 0.000000 0.000000 0.000000 0.061559 0.000000
# 6 -0.001815 0.001815 0.000000 0.000000 0.000000 0.038472
#
#
# Mechanical properties :
#
#
# Convention : Reuss Voigt Hill
#
# Bulk Modulus (GPa) = 62.60514 62.67150 62.63832
# Shear Modulus (GPa) = 21.81476 23.71026 22.76251
#
# Velocity S-wave (km/s) = 3.31134 3.45221 3.38251
# Velocity P-wave (km/s) = 6.78880 6.88415 6.83665
#
# Compressibility (1/GPa) = 0.01597313
#
# Stress axis : x y z
#
# Youngs Moduli (GPa) = 79.81083 79.81083 71.06752
#
# Poissons Ratio (x) = 0.26196 0.29480
# Poissons Ratio (y) = 0.26196 0.29480
# Poissons Ratio (z) = 0.33107 0.33107
#
# Static dielectric constant tensor:
#      x y z
#    x 3.664240 0.000000 0.000000 
#    y 0.000000 3.664240 0.000000 
#    z 0.000000 0.000000 3.636320 
# 
# 
# High freq. dielectric constant tensor:
#      x y z
#    x 1.773240 0.000000 0.000000 
#    y 0.000000 1.773240 0.000000 
#    z 0.000000 0.000000 1.777230 
# 
# From -- ./inp_files/6626.got.cif
#   From: 2010.03.12/outbox.cif.g09.slc.cpg/sg87_4_cif.got.tgz:6626.got - 2010.04.08 20:16:13.
