data_PCOD8304411
_publ_section_title
;
Structure prediction by ZEFSAII (Michael W. Deem and Ramdas Pophale) SiO2 
 PCOD8304411
Probable space group: I 41/A
;
_chemical_formula_sum "Si O2"
_cell_formula_units_Z 64
_cell_length_a 20.471434
_cell_length_b 20.471434
_cell_length_c 6.727387
_cell_angle_alpha 90.000000
_cell_angle_beta 90.000000
_cell_angle_gamma 90.000000
_cell_volume 2819.310720
_symmetry_space_group_name_H-M "I 41/A"
_symmetry_group_IT_number 88
_space_group.IT_coordinate_system_code '2'
_symmetry_cell_setting 'tetragonal'
loop_
_space_group_symop_operation_xyz
x,y,z
3/4-y,1/4+x,1/4+z
-x,1/2-y,z
1/4+y,1/4-x,1/4+z
-x,-y,-z
1/4+y,3/4-x,3/4-z
x,1/2+y,-z
3/4-y,3/4+x,3/4-z
1/2+x,1/2+y,1/2+z
1/4-y,3/4+x,3/4+z
1/2-x,-y,1/2+z
3/4+y,3/4-x,3/4+z
1/2-x,1/2-y,1/2-z
3/4+y,1/4-x,1/4-z
1/2+x,y,1/2-z
1/4-y,1/4+x,1/4-z
loop_
_atom_site_type_symbol
_atom_site_label
_atom_site_fract_x
_atom_site_fract_y
_atom_site_fract_z
Si Si1 0.657145 0.990803 0.488025
Si Si2 0.159216 0.827307 0.565597
Si Si3 0.915376 0.200635 0.069872
Si Si4 0.146078 0.679534 0.480680
O O1 0.707680 0.943054 0.595371
O O2 0.607218 0.954012 0.342651
O O3 0.616333 0.022391 0.673169
O O4 0.148407 0.815089 0.801648
O O5 0.163348 0.756818 0.453076
O O6 0.105130 0.876922 0.475737
O O7 0.923144 0.277412 0.036533
O O8 0.919189 0.169720 0.855104
#
# Coordination Sequence:
#
# PCOD8304411 Si02
#       4
#    16  16  16  16
#     4  12  25  46  66  94 135 184 232 272 322 396
#     4  11  23  42  68 100 132 170 221 277 337 398
#     4   9  18  36  62  94 132 166 206 270 335 386
#     4  11  23  42  68 100 132 170 221 277 337 398
#
# _framework density 22.700586000000001
#
# number of rings (size 3 to 8) (size 9 to 14) (size 15 to 20)
#    0.000    1.250    2.500    3.750    0.000    2.500 
#    0.000    2.500    0.000    0.000    0.000    0.000 
#    0.000    0.000    0.000    0.000    0.000    0.000 
#
# Total GULP energy -396510.353549 kJ/mol
# GULP energy per Si atom -12390.948548 kJ/mol
# Density = 2.264892 g / cm^3
# Si number density = 22.700586 Si / 1000 Ang^3
#
#
#
# Elastic Constant Matrix: (Units=GPa)
#
#
# Indices 1 2 3 4 5 6 
#
# 1 68.2766 88.9531 22.4661 0.0000 0.0000 19.4797
# 2 88.9531 68.2766 22.4661 0.0000 0.0000 -19.4797
# 3 22.4661 22.4661 46.9247 0.0000 0.0000 0.0000
# 4 0.0000 0.0000 0.0000 40.2647 0.0000 0.0000
# 5 0.0000 0.0000 0.0000 0.0000 40.2647 0.0000
# 6 19.4797 -19.4797 0.0000 0.0000 0.0000 29.9824
#
#
#
# Elastic Compliance Matrix: (Units=1/GPa)
#
#
# Indices 1 2 3 4 5 6 
#
# 1 -0.007188 0.014556 -0.003528 0.000000 0.000000 0.014128
# 2 0.014556 -0.007188 -0.003528 0.000000 0.000000 -0.014128
# 3 -0.003528 -0.003528 0.024689 0.000000 0.000000 0.000000
# 4 0.000000 0.000000 0.000000 0.024836 0.000000 0.000000
# 5 0.000000 0.000000 0.000000 0.000000 0.024836 0.000000
# 6 0.014128 -0.014128 0.000000 0.000000 0.000000 0.014995
#
#
# Mechanical properties :
#
#
# Convention : Reuss Voigt Hill
#
# Bulk Modulus (GPa) = 39.50322 50.13869 44.82096
# Shear Modulus (GPa) = 73.08315 25.40855 49.24585
#
# Velocity S-wave (km/s) = 5.68017 3.34921 4.66270
# Velocity P-wave (km/s) = 7.77552 6.09025 6.98390
#
# Compressibility (1/GPa) = 0.02531439
#
# Stress axis : x y z
#
# Youngs Moduli (GPa) = -139.11811 -139.11811 40.50445
#
# Poissons Ratio (x) = 2.02506 0.14289
# Poissons Ratio (y) = 2.02506 0.14289
# Poissons Ratio (z) = -0.49076 -0.49076
#
# Static dielectric constant tensor:
#      x y z
#    x 4.205010 0.000000 0.000000 
#    y 0.000000 4.205010 0.000000 
#    z 0.000000 0.000000 3.848830 
# 
# 
# High freq. dielectric constant tensor:
#      x y z
#    x 1.903110 0.000000 0.000000 
#    y 0.000000 1.903110 0.000000 
#    z 0.000000 0.000000 1.879770 
# 
# From -- ./inp_files/536.got.cif
#   From: 2010.03.12/outbox.cif.g09.slc.cpg/sg88_1_cif.got.tgz:536.got - 2010.04.08 20:20:55.
