data_PCOD8304885
_publ_section_title
;
Structure prediction by ZEFSAII (Michael W. Deem and Ramdas Pophale) SiO2 
 PCOD8304885
Probable space group: P 41 2 2
;
_chemical_formula_sum "Si O2"
_cell_formula_units_Z 60
_cell_length_a 17.897664
_cell_length_b 17.897664
_cell_length_c 8.950756
_cell_angle_alpha 90.000000
_cell_angle_beta 90.000000
_cell_angle_gamma 90.000000
_cell_volume 2867.163238
_symmetry_space_group_name_H-M "P 41 2 2"
_symmetry_group_IT_number 91
_symmetry_cell_setting 'tetragonal'
loop_
_space_group_symop_operation_xyz
x,y,z
-y,x,1/4+z
-x,-y,1/2+z
y,-x,3/4+z
x,-y,1/2-z
-x,y,-z
y,x,3/4-z
-y,-x,1/4-z
loop_
_atom_site_type_symbol
_atom_site_label
_atom_site_fract_x
_atom_site_fract_y
_atom_site_fract_z
Si Si1 0.005574 0.276658 0.322577
Si Si2 0.568225 0.957487 0.594117
Si Si3 0.147868 0.772286 0.749726
Si Si4 0.793050 0.612149 0.229630
Si Si5 0.652209 0.382516 0.458726
Si Si6 0.331197 0.442903 0.951877
Si Si7 0.000000 0.087458 0.000000
Si Si8 0.835228 0.113229 0.473337
O O1 0.085094 0.247336 0.268474
O O2 0.000000 0.277579 0.500000
O O3 0.989928 0.359235 0.261018
O O4 0.941903 0.223438 0.254484
O O5 0.500000 0.986904 0.500000
O O6 0.570148 0.865682 0.592262
O O7 0.560256 0.000000 0.750000
O O8 0.169561 0.830440 0.625000
O O9 0.179637 0.691343 0.706642
O O10 0.176116 0.802562 0.911130
O O11 0.735982 0.631989 0.097641
O O12 0.749019 0.566664 0.363415
O O13 0.646528 0.353473 0.625000
O O14 0.590171 0.332562 0.370004
O O15 0.640554 0.472060 0.447105
O O16 0.394301 0.394301 0.875000
O O17 0.062558 0.134272 0.089185
O O18 0.962889 0.037112 0.125000
O O19 0.886024 0.113977 0.625000
#
# Coordination Sequence:
#
# PCOD8304885 Si02
#       8
#     8   8   8   8   8   8   4   8
#     4  10  21  40  62  89 123 160 199 252 317 390
#     4  10  22  45  70  92 123 160 215 270 337 393
#     4  11  22  39  61  88 119 159 211 260 313 384
#     4  10  22  43  66  87 126 177 214 264 328 402
#     4  11  22  36  59  98 137 168 219 268 318 378
#     4  10  20  37  63  89 130 180 220 252 317 386
#     4  12  26  40  58  88 126 166 212 254 308 390
#     4  12  23  38  64  88 126 162 206 256 326 382
#
# _framework density 20.926607000000001
#
# number of rings (size 3 to 8) (size 9 to 14) (size 15 to 20)
#    0.000    1.333    1.333    6.400    0.000    2.133 
#    6.000    2.667    0.000    0.000    0.000    0.000 
#    0.000    0.000    0.000    0.000    0.000    0.000 
#
# Total GULP energy -743320.591274 kJ/mol
# GULP energy per Si atom -12388.676521 kJ/mol
# Density = 2.087898 g / cm^3
# Si number density = 20.926607 Si / 1000 Ang^3
#
#
#
# Elastic Constant Matrix: (Units=GPa)
#
#
# Indices 1 2 3 4 5 6 
#
# 1 88.9681 42.5544 40.4307 0.0000 0.0000 0.0000
# 2 42.5544 88.9689 40.4322 0.0000 0.0000 0.0000
# 3 40.4307 40.4322 125.6291 0.0000 0.0000 0.0000
# 4 0.0000 0.0000 0.0000 28.3650 0.0000 0.0000
# 5 0.0000 0.0000 0.0000 0.0000 28.3650 0.0000
# 6 0.0000 0.0000 0.0000 0.0000 0.0000 121.7950
#
#
#
# Elastic Compliance Matrix: (Units=1/GPa)
#
#
# Indices 1 2 3 4 5 6 
#
# 1 0.015512 -0.006033 -0.003050 0.000000 0.000000 0.000000
# 2 -0.006033 0.015512 -0.003051 0.000000 0.000000 0.000000
# 3 -0.003050 -0.003051 0.009923 0.000000 0.000000 0.000000
# 4 0.000000 0.000000 0.000000 0.035255 0.000000 0.000000
# 5 0.000000 0.000000 0.000000 0.000000 0.035255 0.000000
# 6 0.000000 0.000000 0.000000 0.000000 0.000000 0.008211
#
#
# Mechanical properties :
#
#
# Convention : Reuss Voigt Hill
#
# Bulk Modulus (GPa) = 59.95649 61.15563 60.55606
# Shear Modulus (GPa) = 33.44578 47.71493 40.58036
#
# Velocity S-wave (km/s) = 4.00214 4.78023 4.40838
# Velocity P-wave (km/s) = 7.07596 7.73012 7.41026
#
# Compressibility (1/GPa) = 0.01667876
#
# Stress axis : x y z
#
# Youngs Moduli (GPa) = 64.46631 64.46624 100.77106
#
# Poissons Ratio (x) = 0.38894 0.30740
# Poissons Ratio (y) = 0.38894 0.30742
# Poissons Ratio (z) = 0.19665 0.19667
#
# Static dielectric constant tensor:
#      x y z
#    x 4.076970 0.000000 0.000000 
#    y 0.000000 4.076960 0.000000 
#    z 0.000000 0.000000 4.268950 
# 
# 
# High freq. dielectric constant tensor:
#      x y z
#    x 1.821280 0.000000 0.000000 
#    y 0.000000 1.821280 0.000000 
#    z 0.000000 0.000000 1.818010 
# 
# From -- ./inp_files/10071.got.cif
#   From: 2010.03.12/outbox.cif.g09.slc.cpg/sg91_6_cif.got.tgz:10071.got - 2010.04.08 20:27:58.
