data_PCOD8304888
_publ_section_title
;
Structure prediction by ZEFSAII (Michael W. Deem and Ramdas Pophale) SiO2 
 PCOD8304888
Probable space group: P 41 2 2
;
_chemical_formula_sum "Si O2"
_cell_formula_units_Z 56
_cell_length_a 15.198201
_cell_length_b 15.198201
_cell_length_c 11.927786
_cell_angle_alpha 90.000000
_cell_angle_beta 90.000000
_cell_angle_gamma 90.000000
_cell_volume 2755.143390
_symmetry_space_group_name_H-M "P 41 2 2"
_symmetry_group_IT_number 91
_symmetry_cell_setting 'tetragonal'
loop_
_space_group_symop_operation_xyz
x,y,z
-y,x,1/4+z
-x,-y,1/2+z
y,-x,3/4+z
x,-y,1/2-z
-x,y,-z
y,x,3/4-z
-y,-x,1/4-z
loop_
_atom_site_type_symbol
_atom_site_label
_atom_site_fract_x
_atom_site_fract_y
_atom_site_fract_z
Si Si1 0.722779 0.001372 0.984208
Si Si2 0.467033 0.175104 0.269264
Si Si3 0.085177 0.102120 0.752561
Si Si4 0.305585 0.682509 0.000289
Si Si5 0.252162 0.845772 0.870747
Si Si6 0.629667 0.089731 0.183905
Si Si7 0.500000 0.261063 0.500000
Si Si8 0.000000 0.640312 0.000000
O O1 0.828788 0.006615 0.988271
O O2 0.698604 0.020749 0.857396
O O3 0.668642 0.071470 0.060503
O O4 0.701577 0.904382 0.031991
O O5 0.411731 0.259918 0.226912
O O6 0.543700 0.152674 0.179426
O O7 0.504989 0.197850 0.392020
O O8 0.412751 0.086207 0.283444
O O9 0.153232 0.122034 0.652376
O O10 0.053234 0.000000 0.750000
O O11 0.124352 0.124352 0.875000
O O12 0.260101 0.745735 0.909816
O O13 0.412410 0.677520 0.993697
O O14 0.282353 0.717648 0.125000
O O15 0.298323 0.856308 0.751793
O O16 0.606125 0.000000 0.250000
#
# Coordination Sequence:
#
# PCOD8304888 Si02
#       8
#     8   8   8   8   8   8   4   4
#     4  11  24  42  64  91 129 171 220 269 333 384
#     4  11  22  37  60 101 128 168 216 268 342 395
#     4  12  22  42  63  91 123 171 231 264 298 390
#     4  10  21  36  61  96 130 170 218 269 331 408
#     4  11  20  40  66  86 127 168 212 267 328 384
#     4  10  20  37  65  92 120 171 211 267 328 396
#     4  10  20  38  62  90 136 176 216 270 326 406
#     4  12  26  40  60 102 140 162 208 284 342 398
#
# _framework density 20.325620000000001
#
# number of rings (size 3 to 8) (size 9 to 14) (size 15 to 20)
#    0.000    1.143    5.000    3.000    2.000    0.571 
#    1.286    0.714    0.000    0.000   11.143    0.000 
#    0.000    0.000    0.000    0.000    0.000    0.000 
#
# Total GULP energy -693971.425096 kJ/mol
# GULP energy per Si atom -12392.346877 kJ/mol
# Density = 2.027936 g / cm^3
# Si number density = 20.325620 Si / 1000 Ang^3
#
#
#
# Elastic Constant Matrix: (Units=GPa)
#
#
# Indices 1 2 3 4 5 6 
#
# 1 109.5505 49.2789 40.6430 0.0000 0.0000 0.0000
# 2 49.2789 109.5504 40.6430 0.0000 0.0000 0.0000
# 3 40.6430 40.6430 126.5531 0.0000 0.0000 0.0000
# 4 0.0000 0.0000 0.0000 28.0048 0.0000 0.0000
# 5 0.0000 0.0000 0.0000 0.0000 28.0048 0.0000
# 6 0.0000 0.0000 0.0000 0.0000 0.0000 31.3199
#
#
#
# Elastic Compliance Matrix: (Units=1/GPa)
#
#
# Indices 1 2 3 4 5 6 
#
# 1 0.012063 -0.004529 -0.002420 0.000000 0.000000 0.000000
# 2 -0.004529 0.012063 -0.002420 0.000000 0.000000 0.000000
# 3 -0.002420 -0.002420 0.009456 0.000000 0.000000 0.000000
# 4 0.000000 0.000000 0.000000 0.035708 0.000000 0.000000
# 5 0.000000 0.000000 0.000000 0.000000 0.035708 0.000000
# 6 0.000000 0.000000 0.000000 0.000000 0.000000 0.031929
#
#
# Mechanical properties :
#
#
# Convention : Reuss Voigt Hill
#
# Bulk Modulus (GPa) = 67.35803 67.42042 67.38923
# Shear Modulus (GPa) = 31.13098 31.80516 31.46807
#
# Velocity S-wave (km/s) = 3.91783 3.96002 3.93898
# Velocity P-wave (km/s) = 7.32648 7.35875 7.34263
#
# Compressibility (1/GPa) = 0.01484604
#
# Stress axis : x y z
#
# Youngs Moduli (GPa) = 82.89818 82.89807 105.75267
#
# Poissons Ratio (x) = 0.37541 0.25589
# Poissons Ratio (y) = 0.37541 0.25589
# Poissons Ratio (z) = 0.20059 0.20059
#
# Static dielectric constant tensor:
#      x y z
#    x 3.717380 0.000000 0.000000 
#    y 0.000000 3.717380 0.000000 
#    z 0.000000 0.000000 3.959350 
# 
# 
# High freq. dielectric constant tensor:
#      x y z
#    x 1.784390 0.000000 0.000000 
#    y 0.000000 1.784390 0.000000 
#    z 0.000000 0.000000 1.791150 
# 
# From -- ./inp_files/16015.got.cif
#   From: 2010.03.12/outbox.cif.g09.slc.cpg/sg91_9_cif.got.tgz:16015.got - 2010.04.08 20:27:58.
