data_PCOD8304767
_publ_section_title
;
Structure prediction by ZEFSAII (Michael W. Deem and Ramdas Pophale) SiO2 
 PCOD8304767
Probable space group: P 41 2 2
;
_chemical_formula_sum "Si O2"
_cell_formula_units_Z 40
_cell_length_a 11.687236
_cell_length_b 11.687236
_cell_length_c 14.146366
_cell_angle_alpha 90.000000
_cell_angle_beta 90.000000
_cell_angle_gamma 90.000000
_cell_volume 1932.273144
_symmetry_space_group_name_H-M "P 41 2 2"
_symmetry_group_IT_number 91
_symmetry_cell_setting 'tetragonal'
loop_
_space_group_symop_operation_xyz
x,y,z
-y,x,1/4+z
-x,-y,1/2+z
y,-x,3/4+z
x,-y,1/2-z
-x,y,-z
y,x,3/4-z
-y,-x,1/4-z
loop_
_atom_site_type_symbol
_atom_site_label
_atom_site_fract_x
_atom_site_fract_y
_atom_site_fract_z
Si Si1 0.878503 0.500000 0.250000
Si Si2 0.717694 0.640226 0.124088
Si Si3 0.457692 0.947054 0.841072
Si Si4 0.793489 0.871993 0.176843
Si Si5 0.895749 0.895749 0.375000
Si Si6 0.466028 0.293245 0.327292
O O1 0.795761 0.594061 0.207581
O O2 0.960987 0.443649 0.173002
O O3 0.776021 0.764394 0.106050
O O4 0.586829 0.643779 0.159707
O O5 0.721854 0.559975 0.033046
O O6 0.332879 0.916872 0.802708
O O7 0.526292 0.832953 0.874856
O O8 0.524001 0.000000 0.750000
O O9 0.844815 0.838198 0.279873
O O10 0.873385 0.967297 0.127530
O O11 0.364664 0.364664 0.375000
#
# Coordination Sequence:
#
# PCOD8304767 Si02
#       6
#     4   8   8   8   4   8
#     4  12  26  42  72 100 134 180 232 298 344 426
#     4  11  26  42  69 101 137 180 238 286 353 421
#     4  11  22  45  67  98 136 180 232 284 351 419
#     4  10  22  38  68  96 130 173 221 280 346 404
#     4  10  18  38  66  96 132 164 228 280 338 406
#     4  11  26  46  68 100 144 189 234 290 357 427
#
# _framework density 20.701008999999999
#
# number of rings (size 3 to 8) (size 9 to 14) (size 15 to 20)
#    0.000    1.200    4.000    1.800    8.400    0.000 
#    0.000    4.000    2.200    0.000    0.000    0.000 
#    0.000    0.000    0.000    0.000    0.000    0.000 
#
# Total GULP energy -495746.341015 kJ/mol
# GULP energy per Si atom -12393.658525 kJ/mol
# Density = 2.065389 g / cm^3
# Si number density = 20.701009 Si / 1000 Ang^3
#
#
#
# Elastic Constant Matrix: (Units=GPa)
#
#
# Indices 1 2 3 4 5 6 
#
# 1 112.8514 45.0914 27.8186 0.0000 0.0000 0.0000
# 2 45.0914 112.8514 27.8186 0.0000 0.0000 0.0000
# 3 27.8186 27.8186 94.5518 0.0000 0.0000 0.0000
# 4 0.0000 0.0000 0.0000 36.5761 0.0000 0.0000
# 5 0.0000 0.0000 0.0000 0.0000 36.5761 0.0000
# 6 0.0000 0.0000 0.0000 0.0000 0.0000 30.5062
#
#
#
# Elastic Compliance Matrix: (Units=1/GPa)
#
#
# Indices 1 2 3 4 5 6 
#
# 1 0.010911 -0.003847 -0.002078 0.000000 0.000000 0.000000
# 2 -0.003847 0.010911 -0.002078 0.000000 0.000000 0.000000
# 3 -0.002078 -0.002078 0.011799 0.000000 0.000000 0.000000
# 4 0.000000 0.000000 0.000000 0.027340 0.000000 0.000000
# 5 0.000000 0.000000 0.000000 0.000000 0.027340 0.000000
# 6 0.000000 0.000000 0.000000 0.000000 0.000000 0.032780
#
#
# Mechanical properties :
#
#
# Convention : Reuss Voigt Hill
#
# Bulk Modulus (GPa) = 56.77530 57.96798 57.37164
# Shear Modulus (GPa) = 34.97495 35.36677 35.17086
#
# Velocity S-wave (km/s) = 4.11485 4.13783 4.12636
# Velocity P-wave (km/s) = 7.07544 7.13387 7.10472
#
# Compressibility (1/GPa) = 0.01761329
#
# Stress axis : x y z
#
# Youngs Moduli (GPa) = 91.65301 91.65302 84.75236
#
# Poissons Ratio (x) = 0.35261 0.17613
# Poissons Ratio (y) = 0.35261 0.17613
# Poissons Ratio (z) = 0.19047 0.19047
#
# Static dielectric constant tensor:
#      x y z
#    x 4.281490 0.000000 0.000000 
#    y 0.000000 4.281490 0.000000 
#    z 0.000000 0.000000 3.637960 
# 
# 
# High freq. dielectric constant tensor:
#      x y z
#    x 1.815590 0.000000 0.000000 
#    y 0.000000 1.815590 0.000000 
#    z 0.000000 0.000000 1.803560 
# 
# From -- ./inp_files/16428.got.cif
#   From: 2010.03.12/outbox.cif.g09.slc.cpg/sg91_9_cif.got.tgz:16428.got - 2010.04.08 20:27:58.
