data_PCOD8304975
_publ_section_title
;
Structure prediction by ZEFSAII (Michael W. Deem and Ramdas Pophale) SiO2 
 PCOD8304975
Probable space group: P 41 2 2
;
_chemical_formula_sum "Si O2"
_cell_formula_units_Z 60
_cell_length_a 17.839094
_cell_length_b 17.839094
_cell_length_c 9.560847
_cell_angle_alpha 90.000000
_cell_angle_beta 90.000000
_cell_angle_gamma 90.000000
_cell_volume 3042.579650
_symmetry_space_group_name_H-M "P 41 2 2"
_symmetry_group_IT_number 91
_symmetry_cell_setting 'tetragonal'
loop_
_space_group_symop_operation_xyz
x,y,z
-y,x,1/4+z
-x,-y,1/2+z
y,-x,3/4+z
x,-y,1/2-z
-x,y,-z
y,x,3/4-z
-y,-x,1/4-z
loop_
_atom_site_type_symbol
_atom_site_label
_atom_site_fract_x
_atom_site_fract_y
_atom_site_fract_z
Si Si1 0.553082 0.950444 0.614031
Si Si2 0.008551 0.697508 0.721859
Si Si3 0.161044 0.810742 0.963906
Si Si4 0.726893 0.112107 0.266187
Si Si5 0.735157 0.678799 0.021515
Si Si6 0.485784 0.781989 0.342954
Si Si7 0.644621 0.734527 0.262484
Si Si8 0.222627 0.000000 0.250000
O O1 0.500000 0.990986 0.500000
O O2 0.629605 0.940541 0.527762
O O3 0.517375 0.871943 0.661529
O O4 0.565537 0.000000 0.750000
O O5 0.064882 0.747715 0.624708
O O6 0.938263 0.675124 0.621514
O O7 0.972796 0.733166 0.861875
O O8 0.198852 0.868816 0.855997
O O9 0.190963 0.726155 0.929821
O O10 0.175526 0.824475 0.125000
O O11 0.072033 0.822018 0.942374
O O12 0.683643 0.185225 0.215019
O O13 0.751183 0.590692 0.026416
O O14 0.664138 0.698483 0.115510
O O15 0.707562 0.707562 0.875000
O O16 0.500000 0.753828 0.500000
O O17 0.555517 0.747933 0.258505
O O18 0.674934 0.674934 0.375000
#
# Coordination Sequence:
#
# PCOD8304975 Si02
#       8
#     8   8   8   8   8   8   8   4
#     4  11  25  38  58  92 137 178 209 255 330 408
#     4  11  23  39  60  92 127 172 215 269 323 396
#     4  10  21  40  61  93 125 164 217 278 327 393
#     4  10  23  39  62  90 129 165 226 266 318 394
#     4  10  23  41  65  94 126 161 216 268 320 385
#     4  11  22  41  64  92 131 166 217 265 318 390
#     4  11  23  40  67  91 123 175 215 265 318 380
#     4  12  22  36  64  86 120 164 214 268 346 370
#
# _framework density 19.720109000000001
#
# number of rings (size 3 to 8) (size 9 to 14) (size 15 to 20)
#    0.000    1.333    3.333    2.400    7.467    0.533 
#    0.000    0.000    0.000    4.000    0.000    0.000 
#    0.000    0.000    0.000    0.000    0.000    0.000 
#
# Total GULP energy -743328.576195 kJ/mol
# GULP energy per Si atom -12388.809603 kJ/mol
# Density = 1.967523 g / cm^3
# Si number density = 19.720109 Si / 1000 Ang^3
#
#
#
# Elastic Constant Matrix: (Units=GPa)
#
#
# Indices 1 2 3 4 5 6 
#
# 1 117.3880 38.1894 38.0312 0.0000 0.0000 0.0000
# 2 38.1894 117.3877 38.0312 0.0000 0.0000 0.0000
# 3 38.0312 38.0312 117.9863 0.0000 0.0000 0.0000
# 4 0.0000 0.0000 0.0000 31.9917 0.0000 0.0000
# 5 0.0000 0.0000 0.0000 0.0000 31.9917 0.0000
# 6 0.0000 0.0000 0.0000 0.0000 0.0000 22.3086
#
#
#
# Elastic Compliance Matrix: (Units=1/GPa)
#
#
# Indices 1 2 3 4 5 6 
#
# 1 0.010128 -0.002498 -0.002459 0.000000 0.000000 0.000000
# 2 -0.002498 0.010128 -0.002459 0.000000 0.000000 0.000000
# 3 -0.002459 -0.002459 0.010061 0.000000 0.000000 0.000000
# 4 0.000000 0.000000 0.000000 0.031258 0.000000 0.000000
# 5 0.000000 0.000000 0.000000 0.000000 0.031258 0.000000
# 6 0.000000 0.000000 0.000000 0.000000 0.000000 0.044826
#
#
# Mechanical properties :
#
#
# Convention : Reuss Voigt Hill
#
# Bulk Modulus (GPa) = 64.58488 64.58506 64.58497
# Shear Modulus (GPa) = 31.71477 33.15906 32.43692
#
# Velocity S-wave (km/s) = 4.01464 4.10504 4.06009
# Velocity P-wave (km/s) = 7.36965 7.43575 7.40277
#
# Compressibility (1/GPa) = 0.01548350
#
# Stress axis : x y z
#
# Youngs Moduli (GPa) = 98.73325 98.73291 99.39267
#
# Poissons Ratio (x) = 0.24665 0.24445
# Poissons Ratio (y) = 0.24666 0.24445
# Poissons Ratio (z) = 0.24283 0.24283
#
# Static dielectric constant tensor:
#      x y z
#    x 3.578830 0.000000 0.000000 
#    y 0.000000 3.578840 0.000000 
#    z 0.000000 0.000000 3.804500 
# 
# 
# High freq. dielectric constant tensor:
#      x y z
#    x 1.749780 0.000000 0.000000 
#    y 0.000000 1.749780 0.000000 
#    z 0.000000 0.000000 1.791400 
# 
# From -- ./inp_files/19703.got.cif
#   From: 2010.03.12/outbox.cif.g09.slc.cpg/sg91_10_cif.got.tgz:19703.got - 2010.04.08 20:27:58.
