data_PCOD8304163
_publ_section_title
;
Structure prediction by ZEFSAII (Michael W. Deem and Ramdas Pophale) SiO2 
 PCOD8304163
Probable space group: I 4/M
;
_chemical_formula_sum "Si O2"
_cell_formula_units_Z 64
_cell_length_a 10.389358
_cell_length_b 10.389358
_cell_length_c 27.639688
_cell_angle_alpha 90.000000
_cell_angle_beta 90.000000
_cell_angle_gamma 90.000000
_cell_volume 2983.393640
_symmetry_space_group_name_H-M "I 4/M"
_symmetry_group_IT_number 87
_symmetry_cell_setting 'tetragonal'
loop_
_space_group_symop_operation_xyz
x,y,z
-y,x,z
-x,-y,z
y,-x,z
-x,-y,-z
y,-x,-z
x,y,-z
-y,x,-z
1/2+x,1/2+y,1/2+z
1/2-y,1/2+x,1/2+z
1/2-x,1/2-y,1/2+z
1/2+y,1/2-x,1/2+z
1/2-x,1/2-y,1/2-z
1/2+y,1/2-x,1/2-z
1/2+x,1/2+y,1/2-z
1/2-y,1/2+x,1/2-z
loop_
_atom_site_type_symbol
_atom_site_label
_atom_site_fract_x
_atom_site_fract_y
_atom_site_fract_z
Si Si1 0.203558 0.054471 0.554491
Si Si2 0.290084 0.474421 0.447171
Si Si3 0.575799 0.880023 0.628975
Si Si4 0.862443 0.652574 0.766474
O O1 0.257770 0.069692 0.500000
O O2 0.312416 0.083537 0.592522
O O3 0.089590 0.155174 0.562858
O O4 0.388421 0.358741 0.442637
O O5 0.221263 0.465320 0.500000
O O6 0.195295 0.466770 0.401801
O O7 0.628522 0.810410 0.676602
O O8 0.500000 0.000000 0.650875
O O9 0.750000 0.750000 0.750000
O O10 0.820587 0.502411 0.758351
#
# Coordination Sequence:
#
# PCOD8304163 Si02
#       4
#    16  16  16  16
#     4   9  21  40  61  92 132 171 215 262 313 384
#     4   9  21  40  61  92 132 171 215 262 313 384
#     4  12  25  39  69  94 129 166 215 267 331 395
#     4  11  27  51  72 102 139 174 228 295 349 405
#
# _framework density 21.452079999999999
#
# number of rings (size 3 to 8) (size 9 to 14) (size 15 to 20)
#    0.000    1.750    2.500    2.250   10.500    2.500 
#    0.000    0.000    0.000    0.000    0.000    0.000 
#    0.000    0.000    0.000    0.000    0.000    0.000 
#
# Total GULP energy -396584.430200 kJ/mol
# GULP energy per Si atom -12393.263444 kJ/mol
# Density = 2.140325 g / cm^3
# Si number density = 21.452080 Si / 1000 Ang^3
#
#
#
# Elastic Constant Matrix: (Units=GPa)
#
#
# Indices 1 2 3 4 5 6 
#
# 1 73.4849 12.3265 23.0299 0.0000 0.0000 -2.1279
# 2 12.3265 73.4849 23.0299 0.0000 0.0000 2.1279
# 3 23.0299 23.0299 144.2577 0.0000 0.0000 0.0000
# 4 0.0000 0.0000 0.0000 27.2525 0.0000 0.0000
# 5 0.0000 0.0000 0.0000 0.0000 27.2525 0.0000
# 6 -2.1279 2.1279 0.0000 0.0000 0.0000 40.5664
#
#
#
# Elastic Compliance Matrix: (Units=1/GPa)
#
#
# Indices 1 2 3 4 5 6 
#
# 1 0.014578 -0.001833 -0.002035 0.000000 0.000000 0.000861
# 2 -0.001833 0.014578 -0.002035 0.000000 0.000000 -0.000861
# 3 -0.002035 -0.002035 0.007582 0.000000 0.000000 0.000000
# 4 0.000000 0.000000 0.000000 0.036694 0.000000 0.000000
# 5 0.000000 0.000000 0.000000 0.000000 0.036694 0.000000
# 6 0.000861 -0.000861 0.000000 0.000000 0.000000 0.024741
#
#
# Mechanical properties :
#
#
# Convention : Reuss Voigt Hill
#
# Bulk Modulus (GPa) = 40.10599 45.33334 42.71966
# Shear Modulus (GPa) = 32.26165 34.53705 33.39935
#
# Velocity S-wave (km/s) = 3.88221 4.01679 3.95007
# Velocity P-wave (km/s) = 6.23151 6.53384 6.38446
#
# Compressibility (1/GPa) = 0.02493393
#
# Stress axis : x y z
#
# Youngs Moduli (GPa) = 68.59530 68.59530 131.89621
#
# Poissons Ratio (x) = 0.12571 0.26838
# Poissons Ratio (y) = 0.12571 0.26838
# Poissons Ratio (z) = 0.13958 0.13958
#
# Static dielectric constant tensor:
#      x y z
#    x 3.960990 0.000000 0.000000 
#    y 0.000000 3.960990 0.000000 
#    z 0.000000 0.000000 3.972390 
# 
# 
# High freq. dielectric constant tensor:
#      x y z
#    x 1.840670 0.000000 0.000000 
#    y 0.000000 1.840670 0.000000 
#    z 0.000000 0.000000 1.851730 
# 
# From -- ./inp_files/5657.got.cif
#   From: 2010.03.12/outbox.cif.g09.slc.cpg/sg87_3_cif.got.tgz:5657.got - 2010.04.08 20:16:13.
