data_PCOD8304028
_publ_section_title
;
Structure prediction by ZEFSAII (Michael W. Deem and Ramdas Pophale) SiO2 
 PCOD8304028
Probable space group: I 4/M
;
_chemical_formula_sum "Si O2"
_cell_formula_units_Z 120
_cell_length_a 26.714869
_cell_length_b 26.714869
_cell_length_c 8.086394
_cell_angle_alpha 90.000000
_cell_angle_beta 90.000000
_cell_angle_gamma 90.000000
_cell_volume 5771.131840
_symmetry_space_group_name_H-M "I 4/M"
_symmetry_group_IT_number 87
_symmetry_cell_setting 'tetragonal'
loop_
_space_group_symop_operation_xyz
x,y,z
-y,x,z
-x,-y,z
y,-x,z
-x,-y,-z
y,-x,-z
x,y,-z
-y,x,-z
1/2+x,1/2+y,1/2+z
1/2-y,1/2+x,1/2+z
1/2-x,1/2-y,1/2+z
1/2+y,1/2-x,1/2+z
1/2-x,1/2-y,1/2-z
1/2+y,1/2-x,1/2-z
1/2+x,1/2+y,1/2-z
1/2-y,1/2+x,1/2-z
loop_
_atom_site_type_symbol
_atom_site_label
_atom_site_fract_x
_atom_site_fract_y
_atom_site_fract_z
Si Si1 0.540167 0.572062 0.500000
Si Si2 0.451520 0.261364 0.689586
Si Si3 0.026689 0.683363 0.311386
Si Si4 0.680223 0.666400 0.305794
Si Si5 0.924571 0.499669 0.313367
Si Si6 0.130239 0.712052 0.811446
Si Si7 0.154909 0.277459 0.809724
Si Si8 0.423912 0.365349 0.186777
O O1 0.480753 0.567723 0.500000
O O2 0.555034 0.598982 0.329298
O O3 0.448738 0.279205 0.500000
O O4 0.501895 0.230718 0.721397
O O5 0.404048 0.226275 0.730639
O O6 0.450406 0.311247 0.799301
O O7 0.010016 0.683036 0.500000
O O8 0.007727 0.632707 0.229867
O O9 0.086383 0.688258 0.297724
O O10 0.670213 0.658873 0.500000
O O11 0.732248 0.642443 0.246807
O O12 0.681723 0.725299 0.263842
O O13 0.635860 0.639433 0.207485
O O14 0.928209 0.480826 0.500000
O O15 0.948703 0.455564 0.204147
O O16 0.179226 0.677720 0.802411
O O17 0.112002 0.713806 0.000000
O O18 0.164263 0.291541 0.000000
O O19 0.434687 0.385872 0.000000
#
# Coordination Sequence:
#
# PCOD8304028 Si02
#       8
#     8  16  16  16  16  16  16  16
#     4  11  26  48  72 100 138 178 216 271 324 376
#     4  10  21  42  66  91 128 169 212 267 329 391
#     4  12  26  41  59  89 126 166 216 270 322 386
#     4   9  19  39  63  91 130 173 214 259 321 388
#     4  11  23  43  67  90 118 159 211 269 330 393
#     4  11  23  37  57  88 129 170 211 264 327 383
#     4   9  19  36  61  88 122 166 208 259 319 388
#     4  11  22  42  73 103 131 175 223 262 324 392
#
# _framework density 20.793147999999999
#
# number of rings (size 3 to 8) (size 9 to 14) (size 15 to 20)
#    0.000    1.533    1.333    4.800    1.867    5.333 
#    0.000    0.667    0.000    0.000    0.000    0.000 
#    0.000    0.000    0.000    0.000    0.000    0.000 
#
# Total GULP energy -744217.530026 kJ/mol
# GULP energy per Si atom -12403.625500 kJ/mol
# Density = 2.074582 g / cm^3
# Si number density = 20.793148 Si / 1000 Ang^3
#
#
#
# Elastic Constant Matrix: (Units=GPa)
#
#
# Indices 1 2 3 4 5 6 
#
# 1 79.9329 34.7504 38.7227 0.0000 0.0000 -5.3241
# 2 34.7504 79.9329 38.7227 0.0000 0.0000 5.3241
# 3 38.7227 38.7227 107.0279 0.0000 0.0000 0.0000
# 4 0.0000 0.0000 0.0000 27.7167 0.0000 0.0000
# 5 0.0000 0.0000 0.0000 0.0000 27.7167 0.0000
# 6 -5.3241 5.3241 0.0000 0.0000 0.0000 20.7060
#
#
#
# Elastic Compliance Matrix: (Units=1/GPa)
#
#
# Indices 1 2 3 4 5 6 
#
# 1 0.017550 -0.006011 -0.004175 0.000000 0.000000 0.006058
# 2 -0.006011 0.017550 -0.004175 0.000000 0.000000 -0.006058
# 3 -0.004175 -0.004175 0.012364 0.000000 0.000000 0.000000
# 4 0.000000 0.000000 0.000000 0.036079 0.000000 0.000000
# 5 0.000000 0.000000 0.000000 0.000000 0.036079 0.000000
# 6 0.006058 -0.006058 0.000000 0.000000 0.000000 0.051410
#
#
# Mechanical properties :
#
#
# Convention : Reuss Voigt Hill
#
# Bulk Modulus (GPa) = 53.35352 54.58726 53.97039
# Shear Modulus (GPa) = 24.27181 25.54110 24.90645
#
# Velocity S-wave (km/s) = 3.42028 3.50857 3.46471
# Velocity P-wave (km/s) = 6.42749 6.53628 6.48211
#
# Compressibility (1/GPa) = 0.01874291
#
# Stress axis : x y z
#
# Youngs Moduli (GPa) = 56.98161 56.98161 80.87849
#
# Poissons Ratio (x) = 0.34250 0.33765
# Poissons Ratio (y) = 0.34250 0.33765
# Poissons Ratio (z) = 0.23789 0.23789
#
# Static dielectric constant tensor:
#      x y z
#    x 3.763320 0.000000 0.000000 
#    y 0.000000 3.763320 0.000000 
#    z 0.000000 0.000000 3.704960 
# 
# 
# High freq. dielectric constant tensor:
#      x y z
#    x 1.811300 0.000000 0.000000 
#    y 0.000000 1.811300 0.000000 
#    z 0.000000 0.000000 1.816540 
# 
# From -- ./inp_files/1691.got.cif
#   From: 2010.03.12/outbox.cif.g09.slc.cpg/sg87_1_cif.got.tgz:1691.got - 2010.04.08 20:16:13.
