data_PCOD8304258
_publ_section_title
;
Structure prediction by ZEFSAII (Michael W. Deem and Ramdas Pophale) SiO2 
 PCOD8304258
Probable space group: I 41/A
;
_chemical_formula_sum "Si O2"
_cell_formula_units_Z 96
_cell_length_a 15.004728
_cell_length_b 15.004728
_cell_length_c 21.582253
_cell_angle_alpha 90.000000
_cell_angle_beta 90.000000
_cell_angle_gamma 90.000000
_cell_volume 4859.068634
_symmetry_space_group_name_H-M "I 41/A"
_symmetry_group_IT_number 88
_space_group.IT_coordinate_system_code '2'
_symmetry_cell_setting 'tetragonal'
loop_
_space_group_symop_operation_xyz
x,y,z
3/4-y,1/4+x,1/4+z
-x,1/2-y,z
1/4+y,1/4-x,1/4+z
-x,-y,-z
1/4+y,3/4-x,3/4-z
x,1/2+y,-z
3/4-y,3/4+x,3/4-z
1/2+x,1/2+y,1/2+z
1/4-y,3/4+x,3/4+z
1/2-x,-y,1/2+z
3/4+y,3/4-x,3/4+z
1/2-x,1/2-y,1/2-z
3/4+y,1/4-x,1/4-z
1/2+x,y,1/2-z
1/4-y,1/4+x,1/4-z
loop_
_atom_site_type_symbol
_atom_site_label
_atom_site_fract_x
_atom_site_fract_y
_atom_site_fract_z
Si Si1 0.609594 0.431136 0.054973
Si Si2 0.202443 0.339468 0.813659
Si Si3 0.099409 0.737532 0.592445
Si Si4 0.066473 0.929398 0.026890
Si Si5 0.597477 0.340523 0.403604
Si Si6 0.288247 0.501185 0.399228
O O1 0.514302 0.458897 0.084175
O O2 0.626594 0.324514 0.052666
O O3 0.688528 0.467047 0.096650
O O4 0.614613 0.475973 0.987966
O O5 0.224080 0.401010 0.871107
O O6 0.097892 0.357934 0.795963
O O7 0.153624 0.721617 0.655691
O O8 0.000000 0.750000 0.616735
O O9 0.161596 0.980160 0.035629
O O10 0.076141 0.848799 0.977271
O O11 0.000000 0.000000 0.000000
O O12 0.620711 0.237772 0.387950
O O13 0.681379 0.403690 0.390400
#
# Coordination Sequence:
#
# PCOD8304258 Si02
#       6
#    16  16  16  16  16  16
#     4  10  20  40  64  84 118 162 201 251 316 365
#     4   9  21  41  59  89 121 147 208 259 299 371
#     4   9  20  36  62  88 116 161 202 247 308 370
#     4  11  21  37  57  87 130 161 205 258 301 377
#     4  11  24  39  59  92 130 168 205 258 310 371
#     4  11  22  39  62  91 121 165 205 256 311 377
#
# _framework density 19.756872000000001
#
# number of rings (size 3 to 8) (size 9 to 14) (size 15 to 20)
#    0.000    1.833    1.667    2.000    4.667    0.000 
#    3.000    0.000    0.000    0.000    0.000    0.000 
#    0.000    0.000    0.000    0.000    0.000    0.000 
#
# Total GULP energy -594652.604382 kJ/mol
# GULP energy per Si atom -12388.595925 kJ/mol
# Density = 1.971190 g / cm^3
# Si number density = 19.756872 Si / 1000 Ang^3
#
#
#
# Elastic Constant Matrix: (Units=GPa)
#
#
# Indices 1 2 3 4 5 6 
#
# 1 122.4775 45.5880 44.8059 0.0000 0.0000 6.5414
# 2 45.5880 122.4775 44.8059 0.0000 0.0000 -6.5414
# 3 44.8059 44.8059 87.3446 0.0000 0.0000 0.0000
# 4 0.0000 0.0000 0.0000 33.2968 0.0000 0.0000
# 5 0.0000 0.0000 0.0000 0.0000 33.2968 0.0000
# 6 6.5414 -6.5414 0.0000 0.0000 0.0000 31.0209
#
#
#
# Elastic Compliance Matrix: (Units=1/GPa)
#
#
# Indices 1 2 3 4 5 6 
#
# 1 0.010840 -0.002650 -0.004201 0.000000 0.000000 -0.002845
# 2 -0.002650 0.010840 -0.004201 0.000000 0.000000 0.002845
# 3 -0.004201 -0.004201 0.015759 0.000000 0.000000 0.000000
# 4 0.000000 0.000000 0.000000 0.030033 0.000000 0.000000
# 5 0.000000 0.000000 0.000000 0.000000 0.030033 0.000000
# 6 -0.002845 0.002845 0.000000 0.000000 0.000000 0.033436
#
#
# Mechanical properties :
#
#
# Convention : Reuss Voigt Hill
#
# Bulk Modulus (GPa) = 65.21373 66.96656 66.09015
# Shear Modulus (GPa) = 31.61405 32.66291 32.13848
#
# Velocity S-wave (km/s) = 4.00453 4.07042 4.03761
# Velocity P-wave (km/s) = 7.37980 7.48732 7.43376
#
# Compressibility (1/GPa) = 0.01533419
#
# Stress axis : x y z
#
# Youngs Moduli (GPa) = 92.25123 92.25123 63.45436
#
# Poissons Ratio (x) = 0.24444 0.26660
# Poissons Ratio (y) = 0.24444 0.26660
# Poissons Ratio (z) = 0.38758 0.38758
#
# Static dielectric constant tensor:
#      x y z
#    x 4.043920 0.000000 0.000000 
#    y 0.000000 4.043920 0.000000 
#    z 0.000000 0.000000 3.568850 
# 
# 
# High freq. dielectric constant tensor:
#      x y z
#    x 1.786060 0.000000 0.000000 
#    y 0.000000 1.786060 0.000000 
#    z 0.000000 0.000000 1.737200 
# 
# From -- ./inp_files/4686.got.cif
#   From: 2010.03.12/outbox.cif.g09.slc.cpg/sg88_3_cif.got.tgz:4686.got - 2010.04.08 20:20:55.
