data_PCOD8304124
_publ_section_title
;
Structure prediction by ZEFSAII (Michael W. Deem and Ramdas Pophale) SiO2 
 PCOD8304124
Probable space group: I 4/M
;
_chemical_formula_sum "Si O2"
_cell_formula_units_Z 80
_cell_length_a 11.113857
_cell_length_b 11.113857
_cell_length_c 32.913326
_cell_angle_alpha 90.000000
_cell_angle_beta 90.000000
_cell_angle_gamma 90.000000
_cell_volume 4065.382191
_symmetry_space_group_name_H-M "I 4/M"
_symmetry_group_IT_number 87
_symmetry_cell_setting 'tetragonal'
loop_
_space_group_symop_operation_xyz
x,y,z
-y,x,z
-x,-y,z
y,-x,z
-x,-y,-z
y,-x,-z
x,y,-z
-y,x,-z
1/2+x,1/2+y,1/2+z
1/2-y,1/2+x,1/2+z
1/2-x,1/2-y,1/2+z
1/2+y,1/2-x,1/2+z
1/2-x,1/2-y,1/2-z
1/2+y,1/2-x,1/2-z
1/2+x,1/2+y,1/2-z
1/2-y,1/2+x,1/2-z
loop_
_atom_site_type_symbol
_atom_site_label
_atom_site_fract_x
_atom_site_fract_y
_atom_site_fract_z
Si Si1 0.079003 0.613456 0.611773
Si Si2 0.307679 0.980920 0.246034
Si Si3 0.003084 0.807753 0.328787
Si Si4 0.546420 0.692020 0.660561
Si Si5 0.313529 0.439827 0.046935
O O1 0.008210 0.680886 0.648175
O O2 0.208791 0.569653 0.626463
O O3 0.097863 0.699134 0.573245
O O4 0.000000 0.500000 0.598306
O O5 0.396625 0.878917 0.263305
O O6 0.245294 0.934016 0.205385
O O7 0.208399 0.004241 0.280342
O O8 0.883583 0.879320 0.341817
O O9 0.412193 0.643880 0.654779
O O10 0.423783 0.351324 0.057327
O O11 0.277695 0.427790 0.000000
#
# Coordination Sequence:
#
# PCOD8304124 Si02
#       5
#    16  16  16  16  16
#     4  12  25  38  64  95 128 161 207 255 305 368
#     4  11  22  37  59  86 116 157 214 269 320 368
#     4  11  24  39  60  88 117 157 211 269 323 365
#     4  11  26  43  59  82 122 174 216 255 310 374
#     4   9  20  42  72 103 132 160 193 248 321 379
#
# _framework density 19.678346999999999
#
# number of rings (size 3 to 8) (size 9 to 14) (size 15 to 20)
#    0.000    1.200    2.000    4.200    8.400    5.200 
#    0.000    0.000    0.000    0.000    0.000    1.400 
#    0.000    0.000    0.000    0.000    0.000    0.000 
#
# Total GULP energy -496258.777509 kJ/mol
# GULP energy per Si atom -12406.469438 kJ/mol
# Density = 1.963356 g / cm^3
# Si number density = 19.678347 Si / 1000 Ang^3
#
#
#
# Elastic Constant Matrix: (Units=GPa)
#
#
# Indices 1 2 3 4 5 6 
#
# 1 107.4641 46.9346 48.9284 0.0000 0.0000 -1.0584
# 2 46.9346 107.4641 48.9284 0.0000 0.0000 1.0584
# 3 48.9284 48.9284 105.9251 0.0000 0.0000 0.0000
# 4 0.0000 0.0000 0.0000 27.9568 0.0000 0.0000
# 5 0.0000 0.0000 0.0000 0.0000 27.9568 0.0000
# 6 -1.0584 1.0584 0.0000 0.0000 0.0000 20.3308
#
#
#
# Elastic Compliance Matrix: (Units=1/GPa)
#
#
# Indices 1 2 3 4 5 6 
#
# 1 0.012854 -0.003697 -0.004230 0.000000 0.000000 0.000862
# 2 -0.003697 0.012854 -0.004230 0.000000 0.000000 -0.000862
# 3 -0.004230 -0.004230 0.013349 0.000000 0.000000 0.000000
# 4 0.000000 0.000000 0.000000 0.035770 0.000000 0.000000
# 5 0.000000 0.000000 0.000000 0.000000 0.035770 0.000000
# 6 0.000862 -0.000862 0.000000 0.000000 0.000000 0.049276
#
#
# Mechanical properties :
#
#
# Convention : Reuss Voigt Hill
#
# Bulk Modulus (GPa) = 67.82599 67.82626 67.82613
# Shear Modulus (GPa) = 26.44095 26.98633 26.71364
#
# Velocity S-wave (km/s) = 3.66957 3.70722 3.68844
# Velocity P-wave (km/s) = 7.24544 7.27097 7.25822
#
# Compressibility (1/GPa) = 0.01474361
#
# Stress axis : x y z
#
# Youngs Moduli (GPa) = 77.79451 77.79451 74.91460
#
# Poissons Ratio (x) = 0.28758 0.31690
# Poissons Ratio (y) = 0.28758 0.31690
# Poissons Ratio (z) = 0.32908 0.32908
#
# Static dielectric constant tensor:
#      x y z
#    x 3.636710 0.000000 0.000000 
#    y 0.000000 3.636710 0.000000 
#    z 0.000000 0.000000 3.386670 
# 
# 
# High freq. dielectric constant tensor:
#      x y z
#    x 1.772160 0.000000 0.000000 
#    y 0.000000 1.772160 0.000000 
#    z 0.000000 0.000000 1.752240 
# 
# From -- ./inp_files/6486.got.cif
#   From: 2010.03.12/outbox.cif.g09.slc.cpg/sg87_4_cif.got.tgz:6486.got - 2010.04.08 20:16:13.
