data_PCOD8304288
_publ_section_title
;
Structure prediction by ZEFSAII (Michael W. Deem and Ramdas Pophale) SiO2 
 PCOD8304288
Probable space group: I 41/A
;
_chemical_formula_sum "Si O2"
_cell_formula_units_Z 64
_cell_length_a 23.295477
_cell_length_b 23.295477
_cell_length_c 5.285337
_cell_angle_alpha 90.000000
_cell_angle_beta 90.000000
_cell_angle_gamma 90.000000
_cell_volume 2868.242712
_symmetry_space_group_name_H-M "I 41/A"
_symmetry_group_IT_number 88
_space_group.IT_coordinate_system_code '2'
_symmetry_cell_setting 'tetragonal'
loop_
_space_group_symop_operation_xyz
x,y,z
3/4-y,1/4+x,1/4+z
-x,1/2-y,z
1/4+y,1/4-x,1/4+z
-x,-y,-z
1/4+y,3/4-x,3/4-z
x,1/2+y,-z
3/4-y,3/4+x,3/4-z
1/2+x,1/2+y,1/2+z
1/4-y,3/4+x,3/4+z
1/2-x,-y,1/2+z
3/4+y,3/4-x,3/4+z
1/2-x,1/2-y,1/2-z
3/4+y,1/4-x,1/4-z
1/2+x,y,1/2-z
1/4-y,1/4+x,1/4-z
loop_
_atom_site_type_symbol
_atom_site_label
_atom_site_fract_x
_atom_site_fract_y
_atom_site_fract_z
Si Si1 0.834327 0.987229 0.677302
Si Si2 0.802581 0.673639 0.692839
Si Si3 0.387704 0.592528 0.017202
Si Si4 0.547253 0.923571 0.542035
O O1 0.785592 0.942807 0.608441
O O2 0.862813 0.027726 0.460121
O O3 0.882056 0.949555 0.816045
O O4 0.834359 0.637920 0.466548
O O5 0.840289 0.729939 0.760462
O O6 0.739480 0.694951 0.619722
O O7 0.427571 0.611983 0.780988
O O8 0.421390 0.592689 0.281462
#
# Coordination Sequence:
#
# PCOD8304288 Si02
#       4
#    16  16  16  16
#     4  11  21  34  58  91 128 163 200 243 308 386
#     4  10  21  39  60  85 121 155 196 249 298 355
#     4  11  22  39  60  85 119 157 195 246 301 354
#     4  10  24  38  60  90 114 154 203 241 297 367
#
# _framework density 22.313316
#
# number of rings (size 3 to 8) (size 9 to 14) (size 15 to 20)
#    0.000    1.500    0.000    6.000    0.000   15.000 
#    0.000    0.000    0.000    4.500    0.000    0.000 
#    0.000    0.000    0.000    0.000    0.000    0.000 
#
# Total GULP energy -396590.026662 kJ/mol
# GULP energy per Si atom -12393.438333 kJ/mol
# Density = 2.226253 g / cm^3
# Si number density = 22.313316 Si / 1000 Ang^3
#
#
#
# Elastic Constant Matrix: (Units=GPa)
#
#
# Indices 1 2 3 4 5 6 
#
# 1 93.0908 36.6909 43.5559 0.0000 0.0000 -6.7625
# 2 36.6909 93.0908 43.5559 0.0000 0.0000 6.7625
# 3 43.5559 43.5559 114.8688 0.0000 0.0000 0.0000
# 4 0.0000 0.0000 0.0000 23.1928 0.0000 0.0000
# 5 0.0000 0.0000 0.0000 0.0000 23.1928 0.0000
# 6 -6.7625 6.7625 0.0000 0.0000 0.0000 17.6694
#
#
#
# Elastic Compliance Matrix: (Units=1/GPa)
#
#
# Indices 1 2 3 4 5 6 
#
# 1 0.014929 -0.004593 -0.003919 0.000000 0.000000 0.007472
# 2 -0.004593 0.014929 -0.003919 0.000000 0.000000 -0.007472
# 3 -0.003919 -0.003919 0.011678 0.000000 0.000000 0.000000
# 4 0.000000 0.000000 0.000000 0.043117 0.000000 0.000000
# 5 0.000000 0.000000 0.000000 0.000000 0.043117 0.000000
# 6 0.007472 -0.007472 0.000000 0.000000 0.000000 0.062314
#
#
# Mechanical properties :
#
#
# Convention : Reuss Voigt Hill
#
# Bulk Modulus (GPa) = 59.97785 60.96176 60.46980
# Shear Modulus (GPa) = 22.67530 24.62752 23.65141
#
# Velocity S-wave (km/s) = 3.19128 3.32582 3.25925
# Velocity P-wave (km/s) = 6.36532 6.49063 6.42828
#
# Compressibility (1/GPa) = 0.01667282
#
# Stress axis : x y z
#
# Youngs Moduli (GPa) = 66.98346 66.98346 85.63327
#
# Poissons Ratio (x) = 0.30767 0.33561
# Poissons Ratio (y) = 0.30767 0.33561
# Poissons Ratio (z) = 0.26252 0.26252
#
# Static dielectric constant tensor:
#      x y z
#    x 4.232430 0.000000 0.000000 
#    y 0.000000 4.232430 0.000000 
#    z 0.000000 0.000000 3.805150 
# 
# 
# High freq. dielectric constant tensor:
#      x y z
#    x 1.864740 0.000000 0.000000 
#    y 0.000000 1.864740 0.000000 
#    z 0.000000 0.000000 1.878090 
# 
# From -- ./inp_files/563.got.cif
#   From: 2010.03.12/outbox.cif.g09.slc.cpg/sg88_1_cif.got.tgz:563.got - 2010.04.08 20:20:55.
