data_PCOD8304108
_publ_section_title
;
Structure prediction by ZEFSAII (Michael W. Deem and Ramdas Pophale) SiO2 
 PCOD8304108
Probable space group: I 4/M
;
_chemical_formula_sum "Si O2"
_cell_formula_units_Z 120
_cell_length_a 14.940989
_cell_length_b 14.940989
_cell_length_c 27.268710
_cell_angle_alpha 90.000000
_cell_angle_beta 90.000000
_cell_angle_gamma 90.000000
_cell_volume 6087.280092
_symmetry_space_group_name_H-M "I 4/M"
_symmetry_group_IT_number 87
_symmetry_cell_setting 'tetragonal'
loop_
_space_group_symop_operation_xyz
x,y,z
-y,x,z
-x,-y,z
y,-x,z
-x,-y,-z
y,-x,-z
x,y,-z
-y,x,-z
1/2+x,1/2+y,1/2+z
1/2-y,1/2+x,1/2+z
1/2-x,1/2-y,1/2+z
1/2+y,1/2-x,1/2+z
1/2-x,1/2-y,1/2-z
1/2+y,1/2-x,1/2-z
1/2+x,1/2+y,1/2-z
1/2-y,1/2+x,1/2-z
loop_
_atom_site_type_symbol
_atom_site_label
_atom_site_fract_x
_atom_site_fract_y
_atom_site_fract_z
Si Si1 0.713105 0.587696 0.660536
Si Si2 0.279224 0.129610 0.375242
Si Si3 0.786180 0.088153 0.104753
Si Si4 0.368041 0.446094 0.942372
Si Si5 0.936015 0.868024 0.000000
Si Si6 0.281362 0.976815 0.239462
Si Si7 0.440966 0.913355 0.810897
Si Si8 0.250870 0.691264 0.201274
O O1 0.739998 0.513387 0.619906
O O2 0.621689 0.636331 0.643239
O O3 0.704352 0.538707 0.714416
O O4 0.791700 0.661752 0.668195
O O5 0.341843 0.206440 0.396246
O O6 0.221888 0.089636 0.418741
O O7 0.342261 0.049204 0.355067
O O8 0.214445 0.162611 0.331111
O O9 0.816563 0.091029 0.048867
O O10 0.451809 0.385156 0.925923
O O11 0.355334 0.440891 0.000000
O O12 0.040986 0.881796 0.000000
O O13 0.332455 0.928220 0.193692
O O14 0.241446 0.911760 0.280951
O O15 0.365983 0.032189 0.260117
O O16 0.500000 0.000000 0.822750
O O17 0.250000 0.750000 0.250000
#
# Coordination Sequence:
#
# PCOD8304108 Si02
#       8
#    16  16  16  16   8  16  16  16
#     4  11  21  37  57  83 118 166 213 249 308 354
#     4  11  24  38  62  96 124 153 205 260 311 363
#     4  11  23  38  60  88 126 161 203 263 310 374
#     4   9  21  46  73  91 113 149 198 260 329 391
#     4  11  22  40  62  88 119 162 217 259 312 371
#     4  12  19  35  57  82 121 166 211 239 287 354
#     4  12  21  34  57  86 120 167 206 241 283 360
#     4  11  21  38  56  84 126 165 203 256 297 350
#
# _framework density 19.713239000000002
#
# number of rings (size 3 to 8) (size 9 to 14) (size 15 to 20)
#    0.000    1.000    6.667    1.200    2.800    0.267 
#    0.000    0.000    0.000    0.400    0.000    0.000 
#    0.000    0.000    0.000    0.000    0.000    0.000 
#
# Total GULP energy -743625.666634 kJ/mol
# GULP energy per Si atom -12393.761111 kJ/mol
# Density = 1.966837 g / cm^3
# Si number density = 19.713239 Si / 1000 Ang^3
#
#
#
# Elastic Constant Matrix: (Units=GPa)
#
#
# Indices 1 2 3 4 5 6 
#
# 1 86.2473 44.0960 47.4679 0.0000 0.0000 1.7109
# 2 44.0960 86.2473 47.4679 0.0000 0.0000 -1.7109
# 3 47.4679 47.4679 86.3254 0.0000 0.0000 0.0000
# 4 0.0000 0.0000 0.0000 29.9824 0.0000 0.0000
# 5 0.0000 0.0000 0.0000 0.0000 29.9824 0.0000
# 6 1.7109 -1.7109 0.0000 0.0000 0.0000 23.2076
#
#
#
# Elastic Compliance Matrix: (Units=1/GPa)
#
#
# Indices 1 2 3 4 5 6 
#
# 1 0.018332 -0.005535 -0.007037 0.000000 0.000000 -0.001760
# 2 -0.005535 0.018332 -0.007037 0.000000 0.000000 0.001760
# 3 -0.007037 -0.007037 0.019323 0.000000 0.000000 0.000000
# 4 0.000000 0.000000 0.000000 0.033353 0.000000 0.000000
# 5 0.000000 0.000000 0.000000 0.000000 0.033353 0.000000
# 6 -0.001760 0.001760 0.000000 0.000000 0.000000 0.043349
#
#
# Mechanical properties :
#
#
# Convention : Reuss Voigt Hill
#
# Bulk Modulus (GPa) = 59.63036 59.65374 59.64205
# Shear Modulus (GPa) = 23.71363 24.62034 24.16698
#
# Velocity S-wave (km/s) = 3.47209 3.53785 3.50512
# Velocity P-wave (km/s) = 6.81091 6.85674 6.83386
#
# Compressibility (1/GPa) = 0.01676998
#
# Stress axis : x y z
#
# Youngs Moduli (GPa) = 54.54895 54.54895 51.75200
#
# Poissons Ratio (x) = 0.30191 0.36418
# Poissons Ratio (y) = 0.30191 0.36418
# Poissons Ratio (z) = 0.38386 0.38386
#
# Static dielectric constant tensor:
#      x y z
#    x 3.704030 0.000000 0.000000 
#    y 0.000000 3.704030 0.000000 
#    z 0.000000 0.000000 3.551660 
# 
# 
# High freq. dielectric constant tensor:
#      x y z
#    x 1.765000 0.000000 0.000000 
#    y 0.000000 1.765000 0.000000 
#    z 0.000000 0.000000 1.757690 
# 
# From -- ./inp_files/6774.got.cif
#   From: 2010.03.12/outbox.cif.g09.slc.cpg/sg87_4_cif.got.tgz:6774.got - 2010.04.08 20:16:13.
