data_PCOD8304464
_publ_section_title
;
Structure prediction by ZEFSAII (Michael W. Deem and Ramdas Pophale) SiO2 
 PCOD8304464
Probable space group: P 4 2 2
;
_chemical_formula_sum "Si O2"
_cell_formula_units_Z 48
_cell_length_a 22.337581
_cell_length_b 22.337581
_cell_length_c 5.178501
_cell_angle_alpha 90.000000
_cell_angle_beta 90.000000
_cell_angle_gamma 90.000000
_cell_volume 2583.903827
_symmetry_space_group_name_H-M "P 4 2 2"
_symmetry_group_IT_number 89
_symmetry_cell_setting 'tetragonal'
loop_
_space_group_symop_operation_xyz
x,y,z
-y,x,z
-x,-y,z
y,-x,z
x,-y,-z
-x,y,-z
y,x,-z
-y,-x,-z
loop_
_atom_site_type_symbol
_atom_site_label
_atom_site_fract_x
_atom_site_fract_y
_atom_site_fract_z
Si Si1 0.433875 0.725371 0.964337
Si Si2 0.632116 0.724333 0.534847
Si Si3 0.164971 0.070023 0.973717
Si Si4 0.131871 0.568271 0.018050
Si Si5 0.875979 0.779570 0.525330
Si Si6 0.134827 0.361410 0.482001
O O1 0.393078 0.700565 0.194821
O O2 0.433957 0.796937 0.972991
O O3 0.500000 0.699795 0.000000
O O4 0.409936 0.700158 0.694244
O O5 0.698896 0.698896 0.500000
O O6 0.633706 0.794616 0.519530
O O7 0.208323 0.097509 0.191440
O O8 0.099708 0.099708 0.000000
O O9 0.191676 0.082158 0.691750
O O10 0.156595 0.000000 0.000000
O O11 0.108550 0.606586 0.773103
O O12 0.106846 0.500000 0.000000
O O13 0.107800 0.602685 0.272833
O O14 0.809004 0.809004 0.500000
O O15 0.879223 0.708638 0.486984
#
# Coordination Sequence:
#
# PCOD8304464 Si02
#       6
#     8   8   8   8   8   8
#     4   9  17  28  40  55  81 115 145 181 229 274
#     4  10  18  27  41  62  87 114 147 181 218 278
#     4  10  21  37  57  80 108 140 174 216 257 299
#     4   9  17  28  43  65  95 132 170 205 239 284
#     4  10  20  34  52  77 109 140 172 210 257 313
#     4  10  18  29  46  68 100 136 164 195 244 298
#
# _framework density 18.576540999999999
#
# number of rings (size 3 to 8) (size 9 to 14) (size 15 to 20)
#    0.000    2.333    0.000    3.500    0.000    4.167 
#    0.000    5.000    0.000    3.000    0.000    0.000 
#    0.000   70.000    0.000    0.000    0.000    0.000 
#
# Total GULP energy -595012.278816 kJ/mol
# GULP energy per Si atom -12396.089142 kJ/mol
# Density = 1.853426 g / cm^3
# Si number density = 18.576541 Si / 1000 Ang^3
#
#
#
# Elastic Constant Matrix: (Units=GPa)
#
#
# Indices 1 2 3 4 5 6 
#
# 1 167.8377 -74.2651 15.3742 0.0000 0.0000 0.0000
# 2 -74.2651 167.8377 15.3742 0.0000 0.0000 0.0000
# 3 15.3742 15.3742 96.5757 0.0000 0.0000 0.0000
# 4 0.0000 0.0000 0.0000 18.4095 0.0000 0.0000
# 5 0.0000 0.0000 0.0000 0.0000 18.4095 0.0000
# 6 0.0000 0.0000 0.0000 0.0000 0.0000 9.2069
#
#
#
# Elastic Compliance Matrix: (Units=1/GPa)
#
#
# Indices 1 2 3 4 5 6 
#
# 1 0.007704 0.003573 -0.001795 0.000000 0.000000 0.000000
# 2 0.003573 0.007704 -0.001795 0.000000 0.000000 0.000000
# 3 -0.001795 -0.001795 0.010926 0.000000 0.000000 0.000000
# 4 0.000000 0.000000 0.000000 0.054320 0.000000 0.000000
# 5 0.000000 0.000000 0.000000 0.000000 0.054320 0.000000
# 6 0.000000 0.000000 0.000000 0.000000 0.000000 0.108615
#
#
# Mechanical properties :
#
#
# Convention : Reuss Voigt Hill
#
# Bulk Modulus (GPa) = 38.02430 38.35752 38.19091
# Shear Modulus (GPa) = 19.81076 40.92304 30.36690
#
# Velocity S-wave (km/s) = 3.26918 4.69864 4.04752
# Velocity P-wave (km/s) = 5.89606 7.08022 6.51510
#
# Compressibility (1/GPa) = 0.02629897
#
# Stress axis : x y z
#
# Youngs Moduli (GPa) = 129.80875 129.80875 91.52370
#
# Poissons Ratio (x) = -0.46383 0.16430
# Poissons Ratio (y) = -0.46383 0.16430
# Poissons Ratio (z) = 0.23303 0.23303
#
# Static dielectric constant tensor:
#      x y z
#    x 3.198840 0.000000 0.000000 
#    y 0.000000 3.198840 0.000000 
#    z 0.000000 0.000000 3.842020 
# 
# 
# High freq. dielectric constant tensor:
#      x y z
#    x 1.693120 0.000000 0.000000 
#    y 0.000000 1.693120 0.000000 
#    z 0.000000 0.000000 1.747200 
# 
# From -- ./inp_files/410.got.cif
#   From: 2010.03.12/outbox.cif.g09.slc.cpg/sg89_1_cif.got.tgz:410.got - 2010.04.08 20:24:03.
