data_PCOD8304266
_publ_section_title
;
Structure prediction by ZEFSAII (Michael W. Deem and Ramdas Pophale) SiO2 
 PCOD8304266
Probable space group: I 41/A
;
_chemical_formula_sum "Si O2"
_cell_formula_units_Z 72
_cell_length_a 20.457903
_cell_length_b 20.457903
_cell_length_c 8.004656
_cell_angle_alpha 90.000000
_cell_angle_beta 90.000000
_cell_angle_gamma 90.000000
_cell_volume 3350.155017
_symmetry_space_group_name_H-M "I 41/A"
_symmetry_group_IT_number 88
_space_group.IT_coordinate_system_code '2'
_symmetry_cell_setting 'tetragonal'
loop_
_space_group_symop_operation_xyz
x,y,z
3/4-y,1/4+x,1/4+z
-x,1/2-y,z
1/4+y,1/4-x,1/4+z
-x,-y,-z
1/4+y,3/4-x,3/4-z
x,1/2+y,-z
3/4-y,3/4+x,3/4-z
1/2+x,1/2+y,1/2+z
1/4-y,3/4+x,3/4+z
1/2-x,-y,1/2+z
3/4+y,3/4-x,3/4+z
1/2-x,1/2-y,1/2-z
3/4+y,1/4-x,1/4-z
1/2+x,y,1/2-z
1/4-y,1/4+x,1/4-z
loop_
_atom_site_type_symbol
_atom_site_label
_atom_site_fract_x
_atom_site_fract_y
_atom_site_fract_z
Si Si1 0.502935 0.858364 0.875323
Si Si2 0.364344 0.000414 0.553378
Si Si3 0.704386 0.633428 0.463351
Si Si4 0.500000 0.250000 0.375000
Si Si5 0.000000 0.750000 0.375000
Si Si6 0.113598 0.547068 0.606724
O O1 0.567580 0.895916 0.821270
O O2 0.476218 0.812871 0.727425
O O3 0.442376 0.901376 0.938210
O O4 0.526683 0.811363 0.022320
O O5 0.316884 0.940248 0.506729
O O6 0.409136 0.985875 0.716880
O O7 0.408053 0.011134 0.386012
O O8 0.324234 0.064563 0.607998
O O9 0.749357 0.632646 0.300520
#
# Coordination Sequence:
#
# PCOD8304266 Si02
#       6
#    16  16  16   4   4  16
#     4  11  25  47  66 100 125 187 235 282 350 402
#     4  10  24  39  68 104 136 183 218 272 362 397
#     4  11  24  42  67 102 140 177 227 282 336 420
#     4  10  20  46  72  78 136 162 228 294 336 422
#     4  10  28  46  72  86 140 186 228 282 360 422
#     4  11  24  42  67 102 140 177 227 282 336 420
#
# _framework density 21.491544000000001
#
# number of rings (size 3 to 8) (size 9 to 14) (size 15 to 20)
#    0.000    1.333    0.000    4.667   18.667    0.889 
#    0.000    0.000    0.000    0.000    0.000    0.000 
#    0.000    0.000    0.000    0.000    0.000    0.000 
#
# Total GULP energy -446091.841345 kJ/mol
# GULP energy per Si atom -12391.440037 kJ/mol
# Density = 2.144263 g / cm^3
# Si number density = 21.491544 Si / 1000 Ang^3
#
#
#
# Elastic Constant Matrix: (Units=GPa)
#
#
# Indices 1 2 3 4 5 6 
#
# 1 68.0348 52.8747 32.0585 0.0000 0.0000 -0.9076
# 2 52.8747 68.0348 32.0585 0.0000 0.0000 0.9076
# 3 32.0585 32.0585 183.0825 0.0000 0.0000 0.0000
# 4 0.0000 0.0000 0.0000 18.5246 0.0000 0.0000
# 5 0.0000 0.0000 0.0000 0.0000 18.5246 0.0000
# 6 -0.9076 0.9076 0.0000 0.0000 0.0000 23.8071
#
#
#
# Elastic Compliance Matrix: (Units=1/GPa)
#
#
# Indices 1 2 3 4 5 6 
#
# 1 0.037691 -0.028574 -0.001596 0.000000 0.000000 0.002526
# 2 -0.028574 0.037691 -0.001596 0.000000 0.000000 -0.002526
# 3 -0.001596 -0.001596 0.006021 0.000000 0.000000 0.000000
# 4 0.000000 0.000000 0.000000 0.053982 0.000000 0.000000
# 5 0.000000 0.000000 0.000000 0.000000 0.053982 0.000000
# 6 0.002526 -0.002526 0.000000 0.000000 0.000000 0.042197
#
#
# Mechanical properties :
#
#
# Convention : Reuss Voigt Hill
#
# Bulk Modulus (GPa) = 55.96054 61.45948 58.71001
# Shear Modulus (GPa) = 16.60827 25.64864 21.12846
#
# Velocity S-wave (km/s) = 2.78291 3.45835 3.13885
# Velocity P-wave (km/s) = 6.03499 6.67878 6.36503
#
# Compressibility (1/GPa) = 0.01786973
#
# Stress axis : x y z
#
# Youngs Moduli (GPa) = 26.53144 26.53144 166.08226
#
# Poissons Ratio (x) = 0.75811 0.26514
# Poissons Ratio (y) = 0.75811 0.26514
# Poissons Ratio (z) = 0.04236 0.04236
#
# Static dielectric constant tensor:
#      x y z
#    x 3.804060 0.000000 0.000000 
#    y 0.000000 3.804060 0.000000 
#    z 0.000000 0.000000 4.906820 
# 
# 
# High freq. dielectric constant tensor:
#      x y z
#    x 1.834070 0.000000 0.000000 
#    y 0.000000 1.834070 0.000000 
#    z 0.000000 0.000000 1.878870 
# 
# From -- ./inp_files/1593.got.cif
#   From: 2010.03.12/outbox.cif.g09.slc.cpg/sg88_1_cif.got.tgz:1593.got - 2010.04.08 20:20:55.
