data_PCOD8304408
_publ_section_title
;
Structure prediction by ZEFSAII (Michael W. Deem and Ramdas Pophale) SiO2 
 PCOD8304408
Probable space group: I 41/A
;
_chemical_formula_sum "Si O2"
_cell_formula_units_Z 80
_cell_length_a 27.165255
_cell_length_b 27.165255
_cell_length_c 5.033377
_cell_angle_alpha 90.000000
_cell_angle_beta 90.000000
_cell_angle_gamma 90.000000
_cell_volume 3714.385989
_symmetry_space_group_name_H-M "I 41/A"
_symmetry_group_IT_number 88
_space_group.IT_coordinate_system_code '2'
_symmetry_cell_setting 'tetragonal'
loop_
_space_group_symop_operation_xyz
x,y,z
3/4-y,1/4+x,1/4+z
-x,1/2-y,z
1/4+y,1/4-x,1/4+z
-x,-y,-z
1/4+y,3/4-x,3/4-z
x,1/2+y,-z
3/4-y,3/4+x,3/4-z
1/2+x,1/2+y,1/2+z
1/4-y,3/4+x,3/4+z
1/2-x,-y,1/2+z
3/4+y,3/4-x,3/4+z
1/2-x,1/2-y,1/2-z
3/4+y,1/4-x,1/4-z
1/2+x,y,1/2-z
1/4-y,1/4+x,1/4-z
loop_
_atom_site_type_symbol
_atom_site_label
_atom_site_fract_x
_atom_site_fract_y
_atom_site_fract_z
Si Si1 0.589732 0.519211 0.867244
Si Si2 0.382546 0.116332 0.160675
Si Si3 0.817118 0.703045 0.639385
Si Si4 0.707633 0.936989 0.667625
Si Si5 0.835008 0.815466 0.559748
O O1 0.547313 0.533711 0.652958
O O2 0.644166 0.540966 0.806886
O O3 0.591004 0.460851 0.841046
O O4 0.573996 0.536528 0.157653
O O5 0.365032 0.171754 0.222113
O O6 0.334651 0.080312 0.126123
O O7 0.416292 0.094529 0.394426
O O8 0.414352 0.125901 0.893443
O O9 0.832746 0.756971 0.553952
O O10 0.760513 0.941616 0.803571
#
# Coordination Sequence:
#
# PCOD8304408 Si02
#       5
#    16  16  16  16  16
#     4  11  23  41  62  96 124 171 226 261 316 388
#     4  11  25  42  63  97 128 168 224 262 325 397
#     4  11  24  42  67  92 128 167 216 275 330 374
#     4  11  25  38  61  94 139 185 215 259 318 399
#     4  12  23  43  67  92 127 168 216 280 323 377
#
# _framework density 21.537880000000001
#
# number of rings (size 3 to 8) (size 9 to 14) (size 15 to 20)
#    0.000    0.800    2.000    6.000    5.600    0.000 
#    0.000    0.000    0.000    3.600    0.000    0.000 
#    0.000    0.000    0.000    0.000    0.000    0.000 
#
# Total GULP energy -495838.158398 kJ/mol
# GULP energy per Si atom -12395.953960 kJ/mol
# Density = 2.148886 g / cm^3
# Si number density = 21.537880 Si / 1000 Ang^3
#
#
#
# Elastic Constant Matrix: (Units=GPa)
#
#
# Indices 1 2 3 4 5 6 
#
# 1 107.6838 22.4321 14.5337 0.0000 0.0000 -4.7888
# 2 22.4321 107.6838 14.5337 0.0000 0.0000 4.7888
# 3 14.5337 14.5337 77.0951 0.0000 0.0000 0.0000
# 4 0.0000 0.0000 0.0000 29.2176 0.0000 0.0000
# 5 0.0000 0.0000 0.0000 0.0000 29.2176 0.0000
# 6 -4.7888 4.7888 0.0000 0.0000 0.0000 10.7083
#
#
#
# Elastic Compliance Matrix: (Units=1/GPa)
#
#
# Indices 1 2 3 4 5 6 
#
# 1 0.010187 -0.002164 -0.001513 0.000000 0.000000 0.005523
# 2 -0.002164 0.010187 -0.001513 0.000000 0.000000 -0.005523
# 3 -0.001513 -0.001513 0.013541 0.000000 0.000000 0.000000
# 4 0.000000 0.000000 0.000000 0.034226 0.000000 0.000000
# 5 0.000000 0.000000 0.000000 0.000000 0.034226 0.000000
# 6 0.005523 -0.005523 0.000000 0.000000 0.000000 0.098325
#
#
# Mechanical properties :
#
#
# Convention : Reuss Voigt Hill
#
# Bulk Modulus (GPa) = 42.48479 43.94018 43.21249
# Shear Modulus (GPa) = 22.83984 29.89290 26.36637
#
# Velocity S-wave (km/s) = 3.25999 3.72952 3.50263
# Velocity P-wave (km/s) = 5.82567 6.24431 6.03862
#
# Compressibility (1/GPa) = 0.02353783
#
# Stress axis : x y z
#
# Youngs Moduli (GPa) = 98.16513 98.16513 73.84833
#
# Poissons Ratio (x) = 0.21239 0.11170
# Poissons Ratio (y) = 0.21239 0.11170
# Poissons Ratio (z) = 0.14848 0.14848
#
# Static dielectric constant tensor:
#      x y z
#    x 3.960070 0.000000 0.000000 
#    y 0.000000 3.960070 0.000000 
#    z 0.000000 0.000000 3.877620 
# 
# 
# High freq. dielectric constant tensor:
#      x y z
#    x 1.837930 0.000000 0.000000 
#    y 0.000000 1.837930 0.000000 
#    z 0.000000 0.000000 1.857060 
# 
# From -- ./inp_files/682.got.cif
#   From: 2010.03.12/outbox.cif.g09.slc.cpg/sg88_1_cif.got.tgz:682.got - 2010.04.08 20:20:55.
