data_PCOD8304138
_publ_section_title
;
Structure prediction by ZEFSAII (Michael W. Deem and Ramdas Pophale) SiO2 
 PCOD8304138
Probable space group: I 4/M
;
_chemical_formula_sum "Si O2"
_cell_formula_units_Z 48
_cell_length_a 10.310272
_cell_length_b 10.310272
_cell_length_c 23.445431
_cell_angle_alpha 90.000000
_cell_angle_beta 90.000000
_cell_angle_gamma 90.000000
_cell_volume 2492.289377
_symmetry_space_group_name_H-M "I 4/M"
_symmetry_group_IT_number 87
_symmetry_cell_setting 'tetragonal'
loop_
_space_group_symop_operation_xyz
x,y,z
-y,x,z
-x,-y,z
y,-x,z
-x,-y,-z
y,-x,-z
x,y,-z
-y,x,-z
1/2+x,1/2+y,1/2+z
1/2-y,1/2+x,1/2+z
1/2-x,1/2-y,1/2+z
1/2+y,1/2-x,1/2+z
1/2-x,1/2-y,1/2-z
1/2+y,1/2-x,1/2-z
1/2+x,1/2+y,1/2-z
1/2-y,1/2+x,1/2-z
loop_
_atom_site_type_symbol
_atom_site_label
_atom_site_fract_x
_atom_site_fract_y
_atom_site_fract_z
Si Si1 0.515445 0.285780 0.246695
Si Si2 0.906228 0.809226 0.064612
Si Si3 0.911305 0.609815 0.157767
O O1 0.637538 0.380796 0.250622
O O2 0.538347 0.208320 0.188414
O O3 0.507392 0.185548 0.298828
O O4 0.829897 0.941557 0.076080
O O5 0.854093 0.701902 0.108414
O O6 0.882579 0.761954 0.000000
O O7 0.000000 0.500000 0.128447
#
# Coordination Sequence:
#
# PCOD8304138 Si02
#       3
#    16  16  16
#     4  11  23  38  56  82 118 156 191 234 284 341
#     4   9  20  39  62  86 112 148 194 242 288 333
#     4  12  22  35  58  87 116 152 188 236 289 345
#
# _framework density 19.259401
#
# number of rings (size 3 to 8) (size 9 to 14) (size 15 to 20)
#    0.000    1.333    3.333    4.000    4.667    3.333 
#    0.000    0.000    0.000    0.000    0.000    2.333 
#    0.000    0.000    0.000    0.000    0.000    0.000 
#
# Total GULP energy -297557.069559 kJ/mol
# GULP energy per Si atom -12398.211232 kJ/mol
# Density = 1.921557 g / cm^3
# Si number density = 19.259401 Si / 1000 Ang^3
#
#
#
# Elastic Constant Matrix: (Units=GPa)
#
#
# Indices 1 2 3 4 5 6 
#
# 1 61.1450 18.8853 8.1427 0.0000 0.0000 7.9420
# 2 18.8853 61.1450 8.1427 0.0000 0.0000 -7.9420
# 3 8.1427 8.1427 52.2673 0.0000 0.0000 0.0000
# 4 0.0000 0.0000 0.0000 24.1483 0.0000 0.0000
# 5 0.0000 0.0000 0.0000 0.0000 24.1483 0.0000
# 6 7.9420 -7.9420 0.0000 0.0000 0.0000 19.7931
#
#
#
# Elastic Compliance Matrix: (Units=1/GPa)
#
#
# Indices 1 2 3 4 5 6 
#
# 1 0.020385 -0.007481 -0.002010 0.000000 0.000000 -0.011181
# 2 -0.007481 0.020385 -0.002010 0.000000 0.000000 0.011181
# 3 -0.002010 -0.002010 0.019759 0.000000 0.000000 0.000000
# 4 0.000000 0.000000 0.000000 0.041411 0.000000 0.000000
# 5 0.000000 0.000000 0.000000 0.000000 0.041411 0.000000
# 6 -0.011181 0.011181 0.000000 0.000000 0.000000 0.059496
#
#
# Mechanical properties :
#
#
# Convention : Reuss Voigt Hill
#
# Bulk Modulus (GPa) = 26.64812 27.21095 26.92953
# Shear Modulus (GPa) = 20.97685 22.91039 21.94362
#
# Velocity S-wave (km/s) = 3.30384 3.45275 3.37912
# Velocity P-wave (km/s) = 5.33107 5.48222 5.40717
#
# Compressibility (1/GPa) = 0.03752609
#
# Stress axis : x y z
#
# Youngs Moduli (GPa) = 49.05538 49.05538 50.61036
#
# Poissons Ratio (x) = 0.36697 0.10174
# Poissons Ratio (y) = 0.36697 0.10174
# Poissons Ratio (z) = 0.09862 0.09862
#
# Static dielectric constant tensor:
#      x y z
#    x 3.589660 0.000000 0.000000 
#    y 0.000000 3.589660 0.000000 
#    z 0.000000 0.000000 3.424680 
# 
# 
# High freq. dielectric constant tensor:
#      x y z
#    x 1.748370 0.000000 0.000000 
#    y 0.000000 1.748370 0.000000 
#    z 0.000000 0.000000 1.734040 
# 
# From -- ./inp_files/4846.got.cif
#   From: 2010.03.12/outbox.cif.g09.slc.cpg/sg87_3_cif.got.tgz:4846.got - 2010.04.08 20:16:13.
