data_PCOD8304208
_publ_section_title
;
Structure prediction by ZEFSAII (Michael W. Deem and Ramdas Pophale) SiO2 
 PCOD8304208
Probable space group: I 41/A
;
_chemical_formula_sum "Si O2"
_cell_formula_units_Z 120
_cell_length_a 19.926944
_cell_length_b 19.926944
_cell_length_c 15.305866
_cell_angle_alpha 90.000000
_cell_angle_beta 90.000000
_cell_angle_gamma 90.000000
_cell_volume 6077.700676
_symmetry_space_group_name_H-M "I 41/A"
_symmetry_group_IT_number 88
_space_group.IT_coordinate_system_code '2'
_symmetry_cell_setting 'tetragonal'
loop_
_space_group_symop_operation_xyz
x,y,z
3/4-y,1/4+x,1/4+z
-x,1/2-y,z
1/4+y,1/4-x,1/4+z
-x,-y,-z
1/4+y,3/4-x,3/4-z
x,1/2+y,-z
3/4-y,3/4+x,3/4-z
1/2+x,1/2+y,1/2+z
1/4-y,3/4+x,3/4+z
1/2-x,-y,1/2+z
3/4+y,3/4-x,3/4+z
1/2-x,1/2-y,1/2-z
3/4+y,1/4-x,1/4-z
1/2+x,y,1/2-z
1/4-y,1/4+x,1/4-z
loop_
_atom_site_type_symbol
_atom_site_label
_atom_site_fract_x
_atom_site_fract_y
_atom_site_fract_z
Si Si1 0.000000 0.250000 0.465073
Si Si2 0.390682 0.164068 0.946201
Si Si3 0.061363 0.612738 0.594142
Si Si4 0.778054 0.735578 0.014167
Si Si5 0.189996 0.502070 0.020836
Si Si6 0.119715 0.507848 0.203295
Si Si7 0.002312 0.565196 0.427152
Si Si8 0.863639 0.531409 0.164115
O O1 0.938513 0.222994 0.520570
O O2 0.971210 0.313574 0.411218
O O3 0.332050 0.151776 0.016729
O O4 0.427112 0.093642 0.930449
O O5 0.369373 0.191159 0.851457
O O6 0.048564 0.594681 0.696135
O O7 0.026641 0.554724 0.528688
O O8 0.139455 0.609458 0.573610
O O9 0.738904 0.756215 0.101697
O O10 0.791248 0.804963 0.962453
O O11 0.740845 0.686007 0.948343
O O12 0.230735 0.571183 0.014549
O O13 0.143786 0.489545 0.936706
O O14 0.140978 0.507267 0.102806
O O15 0.245410 0.443739 0.028876
#
# Coordination Sequence:
#
# PCOD8304208 Si02
#       8
#     8  16  16  16  16  16  16  16
#     4  10  22  37  58  90 127 174 204 264 323 402
#     4  10  19  35  55  86 127 162 203 245 317 387
#     4  11  22  37  62  88 132 162 212 260 322 394
#     4  11  23  39  60  93 125 164 214 263 320 392
#     4  10  24  43  66  92 123 171 221 278 336 378
#     4  10  24  39  63  92 128 162 216 275 326 391
#     4  10  20  31  54  89 122 163 197 244 309 380
#     4  11  22  44  67  94 126 170 223 270 326 393
#
# _framework density 19.744309000000001
#
# number of rings (size 3 to 8) (size 9 to 14) (size 15 to 20)
#    0.000    1.600    1.333    4.400    5.600    5.333 
#    0.000    0.000    0.000    0.000    0.000    0.933 
#    0.000    0.000    0.000    0.000    0.000    0.000 
#
# Total GULP energy -743591.225012 kJ/mol
# GULP energy per Si atom -12393.187084 kJ/mol
# Density = 1.969937 g / cm^3
# Si number density = 19.744309 Si / 1000 Ang^3
#
#
#
# Elastic Constant Matrix: (Units=GPa)
#
#
# Indices 1 2 3 4 5 6 
#
# 1 62.0661 36.7357 44.6074 0.0000 0.0000 3.1227
# 2 36.7357 62.0661 44.6074 0.0000 0.0000 -3.1227
# 3 44.6074 44.6074 112.0653 0.0000 0.0000 0.0000
# 4 0.0000 0.0000 0.0000 8.3462 0.0000 0.0000
# 5 0.0000 0.0000 0.0000 0.0000 8.3462 0.0000
# 6 3.1227 -3.1227 0.0000 0.0000 0.0000 35.4356
#
#
#
# Elastic Compliance Matrix: (Units=1/GPa)
#
#
# Indices 1 2 3 4 5 6 
#
# 1 0.028078 -0.012277 -0.006289 0.000000 0.000000 -0.003556
# 2 -0.012277 0.028078 -0.006289 0.000000 0.000000 0.003556
# 3 -0.006289 -0.006289 0.013930 0.000000 0.000000 0.000000
# 4 0.000000 0.000000 0.000000 0.119815 0.000000 0.000000
# 5 0.000000 0.000000 0.000000 0.000000 0.119815 0.000000
# 6 -0.003556 0.003556 0.000000 0.000000 0.000000 0.028847
#
#
# Mechanical properties :
#
#
# Convention : Reuss Voigt Hill
#
# Bulk Modulus (GPa) = 49.08287 54.23317 51.65802
# Shear Modulus (GPa) = 12.65614 17.77540 15.21577
#
# Velocity S-wave (km/s) = 2.53455 3.00372 2.77905
# Velocity P-wave (km/s) = 5.78606 6.28945 6.04300
#
# Compressibility (1/GPa) = 0.02037370
#
# Stress axis : x y z
#
# Youngs Moduli (GPa) = 35.61548 35.61548 71.78619
#
# Poissons Ratio (x) = 0.43726 0.45148
# Poissons Ratio (y) = 0.43726 0.45148
# Poissons Ratio (z) = 0.22400 0.22400
#
# Static dielectric constant tensor:
#      x y z
#    x 3.812660 0.000000 0.000000 
#    y 0.000000 3.812660 0.000000 
#    z 0.000000 0.000000 3.701900 
# 
# 
# High freq. dielectric constant tensor:
#      x y z
#    x 1.774050 0.000000 0.000000 
#    y 0.000000 1.774050 0.000000 
#    z 0.000000 0.000000 1.767630 
# 
# From -- ./inp_files/3388.got.cif
#   From: 2010.03.12/outbox.cif.g09.slc.cpg/sg88_2_cif.got.tgz:3388.got - 2010.04.08 20:20:55.
