data_PCOD8304798
_publ_section_title
;
Structure prediction by ZEFSAII (Michael W. Deem and Ramdas Pophale) SiO2 
 PCOD8304798
Probable space group: P 41 2 2
;
_chemical_formula_sum "Si O2"
_cell_formula_units_Z 56
_cell_length_a 12.714890
_cell_length_b 12.714890
_cell_length_c 19.057443
_cell_angle_alpha 90.000000
_cell_angle_beta 90.000000
_cell_angle_gamma 90.000000
_cell_volume 3080.986846
_symmetry_space_group_name_H-M "P 41 2 2"
_symmetry_group_IT_number 91
_symmetry_cell_setting 'tetragonal'
loop_
_space_group_symop_operation_xyz
x,y,z
-y,x,1/4+z
-x,-y,1/2+z
y,-x,3/4+z
x,-y,1/2-z
-x,y,-z
y,x,3/4-z
-y,-x,1/4-z
loop_
_atom_site_type_symbol
_atom_site_label
_atom_site_fract_x
_atom_site_fract_y
_atom_site_fract_z
Si Si1 0.473907 0.147319 0.693292
Si Si2 0.307845 0.745285 0.200665
Si Si3 0.803841 0.685337 0.670161
Si Si4 0.974445 0.382446 0.223477
Si Si5 0.942575 0.832234 0.932447
Si Si6 0.885986 0.697899 0.136827
Si Si7 0.090098 0.473789 0.908620
O O1 0.578333 0.209012 0.712083
O O2 0.403818 0.213518 0.639054
O O3 0.419026 0.131399 0.769945
O O4 0.500635 0.034419 0.660821
O O5 0.309647 0.690354 0.125000
O O6 0.277610 0.666733 0.264951
O O7 0.216370 0.832148 0.206586
O O8 0.921924 0.681998 0.700829
O O9 0.781854 0.794502 0.629128
O O10 0.005815 0.500000 0.250000
O O11 0.910737 0.314929 0.280631
O O12 0.895483 0.394176 0.156702
O O13 0.923898 0.923898 0.875000
O O14 0.008496 0.736707 0.900561
O O15 0.000000 0.882802 0.000000
O O16 0.852172 0.585140 0.104871
#
# Coordination Sequence:
#
# PCOD8304798 Si02
#       7
#     8   8   8   8   8   8   8
#     4  10  19  34  54  84 112 140 177 231 280 328
#     4  11  21  32  53  85 113 143 172 225 292 338
#     4  11  22  32  55  85 113 141 184 230 280 336
#     4   9  20  34  57  86 112 144 182 237 280 323
#     4  11  20  32  54  78 112 146 184 224 272 336
#     4  11  19  34  54  82 111 144 186 226 276 338
#     4   9  17  34  57  77 109 141 183 230 277 308
#
# _framework density 18.175995
#
# number of rings (size 3 to 8) (size 9 to 14) (size 15 to 20)
#    0.000    1.714    4.286    1.714    4.000    0.000 
#    0.000    0.714    6.286    0.000   11.143    0.000 
#    0.000    0.000    0.000    0.000    0.000    0.000 
#
# Total GULP energy -694063.375546 kJ/mol
# GULP energy per Si atom -12393.988849 kJ/mol
# Density = 1.813463 g / cm^3
# Si number density = 18.175995 Si / 1000 Ang^3
#
#
#
# Elastic Constant Matrix: (Units=GPa)
#
#
# Indices 1 2 3 4 5 6 
#
# 1 47.4979 26.4096 46.9131 0.0000 0.0000 0.0000
# 2 26.4096 47.4986 46.9133 0.0000 0.0000 0.0000
# 3 46.9131 46.9133 181.5618 0.0000 0.0000 0.0000
# 4 0.0000 0.0000 0.0000 31.4850 0.0000 0.0000
# 5 0.0000 0.0000 0.0000 0.0000 31.4851 0.0000
# 6 0.0000 0.0000 0.0000 0.0000 0.0000 22.5754
#
#
#
# Elastic Compliance Matrix: (Units=1/GPa)
#
#
# Indices 1 2 3 4 5 6 
#
# 1 0.033777 -0.013642 -0.005203 0.000000 0.000000 0.000000
# 2 -0.013642 0.033777 -0.005203 0.000000 0.000000 0.000000
# 3 -0.005203 -0.005203 0.008196 0.000000 0.000000 0.000000
# 4 0.000000 0.000000 0.000000 0.031761 0.000000 0.000000
# 5 0.000000 0.000000 0.000000 0.000000 0.031761 0.000000
# 6 0.000000 0.000000 0.000000 0.000000 0.000000 0.044296
#
#
# Mechanical properties :
#
#
# Convention : Reuss Voigt Hill
#
# Bulk Modulus (GPa) = 36.15841 57.44781 46.80311
# Shear Modulus (GPa) = 20.75707 27.53059 24.14383
#
# Velocity S-wave (km/s) = 3.38302 3.89609 3.64859
# Velocity P-wave (km/s) = 5.93266 7.20517 6.59966
#
# Compressibility (1/GPa) = 0.02765608
#
# Stress axis : x y z
#
# Youngs Moduli (GPa) = 29.60564 29.60616 122.00508
#
# Poissons Ratio (x) = 0.40388 0.63476
# Poissons Ratio (y) = 0.40388 0.63475
# Poissons Ratio (z) = 0.15403 0.15403
#
# Static dielectric constant tensor:
#      x y z
#    x 3.076070 0.000000 0.000000 
#    y 0.000000 3.076070 0.000000 
#    z 0.000000 0.000000 3.968810 
# 
# 
# High freq. dielectric constant tensor:
#      x y z
#    x 1.665610 0.000000 0.000000 
#    y 0.000000 1.665610 0.000000 
#    z 0.000000 0.000000 1.739250 
# 
# From -- ./inp_files/6377.got.cif
#   From: 2010.03.12/outbox.cif.g09.slc.cpg/sg91_4_cif.got.tgz:6377.got - 2010.04.08 20:27:58.
