data_PCOD8304291
_publ_section_title
;
Structure prediction by ZEFSAII (Michael W. Deem and Ramdas Pophale) SiO2 
 PCOD8304291
Probable space group: I 41/A
;
_chemical_formula_sum "Si O2"
_cell_formula_units_Z 96
_cell_length_a 21.917493
_cell_length_b 21.917493
_cell_length_c 8.830573
_cell_angle_alpha 90.000000
_cell_angle_beta 90.000000
_cell_angle_gamma 90.000000
_cell_volume 4241.999745
_symmetry_space_group_name_H-M "I 41/A"
_symmetry_group_IT_number 88
_space_group.IT_coordinate_system_code '2'
_symmetry_cell_setting 'tetragonal'
loop_
_space_group_symop_operation_xyz
x,y,z
3/4-y,1/4+x,1/4+z
-x,1/2-y,z
1/4+y,1/4-x,1/4+z
-x,-y,-z
1/4+y,3/4-x,3/4-z
x,1/2+y,-z
3/4-y,3/4+x,3/4-z
1/2+x,1/2+y,1/2+z
1/4-y,3/4+x,3/4+z
1/2-x,-y,1/2+z
3/4+y,3/4-x,3/4+z
1/2-x,1/2-y,1/2-z
3/4+y,1/4-x,1/4-z
1/2+x,y,1/2-z
1/4-y,1/4+x,1/4-z
loop_
_atom_site_type_symbol
_atom_site_label
_atom_site_fract_x
_atom_site_fract_y
_atom_site_fract_z
Si Si1 0.087778 0.507330 0.401714
Si Si2 0.054732 0.383976 0.544353
Si Si3 0.534563 0.159705 0.368972
Si Si4 0.923544 0.917215 0.120727
Si Si5 0.077486 0.630786 0.549614
Si Si6 0.709056 0.951340 0.770757
O O1 0.049320 0.453744 0.482784
O O2 0.053391 0.533906 0.248251
O O3 0.096966 0.561363 0.520630
O O4 0.155169 0.485752 0.359619
O O5 0.107982 0.349664 0.457404
O O6 0.072448 0.376592 0.722893
O O7 0.989038 0.353756 0.520752
O O8 0.467803 0.179330 0.310299
O O9 0.527337 0.106752 0.497162
O O10 0.575835 0.138414 0.229325
O O11 0.870483 0.946773 0.018873
O O12 0.714712 0.976568 0.601995
#
# Coordination Sequence:
#
# PCOD8304291 Si02
#       6
#    16  16  16  16  16  16
#     4   9  20  39  61  86 126 165 210 262 320 391
#     4  10  21  39  62  92 123 163 215 258 326 384
#     4  11  24  40  60  90 132 169 211 268 324 392
#     4   9  19  40  60  85 129 169 207 257 329 384
#     4  11  23  37  64  92 123 166 210 273 316 386
#     4   9  18  34  60  86 116 161 204 261 309 374
#
# _framework density 22.630837
#
# number of rings (size 3 to 8) (size 9 to 14) (size 15 to 20)
#    0.000    2.167    1.667    1.500    4.667    1.667 
#    0.000    5.833    0.000    0.000    0.000    0.000 
#    0.000    0.000    0.000    0.000    0.000    0.000 
#
# Total GULP energy -594877.114854 kJ/mol
# GULP energy per Si atom -12393.273226 kJ/mol
# Density = 2.257933 g / cm^3
# Si number density = 22.630837 Si / 1000 Ang^3
#
#
#
# Elastic Constant Matrix: (Units=GPa)
#
#
# Indices 1 2 3 4 5 6 
#
# 1 58.3980 23.5622 31.9774 0.0000 0.0000 9.4604
# 2 23.5622 58.3980 31.9774 0.0000 0.0000 -9.4604
# 3 31.9774 31.9774 114.0057 0.0000 0.0000 0.0000
# 4 0.0000 0.0000 0.0000 33.7464 0.0000 0.0000
# 5 0.0000 0.0000 0.0000 0.0000 33.7464 0.0000
# 6 9.4604 -9.4604 0.0000 0.0000 0.0000 21.3738
#
#
#
# Elastic Compliance Matrix: (Units=1/GPa)
#
#
# Indices 1 2 3 4 5 6 
#
# 1 0.026706 -0.011086 -0.004381 0.000000 0.000000 -0.016727
# 2 -0.011086 0.026706 -0.004381 0.000000 0.000000 0.016727
# 3 -0.004381 -0.004381 0.011229 0.000000 0.000000 0.000000
# 4 0.000000 0.000000 0.000000 0.029633 0.000000 0.000000
# 5 0.000000 0.000000 0.000000 0.000000 0.029633 0.000000
# 6 -0.016727 0.016727 0.000000 0.000000 0.000000 0.061594
#
#
# Mechanical properties :
#
#
# Convention : Reuss Voigt Hill
#
# Bulk Modulus (GPa) = 40.08976 45.09284 42.59130
# Shear Modulus (GPa) = 21.41230 27.32563 24.36897
#
# Velocity S-wave (km/s) = 3.07930 3.47861 3.28503
# Velocity P-wave (km/s) = 5.51325 6.00857 5.76623
#
# Compressibility (1/GPa) = 0.02494402
#
# Stress axis : x y z
#
# Youngs Moduli (GPa) = 37.44544 37.44544 89.05326
#
# Poissons Ratio (x) = 0.41511 0.39016
# Poissons Ratio (y) = 0.41511 0.39016
# Poissons Ratio (z) = 0.16405 0.16405
#
# Static dielectric constant tensor:
#      x y z
#    x 4.087670 0.000000 0.000000 
#    y 0.000000 4.087670 0.000000 
#    z 0.000000 0.000000 4.124990 
# 
# 
# High freq. dielectric constant tensor:
#      x y z
#    x 1.880190 0.000000 0.000000 
#    y 0.000000 1.880190 0.000000 
#    z 0.000000 0.000000 1.888270 
# 
# From -- ./inp_files/1715.got.cif
#   From: 2010.03.12/outbox.cif.g09.slc.cpg/sg88_1_cif.got.tgz:1715.got - 2010.04.08 20:20:55.
