data_PCOD8304996
_publ_section_title
;
Structure prediction by ZEFSAII (Michael W. Deem and Ramdas Pophale) SiO2 
 PCOD8304996
Probable space group: P 41 2 2
;
_chemical_formula_sum "Si O2"
_cell_formula_units_Z 48
_cell_length_a 8.878865
_cell_length_b 8.878865
_cell_length_c 29.090747
_cell_angle_alpha 90.000000
_cell_angle_beta 90.000000
_cell_angle_gamma 90.000000
_cell_volume 2293.347038
_symmetry_space_group_name_H-M "P 41 2 2"
_symmetry_group_IT_number 91
_symmetry_cell_setting 'tetragonal'
loop_
_space_group_symop_operation_xyz
x,y,z
-y,x,1/4+z
-x,-y,1/2+z
y,-x,3/4+z
x,-y,1/2-z
-x,y,-z
y,x,3/4-z
-y,-x,1/4-z
loop_
_atom_site_type_symbol
_atom_site_label
_atom_site_fract_x
_atom_site_fract_y
_atom_site_fract_z
Si Si1 0.000000 0.434938 0.000000
Si Si2 0.500000 0.965522 0.500000
Si Si3 0.066835 0.086268 0.323858
Si Si4 0.910123 0.343135 0.422933
Si Si5 0.119080 0.407287 0.339082
Si Si6 0.763256 0.219131 0.963895
Si Si7 0.385201 0.629351 0.874502
O O1 0.976080 0.529032 0.045419
O O2 0.151308 0.340801 0.006183
O O3 0.353281 0.860978 0.497893
O O4 0.490012 0.067152 0.546069
O O5 0.031434 0.031434 0.375000
O O6 0.166499 0.241091 0.320998
O O7 0.904876 0.109751 0.300296
O O8 0.179801 0.955922 0.304647
O O9 0.730536 0.359124 0.417234
O O10 0.977931 0.369547 0.372039
O O11 0.251754 0.482839 0.366958
O O12 0.671884 0.299505 0.922525
O O13 0.463167 0.463167 0.875000
#
# Coordination Sequence:
#
# PCOD8304996 Si02
#       7
#     4   4   8   8   8   8   8
#     4  12  28  40  62 100 140 168 222 280 346 396
#     4  10  22  44  68  94 132 176 232 272 340 402
#     4   9  18  41  69  87 122 174 226 270 319 390
#     4  11  23  42  65  98 129 172 222 277 328 399
#     4  10  21  41  69  92 127 175 222 276 324 399
#     4  11  24  44  66  98 134 176 222 287 334 399
#     4  12  24  42  68  98 134 177 218 273 348 397
#
# _framework density 20.930108000000001
#
# number of rings (size 3 to 8) (size 9 to 14) (size 15 to 20)
#    0.000    1.333    6.667    1.500    2.333    4.667 
#    0.000    0.833    0.000    0.000    0.000    0.000 
#    0.000    0.000    0.000    0.000    0.000    0.000 
#
# Total GULP energy -594838.942221 kJ/mol
# GULP energy per Si atom -12392.477963 kJ/mol
# Density = 2.088247 g / cm^3
# Si number density = 20.930108 Si / 1000 Ang^3
#
#
#
# Elastic Constant Matrix: (Units=GPa)
#
#
# Indices 1 2 3 4 5 6 
#
# 1 97.4453 45.6844 18.2599 0.0000 0.0000 0.0000
# 2 45.6844 97.4453 18.2599 0.0000 0.0000 0.0000
# 3 18.2599 18.2599 59.6649 0.0000 0.0000 0.0000
# 4 0.0000 0.0000 0.0000 18.7605 0.0000 0.0000
# 5 0.0000 0.0000 0.0000 0.0000 18.7605 0.0000
# 6 0.0000 0.0000 0.0000 0.0000 0.0000 21.3132
#
#
#
# Elastic Compliance Matrix: (Units=1/GPa)
#
#
# Indices 1 2 3 4 5 6 
#
# 1 0.013449 -0.005871 -0.002319 0.000000 0.000000 0.000000
# 2 -0.005871 0.013449 -0.002319 0.000000 0.000000 0.000000
# 3 -0.002319 -0.002319 0.018180 0.000000 0.000000 0.000000
# 4 0.000000 0.000000 0.000000 0.053303 0.000000 0.000000
# 5 0.000000 0.000000 0.000000 0.000000 0.053303 0.000000
# 6 0.000000 0.000000 0.000000 0.000000 0.000000 0.046919
#
#
# Mechanical properties :
#
#
# Convention : Reuss Voigt Hill
#
# Bulk Modulus (GPa) = 41.56357 46.55153 44.05755
# Shear Modulus (GPa) = 21.96426 23.25691 22.61059
#
# Velocity S-wave (km/s) = 3.24297 3.33704 3.29034
# Velocity P-wave (km/s) = 5.82442 6.09405 5.96076
#
# Compressibility (1/GPa) = 0.02405953
#
# Stress axis : x y z
#
# Youngs Moduli (GPa) = 74.35481 74.35481 55.00581
#
# Poissons Ratio (x) = 0.43651 0.12758
# Poissons Ratio (y) = 0.43651 0.12758
# Poissons Ratio (z) = 0.17245 0.17245
#
# Static dielectric constant tensor:
#      x y z
#    x 3.891650 0.000000 0.000000 
#    y 0.000000 3.891650 0.000000 
#    z 0.000000 0.000000 3.607770 
# 
# 
# High freq. dielectric constant tensor:
#      x y z
#    x 1.821250 0.000000 0.000000 
#    y 0.000000 1.821250 0.000000 
#    z 0.000000 0.000000 1.808440 
# 
# From -- ./inp_files/22287.got.cif
#   From: 2010.03.12/outbox.cif.g09.slc.cpg/sg91_12_cif.got.tgz:22287.got - 2010.04.08 20:27:58.
