data_PCOD8304520
_publ_section_title
;
Structure prediction by ZEFSAII (Michael W. Deem and Ramdas Pophale) SiO2 
 PCOD8304520
Probable space group: P 4 2 2
;
_chemical_formula_sum "Si O2"
_cell_formula_units_Z 22
_cell_length_a 8.226145
_cell_length_b 8.226145
_cell_length_c 14.289554
_cell_angle_alpha 90.000000
_cell_angle_beta 90.000000
_cell_angle_gamma 90.000000
_cell_volume 966.966425
_symmetry_space_group_name_H-M "P 4 2 2"
_symmetry_group_IT_number 89
_symmetry_cell_setting 'tetragonal'
loop_
_space_group_symop_operation_xyz
x,y,z
-y,x,z
-x,-y,z
y,-x,z
x,-y,-z
-x,y,-z
y,x,-z
-y,-x,-z
loop_
_atom_site_type_symbol
_atom_site_label
_atom_site_fract_x
_atom_site_fract_y
_atom_site_fract_z
Si Si1 0.000000 0.500000 0.500000
Si Si2 0.281311 0.350331 0.192163
Si Si3 0.809419 0.190582 0.000000
Si Si4 0.244984 0.097548 0.633524
O O1 0.126570 0.603044 0.564846
O O2 0.458310 0.277963 0.213142
O O3 0.250825 0.295890 0.086791
O O4 0.137634 0.282762 0.258201
O O5 0.000000 0.226208 0.000000
O O6 0.090446 0.207454 0.611003
#
# Coordination Sequence:
#
# PCOD8304520 Si02
#       4
#     2   8   4   8
#     4  12  24  42  68  98 134 178 232 294 352 410
#     4  11  24  42  65  97 136 177 225 286 354 423
#     4  11  24  41  64  96 132 175 228 283 348 426
#     4  11  24  43  68  98 133 178 232 286 349 426
#
# _framework density 22.751567000000001
#
# number of rings (size 3 to 8) (size 9 to 14) (size 15 to 20)
#    0.000    0.909    0.000    6.545    0.000   11.636 
#    0.000    0.000    0.000    2.182    0.000    0.000 
#    0.000    0.000    0.000    0.000    0.000    0.000 
#
# Total GULP energy -272624.085155 kJ/mol
# GULP energy per Si atom -12392.003871 kJ/mol
# Density = 2.269978 g / cm^3
# Si number density = 22.751567 Si / 1000 Ang^3
#
#
#
# Elastic Constant Matrix: (Units=GPa)
#
#
# Indices 1 2 3 4 5 6 
#
# 1 79.3556 88.1121 53.7645 0.0000 0.0000 0.0000
# 2 88.1121 79.3561 53.7649 0.0000 0.0000 0.0000
# 3 53.7645 53.7649 160.8857 0.0000 0.0000 0.0000
# 4 0.0000 0.0000 0.0000 52.6803 0.0000 0.0000
# 5 0.0000 0.0000 0.0000 0.0000 52.6806 0.0000
# 6 0.0000 0.0000 0.0000 0.0000 0.0000 34.1399
#
#
#
# Elastic Compliance Matrix: (Units=1/GPa)
#
#
# Indices 1 2 3 4 5 6 
#
# 1 -0.053301 0.060903 -0.002541 0.000000 0.000000 0.000000
# 2 0.060903 -0.053301 -0.002541 0.000000 0.000000 0.000000
# 3 -0.002541 -0.002541 0.007914 0.000000 0.000000 0.000000
# 4 0.000000 0.000000 0.000000 0.018982 0.000000 0.000000
# 5 0.000000 0.000000 0.000000 0.000000 0.018982 0.000000
# 6 0.000000 0.000000 0.000000 0.000000 0.000000 0.029291
#
#
# Mechanical properties :
#
#
# Convention : Reuss Voigt Hill
#
# Bulk Modulus (GPa) = 77.18240 78.98671 78.08455
# Shear Modulus (GPa) = -36.03406 36.16389 0.06492
#
# Velocity S-wave (km/s) = -3.98402 3.99119 0.16910
# Velocity P-wave (km/s) = 3.58251 7.48545 5.86798
#
# Compressibility (1/GPa) = 0.01295632
#
# Stress axis : x y z
#
# Youngs Moduli (GPa) = -18.76138 -18.76149 126.36389
#
# Poissons Ratio (x) = 1.14264 0.32105
# Poissons Ratio (y) = 1.14263 0.32104
# Poissons Ratio (z) = -0.04767 -0.04766
#
# Static dielectric constant tensor:
#      x y z
#    x 2.438390 0.000000 0.000000 
#    y 0.000000 2.435430 0.000000 
#    z 0.000000 0.000000 4.097150 
# 
# 
# High freq. dielectric constant tensor:
#      x y z
#    x 1.902680 0.000000 0.000000 
#    y 0.000000 1.902680 0.000000 
#    z 0.000000 0.000000 1.911750 
# 
# From -- ./inp_files/2014.got.cif
#   From: 2010.03.12/outbox.cif.g09.slc.cpg/sg89_2_cif.got.tgz:2014.got - 2010.04.08 20:24:03.
