data_PCOD8304165
_publ_section_title
;
Structure prediction by ZEFSAII (Michael W. Deem and Ramdas Pophale) SiO2 
 PCOD8304165
Probable space group: I 4/M
;
_chemical_formula_sum "Si O2"
_cell_formula_units_Z 72
_cell_length_a 10.564533
_cell_length_b 10.564533
_cell_length_c 29.523006
_cell_angle_alpha 90.000000
_cell_angle_beta 90.000000
_cell_angle_gamma 90.000000
_cell_volume 3295.043731
_symmetry_space_group_name_H-M "I 4/M"
_symmetry_group_IT_number 87
_symmetry_cell_setting 'tetragonal'
loop_
_space_group_symop_operation_xyz
x,y,z
-y,x,z
-x,-y,z
y,-x,z
-x,-y,-z
y,-x,-z
x,y,-z
-y,x,-z
1/2+x,1/2+y,1/2+z
1/2-y,1/2+x,1/2+z
1/2-x,1/2-y,1/2+z
1/2+y,1/2-x,1/2+z
1/2-x,1/2-y,1/2-z
1/2+y,1/2-x,1/2-z
1/2+x,1/2+y,1/2-z
1/2-y,1/2+x,1/2-z
loop_
_atom_site_type_symbol
_atom_site_label
_atom_site_fract_x
_atom_site_fract_y
_atom_site_fract_z
Si Si1 0.704315 0.459078 0.241674
Si Si2 0.937309 0.199454 0.000000
Si Si3 0.290736 0.527214 0.660840
Si Si4 0.796514 0.052792 0.355966
Si Si5 0.065006 0.625369 0.084717
O O1 0.645519 0.596918 0.242447
O O2 0.779059 0.451913 0.289790
O O3 0.775091 0.436483 0.193635
O O4 0.907405 0.278566 0.044570
O O5 0.082034 0.157116 0.000000
O O6 0.360590 0.391962 0.655007
O O7 0.184826 0.531214 0.622004
O O8 0.698826 0.087042 0.394531
O O9 0.910952 0.151728 0.360749
O O10 0.000000 0.500000 0.064786
#
# Coordination Sequence:
#
# PCOD8304165 Si02
#       5
#    16   8  16  16  16
#     4   7  12  30  57  84 120 173 226 258 297 362
#     4  11  27  52  80  97 118 160 208 271 343 396
#     4   9  18  36  63  91 125 173 224 272 318 365
#     4   9  20  40  63  89 131 184 219 248 310 390
#     4  12  26  41  64 101 132 160 207 274 329 375
#
# _framework density 21.850999000000002
#
# number of rings (size 3 to 8) (size 9 to 14) (size 15 to 20)
#    0.000    2.556    0.000    4.333    6.222    1.778 
#    4.000    3.333    0.000    1.333    0.000    0.000 
#    0.000    0.000    0.000    0.000    0.000    0.000 
#
# Total GULP energy -445986.656728 kJ/mol
# GULP energy per Si atom -12388.518242 kJ/mol
# Density = 2.180126 g / cm^3
# Si number density = 21.850999 Si / 1000 Ang^3
#
#
#
# Elastic Constant Matrix: (Units=GPa)
#
#
# Indices 1 2 3 4 5 6 
#
# 1 65.7244 15.8621 41.2370 0.0000 0.0000 -6.1960
# 2 15.8621 65.7245 41.2370 0.0000 0.0000 6.1960
# 3 41.2370 41.2370 155.5115 0.0000 0.0000 0.0000
# 4 0.0000 0.0000 0.0000 -32.8787 0.0001 0.0000
# 5 0.0000 0.0000 0.0000 0.0001 -32.8786 0.0000
# 6 -6.1960 6.1960 0.0000 0.0000 0.0000 11.4285
#
#
#
# Elastic Compliance Matrix: (Units=1/GPa)
#
#
# Indices 1 2 3 4 5 6 
#
# 1 0.019962 -0.003216 -0.004440 0.000000 0.000000 0.012566
# 2 -0.003216 0.019962 -0.004440 0.000000 0.000000 -0.012566
# 3 -0.004440 -0.004440 0.008785 0.000000 0.000000 0.000000
# 4 0.000000 0.000000 0.000000 -0.030415 0.000000 0.000000
# 5 0.000000 0.000000 0.000000 0.000000 -0.030415 0.000000
# 6 0.012566 -0.012566 0.000000 0.000000 0.000000 0.101126
#
#
# Mechanical properties :
#
#
# Convention : Reuss Voigt Hill
#
# Bulk Modulus (GPa) = 40.79155 53.73696 47.26425
# Shear Modulus (GPa) = 41.19576 1.70919 21.45248
#
# Velocity S-wave (km/s) = 4.34672 0.88538 3.13671
# Velocity P-wave (km/s) = 6.62575 5.06863 5.89879
#
# Compressibility (1/GPa) = 0.02451488
#
# Stress axis : x y z
#
# Youngs Moduli (GPa) = 50.09537 50.09539 113.82600
#
# Poissons Ratio (x) = 0.16112 0.50544
# Poissons Ratio (y) = 0.16112 0.50544
# Poissons Ratio (z) = 0.22245 0.22245
#
# Static dielectric constant tensor:
#      x y z
#    x 3.742440 0.000000 0.000000 
#    y 0.000000 3.742440 0.000000 
#    z 0.000000 0.000000 4.165990 
# 
# 
# High freq. dielectric constant tensor:
#      x y z
#    x 1.843750 0.000000 0.000000 
#    y 0.000000 1.843750 0.000000 
#    z 0.000000 0.000000 1.860890 
# 
# From -- ./inp_files/6164.got.cif
#   From: 2010.03.12/outbox.cif.g09.slc.cpg/sg87_4_cif.got.tgz:6164.got - 2010.04.08 20:16:13.
