data_PCOD8304065
_publ_section_title
;
Structure prediction by ZEFSAII (Michael W. Deem and Ramdas Pophale) SiO2 
 PCOD8304065
Probable space group: I 4/M
;
_chemical_formula_sum "Si O2"
_cell_formula_units_Z 72
_cell_length_a 17.282060
_cell_length_b 17.282060
_cell_length_c 12.141894
_cell_angle_alpha 90.000000
_cell_angle_beta 90.000000
_cell_angle_gamma 90.000000
_cell_volume 3626.414598
_symmetry_space_group_name_H-M "I 4/M"
_symmetry_group_IT_number 87
_symmetry_cell_setting 'tetragonal'
loop_
_space_group_symop_operation_xyz
x,y,z
-y,x,z
-x,-y,z
y,-x,z
-x,-y,-z
y,-x,-z
x,y,-z
-y,x,-z
1/2+x,1/2+y,1/2+z
1/2-y,1/2+x,1/2+z
1/2-x,1/2-y,1/2+z
1/2+y,1/2-x,1/2+z
1/2-x,1/2-y,1/2-z
1/2+y,1/2-x,1/2-z
1/2+x,1/2+y,1/2-z
1/2-y,1/2+x,1/2-z
loop_
_atom_site_type_symbol
_atom_site_label
_atom_site_fract_x
_atom_site_fract_y
_atom_site_fract_z
Si Si1 0.795227 0.811610 0.500000
Si Si2 0.717231 0.519540 0.000000
Si Si3 0.609255 0.056189 0.224598
Si Si4 0.889487 0.062908 0.126759
Si Si5 0.116187 0.640176 0.500000
Si Si6 0.727004 0.404179 0.184498
O O1 0.828810 0.899761 0.500000
O O2 0.701498 0.811854 0.500000
O O3 0.824899 0.772667 0.613126
O O4 0.693326 0.472623 0.108594
O O5 0.810372 0.536401 0.000000
O O6 0.536033 0.098226 0.279880
O O7 0.684071 0.079438 0.292372
O O8 0.620829 0.083428 0.101379
O O9 0.824852 0.101130 0.205523
O O10 0.971331 0.104110 0.149763
O O11 0.864501 0.076789 0.000000
#
# Coordination Sequence:
#
# PCOD8304065 Si02
#       6
#     8   8  16  16   8  16
#     4   9  21  37  60  88 122 157 188 253 303 361
#     4   9  19  39  57  88 117 150 188 258 288 367
#     4  11  24  40  64  87 115 162 207 256 303 361
#     4   9  19  35  57  88 126 165 206 249 301 366
#     4  10  22  43  58  86 124 144 200 253 299 360
#     4  11  20  36  64  88 121 161 205 245 312 354
#
# _framework density 19.854320000000001
#
# number of rings (size 3 to 8) (size 9 to 14) (size 15 to 20)
#    0.667    1.333    2.222    2.000    1.556    4.444 
#    0.000    0.000    0.000    5.333    0.000    0.000 
#    0.000    0.000    0.000    0.000    0.000    0.000 
#
# Total GULP energy -446259.405877 kJ/mol
# GULP energy per Si atom -12396.094608 kJ/mol
# Density = 1.980913 g / cm^3
# Si number density = 19.854320 Si / 1000 Ang^3
#
#
#
# Elastic Constant Matrix: (Units=GPa)
#
#
# Indices 1 2 3 4 5 6 
#
# 1 50.9802 75.9471 55.6801 0.0000 0.0000 5.6300
# 2 75.9471 50.9802 55.6801 0.0000 0.0000 -5.6300
# 3 55.6801 55.6801 137.8458 0.0000 0.0000 0.0000
# 4 0.0000 0.0000 0.0000 -0.7921 0.0000 0.0000
# 5 0.0000 0.0000 0.0000 0.0000 -0.7921 0.0000
# 6 5.6300 -5.6300 0.0000 0.0000 0.0000 20.7176
#
#
#
# Elastic Compliance Matrix: (Units=1/GPa)
#
#
# Indices 1 2 3 4 5 6 
#
# 1 -0.011738 0.023942 -0.004929 0.000000 0.000000 0.009696
# 2 0.023942 -0.011738 -0.004929 0.000000 0.000000 -0.009696
# 3 -0.004929 -0.004929 0.011237 0.000000 0.000000 0.000000
# 4 0.000000 0.000000 0.000000 -1.262459 0.000000 0.000000
# 5 0.000000 0.000000 0.000000 0.000000 -1.262459 0.000000
# 6 0.009696 -0.009696 0.000000 0.000000 0.000000 0.042998
#
#
# Mechanical properties :
#
#
# Convention : Reuss Voigt Hill
#
# Bulk Modulus (GPa) = 62.79012 68.26898 65.52955
# Shear Modulus (GPa) = -1.98648 7.32659 2.67006
#
# Velocity S-wave (km/s) = -1.00135 1.92307 1.16092
# Velocity P-wave (km/s) = 5.50973 6.27619 5.90541
#
# Compressibility (1/GPa) = 0.01592607
#
# Stress axis : x y z
#
# Youngs Moduli (GPa) = -85.19048 -85.19048 88.99453
#
# Poissons Ratio (x) = 2.03960 0.43868
# Poissons Ratio (y) = 2.03960 0.43868
# Poissons Ratio (z) = -0.41993 -0.41993
#
# Static dielectric constant tensor:
#      x y z
#    x 3.466960 0.000000 0.000000 
#    y 0.000000 3.466960 0.000000 
#    z 0.000000 0.000000 3.817360 
# 
# 
# High freq. dielectric constant tensor:
#      x y z
#    x 1.763300 0.000000 0.000000 
#    y 0.000000 1.763300 0.000000 
#    z 0.000000 0.000000 1.784480 
# 
# From -- ./inp_files/2512.got.cif
#   From: 2010.03.12/outbox.cif.g09.slc.cpg/sg87_2_cif.got.tgz:2512.got - 2010.04.08 20:16:13.
