data_PCOD8304505
_publ_section_title
;
Structure prediction by ZEFSAII (Michael W. Deem and Ramdas Pophale) SiO2 
 PCOD8304505
Probable space group: P 4 2 2
;
_chemical_formula_sum "Si O2"
_cell_formula_units_Z 48
_cell_length_a 9.300705
_cell_length_b 9.300705
_cell_length_c 30.170562
_cell_angle_alpha 90.000000
_cell_angle_beta 90.000000
_cell_angle_gamma 90.000000
_cell_volume 2609.847549
_symmetry_space_group_name_H-M "P 4 2 2"
_symmetry_group_IT_number 89
_symmetry_cell_setting 'tetragonal'
loop_
_space_group_symop_operation_xyz
x,y,z
-y,x,z
-x,-y,z
y,-x,z
x,-y,-z
-x,y,-z
y,x,-z
-y,-x,-z
loop_
_atom_site_type_symbol
_atom_site_label
_atom_site_fract_x
_atom_site_fract_y
_atom_site_fract_z
Si Si1 0.715483 0.413644 0.270061
Si Si2 0.767697 0.982233 0.948929
Si Si3 0.000000 0.500000 0.110705
Si Si4 0.204077 0.112453 0.326523
Si Si5 0.272463 0.550645 0.167561
Si Si6 0.667565 0.667565 0.500000
Si Si7 0.144946 0.818067 0.428833
O O1 0.683567 0.577726 0.282285
O O2 0.841649 0.343544 0.298632
O O3 0.760816 0.418431 0.218843
O O4 0.870109 0.848505 0.937454
O O5 0.628168 0.947878 0.920332
O O6 0.722996 0.000000 0.000000
O O7 0.126220 0.567794 0.140499
O O8 0.228194 0.152100 0.377695
O O9 0.055398 0.191084 0.314405
O O10 0.331743 0.392597 0.155426
O O11 0.500000 0.700691 0.500000
O O12 0.716932 0.750294 0.456156
O O13 0.977950 0.802416 0.441083
#
# Coordination Sequence:
#
# PCOD8304505 Si02
#       7
#     8   8   4   8   8   4   8
#     4   9  19  35  52  71 100 138 174 207 252 310
#     4   9  19  35  52  74 107 140 171 215 269 321
#     4  12  19  30  56  82  98 132 184 222 255 314
#     4   9  19  35  55  80 106 130 166 217 264 307
#     4   9  20  36  50  71 105 138 169 212 264 311
#     4  11  24  37  50  76 112 141 170 213 258 304
#     4   9  19  37  58  78 102 135 172 211 259 313
#
# _framework density 18.391878999999999
#
# number of rings (size 3 to 8) (size 9 to 14) (size 15 to 20)
#    0.000    2.583    0.000    4.250    0.000    6.667 
#    0.000    5.000    0.000    2.000    0.000    7.000 
#    0.000    0.000    0.000    0.000    0.000    0.000 
#
# Total GULP energy -594801.123361 kJ/mol
# GULP energy per Si atom -12391.690070 kJ/mol
# Density = 1.835002 g / cm^3
# Si number density = 18.391879 Si / 1000 Ang^3
#
#
#
# Elastic Constant Matrix: (Units=GPa)
#
#
# Indices 1 2 3 4 5 6 
#
# 1 83.3632 45.7780 50.7243 0.0000 0.0000 0.0000
# 2 45.7780 83.3632 50.7243 0.0000 0.0000 0.0000
# 3 50.7243 50.7243 72.9887 0.0000 0.0000 0.0000
# 4 0.0000 0.0000 0.0000 34.3422 0.0000 0.0000
# 5 0.0000 0.0000 0.0000 0.0000 34.3422 0.0000
# 6 0.0000 0.0000 0.0000 0.0000 0.0000 30.7243
#
#
#
# Elastic Compliance Matrix: (Units=1/GPa)
#
#
# Indices 1 2 3 4 5 6 
#
# 1 0.021830 -0.004776 -0.011852 0.000000 0.000000 0.000000
# 2 -0.004776 0.021830 -0.011852 0.000000 0.000000 0.000000
# 3 -0.011852 -0.011852 0.030174 0.000000 0.000000 0.000000
# 4 0.000000 0.000000 0.000000 0.029119 0.000000 0.000000
# 5 0.000000 0.000000 0.000000 0.000000 0.029119 0.000000
# 6 0.000000 0.000000 0.000000 0.000000 0.000000 0.032548
#
#
# Mechanical properties :
#
#
# Convention : Reuss Voigt Hill
#
# Bulk Modulus (GPa) = 59.26134 59.35201 59.30668
# Shear Modulus (GPa) = 22.00681 26.04762 24.02721
#
# Velocity S-wave (km/s) = 3.46287 3.76740 3.61834
# Velocity P-wave (km/s) = 6.94839 7.15998 7.05497
#
# Compressibility (1/GPa) = 0.01687441
#
# Stress axis : x y z
#
# Youngs Moduli (GPa) = 45.80860 45.80860 33.14155
#
# Poissons Ratio (x) = 0.21880 0.39278
# Poissons Ratio (y) = 0.21880 0.39278
# Poissons Ratio (z) = 0.54291 0.54291
#
# Static dielectric constant tensor:
#      x y z
#    x 3.270880 0.000000 0.000000 
#    y 0.000000 3.270880 0.000000 
#    z 0.000000 0.000000 3.251900 
# 
# 
# High freq. dielectric constant tensor:
#      x y z
#    x 1.711940 0.000000 0.000000 
#    y 0.000000 1.711940 0.000000 
#    z 0.000000 0.000000 1.710820 
# 
# From -- ./inp_files/3019.got.cif
#   From: 2010.03.12/outbox.cif.g09.slc.cpg/sg89_2_cif.got.tgz:3019.got - 2010.04.08 20:24:03.
