data_PCOD8304238
_publ_section_title
;
Structure prediction by ZEFSAII (Michael W. Deem and Ramdas Pophale) SiO2 
 PCOD8304238
Probable space group: I 41/A
;
_chemical_formula_sum "Si O2"
_cell_formula_units_Z 108
_cell_length_a 15.425372
_cell_length_b 15.425372
_cell_length_c 24.200091
_cell_angle_alpha 90.000000
_cell_angle_beta 90.000000
_cell_angle_gamma 90.000000
_cell_volume 5758.220505
_symmetry_space_group_name_H-M "I 41/A"
_symmetry_group_IT_number 88
_space_group.IT_coordinate_system_code '2'
_symmetry_cell_setting 'tetragonal'
loop_
_space_group_symop_operation_xyz
x,y,z
3/4-y,1/4+x,1/4+z
-x,1/2-y,z
1/4+y,1/4-x,1/4+z
-x,-y,-z
1/4+y,3/4-x,3/4-z
x,1/2+y,-z
3/4-y,3/4+x,3/4-z
1/2+x,1/2+y,1/2+z
1/4-y,3/4+x,3/4+z
1/2-x,-y,1/2+z
3/4+y,3/4-x,3/4+z
1/2-x,1/2-y,1/2-z
3/4+y,1/4-x,1/4-z
1/2+x,y,1/2-z
1/4-y,1/4+x,1/4-z
loop_
_atom_site_type_symbol
_atom_site_label
_atom_site_fract_x
_atom_site_fract_y
_atom_site_fract_z
Si Si1 0.865622 0.726360 0.285510
Si Si2 0.752868 0.883682 0.278263
Si Si3 0.000000 0.750000 0.375000
Si Si4 0.915016 0.473754 0.965019
Si Si5 0.000000 0.750000 0.553140
Si Si6 0.001578 0.061613 0.852111
Si Si7 0.224753 0.928093 0.900337
Si Si8 0.770243 0.396999 0.037304
O O1 0.790634 0.793863 0.302032
O O2 0.824777 0.635819 0.265152
O O3 0.917702 0.770069 0.235121
O O4 0.925559 0.706320 0.338033
O O5 0.719468 0.935513 0.330606
O O6 0.824692 0.938333 0.247605
O O7 0.945408 0.428114 0.908905
O O8 0.852251 0.554924 0.946166
O O9 0.858273 0.404964 0.000804
O O10 0.000000 0.500000 0.000000
O O11 0.911774 0.769269 0.587200
O O12 0.050363 0.006030 0.804850
O O13 0.921530 0.996760 0.860585
O O14 0.203921 0.970989 0.842124
#
# Coordination Sequence:
#
# PCOD8304238 Si02
#       8
#    16  16   4  16   8  16  16  16
#     4  10  21  37  56  83 119 151 192 236 285 348
#     4  10  20  36  58  85 113 154 196 233 288 355
#     4  10  24  36  52  84 116 152 180 238 292 334
#     4  10  21  41  62  87 119 150 205 259 296 364
#     4  11  20  39  60  84 122 161 182 249 288 360
#     4  11  21  40  61  89 122 155 200 241 312 360
#     4  10  21  36  64  84 112 161 194 242 305 359
#     4  10  21  38  61  86 116 155 195 248 300 356
#
# _framework density 18.755794999999999
#
# number of rings (size 3 to 8) (size 9 to 14) (size 15 to 20)
#    0.000    1.778    4.444    0.000    2.074    0.000 
#    2.667    0.000    0.000    0.000    0.000    0.000 
#    0.000    0.000    0.000    0.000    0.000    0.000 
#
# Total GULP energy -669142.254566 kJ/mol
# GULP energy per Si atom -12391.523233 kJ/mol
# Density = 1.871311 g / cm^3
# Si number density = 18.755795 Si / 1000 Ang^3
#
#
#
# Elastic Constant Matrix: (Units=GPa)
#
#
# Indices 1 2 3 4 5 6 
#
# 1 73.6474 13.7901 19.1093 0.0000 0.0000 0.5616
# 2 13.7901 73.6474 19.1093 0.0000 0.0000 -0.5616
# 3 19.1093 19.1093 78.2613 0.0000 0.0000 0.0000
# 4 0.0000 0.0000 0.0000 22.6050 0.0000 0.0000
# 5 0.0000 0.0000 0.0000 0.0000 22.6050 0.0000
# 6 0.5616 -0.5616 0.0000 0.0000 0.0000 21.7156
#
#
#
# Elastic Compliance Matrix: (Units=1/GPa)
#
#
# Indices 1 2 3 4 5 6 
#
# 1 0.014759 -0.001956 -0.003126 0.000000 0.000000 -0.000432
# 2 -0.001956 0.014759 -0.003126 0.000000 0.000000 0.000432
# 3 -0.003126 -0.003126 0.014304 0.000000 0.000000 0.000000
# 4 0.000000 0.000000 0.000000 0.044238 0.000000 0.000000
# 5 0.000000 0.000000 0.000000 0.000000 0.044238 0.000000
# 6 -0.000432 0.000432 0.000000 0.000000 0.000000 0.046072
#
#
# Mechanical properties :
#
#
# Convention : Reuss Voigt Hill
#
# Bulk Modulus (GPa) = 36.48841 36.61929 36.55385
# Shear Modulus (GPa) = 24.51924 24.95496 24.73710
#
# Velocity S-wave (km/s) = 3.61957 3.65159 3.63561
# Velocity P-wave (km/s) = 6.07989 6.11109 6.09551
#
# Compressibility (1/GPa) = 0.02740596
#
# Stress axis : x y z
#
# Youngs Moduli (GPa) = 67.75595 67.75595 69.90871
#
# Poissons Ratio (x) = 0.13251 0.21855
# Poissons Ratio (y) = 0.13251 0.21855
# Poissons Ratio (z) = 0.21182 0.21182
#
# Static dielectric constant tensor:
#      x y z
#    x 3.475120 0.000000 0.000000 
#    y 0.000000 3.475120 0.000000 
#    z 0.000000 0.000000 3.507180 
# 
# 
# High freq. dielectric constant tensor:
#      x y z
#    x 1.726070 0.000000 0.000000 
#    y 0.000000 1.726070 0.000000 
#    z 0.000000 0.000000 1.730910 
# 
# From -- ./inp_files/5384.got.cif
#   From: 2010.03.12/outbox.cif.g09.slc.cpg/sg88_3_cif.got.tgz:5384.got - 2010.04.08 20:20:55.
