data_PCOD8304388
_publ_section_title
;
Structure prediction by ZEFSAII (Michael W. Deem and Ramdas Pophale) SiO2 
 PCOD8304388
Probable space group: I 41/A
;
_chemical_formula_sum "Si O2"
_cell_formula_units_Z 36
_cell_length_a 7.561451
_cell_length_b 7.561451
_cell_length_c 29.538074
_cell_angle_alpha 90.000000
_cell_angle_beta 90.000000
_cell_angle_gamma 90.000000
_cell_volume 1688.855368
_symmetry_space_group_name_H-M "I 41/A"
_symmetry_group_IT_number 88
_space_group.IT_coordinate_system_code '2'
_symmetry_cell_setting 'tetragonal'
loop_
_space_group_symop_operation_xyz
x,y,z
3/4-y,1/4+x,1/4+z
-x,1/2-y,z
1/4+y,1/4-x,1/4+z
-x,-y,-z
1/4+y,3/4-x,3/4-z
x,1/2+y,-z
3/4-y,3/4+x,3/4-z
1/2+x,1/2+y,1/2+z
1/4-y,3/4+x,3/4+z
1/2-x,-y,1/2+z
3/4+y,3/4-x,3/4+z
1/2-x,1/2-y,1/2-z
3/4+y,1/4-x,1/4-z
1/2+x,y,1/2-z
1/4-y,1/4+x,1/4-z
loop_
_atom_site_type_symbol
_atom_site_label
_atom_site_fract_x
_atom_site_fract_y
_atom_site_fract_z
Si Si1 0.635778 0.618711 0.473054
Si Si2 0.500000 0.750000 0.625000
Si Si3 0.799451 0.288141 0.441433
O O1 0.500000 0.750000 0.445983
O O2 0.500000 0.500000 0.500000
O O3 0.756657 0.499753 0.439927
O O4 0.766474 0.719161 0.507687
O O5 0.444769 0.582931 0.656022
O O6 0.000000 0.250000 0.426906
#
# Coordination Sequence:
#
# PCOD8304388 Si02
#       3
#    16   4  16
#     4   9  17  37  65  88 113 156 215 267 310 375
#     4  12  24  40  56  92 144 168 204 272 348 380
#     4  11  22  39  64  91 123 171 218 266 324 390
#
# _framework density 21.316213000000001
#
# number of rings (size 3 to 8) (size 9 to 14) (size 15 to 20)
#    0.000    1.778    6.667    1.333    0.000    1.778 
#    0.000    0.000    0.000    0.000    0.000    0.000 
#    0.000    0.000    0.000    0.000    0.000    0.000 
#
# Total GULP energy -222993.313990 kJ/mol
# GULP energy per Si atom -12388.517444 kJ/mol
# Density = 2.126770 g / cm^3
# Si number density = 21.316213 Si / 1000 Ang^3
#
#
#
# Elastic Constant Matrix: (Units=GPa)
#
#
# Indices 1 2 3 4 5 6 
#
# 1 145.1556 43.0562 19.3651 0.0000 0.0000 0.9878
# 2 43.0562 145.1556 19.3651 0.0000 0.0000 -0.9878
# 3 19.3651 19.3651 48.8372 0.0000 0.0000 0.0000
# 4 0.0000 0.0000 0.0000 22.3563 0.0000 0.0000
# 5 0.0000 0.0000 0.0000 0.0000 22.3563 0.0000
# 6 0.9878 -0.9878 0.0000 0.0000 0.0000 42.7404
#
#
#
# Elastic Compliance Matrix: (Units=1/GPa)
#
#
# Indices 1 2 3 4 5 6 
#
# 1 0.007792 -0.002007 -0.002294 0.000000 0.000000 -0.000226
# 2 -0.002007 0.007792 -0.002294 0.000000 0.000000 0.000226
# 3 -0.002294 -0.002294 0.022295 0.000000 0.000000 0.000000
# 4 0.000000 0.000000 0.000000 0.044730 0.000000 0.000000
# 5 0.000000 0.000000 0.000000 0.000000 0.044730 0.000000
# 6 -0.000226 0.000226 0.000000 0.000000 0.000000 0.023408
#
#
# Mechanical properties :
#
#
# Convention : Reuss Voigt Hill
#
# Bulk Modulus (GPa) = 40.50232 55.85792 48.18012
# Shear Modulus (GPa) = 29.04165 34.64808 31.84486
#
# Velocity S-wave (km/s) = 3.69510 4.03604 3.86933
# Velocity P-wave (km/s) = 6.10303 6.92682 6.52793
#
# Compressibility (1/GPa) = 0.02468994
#
# Stress axis : x y z
#
# Youngs Moduli (GPa) = 128.33697 128.33697 44.85226
#
# Poissons Ratio (x) = 0.25754 0.10289
# Poissons Ratio (y) = 0.25754 0.10289
# Poissons Ratio (z) = 0.29440 0.29440
#
# Static dielectric constant tensor:
#      x y z
#    x 4.533080 0.000000 0.000000 
#    y 0.000000 4.533080 0.000000 
#    z 0.000000 0.000000 3.943470 
# 
# 
# High freq. dielectric constant tensor:
#      x y z
#    x 1.837580 0.000000 0.000000 
#    y 0.000000 1.837580 0.000000 
#    z 0.000000 0.000000 1.789720 
# 
# From -- ./inp_files/4914.got.cif
#   From: 2010.03.12/outbox.cif.g09.slc.cpg/sg88_3_cif.got.tgz:4914.got - 2010.04.08 20:20:55.
