data_PCOD8304167
_publ_section_title
;
Structure prediction by ZEFSAII (Michael W. Deem and Ramdas Pophale) SiO2 
 PCOD8304167
Probable space group: I 4/M
;
_chemical_formula_sum "Si O2"
_cell_formula_units_Z 44
_cell_length_a 12.647470
_cell_length_b 12.647470
_cell_length_c 13.196330
_cell_angle_alpha 90.000000
_cell_angle_beta 90.000000
_cell_angle_gamma 90.000000
_cell_volume 2110.865118
_symmetry_space_group_name_H-M "I 4/M"
_symmetry_group_IT_number 87
_symmetry_cell_setting 'tetragonal'
loop_
_space_group_symop_operation_xyz
x,y,z
-y,x,z
-x,-y,z
y,-x,z
-x,-y,-z
y,-x,-z
x,y,-z
-y,x,-z
1/2+x,1/2+y,1/2+z
1/2-y,1/2+x,1/2+z
1/2-x,1/2-y,1/2+z
1/2+y,1/2-x,1/2+z
1/2-x,1/2-y,1/2-z
1/2+y,1/2-x,1/2-z
1/2+x,1/2+y,1/2-z
1/2-y,1/2+x,1/2-z
loop_
_atom_site_type_symbol
_atom_site_label
_atom_site_fract_x
_atom_site_fract_y
_atom_site_fract_z
Si Si1 0.351737 0.128079 0.387323
Si Si2 0.342107 0.425657 0.000000
Si Si3 0.648399 0.424948 0.620461
Si Si4 0.000000 0.500000 0.250000
O O1 0.404719 0.122912 0.500000
O O2 0.225778 0.105441 0.399508
O O3 0.371398 0.244138 0.338659
O O4 0.402810 0.038655 0.317943
O O5 0.449384 0.360576 0.000000
O O6 0.640692 0.546367 0.659967
O O7 0.646620 0.421974 0.500000
#
# Coordination Sequence:
#
# PCOD8304167 Si02
#       4
#    16   8  16   4
#     4   9  21  37  60  85 118 158 195 247 296 349
#     4   9  20  41  64  85 114 161 206 241 294 360
#     4   8  14  29  54  84 116 150 193 237 286 345
#     4  12  22  40  56  94 124 152 202 244 300 362
#
# _framework density 20.844535
#
# number of rings (size 3 to 8) (size 9 to 14) (size 15 to 20)
#    1.091    2.000    0.000    1.636    0.000    2.909 
#    0.000    7.273    0.000    4.364    0.000    0.000 
#    0.000    0.000    0.000    0.000    0.000    0.000 
#
# Total GULP energy -272587.568306 kJ/mol
# GULP energy per Si atom -12390.344014 kJ/mol
# Density = 2.079709 g / cm^3
# Si number density = 20.844535 Si / 1000 Ang^3
#
#
#
# Elastic Constant Matrix: (Units=GPa)
#
#
# Indices 1 2 3 4 5 6 
#
# 1 156.4317 83.0147 25.6907 0.0000 0.0000 -5.6136
# 2 83.0147 156.4317 25.6907 0.0000 0.0000 5.6136
# 3 25.6907 25.6907 30.0709 0.0000 0.0000 0.0000
# 4 0.0000 0.0000 0.0000 0.8163 0.0000 0.0000
# 5 0.0000 0.0000 0.0000 0.0000 0.8163 0.0000
# 6 -5.6136 5.6136 0.0000 0.0000 0.0000 34.5872
#
#
#
# Elastic Compliance Matrix: (Units=1/GPa)
#
#
# Indices 1 2 3 4 5 6 
#
# 1 0.009541 -0.004427 -0.004369 0.000000 0.000000 0.002267
# 2 -0.004427 0.009541 -0.004369 0.000000 0.000000 -0.002267
# 3 -0.004369 -0.004369 0.040720 0.000000 0.000000 0.000000
# 4 0.000000 0.000000 0.000000 1.224975 0.000006 0.000000
# 5 0.000000 0.000000 0.000000 0.000006 1.224986 0.000000
# 6 0.002267 -0.002267 0.000000 0.000000 0.000000 0.029648
#
#
# Mechanical properties :
#
#
# Convention : Reuss Voigt Hill
#
# Bulk Modulus (GPa) = 29.87599 67.96960 48.92280
# Shear Modulus (GPa) = 1.94032 21.14653 11.54342
#
# Velocity S-wave (km/s) = 0.96585 3.18856 2.35582
# Velocity P-wave (km/s) = 3.95066 6.79960 5.56068
#
# Compressibility (1/GPa) = 0.03347170
#
# Stress axis : x y z
#
# Youngs Moduli (GPa) = 104.81463 104.81463 24.55814
#
# Poissons Ratio (x) = 0.46400 0.10729
# Poissons Ratio (y) = 0.46400 0.10729
# Poissons Ratio (z) = 0.45792 0.45792
#
# Static dielectric constant tensor:
#      x y z
#    x 3.777860 0.000000 0.000000 
#    y 0.000000 3.777860 0.000000 
#    z 0.000000 0.000000 3.236880 
# 
# 
# High freq. dielectric constant tensor:
#      x y z
#    x 1.814920 0.000000 0.000000 
#    y 0.000000 1.814920 0.000000 
#    z 0.000000 0.000000 1.772040 
# 
# From -- ./inp_files/2036.got.cif
#   From: 2010.03.12/outbox.cif.g09.slc.cpg/sg87_2_cif.got.tgz:2036.got - 2010.04.08 20:16:13.
