data_PCOD8304222
_publ_section_title
;
Structure prediction by ZEFSAII (Michael W. Deem and Ramdas Pophale) SiO2 
 PCOD8304222
Probable space group: I 41/A
;
_chemical_formula_sum "Si O2"
_cell_formula_units_Z 76
_cell_length_a 11.626686
_cell_length_b 11.626686
_cell_length_c 28.375327
_cell_angle_alpha 90.000000
_cell_angle_beta 90.000000
_cell_angle_gamma 90.000000
_cell_volume 3835.771805
_symmetry_space_group_name_H-M "I 41/A"
_symmetry_group_IT_number 88
_space_group.IT_coordinate_system_code '2'
_symmetry_cell_setting 'tetragonal'
loop_
_space_group_symop_operation_xyz
x,y,z
3/4-y,1/4+x,1/4+z
-x,1/2-y,z
1/4+y,1/4-x,1/4+z
-x,-y,-z
1/4+y,3/4-x,3/4-z
x,1/2+y,-z
3/4-y,3/4+x,3/4-z
1/2+x,1/2+y,1/2+z
1/4-y,3/4+x,3/4+z
1/2-x,-y,1/2+z
3/4+y,3/4-x,3/4+z
1/2-x,1/2-y,1/2-z
3/4+y,1/4-x,1/4-z
1/2+x,y,1/2-z
1/4-y,1/4+x,1/4-z
loop_
_atom_site_type_symbol
_atom_site_label
_atom_site_fract_x
_atom_site_fract_y
_atom_site_fract_z
Si Si1 0.391230 0.472564 0.277695
Si Si2 0.126095 0.695377 0.612886
Si Si3 0.500000 0.250000 0.493889
Si Si4 0.000000 0.250000 0.625000
Si Si5 0.617727 0.087165 0.563526
Si Si6 0.945675 0.014219 0.671361
O O1 0.436933 0.574911 0.310386
O O2 0.471130 0.361037 0.287391
O O3 0.263014 0.439639 0.290464
O O4 0.393499 0.512597 0.223751
O O5 0.202661 0.786878 0.642817
O O6 0.128848 0.568399 0.636819
O O7 0.000000 0.750000 0.610719
O O8 0.527117 0.140902 0.526743
O O9 0.054749 0.352872 0.655726
O O10 0.715451 0.175992 0.579225
#
# Coordination Sequence:
#
# PCOD8304222 Si02
#       6
#    16  16   8   4  16  16
#     4  11  22  37  67  94 119 163 214 250 312 382
#     4  10  21  41  63  90 131 164 204 261 317 368
#     4  10  20  38  60  88 124 162 195 255 326 366
#     4  12  24  44  62  88 132 164 222 252 304 372
#     4  10  19  42  63  83 129 164 197 256 321 368
#     4  10  23  43  61  90 123 169 202 259 314 364
#
# _framework density 19.813483000000002
#
# number of rings (size 3 to 8) (size 9 to 14) (size 15 to 20)
#    0.000    1.684    5.263    1.895    1.474    1.684 
#   18.947    2.105    0.000    0.000    0.000    0.000 
#    0.000    0.000    0.000    0.000    0.000    0.000 
#
# Total GULP energy -471099.247059 kJ/mol
# GULP energy per Si atom -12397.348607 kJ/mol
# Density = 1.976839 g / cm^3
# Si number density = 19.813483 Si / 1000 Ang^3
#
#
#
# Elastic Constant Matrix: (Units=GPa)
#
#
# Indices 1 2 3 4 5 6 
#
# 1 76.6494 17.0558 41.2343 0.0000 0.0000 3.2485
# 2 17.0558 76.6494 41.2343 0.0000 0.0000 -3.2485
# 3 41.2343 41.2343 115.7859 0.0000 0.0000 0.0000
# 4 0.0000 0.0000 0.0000 147.7992 0.0000 0.0000
# 5 0.0000 0.0000 0.0000 0.0000 147.7992 0.0000
# 6 3.2485 -3.2485 0.0000 0.0000 0.0000 24.9306
#
#
#
# Elastic Compliance Matrix: (Units=1/GPa)
#
#
# Indices 1 2 3 4 5 6 
#
# 1 0.016283 -0.000739 -0.005535 0.000000 0.000000 -0.002218
# 2 -0.000739 0.016283 -0.005535 0.000000 0.000000 0.002218
# 3 -0.005535 -0.005535 0.012579 0.000000 0.000000 0.000000
# 4 0.000000 0.000000 0.000000 0.006766 0.000000 0.000000
# 5 0.000000 0.000000 0.000000 0.000000 0.006766 0.000000
# 6 -0.002218 0.002218 0.000000 0.000000 0.000000 0.040689
#
#
# Mechanical properties :
#
#
# Convention : Reuss Voigt Hill
#
# Bulk Modulus (GPa) = 46.45888 52.01482 49.23685
# Shear Modulus (GPa) = 38.41393 75.40982 56.91188
#
# Velocity S-wave (km/s) = 4.40793 6.17596 5.36527
# Velocity P-wave (km/s) = 7.02890 8.78441 7.95523
#
# Compressibility (1/GPa) = 0.02152441
#
# Stress axis : x y z
#
# Youngs Moduli (GPa) = 61.41466 61.41467 79.49624
#
# Poissons Ratio (x) = 0.04541 0.44004
# Poissons Ratio (y) = 0.04541 0.44004
# Poissons Ratio (z) = 0.33995 0.33995
#
# Static dielectric constant tensor:
#      x y z
#    x 3.722840 0.000000 0.000000 
#    y 0.000000 3.722840 0.000000 
#    z 0.000000 0.000000 3.618340 
# 
# 
# High freq. dielectric constant tensor:
#      x y z
#    x 1.771690 0.000000 0.000000 
#    y 0.000000 1.771690 0.000000 
#    z 0.000000 0.000000 1.765900 
# 
# From -- ./inp_files/6364.got.cif
#   From: 2010.03.12/outbox.cif.g09.slc.cpg/sg88_4_cif.got.tgz:6364.got - 2010.04.08 20:20:55.
