data_PCOD8304326
_publ_section_title
;
Structure prediction by ZEFSAII (Michael W. Deem and Ramdas Pophale) SiO2 
 PCOD8304326
Probable space group: I 41/A
;
_chemical_formula_sum "Si O2"
_cell_formula_units_Z 100
_cell_length_a 19.966108
_cell_length_b 19.966108
_cell_length_c 11.315463
_cell_angle_alpha 90.000000
_cell_angle_beta 90.000000
_cell_angle_gamma 90.000000
_cell_volume 4510.858051
_symmetry_space_group_name_H-M "I 41/A"
_symmetry_group_IT_number 88
_space_group.IT_coordinate_system_code '2'
_symmetry_cell_setting 'tetragonal'
loop_
_space_group_symop_operation_xyz
x,y,z
3/4-y,1/4+x,1/4+z
-x,1/2-y,z
1/4+y,1/4-x,1/4+z
-x,-y,-z
1/4+y,3/4-x,3/4-z
x,1/2+y,-z
3/4-y,3/4+x,3/4-z
1/2+x,1/2+y,1/2+z
1/4-y,3/4+x,3/4+z
1/2-x,-y,1/2+z
3/4+y,3/4-x,3/4+z
1/2-x,1/2-y,1/2-z
3/4+y,1/4-x,1/4-z
1/2+x,y,1/2-z
1/4-y,1/4+x,1/4-z
loop_
_atom_site_type_symbol
_atom_site_label
_atom_site_fract_x
_atom_site_fract_y
_atom_site_fract_z
Si Si1 0.007384 0.443409 0.181174
Si Si2 0.917514 0.147352 0.019683
Si Si3 0.788665 0.809782 0.187511
Si Si4 0.500000 0.250000 0.375000
Si Si5 0.812373 0.829845 0.552718
Si Si6 0.706089 0.521668 0.021373
Si Si7 0.531801 0.352789 0.895598
O O1 0.946293 0.391705 0.194347
O O2 0.967151 0.507854 0.131469
O O3 0.068807 0.418970 0.098674
O O4 0.047077 0.460401 0.299440
O O5 0.986307 0.188818 0.035602
O O6 0.904155 0.124503 0.887343
O O7 0.750000 0.750000 0.250000
O O8 0.753140 0.879789 0.219551
O O9 0.866851 0.808286 0.230400
O O10 0.785028 0.899234 0.500680
O O11 0.836331 0.784241 0.445230
O O12 0.739049 0.508229 0.152992
O O13 0.579217 0.294457 0.846354
#
# Coordination Sequence:
#
# PCOD8304326 Si02
#       7
#    16  16  16   4  16  16  16
#     4  11  24  42  68  97 137 185 235 298 358 439
#     4  10  22  41  65  96 136 183 232 290 363 429
#     4  12  23  44  70  98 139 184 239 298 367 428
#     4   8  20  40  60  92 130 180 232 288 356 426
#     4  12  23  42  67  99 139 181 234 295 358 430
#     4  12  27  47  72 103 146 194 243 300 365 447
#     4  11  24  40  66 100 134 175 229 290 353 413
#
# _framework density 22.168731999999999
#
# number of rings (size 3 to 8) (size 9 to 14) (size 15 to 20)
#    0.000    0.800    3.200    4.320    0.000    7.680 
#    0.000    0.000    0.000    0.000    0.000    0.000 
#    0.000    0.000    0.000    0.000    0.000    0.000 
#
# Total GULP energy -619418.655617 kJ/mol
# GULP energy per Si atom -12388.373112 kJ/mol
# Density = 2.211828 g / cm^3
# Si number density = 22.168732 Si / 1000 Ang^3
#
#
#
# Elastic Constant Matrix: (Units=GPa)
#
#
# Indices 1 2 3 4 5 6 
#
# 1 58.1114 17.9241 26.5319 0.0000 0.0000 5.2005
# 2 17.9241 58.1114 26.5319 0.0000 0.0000 -5.2005
# 3 26.5319 26.5319 97.0801 0.0000 0.0000 0.0000
# 4 0.0000 0.0000 0.0000 36.3382 0.0000 0.0000
# 5 0.0000 0.0000 0.0000 0.0000 36.3382 0.0000
# 6 5.2005 -5.2005 0.0000 0.0000 0.0000 14.2247
#
#
#
# Elastic Compliance Matrix: (Units=1/GPa)
#
#
# Indices 1 2 3 4 5 6 
#
# 1 0.021868 -0.005616 -0.004441 0.000000 0.000000 -0.010048
# 2 -0.005616 0.021868 -0.004441 0.000000 0.000000 0.010048
# 3 -0.004441 -0.004441 0.012728 0.000000 0.000000 0.000000
# 4 0.000000 0.000000 0.000000 0.027519 0.000000 0.000000
# 5 0.000000 0.000000 0.000000 0.000000 0.027519 0.000000
# 6 -0.010048 0.010048 0.000000 0.000000 0.000000 0.077647
#
#
# Mechanical properties :
#
#
# Convention : Reuss Voigt Hill
#
# Bulk Modulus (GPa) = 36.40959 39.47543 37.94251
# Shear Modulus (GPa) = 21.99703 26.86787 24.43245
#
# Velocity S-wave (km/s) = 3.15342 3.48511 3.32341
# Velocity P-wave (km/s) = 5.45145 5.83439 5.64617
#
# Compressibility (1/GPa) = 0.02746529
#
# Stress axis : x y z
#
# Youngs Moduli (GPa) = 45.72952 45.72952 78.56394
#
# Poissons Ratio (x) = 0.25683 0.34894
# Poissons Ratio (y) = 0.25683 0.34894
# Poissons Ratio (z) = 0.20311 0.20311
#
# Static dielectric constant tensor:
#      x y z
#    x 4.175680 0.000000 0.000000 
#    y 0.000000 4.175680 0.000000 
#    z 0.000000 0.000000 4.325740 
# 
# 
# High freq. dielectric constant tensor:
#      x y z
#    x 1.876780 0.000000 0.000000 
#    y 0.000000 1.876780 0.000000 
#    z 0.000000 0.000000 1.873750 
# 
# From -- ./inp_files/2659.got.cif
#   From: 2010.03.12/outbox.cif.g09.slc.cpg/sg88_2_cif.got.tgz:2659.got - 2010.04.08 20:20:55.
