data_PCOD8304475
_publ_section_title
;
Structure prediction by ZEFSAII (Michael W. Deem and Ramdas Pophale) SiO2 
 PCOD8304475
Probable space group: P 4 2 2
;
_chemical_formula_sum "Si O2"
_cell_formula_units_Z 56
_cell_length_a 11.826482
_cell_length_b 11.826482
_cell_length_c 22.318955
_cell_angle_alpha 90.000000
_cell_angle_beta 90.000000
_cell_angle_gamma 90.000000
_cell_volume 3121.655740
_symmetry_space_group_name_H-M "P 4 2 2"
_symmetry_group_IT_number 89
_symmetry_cell_setting 'tetragonal'
loop_
_space_group_symop_operation_xyz
x,y,z
-y,x,z
-x,-y,z
y,-x,z
x,-y,-z
-x,y,-z
y,x,-z
-y,-x,-z
loop_
_atom_site_type_symbol
_atom_site_label
_atom_site_fract_x
_atom_site_fract_y
_atom_site_fract_z
Si Si1 0.500000 0.685824 0.500000
Si Si2 0.826576 0.945658 0.757869
Si Si3 0.613785 0.648857 0.835268
Si Si4 0.273723 0.992097 0.881433
Si Si5 0.312690 0.520127 0.629053
Si Si6 0.500000 0.000000 0.184112
Si Si7 0.751590 0.781134 0.932662
Si Si8 0.820386 0.610148 0.263615
O O1 0.389907 0.610094 0.500000
O O2 0.511799 0.751190 0.563666
O O3 0.801917 0.949728 0.829029
O O4 0.717533 0.900912 0.721228
O O5 0.926872 0.859781 0.740190
O O6 0.478531 0.656761 0.835708
O O7 0.664334 0.710447 0.892864
O O8 0.654143 0.711822 0.774432
O O9 0.283893 0.087346 0.932502
O O10 0.396541 0.961819 0.856732
O O11 0.222912 0.879767 0.909392
O O12 0.377778 0.401880 0.637260
O O13 0.214873 0.542227 0.677025
O O14 0.522714 0.109704 0.223910
O O15 0.737185 0.737185 0.000000
#
# Coordination Sequence:
#
# PCOD8304475 Si02
#       8
#     4   8   8   8   8   4   8   8
#     4   7  12  26  46  73 112 154 186 217 250 299
#     4  10  19  34  55  75 102 140 177 227 292 336
#     4  11  23  40  57  76 107 142 176 219 272 340
#     4  11  21  41  57  79 104 134 174 228 282 338
#     4   9  17  29  50  81 116 151 187 217 257 318
#     4  10  22  38  57  77 110 142 170 226 290 330
#     4  12  25  40  59  82 102 135 180 228 284 345
#     4  11  20  34  55  83 107 142 180 230 275 330
#
# _framework density 17.939198999999999
#
# number of rings (size 3 to 8) (size 9 to 14) (size 15 to 20)
#    0.000    1.643    4.286    3.000    0.000    5.429 
#    0.000    2.143    0.000    0.429    0.000    0.000 
#    0.000    0.000    0.000   25.714    0.000    0.000 
#
# Total GULP energy -694023.351997 kJ/mol
# GULP energy per Si atom -12393.274143 kJ/mol
# Density = 1.789837 g / cm^3
# Si number density = 17.939199 Si / 1000 Ang^3
#
#
#
# Elastic Constant Matrix: (Units=GPa)
#
#
# Indices 1 2 3 4 5 6 
#
# 1 86.6117 33.3871 30.3150 0.0000 0.0000 0.0000
# 2 33.3871 86.6115 30.3149 0.0000 0.0000 0.0000
# 3 30.3150 30.3149 108.3721 0.0000 0.0000 0.0000
# 4 0.0000 0.0000 0.0000 18.1234 0.0000 0.0000
# 5 0.0000 0.0000 0.0000 0.0000 18.1235 0.0000
# 6 0.0000 0.0000 0.0000 0.0000 0.0000 26.4775
#
#
#
# Elastic Compliance Matrix: (Units=1/GPa)
#
#
# Indices 1 2 3 4 5 6 
#
# 1 0.014247 -0.004542 -0.002715 0.000000 0.000000 0.000000
# 2 -0.004542 0.014247 -0.002715 0.000000 0.000000 0.000000
# 3 -0.002715 -0.002715 0.010746 0.000000 0.000000 0.000000
# 4 0.000000 0.000000 0.000000 0.055177 0.000000 0.000000
# 5 0.000000 0.000000 0.000000 0.000000 0.055177 0.000000
# 6 0.000000 0.000000 0.000000 0.000000 0.000000 0.037768
#
#
# Mechanical properties :
#
#
# Convention : Reuss Voigt Hill
#
# Bulk Modulus (GPa) = 51.82085 52.18103 52.00094
# Shear Modulus (GPa) = 23.39326 25.05010 24.22168
#
# Velocity S-wave (km/s) = 3.61505 3.74088 3.67851
# Velocity P-wave (km/s) = 6.80988 6.91446 6.86237
#
# Compressibility (1/GPa) = 0.01929725
#
# Stress axis : x y z
#
# Youngs Moduli (GPa) = 70.19165 70.19150 93.05532
#
# Poissons Ratio (x) = 0.31878 0.25263
# Poissons Ratio (y) = 0.31878 0.25263
# Poissons Ratio (z) = 0.19056 0.19056
#
# Static dielectric constant tensor:
#      x y z
#    x 3.345840 0.000000 0.000000 
#    y 0.000000 3.345840 0.000000 
#    z 0.000000 0.000000 3.328140 
# 
# 
# High freq. dielectric constant tensor:
#      x y z
#    x 1.691930 0.000000 0.000000 
#    y 0.000000 1.691930 0.000000 
#    z 0.000000 0.000000 1.667940 
# 
# From -- ./inp_files/2788.got.cif
#   From: 2010.03.12/outbox.cif.g09.slc.cpg/sg89_2_cif.got.tgz:2788.got - 2010.04.08 20:24:03.
