data_PCOD8304350
_publ_section_title
;
Structure prediction by ZEFSAII (Michael W. Deem and Ramdas Pophale) SiO2 
 PCOD8304350
Probable space group: I 41/A
;
_chemical_formula_sum "Si O2"
_cell_formula_units_Z 76
_cell_length_a 14.014377
_cell_length_b 14.014377
_cell_length_c 14.722569
_cell_angle_alpha 90.000000
_cell_angle_beta 90.000000
_cell_angle_gamma 90.000000
_cell_volume 2891.553226
_symmetry_space_group_name_H-M "I 41/A"
_symmetry_group_IT_number 88
_space_group.IT_coordinate_system_code '2'
_symmetry_cell_setting 'tetragonal'
loop_
_space_group_symop_operation_xyz
x,y,z
3/4-y,1/4+x,1/4+z
-x,1/2-y,z
1/4+y,1/4-x,1/4+z
-x,-y,-z
1/4+y,3/4-x,3/4-z
x,1/2+y,-z
3/4-y,3/4+x,3/4-z
1/2+x,1/2+y,1/2+z
1/4-y,3/4+x,3/4+z
1/2-x,-y,1/2+z
3/4+y,3/4-x,3/4+z
1/2-x,1/2-y,1/2-z
3/4+y,1/4-x,1/4-z
1/2+x,y,1/2-z
1/4-y,1/4+x,1/4-z
loop_
_atom_site_type_symbol
_atom_site_label
_atom_site_fract_x
_atom_site_fract_y
_atom_site_fract_z
Si Si1 0.851627 0.946752 0.427989
Si Si2 0.000000 0.750000 0.875000
Si Si3 0.000000 0.250000 0.853478
Si Si4 0.373883 0.910187 0.877001
Si Si5 0.684174 0.340962 0.020009
Si Si6 0.032106 0.542242 0.906078
O O1 0.764731 0.870154 0.416171
O O2 0.908417 0.911357 0.516964
O O3 0.917978 0.950662 0.338920
O O4 0.809954 0.049904 0.450291
O O5 0.957368 0.844284 0.924671
O O6 0.917439 0.198596 0.916669
O O7 0.955345 0.332439 0.791696
O O8 0.262176 0.880245 0.869718
O O9 0.769836 0.290965 0.074252
O O10 0.000000 0.500000 0.000000
#
# Coordination Sequence:
#
# PCOD8304350 Si02
#       6
#    16   4   8  16  16  16
#     4  10  23  43  70  93 137 188 242 298 378 443
#     4  12  28  46  80 106 140 206 236 308 386 452
#     4  10  24  42  62  99 135 176 234 300 372 442
#     4  10  24  44  67 100 138 187 239 309 370 455
#     4  10  24  44  67 100 138 187 239 309 370 455
#     4  11  27  45  71 111 143 188 248 311 382 468
#
# _framework density 26.283453000000002
#
# number of rings (size 3 to 8) (size 9 to 14) (size 15 to 20)
#    0.000    1.684    0.000    1.263   11.789   14.316 
#    0.000    0.000    0.000    0.000    0.000    0.000 
#    0.000    0.000    0.000    0.000    0.000    0.000 
#
# Total GULP energy -470781.538333 kJ/mol
# GULP energy per Si atom -12388.987851 kJ/mol
# Density = 2.622363 g / cm^3
# Si number density = 26.283453 Si / 1000 Ang^3
#
#
#
# Elastic Constant Matrix: (Units=GPa)
#
#
# Indices 1 2 3 4 5 6 
#
# 1 97.1798 -8.4452 -5.4755 0.0000 0.0000 -0.6333
# 2 -8.4452 97.1798 -5.4755 0.0000 0.0000 0.6333
# 3 -5.4755 -5.4755 84.4472 0.0000 0.0000 0.0000
# 4 0.0000 0.0000 0.0000 18.4222 0.0000 0.0000
# 5 0.0000 0.0000 0.0000 0.0000 18.4222 0.0000
# 6 -0.6333 0.6333 0.0000 0.0000 0.0000 35.6659
#
#
#
# Elastic Compliance Matrix: (Units=1/GPa)
#
#
# Indices 1 2 3 4 5 6 
#
# 1 0.010415 0.000945 0.000737 0.000000 0.000000 0.000168
# 2 0.000945 0.010415 0.000737 0.000000 0.000000 -0.000168
# 3 0.000737 0.000737 0.011937 0.000000 0.000000 0.000000
# 4 0.000000 0.000000 0.000000 0.054282 0.000000 0.000000
# 5 0.000000 0.000000 0.000000 0.000000 0.054282 0.000000
# 6 0.000168 -0.000168 0.000000 0.000000 0.000000 0.028044
#
#
# Mechanical properties :
#
#
# Convention : Reuss Voigt Hill
#
# Bulk Modulus (GPa) = 26.59247 26.66825 26.63036
# Shear Modulus (GPa) = 28.23695 34.38229 31.30962
#
# Velocity S-wave (km/s) = 3.28124 3.62074 3.45516
# Velocity P-wave (km/s) = 4.94924 5.25814 5.10603
#
# Compressibility (1/GPa) = 0.03760462
#
# Stress axis : x y z
#
# Youngs Moduli (GPa) = 96.01564 96.01564 83.77143
#
# Poissons Ratio (x) = -0.09078 -0.06171
# Poissons Ratio (y) = -0.09078 -0.06171
# Poissons Ratio (z) = -0.07073 -0.07073
#
# Static dielectric constant tensor:
#      x y z
#    x 5.014420 0.000000 0.000000 
#    y 0.000000 5.014420 0.000000 
#    z 0.000000 0.000000 4.907560 
# 
# 
# High freq. dielectric constant tensor:
#      x y z
#    x 2.061430 0.000000 0.000000 
#    y 0.000000 2.061430 0.000000 
#    z 0.000000 0.000000 2.038470 
# 
# From -- ./inp_files/3852.got.cif
#   From: 2010.03.12/outbox.cif.g09.slc.cpg/sg88_2_cif.got.tgz:3852.got - 2010.04.08 20:20:55.
