data_PCOD8304543
_publ_section_title
;
Structure prediction by ZEFSAII (Michael W. Deem and Ramdas Pophale) SiO2 
 PCOD8304543
Probable space group: P 4 21 2
;
_chemical_formula_sum "Si O2"
_cell_formula_units_Z 40
_cell_length_a 17.221526
_cell_length_b 17.221526
_cell_length_c 7.402163
_cell_angle_alpha 90.000000
_cell_angle_beta 90.000000
_cell_angle_gamma 90.000000
_cell_volume 2195.340592
_symmetry_space_group_name_H-M "P 4 21 2"
_symmetry_group_IT_number 90
_symmetry_cell_setting 'tetragonal'
loop_
_space_group_symop_operation_xyz
x,y,z
1/2-y,1/2+x,z
-x,-y,z
1/2+y,1/2-x,z
1/2+x,1/2-y,-z
1/2-x,1/2+y,-z
y,x,-z
-y,-x,-z
loop_
_atom_site_type_symbol
_atom_site_label
_atom_site_fract_x
_atom_site_fract_y
_atom_site_fract_z
Si Si1 0.038493 0.620489 0.490255
Si Si2 0.232012 0.656312 0.910454
Si Si3 0.700921 0.664932 0.706162
Si Si4 0.294888 0.898004 0.845775
Si Si5 0.015420 0.729797 0.811430
O O1 0.096017 0.549555 0.460126
O O2 0.067465 0.683188 0.347107
O O3 0.040337 0.656257 0.689645
O O4 0.197879 0.714067 0.758419
O O5 0.250610 0.575819 0.805152
O O6 0.311377 0.688624 0.000000
O O7 0.167994 0.647520 0.071655
O O8 0.683386 0.683386 0.500000
O O9 0.638096 0.708450 0.830870
O O10 0.699207 0.571890 0.747135
O O11 0.292579 0.969818 0.981720
#
# Coordination Sequence:
#
# PCOD8304543 Si02
#       5
#     8   8   8   8   8
#     4  11  22  32  49  82 118 150 182 224 284 348
#     4   9  20  36  57  82 113 149 198 243 288 345
#     4  10  19  36  57  82 109 147 197 238 281 357
#     4  10  20  36  55  77 111 151 194 228 276 357
#     4  11  20  35  56  79 110 147 188 239 293 331
#
# _framework density 18.220407999999999
#
# number of rings (size 3 to 8) (size 9 to 14) (size 15 to 20)
#    0.000    1.800    2.000    5.400    0.000    0.000 
#    0.000    2.000    0.000    2.400    0.000    1.400 
#    0.000    0.000    0.000    0.000    0.000    0.000 
#
# Total GULP energy -495689.907924 kJ/mol
# GULP energy per Si atom -12392.247698 kJ/mol
# Density = 1.817894 g / cm^3
# Si number density = 18.220408 Si / 1000 Ang^3
#
#
#
# Elastic Constant Matrix: (Units=GPa)
#
#
# Indices 1 2 3 4 5 6 
#
# 1 78.1261 26.3176 27.2673 0.0000 0.0000 0.0000
# 2 26.3176 78.1277 27.2672 0.0000 0.0000 0.0000
# 3 27.2673 27.2672 82.2940 0.0000 0.0000 0.0000
# 4 0.0000 0.0000 0.0000 28.6881 0.0000 0.0000
# 5 0.0000 0.0000 0.0000 0.0000 28.6881 0.0000
# 6 0.0000 0.0000 0.0000 0.0000 0.0000 49.7545
#
#
#
# Elastic Compliance Matrix: (Units=1/GPa)
#
#
# Indices 1 2 3 4 5 6 
#
# 1 0.015440 -0.003862 -0.003836 0.000000 0.000000 0.000000
# 2 -0.003862 0.015439 -0.003836 0.000000 0.000000 0.000000
# 3 -0.003836 -0.003836 0.014694 0.000000 0.000000 0.000000
# 4 0.000000 0.000000 0.000000 0.034858 0.000000 0.000000
# 5 0.000000 0.000000 0.000000 0.000000 0.034858 0.000000
# 6 0.000000 0.000000 0.000000 0.000000 0.000000 0.020099
#
#
# Mechanical properties :
#
#
# Convention : Reuss Voigt Hill
#
# Bulk Modulus (GPa) = 44.43607 44.47245 44.45426
# Shear Modulus (GPa) = 30.12839 31.93918 31.03379
#
# Velocity S-wave (km/s) = 4.07080 4.19135 4.13151
# Velocity P-wave (km/s) = 6.82175 6.91984 6.87097
#
# Compressibility (1/GPa) = 0.02250424
#
# Stress axis : x y z
#
# Youngs Moduli (GPa) = 64.76820 64.76971 68.05674
#
# Poissons Ratio (x) = 0.25015 0.26107
# Poissons Ratio (y) = 0.25014 0.26106
# Poissons Ratio (z) = 0.24846 0.24846
#
# Static dielectric constant tensor:
#      x y z
#    x 3.349070 0.000000 0.000000 
#    y 0.000000 3.349070 0.000000 
#    z 0.000000 0.000000 3.451880 
# 
# 
# High freq. dielectric constant tensor:
#      x y z
#    x 1.687630 0.000000 0.000000 
#    y 0.000000 1.687630 0.000000 
#    z 0.000000 0.000000 1.722250 
# 
# From -- ./inp_files/1443.got.cif
#   From: 2010.03.12/outbox.cif.g09.slc.cpg/sg90_1_cif.got.tgz:1443.got - 2010.04.08 20:26:03.
