data_PCOD8304249
_publ_section_title
;
Structure prediction by ZEFSAII (Michael W. Deem and Ramdas Pophale) SiO2 
 PCOD8304249
Probable space group: I 41/A
;
_chemical_formula_sum "Si O2"
_cell_formula_units_Z 96
_cell_length_a 21.306353
_cell_length_b 21.306353
_cell_length_c 9.572112
_cell_angle_alpha 90.000000
_cell_angle_beta 90.000000
_cell_angle_gamma 90.000000
_cell_volume 4345.362455
_symmetry_space_group_name_H-M "I 41/A"
_symmetry_group_IT_number 88
_space_group.IT_coordinate_system_code '2'
_symmetry_cell_setting 'tetragonal'
loop_
_space_group_symop_operation_xyz
x,y,z
3/4-y,1/4+x,1/4+z
-x,1/2-y,z
1/4+y,1/4-x,1/4+z
-x,-y,-z
1/4+y,3/4-x,3/4-z
x,1/2+y,-z
3/4-y,3/4+x,3/4-z
1/2+x,1/2+y,1/2+z
1/4-y,3/4+x,3/4+z
1/2-x,-y,1/2+z
3/4+y,3/4-x,3/4+z
1/2-x,1/2-y,1/2-z
3/4+y,1/4-x,1/4-z
1/2+x,y,1/2-z
1/4-y,1/4+x,1/4-z
loop_
_atom_site_type_symbol
_atom_site_label
_atom_site_fract_x
_atom_site_fract_y
_atom_site_fract_z
Si Si1 0.865885 0.076405 0.468539
Si Si2 0.296366 0.826345 0.013618
Si Si3 0.064364 0.592997 0.819399
Si Si4 0.445577 0.448821 0.631328
Si Si5 0.070945 0.911201 0.824508
Si Si6 0.209835 0.960474 0.166442
O O1 0.922976 0.076397 0.580576
O O2 0.823472 0.139356 0.484405
O O3 0.889309 0.071933 0.311313
O O4 0.828773 0.013386 0.505915
O O5 0.318990 0.890382 0.935656
O O6 0.219814 0.830126 0.017961
O O7 0.321338 0.762878 0.944221
O O8 0.118522 0.645641 0.806826
O O9 0.995720 0.619300 0.776051
O O10 0.063724 0.583792 0.985219
O O11 0.445239 0.523087 0.600641
O O12 0.222295 0.965181 0.999614
#
# Coordination Sequence:
#
# PCOD8304249 Si02
#       6
#    16  16  16  16  16  16
#     4  10  22  38  60  88 119 157 196 255 317 350
#     4  10  21  37  57  90 117 156 205 237 302 381
#     4  10  23  36  60  85 114 159 199 241 305 360
#     4  10  22  40  58  85 125 157 192 253 312 366
#     4  10  20  39  57  82 118 156 194 250 299 359
#     4  10  22  35  58  93 123 158 201 260 310 369
#
# _framework density 22.092517999999998
#
# number of rings (size 3 to 8) (size 9 to 14) (size 15 to 20)
#    0.000    2.000    0.000    4.000    7.000    7.000 
#    0.000    3.333    0.000    2.500    0.000    0.000 
#    0.000    0.000    0.000    0.000    0.000    0.000 
#
# Total GULP energy -594772.980443 kJ/mol
# GULP energy per Si atom -12391.103759 kJ/mol
# Density = 2.204223 g / cm^3
# Si number density = 22.092518 Si / 1000 Ang^3
#
#
#
# Elastic Constant Matrix: (Units=GPa)
#
#
# Indices 1 2 3 4 5 6 
#
# 1 106.6962 42.0395 6.8107 0.0000 0.0000 -6.6619
# 2 42.0395 106.6962 6.8107 0.0000 0.0000 6.6619
# 3 6.8107 6.8107 24.7484 0.0000 0.0000 0.0000
# 4 0.0000 0.0000 0.0000 27.9034 0.0000 0.0000
# 5 0.0000 0.0000 0.0000 0.0000 27.9034 0.0000
# 6 -6.6619 6.6619 0.0000 0.0000 0.0000 25.1165
#
#
#
# Elastic Compliance Matrix: (Units=1/GPa)
#
#
# Indices 1 2 3 4 5 6 
#
# 1 0.011629 -0.004732 -0.001898 0.000000 0.000000 0.004339
# 2 -0.004732 0.011629 -0.001898 0.000000 0.000000 -0.004339
# 3 -0.001898 -0.001898 0.041451 0.000000 0.000000 0.000000
# 4 0.000000 0.000000 0.000000 0.035838 0.000000 0.000000
# 5 0.000000 0.000000 0.000000 0.000000 0.035838 0.000000
# 6 0.004339 -0.004339 0.000000 0.000000 0.000000 0.042116
#
#
# Mechanical properties :
#
#
# Convention : Reuss Voigt Hill
#
# Bulk Modulus (GPa) = 20.98489 38.82920 29.90705
# Shear Modulus (GPa) = 23.64721 28.35001 25.99861
#
# Velocity S-wave (km/s) = 3.27520 3.58612 3.43418
# Velocity P-wave (km/s) = 4.88077 5.89584 5.41215
#
# Compressibility (1/GPa) = 0.04765334
#
# Stress axis : x y z
#
# Youngs Moduli (GPa) = 85.99304 85.99304 24.12466
#
# Poissons Ratio (x) = 0.40689 0.04579
# Poissons Ratio (y) = 0.40689 0.04579
# Poissons Ratio (z) = 0.16322 0.16322
#
# Static dielectric constant tensor:
#      x y z
#    x 4.266630 0.000000 0.000000 
#    y 0.000000 4.266630 0.000000 
#    z 0.000000 0.000000 4.125730 
# 
# 
# High freq. dielectric constant tensor:
#      x y z
#    x 1.862380 0.000000 0.000000 
#    y 0.000000 1.862380 0.000000 
#    z 0.000000 0.000000 1.864500 
# 
# From -- ./inp_files/2624.got.cif
#   From: 2010.03.12/outbox.cif.g09.slc.cpg/sg88_2_cif.got.tgz:2624.got - 2010.04.08 20:20:55.
