data_PCOD8304399
_publ_section_title
;
Structure prediction by ZEFSAII (Michael W. Deem and Ramdas Pophale) SiO2 
 PCOD8304399
Probable space group: I 41/A
;
_chemical_formula_sum "Si O2"
_cell_formula_units_Z 96
_cell_length_a 14.049525
_cell_length_b 14.049525
_cell_length_c 21.226495
_cell_angle_alpha 90.000000
_cell_angle_beta 90.000000
_cell_angle_gamma 90.000000
_cell_volume 4189.879863
_symmetry_space_group_name_H-M "I 41/A"
_symmetry_group_IT_number 88
_space_group.IT_coordinate_system_code '2'
_symmetry_cell_setting 'tetragonal'
loop_
_space_group_symop_operation_xyz
x,y,z
3/4-y,1/4+x,1/4+z
-x,1/2-y,z
1/4+y,1/4-x,1/4+z
-x,-y,-z
1/4+y,3/4-x,3/4-z
x,1/2+y,-z
3/4-y,3/4+x,3/4-z
1/2+x,1/2+y,1/2+z
1/4-y,3/4+x,3/4+z
1/2-x,-y,1/2+z
3/4+y,3/4-x,3/4+z
1/2-x,1/2-y,1/2-z
3/4+y,1/4-x,1/4-z
1/2+x,y,1/2-z
1/4-y,1/4+x,1/4-z
loop_
_atom_site_type_symbol
_atom_site_label
_atom_site_fract_x
_atom_site_fract_y
_atom_site_fract_z
Si Si1 0.894667 0.542673 0.508784
Si Si2 0.933979 0.617867 0.382664
Si Si3 0.042281 0.852558 0.026962
Si Si4 0.031801 0.891706 0.895157
Si Si5 0.609736 0.983446 0.233835
Si Si6 0.964590 0.418459 0.838904
O O1 0.869675 0.594461 0.443061
O O2 0.812923 0.464947 0.519082
O O3 0.893301 0.625272 0.562946
O O4 0.000000 0.500000 0.500000
O O5 0.889251 0.707927 0.345587
O O6 0.939297 0.532483 0.333598
O O7 0.153981 0.863259 0.012998
O O8 0.011909 0.876927 0.097712
O O9 0.000000 0.750000 0.011900
O O10 0.000644 0.915134 0.967940
O O11 0.111724 0.810162 0.895202
O O12 0.078455 0.980637 0.859528
O O13 0.548180 0.931178 0.287836
#
# Coordination Sequence:
#
# PCOD8304399 Si02
#       6
#    16  16  16  16  16  16
#     4  12  28  48  74 111 155 203 261 327 397 481
#     4  11  23  44  72  98 145 202 247 312 396 460
#     4  12  27  47  77 112 153 199 261 328 396 479
#     4  11  22  50  75 103 153 202 244 319 399 463
#     4  12  26  48  74 109 150 201 262 325 391 483
#     4  12  28  46  78 111 156 202 265 325 403 480
#
# _framework density 22.91235
#
# number of rings (size 3 to 8) (size 9 to 14) (size 15 to 20)
#    0.000    0.333    6.667    1.500    7.000    1.333 
#    6.000    0.000    0.000    0.000    0.000    0.000 
#    0.000    0.000    0.000    0.000    0.000    0.000 
#
# Total GULP energy -594752.295867 kJ/mol
# GULP energy per Si atom -12390.672831 kJ/mol
# Density = 2.286020 g / cm^3
# Si number density = 22.912350 Si / 1000 Ang^3
#
#
#
# Elastic Constant Matrix: (Units=GPa)
#
#
# Indices 1 2 3 4 5 6 
#
# 1 99.5040 49.8507 42.8570 0.0000 0.0000 -2.6134
# 2 49.8507 99.5040 42.8570 0.0000 0.0000 2.6134
# 3 42.8570 42.8570 175.6799 0.0000 0.0000 0.0000
# 4 0.0000 0.0000 0.0000 34.0095 0.0000 0.0000
# 5 0.0000 0.0000 0.0000 0.0000 34.0095 0.0000
# 6 -2.6134 2.6134 0.0000 0.0000 0.0000 32.8050
#
#
#
# Elastic Compliance Matrix: (Units=1/GPa)
#
#
# Indices 1 2 3 4 5 6 
#
# 1 0.014048 -0.006262 -0.001899 0.000000 0.000000 0.001618
# 2 -0.006262 0.014048 -0.001899 0.000000 0.000000 -0.001618
# 3 -0.001899 -0.001899 0.006619 0.000000 0.000000 0.000000
# 4 0.000000 0.000000 0.000000 0.029404 0.000000 0.000000
# 5 0.000000 0.000000 0.000000 0.000000 0.029404 0.000000
# 6 0.001618 -0.001618 0.000000 0.000000 0.000000 0.030741
#
#
# Mechanical properties :
#
#
# Convention : Reuss Voigt Hill
#
# Bulk Modulus (GPa) = 68.52749 71.75749 70.14249
# Shear Modulus (GPa) = 33.50129 36.10635 34.80382
#
# Velocity S-wave (km/s) = 3.82796 3.97400 3.90166
# Velocity P-wave (km/s) = 7.03641 7.24176 7.13983
#
# Compressibility (1/GPa) = 0.01459268
#
# Stress axis : x y z
#
# Youngs Moduli (GPa) = 71.18608 71.18608 151.08441
#
# Poissons Ratio (x) = 0.44578 0.28695
# Poissons Ratio (y) = 0.44578 0.28695
# Poissons Ratio (z) = 0.13520 0.13520
#
# Static dielectric constant tensor:
#      x y z
#    x 4.096150 0.000000 0.000000 
#    y 0.000000 4.096150 0.000000 
#    z 0.000000 0.000000 4.429930 
# 
# 
# High freq. dielectric constant tensor:
#      x y z
#    x 1.899050 0.000000 0.000000 
#    y 0.000000 1.899050 0.000000 
#    z 0.000000 0.000000 1.934640 
# 
# From -- ./inp_files/4660.got.cif
#   From: 2010.03.12/outbox.cif.g09.slc.cpg/sg88_3_cif.got.tgz:4660.got - 2010.04.08 20:20:55.
