data_PCOD8304091
_publ_section_title
;
Structure prediction by ZEFSAII (Michael W. Deem and Ramdas Pophale) SiO2 
 PCOD8304091
Probable space group: I 4/M
;
_chemical_formula_sum "Si O2"
_cell_formula_units_Z 96
_cell_length_a 15.596003
_cell_length_b 15.596003
_cell_length_c 19.845698
_cell_angle_alpha 90.000000
_cell_angle_beta 90.000000
_cell_angle_gamma 90.000000
_cell_volume 4827.174497
_symmetry_space_group_name_H-M "I 4/M"
_symmetry_group_IT_number 87
_symmetry_cell_setting 'tetragonal'
loop_
_space_group_symop_operation_xyz
x,y,z
-y,x,z
-x,-y,z
y,-x,z
-x,-y,-z
y,-x,-z
x,y,-z
-y,x,-z
1/2+x,1/2+y,1/2+z
1/2-y,1/2+x,1/2+z
1/2-x,1/2-y,1/2+z
1/2+y,1/2-x,1/2+z
1/2-x,1/2-y,1/2-z
1/2+y,1/2-x,1/2-z
1/2+x,1/2+y,1/2-z
1/2-y,1/2+x,1/2-z
loop_
_atom_site_type_symbol
_atom_site_label
_atom_site_fract_x
_atom_site_fract_y
_atom_site_fract_z
Si Si1 0.366768 0.782053 0.077020
Si Si2 0.372471 0.273366 0.662677
Si Si3 0.566178 0.379402 0.843958
Si Si4 0.878567 0.628636 0.258718
Si Si5 0.059331 0.798048 0.796528
Si Si6 0.484846 0.908684 0.861160
O O1 0.286372 0.838318 0.102471
O O2 0.381833 0.696618 0.120183
O O3 0.450860 0.841536 0.084149
O O4 0.352211 0.756221 0.000000
O O5 0.356829 0.225986 0.735153
O O6 0.316887 0.359640 0.655713
O O7 0.473176 0.299028 0.658314
O O8 0.614988 0.466435 0.865608
O O9 0.563343 0.367966 0.763140
O O10 0.795118 0.569110 0.263544
O O11 0.931358 0.584766 0.197473
O O12 0.929200 0.631509 0.328789
O O13 0.500000 0.000000 0.897560
#
# Coordination Sequence:
#
# PCOD8304091 Si02
#       6
#    16  16  16  16  16  16
#     4  11  26  45  60  84 127 177 222 254 297 379
#     4  11  23  36  59  92 124 159 203 258 319 375
#     4  11  23  41  67  99 132 160 202 261 328 390
#     4  11  17  32  54  91 123 151 194 246 322 380
#     4  12  21  35  62  98 126 155 193 264 330 379
#     4  11  18  32  58  89 122 160 200 257 320 377
#
# _framework density 19.887409000000002
#
# number of rings (size 3 to 8) (size 9 to 14) (size 15 to 20)
#    0.000    0.833    8.333    1.500    0.000    1.333 
#    0.000    1.667    0.000    0.000    0.000    1.167 
#    0.000    0.000    0.000    0.000    0.000    0.000 
#
# Total GULP energy -595110.716531 kJ/mol
# GULP energy per Si atom -12398.139928 kJ/mol
# Density = 1.984214 g / cm^3
# Si number density = 19.887409 Si / 1000 Ang^3
#
#
#
# Elastic Constant Matrix: (Units=GPa)
#
#
# Indices 1 2 3 4 5 6 
#
# 1 85.4667 26.3071 21.4784 0.0000 0.0000 7.7404
# 2 26.3071 85.4667 21.4784 0.0000 0.0000 -7.7404
# 3 21.4784 21.4784 63.1393 0.0000 0.0000 0.0000
# 4 0.0000 0.0000 0.0000 13.7776 0.0000 0.0000
# 5 0.0000 0.0000 0.0000 0.0000 13.7776 0.0000
# 6 7.7404 -7.7404 0.0000 0.0000 0.0000 32.9749
#
#
#
# Elastic Compliance Matrix: (Units=1/GPa)
#
#
# Indices 1 2 3 4 5 6 
#
# 1 0.014151 -0.003859 -0.003501 0.000000 0.000000 -0.004228
# 2 -0.003859 0.014151 -0.003501 0.000000 0.000000 0.004228
# 3 -0.003501 -0.003501 0.018220 0.000000 0.000000 0.000000
# 4 0.000000 0.000000 0.000000 0.072582 0.000000 0.000000
# 5 0.000000 0.000000 0.000000 0.000000 0.072582 0.000000
# 6 -0.004228 0.004228 0.000000 0.000000 0.000000 0.032311
#
#
# Mechanical properties :
#
#
# Convention : Reuss Voigt Hill
#
# Bulk Modulus (GPa) = 40.32289 41.40005 40.86147
# Shear Modulus (GPa) = 19.68623 23.09326 21.38975
#
# Velocity S-wave (km/s) = 3.14966 3.41134 3.28310
# Velocity P-wave (km/s) = 5.79195 6.03147 5.91293
#
# Compressibility (1/GPa) = 0.02479981
#
# Stress axis : x y z
#
# Youngs Moduli (GPa) = 70.66666 70.66665 54.88472
#
# Poissons Ratio (x) = 0.27268 0.19216
# Poissons Ratio (y) = 0.27268 0.19216
# Poissons Ratio (z) = 0.24741 0.24741
#
# Static dielectric constant tensor:
#      x y z
#    x 3.730100 0.000000 0.000000 
#    y 0.000000 3.730100 0.000000 
#    z 0.000000 0.000000 2.983310 
# 
# 
# High freq. dielectric constant tensor:
#      x y z
#    x 1.789780 0.000000 0.000000 
#    y 0.000000 1.789780 0.000000 
#    z 0.000000 0.000000 1.704280 
# 
# From -- ./inp_files/5274.got.cif
#   From: 2010.03.12/outbox.cif.g09.slc.cpg/sg87_3_cif.got.tgz:5274.got - 2010.04.08 20:16:13.
