data_PCOD8304595
_publ_section_title
;
Structure prediction by ZEFSAII (Michael W. Deem and Ramdas Pophale) SiO2 
 PCOD8304595
Probable space group: P 4 21 2
;
_chemical_formula_sum "Si O2"
_cell_formula_units_Z 24
_cell_length_a 12.010054
_cell_length_b 12.010054
_cell_length_c 8.477141
_cell_angle_alpha 90.000000
_cell_angle_beta 90.000000
_cell_angle_gamma 90.000000
_cell_volume 1222.754661
_symmetry_space_group_name_H-M "P 4 21 2"
_symmetry_group_IT_number 90
_symmetry_cell_setting 'tetragonal'
loop_
_space_group_symop_operation_xyz
x,y,z
1/2-y,1/2+x,z
-x,-y,z
1/2+y,1/2-x,z
1/2+x,1/2-y,-z
1/2-x,1/2+y,-z
y,x,-z
-y,-x,-z
loop_
_atom_site_type_symbol
_atom_site_label
_atom_site_fract_x
_atom_site_fract_y
_atom_site_fract_z
Si Si1 0.163366 0.784550 0.176247
Si Si2 0.287701 0.573872 0.296445
Si Si3 0.663904 0.515787 0.607077
O O1 0.201981 0.667947 0.246855
O O2 0.213186 0.887257 0.280714
O O3 0.029454 0.784299 0.175797
O O4 0.206912 0.793089 0.000000
O O5 0.251720 0.533793 0.474128
O O6 0.413775 0.620781 0.286954
O O7 0.565061 0.565061 0.500000
#
# Coordination Sequence:
#
# PCOD8304595 Si02
#       3
#     8   8   8
#     4  11  24  38  63  94 129 164 208 267 320 367
#     4  10  22  39  64  91 124 164 214 256 309 383
#     4   9  20  40  65  90 117 161 224 261 297 379
#
# _framework density 19.627811999999999
#
# number of rings (size 3 to 8) (size 9 to 14) (size 15 to 20)
#    0.000    2.000    0.000    7.000   18.667    2.000 
#    0.000    0.000    0.000    1.000    0.000    0.000 
#    0.000    0.000    0.000    0.000    0.000    0.000 
#
# Total GULP energy -297360.989939 kJ/mol
# GULP energy per Si atom -12390.041247 kJ/mol
# Density = 1.958314 g / cm^3
# Si number density = 19.627812 Si / 1000 Ang^3
#
#
#
# Elastic Constant Matrix: (Units=GPa)
#
#
# Indices 1 2 3 4 5 6 
#
# 1 70.8977 53.9057 51.5996 0.0000 0.0000 0.0000
# 2 53.9057 70.8975 51.5994 0.0000 0.0000 0.0000
# 3 51.5996 51.5994 120.4908 0.0000 0.0000 0.0000
# 4 0.0000 0.0000 0.0000 28.8114 0.0000 0.0000
# 5 0.0000 0.0000 0.0000 0.0000 28.8113 0.0000
# 6 0.0000 0.0000 0.0000 0.0000 0.0000 32.6136
#
#
#
# Elastic Compliance Matrix: (Units=1/GPa)
#
#
# Indices 1 2 3 4 5 6 
#
# 1 0.035629 -0.023223 -0.005313 0.000000 0.000000 0.000000
# 2 -0.023223 0.035629 -0.005313 0.000000 0.000000 0.000000
# 3 -0.005313 -0.005313 0.012850 0.000000 0.000000 0.000000
# 4 0.000000 0.000000 0.000000 0.034708 0.000000 0.000000
# 5 0.000000 0.000000 0.000000 0.000000 0.034709 0.000000
# 6 0.000000 0.000000 0.000000 0.000000 0.000000 0.030662
#
#
# Mechanical properties :
#
#
# Convention : Reuss Voigt Hill
#
# Bulk Modulus (GPa) = 60.93744 64.05504 62.49624
# Shear Modulus (GPa) = 19.42861 25.05936 22.24398
#
# Velocity S-wave (km/s) = 3.14960 3.57701 3.37009
# Velocity P-wave (km/s) = 6.65887 7.05448 6.85953
#
# Compressibility (1/GPa) = 0.01641027
#
# Stress axis : x y z
#
# Youngs Moduli (GPa) = 28.06735 28.06733 77.82354
#
# Poissons Ratio (x) = 0.65181 0.41345
# Poissons Ratio (y) = 0.65181 0.41344
# Poissons Ratio (z) = 0.14911 0.14911
#
# Static dielectric constant tensor:
#      x y z
#    x 3.590140 0.000000 0.000000 
#    y 0.000000 3.590140 0.000000 
#    z 0.000000 0.000000 3.844670 
# 
# 
# High freq. dielectric constant tensor:
#      x y z
#    x 1.750830 0.000000 0.000000 
#    y 0.000000 1.750830 0.000000 
#    z 0.000000 0.000000 1.758770 
# 
# From -- ./inp_files/904.got.cif
#   From: 2010.03.12/outbox.cif.g09.slc.cpg/sg90_1_cif.got.tgz:904.got - 2010.04.08 20:26:03.
