data_PCOD8304312
_publ_section_title
;
Structure prediction by ZEFSAII (Michael W. Deem and Ramdas Pophale) SiO2 
 PCOD8304312
Probable space group: I 41/A
;
_chemical_formula_sum "Si O2"
_cell_formula_units_Z 80
_cell_length_a 12.284638
_cell_length_b 12.284638
_cell_length_c 25.416531
_cell_angle_alpha 90.000000
_cell_angle_beta 90.000000
_cell_angle_gamma 90.000000
_cell_volume 3835.667934
_symmetry_space_group_name_H-M "I 41/A"
_symmetry_group_IT_number 88
_space_group.IT_coordinate_system_code '2'
_symmetry_cell_setting 'tetragonal'
loop_
_space_group_symop_operation_xyz
x,y,z
3/4-y,1/4+x,1/4+z
-x,1/2-y,z
1/4+y,1/4-x,1/4+z
-x,-y,-z
1/4+y,3/4-x,3/4-z
x,1/2+y,-z
3/4-y,3/4+x,3/4-z
1/2+x,1/2+y,1/2+z
1/4-y,3/4+x,3/4+z
1/2-x,-y,1/2+z
3/4+y,3/4-x,3/4+z
1/2-x,1/2-y,1/2-z
3/4+y,1/4-x,1/4-z
1/2+x,y,1/2-z
1/4-y,1/4+x,1/4-z
loop_
_atom_site_type_symbol
_atom_site_label
_atom_site_fract_x
_atom_site_fract_y
_atom_site_fract_z
Si Si1 0.102229 0.322828 0.331365
Si Si2 0.754522 0.807029 0.997090
Si Si3 0.677053 0.743304 0.616237
Si Si4 0.063554 0.424815 0.441809
Si Si5 0.592251 0.829120 0.220223
O O1 0.119304 0.407594 0.283448
O O2 0.216552 0.262165 0.345196
O O3 0.063484 0.379120 0.384129
O O4 0.000000 0.250000 0.312713
O O5 0.800721 0.750708 0.945360
O O6 0.664954 0.894602 0.979091
O O7 0.700417 0.707016 0.029298
O O8 0.604378 0.635508 0.622250
O O9 0.067866 0.554102 0.432765
O O10 0.955086 0.379771 0.470290
O O11 0.500000 0.750000 0.197597
#
# Coordination Sequence:
#
# PCOD8304312 Si02
#       5
#    16  16  16  16  16
#     4  11  24  41  63  94 123 162 209 259 313 378
#     4  10  22  38  61  95 121 162 211 255 309 367
#     4  10  24  44  65  88 125 170 210 260 319 370
#     4   9  19  40  61  86 128 170 198 251 318 364
#     4   9  18  38  62  88 123 164 207 252 308 377
#
# _framework density 20.856862
#
# number of rings (size 3 to 8) (size 9 to 14) (size 15 to 20)
#    0.000    2.200    0.000    3.000    5.600    4.000 
#   14.400    0.000    0.000    0.000    0.000    0.000 
#    0.000    0.000    0.000    0.000    0.000    0.000 
#
# Total GULP energy -495751.114261 kJ/mol
# GULP energy per Si atom -12393.777857 kJ/mol
# Density = 2.080939 g / cm^3
# Si number density = 20.856862 Si / 1000 Ang^3
#
#
#
# Elastic Constant Matrix: (Units=GPa)
#
#
# Indices 1 2 3 4 5 6 
#
# 1 103.7883 28.4602 5.5325 0.0000 0.0000 7.6120
# 2 28.4602 103.7883 5.5325 0.0000 0.0000 -7.6120
# 3 5.5325 5.5325 46.0369 0.0000 0.0000 0.0000
# 4 0.0000 0.0000 0.0000 18.2120 0.0000 0.0000
# 5 0.0000 0.0000 0.0000 0.0000 18.2120 0.0000
# 6 7.6120 -7.6120 0.0000 0.0000 0.0000 20.6925
#
#
#
# Elastic Compliance Matrix: (Units=1/GPa)
#
#
# Indices 1 2 3 4 5 6 
#
# 1 0.010990 -0.003352 -0.000918 0.000000 0.000000 -0.005276
# 2 -0.003352 0.010990 -0.000918 0.000000 0.000000 0.005276
# 3 -0.000918 -0.000918 0.021942 0.000000 0.000000 0.000000
# 4 0.000000 0.000000 0.000000 0.054909 0.000000 0.000000
# 5 0.000000 0.000000 0.000000 0.000000 0.054909 0.000000
# 6 -0.005276 0.005276 0.000000 0.000000 0.000000 0.052208
#
#
# Mechanical properties :
#
#
# Convention : Reuss Voigt Hill
#
# Bulk Modulus (GPa) = 29.80870 36.96265 33.38567
# Shear Modulus (GPa) = 21.97754 25.69589 23.83672
#
# Velocity S-wave (km/s) = 3.24965 3.51381 3.38431
# Velocity P-wave (km/s) = 5.32948 5.85004 5.59582
#
# Compressibility (1/GPa) = 0.03354725
#
# Stress axis : x y z
#
# Youngs Moduli (GPa) = 90.99260 90.99260 45.57401
#
# Poissons Ratio (x) = 0.30497 0.04183
# Poissons Ratio (y) = 0.30497 0.04183
# Poissons Ratio (z) = 0.08352 0.08352
#
# Static dielectric constant tensor:
#      x y z
#    x 3.884790 0.000000 0.000000 
#    y 0.000000 3.884790 0.000000 
#    z 0.000000 0.000000 3.557990 
# 
# 
# High freq. dielectric constant tensor:
#      x y z
#    x 1.818690 0.000000 0.000000 
#    y 0.000000 1.818690 0.000000 
#    z 0.000000 0.000000 1.804640 
# 
# From -- ./inp_files/6316.got.cif
#   From: 2010.03.12/outbox.cif.g09.slc.cpg/sg88_4_cif.got.tgz:6316.got - 2010.04.08 20:20:55.
