data_PCOD8304829
_publ_section_title
;
Structure prediction by ZEFSAII (Michael W. Deem and Ramdas Pophale) SiO2 
 PCOD8304829
Probable space group: P 41 2 2
;
_chemical_formula_sum "Si O2"
_cell_formula_units_Z 56
_cell_length_a 12.287949
_cell_length_b 12.287949
_cell_length_c 18.846881
_cell_angle_alpha 90.000000
_cell_angle_beta 90.000000
_cell_angle_gamma 90.000000
_cell_volume 2845.760119
_symmetry_space_group_name_H-M "P 41 2 2"
_symmetry_group_IT_number 91
_symmetry_cell_setting 'tetragonal'
loop_
_space_group_symop_operation_xyz
x,y,z
-y,x,1/4+z
-x,-y,1/2+z
y,-x,3/4+z
x,-y,1/2-z
-x,y,-z
y,x,3/4-z
-y,-x,1/4-z
loop_
_atom_site_type_symbol
_atom_site_label
_atom_site_fract_x
_atom_site_fract_y
_atom_site_fract_z
Si Si1 0.005825 0.386280 0.583854
Si Si2 0.189602 0.474731 0.106217
Si Si3 0.732928 0.142831 0.182125
Si Si4 0.496060 0.782218 0.308982
Si Si5 0.587286 0.547855 0.674842
Si Si6 0.021151 0.136736 0.583062
Si Si7 0.104920 0.245387 0.089415
O O1 0.123931 0.433793 0.603317
O O2 0.993734 0.260165 0.603845
O O3 0.000000 0.406130 0.500000
O O4 0.913532 0.450777 0.628725
O O5 0.295284 0.500020 0.152744
O O6 0.169924 0.347420 0.120465
O O7 0.209352 0.507639 0.025436
O O8 0.821425 0.178576 0.125000
O O9 0.623589 0.213670 0.170191
O O10 0.783258 0.154807 0.261599
O O11 0.708857 0.016666 0.168947
O O12 0.427204 0.676923 0.330127
O O13 0.558433 0.500000 0.750000
O O14 0.493664 0.506337 0.625000
O O15 0.145118 0.111713 0.606010
O O16 0.000000 0.115271 0.500000
O O17 0.941801 0.058200 0.625000
#
# Coordination Sequence:
#
# PCOD8304829 Si02
#       7
#     8   8   8   8   8   8   8
#     4   9  19  40  64  87 118 161 210 248 306 372
#     4  10  20  40  65  91 121 161 216 256 308 379
#     4  10  20  35  63  94 118 157 204 260 314 365
#     4  10  19  39  67  90 121 163 207 260 316 376
#     4  12  24  40  61  95 132 167 208 259 320 384
#     4  11  25  41  61  91 125 168 207 258 316 377
#     4  10  21  38  63  89 119 163 209 255 310 372
#
# _framework density 19.678395999999999
#
# number of rings (size 3 to 8) (size 9 to 14) (size 15 to 20)
#    0.000    1.714    2.857    1.714    4.000    0.571 
#    5.143    0.000    0.000    0.000    0.000    0.000 
#    0.000    0.000    0.000    0.000    0.000    0.000 
#
# Total GULP energy -694145.215859 kJ/mol
# GULP energy per Si atom -12395.450283 kJ/mol
# Density = 1.963361 g / cm^3
# Si number density = 19.678396 Si / 1000 Ang^3
#
#
#
# Elastic Constant Matrix: (Units=GPa)
#
#
# Indices 1 2 3 4 5 6 
#
# 1 107.0629 60.0421 32.1720 0.0000 0.0000 0.0000
# 2 60.0421 107.0585 32.1768 0.0000 0.0000 0.0000
# 3 32.1720 32.1768 56.0471 0.0000 0.0000 0.0000
# 4 0.0000 0.0000 0.0000 50.1195 0.0000 0.0000
# 5 0.0000 0.0000 0.0000 0.0000 50.1168 0.0000
# 6 0.0000 0.0000 0.0000 0.0000 0.0000 33.8707
#
#
#
# Elastic Compliance Matrix: (Units=1/GPa)
#
#
# Indices 1 2 3 4 5 6 
#
# 1 0.014475 -0.006793 -0.004409 0.000000 0.000000 0.000000
# 2 -0.006793 0.014476 -0.004412 0.000000 0.000000 0.000000
# 3 -0.004409 -0.004412 0.022906 0.000000 0.000000 0.000000
# 4 0.000000 0.000000 0.000000 0.019952 0.000000 0.000000
# 5 0.000000 0.000000 0.000000 0.000000 0.019953 0.000000
# 6 0.000000 0.000000 0.000000 0.000000 0.000000 0.029524
#
#
# Mechanical properties :
#
#
# Convention : Reuss Voigt Hill
#
# Bulk Modulus (GPa) = 48.47358 57.66113 53.06735
# Shear Modulus (GPa) = 31.36965 36.53990 33.95478
#
# Velocity S-wave (km/s) = 3.99697 4.31380 4.15840
# Velocity P-wave (km/s) = 6.78140 7.36051 7.07688
#
# Compressibility (1/GPa) = 0.02062980
#
# Stress axis : x y z
#
# Youngs Moduli (GPa) = 69.08644 69.07870 43.65725
#
# Poissons Ratio (x) = 0.46923 0.19248
# Poissons Ratio (y) = 0.46929 0.19260
# Poissons Ratio (z) = 0.30460 0.30475
#
# Static dielectric constant tensor:
#      x y z
#    x 3.649160 0.000000 0.000000 
#    y 0.000000 3.649160 0.000000 
#    z 0.000000 0.000000 3.394790 
# 
# 
# High freq. dielectric constant tensor:
#      x y z
#    x 1.776410 0.000000 0.000000 
#    y 0.000000 1.776410 0.000000 
#    z 0.000000 0.000000 1.740830 
# 
# From -- ./inp_files/6378.got.cif
#   From: 2010.03.12/outbox.cif.g09.slc.cpg/sg91_4_cif.got.tgz:6378.got - 2010.04.08 20:27:58.
