data_PCOD8304146
_publ_section_title
;
Structure prediction by ZEFSAII (Michael W. Deem and Ramdas Pophale) SiO2 
 PCOD8304146
Probable space group: I 4/M
;
_chemical_formula_sum "Si O2"
_cell_formula_units_Z 88
_cell_length_a 11.011167
_cell_length_b 11.011167
_cell_length_c 32.014264
_cell_angle_alpha 90.000000
_cell_angle_beta 90.000000
_cell_angle_gamma 90.000000
_cell_volume 3881.595009
_symmetry_space_group_name_H-M "I 4/M"
_symmetry_group_IT_number 87
_symmetry_cell_setting 'tetragonal'
loop_
_space_group_symop_operation_xyz
x,y,z
-y,x,z
-x,-y,z
y,-x,z
-x,-y,-z
y,-x,-z
x,y,-z
-y,x,-z
1/2+x,1/2+y,1/2+z
1/2-y,1/2+x,1/2+z
1/2-x,1/2-y,1/2+z
1/2+y,1/2-x,1/2+z
1/2-x,1/2-y,1/2-z
1/2+y,1/2-x,1/2-z
1/2+x,1/2+y,1/2-z
1/2-y,1/2+x,1/2-z
loop_
_atom_site_type_symbol
_atom_site_label
_atom_site_fract_x
_atom_site_fract_y
_atom_site_fract_z
Si Si1 0.904774 0.171594 0.811445
Si Si2 0.915606 0.182849 0.904953
Si Si3 0.497815 0.298576 0.000000
Si Si4 0.937665 0.327411 0.740808
Si Si5 0.997277 0.200880 0.345725
Si Si6 0.552505 0.865494 0.077231
O O1 0.885079 0.224147 0.857624
O O2 0.853613 0.252311 0.773474
O O3 0.046848 0.161265 0.805388
O O4 0.870986 0.300648 0.930293
O O5 0.058766 0.158317 0.914269
O O6 0.618485 0.378915 0.000000
O O7 0.502598 0.215294 0.040681
O O8 0.863780 0.447582 0.729431
O O9 0.984162 0.256899 0.700255
O O10 0.005085 0.308015 0.379460
O O11 0.878519 0.118265 0.351833
O O12 0.500000 0.000000 0.074721
#
# Coordination Sequence:
#
# PCOD8304146 Si02
#       6
#    16  16   8  16  16  16
#     4   9  18  35  57  80 117 171 227 274 327 394
#     4   9  21  40  66 102 141 186 231 283 348 410
#     4  11  27  54  82 109 144 184 226 283 355 430
#     4  11  24  36  55  89 132 177 238 296 356 411
#     4  11  26  45  67 100 140 189 243 301 363 426
#     4  12  27  44  77 108 140 182 233 290 349 426
#
# _framework density 22.671092000000002
#
# number of rings (size 3 to 8) (size 9 to 14) (size 15 to 20)
#    0.000    1.545    0.000    4.636   10.182    7.273 
#    0.000    0.000    0.000    1.091    0.000    0.000 
#    0.000    0.000    0.000    0.000    0.000    0.000 
#
# Total GULP energy -545265.131557 kJ/mol
# GULP energy per Si atom -12392.389354 kJ/mol
# Density = 2.261949 g / cm^3
# Si number density = 22.671092 Si / 1000 Ang^3
#
#
#
# Elastic Constant Matrix: (Units=GPa)
#
#
# Indices 1 2 3 4 5 6 
#
# 1 97.9168 16.0750 34.2637 0.0000 0.0000 0.0997
# 2 16.0750 97.9168 34.2637 0.0000 0.0000 -0.0997
# 3 34.2637 34.2637 59.1249 0.0000 0.0000 0.0000
# 4 0.0000 0.0000 0.0000 36.1606 0.0000 0.0000
# 5 0.0000 0.0000 0.0000 0.0000 36.1606 0.0000
# 6 0.0997 -0.0997 0.0000 0.0000 0.0000 9.4863
#
#
#
# Elastic Compliance Matrix: (Units=1/GPa)
#
#
# Indices 1 2 3 4 5 6 
#
# 1 0.012841 0.000622 -0.007802 0.000000 0.000000 -0.000128
# 2 0.000622 0.012841 -0.007802 0.000000 0.000000 0.000128
# 3 -0.007802 -0.007802 0.025956 0.000000 0.000000 0.000000
# 4 0.000000 0.000000 0.000000 0.027654 0.000000 0.000000
# 5 0.000000 0.000000 0.000000 0.000000 0.027654 0.000000
# 6 -0.000128 0.000128 0.000000 0.000000 0.000000 0.105417
#
#
# Mechanical properties :
#
#
# Convention : Reuss Voigt Hill
#
# Bulk Modulus (GPa) = 46.13825 47.12927 46.63376
# Shear Modulus (GPa) = 20.03591 27.71860 23.87725
#
# Velocity S-wave (km/s) = 2.97604 3.50042 3.24883
# Velocity P-wave (km/s) = 5.67489 6.09677 5.88961
#
# Compressibility (1/GPa) = 0.02167399
#
# Stress axis : x y z
#
# Youngs Moduli (GPa) = 77.87643 77.87643 38.52692
#
# Poissons Ratio (x) = -0.04843 0.30058
# Poissons Ratio (y) = -0.04843 0.30058
# Poissons Ratio (z) = 0.60758 0.60758
#
# Static dielectric constant tensor:
#      x y z
#    x 4.203390 0.000000 0.000000 
#    y 0.000000 4.203390 0.000000 
#    z 0.000000 0.000000 3.896530 
# 
# 
# High freq. dielectric constant tensor:
#      x y z
#    x 1.909520 0.000000 0.000000 
#    y 0.000000 1.909520 0.000000 
#    z 0.000000 0.000000 1.873690 
# 
# From -- ./inp_files/6584.got.cif
#   From: 2010.03.12/outbox.cif.g09.slc.cpg/sg87_4_cif.got.tgz:6584.got - 2010.04.08 20:16:13.
