data_PCOD8304204
_publ_section_title
;
Structure prediction by ZEFSAII (Michael W. Deem and Ramdas Pophale) SiO2 
 PCOD8304204
Probable space group: I 41/A
;
_chemical_formula_sum "Si O2"
_cell_formula_units_Z 120
_cell_length_a 16.555935
_cell_length_b 16.555935
_cell_length_c 22.980065
_cell_angle_alpha 90.000000
_cell_angle_beta 90.000000
_cell_angle_gamma 90.000000
_cell_volume 6298.812462
_symmetry_space_group_name_H-M "I 41/A"
_symmetry_group_IT_number 88
_space_group.IT_coordinate_system_code '2'
_symmetry_cell_setting 'tetragonal'
loop_
_space_group_symop_operation_xyz
x,y,z
3/4-y,1/4+x,1/4+z
-x,1/2-y,z
1/4+y,1/4-x,1/4+z
-x,-y,-z
1/4+y,3/4-x,3/4-z
x,1/2+y,-z
3/4-y,3/4+x,3/4-z
1/2+x,1/2+y,1/2+z
1/4-y,3/4+x,3/4+z
1/2-x,-y,1/2+z
3/4+y,3/4-x,3/4+z
1/2-x,1/2-y,1/2-z
3/4+y,1/4-x,1/4-z
1/2+x,y,1/2-z
1/4-y,1/4+x,1/4-z
loop_
_atom_site_type_symbol
_atom_site_label
_atom_site_fract_x
_atom_site_fract_y
_atom_site_fract_z
Si Si1 0.742229 0.300159 0.485947
Si Si2 0.613137 0.874215 0.598745
Si Si3 0.436139 0.515122 0.134379
Si Si4 0.150481 0.563151 0.531291
Si Si5 0.616962 0.044617 0.900896
Si Si6 0.220382 0.940727 0.680657
Si Si7 0.500000 0.750000 0.702056
Si Si8 0.093796 0.396450 0.228229
O O1 0.680475 0.328897 0.437289
O O2 0.721796 0.325558 0.552890
O O3 0.829239 0.340053 0.470584
O O4 0.733964 0.202811 0.480746
O O5 0.527399 0.828782 0.587538
O O6 0.633682 0.875396 0.666846
O O7 0.617056 0.968726 0.582379
O O8 0.411242 0.452401 0.083825
O O9 0.379890 0.594412 0.131438
O O10 0.528252 0.542069 0.126545
O O11 0.110813 0.535404 0.470580
O O12 0.234570 0.515735 0.538803
O O13 0.672510 0.971750 0.876340
O O14 0.161413 0.896293 0.724158
O O15 0.528958 0.824486 0.742346
#
# Coordination Sequence:
#
# PCOD8304204 Si02
#       8
#    16  16  16  16  16  16   8  16
#     4   9  19  35  54  78 111 143 183 236 285 322
#     4  10  20  34  55  79 104 146 185 229 274 339
#     4  10  19  34  56  81 110 147 181 238 283 343
#     4   9  19  34  56  81 105 142 190 225 277 352
#     4  10  19  34  54  84 111 142 187 227 291 336
#     4  10  20  33  54  82 107 139 183 238 273 323
#     4  10  21  36  52  74 104 144 186 216 279 338
#     4  11  19  35  55  74 111 143 179 234 277 331
#
# _framework density 19.051210000000001
#
# number of rings (size 3 to 8) (size 9 to 14) (size 15 to 20)
#    0.000    2.133    1.333    3.200    0.000    4.000 
#    0.000    2.667    0.000    0.000    0.000    0.000 
#    0.000    0.000    0.000    0.000    0.000    0.000 
#
# Total GULP energy -743321.029825 kJ/mol
# GULP energy per Si atom -12388.683830 kJ/mol
# Density = 1.900785 g / cm^3
# Si number density = 19.051210 Si / 1000 Ang^3
#
#
#
# Elastic Constant Matrix: (Units=GPa)
#
#
# Indices 1 2 3 4 5 6 
#
# 1 91.5907 37.4171 33.7773 0.0000 0.0000 -5.4160
# 2 37.4171 91.5907 33.7773 0.0000 0.0000 5.4160
# 3 33.7773 33.7773 100.4857 0.0000 0.0000 0.0000
# 4 0.0000 0.0000 0.0000 25.1377 0.0000 0.0000
# 5 0.0000 0.0000 0.0000 0.0000 25.1377 0.0000
# 6 -5.4160 5.4160 0.0000 0.0000 0.0000 28.4637
#
#
#
# Elastic Compliance Matrix: (Units=1/GPa)
#
#
# Indices 1 2 3 4 5 6 
#
# 1 0.014298 -0.004891 -0.003162 0.000000 0.000000 0.003651
# 2 -0.004891 0.014298 -0.003162 0.000000 0.000000 -0.003651
# 3 -0.003162 -0.003162 0.012078 0.000000 0.000000 0.000000
# 4 0.000000 0.000000 0.000000 0.039781 0.000000 0.000000
# 5 0.000000 0.000000 0.000000 0.000000 0.039781 0.000000
# 6 0.003651 -0.003651 0.000000 0.000000 0.000000 0.036522
#
#
# Mechanical properties :
#
#
# Convention : Reuss Voigt Hill
#
# Bulk Modulus (GPa) = 54.81409 54.84559 54.82984
# Shear Modulus (GPa) = 26.98768 27.66084 27.32426
#
# Velocity S-wave (km/s) = 3.76784 3.81454 3.79126
# Velocity P-wave (km/s) = 6.91110 6.94636 6.92875
#
# Compressibility (1/GPa) = 0.01824348
#
# Stress axis : x y z
#
# Youngs Moduli (GPa) = 69.93838 69.93838 82.79833
#
# Poissons Ratio (x) = 0.34207 0.26182
# Poissons Ratio (y) = 0.34207 0.26182
# Poissons Ratio (z) = 0.22116 0.22116
#
# Static dielectric constant tensor:
#      x y z
#    x 3.667700 0.000000 0.000000 
#    y 0.000000 3.667700 0.000000 
#    z 0.000000 0.000000 3.529730 
# 
# 
# High freq. dielectric constant tensor:
#      x y z
#    x 1.728690 0.000000 0.000000 
#    y 0.000000 1.728690 0.000000 
#    z 0.000000 0.000000 1.748810 
# 
# From -- ./inp_files/4859.got.cif
#   From: 2010.03.12/outbox.cif.g09.slc.cpg/sg88_3_cif.got.tgz:4859.got - 2010.04.08 20:20:55.
