data_PCOD8304849
_publ_section_title
;
Structure prediction by ZEFSAII (Michael W. Deem and Ramdas Pophale) SiO2 
 PCOD8304849
Probable space group: P 41 2 2
;
_chemical_formula_sum "Si O2"
_cell_formula_units_Z 44
_cell_length_a 11.665757
_cell_length_b 11.665757
_cell_length_c 16.937758
_cell_angle_alpha 90.000000
_cell_angle_beta 90.000000
_cell_angle_gamma 90.000000
_cell_volume 2305.057562
_symmetry_space_group_name_H-M "P 41 2 2"
_symmetry_group_IT_number 91
_symmetry_cell_setting 'tetragonal'
loop_
_space_group_symop_operation_xyz
x,y,z
-y,x,1/4+z
-x,-y,1/2+z
y,-x,3/4+z
x,-y,1/2-z
-x,y,-z
y,x,3/4-z
-y,-x,1/4-z
loop_
_atom_site_type_symbol
_atom_site_label
_atom_site_fract_x
_atom_site_fract_y
_atom_site_fract_z
Si Si1 0.859144 0.859144 0.875000
Si Si2 0.000000 0.633514 0.500000
Si Si3 0.292936 0.240992 0.248669
Si Si4 0.882573 0.151388 0.033593
Si Si5 0.922342 0.261032 0.356298
Si Si6 0.743520 0.500000 0.750000
Si Si7 0.546715 0.904986 0.859359
O O1 0.822506 0.777150 0.800839
O O2 0.992902 0.836687 0.893037
O O3 0.890516 0.711413 0.476960
O O4 0.970895 0.561095 0.576128
O O5 0.272088 0.190858 0.160788
O O6 0.326340 0.377793 0.247139
O O7 0.392176 0.166257 0.289472
O O8 0.875884 0.124117 0.125000
O O9 0.773033 0.110115 0.983173
O O10 0.000000 0.093295 0.000000
O O11 0.995434 0.376605 0.352638
O O12 0.819256 0.502360 0.672809
#
# Coordination Sequence:
#
# PCOD8304849 Si02
#       7
#     4   4   8   8   8   4   8
#     4  10  20  34  60  88 130 156 208 258 314 392
#     4  10  22  42  64  84 130 172 210 266 320 398
#     4  11  21  39  58  98 121 166 212 271 317 377
#     4  10  26  40  58  93 130 169 207 254 332 402
#     4  11  22  37  60  88 130 164 211 259 328 388
#     4  12  22  34  64  90 128 158 216 264 328 380
#     4  11  21  40  64  93 125 171 218 269 322 385
#
# _framework density 19.088460000000001
#
# number of rings (size 3 to 8) (size 9 to 14) (size 15 to 20)
#    0.545    0.727    5.455    2.727    6.364    0.000 
#    0.000    0.000    0.000    2.182    0.000    1.273 
#    0.000    0.000    0.000    0.000    0.000    0.000 
#
# Total GULP energy -545204.567477 kJ/mol
# GULP energy per Si atom -12391.012897 kJ/mol
# Density = 1.904501 g / cm^3
# Si number density = 19.088460 Si / 1000 Ang^3
#
#
#
# Elastic Constant Matrix: (Units=GPa)
#
#
# Indices 1 2 3 4 5 6 
#
# 1 101.4688 25.0527 30.1304 0.0000 0.0000 0.0000
# 2 25.0527 101.4690 30.1305 0.0000 0.0000 0.0000
# 3 30.1304 30.1305 127.8659 0.0000 0.0000 0.0000
# 4 0.0000 0.0000 0.0000 32.7422 0.0000 0.0000
# 5 0.0000 0.0000 0.0000 0.0000 32.7421 0.0000
# 6 0.0000 0.0000 0.0000 0.0000 0.0000 140.3741
#
#
#
# Elastic Compliance Matrix: (Units=1/GPa)
#
#
# Indices 1 2 3 4 5 6 
#
# 1 0.010995 -0.002092 -0.002098 0.000000 0.000000 0.000000
# 2 -0.002092 0.010995 -0.002098 0.000000 0.000000 0.000000
# 3 -0.002098 -0.002098 0.008809 0.000000 0.000000 0.000000
# 4 0.000000 0.000000 0.000000 0.030542 0.000000 0.000000
# 5 0.000000 0.000000 0.000000 0.000000 0.030542 0.000000
# 6 0.000000 0.000000 0.000000 0.000000 0.000000 0.007124
#
#
# Mechanical properties :
#
#
# Convention : Reuss Voigt Hill
#
# Bulk Modulus (GPa) = 54.87341 55.71453 55.29397
# Shear Modulus (GPa) = 42.49702 57.53769 50.01736
#
# Velocity S-wave (km/s) = 4.72351 5.49619 5.12443
# Velocity P-wave (km/s) = 7.65232 8.33837 8.00270
#
# Compressibility (1/GPa) = 0.01822376
#
# Stress axis : x y z
#
# Youngs Moduli (GPa) = 90.95352 90.95366 113.51501
#
# Poissons Ratio (x) = 0.19024 0.23814
# Poissons Ratio (y) = 0.19024 0.23815
# Poissons Ratio (z) = 0.19081 0.19081
#
# Static dielectric constant tensor:
#      x y z
#    x 3.514670 0.000000 0.000000 
#    y 0.000000 3.514680 0.000000 
#    z 0.000000 0.000000 3.607360 
# 
# 
# High freq. dielectric constant tensor:
#      x y z
#    x 1.727990 0.000000 0.000000 
#    y 0.000000 1.727990 0.000000 
#    z 0.000000 0.000000 1.745680 
# 
# From -- ./inp_files/5549.got.cif
#   From: 2010.03.12/outbox.cif.g09.slc.cpg/sg91_3_cif.got.tgz:5549.got - 2010.04.08 20:27:58.
