data_PCOD8304315
_publ_section_title
;
Structure prediction by ZEFSAII (Michael W. Deem and Ramdas Pophale) SiO2 
 PCOD8304315
Probable space group: I 41/A
;
_chemical_formula_sum "Si O2"
_cell_formula_units_Z 88
_cell_length_a 11.871501
_cell_length_b 11.871501
_cell_length_c 30.392492
_cell_angle_alpha 90.000000
_cell_angle_beta 90.000000
_cell_angle_gamma 90.000000
_cell_volume 4283.290973
_symmetry_space_group_name_H-M "I 41/A"
_symmetry_group_IT_number 88
_space_group.IT_coordinate_system_code '2'
_symmetry_cell_setting 'tetragonal'
loop_
_space_group_symop_operation_xyz
x,y,z
3/4-y,1/4+x,1/4+z
-x,1/2-y,z
1/4+y,1/4-x,1/4+z
-x,-y,-z
1/4+y,3/4-x,3/4-z
x,1/2+y,-z
3/4-y,3/4+x,3/4-z
1/2+x,1/2+y,1/2+z
1/4-y,3/4+x,3/4+z
1/2-x,-y,1/2+z
3/4+y,3/4-x,3/4+z
1/2-x,1/2-y,1/2-z
3/4+y,1/4-x,1/4-z
1/2+x,y,1/2-z
1/4-y,1/4+x,1/4-z
loop_
_atom_site_type_symbol
_atom_site_label
_atom_site_fract_x
_atom_site_fract_y
_atom_site_fract_z
Si Si1 0.741221 0.867490 0.775991
Si Si2 0.071194 0.419097 0.121673
Si Si3 0.623667 0.911146 0.917501
Si Si4 0.500000 0.250000 0.732555
Si Si5 0.632330 0.950237 0.219836
Si Si6 0.973397 0.118880 0.323777
O O1 0.750000 0.750000 0.750000
O O2 0.785181 0.853082 0.824747
O O3 0.610123 0.897229 0.782139
O O4 0.803463 0.976483 0.756687
O O5 0.145069 0.310221 0.130575
O O6 0.097014 0.506945 0.160948
O O7 0.543551 0.847330 0.951079
O O8 0.568542 0.928317 0.870110
O O9 0.635660 0.032970 0.938378
O O10 0.452793 0.144612 0.761191
O O11 0.578811 0.043881 0.188478
O O12 0.000000 0.250000 0.329893
#
# Coordination Sequence:
#
# PCOD8304315 Si02
#       6
#    16  16  16   8  16  16
#     4  11  22  39  66  97 133 171 224 285 350 401
#     4  10  22  38  62  98 133 173 221 279 351 419
#     4  11  25  43  69  92 136 179 227 278 337 411
#     4  12  26  46  67  98 138 186 230 280 341 402
#     4  12  26  43  69 100 138 176 234 283 342 411
#     4  11  24  44  69  98 134 181 222 283 350 417
#
# _framework density 20.544951999999999
#
# number of rings (size 3 to 8) (size 9 to 14) (size 15 to 20)
#    0.000    0.909    2.727    3.818    2.545    7.273 
#    0.000    0.000    0.000    0.000    0.000    0.000 
#    0.000    0.000    0.000    0.000    0.000    0.000 
#
# Total GULP energy -545494.261821 kJ/mol
# GULP energy per Si atom -12397.596860 kJ/mol
# Density = 2.049819 g / cm^3
# Si number density = 20.544952 Si / 1000 Ang^3
#
#
#
# Elastic Constant Matrix: (Units=GPa)
#
#
# Indices 1 2 3 4 5 6 
#
# 1 146.2871 -42.6871 25.1385 0.0000 0.0000 121.6130
# 2 -42.6871 146.2871 25.1385 0.0000 0.0000 -121.6130
# 3 25.1385 25.1385 73.9532 0.0000 0.0000 0.0000
# 4 0.0000 0.0000 0.0000 39.2322 0.0000 0.0000
# 5 0.0000 0.0000 0.0000 0.0000 39.2322 0.0000
# 6 121.6130 -121.6130 0.0000 0.0000 0.0000 338.4431
#
#
#
# Elastic Compliance Matrix: (Units=1/GPa)
#
#
# Indices 1 2 3 4 5 6 
#
# 1 0.010702 0.000857 -0.003929 0.000000 0.000000 -0.003538
# 2 0.000857 0.010702 -0.003929 0.000000 0.000000 0.003538
# 3 -0.003929 -0.003929 0.016193 0.000000 0.000000 0.000000
# 4 0.000000 0.000000 0.000000 0.025489 0.000000 0.000000
# 5 0.000000 0.000000 0.000000 0.000000 0.025489 0.000000
# 6 -0.003538 0.003538 0.000000 0.000000 0.000000 0.005497
#
#
# Mechanical properties :
#
#
# Convention : Reuss Voigt Hill
#
# Bulk Modulus (GPa) = 42.38201 42.41193 42.39697
# Shear Modulus (GPa) = 43.12542 107.31069 75.21806
#
# Velocity S-wave (km/s) = 4.58654 7.23502 6.05730
# Velocity P-wave (km/s) = 6.98012 9.51222 8.34280
#
# Compressibility (1/GPa) = 0.02359492
#
# Stress axis : x y z
#
# Youngs Moduli (GPa) = 93.43929 93.43928 61.75357
#
# Poissons Ratio (x) = -0.08010 0.24265
# Poissons Ratio (y) = -0.08010 0.24265
# Poissons Ratio (z) = 0.36715 0.36715
#
# Static dielectric constant tensor:
#      x y z
#    x 4.737540 0.000000 0.000000 
#    y 0.000000 4.737540 0.000000 
#    z 0.000000 0.000000 3.809310 
# 
# 
# High freq. dielectric constant tensor:
#      x y z
#    x 1.814510 0.000000 0.000000 
#    y 0.000000 1.814510 0.000000 
#    z 0.000000 0.000000 1.815490 
# 
# From -- ./inp_files/6454.got.cif
#   From: 2010.03.12/outbox.cif.g09.slc.cpg/sg88_4_cif.got.tgz:6454.got - 2010.04.08 20:20:55.
