data_PCOD8304815
_publ_section_title
;
Structure prediction by ZEFSAII (Michael W. Deem and Ramdas Pophale) SiO2 
 PCOD8304815
Probable space group: P 41 2 2
;
_chemical_formula_sum "Si O2"
_cell_formula_units_Z 40
_cell_length_a 9.029723
_cell_length_b 9.029723
_cell_length_c 25.970537
_cell_angle_alpha 90.000000
_cell_angle_beta 90.000000
_cell_angle_gamma 90.000000
_cell_volume 2117.531042
_symmetry_space_group_name_H-M "P 41 2 2"
_symmetry_group_IT_number 91
_symmetry_cell_setting 'tetragonal'
loop_
_space_group_symop_operation_xyz
x,y,z
-y,x,1/4+z
-x,-y,1/2+z
y,-x,3/4+z
x,-y,1/2-z
-x,y,-z
y,x,3/4-z
-y,-x,1/4-z
loop_
_atom_site_type_symbol
_atom_site_label
_atom_site_fract_x
_atom_site_fract_y
_atom_site_fract_z
Si Si1 0.589542 0.907315 0.047904
Si Si2 0.878567 0.364831 0.345416
Si Si3 0.150968 0.961762 0.022131
Si Si4 0.308964 0.450581 0.110299
Si Si5 0.066219 0.362610 0.446035
O O1 0.597850 0.780537 0.089715
O O2 0.509739 0.054905 0.068418
O O3 0.500000 0.839059 0.000000
O O4 0.751806 0.951159 0.029500
O O5 0.701931 0.376499 0.338729
O O6 0.932297 0.217688 0.315628
O O7 0.934412 0.359340 0.404259
O O8 0.131523 0.801425 0.047995
O O9 0.000000 0.030147 0.000000
O O10 0.441770 0.558231 0.125000
O O11 0.200102 0.529287 0.069754
O O12 0.000000 0.420529 0.500000
#
# Coordination Sequence:
#
# PCOD8304815 Si02
#       5
#     8   8   8   8   8
#     4   9  19  37  55  76 108 141 176 221 268 318
#     4  10  21  36  53  81 115 141 175 226 279 322
#     4  10  19  36  60  81 102 140 185 226 271 320
#     4  11  21  35  56  81 110 145 180 220 270 328
#     4  10  20  36  59  83 107 143 190 227 263 324
#
# _framework density 18.889921999999999
#
# number of rings (size 3 to 8) (size 9 to 14) (size 15 to 20)
#    0.000    2.000    0.000    6.600    0.000    0.800 
#    0.000   19.000    0.000    0.000    0.000    0.000 
#    0.000    0.000    0.000    0.000    0.000    0.000 
#
# Total GULP energy -495992.781827 kJ/mol
# GULP energy per Si atom -12399.819546 kJ/mol
# Density = 1.884693 g / cm^3
# Si number density = 18.889922 Si / 1000 Ang^3
#
#
#
# Elastic Constant Matrix: (Units=GPa)
#
#
# Indices 1 2 3 4 5 6 
#
# 1 113.1432 38.1997 35.2179 0.0000 0.0000 0.0000
# 2 38.1997 113.1419 35.2176 0.0000 0.0000 0.0000
# 3 35.2179 35.2176 108.4014 0.0000 0.0000 0.0000
# 4 0.0000 0.0000 0.0000 22.4172 0.0000 0.0000
# 5 0.0000 0.0000 0.0000 0.0000 22.4208 0.0000
# 6 0.0000 0.0000 0.0000 0.0000 0.0000 10.0631
#
#
#
# Elastic Compliance Matrix: (Units=1/GPa)
#
#
# Indices 1 2 3 4 5 6 
#
# 1 0.010564 -0.002779 -0.002529 0.000000 0.000000 0.000000
# 2 -0.002779 0.010564 -0.002529 0.000000 0.000000 0.000000
# 3 -0.002529 -0.002529 0.010868 0.000000 0.000000 0.000000
# 4 0.000000 0.000000 0.000000 0.044609 0.000000 0.000000
# 5 0.000000 0.000000 0.000000 0.000000 0.044601 0.000000
# 6 0.000000 0.000000 0.000000 0.000000 0.000000 0.099373
#
#
# Mechanical properties :
#
#
# Convention : Reuss Voigt Hill
#
# Bulk Modulus (GPa) = 61.27023 61.32855 61.29939
# Shear Modulus (GPa) = 20.68721 26.05029 23.36875
#
# Velocity S-wave (km/s) = 3.31289 3.71760 3.52106
# Velocity P-wave (km/s) = 6.86582 7.13892 7.00370
#
# Compressibility (1/GPa) = 0.01632114
#
# Stress axis : x y z
#
# Youngs Moduli (GPa) = 94.66120 94.66021 92.01090
#
# Poissons Ratio (x) = 0.26310 0.23270
# Poissons Ratio (y) = 0.26311 0.23270
# Poissons Ratio (z) = 0.23941 0.23940
#
# Static dielectric constant tensor:
#      x y z
#    x 3.519500 0.000000 0.000000 
#    y 0.000000 3.519380 0.000000 
#    z 0.000000 0.000000 3.698450 
# 
# 
# High freq. dielectric constant tensor:
#      x y z
#    x 1.728650 0.000000 0.000000 
#    y 0.000000 1.728650 0.000000 
#    z 0.000000 0.000000 1.746810 
# 
# From -- ./inp_files/6759.got.cif
#   From: 2010.03.12/outbox.cif.g09.slc.cpg/sg91_4_cif.got.tgz:6759.got - 2010.04.08 20:27:58.
