data_PCOD8304240
_publ_section_title
;
Structure prediction by ZEFSAII (Michael W. Deem and Ramdas Pophale) SiO2 
 PCOD8304240
Probable space group: I 41/A
;
_chemical_formula_sum "Si O2"
_cell_formula_units_Z 64
_cell_length_a 10.324154
_cell_length_b 10.324154
_cell_length_c 23.147700
_cell_angle_alpha 90.000000
_cell_angle_beta 90.000000
_cell_angle_gamma 90.000000
_cell_volume 2467.270654
_symmetry_space_group_name_H-M "I 41/A"
_symmetry_group_IT_number 88
_space_group.IT_coordinate_system_code '2'
_symmetry_cell_setting 'tetragonal'
loop_
_space_group_symop_operation_xyz
x,y,z
3/4-y,1/4+x,1/4+z
-x,1/2-y,z
1/4+y,1/4-x,1/4+z
-x,-y,-z
1/4+y,3/4-x,3/4-z
x,1/2+y,-z
3/4-y,3/4+x,3/4-z
1/2+x,1/2+y,1/2+z
1/4-y,3/4+x,3/4+z
1/2-x,-y,1/2+z
3/4+y,3/4-x,3/4+z
1/2-x,1/2-y,1/2-z
3/4+y,1/4-x,1/4-z
1/2+x,y,1/2-z
1/4-y,1/4+x,1/4-z
loop_
_atom_site_type_symbol
_atom_site_label
_atom_site_fract_x
_atom_site_fract_y
_atom_site_fract_z
Si Si1 0.871083 0.147332 0.803950
Si Si2 0.867076 0.954432 0.242732
Si Si3 0.664379 0.361670 0.361554
Si Si4 0.965786 0.456585 0.635051
O O1 0.735053 0.373315 0.746799
O O2 0.829514 0.278142 0.840352
O O3 0.019925 0.145760 0.780175
O O4 0.848132 0.035636 0.850857
O O5 0.923446 0.011417 0.302653
O O6 0.837452 0.073217 0.201159
O O7 0.659002 0.208389 0.350832
O O8 0.861237 0.355612 0.610720
#
# Coordination Sequence:
#
# PCOD8304240 Si02
#       4
#    16  16  16  16
#     4  10  20  36  58  88 118 154 202 246 300 366
#     4  10  20  36  60  84 122 162 196 252 308 350
#     4   9  19  36  57  84 118 154 200 250 298 358
#     4   9  19  36  57  84 118 154 200 250 298 358
#
# _framework density 25.939592000000001
#
# number of rings (size 3 to 8) (size 9 to 14) (size 15 to 20)
#    0.000    2.500    0.000    1.500    0.000    2.000 
#    0.000   25.000    0.000   13.500    0.000    0.000 
#    0.000    0.000    0.000    0.000    0.000    0.000 
#
# Total GULP energy -396632.177126 kJ/mol
# GULP energy per Si atom -12394.755535 kJ/mol
# Density = 2.588055 g / cm^3
# Si number density = 25.939592 Si / 1000 Ang^3
#
#
#
# Elastic Constant Matrix: (Units=GPa)
#
#
# Indices 1 2 3 4 5 6 
#
# 1 111.3242 22.7374 35.5829 0.0000 0.0000 8.5939
# 2 22.7374 111.3242 35.5829 0.0000 0.0000 -8.5939
# 3 35.5829 35.5829 129.6492 0.0000 0.0000 0.0000
# 4 0.0000 0.0000 0.0000 41.2428 0.0000 0.0000
# 5 0.0000 0.0000 0.0000 0.0000 41.2428 0.0000
# 6 8.5939 -8.5939 0.0000 0.0000 0.0000 34.0041
#
#
#
# Elastic Compliance Matrix: (Units=1/GPa)
#
#
# Indices 1 2 3 4 5 6 
#
# 1 0.010301 -0.001570 -0.002396 0.000000 0.000000 -0.003000
# 2 -0.001570 0.010301 -0.002396 0.000000 0.000000 0.003000
# 3 -0.002396 -0.002396 0.009029 0.000000 0.000000 0.000000
# 4 0.000000 0.000000 0.000000 0.024247 0.000000 0.000000
# 5 0.000000 0.000000 0.000000 0.000000 0.024247 0.000000
# 6 -0.003000 0.003000 0.000000 0.000000 0.000000 0.030925
#
#
# Mechanical properties :
#
#
# Convention : Reuss Voigt Hill
#
# Bulk Modulus (GPa) = 59.15144 60.01154 59.58149
# Shear Modulus (GPa) = 39.24401 40.52424 39.88412
#
# Velocity S-wave (km/s) = 3.89382 3.95682 3.92545
# Velocity P-wave (km/s) = 6.56268 6.63782 6.60036
#
# Compressibility (1/GPa) = 0.01690576
#
# Stress axis : x y z
#
# Youngs Moduli (GPa) = 97.07901 97.07901 110.76027
#
# Poissons Ratio (x) = 0.15237 0.26542
# Poissons Ratio (y) = 0.15237 0.26542
# Poissons Ratio (z) = 0.23264 0.23264
#
# Static dielectric constant tensor:
#      x y z
#    x 4.975690 0.000000 0.000000 
#    y 0.000000 4.975690 0.000000 
#    z 0.000000 0.000000 4.851200 
# 
# 
# High freq. dielectric constant tensor:
#      x y z
#    x 2.053910 0.000000 0.000000 
#    y 0.000000 2.053910 0.000000 
#    z 0.000000 0.000000 2.043710 
# 
# From -- ./inp_files/5117.got.cif
#   From: 2010.03.12/outbox.cif.g09.slc.cpg/sg88_3_cif.got.tgz:5117.got - 2010.04.08 20:20:55.
