data_PCOD8304003
_publ_section_title
;
Structure prediction by ZEFSAII (Michael W. Deem and Ramdas Pophale) SiO2 
 PCOD8304003
Probable space group: I 4/M
;
_chemical_formula_sum "Si O2"
_cell_formula_units_Z 64
_cell_length_a 15.580846
_cell_length_b 15.580846
_cell_length_c 13.288735
_cell_angle_alpha 90.000000
_cell_angle_beta 90.000000
_cell_angle_gamma 90.000000
_cell_volume 3226.010013
_symmetry_space_group_name_H-M "I 4/M"
_symmetry_group_IT_number 87
_symmetry_cell_setting 'tetragonal'
loop_
_space_group_symop_operation_xyz
x,y,z
-y,x,z
-x,-y,z
y,-x,z
-x,-y,-z
y,-x,-z
x,y,-z
-y,x,-z
1/2+x,1/2+y,1/2+z
1/2-y,1/2+x,1/2+z
1/2-x,1/2-y,1/2+z
1/2+y,1/2-x,1/2+z
1/2-x,1/2-y,1/2-z
1/2+y,1/2-x,1/2-z
1/2+x,1/2+y,1/2-z
1/2-y,1/2+x,1/2-z
loop_
_atom_site_type_symbol
_atom_site_label
_atom_site_fract_x
_atom_site_fract_y
_atom_site_fract_z
Si Si1 0.092034 0.517004 0.113303
Si Si2 0.365311 0.784900 0.611785
Si Si3 0.191072 0.859248 0.615408
Si Si4 0.037204 0.763843 0.700237
O O1 0.106540 0.617332 0.114264
O O2 0.163217 0.463879 0.174138
O O3 0.000000 0.500000 0.163952
O O4 0.093673 0.480406 0.000000
O O5 0.378495 0.745672 0.500000
O O6 0.263946 0.787662 0.641525
O O7 0.422445 0.727537 0.687652
O O8 0.204933 0.890954 0.500000
O O9 0.098555 0.816050 0.625160
O O10 0.197415 0.941616 0.689714
#
# Coordination Sequence:
#
# PCOD8304003 Si02
#       4
#    16  16  16  16
#     4   9  19  33  53  82 110 142 185 233 277 332
#     4   9  20  36  52  78 117 147 188 235 272 329
#     4  10  21  38  58  86 114 143 187 243 284 332
#     4  11  21  35  60  80 114 153 184 224 295 333
#
# _framework density 19.838747999999999
#
# number of rings (size 3 to 8) (size 9 to 14) (size 15 to 20)
#    0.000    2.250    0.000    4.500    7.000    0.500 
#    0.000    2.500    0.000    0.000    0.000    1.750 
#    0.000    0.000    0.000    0.000    0.000    0.000 
#
# Total GULP energy -396681.450041 kJ/mol
# GULP energy per Si atom -12396.295314 kJ/mol
# Density = 1.979359 g / cm^3
# Si number density = 19.838748 Si / 1000 Ang^3
#
#
#
# Elastic Constant Matrix: (Units=GPa)
#
#
# Indices 1 2 3 4 5 6 
#
# 1 70.6954 38.6218 22.4499 0.0000 0.0000 4.3058
# 2 38.6218 70.6954 22.4499 0.0000 0.0000 -4.3058
# 3 22.4499 22.4499 91.6675 0.0000 0.0000 0.0000
# 4 0.0000 0.0000 0.0000 21.3147 0.0000 0.0000
# 5 0.0000 0.0000 0.0000 0.0000 21.3147 0.0000
# 6 4.3058 -4.3058 0.0000 0.0000 0.0000 28.6080
#
#
#
# Elastic Compliance Matrix: (Units=1/GPa)
#
#
# Indices 1 2 3 4 5 6 
#
# 1 0.021331 -0.011160 -0.002491 0.000000 0.000000 -0.004890
# 2 -0.011160 0.021331 -0.002491 0.000000 0.000000 0.004890
# 3 -0.002491 -0.002491 0.012129 0.000000 0.000000 0.000000
# 4 0.000000 0.000000 0.000000 0.046916 0.000000 0.000000
# 5 0.000000 0.000000 0.000000 0.000000 0.046916 0.000000
# 6 -0.004890 0.004890 0.000000 0.000000 0.000000 0.036427
#
#
# Mechanical properties :
#
#
# Convention : Reuss Voigt Hill
#
# Bulk Modulus (GPa) = 44.43046 44.45570 44.44308
# Shear Modulus (GPa) = 22.23834 24.21659 23.22747
#
# Velocity S-wave (km/s) = 3.35170 3.49760 3.42543
# Velocity P-wave (km/s) = 6.11743 6.22641 6.17216
#
# Compressibility (1/GPa) = 0.02250708
#
# Stress axis : x y z
#
# Youngs Moduli (GPa) = 46.88003 46.88003 82.44666
#
# Poissons Ratio (x) = 0.52319 0.20536
# Poissons Ratio (y) = 0.52319 0.20536
# Poissons Ratio (z) = 0.11677 0.11677
#
# Static dielectric constant tensor:
#      x y z
#    x 3.530710 0.000000 0.000000 
#    y 0.000000 3.530710 0.000000 
#    z 0.000000 0.000000 3.729260 
# 
# 
# High freq. dielectric constant tensor:
#      x y z
#    x 1.755670 0.000000 0.000000 
#    y 0.000000 1.755670 0.000000 
#    z 0.000000 0.000000 1.778130 
# 
# From -- ./inp_files/2351.got.cif
#   From: 2010.03.12/outbox.cif.g09.slc.cpg/sg87_2_cif.got.tgz:2351.got - 2010.04.08 20:16:13.
