data_PCOD8304490
_publ_section_title
;
Structure prediction by ZEFSAII (Michael W. Deem and Ramdas Pophale) SiO2 
 PCOD8304490
Probable space group: P 4 2 2
;
_chemical_formula_sum "Si O2"
_cell_formula_units_Z 48
_cell_length_a 9.129214
_cell_length_b 9.129214
_cell_length_c 30.209115
_cell_angle_alpha 90.000000
_cell_angle_beta 90.000000
_cell_angle_gamma 90.000000
_cell_volume 2517.704625
_symmetry_space_group_name_H-M "P 4 2 2"
_symmetry_group_IT_number 89
_symmetry_cell_setting 'tetragonal'
loop_
_space_group_symop_operation_xyz
x,y,z
-y,x,z
-x,-y,z
y,-x,z
x,-y,-z
-x,y,-z
y,x,-z
-y,-x,-z
loop_
_atom_site_type_symbol
_atom_site_label
_atom_site_fract_x
_atom_site_fract_y
_atom_site_fract_z
Si Si1 0.844200 0.638463 0.479493
Si Si2 0.000000 0.753515 0.000000
Si Si3 0.776576 0.909449 0.707886
Si Si4 0.779120 0.094010 0.392986
Si Si5 0.424722 0.272971 0.766206
Si Si6 0.733574 0.457669 0.867670
Si Si7 0.500000 0.000000 0.069634
O O1 0.752250 0.500000 0.500000
O O2 0.786560 0.786560 0.500000
O O3 0.850101 0.650177 0.425861
O O4 0.000000 0.620387 0.500000
O O5 0.144738 0.855263 0.000000
O O6 0.971136 0.645975 0.958682
O O7 0.726404 0.885743 0.657300
O O8 0.638436 0.862155 0.737871
O O9 0.921045 0.812675 0.717815
O O10 0.924013 0.188646 0.402081
O O11 0.590517 0.318289 0.754966
O O12 0.429263 0.221072 0.816983
O O13 0.666816 0.615904 0.878058
O O14 0.869706 0.444731 0.899575
#
# Coordination Sequence:
#
# PCOD8304490 Si02
#       7
#     8   4   8   8   8   8   4
#     4  11  22  36  56  80 107 138 177 218 267 327
#     4  10  22  38  54  80 120 154 184 236 294 342
#     4   9  19  35  55  81 110 138 177 226 274 328
#     4   9  17  34  58  80 103 136 176 221 267 315
#     4   9  19  36  54  77 111 148 182 220 273 331
#     4   9  19  35  55  80 112 145 187 238 278 325
#     4  11  20  34  60  84 106 150 202 232 279 340
#
# _framework density 19.064985
#
# number of rings (size 3 to 8) (size 9 to 14) (size 15 to 20)
#    0.000    2.417    1.667    3.000    0.000    3.667 
#    3.000    0.000    0.000    6.000    0.000    0.000 
#    0.000    0.000    0.000    0.000    0.000    0.000 
#
# Total GULP energy -594634.211572 kJ/mol
# GULP energy per Si atom -12388.212741 kJ/mol
# Density = 1.902159 g / cm^3
# Si number density = 19.064985 Si / 1000 Ang^3
#
#
#
# Elastic Constant Matrix: (Units=GPa)
#
#
# Indices 1 2 3 4 5 6 
#
# 1 78.7758 36.0530 59.2857 0.0000 0.0000 0.0000
# 2 36.0530 78.7760 59.2857 0.0000 0.0000 0.0000
# 3 59.2857 59.2857 127.9245 0.0000 0.0000 0.0000
# 4 0.0000 0.0000 0.0000 32.8569 0.0000 0.0000
# 5 0.0000 0.0000 0.0000 0.0000 32.8598 0.0000
# 6 0.0000 0.0000 0.0000 0.0000 0.0000 14.5005
#
#
#
# Elastic Compliance Matrix: (Units=1/GPa)
#
#
# Indices 1 2 3 4 5 6 
#
# 1 0.020054 -0.003353 -0.007740 0.000000 0.000000 0.000000
# 2 -0.003353 0.020054 -0.007740 0.000000 0.000000 0.000000
# 3 -0.007740 -0.007740 0.014991 0.000000 0.000000 0.000000
# 4 0.000000 0.000000 0.000000 0.030435 0.000000 0.000000
# 5 0.000000 0.000000 0.000000 0.000000 0.030432 0.000000
# 6 0.000000 0.000000 0.000000 0.000000 0.000000 0.068963
#
#
# Mechanical properties :
#
#
# Convention : Reuss Voigt Hill
#
# Bulk Modulus (GPa) = 57.36202 66.08057 61.72129
# Shear Modulus (GPa) = 21.89096 24.76692 23.32894
#
# Velocity S-wave (km/s) = 3.39223 3.60818 3.50187
# Velocity P-wave (km/s) = 6.74506 7.21766 6.98536
#
# Compressibility (1/GPa) = 0.01743314
#
# Stress axis : x y z
#
# Youngs Moduli (GPa) = 49.86609 49.86634 66.70655
#
# Poissons Ratio (x) = 0.16720 0.51630
# Poissons Ratio (y) = 0.16720 0.51629
# Poissons Ratio (z) = 0.38596 0.38595
#
# Static dielectric constant tensor:
#      x y z
#    x 3.756090 0.000000 0.000000 
#    y 0.000000 3.755810 0.000000 
#    z 0.000000 0.000000 3.470700 
# 
# 
# High freq. dielectric constant tensor:
#      x y z
#    x 1.734290 0.000000 0.000000 
#    y 0.000000 1.734290 0.000000 
#    z 0.000000 0.000000 1.743100 
# 
# From -- ./inp_files/2996.got.cif
#   From: 2010.03.12/outbox.cif.g09.slc.cpg/sg89_2_cif.got.tgz:2996.got - 2010.04.08 20:24:03.
