data_PCOD8304658
_publ_section_title
;
Structure prediction by ZEFSAII (Michael W. Deem and Ramdas Pophale) SiO2 
 PCOD8304658
Probable space group: P 4 21 2
;
_chemical_formula_sum "Si O2"
_cell_formula_units_Z 36
_cell_length_a 8.116813
_cell_length_b 8.116813
_cell_length_c 24.338696
_cell_angle_alpha 90.000000
_cell_angle_beta 90.000000
_cell_angle_gamma 90.000000
_cell_volume 1603.497870
_symmetry_space_group_name_H-M "P 4 21 2"
_symmetry_group_IT_number 90
_symmetry_cell_setting 'tetragonal'
loop_
_space_group_symop_operation_xyz
x,y,z
1/2-y,1/2+x,z
-x,-y,z
1/2+y,1/2-x,z
1/2+x,1/2-y,-z
1/2-x,1/2+y,-z
y,x,-z
-y,-x,-z
loop_
_atom_site_type_symbol
_atom_site_label
_atom_site_fract_x
_atom_site_fract_y
_atom_site_fract_z
Si Si1 0.579013 0.260111 0.950131
Si Si2 0.584905 0.255939 0.272177
Si Si3 0.000000 0.000000 0.642128
Si Si4 0.089447 0.243928 0.850732
Si Si5 0.238610 0.916042 0.551940
O O1 0.392519 0.203010 0.953882
O O2 0.602548 0.357714 0.893030
O O3 0.616455 0.383546 0.000000
O O4 0.396012 0.204826 0.280532
O O5 0.619280 0.391093 0.318784
O O6 0.611635 0.327798 0.210857
O O7 0.877742 0.111272 0.604985
O O8 0.204947 0.401610 0.860521
O O9 0.393811 0.794470 0.551822
O O10 0.124196 0.875804 0.500000
#
# Coordination Sequence:
#
# PCOD8304658 Si02
#       5
#     8   8   4   8   8
#     4  11  24  39  57  84 114 145 187 238 292 352
#     4   9  20  37  57  84 118 157 199 243 294 356
#     4  12  21  36  62  92 123 158 202 252 304 360
#     4   9  19  37  59  83 113 149 192 238 285 345
#     4  11  24  42  64  92 127 166 209 258 312 370
#
# _framework density 22.450918000000001
#
# number of rings (size 3 to 8) (size 9 to 14) (size 15 to 20)
#    0.000    1.778    0.000    5.667    0.000    8.444 
#    0.000    2.222    0.000    2.667    0.000    0.000 
#    0.000    0.000    0.000    0.000    0.000    0.000 
#
# Total GULP energy -446438.307979 kJ/mol
# GULP energy per Si atom -12401.064111 kJ/mol
# Density = 2.239982 g / cm^3
# Si number density = 22.450918 Si / 1000 Ang^3
#
#
#
# Elastic Constant Matrix: (Units=GPa)
#
#
# Indices 1 2 3 4 5 6 
#
# 1 62.0046 23.3428 41.7431 0.0000 0.0000 0.0000
# 2 23.3428 62.0029 41.7423 0.0000 0.0000 0.0000
# 3 41.7431 41.7423 176.2389 0.0000 0.0000 0.0000
# 4 0.0000 0.0000 0.0000 37.5124 0.0000 0.0000
# 5 0.0000 0.0000 0.0000 0.0000 37.5124 0.0000
# 6 0.0000 0.0000 0.0000 0.0000 0.0000 30.5457
#
#
#
# Elastic Compliance Matrix: (Units=1/GPa)
#
#
# Indices 1 2 3 4 5 6 
#
# 1 0.020558 -0.005308 -0.003612 0.000000 0.000000 0.000000
# 2 -0.005308 0.020558 -0.003612 0.000000 0.000000 0.000000
# 3 -0.003612 -0.003612 0.007385 0.000000 0.000000 0.000000
# 4 0.000000 0.000000 0.000000 0.026658 0.000000 0.000000
# 5 0.000000 0.000000 0.000000 0.000000 0.026658 0.000000
# 6 0.000000 0.000000 0.000000 0.000000 0.000000 0.032738
#
#
# Mechanical properties :
#
#
# Convention : Reuss Voigt Hill
#
# Bulk Modulus (GPa) = 42.66689 57.10031 49.88360
# Shear Modulus (GPa) = 29.86304 34.00867 31.93586
#
# Velocity S-wave (km/s) = 3.65108 3.89627 3.77566
# Velocity P-wave (km/s) = 6.06791 6.76238 6.42454
#
# Compressibility (1/GPa) = 0.02343738
#
# Stress axis : x y z
#
# Youngs Moduli (GPa) = 48.64340 48.64217 135.40652
#
# Poissons Ratio (x) = 0.25818 0.48910
# Poissons Ratio (y) = 0.25819 0.48910
# Poissons Ratio (z) = 0.17570 0.17570
#
# Static dielectric constant tensor:
#      x y z
#    x 3.881460 0.000000 0.000000 
#    y 0.000000 3.881470 0.000000 
#    z 0.000000 0.000000 4.176940 
# 
# 
# High freq. dielectric constant tensor:
#      x y z
#    x 1.879170 0.000000 0.000000 
#    y 0.000000 1.879170 0.000000 
#    z 0.000000 0.000000 1.898650 
# 
# From -- ./inp_files/2748.got.cif
#   From: 2010.03.12/outbox.cif.g09.slc.cpg/sg90_2_cif.got.tgz:2748.got - 2010.04.08 20:26:03.
