data_PCOD8304823
_publ_section_title
;
Structure prediction by ZEFSAII (Michael W. Deem and Ramdas Pophale) SiO2 
 PCOD8304823
Probable space group: P 41 2 2
;
_chemical_formula_sum "Si O2"
_cell_formula_units_Z 48
_cell_length_a 9.422240
_cell_length_b 9.422240
_cell_length_c 28.009240
_cell_angle_alpha 90.000000
_cell_angle_beta 90.000000
_cell_angle_gamma 90.000000
_cell_volume 2486.621300
_symmetry_space_group_name_H-M "P 41 2 2"
_symmetry_group_IT_number 91
_symmetry_cell_setting 'tetragonal'
loop_
_space_group_symop_operation_xyz
x,y,z
-y,x,1/4+z
-x,-y,1/2+z
y,-x,3/4+z
x,-y,1/2-z
-x,y,-z
y,x,3/4-z
-y,-x,1/4-z
loop_
_atom_site_type_symbol
_atom_site_label
_atom_site_fract_x
_atom_site_fract_y
_atom_site_fract_z
Si Si1 0.472527 0.801116 0.869709
Si Si2 0.193751 0.193751 0.375000
Si Si3 0.526013 0.526013 0.375000
Si Si4 0.482650 0.647754 0.723652
Si Si5 0.858348 0.974632 0.969595
Si Si6 0.138971 0.298745 0.030942
Si Si7 0.643706 0.796867 0.028092
O O1 0.638842 0.839909 0.871626
O O2 0.453505 0.635614 0.858304
O O3 0.393907 0.886918 0.827863
O O4 0.393295 0.843561 0.918233
O O5 0.129541 0.117969 0.421581
O O6 0.627173 0.565621 0.418869
O O7 0.494120 0.500000 0.750000
O O8 0.363337 0.738326 0.748714
O O9 0.640783 0.718658 0.724270
O O10 0.822763 0.136835 0.955249
O O11 0.736787 0.917535 0.004232
O O12 0.000000 0.962372 0.000000
O O13 0.000000 0.302977 0.000000
O O14 0.500000 0.782783 0.000000
#
# Coordination Sequence:
#
# PCOD8304823 Si02
#       7
#     8   4   4   8   8   8   8
#     4  10  20  39  67  90 124 153 209 264 307 364
#     4  11  22  42  69  94 116 170 217 262 309 366
#     4   9  18  36  63  94 114 156 195 256 321 356
#     4  10  19  38  64  87 123 156 203 260 311 364
#     4  11  26  43  61  89 133 173 206 252 312 378
#     4  11  25  44  57  90 131 169 202 254 311 373
#     4  10  20  40  64  97 122 160 207 260 310 366
#
# _framework density 19.303303
#
# number of rings (size 3 to 8) (size 9 to 14) (size 15 to 20)
#    0.000    1.667    3.333    1.000    2.333    3.333 
#    6.000    0.000    0.000    0.000    0.000    0.000 
#    0.000    0.000    0.000    0.000    0.000    0.000 
#
# Total GULP energy -595179.993278 kJ/mol
# GULP energy per Si atom -12399.583193 kJ/mol
# Density = 1.925937 g / cm^3
# Si number density = 19.303303 Si / 1000 Ang^3
#
#
#
# Elastic Constant Matrix: (Units=GPa)
#
#
# Indices 1 2 3 4 5 6 
#
# 1 74.8134 46.0057 47.4421 0.0000 0.0000 0.0000
# 2 46.0057 74.8134 47.4421 0.0000 0.0000 0.0000
# 3 47.4421 47.4421 136.6897 0.0000 0.0000 0.0000
# 4 0.0000 0.0000 0.0000 27.2657 0.0000 0.0000
# 5 0.0000 0.0000 0.0000 0.0000 27.2657 0.0000
# 6 0.0000 0.0000 0.0000 0.0000 0.0000 31.5499
#
#
#
# Elastic Compliance Matrix: (Units=1/GPa)
#
#
# Indices 1 2 3 4 5 6 
#
# 1 0.023046 -0.011667 -0.003949 0.000000 0.000000 0.000000
# 2 -0.011667 0.023046 -0.003949 0.000000 0.000000 0.000000
# 3 -0.003949 -0.003949 0.010057 0.000000 0.000000 0.000000
# 4 0.000000 0.000000 0.000000 0.036676 0.000000 0.000000
# 5 0.000000 0.000000 0.000000 0.000000 0.036676 0.000000
# 6 0.000000 0.000000 0.000000 0.000000 0.000000 0.031696
#
#
# Mechanical properties :
#
#
# Convention : Reuss Voigt Hill
#
# Bulk Modulus (GPa) = 58.76444 63.12181 60.94312
# Shear Modulus (GPa) = 24.27180 26.91135 25.59157
#
# Velocity S-wave (km/s) = 3.54982 3.73786 3.64505
# Velocity P-wave (km/s) = 6.87825 7.16936 7.02532
#
# Compressibility (1/GPa) = 0.01701709
#
# Stress axis : x y z
#
# Youngs Moduli (GPa) = 43.39212 43.39212 99.43148
#
# Poissons Ratio (x) = 0.50627 0.39267
# Poissons Ratio (y) = 0.50627 0.39267
# Poissons Ratio (z) = 0.17136 0.17136
#
# Static dielectric constant tensor:
#      x y z
#    x 3.464240 0.000000 0.000000 
#    y 0.000000 3.464240 0.000000 
#    z 0.000000 0.000000 3.811980 
# 
# 
# High freq. dielectric constant tensor:
#      x y z
#    x 1.740530 0.000000 0.000000 
#    y 0.000000 1.740530 0.000000 
#    z 0.000000 0.000000 1.773130 
# 
# From -- ./inp_files/8046.got.cif
#   From: 2010.03.12/outbox.cif.g09.slc.cpg/sg91_5_cif.got.tgz:8046.got - 2010.04.08 20:27:58.
