data_PCOD8304895
_publ_section_title
;
Structure prediction by ZEFSAII (Michael W. Deem and Ramdas Pophale) SiO2 
 PCOD8304895
Probable space group: P 41 2 2
;
_chemical_formula_sum "Si O2"
_cell_formula_units_Z 60
_cell_length_a 17.031517
_cell_length_b 17.031517
_cell_length_c 10.293976
_cell_angle_alpha 90.000000
_cell_angle_beta 90.000000
_cell_angle_gamma 90.000000
_cell_volume 2986.000087
_symmetry_space_group_name_H-M "P 41 2 2"
_symmetry_group_IT_number 91
_symmetry_cell_setting 'tetragonal'
loop_
_space_group_symop_operation_xyz
x,y,z
-y,x,1/4+z
-x,-y,1/2+z
y,-x,3/4+z
x,-y,1/2-z
-x,y,-z
y,x,3/4-z
-y,-x,1/4-z
loop_
_atom_site_type_symbol
_atom_site_label
_atom_site_fract_x
_atom_site_fract_y
_atom_site_fract_z
Si Si1 0.943786 0.820842 0.119138
Si Si2 0.793231 0.440882 0.865111
Si Si3 0.042700 0.362006 0.131813
Si Si4 0.544090 0.783843 0.635260
Si Si5 0.057969 0.639693 0.882644
Si Si6 0.180396 0.954285 0.879963
Si Si7 0.440513 0.500000 0.250000
Si Si8 0.344699 0.339434 0.520842
O O1 0.915684 0.730617 0.113709
O O2 0.866443 0.873345 0.109985
O O3 0.989604 0.840613 0.250644
O O4 0.000000 0.841576 0.000000
O O5 0.771000 0.500000 0.750000
O O6 0.883161 0.417444 0.852914
O O7 0.740160 0.362785 0.850321
O O8 0.773446 0.480362 0.001983
O O9 0.069264 0.271555 0.130910
O O10 0.983774 0.380357 0.248066
O O11 0.000000 0.385633 0.000000
O O12 0.500000 0.771285 0.500000
O O13 0.583442 0.868409 0.645927
O O14 0.612693 0.720317 0.650403
O O15 0.000000 0.620338 0.000000
O O16 0.156667 0.000000 0.750000
O O17 0.496215 0.496215 0.375000
O O18 0.388101 0.576117 0.262534
O O19 0.316701 0.316701 0.375000
#
# Coordination Sequence:
#
# PCOD8304895 Si02
#       8
#     8   8   8   8   8   8   4   8
#     4  10  21  37  58  87 122 158 210 257 313 371
#     4  12  23  43  69  96 124 173 220 256 323 393
#     4  10  23  41  63  91 127 171 217 258 319 384
#     4  12  27  43  67 101 133 166 219 272 327 388
#     4  10  23  43  62  95 131 169 212 271 326 376
#     4  10  21  37  57  86 120 165 206 255 313 377
#     4  10  20  38  64  86 124 164 198 250 316 376
#     4  11  23  45  65  97 131 165 217 270 312 395
#
# _framework density 20.093769000000002
#
# number of rings (size 3 to 8) (size 9 to 14) (size 15 to 20)
#    0.000    1.333    2.000    3.200    2.800    5.333 
#    0.000    0.000    0.000    0.000    0.000    0.000 
#    0.000    0.000    0.000    0.000    0.000    0.000 
#
# Total GULP energy -744311.878363 kJ/mol
# GULP energy per Si atom -12405.197973 kJ/mol
# Density = 2.004803 g / cm^3
# Si number density = 20.093769 Si / 1000 Ang^3
#
#
#
# Elastic Constant Matrix: (Units=GPa)
#
#
# Indices 1 2 3 4 5 6 
#
# 1 93.6340 55.0703 49.1926 0.0000 0.0000 0.0000
# 2 55.0703 93.6340 49.1926 0.0000 0.0000 0.0000
# 3 49.1926 49.1926 167.9857 0.0000 0.0000 0.0000
# 4 0.0000 0.0000 0.0000 21.1425 0.0000 0.0000
# 5 0.0000 0.0000 0.0000 0.0000 21.1425 0.0000
# 6 0.0000 0.0000 0.0000 0.0000 0.0000 54.5852
#
#
#
# Elastic Compliance Matrix: (Units=1/GPa)
#
#
# Indices 1 2 3 4 5 6 
#
# 1 0.017136 -0.008795 -0.002442 0.000000 0.000000 0.000000
# 2 -0.008795 0.017136 -0.002442 0.000000 0.000000 0.000000
# 3 -0.002442 -0.002442 0.007383 0.000000 0.000000 0.000000
# 4 0.000000 0.000000 0.000000 0.047298 0.000000 0.000000
# 5 0.000000 0.000000 0.000000 0.000000 0.047298 0.000000
# 6 0.000000 0.000000 0.000000 0.000000 0.000000 0.018320
#
#
# Mechanical properties :
#
#
# Convention : Reuss Voigt Hill
#
# Bulk Modulus (GPa) = 69.95484 73.57384 71.76434
# Shear Modulus (GPa) = 26.78140 32.82725 29.80433
#
# Velocity S-wave (km/s) = 3.65474 4.04629 3.85549
# Velocity P-wave (km/s) = 7.25943 7.65015 7.45735
#
# Compressibility (1/GPa) = 0.01429494
#
# Stress axis : x y z
#
# Youngs Moduli (GPa) = 58.35681 58.35681 135.43903
#
# Poissons Ratio (x) = 0.51326 0.33081
# Poissons Ratio (y) = 0.51326 0.33081
# Poissons Ratio (z) = 0.14254 0.14254
#
# Static dielectric constant tensor:
#      x y z
#    x 3.666540 0.000000 0.000000 
#    y 0.000000 3.666540 0.000000 
#    z 0.000000 0.000000 3.980040 
# 
# 
# High freq. dielectric constant tensor:
#      x y z
#    x 1.787670 0.000000 0.000000 
#    y 0.000000 1.787670 0.000000 
#    z 0.000000 0.000000 1.800610 
# 
# From -- ./inp_files/15323.got.cif
#   From: 2010.03.12/outbox.cif.g09.slc.cpg/sg91_8_cif.got.tgz:15323.got - 2010.04.08 20:27:58.
