data_PCOD8304340
_publ_section_title
;
Structure prediction by ZEFSAII (Michael W. Deem and Ramdas Pophale) SiO2 
 PCOD8304340
Probable space group: I 41/A
;
_chemical_formula_sum "Si O2"
_cell_formula_units_Z 88
_cell_length_a 11.644671
_cell_length_b 11.644671
_cell_length_c 30.267620
_cell_angle_alpha 90.000000
_cell_angle_beta 90.000000
_cell_angle_gamma 90.000000
_cell_volume 4104.239715
_symmetry_space_group_name_H-M "I 41/A"
_symmetry_group_IT_number 88
_space_group.IT_coordinate_system_code '2'
_symmetry_cell_setting 'tetragonal'
loop_
_space_group_symop_operation_xyz
x,y,z
3/4-y,1/4+x,1/4+z
-x,1/2-y,z
1/4+y,1/4-x,1/4+z
-x,-y,-z
1/4+y,3/4-x,3/4-z
x,1/2+y,-z
3/4-y,3/4+x,3/4-z
1/2+x,1/2+y,1/2+z
1/4-y,3/4+x,3/4+z
1/2-x,-y,1/2+z
3/4+y,3/4-x,3/4+z
1/2-x,1/2-y,1/2-z
3/4+y,1/4-x,1/4-z
1/2+x,y,1/2-z
1/4-y,1/4+x,1/4-z
loop_
_atom_site_type_symbol
_atom_site_label
_atom_site_fract_x
_atom_site_fract_y
_atom_site_fract_z
Si Si1 0.878217 0.939242 0.994054
Si Si2 0.308170 0.390500 0.971356
Si Si3 0.141666 0.163618 0.102044
Si Si4 0.387108 0.569565 0.909477
Si Si5 0.500000 0.250000 0.724528
Si Si6 0.868497 0.768041 0.071392
O O1 0.887576 0.860745 0.949625
O O2 0.758505 0.010361 0.998093
O O3 0.859177 0.870101 0.037894
O O4 0.000000 0.000000 0.000000
O O5 0.382671 0.445988 0.932368
O O6 0.193011 0.337346 0.951257
O O7 0.395716 0.308069 0.997578
O O8 0.143903 0.299713 0.113945
O O9 0.266315 0.112262 0.110708
O O10 0.438633 0.656593 0.944899
O O11 0.466401 0.551913 0.867304
O O12 0.000000 0.750000 0.083929
#
# Coordination Sequence:
#
# PCOD8304340 Si02
#       6
#    16  16  16  16   8  16
#     4  11  23  42  68 102 146 186 230 298 372 445
#     4  11  26  45  71 102 137 189 247 286 365 430
#     4  10  23  39  66 105 138 181 232 293 369 439
#     4  11  26  44  70  99 140 184 235 301 356 432
#     4  12  26  50  71  98 142 198 247 294 356 444
#     4  12  25  43  70 104 141 183 229 301 369 437
#
# _framework density 21.441241999999999
#
# number of rings (size 3 to 8) (size 9 to 14) (size 15 to 20)
#    0.000    0.909    2.727    3.818    5.091    8.727 
#    0.000    0.000    0.000    0.000    0.000    0.000 
#    0.000    0.000    0.000    0.000    0.000    0.000 
#
# Total GULP energy -545074.794568 kJ/mol
# GULP energy per Si atom -12388.063513 kJ/mol
# Density = 2.139244 g / cm^3
# Si number density = 21.441242 Si / 1000 Ang^3
#
#
#
# Elastic Constant Matrix: (Units=GPa)
#
#
# Indices 1 2 3 4 5 6 
#
# 1 49.2807 37.7904 35.8305 0.0000 0.0000 30.2703
# 2 37.7904 49.2807 35.8305 0.0000 0.0000 -30.2703
# 3 35.8305 35.8305 125.4394 0.0000 0.0000 0.0000
# 4 0.0000 0.0000 0.0000 780.7894 0.0000 0.0000
# 5 0.0000 0.0000 0.0000 0.0000 780.7895 0.0000
# 6 30.2703 -30.2703 0.0000 0.0000 0.0000 -6.9116
#
#
#
# Elastic Compliance Matrix: (Units=1/GPa)
#
#
# Indices 1 2 3 4 5 6 
#
# 1 0.009315 0.005700 -0.004289 0.000000 0.000000 0.015832
# 2 0.005700 0.009315 -0.004289 0.000000 0.000000 -0.015832
# 3 -0.004289 -0.004289 0.010422 0.000000 0.000000 0.000000
# 4 0.000000 0.000000 0.000000 0.001281 0.000000 0.000000
# 5 0.000000 0.000000 0.000000 0.000000 0.001281 0.000000
# 6 0.015832 -0.015832 0.000000 0.000000 0.000000 -0.006010
#
#
# Mechanical properties :
#
#
# Convention : Reuss Voigt Hill
#
# Bulk Modulus (GPa) = 42.92548 49.21149 46.06848
# Shear Modulus (GPa) = 127.79843 318.57011 223.18427
#
# Velocity S-wave (km/s) = 7.72874 12.20249 10.21357
# Velocity P-wave (km/s) = 9.98539 14.88408 12.67367
#
# Compressibility (1/GPa) = 0.02329619
#
# Stress axis : x y z
#
# Youngs Moduli (GPa) = 107.35698 107.35698 95.95033
#
# Poissons Ratio (x) = -0.61192 0.41151
# Poissons Ratio (y) = -0.61192 0.41151
# Poissons Ratio (z) = 0.46043 0.46043
#
# Static dielectric constant tensor:
#      x y z
#    x 4.017520 0.000000 0.000000 
#    y 0.000000 4.017520 0.000000 
#    z 0.000000 0.000000 4.027350 
# 
# 
# High freq. dielectric constant tensor:
#      x y z
#    x 1.848550 0.000000 0.000000 
#    y 0.000000 1.848550 0.000000 
#    z 0.000000 0.000000 1.852290 
# 
# From -- ./inp_files/6449.got.cif
#   From: 2010.03.12/outbox.cif.g09.slc.cpg/sg88_4_cif.got.tgz:6449.got - 2010.04.08 20:20:55.
