data_PCOD8304768
_publ_section_title
;
Structure prediction by ZEFSAII (Michael W. Deem and Ramdas Pophale) SiO2 
 PCOD8304768
Probable space group: P 41 2 2
;
_chemical_formula_sum "Si O2"
_cell_formula_units_Z 40
_cell_length_a 11.599904
_cell_length_b 11.599904
_cell_length_c 13.833059
_cell_angle_alpha 90.000000
_cell_angle_beta 90.000000
_cell_angle_gamma 90.000000
_cell_volume 1861.345610
_symmetry_space_group_name_H-M "P 41 2 2"
_symmetry_group_IT_number 91
_symmetry_cell_setting 'tetragonal'
loop_
_space_group_symop_operation_xyz
x,y,z
-y,x,1/4+z
-x,-y,1/2+z
y,-x,3/4+z
x,-y,1/2-z
-x,y,-z
y,x,3/4-z
-y,-x,1/4-z
loop_
_atom_site_type_symbol
_atom_site_label
_atom_site_fract_x
_atom_site_fract_y
_atom_site_fract_z
Si Si1 0.258570 0.982688 0.525975
Si Si2 0.092034 0.500000 0.750000
Si Si3 0.244243 0.755758 0.625000
Si Si4 0.808052 0.897077 0.679303
Si Si5 0.633477 0.600930 0.527476
Si Si6 0.583744 0.234025 0.821478
O O1 0.392653 0.995360 0.498557
O O2 0.257066 0.893611 0.615523
O O3 0.189789 0.936389 0.431900
O O4 0.207203 0.102737 0.560615
O O5 0.175328 0.495853 0.654995
O O6 0.295224 0.691352 0.717706
O O7 0.682673 0.852176 0.714494
O O8 0.845019 0.000000 0.750000
O O9 0.500000 0.572660 0.500000
O O10 0.637765 0.647558 0.636176
O O11 0.720355 0.492732 0.517838
#
# Coordination Sequence:
#
# PCOD8304768 Si02
#       6
#     8   4   4   8   8   8
#     4  11  24  43  69  93 127 169 223 274 330 391
#     4  10  18  40  68  88 128 160 206 280 316 374
#     4  12  20  36  70 102 116 158 222 274 328 384
#     4  11  26  47  63  91 135 182 216 276 341 390
#     4  12  18  37  68  98 133 161 209 279 338 391
#     4  11  21  40  64  98 130 174 214 267 342 397
#
# _framework density 21.489829
#
# number of rings (size 3 to 8) (size 9 to 14) (size 15 to 20)
#    0.000    0.800    9.000    0.600    2.800    0.000 
#    9.000    2.000    0.000    0.000    0.000    0.000 
#    0.000    0.000    0.000    0.000    0.000    0.000 
#
# Total GULP energy -495702.653974 kJ/mol
# GULP energy per Si atom -12392.566349 kJ/mol
# Density = 2.144092 g / cm^3
# Si number density = 21.489829 Si / 1000 Ang^3
#
#
#
# Elastic Constant Matrix: (Units=GPa)
#
#
# Indices 1 2 3 4 5 6 
#
# 1 104.6448 48.8876 21.6629 0.0000 0.0000 0.0000
# 2 48.8876 104.6455 21.6631 0.0000 0.0000 0.0000
# 3 21.6629 21.6631 46.0193 0.0000 0.0000 0.0000
# 4 0.0000 0.0000 0.0000 28.2863 0.0000 0.0000
# 5 0.0000 0.0000 0.0000 0.0000 28.2863 0.0000
# 6 0.0000 0.0000 0.0000 0.0000 0.0000 40.2772
#
#
#
# Elastic Compliance Matrix: (Units=1/GPa)
#
#
# Indices 1 2 3 4 5 6 
#
# 1 0.012723 -0.005212 -0.003536 0.000000 0.000000 0.000000
# 2 -0.005212 0.012723 -0.003536 0.000000 0.000000 0.000000
# 3 -0.003536 -0.003536 0.025059 0.000000 0.000000 0.000000
# 4 0.000000 0.000000 0.000000 0.035353 0.000000 0.000000
# 5 0.000000 0.000000 0.000000 0.000000 0.035353 0.000000
# 6 0.000000 0.000000 0.000000 0.000000 0.000000 0.024828
#
#
# Mechanical properties :
#
#
# Convention : Reuss Voigt Hill
#
# Bulk Modulus (GPa) = 38.55353 48.85964 43.70659
# Shear Modulus (GPa) = 27.89387 30.24301 29.06844
#
# Velocity S-wave (km/s) = 3.60669 3.75549 3.68184
# Velocity P-wave (km/s) = 5.94337 6.44907 6.20137
#
# Compressibility (1/GPa) = 0.02593796
#
# Stress axis : x y z
#
# Youngs Moduli (GPa) = 78.59814 78.59861 39.90617
#
# Poissons Ratio (x) = 0.40965 0.14110
# Poissons Ratio (y) = 0.40964 0.14110
# Poissons Ratio (z) = 0.27790 0.27790
#
# Static dielectric constant tensor:
#      x y z
#    x 3.914040 0.000000 0.000000 
#    y 0.000000 3.914030 0.000000 
#    z 0.000000 0.000000 3.637600 
# 
# 
# High freq. dielectric constant tensor:
#      x y z
#    x 1.845010 0.000000 0.000000 
#    y 0.000000 1.845010 0.000000 
#    z 0.000000 0.000000 1.809280 
# 
# From -- ./inp_files/16407.got.cif
#   From: 2010.03.12/outbox.cif.g09.slc.cpg/sg91_9_cif.got.tgz:16407.got - 2010.04.08 20:27:58.
