data_PCOD8304578
_publ_section_title
;
Structure prediction by ZEFSAII (Michael W. Deem and Ramdas Pophale) SiO2 
 PCOD8304578
Probable space group: P 4 21 2
;
_chemical_formula_sum "Si O2"
_cell_formula_units_Z 64
_cell_length_a 15.117950
_cell_length_b 15.117950
_cell_length_c 16.834014
_cell_angle_alpha 90.000000
_cell_angle_beta 90.000000
_cell_angle_gamma 90.000000
_cell_volume 3847.454507
_symmetry_space_group_name_H-M "P 4 21 2"
_symmetry_group_IT_number 90
_symmetry_cell_setting 'tetragonal'
loop_
_space_group_symop_operation_xyz
x,y,z
1/2-y,1/2+x,z
-x,-y,z
1/2+y,1/2-x,z
1/2+x,1/2-y,-z
1/2-x,1/2+y,-z
y,x,-z
-y,-x,-z
loop_
_atom_site_type_symbol
_atom_site_label
_atom_site_fract_x
_atom_site_fract_y
_atom_site_fract_z
Si Si1 0.935629 0.203824 0.965528
Si Si2 0.394262 0.898001 0.647646
Si Si3 0.259859 0.032390 0.881054
Si Si4 0.180524 0.707202 0.840231
Si Si5 0.841779 0.883749 0.086733
Si Si6 0.358110 0.187420 0.807213
Si Si7 0.391560 0.902824 0.477064
Si Si8 0.887003 0.593641 0.694408
O O1 0.893141 0.275488 0.907043
O O2 0.010301 0.145136 0.919934
O O3 0.861863 0.138138 0.000000
O O4 0.985121 0.261517 0.033019
O O5 0.497725 0.877590 0.655738
O O6 0.345325 0.844386 0.717133
O O7 0.354463 0.865046 0.561448
O O8 0.162311 0.076318 0.866180
O O9 0.332505 0.110648 0.871078
O O10 0.282292 0.959181 0.815896
O O11 0.249161 0.633905 0.870240
O O12 0.227084 0.799557 0.822037
O O13 0.136980 0.673352 0.760313
O O14 0.837991 0.837991 0.000000
O O15 0.493325 0.878200 0.477609
O O16 0.351054 0.871046 0.392375
O O17 0.877791 0.488511 0.703579
#
# Coordination Sequence:
#
# PCOD8304578 Si02
#       8
#     8   8   8   8   8   8   8   8
#     4  11  21  36  54  69  91 132 176 204 239 294
#     4   9  15  26  48  73  99 126 158 193 238 295
#     4  10  22  34  51  71  99 129 161 204 250 290
#     4  11  21  33  50  72 101 131 158 209 257 284
#     4   9  21  36  51  69  95 128 168 208 246 288
#     4  11  20  34  49  74 102 128 159 202 253 297
#     4   7  12  24  45  72  95 124 158 193 232 286
#     4   9  17  32  52  72  97 127 164 198 240 298
#
# _framework density 16.634374000000001
#
# number of rings (size 3 to 8) (size 9 to 14) (size 15 to 20)
#    0.000    2.375    2.500    2.625    3.500    2.500 
#    0.000    0.625    0.000    0.000    0.000    0.000 
#    0.000    0.000    0.000    3.250    0.000    0.000 
#
# Total GULP energy -792859.821381 kJ/mol
# GULP energy per Si atom -12388.434709 kJ/mol
# Density = 1.659651 g / cm^3
# Si number density = 16.634374 Si / 1000 Ang^3
#
#
#
# Elastic Constant Matrix: (Units=GPa)
#
#
# Indices 1 2 3 4 5 6 
#
# 1 53.7549 24.5469 42.2669 0.0000 0.0000 0.0000
# 2 24.5469 53.7544 42.2669 0.0000 0.0000 0.0000
# 3 42.2669 42.2669 125.0854 0.0000 0.0000 0.0000
# 4 0.0000 0.0000 0.0000 22.8237 0.0000 0.0000
# 5 0.0000 0.0000 0.0000 0.0000 22.8237 0.0000
# 6 0.0000 0.0000 0.0000 0.0000 0.0000 10.1779
#
#
#
# Elastic Compliance Matrix: (Units=1/GPa)
#
#
# Indices 1 2 3 4 5 6 
#
# 1 0.027171 -0.007066 -0.006794 0.000000 0.000000 0.000000
# 2 -0.007066 0.027172 -0.006794 0.000000 0.000000 0.000000
# 3 -0.006794 -0.006794 0.012586 0.000000 0.000000 0.000000
# 4 0.000000 0.000000 0.000000 0.043814 0.000000 0.000000
# 5 0.000000 0.000000 0.000000 0.000000 0.043814 0.000000
# 6 0.000000 0.000000 0.000000 0.000000 0.000000 0.098252
#
#
# Mechanical properties :
#
#
# Convention : Reuss Voigt Hill
#
# Bulk Modulus (GPa) = 39.02894 50.08401 44.55648
# Shear Modulus (GPa) = 16.52033 19.39931 17.95982
#
# Velocity S-wave (km/s) = 3.15484 3.41870 3.28941
# Velocity P-wave (km/s) = 6.06502 6.76442 6.42425
#
# Compressibility (1/GPa) = 0.02562201
#
# Stress axis : x y z
#
# Youngs Moduli (GPa) = 36.80339 36.80290 79.45433
#
# Poissons Ratio (x) = 0.26005 0.53979
# Poissons Ratio (y) = 0.26005 0.53980
# Poissons Ratio (z) = 0.25003 0.25003
#
# Static dielectric constant tensor:
#      x y z
#    x 2.978390 0.000000 0.000000 
#    y 0.000000 2.978390 0.000000 
#    z 0.000000 0.000000 3.472200 
# 
# 
# High freq. dielectric constant tensor:
#      x y z
#    x 1.618950 0.000000 0.000000 
#    y 0.000000 1.618950 0.000000 
#    z 0.000000 0.000000 1.647970 
# 
# From -- ./inp_files/2687.got.cif
#   From: 2010.03.12/outbox.cif.g09.slc.cpg/sg90_2_cif.got.tgz:2687.got - 2010.04.08 20:26:03.
