data_PCOD8304145
_publ_section_title
;
Structure prediction by ZEFSAII (Michael W. Deem and Ramdas Pophale) SiO2 
 PCOD8304145
Probable space group: I 4/M
;
_chemical_formula_sum "Si O2"
_cell_formula_units_Z 48
_cell_length_a 16.687924
_cell_length_b 16.687924
_cell_length_c 8.480481
_cell_angle_alpha 90.000000
_cell_angle_beta 90.000000
_cell_angle_gamma 90.000000
_cell_volume 2361.702079
_symmetry_space_group_name_H-M "I 4/M"
_symmetry_group_IT_number 87
_symmetry_cell_setting 'tetragonal'
loop_
_space_group_symop_operation_xyz
x,y,z
-y,x,z
-x,-y,z
y,-x,z
-x,-y,-z
y,-x,-z
x,y,-z
-y,x,-z
1/2+x,1/2+y,1/2+z
1/2-y,1/2+x,1/2+z
1/2-x,1/2-y,1/2+z
1/2+y,1/2-x,1/2+z
1/2-x,1/2-y,1/2-z
1/2+y,1/2-x,1/2-z
1/2+x,1/2+y,1/2-z
1/2-y,1/2+x,1/2-z
loop_
_atom_site_type_symbol
_atom_site_label
_atom_site_fract_x
_atom_site_fract_y
_atom_site_fract_z
Si Si1 0.924846 0.893155 0.818566
Si Si2 0.895917 0.440257 0.317375
Si Si3 0.246409 0.661638 0.182668
O O1 0.880438 0.831973 0.704136
O O2 0.019162 0.890156 0.782612
O O3 0.908617 0.869858 0.000000
O O4 0.894161 0.462719 0.500000
O O5 0.891868 0.522895 0.220250
O O6 0.820227 0.386698 0.277020
O O7 0.250000 0.750000 0.250000
O O8 0.223409 0.664028 0.000000
#
# Coordination Sequence:
#
# PCOD8304145 Si02
#       3
#    16  16  16
#     4   9  20  41  67  93 125 165 207 255 317 378
#     4  11  23  43  68  95 127 166 210 259 318 378
#     4  12  26  42  63  93 129 168 213 263 315 371
#
# _framework density 20.324325000000002
#
# number of rings (size 3 to 8) (size 9 to 14) (size 15 to 20)
#    0.000    1.333    0.000    8.000    4.667    1.333 
#    0.000    1.667    0.000    0.000    0.000    0.000 
#    0.000    0.000    0.000    0.000    0.000    0.000 
#
# Total GULP energy -297755.125945 kJ/mol
# GULP energy per Si atom -12406.463581 kJ/mol
# Density = 2.027807 g / cm^3
# Si number density = 20.324325 Si / 1000 Ang^3
#
#
#
# Elastic Constant Matrix: (Units=GPa)
#
#
# Indices 1 2 3 4 5 6 
#
# 1 104.3430 60.1150 21.6926 0.0000 0.0000 0.7597
# 2 60.1150 104.3430 21.6926 0.0000 0.0000 -0.7597
# 3 21.6926 21.6926 95.2672 0.0000 0.0000 0.0000
# 4 0.0000 0.0000 0.0000 37.9955 0.0000 0.0000
# 5 0.0000 0.0000 0.0000 0.0000 37.9955 0.0000
# 6 0.7597 -0.7597 0.0000 0.0000 0.0000 33.5782
#
#
#
# Elastic Compliance Matrix: (Units=1/GPa)
#
#
# Indices 1 2 3 4 5 6 
#
# 1 0.014548 -0.008079 -0.001473 0.000000 0.000000 -0.000512
# 2 -0.008079 0.014548 -0.001473 0.000000 0.000000 0.000512
# 3 -0.001473 -0.001473 0.011168 0.000000 0.000000 0.000000
# 4 0.000000 0.000000 0.000000 0.026319 0.000000 0.000000
# 5 0.000000 0.000000 0.000000 0.000000 0.026319 0.000000
# 6 -0.000512 0.000512 0.000000 0.000000 0.000000 0.029804
#
#
# Mechanical properties :
#
#
# Convention : Reuss Voigt Hill
#
# Bulk Modulus (GPa) = 54.90345 56.77261 55.83803
# Shear Modulus (GPa) = 33.15019 35.27737 34.21378
#
# Velocity S-wave (km/s) = 4.04302 4.17072 4.10737
# Velocity P-wave (km/s) = 6.99049 7.15452 7.07298
#
# Compressibility (1/GPa) = 0.01821379
#
# Stress axis : x y z
#
# Youngs Moduli (GPa) = 68.73589 68.73589 89.54458
#
# Poissons Ratio (x) = 0.55534 0.13190
# Poissons Ratio (y) = 0.55534 0.13190
# Poissons Ratio (z) = 0.10125 0.10125
#
# Static dielectric constant tensor:
#      x y z
#    x 3.682940 0.000000 0.000000 
#    y 0.000000 3.682940 0.000000 
#    z 0.000000 0.000000 3.723000 
# 
# 
# High freq. dielectric constant tensor:
#      x y z
#    x 1.802350 0.000000 0.000000 
#    y 0.000000 1.802350 0.000000 
#    z 0.000000 0.000000 1.800250 
# 
# From -- ./inp_files/556.got.cif
#   From: 2010.03.12/outbox.cif.g09.slc.cpg/sg87_1_cif.got.tgz:556.got - 2010.04.08 20:16:13.
