data_PCOD8304389
_publ_section_title
;
Structure prediction by ZEFSAII (Michael W. Deem and Ramdas Pophale) SiO2 
 PCOD8304389
Probable space group: I 41/A
;
_chemical_formula_sum "Si O2"
_cell_formula_units_Z 64
_cell_length_a 22.456117
_cell_length_b 22.456117
_cell_length_c 5.287219
_cell_angle_alpha 90.000000
_cell_angle_beta 90.000000
_cell_angle_gamma 90.000000
_cell_volume 2666.223944
_symmetry_space_group_name_H-M "I 41/A"
_symmetry_group_IT_number 88
_space_group.IT_coordinate_system_code '2'
_symmetry_cell_setting 'tetragonal'
loop_
_space_group_symop_operation_xyz
x,y,z
3/4-y,1/4+x,1/4+z
-x,1/2-y,z
1/4+y,1/4-x,1/4+z
-x,-y,-z
1/4+y,3/4-x,3/4-z
x,1/2+y,-z
3/4-y,3/4+x,3/4-z
1/2+x,1/2+y,1/2+z
1/4-y,3/4+x,3/4+z
1/2-x,-y,1/2+z
3/4+y,3/4-x,3/4+z
1/2-x,1/2-y,1/2-z
3/4+y,1/4-x,1/4-z
1/2+x,y,1/2-z
1/4-y,1/4+x,1/4-z
loop_
_atom_site_type_symbol
_atom_site_label
_atom_site_fract_x
_atom_site_fract_y
_atom_site_fract_z
Si Si1 0.082984 0.522257 0.381129
Si Si2 0.827354 0.709928 0.846364
Si Si3 0.319841 0.555169 0.283523
Si Si4 0.348623 0.341790 0.427139
O O1 0.052992 0.544949 0.638212
O O2 0.144198 0.559249 0.317803
O O3 0.097208 0.450787 0.406704
O O4 0.039511 0.530519 0.139186
O O5 0.860799 0.772661 0.867221
O O6 0.877828 0.661835 0.771582
O O7 0.262939 0.569660 0.460666
O O8 0.379719 0.566310 0.435617
#
# Coordination Sequence:
#
# PCOD8304389 Si02
#       4
#    16  16  16  16
#     4  11  23  43  67  96 127 167 214 267 320 380
#     4  11  26  41  68  95 128 172 214 264 321 375
#     4  11  22  39  67 101 132 166 208 268 330 381
#     4  11  23  43  64  95 132 171 216 263 314 384
#
# _framework density 24.003985
#
# number of rings (size 3 to 8) (size 9 to 14) (size 15 to 20)
#    0.000    1.000    0.000    7.500    0.000    8.500 
#    0.000    0.000    0.000    6.000    0.000    0.000 
#    0.000    0.000    0.000    0.000    0.000    0.000 
#
# Total GULP energy -396713.817549 kJ/mol
# GULP energy per Si atom -12397.306798 kJ/mol
# Density = 2.394935 g / cm^3
# Si number density = 24.003985 Si / 1000 Ang^3
#
#
#
# Elastic Constant Matrix: (Units=GPa)
#
#
# Indices 1 2 3 4 5 6 
#
# 1 124.2093 14.8389 38.5729 0.0000 0.0000 2.6235
# 2 14.8389 124.2093 38.5729 0.0000 0.0000 -2.6235
# 3 38.5729 38.5729 108.7134 0.0000 0.0000 0.0000
# 4 0.0000 0.0000 0.0000 17.8552 0.0000 0.0000
# 5 0.0000 0.0000 0.0000 0.0000 17.8552 0.0000
# 6 2.6235 -2.6235 0.0000 0.0000 0.0000 14.9838
#
#
#
# Elastic Compliance Matrix: (Units=1/GPa)
#
#
# Indices 1 2 3 4 5 6 
#
# 1 0.009088 -0.000133 -0.003177 0.000000 0.000000 -0.001614
# 2 -0.000133 0.009088 -0.003177 0.000000 0.000000 0.001614
# 3 -0.003177 -0.003177 0.011453 0.000000 0.000000 0.000000
# 4 0.000000 0.000000 0.000000 0.056006 0.000000 0.000000
# 5 0.000000 0.000000 0.000000 0.000000 0.056006 0.000000
# 6 -0.001614 0.001614 0.000000 0.000000 0.000000 0.067304
#
#
# Mechanical properties :
#
#
# Convention : Reuss Voigt Hill
#
# Bulk Modulus (GPa) = 60.04777 60.12237 60.08507
# Shear Modulus (GPa) = 21.98088 27.81533 24.89811
#
# Velocity S-wave (km/s) = 3.02937 3.40778 3.22413
# Velocity P-wave (km/s) = 6.10788 6.37065 6.24064
#
# Compressibility (1/GPa) = 0.01665341
#
# Stress axis : x y z
#
# Youngs Moduli (GPa) = 110.04016 110.04016 87.31268
#
# Poissons Ratio (x) = 0.01465 0.27741
# Poissons Ratio (y) = 0.01465 0.27741
# Poissons Ratio (z) = 0.34962 0.34962
#
# Static dielectric constant tensor:
#      x y z
#    x 4.628150 0.000000 0.000000 
#    y 0.000000 4.628150 0.000000 
#    z 0.000000 0.000000 4.253090 
# 
# 
# High freq. dielectric constant tensor:
#      x y z
#    x 1.961720 0.000000 0.000000 
#    y 0.000000 1.961720 0.000000 
#    z 0.000000 0.000000 1.955220 
# 
# From -- ./inp_files/571.got.cif
#   From: 2010.03.12/outbox.cif.g09.slc.cpg/sg88_1_cif.got.tgz:571.got - 2010.04.08 20:20:55.
