data_PCOD8304557
_publ_section_title
;
Structure prediction by ZEFSAII (Michael W. Deem and Ramdas Pophale) SiO2 
 PCOD8304557
Probable space group: P 4 21 2
;
_chemical_formula_sum "Si O2"
_cell_formula_units_Z 40
_cell_length_a 14.674606
_cell_length_b 14.674606
_cell_length_c 10.026299
_cell_angle_alpha 90.000000
_cell_angle_beta 90.000000
_cell_angle_gamma 90.000000
_cell_volume 2159.103946
_symmetry_space_group_name_H-M "P 4 21 2"
_symmetry_group_IT_number 90
_symmetry_cell_setting 'tetragonal'
loop_
_space_group_symop_operation_xyz
x,y,z
1/2-y,1/2+x,z
-x,-y,z
1/2+y,1/2-x,z
1/2+x,1/2-y,-z
1/2-x,1/2+y,-z
y,x,-z
-y,-x,-z
loop_
_atom_site_type_symbol
_atom_site_label
_atom_site_fract_x
_atom_site_fract_y
_atom_site_fract_z
Si Si1 0.887444 0.262446 0.770286
Si Si2 0.119374 0.747183 0.265415
Si Si3 0.070833 0.926752 0.841938
Si Si4 0.414101 0.123235 0.975927
Si Si5 0.638035 0.056820 0.489274
O O1 0.788559 0.222114 0.726289
O O2 0.955581 0.176151 0.795422
O O3 0.930547 0.328575 0.661415
O O4 0.871302 0.317165 0.906342
O O5 0.051253 0.826896 0.211446
O O6 0.088112 0.717214 0.411539
O O7 0.117319 0.661597 0.166537
O O8 0.069510 0.930491 0.000000
O O9 0.000000 0.000000 0.781304
O O10 0.374629 0.022585 0.987775
O O11 0.548806 0.117204 0.513871
#
# Coordination Sequence:
#
# PCOD8304557 Si02
#       5
#     8   8   8   8   8
#     4  10  20  39  60  84 119 156 191 257 284 343
#     4  10  20  39  60  84 119 156 191 257 284 343
#     4   9  18  37  65  87 119 161 186 236 311 334
#     4  11  21  36  59  88 121 159 199 236 296 354
#     4  11  23  40  61  84 119 161 195 236 302 354
#
# _framework density 18.526202999999999
#
# number of rings (size 3 to 8) (size 9 to 14) (size 15 to 20)
#    1.200    0.600    2.000    3.600    0.000    3.200 
#    0.000   14.000    0.000    0.000    0.000    0.000 
#    0.000    0.000    0.000    0.000    0.000    0.000 
#
# Total GULP energy -495859.086928 kJ/mol
# GULP energy per Si atom -12396.477173 kJ/mol
# Density = 1.848404 g / cm^3
# Si number density = 18.526203 Si / 1000 Ang^3
#
#
#
# Elastic Constant Matrix: (Units=GPa)
#
#
# Indices 1 2 3 4 5 6 
#
# 1 74.4340 32.1387 12.0042 0.0000 0.0000 0.0000
# 2 32.1387 74.4338 12.0041 0.0000 0.0000 0.0000
# 3 12.0042 12.0041 70.4270 0.0000 0.0000 0.0000
# 4 0.0000 0.0000 0.0000 27.3218 0.0000 0.0000
# 5 0.0000 0.0000 0.0000 0.0000 27.3219 0.0000
# 6 0.0000 0.0000 0.0000 0.0000 0.0000 23.4039
#
#
#
# Elastic Compliance Matrix: (Units=1/GPa)
#
#
# Indices 1 2 3 4 5 6 
#
# 1 0.016701 -0.006943 -0.001663 0.000000 0.000000 0.000000
# 2 -0.006943 0.016701 -0.001663 0.000000 0.000000 0.000000
# 3 -0.001663 -0.001663 0.014766 0.000000 0.000000 0.000000
# 4 0.000000 0.000000 0.000000 0.036601 0.000000 0.000000
# 5 0.000000 0.000000 0.000000 0.000000 0.036601 0.000000
# 6 0.000000 0.000000 0.000000 0.000000 0.000000 0.042728
#
#
# Mechanical properties :
#
#
# Convention : Reuss Voigt Hill
#
# Bulk Modulus (GPa) = 36.19371 36.84319 36.51845
# Shear Modulus (GPa) = 25.79385 26.48606 26.13996
#
# Velocity S-wave (km/s) = 3.73539 3.78518 3.76037
# Velocity P-wave (km/s) = 6.17925 6.24769 6.21356
#
# Compressibility (1/GPa) = 0.02762911
#
# Stress axis : x y z
#
# Youngs Moduli (GPa) = 59.87800 59.87787 67.72281
#
# Poissons Ratio (x) = 0.41571 0.11264
# Poissons Ratio (y) = 0.41571 0.11264
# Poissons Ratio (z) = 0.09959 0.09959
#
# Static dielectric constant tensor:
#      x y z
#    x 3.357780 0.000000 0.000000 
#    y 0.000000 3.357780 0.000000 
#    z 0.000000 0.000000 3.279210 
# 
# 
# High freq. dielectric constant tensor:
#      x y z
#    x 1.710910 0.000000 0.000000 
#    y 0.000000 1.710910 0.000000 
#    z 0.000000 0.000000 1.724500 
# 
# From -- ./inp_files/1316.got.cif
#   From: 2010.03.12/outbox.cif.g09.slc.cpg/sg90_1_cif.got.tgz:1316.got - 2010.04.08 20:26:03.
