data_PCOD8304934
_publ_section_title
;
Structure prediction by ZEFSAII (Michael W. Deem and Ramdas Pophale) SiO2 
 PCOD8304934
Probable space group: P 41 2 2
;
_chemical_formula_sum "Si O2"
_cell_formula_units_Z 36
_cell_length_a 8.700608
_cell_length_b 8.700608
_cell_length_c 21.418661
_cell_angle_alpha 90.000000
_cell_angle_beta 90.000000
_cell_angle_gamma 90.000000
_cell_volume 1621.405051
_symmetry_space_group_name_H-M "P 41 2 2"
_symmetry_group_IT_number 91
_symmetry_cell_setting 'tetragonal'
loop_
_space_group_symop_operation_xyz
x,y,z
-y,x,1/4+z
-x,-y,1/2+z
y,-x,3/4+z
x,-y,1/2-z
-x,y,-z
y,x,3/4-z
-y,-x,1/4-z
loop_
_atom_site_type_symbol
_atom_site_label
_atom_site_fract_x
_atom_site_fract_y
_atom_site_fract_z
Si Si1 0.279470 0.410441 0.543981
Si Si2 0.500000 0.852797 0.000000
Si Si3 0.353619 0.500000 0.750000
Si Si4 0.000000 0.436636 0.000000
Si Si5 0.356719 0.111424 0.081108
Si Si6 0.142320 0.016651 0.680484
O O1 0.357874 0.247488 0.527112
O O2 0.414406 0.537075 0.549705
O O3 0.153083 0.458037 0.491894
O O4 0.177071 0.424658 0.605522
O O5 0.558793 0.957073 0.942435
O O6 0.246450 0.630175 0.779977
O O7 0.997865 0.326578 0.061573
O O8 0.179164 0.081616 0.094014
O O9 0.100799 0.899202 0.625000
O O10 0.064290 0.000000 0.750000
#
# Coordination Sequence:
#
# PCOD8304934 Si02
#       6
#     8   4   4   4   8   8
#     4  11  24  43  73 101 149 186 249 311 371 451
#     4  10  28  44  70 110 142 194 248 302 388 454
#     4  10  20  46  66 108 132 192 246 308 366 444
#     4  10  24  44  74 108 148 200 248 310 382 440
#     4  11  24  42  72  99 146 193 245 304 378 448
#     4  10  24  43  74 109 148 193 255 309 377 448
#
# _framework density 22.202964999999999
#
# number of rings (size 3 to 8) (size 9 to 14) (size 15 to 20)
#    0.667    0.889    2.222    0.667    6.222    5.333 
#    0.000    2.222    0.000    0.000    0.000    0.000 
#    0.000    0.000    0.000    0.000    0.000    0.000 
#
# Total GULP energy -446015.176805 kJ/mol
# GULP energy per Si atom -12389.310467 kJ/mol
# Density = 2.215243 g / cm^3
# Si number density = 22.202965 Si / 1000 Ang^3
#
#
#
# Elastic Constant Matrix: (Units=GPa)
#
#
# Indices 1 2 3 4 5 6 
#
# 1 134.7938 71.9814 43.1869 0.0000 0.0000 0.0000
# 2 71.9814 134.7946 43.1871 0.0000 0.0000 0.0000
# 3 43.1869 43.1871 112.5593 0.0000 0.0000 0.0000
# 4 0.0000 0.0000 0.0000 36.0135 0.0000 0.0000
# 5 0.0000 0.0000 0.0000 0.0000 36.0133 0.0000
# 6 0.0000 0.0000 0.0000 0.0000 0.0000 38.8474
#
#
#
# Elastic Compliance Matrix: (Units=1/GPa)
#
#
# Indices 1 2 3 4 5 6 
#
# 1 0.010840 -0.005081 -0.002210 0.000000 0.000000 0.000000
# 2 -0.005081 0.010840 -0.002210 0.000000 0.000000 0.000000
# 3 -0.002210 -0.002210 0.010580 0.000000 0.000000 0.000000
# 4 0.000000 0.000000 0.000000 0.027767 0.000000 0.000000
# 5 0.000000 0.000000 0.000000 0.000000 0.027767 0.000000
# 6 0.000000 0.000000 0.000000 0.000000 0.000000 0.025742
#
#
# Mechanical properties :
#
#
# Convention : Reuss Voigt Hill
#
# Bulk Modulus (GPa) = 75.41797 77.65094 76.53446
# Shear Modulus (GPa) = 36.50816 37.09435 36.80126
#
# Velocity S-wave (km/s) = 4.05939 4.09185 4.07565
# Velocity P-wave (km/s) = 7.48417 7.57452 7.52948
#
# Compressibility (1/GPa) = 0.01325944
#
# Stress axis : x y z
#
# Youngs Moduli (GPa) = 92.25275 92.25323 94.51934
#
# Poissons Ratio (x) = 0.46870 0.20886
# Poissons Ratio (y) = 0.46870 0.20886
# Poissons Ratio (z) = 0.20385 0.20385
#
# Static dielectric constant tensor:
#      x y z
#    x 3.973540 0.000000 0.000000 
#    y 0.000000 3.973540 0.000000 
#    z 0.000000 0.000000 3.809870 
# 
# 
# High freq. dielectric constant tensor:
#      x y z
#    x 1.878660 0.000000 0.000000 
#    y 0.000000 1.878660 0.000000 
#    z 0.000000 0.000000 1.856510 
# 
# From -- ./inp_files/6202.got.cif
#   From: 2010.03.12/outbox.cif.g09.slc.cpg/sg91_4_cif.got.tgz:6202.got - 2010.04.08 20:27:58.
