data_PCOD8304635
_publ_section_title
;
Structure prediction by ZEFSAII (Michael W. Deem and Ramdas Pophale) SiO2 
 PCOD8304635
Probable space group: P 4 21 2
;
_chemical_formula_sum "Si O2"
_cell_formula_units_Z 56
_cell_length_a 14.507102
_cell_length_b 14.507102
_cell_length_c 11.668242
_cell_angle_alpha 90.000000
_cell_angle_beta 90.000000
_cell_angle_gamma 90.000000
_cell_volume 2455.651637
_symmetry_space_group_name_H-M "P 4 21 2"
_symmetry_group_IT_number 90
_symmetry_cell_setting 'tetragonal'
loop_
_space_group_symop_operation_xyz
x,y,z
1/2-y,1/2+x,z
-x,-y,z
1/2+y,1/2-x,z
1/2+x,1/2-y,-z
1/2-x,1/2+y,-z
y,x,-z
-y,-x,-z
loop_
_atom_site_type_symbol
_atom_site_label
_atom_site_fract_x
_atom_site_fract_y
_atom_site_fract_z
Si Si1 0.722119 0.593198 0.434809
Si Si2 0.693123 0.168048 0.977598
Si Si3 0.944694 0.095040 0.243925
Si Si4 0.425728 0.133890 0.756876
Si Si5 0.240039 0.442008 0.832089
Si Si6 0.316940 0.549824 0.044191
Si Si7 0.350189 0.991695 0.393243
O O1 0.685637 0.685637 0.500000
O O2 0.637108 0.542640 0.370841
O O3 0.800296 0.618131 0.340556
O O4 0.761826 0.519354 0.525473
O O5 0.679618 0.088189 0.882640
O O6 0.637662 0.254367 0.925230
O O7 0.799736 0.200264 0.000000
O O8 0.670890 0.133590 0.108287
O O9 0.834958 0.091127 0.225209
O O10 0.985352 0.168004 0.153472
O O11 0.000000 0.000000 0.236833
O O12 0.535508 0.123886 0.743244
O O13 0.180852 0.495703 0.738408
O O14 0.264310 0.501719 0.941963
O O15 0.417031 0.582970 0.000000
O O16 0.414493 0.903444 0.419784
#
# Coordination Sequence:
#
# PCOD8304635 Si02
#       7
#     8   8   8   8   8   8   8
#     4  12  25  46  70 102 139 186 242 308 362 419
#     4  11  23  38  66 106 149 185 229 291 350 423
#     4  12  25  45  73 103 144 195 237 292 361 428
#     4  11  24  46  76 107 141 188 245 302 364 433
#     4  12  22  42  67 103 146 186 230 286 353 423
#     4  11  23  40  67 108 144 185 237 280 348 437
#     4  11  26  49  74 101 140 192 243 297 367 432
#
# _framework density 22.804538000000001
#
# number of rings (size 3 to 8) (size 9 to 14) (size 15 to 20)
#    0.000    0.571    2.857    6.429    0.000    1.429 
#    0.000    2.857    0.000    0.000    0.000    0.000 
#    0.000    0.000    0.000    0.000    0.000    0.000 
#
# Total GULP energy -693992.099925 kJ/mol
# GULP energy per Si atom -12392.716070 kJ/mol
# Density = 2.275263 g / cm^3
# Si number density = 22.804538 Si / 1000 Ang^3
#
#
#
# Elastic Constant Matrix: (Units=GPa)
#
#
# Indices 1 2 3 4 5 6 
#
# 1 84.8087 41.6817 42.4532 0.0000 0.0000 0.0000
# 2 41.6817 84.8102 42.4533 0.0000 0.0000 0.0000
# 3 42.4532 42.4533 146.6562 0.0000 0.0000 0.0000
# 4 0.0000 0.0000 0.0000 37.3536 0.0000 0.0000
# 5 0.0000 0.0000 0.0000 0.0000 37.3496 0.0000
# 6 0.0000 0.0000 0.0000 0.0000 0.0000 32.2568
#
#
#
# Elastic Compliance Matrix: (Units=1/GPa)
#
#
# Indices 1 2 3 4 5 6 
#
# 1 0.016500 -0.006687 -0.002840 0.000000 0.000000 0.000000
# 2 -0.006687 0.016499 -0.002840 0.000000 0.000000 0.000000
# 3 -0.002840 -0.002840 0.008463 0.000000 0.000000 0.000000
# 4 0.000000 0.000000 0.000000 0.026771 0.000000 0.000000
# 5 0.000000 0.000000 0.000000 0.000000 0.026774 0.000000
# 6 0.000000 0.000000 0.000000 0.000000 0.000000 0.031001
#
#
# Mechanical properties :
#
#
# Convention : Reuss Voigt Hill
#
# Bulk Modulus (GPa) = 59.78686 63.27238 61.52962
# Shear Modulus (GPa) = 31.98558 34.03779 33.01169
#
# Velocity S-wave (km/s) = 3.74919 3.86759 3.80885
# Velocity P-wave (km/s) = 6.70939 6.91015 6.81051
#
# Compressibility (1/GPa) = 0.01672608
#
# Stress axis : x y z
#
# Youngs Moduli (GPa) = 60.60684 60.60805 118.15961
#
# Poissons Ratio (x) = 0.40530 0.33563
# Poissons Ratio (y) = 0.40530 0.33562
# Poissons Ratio (z) = 0.17215 0.17215
#
# Static dielectric constant tensor:
#      x y z
#    x 4.287240 0.000000 0.000000 
#    y 0.000000 4.287240 0.000000 
#    z 0.000000 0.000000 4.638790 
# 
# 
# High freq. dielectric constant tensor:
#      x y z
#    x 1.899470 0.000000 0.000000 
#    y 0.000000 1.899470 0.000000 
#    z 0.000000 0.000000 1.912410 
# 
# From -- ./inp_files/2237.got.cif
#   From: 2010.03.12/outbox.cif.g09.slc.cpg/sg90_2_cif.got.tgz:2237.got - 2010.04.08 20:26:03.
