data_PCOD8304717
_publ_section_title
;
Structure prediction by ZEFSAII (Michael W. Deem and Ramdas Pophale) SiO2 
 PCOD8304717
Probable space group: P 41 2 2
;
_chemical_formula_sum "Si O2"
_cell_formula_units_Z 64
_cell_length_a 14.139558
_cell_length_b 14.139558
_cell_length_c 17.570411
_cell_angle_alpha 90.000000
_cell_angle_beta 90.000000
_cell_angle_gamma 90.000000
_cell_volume 3512.801325
_symmetry_space_group_name_H-M "P 41 2 2"
_symmetry_group_IT_number 91
_symmetry_cell_setting 'tetragonal'
loop_
_space_group_symop_operation_xyz
x,y,z
-y,x,1/4+z
-x,-y,1/2+z
y,-x,3/4+z
x,-y,1/2-z
-x,y,-z
y,x,3/4-z
-y,-x,1/4-z
loop_
_atom_site_type_symbol
_atom_site_label
_atom_site_fract_x
_atom_site_fract_y
_atom_site_fract_z
Si Si1 0.462507 0.953501 0.079749
Si Si2 0.895120 0.748436 0.614004
Si Si3 0.586782 0.330547 0.048235
Si Si4 0.783764 0.306011 0.313333
Si Si5 0.839960 0.497784 0.376599
Si Si6 0.559294 0.099450 0.280078
Si Si7 0.275442 0.988957 0.484557
Si Si8 0.041620 0.929458 0.817218
O O1 0.496050 0.878794 0.144423
O O2 0.513603 0.054123 0.095692
O O3 0.500000 0.913498 0.000000
O O4 0.349197 0.967353 0.076682
O O5 0.781550 0.760837 0.619649
O O6 0.908752 0.671152 0.547270
O O7 0.936086 0.850541 0.594535
O O8 0.951343 0.710673 0.687715
O O9 0.610120 0.389881 0.125000
O O10 0.558442 0.224988 0.071385
O O11 0.500000 0.378754 0.000000
O O12 0.673970 0.309028 0.990223
O O13 0.805587 0.389619 0.372631
O O14 0.875185 0.290010 0.257980
O O15 0.825853 0.535765 0.463224
O O16 0.520372 0.000000 0.250000
O O17 0.171256 0.001645 0.453372
O O18 0.035157 0.000000 0.750000
O O19 0.965624 0.965624 0.875000
#
# Coordination Sequence:
#
# PCOD8304717 Si02
#       8
#     8   8   8   8   8   8   8   8
#     4  10  17  32  52  74 106 140 177 224 286 325
#     4  11  20  34  53  79 110 144 186 226 277 323
#     4  10  19  34  57  86 111 138 171 216 275 336
#     4   9  20  34  52  79 112 147 177 224 274 331
#     4   9  18  33  52  78 111 138 169 224 280 332
#     4  10  20  30  51  81 106 135 177 232 279 331
#     4  10  20  35  53  75 104 148 188 225 271 325
#     4  11  22  39  52  71 108 151 191 228 263 320
#
# _framework density 18.219078
#
# number of rings (size 3 to 8) (size 9 to 14) (size 15 to 20)
#    0.000    2.000    2.500    3.000    1.750    0.000 
#    6.750    0.625    0.000    0.000   19.500    0.000 
#    0.000    0.000    0.000    0.000    0.000    0.000 
#
# Total GULP energy -792913.088802 kJ/mol
# GULP energy per Si atom -12389.267013 kJ/mol
# Density = 1.817761 g / cm^3
# Si number density = 18.219078 Si / 1000 Ang^3
#
#
#
# Elastic Constant Matrix: (Units=GPa)
#
#
# Indices 1 2 3 4 5 6 
#
# 1 77.5265 15.9047 29.5304 0.0000 0.0000 0.0000
# 2 15.9047 77.5263 29.5305 0.0000 0.0000 0.0000
# 3 29.5304 29.5305 85.1672 0.0000 0.0000 0.0000
# 4 0.0000 0.0000 0.0000 33.6413 0.0000 0.0000
# 5 0.0000 0.0000 0.0000 0.0000 33.6414 0.0000
# 6 0.0000 0.0000 0.0000 0.0000 0.0000 12.5366
#
#
#
# Elastic Compliance Matrix: (Units=1/GPa)
#
#
# Indices 1 2 3 4 5 6 
#
# 1 0.014968 -0.001260 -0.004753 0.000000 0.000000 0.000000
# 2 -0.001260 0.014968 -0.004753 0.000000 0.000000 0.000000
# 3 -0.004753 -0.004753 0.015038 0.000000 0.000000 0.000000
# 4 0.000000 0.000000 0.000000 0.029725 0.000000 0.000000
# 5 0.000000 0.000000 0.000000 0.000000 0.029725 0.000000
# 6 0.000000 0.000000 0.000000 0.000000 0.000000 0.079766
#
#
# Mechanical properties :
#
#
# Convention : Reuss Voigt Hill
#
# Bulk Modulus (GPa) = 42.66008 43.35014 43.00511
# Shear Modulus (GPa) = 23.41528 26.98084 25.19806
#
# Velocity S-wave (km/s) = 3.58887 3.85244 3.72298
# Velocity P-wave (km/s) = 6.37489 6.60559 6.49126
#
# Compressibility (1/GPa) = 0.02344112
#
# Stress axis : x y z
#
# Youngs Moduli (GPa) = 66.81030 66.81002 66.50009
#
# Poissons Ratio (x) = 0.08420 0.31606
# Poissons Ratio (y) = 0.08420 0.31607
# Poissons Ratio (z) = 0.31754 0.31754
#
# Static dielectric constant tensor:
#      x y z
#    x 3.307570 0.000000 0.000000 
#    y 0.000000 3.307570 0.000000 
#    z 0.000000 0.000000 3.578630 
# 
# 
# High freq. dielectric constant tensor:
#      x y z
#    x 1.692950 0.000000 0.000000 
#    y 0.000000 1.692950 0.000000 
#    z 0.000000 0.000000 1.701840 
# 
# From -- ./inp_files/12076.got.cif
#   From: 2010.03.12/outbox.cif.g09.slc.cpg/sg91_7_cif.got.tgz:12076.got - 2010.04.08 20:27:58.
