data_PCOD8304055
_publ_section_title
;
Structure prediction by ZEFSAII (Michael W. Deem and Ramdas Pophale) SiO2 
 PCOD8304055
Probable space group: I 4/M
;
_chemical_formula_sum "Si O2"
_cell_formula_units_Z 72
_cell_length_a 14.939918
_cell_length_b 14.939918
_cell_length_c 16.120178
_cell_angle_alpha 90.000000
_cell_angle_beta 90.000000
_cell_angle_gamma 90.000000
_cell_volume 3598.042265
_symmetry_space_group_name_H-M "I 4/M"
_symmetry_group_IT_number 87
_symmetry_cell_setting 'tetragonal'
loop_
_space_group_symop_operation_xyz
x,y,z
-y,x,z
-x,-y,z
y,-x,z
-x,-y,-z
y,-x,-z
x,y,-z
-y,x,-z
1/2+x,1/2+y,1/2+z
1/2-y,1/2+x,1/2+z
1/2-x,1/2-y,1/2+z
1/2+y,1/2-x,1/2+z
1/2-x,1/2-y,1/2-z
1/2+y,1/2-x,1/2-z
1/2+x,1/2+y,1/2-z
1/2-y,1/2+x,1/2-z
loop_
_atom_site_type_symbol
_atom_site_label
_atom_site_fract_x
_atom_site_fract_y
_atom_site_fract_z
Si Si1 0.905585 0.111996 0.316004
Si Si2 0.958157 0.141977 0.000000
Si Si3 0.580653 0.122255 0.760913
Si Si4 0.331729 0.776415 0.904364
Si Si5 0.785880 0.868325 0.153110
O O1 0.853700 0.173911 0.381213
O O2 0.880763 0.137989 0.222204
O O3 0.011026 0.124972 0.330909
O O4 0.942305 0.201414 0.918284
O O5 0.059715 0.110586 0.000000
O O6 0.473982 0.122631 0.755887
O O7 0.606772 0.155691 0.852300
O O8 0.621282 0.187906 0.692083
O O9 0.228786 0.796152 0.886285
O O10 0.353157 0.793650 0.000000
#
# Coordination Sequence:
#
# PCOD8304055 Si02
#       5
#    16   8  16  16  16
#     4  10  22  40  65  92 122 167 212 258 318 387
#     4  11  24  40  64  99 133 160 203 268 326 381
#     4  10  24  45  66  90 122 172 218 260 310 375
#     4  11  25  41  63  96 128 166 206 266 322 378
#     4  11  23  39  66  91 128 166 208 264 319 379
#
# _framework density 20.010883
#
# number of rings (size 3 to 8) (size 9 to 14) (size 15 to 20)
#    0.000    1.444    1.111    4.000   15.556    2.667 
#    2.000    2.222    0.000    0.000    0.000    0.000 
#    0.000    0.000    0.000    0.000    0.000    0.000 
#
# Total GULP energy -446624.012643 kJ/mol
# GULP energy per Si atom -12406.222573 kJ/mol
# Density = 1.996534 g / cm^3
# Si number density = 20.010883 Si / 1000 Ang^3
#
#
#
# Elastic Constant Matrix: (Units=GPa)
#
#
# Indices 1 2 3 4 5 6 
#
# 1 74.1605 16.6661 38.6339 0.0000 0.0000 -1.9967
# 2 16.6661 74.1605 38.6339 0.0000 0.0000 1.9967
# 3 38.6339 38.6339 156.6143 0.0000 0.0000 0.0000
# 4 0.0000 0.0000 0.0000 20.5650 0.0000 0.0000
# 5 0.0000 0.0000 0.0000 0.0000 20.5650 0.0000
# 6 -1.9967 1.9967 0.0000 0.0000 0.0000 33.9603
#
#
#
# Elastic Compliance Matrix: (Units=1/GPa)
#
#
# Indices 1 2 3 4 5 6 
#
# 1 0.015699 -0.001765 -0.003437 0.000000 0.000000 0.001027
# 2 -0.001765 0.015699 -0.003437 0.000000 0.000000 -0.001027
# 3 -0.003437 -0.003437 0.008081 0.000000 0.000000 0.000000
# 4 0.000000 0.000000 0.000000 0.048626 0.000000 0.000000
# 5 0.000000 0.000000 0.000000 0.000000 0.048626 0.000000
# 6 0.001027 -0.001027 0.000000 0.000000 0.000000 0.029567
#
#
# Mechanical properties :
#
#
# Convention : Reuss Voigt Hill
#
# Bulk Modulus (GPa) = 45.04489 54.75588 49.90038
# Shear Modulus (GPa) = 26.18099 29.08482 27.63291
#
# Velocity S-wave (km/s) = 3.62102 3.81655 3.72007
# Velocity P-wave (km/s) = 6.32783 6.84426 6.59110
#
# Compressibility (1/GPa) = 0.02220008
#
# Stress axis : x y z
#
# Youngs Moduli (GPa) = 63.69731 63.69730 123.74778
#
# Poissons Ratio (x) = 0.11243 0.42536
# Poissons Ratio (y) = 0.11243 0.42536
# Poissons Ratio (z) = 0.21895 0.21895
#
# Static dielectric constant tensor:
#      x y z
#    x 3.706670 0.000000 0.000000 
#    y 0.000000 3.706670 0.000000 
#    z 0.000000 0.000000 3.641600 
# 
# 
# High freq. dielectric constant tensor:
#      x y z
#    x 1.790860 0.000000 0.000000 
#    y 0.000000 1.790860 0.000000 
#    z 0.000000 0.000000 1.778890 
# 
# From -- ./inp_files/4246.got.cif
#   From: 2010.03.12/outbox.cif.g09.slc.cpg/sg87_3_cif.got.tgz:4246.got - 2010.04.08 20:16:13.
