data_PCOD8304866
_publ_section_title
;
Structure prediction by ZEFSAII (Michael W. Deem and Ramdas Pophale) SiO2 
 PCOD8304866
Probable space group: P 41 2 2
;
_chemical_formula_sum "Si O2"
_cell_formula_units_Z 48
_cell_length_a 8.858230
_cell_length_b 8.858230
_cell_length_c 31.478609
_cell_angle_alpha 90.000000
_cell_angle_beta 90.000000
_cell_angle_gamma 90.000000
_cell_volume 2470.071006
_symmetry_space_group_name_H-M "P 41 2 2"
_symmetry_group_IT_number 91
_symmetry_cell_setting 'tetragonal'
loop_
_space_group_symop_operation_xyz
x,y,z
-y,x,1/4+z
-x,-y,1/2+z
y,-x,3/4+z
x,-y,1/2-z
-x,y,-z
y,x,3/4-z
-y,-x,1/4-z
loop_
_atom_site_type_symbol
_atom_site_label
_atom_site_fract_x
_atom_site_fract_y
_atom_site_fract_z
Si Si1 0.200550 0.842292 0.424885
Si Si2 0.300053 0.824223 0.915897
Si Si3 0.651290 0.822507 0.253008
Si Si4 0.151640 0.136780 0.922457
Si Si5 0.177950 0.684200 0.994117
Si Si6 0.594842 0.100096 0.541665
O O1 0.216137 0.742415 0.382342
O O2 0.249079 0.739846 0.464099
O O3 0.027076 0.898452 0.428745
O O4 0.320676 0.977384 0.428691
O O5 0.479947 0.817384 0.925467
O O6 0.243001 0.986446 0.932095
O O7 0.211199 0.706412 0.944601
O O8 0.733564 0.782074 0.297156
O O9 0.483611 0.760648 0.248400
O O10 0.646455 0.000000 0.250000
O O11 0.189371 0.189371 0.875000
O O12 0.273463 0.789423 0.025519
O O13 0.000000 0.708881 0.000000
O O14 0.500000 0.041584 0.500000
#
# Coordination Sequence:
#
# PCOD8304866 Si02
#       6
#     8   8   8   8   8   8
#     4  10  20  36  58  82 110 144 184 231 278 332
#     4  10  21  36  55  83 112 141 183 233 279 327
#     4   9  18  33  55  81 110 142 181 228 277 328
#     4   9  18  34  58  86 109 140 188 233 273 328
#     4  10  20  36  58  82 109 148 188 227 277 329
#     4  10  21  37  57  82 114 147 183 230 280 332
#
# _framework density 19.432638000000001
#
# number of rings (size 3 to 8) (size 9 to 14) (size 15 to 20)
#    0.000    2.333    0.000    3.000    0.000    6.667 
#    0.000   10.000    0.000    0.000    0.000    0.000 
#    0.000    0.000    0.000    0.000    0.000    0.000 
#
# Total GULP energy -594830.831972 kJ/mol
# GULP energy per Si atom -12392.308999 kJ/mol
# Density = 1.938841 g / cm^3
# Si number density = 19.432638 Si / 1000 Ang^3
#
#
#
# Elastic Constant Matrix: (Units=GPa)
#
#
# Indices 1 2 3 4 5 6 
#
# 1 94.5744 40.7334 56.0737 0.0000 0.0000 0.0000
# 2 40.7334 94.5744 56.0737 0.0000 0.0000 0.0000
# 3 56.0737 56.0737 142.9386 0.0000 0.0000 0.0000
# 4 0.0000 0.0000 0.0000 16.9693 0.0000 0.0000
# 5 0.0000 0.0000 0.0000 0.0000 16.9693 0.0000
# 6 0.0000 0.0000 0.0000 0.0000 0.0000 -3.5769
#
#
#
# Elastic Compliance Matrix: (Units=1/GPa)
#
#
# Indices 1 2 3 4 5 6 
#
# 1 0.014762 -0.003811 -0.004296 0.000000 0.000000 0.000000
# 2 -0.003811 0.014762 -0.004296 0.000000 0.000000 0.000000
# 3 -0.004296 -0.004296 0.010367 0.000000 0.000000 0.000000
# 4 0.000000 0.000000 0.000000 0.058930 0.000000 0.000000
# 5 0.000000 0.000000 0.000000 0.000000 0.058930 0.000000
# 6 0.000000 0.000000 0.000000 0.000000 0.000000 -0.279572
#
#
# Mechanical properties :
#
#
# Convention : Reuss Voigt Hill
#
# Bulk Modulus (GPa) = 66.29168 70.87211 68.58190
# Shear Modulus (GPa) = -54.35586 18.01945 -18.16821
#
# Velocity S-wave (km/s) = -5.29454 3.04843 -3.06098
# Velocity P-wave (km/s) = 1.78565 6.99574 4.78288
#
# Compressibility (1/GPa) = 0.01508485
#
# Stress axis : x y z
#
# Youngs Moduli (GPa) = 67.74029 67.74029 96.46290
#
# Poissons Ratio (x) = 0.25815 0.41442
# Poissons Ratio (y) = 0.25815 0.41442
# Poissons Ratio (z) = 0.29102 0.29102
#
# Static dielectric constant tensor:
#      x y z
#    x 3.828130 0.000000 0.000000 
#    y 0.000000 3.828130 0.000000 
#    z 0.000000 0.000000 3.718400 
# 
# 
# High freq. dielectric constant tensor:
#      x y z
#    x 1.747240 0.000000 0.000000 
#    y 0.000000 1.747240 0.000000 
#    z 0.000000 0.000000 1.764640 
# 
# From -- ./inp_files/7961.got.cif
#   From: 2010.03.12/outbox.cif.g09.slc.cpg/sg91_4_cif.got.tgz:7961.got - 2010.04.08 20:27:58.
