data_PCOD8304672
_publ_section_title
;
Structure prediction by ZEFSAII (Michael W. Deem and Ramdas Pophale) SiO2 
 PCOD8304672
Probable space group: P 4 21 2
;
_chemical_formula_sum "Si O2"
_cell_formula_units_Z 44
_cell_length_a 8.136023
_cell_length_b 8.136023
_cell_length_c 30.166347
_cell_angle_alpha 90.000000
_cell_angle_beta 90.000000
_cell_angle_gamma 90.000000
_cell_volume 1996.857426
_symmetry_space_group_name_H-M "P 4 21 2"
_symmetry_group_IT_number 90
_symmetry_cell_setting 'tetragonal'
loop_
_space_group_symop_operation_xyz
x,y,z
1/2-y,1/2+x,z
-x,-y,z
1/2+y,1/2-x,z
1/2+x,1/2-y,-z
1/2-x,1/2+y,-z
y,x,-z
-y,-x,-z
loop_
_atom_site_type_symbol
_atom_site_label
_atom_site_fract_x
_atom_site_fract_y
_atom_site_fract_z
Si Si1 0.259684 0.418218 0.270714
Si Si2 0.758385 0.913241 0.128638
Si Si3 0.746398 0.397632 0.043573
Si Si4 0.500000 0.500000 0.199963
Si Si5 0.081798 0.757765 0.365966
Si Si6 0.761216 0.076134 0.538900
O O1 0.202834 0.606822 0.266235
O O2 0.387321 0.384295 0.231261
O O3 0.350940 0.388725 0.318915
O O4 0.603226 0.793657 0.130433
O O5 0.857894 0.873450 0.084260
O O6 0.881280 0.885672 0.169929
O O7 0.789005 0.589361 0.044916
O O8 0.642677 0.357324 0.000000
O O9 0.200835 0.604261 0.365941
O O10 0.108611 0.852207 0.412978
O O11 0.609073 0.199990 0.534534
O O12 0.891040 0.108960 0.500000
#
# Coordination Sequence:
#
# PCOD8304672 Si02
#       6
#     8   8   8   4   8   8
#     4   9  18  34  56  79 104 138 182 230 280 335
#     4  11  24  41  60  85 121 162 197 233 286 348
#     4  11  24  42  66  96 127 160 200 244 288 337
#     4  12  22  36  57  86 113 142 186 242 292 334
#     4   7  12  27  49  70  95 130 171 215 264 320
#     4   9  17  30  48  71 101 135 170 212 263 320
#
# _framework density 22.034623
#
# number of rings (size 3 to 8) (size 9 to 14) (size 15 to 20)
#    0.000    2.364    0.000    5.455    0.000    3.636 
#    0.000    7.273    0.000    0.000    0.000    2.545 
#    0.000    0.000    0.000    0.000    0.000    0.000 
#
# Total GULP energy -545130.120612 kJ/mol
# GULP energy per Si atom -12389.320923 kJ/mol
# Density = 2.198447 g / cm^3
# Si number density = 22.034623 Si / 1000 Ang^3
#
#
#
# Elastic Constant Matrix: (Units=GPa)
#
#
# Indices 1 2 3 4 5 6 
#
# 1 62.4064 16.0888 46.5176 0.0000 0.0000 0.0000
# 2 16.0888 62.4065 46.5177 0.0000 0.0000 0.0000
# 3 46.5176 46.5177 231.3598 0.0000 0.0000 0.0000
# 4 0.0000 0.0000 0.0000 34.1814 0.0000 0.0000
# 5 0.0000 0.0000 0.0000 0.0000 34.1813 0.0000
# 6 0.0000 0.0000 0.0000 0.0000 0.0000 27.7401
#
#
#
# Elastic Compliance Matrix: (Units=1/GPa)
#
#
# Indices 1 2 3 4 5 6 
#
# 1 0.019158 -0.002432 -0.003363 0.000000 0.000000 0.000000
# 2 -0.002432 0.019158 -0.003363 0.000000 0.000000 0.000000
# 3 -0.003363 -0.003363 0.005675 0.000000 0.000000 0.000000
# 4 0.000000 0.000000 0.000000 0.029256 0.000000 0.000000
# 5 0.000000 0.000000 0.000000 0.000000 0.029256 0.000000
# 6 0.000000 0.000000 0.000000 0.000000 0.000000 0.036049
#
#
# Mechanical properties :
#
#
# Convention : Reuss Voigt Hill
#
# Bulk Modulus (GPa) = 38.95000 63.82456 51.38728
# Shear Modulus (GPa) = 30.22529 35.69045 32.95787
#
# Velocity S-wave (km/s) = 3.70769 4.02897 3.87166
# Velocity P-wave (km/s) = 6.00370 7.11842 6.58469
#
# Compressibility (1/GPa) = 0.02567394
#
# Stress axis : x y z
#
# Youngs Moduli (GPa) = 52.19831 52.19830 176.22541
#
# Poissons Ratio (x) = 0.12696 0.59262
# Poissons Ratio (y) = 0.12696 0.59262
# Poissons Ratio (z) = 0.17553 0.17553
#
# Static dielectric constant tensor:
#      x y z
#    x 3.661370 0.000000 0.000000 
#    y 0.000000 3.661360 0.000000 
#    z 0.000000 0.000000 4.600130 
# 
# 
# High freq. dielectric constant tensor:
#      x y z
#    x 1.843360 0.000000 0.000000 
#    y 0.000000 1.843360 0.000000 
#    z 0.000000 0.000000 1.897060 
# 
# From -- ./inp_files/3008.got.cif
#   From: 2010.03.12/outbox.cif.g09.slc.cpg/sg90_2_cif.got.tgz:3008.got - 2010.04.08 20:26:03.
