data_PCOD8304892
_publ_section_title
;
Structure prediction by ZEFSAII (Michael W. Deem and Ramdas Pophale) SiO2 
 PCOD8304892
Probable space group: P 41 2 2
;
_chemical_formula_sum "Si O2"
_cell_formula_units_Z 36
_cell_length_a 11.493312
_cell_length_b 11.493312
_cell_length_c 14.464780
_cell_angle_alpha 90.000000
_cell_angle_beta 90.000000
_cell_angle_gamma 90.000000
_cell_volume 1910.742772
_symmetry_space_group_name_H-M "P 41 2 2"
_symmetry_group_IT_number 91
_symmetry_cell_setting 'tetragonal'
loop_
_space_group_symop_operation_xyz
x,y,z
-y,x,1/4+z
-x,-y,1/2+z
y,-x,3/4+z
x,-y,1/2-z
-x,y,-z
y,x,3/4-z
-y,-x,1/4-z
loop_
_atom_site_type_symbol
_atom_site_label
_atom_site_fract_x
_atom_site_fract_y
_atom_site_fract_z
Si Si1 0.116723 0.403942 0.456429
Si Si2 0.558081 0.441920 0.125000
Si Si3 0.793050 0.814666 0.649244
Si Si4 0.218257 0.056261 0.433217
Si Si5 0.312861 0.595525 0.441312
O O1 0.157397 0.305730 0.526922
O O2 0.087596 0.345922 0.357367
O O3 0.222052 0.490946 0.441492
O O4 0.000000 0.463628 0.500000
O O5 0.575792 0.581491 0.119732
O O6 0.614310 0.375843 0.210999
O O7 0.909841 0.786586 0.708283
O O8 0.760142 0.707721 0.585002
O O9 0.810291 0.920270 0.578140
O O10 0.120201 0.120201 0.375000
#
# Coordination Sequence:
#
# PCOD8304892 Si02
#       5
#     8   4   8   8   8
#     4   9  19  36  57  86 118 151 199 251 294 352
#     4  10  24  36  60  84 124 164 196 256 296 364
#     4  10  20  38  61  87 118 154 198 246 303 360
#     4   9  19  36  62  87 113 150 195 256 301 350
#     4  11  21  39  58  86 121 160 206 246 304 356
#
# _framework density 18.840838999999999
#
# number of rings (size 3 to 8) (size 9 to 14) (size 15 to 20)
#    0.000    2.222    2.222    2.000    4.667    0.889 
#    4.000    2.222    0.000    0.000    0.000    0.000 
#    0.000    0.000    0.000    0.000    0.000    0.000 
#
# Total GULP energy -446262.941192 kJ/mol
# GULP energy per Si atom -12396.192811 kJ/mol
# Density = 1.879796 g / cm^3
# Si number density = 18.840839 Si / 1000 Ang^3
#
#
#
# Elastic Constant Matrix: (Units=GPa)
#
#
# Indices 1 2 3 4 5 6 
#
# 1 107.2162 56.7373 52.0428 0.0000 0.0000 0.0000
# 2 56.7373 107.2168 52.0429 0.0000 0.0000 0.0000
# 3 52.0428 52.0429 86.0343 0.0000 0.0000 0.0000
# 4 0.0000 0.0000 0.0000 23.6291 0.0000 0.0000
# 5 0.0000 0.0000 0.0000 0.0000 23.6292 0.0000
# 6 0.0000 0.0000 0.0000 0.0000 0.0000 5.5522
#
#
#
# Elastic Compliance Matrix: (Units=1/GPa)
#
#
# Indices 1 2 3 4 5 6 
#
# 1 0.014856 -0.004954 -0.005990 0.000000 0.000000 0.000000
# 2 -0.004954 0.014856 -0.005990 0.000000 0.000000 0.000000
# 3 -0.005990 -0.005990 0.018870 0.000000 0.000000 0.000000
# 4 0.000000 0.000000 0.000000 0.042321 0.000000 0.000000
# 5 0.000000 0.000000 0.000000 0.000000 0.042321 0.000000
# 6 0.000000 0.000000 0.000000 0.000000 0.000000 0.180108
#
#
# Mechanical properties :
#
#
# Convention : Reuss Voigt Hill
#
# Bulk Modulus (GPa) = 67.95984 69.12369 68.54176
# Shear Modulus (GPa) = 14.20041 19.87172 17.03606
#
# Velocity S-wave (km/s) = 2.74834 3.25116 3.01027
# Velocity P-wave (km/s) = 6.79853 7.13171 6.96711
#
# Compressibility (1/GPa) = 0.01471457
#
# Stress axis : x y z
#
# Youngs Moduli (GPa) = 67.31276 67.31315 52.99500
#
# Poissons Ratio (x) = 0.33348 0.31742
# Poissons Ratio (y) = 0.33348 0.31742
# Poissons Ratio (z) = 0.40318 0.40318
#
# Static dielectric constant tensor:
#      x y z
#    x 3.534190 0.000000 0.000000 
#    y 0.000000 3.534180 0.000000 
#    z 0.000000 0.000000 3.441670 
# 
# 
# High freq. dielectric constant tensor:
#      x y z
#    x 1.728970 0.000000 0.000000 
#    y 0.000000 1.728970 0.000000 
#    z 0.000000 0.000000 1.719600 
# 
# From -- ./inp_files/11262.got.cif
#   From: 2010.03.12/outbox.cif.g09.slc.cpg/sg91_6_cif.got.tgz:11262.got - 2010.04.08 20:27:58.
