data_PCOD8304395
_publ_section_title
;
Structure prediction by ZEFSAII (Michael W. Deem and Ramdas Pophale) SiO2 
 PCOD8304395
Probable space group: I 41/A
;
_chemical_formula_sum "Si O2"
_cell_formula_units_Z 112
_cell_length_a 14.276437
_cell_length_b 14.276437
_cell_length_c 29.350220
_cell_angle_alpha 90.000000
_cell_angle_beta 90.000000
_cell_angle_gamma 90.000000
_cell_volume 5982.063617
_symmetry_space_group_name_H-M "I 41/A"
_symmetry_group_IT_number 88
_space_group.IT_coordinate_system_code '2'
_symmetry_cell_setting 'tetragonal'
loop_
_space_group_symop_operation_xyz
x,y,z
3/4-y,1/4+x,1/4+z
-x,1/2-y,z
1/4+y,1/4-x,1/4+z
-x,-y,-z
1/4+y,3/4-x,3/4-z
x,1/2+y,-z
3/4-y,3/4+x,3/4-z
1/2+x,1/2+y,1/2+z
1/4-y,3/4+x,3/4+z
1/2-x,-y,1/2+z
3/4+y,3/4-x,3/4+z
1/2-x,1/2-y,1/2-z
3/4+y,1/4-x,1/4-z
1/2+x,y,1/2-z
1/4-y,1/4+x,1/4-z
loop_
_atom_site_type_symbol
_atom_site_label
_atom_site_fract_x
_atom_site_fract_y
_atom_site_fract_z
Si Si1 0.502582 0.140962 0.324824
Si Si2 0.106128 0.250427 0.969086
Si Si3 0.173124 0.925751 0.872189
Si Si4 0.206746 0.055684 0.954991
Si Si5 0.393165 0.641718 0.071806
Si Si6 0.397139 0.357319 0.928967
Si Si7 0.788345 0.064396 0.955385
O O1 0.500000 0.250000 0.341332
O O2 0.520479 0.140437 0.272062
O O3 0.412682 0.078933 0.337037
O O4 0.582938 0.080398 0.348025
O O5 0.151477 0.152050 0.957271
O O6 0.162261 0.336081 0.947445
O O7 0.000000 0.250000 0.950706
O O8 0.263070 0.929819 0.840394
O O9 0.170786 0.011045 0.907814
O O10 0.318085 0.076461 0.954009
O O11 0.182310 0.990344 0.998509
O O12 0.378964 0.630887 0.125501
O O13 0.497991 0.609589 0.057853
O O14 0.380451 0.749526 0.057242
O O15 0.323939 0.421534 0.956442
#
# Coordination Sequence:
#
# PCOD8304395 Si02
#       7
#    16  16  16  16  16  16  16
#     4  11  22  42  65  87 123 164 214 254 304 373
#     4  11  26  42  59  90 129 165 208 262 307 366
#     4  12  23  38  64  93 118 164 202 260 308 365
#     4  12  24  38  62  93 123 161 207 253 309 372
#     4   9  18  36  61  85 113 154 200 246 298 360
#     4   9  18  36  61  85 113 154 200 246 298 360
#     4  12  24  38  62  93 123 161 207 253 309 372
#
# _framework density 18.722636999999999
#
# number of rings (size 3 to 8) (size 9 to 14) (size 15 to 20)
#    0.000    1.143    7.143    0.857    2.000    1.143 
#    0.000    0.000    0.000    0.000    3.714    0.000 
#    0.000    0.000    0.000    0.000    0.000    0.000 
#
# Total GULP energy -694155.578033 kJ/mol
# GULP energy per Si atom -12395.635322 kJ/mol
# Density = 1.868002 g / cm^3
# Si number density = 18.722637 Si / 1000 Ang^3
#
#
#
# Elastic Constant Matrix: (Units=GPa)
#
#
# Indices 1 2 3 4 5 6 
#
# 1 109.9090 59.0650 23.1576 0.0000 0.0000 1.7004
# 2 59.0650 109.9090 23.1576 0.0000 0.0000 -1.7004
# 3 23.1576 23.1576 57.8026 0.0000 0.0000 0.0000
# 4 0.0000 0.0000 0.0000 24.1204 0.0000 0.0000
# 5 0.0000 0.0000 0.0000 0.0000 24.1204 0.0000
# 6 1.7004 -1.7004 0.0000 0.0000 0.0000 32.4366
#
#
#
# Elastic Compliance Matrix: (Units=1/GPa)
#
#
# Indices 1 2 3 4 5 6 
#
# 1 0.013193 -0.006545 -0.002663 0.000000 0.000000 -0.001035
# 2 -0.006545 0.013193 -0.002663 0.000000 0.000000 0.001035
# 3 -0.002663 -0.002663 0.019434 0.000000 0.000000 0.000000
# 4 0.000000 0.000000 0.000000 0.041459 0.000000 0.000000
# 5 0.000000 0.000000 0.000000 0.000000 0.041459 0.000000
# 6 -0.001035 0.001035 0.000000 0.000000 0.000000 0.030938
#
#
# Mechanical properties :
#
#
# Convention : Reuss Voigt Hill
#
# Bulk Modulus (GPa) = 45.29638 54.26455 49.78046
# Shear Modulus (GPa) = 26.20863 27.61816 26.91339
#
# Velocity S-wave (km/s) = 3.74550 3.84490 3.79552
# Velocity P-wave (km/s) = 6.55369 6.98264 6.77157
#
# Compressibility (1/GPa) = 0.02207682
#
# Stress axis : x y z
#
# Youngs Moduli (GPa) = 75.79973 75.79973 51.45521
#
# Poissons Ratio (x) = 0.49608 0.13705
# Poissons Ratio (y) = 0.49608 0.13705
# Poissons Ratio (z) = 0.20189 0.20189
#
# Static dielectric constant tensor:
#      x y z
#    x 3.357360 0.000000 0.000000 
#    y 0.000000 3.357360 0.000000 
#    z 0.000000 0.000000 3.362190 
# 
# 
# High freq. dielectric constant tensor:
#      x y z
#    x 1.730010 0.000000 0.000000 
#    y 0.000000 1.730010 0.000000 
#    z 0.000000 0.000000 1.720050 
# 
# From -- ./inp_files/5879.got.cif
#   From: 2010.03.12/outbox.cif.g09.slc.cpg/sg88_3_cif.got.tgz:5879.got - 2010.04.08 20:20:55.
