data_PCOD8304918
_publ_section_title
;
Structure prediction by ZEFSAII (Michael W. Deem and Ramdas Pophale) SiO2 
 PCOD8304918
Probable space group: P 41 2 2
;
_chemical_formula_sum "Si O2"
_cell_formula_units_Z 32
_cell_length_a 7.668131
_cell_length_b 7.668131
_cell_length_c 25.326867
_cell_angle_alpha 90.000000
_cell_angle_beta 90.000000
_cell_angle_gamma 90.000000
_cell_volume 1489.225682
_symmetry_space_group_name_H-M "P 41 2 2"
_symmetry_group_IT_number 91
_symmetry_cell_setting 'tetragonal'
loop_
_space_group_symop_operation_xyz
x,y,z
-y,x,1/4+z
-x,-y,1/2+z
y,-x,3/4+z
x,-y,1/2-z
-x,y,-z
y,x,3/4-z
-y,-x,1/4-z
loop_
_atom_site_type_symbol
_atom_site_label
_atom_site_fract_x
_atom_site_fract_y
_atom_site_fract_z
Si Si1 0.870431 0.870431 0.875000
Si Si2 0.574082 0.253607 0.698869
Si Si3 0.991525 0.500000 0.250000
Si Si4 0.351188 0.684769 0.943828
Si Si5 0.731705 0.798277 0.583606
O O1 0.862066 0.709728 0.915808
O O2 0.048148 0.872043 0.841347
O O3 0.599850 0.458496 0.684878
O O4 0.593000 0.233448 0.761598
O O5 0.381767 0.182613 0.685444
O O6 0.863448 0.406271 0.290797
O O7 0.114436 0.375596 0.213876
O O8 0.241180 0.653268 0.891314
#
# Coordination Sequence:
#
# PCOD8304918 Si02
#       5
#     4   8   4   8   8
#     4  12  22  40  68  92 132 178 220 276 340 398
#     4  10  20  41  64  98 132 172 228 275 338 413
#     4  10  20  40  66 102 128 174 232 274 336 424
#     4  10  20  40  69  96 132 177 225 277 343 404
#     4  12  21  37  73  95 131 183 218 280 344 396
#
# _framework density 21.487679
#
# number of rings (size 3 to 8) (size 9 to 14) (size 15 to 20)
#    0.000    1.500    7.500    1.500    0.000    1.000 
#    0.000    0.000   44.000    0.000    0.000    0.000 
#    0.000    0.000    0.000    0.000    0.000    0.000 
#
# Total GULP energy -396499.844461 kJ/mol
# GULP energy per Si atom -12390.620139 kJ/mol
# Density = 2.143877 g / cm^3
# Si number density = 21.487679 Si / 1000 Ang^3
#
#
#
# Elastic Constant Matrix: (Units=GPa)
#
#
# Indices 1 2 3 4 5 6 
#
# 1 101.6558 4.9481 30.0766 0.0000 0.0000 0.0000
# 2 4.9481 101.6558 30.0766 0.0000 0.0000 0.0000
# 3 30.0766 30.0766 140.0624 0.0000 0.0000 0.0000
# 4 0.0000 0.0000 0.0000 40.5578 0.0000 0.0000
# 5 0.0000 0.0000 0.0000 0.0000 40.5578 0.0000
# 6 0.0000 0.0000 0.0000 0.0000 0.0000 1.4717
#
#
#
# Elastic Compliance Matrix: (Units=1/GPa)
#
#
# Indices 1 2 3 4 5 6 
#
# 1 0.010507 0.000167 -0.002292 0.000000 0.000000 0.000000
# 2 0.000167 0.010507 -0.002292 0.000000 0.000000 0.000000
# 3 -0.002292 -0.002292 0.008124 0.000000 0.000000 0.000000
# 4 0.000000 0.000000 0.000000 0.024656 0.000000 0.000000
# 5 0.000000 0.000000 0.000000 0.000000 0.024656 0.000000
# 6 0.000000 0.000000 0.000000 0.000000 0.000000 0.679479
#
#
# Mechanical properties :
#
#
# Convention : Reuss Voigt Hill
#
# Bulk Modulus (GPa) = 49.25261 52.61962 50.93612
# Shear Modulus (GPa) = 6.46385 35.06897 20.76641
#
# Velocity S-wave (km/s) = 1.73629 4.04425 3.11212
# Velocity P-wave (km/s) = 5.19526 6.80804 6.05558
#
# Compressibility (1/GPa) = 0.02030349
#
# Stress axis : x y z
#
# Youngs Moduli (GPa) = 95.17331 95.17331 123.09116
#
# Poissons Ratio (x) = -0.01587 0.28213
# Poissons Ratio (y) = -0.01587 0.28213
# Poissons Ratio (z) = 0.21814 0.21814
#
# Static dielectric constant tensor:
#      x y z
#    x 3.708780 0.000000 0.000000 
#    y 0.000000 3.708780 0.000000 
#    z 0.000000 0.000000 4.299030 
# 
# 
# High freq. dielectric constant tensor:
#      x y z
#    x 1.818450 0.000000 0.000000 
#    y 0.000000 1.818450 0.000000 
#    z 0.000000 0.000000 1.872690 
# 
# From -- ./inp_files/13060.got.cif
#   From: 2010.03.12/outbox.cif.g09.slc.cpg/sg91_7_cif.got.tgz:13060.got - 2010.04.08 20:27:58.
