data_PCOD8304313
_publ_section_title
;
Structure prediction by ZEFSAII (Michael W. Deem and Ramdas Pophale) SiO2 
 PCOD8304313
Probable space group: I 41/A
;
_chemical_formula_sum "Si O2"
_cell_formula_units_Z 88
_cell_length_a 11.846934
_cell_length_b 11.846934
_cell_length_c 28.985569
_cell_angle_alpha 90.000000
_cell_angle_beta 90.000000
_cell_angle_gamma 90.000000
_cell_volume 4068.120122
_symmetry_space_group_name_H-M "I 41/A"
_symmetry_group_IT_number 88
_space_group.IT_coordinate_system_code '2'
_symmetry_cell_setting 'tetragonal'
loop_
_space_group_symop_operation_xyz
x,y,z
3/4-y,1/4+x,1/4+z
-x,1/2-y,z
1/4+y,1/4-x,1/4+z
-x,-y,-z
1/4+y,3/4-x,3/4-z
x,1/2+y,-z
3/4-y,3/4+x,3/4-z
1/2+x,1/2+y,1/2+z
1/4-y,3/4+x,3/4+z
1/2-x,-y,1/2+z
3/4+y,3/4-x,3/4+z
1/2-x,1/2-y,1/2-z
3/4+y,1/4-x,1/4-z
1/2+x,y,1/2-z
1/4-y,1/4+x,1/4-z
loop_
_atom_site_type_symbol
_atom_site_label
_atom_site_fract_x
_atom_site_fract_y
_atom_site_fract_z
Si Si1 0.671463 0.357797 0.253657
Si Si2 0.706308 0.425004 0.774174
Si Si3 0.369502 0.736937 0.303473
Si Si4 0.134410 0.354309 0.142574
Si Si5 0.500000 0.250000 0.559242
Si Si6 0.369644 0.938551 0.857968
O O1 0.750000 0.250000 0.250000
O O2 0.748845 0.467811 0.244928
O O3 0.615381 0.371097 0.303459
O O4 0.566192 0.346180 0.219381
O O5 0.632174 0.347738 0.740215
O O6 0.817024 0.357248 0.790748
O O7 0.628754 0.463860 0.818318
O O8 0.500000 0.750000 0.318590
O O9 0.290189 0.693191 0.346062
O O10 0.153268 0.221911 0.134208
O O11 0.241268 0.424703 0.125035
O O12 0.432213 0.157760 0.588098
#
# Coordination Sequence:
#
# PCOD8304313 Si02
#       6
#    16  16  16  16   8  16
#     4  11  23  40  65  99 134 171 220 284 353 409
#     4  10  26  48  66 102 136 186 235 286 353 413
#     4  11  26  47  72  99 138 191 238 290 347 421
#     4  10  22  38  61  97 131 172 214 269 351 419
#     4  12  22  38  63 104 134 174 221 280 352 418
#     4  11  25  40  70  99 136 177 231 288 351 413
#
# _framework density 21.631612000000001
#
# number of rings (size 3 to 8) (size 9 to 14) (size 15 to 20)
#    0.000    1.273    4.545    1.091   10.182    1.455 
#    3.273    0.000    0.000    0.000    0.000    0.000 
#    0.000    0.000    0.000    0.000    0.000    0.000 
#
# Total GULP energy -545478.090707 kJ/mol
# GULP energy per Si atom -12397.229334 kJ/mol
# Density = 2.158238 g / cm^3
# Si number density = 21.631612 Si / 1000 Ang^3
#
#
#
# Elastic Constant Matrix: (Units=GPa)
#
#
# Indices 1 2 3 4 5 6 
#
# 1 82.7269 18.1083 31.1359 0.0000 0.0000 2.6169
# 2 18.1083 82.7269 31.1359 0.0000 0.0000 -2.6169
# 3 31.1359 31.1359 76.5910 0.0000 0.0000 0.0000
# 4 0.0000 0.0000 0.0000 30.3150 0.0000 0.0000
# 5 0.0000 0.0000 0.0000 0.0000 30.3150 0.0000
# 6 2.6169 -2.6169 0.0000 0.0000 0.0000 28.0377
#
#
#
# Elastic Compliance Matrix: (Units=1/GPa)
#
#
# Indices 1 2 3 4 5 6 
#
# 1 0.014417 -0.001176 -0.005383 0.000000 0.000000 -0.001455
# 2 -0.001176 0.014417 -0.005383 0.000000 0.000000 0.001455
# 3 -0.005383 -0.005383 0.017433 0.000000 0.000000 0.000000
# 4 0.000000 0.000000 0.000000 0.032987 0.000000 0.000000
# 5 0.000000 0.000000 0.000000 0.000000 0.032987 0.000000
# 6 -0.001455 0.001455 0.000000 0.000000 0.000000 0.035938
#
#
# Mechanical properties :
#
#
# Convention : Reuss Voigt Hill
#
# Bulk Modulus (GPa) = 44.67458 44.75610 44.71534
# Shear Modulus (GPa) = 27.85135 28.51119 28.18127
#
# Velocity S-wave (km/s) = 3.59211 3.63441 3.61332
# Velocity P-wave (km/s) = 6.15643 6.19249 6.17449
#
# Compressibility (1/GPa) = 0.02238409
#
# Stress axis : x y z
#
# Youngs Moduli (GPa) = 69.36070 69.36070 57.36266
#
# Poissons Ratio (x) = 0.08156 0.30878
# Poissons Ratio (y) = 0.08156 0.30878
# Poissons Ratio (z) = 0.37337 0.37337
#
# Static dielectric constant tensor:
#      x y z
#    x 3.881400 0.000000 0.000000 
#    y 0.000000 3.881400 0.000000 
#    z 0.000000 0.000000 4.063530 
# 
# 
# High freq. dielectric constant tensor:
#      x y z
#    x 1.844070 0.000000 0.000000 
#    y 0.000000 1.844070 0.000000 
#    z 0.000000 0.000000 1.854900 
# 
# From -- ./inp_files/6466.got.cif
#   From: 2010.03.12/outbox.cif.g09.slc.cpg/sg88_4_cif.got.tgz:6466.got - 2010.04.08 20:20:55.
