data_PCOD8304753
_publ_section_title
;
Structure prediction by ZEFSAII (Michael W. Deem and Ramdas Pophale) SiO2 
 PCOD8304753
Probable space group: P 41 2 2
;
_chemical_formula_sum "Si O2"
_cell_formula_units_Z 40
_cell_length_a 14.899327
_cell_length_b 14.899327
_cell_length_c 8.887689
_cell_angle_alpha 90.000000
_cell_angle_beta 90.000000
_cell_angle_gamma 90.000000
_cell_volume 1972.977593
_symmetry_space_group_name_H-M "P 41 2 2"
_symmetry_group_IT_number 91
_symmetry_cell_setting 'tetragonal'
loop_
_space_group_symop_operation_xyz
x,y,z
-y,x,1/4+z
-x,-y,1/2+z
y,-x,3/4+z
x,-y,1/2-z
-x,y,-z
y,x,3/4-z
-y,-x,1/4-z
loop_
_atom_site_type_symbol
_atom_site_label
_atom_site_fract_x
_atom_site_fract_y
_atom_site_fract_z
Si Si1 0.500000 0.996247 0.000000
Si Si2 0.661029 0.077715 0.358523
Si Si3 0.227542 0.417299 0.937263
Si Si4 0.846473 0.601897 0.115978
Si Si5 0.092952 0.762077 0.083687
Si Si6 0.423595 0.576406 0.625000
O O1 0.445719 0.936787 0.882114
O O2 0.577992 0.052944 0.918047
O O3 0.660529 0.176861 0.283328
O O4 0.717401 0.071711 0.508304
O O5 0.699994 0.000000 0.250000
O O6 0.215517 0.387622 0.763123
O O7 0.189740 0.516376 0.976087
O O8 0.332402 0.423882 0.972422
O O9 0.848519 0.692499 0.016959
O O10 0.148953 0.851048 0.125000
O O11 0.000000 0.788870 0.000000
O O12 0.431287 0.500000 0.750000
#
# Coordination Sequence:
#
# PCOD8304753 Si02
#       6
#     4   8   8   8   8   4
#     4  10  18  34  68 100 144 152 200 270 360 408
#     4  12  21  37  67 104 132 170 208 278 369 415
#     4  10  22  39  67  94 133 181 228 283 343 405
#     4  10  19  41  66  96 137 168 215 287 355 398
#     4  12  27  45  66  99 137 176 228 286 345 429
#     4  12  26  50  64  84 142 208 252 284 318 408
#
# _framework density 20.273924999999998
#
# number of rings (size 3 to 8) (size 9 to 14) (size 15 to 20)
#    0.000    1.200    8.000    1.200    2.800    0.000 
#    7.200    1.000    0.000    0.000    0.000    0.000 
#    0.000    0.000    0.000    0.000    0.000    0.000 
#
# Total GULP energy -495657.867190 kJ/mol
# GULP energy per Si atom -12391.446680 kJ/mol
# Density = 2.022778 g / cm^3
# Si number density = 20.273925 Si / 1000 Ang^3
#
#
#
# Elastic Constant Matrix: (Units=GPa)
#
#
# Indices 1 2 3 4 5 6 
#
# 1 124.1777 50.3743 54.7739 0.0000 0.0000 0.0000
# 2 50.3743 124.1775 54.7733 0.0000 0.0000 0.0000
# 3 54.7739 54.7733 104.4710 0.0000 0.0000 0.0000
# 4 0.0000 0.0000 0.0000 23.8963 0.0000 0.0000
# 5 0.0000 0.0000 0.0000 0.0000 23.8974 0.0000
# 6 0.0000 0.0000 0.0000 0.0000 0.0000 19.6151
#
#
#
# Elastic Compliance Matrix: (Units=1/GPa)
#
#
# Indices 1 2 3 4 5 6 
#
# 1 0.011044 -0.002506 -0.004477 0.000000 0.000000 0.000000
# 2 -0.002506 0.011044 -0.004477 0.000000 0.000000 0.000000
# 3 -0.004477 -0.004477 0.014266 0.000000 0.000000 0.000000
# 4 0.000000 0.000000 0.000000 0.041847 0.000000 0.000000
# 5 0.000000 0.000000 0.000000 0.000000 0.041846 0.000000
# 6 0.000000 0.000000 0.000000 0.000000 0.000000 0.050981
#
#
# Mechanical properties :
#
#
# Convention : Reuss Voigt Hill
#
# Bulk Modulus (GPa) = 74.42430 74.74103 74.58266
# Shear Modulus (GPa) = 25.19846 26.34209 25.77028
#
# Velocity S-wave (km/s) = 3.52930 3.60850 3.56912
# Velocity P-wave (km/s) = 7.30733 7.36935 7.33841
#
# Compressibility (1/GPa) = 0.01343647
#
# Stress axis : x y z
#
# Youngs Moduli (GPa) = 90.54671 90.54710 70.09563
#
# Poissons Ratio (x) = 0.22687 0.31380
# Poissons Ratio (y) = 0.22687 0.31379
# Poissons Ratio (z) = 0.40535 0.40535
#
# Static dielectric constant tensor:
#      x y z
#    x 3.752600 0.000000 0.000000 
#    y 0.000000 3.752590 0.000000 
#    z 0.000000 0.000000 3.588760 
# 
# 
# High freq. dielectric constant tensor:
#      x y z
#    x 1.778450 0.000000 0.000000 
#    y 0.000000 1.778450 0.000000 
#    z 0.000000 0.000000 1.793120 
# 
# From -- ./inp_files/15026.got.cif
#   From: 2010.03.12/outbox.cif.g09.slc.cpg/sg91_8_cif.got.tgz:15026.got - 2010.04.08 20:27:58.
