data_PCOD8304836
_publ_section_title
;
Structure prediction by ZEFSAII (Michael W. Deem and Ramdas Pophale) SiO2 
 PCOD8304836
Probable space group: P 41 2 2
;
_chemical_formula_sum "Si O2"
_cell_formula_units_Z 40
_cell_length_a 13.337606
_cell_length_b 13.337606
_cell_length_c 13.331319
_cell_angle_alpha 90.000000
_cell_angle_beta 90.000000
_cell_angle_gamma 90.000000
_cell_volume 2371.531451
_symmetry_space_group_name_H-M "P 41 2 2"
_symmetry_group_IT_number 91
_symmetry_cell_setting 'tetragonal'
loop_
_space_group_symop_operation_xyz
x,y,z
-y,x,1/4+z
-x,-y,1/2+z
y,-x,3/4+z
x,-y,1/2-z
-x,y,-z
y,x,3/4-z
-y,-x,1/4-z
loop_
_atom_site_type_symbol
_atom_site_label
_atom_site_fract_x
_atom_site_fract_y
_atom_site_fract_z
Si Si1 0.114985 0.195180 0.184798
Si Si2 0.598700 0.881573 0.551641
Si Si3 0.396335 0.885265 0.034731
Si Si4 0.118062 0.319315 0.493818
Si Si5 0.183865 0.110436 0.980658
O O1 0.129242 0.315285 0.196031
O O2 0.201616 0.140495 0.246580
O O3 0.009268 0.166135 0.236064
O O4 0.118857 0.163163 0.068138
O O5 0.500000 0.831704 0.500000
O O6 0.616175 0.835938 0.663449
O O7 0.699166 0.860360 0.488381
O O8 0.581146 0.999657 0.559154
O O9 0.358250 0.835913 0.139049
O O10 0.500000 0.832916 0.000000
O O11 0.000000 0.330852 0.500000
O O12 0.149055 0.149055 0.875000
#
# Coordination Sequence:
#
# PCOD8304836 Si02
#       5
#     8   8   8   8   8
#     4  10  20  32  45  65  95 127 158 188 226 279
#     4   8  16  30  46  63  86 119 155 191 234 273
#     4   9  17  29  45  65  86 114 153 197 237 266
#     4   9  17  29  45  65  90 121 154 187 223 276
#     4  10  20  32  46  68  97 127 160 195 226 268
#
# _framework density 16.866738999999999
#
# number of rings (size 3 to 8) (size 9 to 14) (size 15 to 20)
#    0.000    2.800    0.000    2.400    0.000    3.200 
#    0.000    8.000    0.000    0.000    0.000    0.000 
#    0.000   44.800    0.000    0.000    0.000    0.000 
#
# Total GULP energy -495697.466761 kJ/mol
# GULP energy per Si atom -12392.436669 kJ/mol
# Density = 1.682835 g / cm^3
# Si number density = 16.866739 Si / 1000 Ang^3
#
#
#
# Elastic Constant Matrix: (Units=GPa)
#
#
# Indices 1 2 3 4 5 6 
#
# 1 75.8403 14.7925 53.0989 0.0000 0.0000 0.0000
# 2 14.7925 75.8403 53.0989 0.0000 0.0000 0.0000
# 3 53.0989 53.0989 139.7532 0.0000 0.0000 0.0000
# 4 0.0000 0.0000 0.0000 24.0599 0.0000 0.0000
# 5 0.0000 0.0000 0.0000 0.0000 24.0599 0.0000
# 6 0.0000 0.0000 0.0000 0.0000 0.0000 1.3936
#
#
#
# Elastic Compliance Matrix: (Units=1/GPa)
#
#
# Indices 1 2 3 4 5 6 
#
# 1 0.018134 0.001753 -0.007556 0.000000 0.000000 0.000000
# 2 0.001753 0.018134 -0.007556 0.000000 0.000000 0.000000
# 3 -0.007556 -0.007556 0.012897 0.000000 0.000000 0.000000
# 4 0.000000 0.000000 0.000000 0.041563 0.000000 0.000000
# 5 0.000000 0.000000 0.000000 0.000000 0.041563 0.000000
# 6 0.000000 0.000000 0.000000 0.000000 0.000000 0.717558
#
#
# Mechanical properties :
#
#
# Convention : Reuss Voigt Hill
#
# Bulk Modulus (GPa) = 44.54848 59.26824 51.90836
# Shear Modulus (GPa) = 5.65580 21.26560 13.46070
#
# Velocity S-wave (km/s) = 1.83317 3.55463 2.82806
# Velocity P-wave (km/s) = 5.56328 7.21544 6.44254
#
# Compressibility (1/GPa) = 0.02244746
#
# Stress axis : x y z
#
# Youngs Moduli (GPa) = 55.14511 55.14511 77.53535
#
# Poissons Ratio (x) = -0.09669 0.58587
# Poissons Ratio (y) = -0.09669 0.58587
# Poissons Ratio (z) = 0.41668 0.41668
#
# Static dielectric constant tensor:
#      x y z
#    x 3.098690 0.000000 0.000000 
#    y 0.000000 3.098690 0.000000 
#    z 0.000000 0.000000 3.605050 
# 
# 
# High freq. dielectric constant tensor:
#      x y z
#    x 1.619870 0.000000 0.000000 
#    y 0.000000 1.619870 0.000000 
#    z 0.000000 0.000000 1.663830 
# 
# From -- ./inp_files/3646.got.cif
#   From: 2010.03.12/outbox.cif.g09.slc.cpg/sg91_2_cif.got.tgz:3646.got - 2010.04.08 20:27:58.
