data_PCOD8304537
_publ_section_title
;
Structure prediction by ZEFSAII (Michael W. Deem and Ramdas Pophale) SiO2 
 PCOD8304537
Probable space group: P 4 21 2
;
_chemical_formula_sum "Si O2"
_cell_formula_units_Z 32
_cell_length_a 13.485983
_cell_length_b 13.485983
_cell_length_c 7.723234
_cell_angle_alpha 90.000000
_cell_angle_beta 90.000000
_cell_angle_gamma 90.000000
_cell_volume 1404.637987
_symmetry_space_group_name_H-M "P 4 21 2"
_symmetry_group_IT_number 90
_symmetry_cell_setting 'tetragonal'
loop_
_space_group_symop_operation_xyz
x,y,z
1/2-y,1/2+x,z
-x,-y,z
1/2+y,1/2-x,z
1/2+x,1/2-y,-z
1/2-x,1/2+y,-z
y,x,-z
-y,-x,-z
loop_
_atom_site_type_symbol
_atom_site_label
_atom_site_fract_x
_atom_site_fract_y
_atom_site_fract_z
Si Si1 0.599741 0.231488 0.886305
Si Si2 0.403306 0.250238 0.059466
Si Si3 0.475863 0.839007 0.537432
Si Si4 0.176387 0.263485 0.674127
O O1 0.522621 0.262073 0.039053
O O2 0.657311 0.131827 0.939546
O O3 0.530658 0.215890 0.719514
O O4 0.683739 0.313836 0.833127
O O5 0.353050 0.353050 0.000000
O O6 0.367850 0.221999 0.254750
O O7 0.581627 0.886382 0.520591
O O8 0.441046 0.768356 0.377800
O O9 0.236814 0.236814 0.500000
#
# Coordination Sequence:
#
# PCOD8304537 Si02
#       4
#     8   8   8   8
#     4  10  19  37  60  86 130 168 217 267 328 387
#     4  10  21  36  59  91 121 172 219 275 329 392
#     4  10  19  33  56  93 132 170 212 270 333 388
#     4   9  21  37  56  89 131 173 206 268 337 397
#
# _framework density 22.781669999999998
#
# number of rings (size 3 to 8) (size 9 to 14) (size 15 to 20)
#    0.000    2.250    2.500    0.000    3.500    0.500 
#    0.000    0.000    0.000    6.750    0.000    1.750 
#    0.000    0.000    0.000    0.000    0.000    0.000 
#
# Total GULP energy -396417.493018 kJ/mol
# GULP energy per Si atom -12388.046657 kJ/mol
# Density = 2.272982 g / cm^3
# Si number density = 22.781670 Si / 1000 Ang^3
#
#
#
# Elastic Constant Matrix: (Units=GPa)
#
#
# Indices 1 2 3 4 5 6 
#
# 1 73.2005 30.6643 3.0905 0.0000 0.0000 0.0000
# 2 30.6643 73.2005 3.0905 0.0000 0.0000 0.0000
# 3 3.0905 3.0905 89.1490 0.0000 0.0000 0.0000
# 4 0.0000 0.0000 0.0000 21.6786 0.0000 0.0000
# 5 0.0000 0.0000 0.0000 0.0000 21.6786 0.0000
# 6 0.0000 0.0000 0.0000 0.0000 0.0000 23.0556
#
#
#
# Elastic Compliance Matrix: (Units=1/GPa)
#
#
# Indices 1 2 3 4 5 6 
#
# 1 0.016579 -0.006931 -0.000334 0.000000 0.000000 0.000000
# 2 -0.006931 0.016579 -0.000334 0.000000 0.000000 0.000000
# 3 -0.000334 -0.000334 0.011240 0.000000 0.000000 0.000000
# 4 0.000000 0.000000 0.000000 0.046128 0.000000 0.000000
# 5 0.000000 0.000000 0.000000 0.000000 0.046128 0.000000
# 6 0.000000 0.000000 0.000000 0.000000 0.000000 0.043373
#
#
# Mechanical properties :
#
#
# Convention : Reuss Voigt Hill
#
# Bulk Modulus (GPa) = 34.24876 34.36008 34.30442
# Shear Modulus (GPa) = 24.39500 26.52953 25.46226
#
# Velocity S-wave (km/s) = 3.27588 3.41620 3.34678
# Velocity P-wave (km/s) = 5.41984 5.53856 5.47952
#
# Compressibility (1/GPa) = 0.02919814
#
# Stress axis : x y z
#
# Youngs Moduli (GPa) = 60.31868 60.31868 88.96504
#
# Poissons Ratio (x) = 0.41806 0.02976
# Poissons Ratio (y) = 0.41806 0.02976
# Poissons Ratio (z) = 0.02017 0.02017
#
# Static dielectric constant tensor:
#      x y z
#    x 3.916660 0.000000 0.000000 
#    y 0.000000 3.916660 0.000000 
#    z 0.000000 0.000000 4.436400 
# 
# 
# High freq. dielectric constant tensor:
#      x y z
#    x 1.876670 0.000000 0.000000 
#    y 0.000000 1.876670 0.000000 
#    z 0.000000 0.000000 1.934730 
# 
# From -- ./inp_files/1042.got.cif
#   From: 2010.03.12/outbox.cif.g09.slc.cpg/sg90_1_cif.got.tgz:1042.got - 2010.04.08 20:26:03.
