data_PCOD8304117
_publ_section_title
;
Structure prediction by ZEFSAII (Michael W. Deem and Ramdas Pophale) SiO2 
 PCOD8304117
Probable space group: I 4/M
;
_chemical_formula_sum "Si O2"
_cell_formula_units_Z 96
_cell_length_a 14.637455
_cell_length_b 14.637455
_cell_length_c 22.673113
_cell_angle_alpha 90.000000
_cell_angle_beta 90.000000
_cell_angle_gamma 90.000000
_cell_volume 4857.829841
_symmetry_space_group_name_H-M "I 4/M"
_symmetry_group_IT_number 87
_symmetry_cell_setting 'tetragonal'
loop_
_space_group_symop_operation_xyz
x,y,z
-y,x,z
-x,-y,z
y,-x,z
-x,-y,-z
y,-x,-z
x,y,-z
-y,x,-z
1/2+x,1/2+y,1/2+z
1/2-y,1/2+x,1/2+z
1/2-x,1/2-y,1/2+z
1/2+y,1/2-x,1/2+z
1/2-x,1/2-y,1/2-z
1/2+y,1/2-x,1/2-z
1/2+x,1/2+y,1/2-z
1/2-y,1/2+x,1/2-z
loop_
_atom_site_type_symbol
_atom_site_label
_atom_site_fract_x
_atom_site_fract_y
_atom_site_fract_z
Si Si1 0.212474 0.877303 0.614892
Si Si2 0.547482 0.909420 0.430391
Si Si3 0.250621 0.432550 0.067223
Si Si4 0.385908 0.403163 0.359876
Si Si5 0.214462 0.384498 0.430356
Si Si6 0.889925 0.102315 0.271693
O O1 0.152579 0.819186 0.568977
O O2 0.317887 0.853664 0.604474
O O3 0.176431 0.850167 0.680494
O O4 0.203120 0.985377 0.603779
O O5 0.550857 0.918623 0.500000
O O6 0.651405 0.902336 0.406272
O O7 0.487054 0.819831 0.413888
O O8 0.500000 0.000000 0.403482
O O9 0.238631 0.465256 0.000000
O O10 0.489018 0.374107 0.370616
O O11 0.316305 0.361250 0.407361
O O12 0.361367 0.367785 0.294098
O O13 0.210879 0.366190 0.500000
O O14 0.995191 0.126379 0.280875
#
# Coordination Sequence:
#
# PCOD8304117 Si02
#       6
#    16  16  16  16  16  16
#     4  12  22  35  58  89 121 161 204 248 293 362
#     4   9  18  36  56  75 114 165 199 232 290 360
#     4  11  22  35  53  86 126 164 200 246 299 357
#     4   9  21  41  63  84 112 149 197 259 313 360
#     4  11  23  37  58  90 121 157 205 249 299 369
#     4   9  18  38  61  83 113 156 200 240 298 360
#
# _framework density 19.76191
#
# number of rings (size 3 to 8) (size 9 to 14) (size 15 to 20)
#    0.000    1.833    3.333    2.500    2.333    1.667 
#    0.000    1.667    0.000    0.000    0.000    0.000 
#    0.000    0.000    0.000    0.000    0.000    0.000 
#
# Total GULP energy -594907.441066 kJ/mol
# GULP energy per Si atom -12393.905022 kJ/mol
# Density = 1.971693 g / cm^3
# Si number density = 19.761910 Si / 1000 Ang^3
#
#
#
# Elastic Constant Matrix: (Units=GPa)
#
#
# Indices 1 2 3 4 5 6 
#
# 1 85.7468 30.3314 27.7865 0.0000 0.0000 3.9892
# 2 30.3314 85.7468 27.7865 0.0000 0.0000 -3.9892
# 3 27.7865 27.7865 64.9479 0.0000 0.0000 0.0000
# 4 0.0000 0.0000 0.0000 25.7412 0.0000 0.0000
# 5 0.0000 0.0000 0.0000 0.0000 25.7412 0.0000
# 6 3.9892 -3.9892 0.0000 0.0000 0.0000 24.7967
#
#
#
# Elastic Compliance Matrix: (Units=1/GPa)
#
#
# Indices 1 2 3 4 5 6 
#
# 1 0.014654 -0.003820 -0.004635 0.000000 0.000000 -0.002972
# 2 -0.003820 0.014654 -0.004635 0.000000 0.000000 0.002972
# 3 -0.004635 -0.004635 0.019363 0.000000 0.000000 0.000000
# 4 0.000000 0.000000 0.000000 0.038848 0.000000 0.000000
# 5 0.000000 0.000000 0.000000 0.000000 0.038848 0.000000
# 6 -0.002972 0.002972 0.000000 0.000000 0.000000 0.041284
#
#
# Mechanical properties :
#
#
# Convention : Reuss Voigt Hill
#
# Bulk Modulus (GPa) = 44.46296 45.36111 44.91204
# Shear Modulus (GPa) = 24.83514 25.29160 25.06337
#
# Velocity S-wave (km/s) = 3.54887 3.58133 3.56514
# Velocity P-wave (km/s) = 6.27222 6.33284 6.30261
#
# Compressibility (1/GPa) = 0.02249063
#
# Stress axis : x y z
#
# Youngs Moduli (GPa) = 68.24227 68.24227 51.64497
#
# Poissons Ratio (x) = 0.26067 0.23938
# Poissons Ratio (y) = 0.26067 0.23938
# Poissons Ratio (z) = 0.31631 0.31631
#
# Static dielectric constant tensor:
#      x y z
#    x 3.545850 0.000000 0.000000 
#    y 0.000000 3.545850 0.000000 
#    z 0.000000 0.000000 3.354050 
# 
# 
# High freq. dielectric constant tensor:
#      x y z
#    x 1.768100 0.000000 0.000000 
#    y 0.000000 1.768100 0.000000 
#    z 0.000000 0.000000 1.743340 
# 
# From -- ./inp_files/5266.got.cif
#   From: 2010.03.12/outbox.cif.g09.slc.cpg/sg87_3_cif.got.tgz:5266.got - 2010.04.08 20:16:13.
