data_PCOD8304068
_publ_section_title
;
Structure prediction by ZEFSAII (Michael W. Deem and Ramdas Pophale) SiO2 
 PCOD8304068
Probable space group: I 4/M
;
_chemical_formula_sum "Si O2"
_cell_formula_units_Z 112
_cell_length_a 14.783114
_cell_length_b 14.783114
_cell_length_c 23.766431
_cell_angle_alpha 90.000000
_cell_angle_beta 90.000000
_cell_angle_gamma 90.000000
_cell_volume 5193.926752
_symmetry_space_group_name_H-M "I 4/M"
_symmetry_group_IT_number 87
_symmetry_cell_setting 'tetragonal'
loop_
_space_group_symop_operation_xyz
x,y,z
-y,x,z
-x,-y,z
y,-x,z
-x,-y,-z
y,-x,-z
x,y,-z
-y,x,-z
1/2+x,1/2+y,1/2+z
1/2-y,1/2+x,1/2+z
1/2-x,1/2-y,1/2+z
1/2+y,1/2-x,1/2+z
1/2-x,1/2-y,1/2-z
1/2+y,1/2-x,1/2-z
1/2+x,1/2+y,1/2-z
1/2-y,1/2+x,1/2-z
loop_
_atom_site_type_symbol
_atom_site_label
_atom_site_fract_x
_atom_site_fract_y
_atom_site_fract_z
Si Si1 0.227567 0.407830 0.061866
Si Si2 0.252814 0.430408 0.385909
Si Si3 0.440920 0.085386 0.065301
Si Si4 0.631726 0.738729 0.598459
Si Si5 0.540424 0.252863 0.744550
Si Si6 0.933446 0.130128 0.346160
Si Si7 0.206152 0.658000 0.273849
O O1 0.173563 0.498962 0.076473
O O2 0.162875 0.320153 0.058353
O O3 0.301105 0.390517 0.109544
O O4 0.272393 0.418107 0.000000
O O5 0.147564 0.407807 0.395852
O O6 0.313669 0.353033 0.414472
O O7 0.279001 0.526057 0.413836
O O8 0.275071 0.435835 0.319749
O O9 0.500000 0.000000 0.084535
O O10 0.412346 0.076767 0.000000
O O11 0.648669 0.771623 0.661380
O O12 0.577785 0.336908 0.781755
O O13 0.434067 0.238153 0.756947
O O14 0.597666 0.165076 0.764701
O O15 0.039172 0.119994 0.357527
O O16 0.250000 0.750000 0.250000
#
# Coordination Sequence:
#
# PCOD8304068 Si02
#       7
#    16  16  16  16  16  16  16
#     4  11  25  44  71 100 131 176 233 291 349 412
#     4  11  25  41  68 101 140 184 230 284 341 411
#     4  10  22  44  70  96 130 174 225 281 346 411
#     4  11  24  43  64  97 136 178 232 287 340 406
#     4  11  24  38  65  96 135 181 222 274 344 411
#     4  11  26  45  67  97 139 187 229 276 345 425
#     4  11  22  41  61  91 132 177 225 282 336 410
#
# _framework density 21.563645999999999
#
# number of rings (size 3 to 8) (size 9 to 14) (size 15 to 20)
#    0.000    1.143    4.286    0.857    6.000    1.714 
#    0.000    0.714    0.000    0.000    0.000    2.000 
#    0.000    0.000    0.000    0.000    0.000    0.000 
#
# Total GULP energy -694424.219736 kJ/mol
# GULP energy per Si atom -12400.432495 kJ/mol
# Density = 2.151457 g / cm^3
# Si number density = 21.563646 Si / 1000 Ang^3
#
#
#
# Elastic Constant Matrix: (Units=GPa)
#
#
# Indices 1 2 3 4 5 6 
#
# 1 120.3178 38.1516 20.0971 0.0000 0.0000 2.8995
# 2 38.1516 120.3178 20.0971 0.0000 0.0000 -2.8995
# 3 20.0971 20.0971 70.3359 0.0000 0.0000 0.0000
# 4 0.0000 0.0000 0.0000 15.2984 0.0000 0.0000
# 5 0.0000 0.0000 0.0000 0.0000 15.2984 0.0000
# 6 2.8995 -2.8995 0.0000 0.0000 0.0000 36.4114
#
#
#
# Elastic Compliance Matrix: (Units=1/GPa)
#
#
# Indices 1 2 3 4 5 6 
#
# 1 0.009521 -0.002718 -0.001944 0.000000 0.000000 -0.000975
# 2 -0.002718 0.009521 -0.001944 0.000000 0.000000 0.000975
# 3 -0.001944 -0.001944 0.015328 0.000000 0.000000 0.000000
# 4 0.000000 0.000000 0.000000 0.065366 0.000000 0.000000
# 5 0.000000 0.000000 0.000000 0.000000 0.065366 0.000000
# 6 -0.000975 0.000975 0.000000 0.000000 0.000000 0.027619
#
#
# Mechanical properties :
#
#
# Convention : Reuss Voigt Hill
#
# Bulk Modulus (GPa) = 47.26020 51.96257 49.61139
# Shear Modulus (GPa) = 23.47558 28.91003 26.19280
#
# Velocity S-wave (km/s) = 3.30307 3.66551 3.48900
# Velocity P-wave (km/s) = 6.04245 6.48569 6.26799
#
# Compressibility (1/GPa) = 0.02115945
#
# Stress axis : x y z
#
# Youngs Moduli (GPa) = 105.02723 105.02723 65.23843
#
# Poissons Ratio (x) = 0.28545 0.12682
# Poissons Ratio (y) = 0.28545 0.12682
# Poissons Ratio (z) = 0.20417 0.20417
#
# Static dielectric constant tensor:
#      x y z
#    x 4.105090 0.000000 0.000000 
#    y 0.000000 4.105090 0.000000 
#    z 0.000000 0.000000 3.730560 
# 
# 
# High freq. dielectric constant tensor:
#      x y z
#    x 1.850150 0.000000 0.000000 
#    y 0.000000 1.850150 0.000000 
#    z 0.000000 0.000000 1.839450 
# 
# From -- ./inp_files/5926.got.cif
#   From: 2010.03.12/outbox.cif.g09.slc.cpg/sg87_3_cif.got.tgz:5926.got - 2010.04.08 20:16:13.
