data_PCOD8304328
_publ_section_title
;
Structure prediction by ZEFSAII (Michael W. Deem and Ramdas Pophale) SiO2 
 PCOD8304328
Probable space group: I 41/A
;
_chemical_formula_sum "Si O2"
_cell_formula_units_Z 116
_cell_length_a 25.569119
_cell_length_b 25.569119
_cell_length_c 8.373583
_cell_angle_alpha 90.000000
_cell_angle_beta 90.000000
_cell_angle_gamma 90.000000
_cell_volume 5474.479808
_symmetry_space_group_name_H-M "I 41/A"
_symmetry_group_IT_number 88
_space_group.IT_coordinate_system_code '2'
_symmetry_cell_setting 'tetragonal'
loop_
_space_group_symop_operation_xyz
x,y,z
3/4-y,1/4+x,1/4+z
-x,1/2-y,z
1/4+y,1/4-x,1/4+z
-x,-y,-z
1/4+y,3/4-x,3/4-z
x,1/2+y,-z
3/4-y,3/4+x,3/4-z
1/2+x,1/2+y,1/2+z
1/4-y,3/4+x,3/4+z
1/2-x,-y,1/2+z
3/4+y,3/4-x,3/4+z
1/2-x,1/2-y,1/2-z
3/4+y,1/4-x,1/4-z
1/2+x,y,1/2-z
1/4-y,1/4+x,1/4-z
loop_
_atom_site_type_symbol
_atom_site_label
_atom_site_fract_x
_atom_site_fract_y
_atom_site_fract_z
Si Si1 0.084941 0.769679 0.129821
Si Si2 0.197624 0.785104 0.086877
Si Si3 0.394468 0.318788 0.885913
Si Si4 0.765054 0.796474 0.863754
Si Si5 0.209188 0.652416 0.563949
Si Si6 0.500000 0.750000 0.625000
Si Si7 0.413492 0.938202 0.155190
Si Si8 0.200190 0.538333 0.449655
O O1 0.136272 0.798725 0.057730
O O2 0.104145 0.721927 0.241693
O O3 0.051905 0.812530 0.230994
O O4 0.051056 0.747853 0.985035
O O5 0.205347 0.791124 0.278490
O O6 0.204889 0.725776 0.020267
O O7 0.234771 0.825796 0.994609
O O8 0.410071 0.376103 0.822319
O O9 0.336622 0.319962 0.962273
O O10 0.750000 0.750000 0.750000
O O11 0.798828 0.835976 0.753808
O O12 0.711656 0.823297 0.922547
O O13 0.209997 0.590225 0.552571
O O14 0.359911 0.964125 0.098894
O O15 0.212788 0.486326 0.545574
#
# Coordination Sequence:
#
# PCOD8304328 Si02
#       8
#    16  16  16  16  16   4  16  16
#     4  11  25  42  68  91 129 176 214 271 325 403
#     4  10  22  41  67  95 126 168 217 278 332 379
#     4  10  24  42  69  89 131 183 215 259 335 414
#     4  10  23  36  66  97 128 160 210 283 325 381
#     4  10  23  43  63  99 131 166 224 276 328 387
#     4  12  28  46  64 100 136 162 224 276 328 398
#     4  10  22  42  64  99 131 174 223 268 338 398
#     4  11  24  42  66  91 135 183 219 269 329 406
#
# _framework density 21.189229000000001
#
# number of rings (size 3 to 8) (size 9 to 14) (size 15 to 20)
#    0.000    1.655    1.379    1.241   13.517    2.207 
#    0.000    1.379    0.000    0.000    0.000    0.000 
#    0.000    0.000    0.000    0.000    0.000    0.000 
#
# Total GULP energy -719023.776329 kJ/mol
# GULP energy per Si atom -12396.961661 kJ/mol
# Density = 2.114100 g / cm^3
# Si number density = 21.189229 Si / 1000 Ang^3
#
#
#
# Elastic Constant Matrix: (Units=GPa)
#
#
# Indices 1 2 3 4 5 6 
#
# 1 89.7567 36.7844 60.1936 0.0000 0.0000 6.4789
# 2 36.7844 89.7567 60.1936 0.0000 0.0000 -6.4789
# 3 60.1936 60.1936 114.4334 0.0000 0.0000 0.0000
# 4 0.0000 0.0000 0.0000 33.2608 0.0000 0.0000
# 5 0.0000 0.0000 0.0000 0.0000 33.2608 0.0000
# 6 6.4789 -6.4789 0.0000 0.0000 0.0000 31.6158
#
#
#
# Elastic Compliance Matrix: (Units=1/GPa)
#
#
# Indices 1 2 3 4 5 6 
#
# 1 0.017846 -0.002028 -0.008321 0.000000 0.000000 -0.004073
# 2 -0.002028 0.017846 -0.008321 0.000000 0.000000 0.004073
# 3 -0.008321 -0.008321 0.017493 0.000000 0.000000 0.000000
# 4 0.000000 0.000000 0.000000 0.030065 0.000000 0.000000
# 5 0.000000 0.000000 0.000000 0.000000 0.030065 0.000000
# 6 -0.004073 0.004073 0.000000 0.000000 0.000000 0.033299
#
#
# Mechanical properties :
#
#
# Convention : Reuss Voigt Hill
#
# Bulk Modulus (GPa) = 63.10535 67.58778 65.34657
# Shear Modulus (GPa) = 26.42198 28.74583 27.58391
#
# Velocity S-wave (km/s) = 3.53505 3.68723 3.61195
# Velocity P-wave (km/s) = 6.81972 7.07772 6.94992
#
# Compressibility (1/GPa) = 0.01584652
#
# Stress axis : x y z
#
# Youngs Moduli (GPa) = 56.03355 56.03355 57.16708
#
# Poissons Ratio (x) = 0.11361 0.47568
# Poissons Ratio (y) = 0.11361 0.47568
# Poissons Ratio (z) = 0.46625 0.46625
#
# Static dielectric constant tensor:
#      x y z
#    x 3.879870 0.000000 0.000000 
#    y 0.000000 3.879870 0.000000 
#    z 0.000000 0.000000 3.861780 
# 
# 
# High freq. dielectric constant tensor:
#      x y z
#    x 1.833430 0.000000 0.000000 
#    y 0.000000 1.833430 0.000000 
#    z 0.000000 0.000000 1.826440 
# 
# From -- ./inp_files/1860.got.cif
#   From: 2010.03.12/outbox.cif.g09.slc.cpg/sg88_1_cif.got.tgz:1860.got - 2010.04.08 20:20:55.
