data_PCOD8304976
_publ_section_title
;
Structure prediction by ZEFSAII (Michael W. Deem and Ramdas Pophale) SiO2 
 PCOD8304976
Probable space group: P 41 2 2
;
_chemical_formula_sum "Si O2"
_cell_formula_units_Z 48
_cell_length_a 8.638580
_cell_length_b 8.638580
_cell_length_c 30.931771
_cell_angle_alpha 90.000000
_cell_angle_beta 90.000000
_cell_angle_gamma 90.000000
_cell_volume 2308.285403
_symmetry_space_group_name_H-M "P 41 2 2"
_symmetry_group_IT_number 91
_symmetry_cell_setting 'tetragonal'
loop_
_space_group_symop_operation_xyz
x,y,z
-y,x,1/4+z
-x,-y,1/2+z
y,-x,3/4+z
x,-y,1/2-z
-x,y,-z
y,x,3/4-z
-y,-x,1/4-z
loop_
_atom_site_type_symbol
_atom_site_label
_atom_site_fract_x
_atom_site_fract_y
_atom_site_fract_z
Si Si1 0.820705 0.851696 0.495663
Si Si2 0.319780 0.201360 0.164743
Si Si3 0.168164 0.323524 0.242812
Si Si4 0.350191 0.331076 0.825125
Si Si5 0.660809 0.692975 0.178544
Si Si6 0.603844 0.900378 0.791371
O O1 0.776267 0.770276 0.450469
O O2 0.787490 0.736298 0.533577
O O3 0.000000 0.902827 0.500000
O O4 0.703482 0.990986 0.504196
O O5 0.184759 0.281157 0.192321
O O6 0.478477 0.270955 0.183478
O O7 0.286160 0.242470 0.115277
O O8 0.322897 0.017218 0.173181
O O9 0.217412 0.500000 0.250000
O O10 0.265010 0.208231 0.272249
O O11 0.308358 0.308358 0.875000
O O12 0.351477 0.510959 0.810733
O O13 0.498887 0.784711 0.178994
O O14 0.531136 0.000000 0.750000
#
# Coordination Sequence:
#
# PCOD8304976 Si02
#       6
#     8   8   8   8   8   8
#     4  12  24  39  59  88 123 161 199 249 314 372
#     4  10  22  40  61  90 120 155 201 252 308 366
#     4  11  23  41  63  87 119 159 206 256 308 369
#     4  10  22  40  62  89 118 157 208 252 298 366
#     4  11  22  38  63  89 119 159 204 248 301 371
#     4  10  21  40  62  87 121 161 201 251 309 368
#
# _framework density 20.794657999999998
#
# number of rings (size 3 to 8) (size 9 to 14) (size 15 to 20)
#    0.000    1.333    0.000    7.500    0.000    5.333 
#    0.000    4.167    0.000    0.000    0.000    0.000 
#    0.000    0.000    0.000    0.000    0.000    0.000 
#
# Total GULP energy -594929.178363 kJ/mol
# GULP energy per Si atom -12394.357883 kJ/mol
# Density = 2.074733 g / cm^3
# Si number density = 20.794658 Si / 1000 Ang^3
#
#
#
# Elastic Constant Matrix: (Units=GPa)
#
#
# Indices 1 2 3 4 5 6 
#
# 1 90.1304 28.6147 31.5257 0.0000 0.0000 0.0000
# 2 28.6147 90.1304 31.5257 0.0000 0.0000 0.0000
# 3 31.5257 31.5257 85.7025 0.0000 0.0000 0.0000
# 4 0.0000 0.0000 0.0000 22.2344 0.0000 0.0000
# 5 0.0000 0.0000 0.0000 0.0000 22.2344 0.0000
# 6 0.0000 0.0000 0.0000 0.0000 0.0000 39.0244
#
#
#
# Elastic Compliance Matrix: (Units=1/GPa)
#
#
# Indices 1 2 3 4 5 6 
#
# 1 0.013361 -0.002895 -0.003850 0.000000 0.000000 0.000000
# 2 -0.002895 0.013361 -0.003850 0.000000 0.000000 0.000000
# 3 -0.003850 -0.003850 0.014501 0.000000 0.000000 0.000000
# 4 0.000000 0.000000 0.000000 0.044975 0.000000 0.000000
# 5 0.000000 0.000000 0.000000 0.000000 0.044975 0.000000
# 6 0.000000 0.000000 0.000000 0.000000 0.000000 0.025625
#
#
# Mechanical properties :
#
#
# Convention : Reuss Voigt Hill
#
# Bulk Modulus (GPa) = 49.91860 49.92172 49.92016
# Shear Modulus (GPa) = 27.07611 28.31848 27.69730
#
# Velocity S-wave (km/s) = 3.61234 3.69428 3.65354
# Velocity P-wave (km/s) = 6.43865 6.50047 6.46963
#
# Compressibility (1/GPa) = 0.02003261
#
# Stress axis : x y z
#
# Youngs Moduli (GPa) = 74.84600 74.84600 68.96296
#
# Poissons Ratio (x) = 0.21670 0.26549
# Poissons Ratio (y) = 0.21670 0.26549
# Poissons Ratio (z) = 0.28814 0.28814
#
# Static dielectric constant tensor:
#      x y z
#    x 3.783310 0.000000 0.000000 
#    y 0.000000 3.783310 0.000000 
#    z 0.000000 0.000000 4.656440 
# 
# 
# High freq. dielectric constant tensor:
#      x y z
#    x 1.820780 0.000000 0.000000 
#    y 0.000000 1.820780 0.000000 
#    z 0.000000 0.000000 1.812850 
# 
# From -- ./inp_files/7969.got.cif
#   From: 2010.03.12/outbox.cif.g09.slc.cpg/sg91_4_cif.got.tgz:7969.got - 2010.04.08 20:27:58.
