data_PCOD8304373
_publ_section_title
;
Structure prediction by ZEFSAII (Michael W. Deem and Ramdas Pophale) SiO2 
 PCOD8304373
Probable space group: I 41/A
;
_chemical_formula_sum "Si O2"
_cell_formula_units_Z 96
_cell_length_a 23.623194
_cell_length_b 23.623194
_cell_length_c 7.818377
_cell_angle_alpha 90.000000
_cell_angle_beta 90.000000
_cell_angle_gamma 90.000000
_cell_volume 4363.086681
_symmetry_space_group_name_H-M "I 41/A"
_symmetry_group_IT_number 88
_space_group.IT_coordinate_system_code '2'
_symmetry_cell_setting 'tetragonal'
loop_
_space_group_symop_operation_xyz
x,y,z
3/4-y,1/4+x,1/4+z
-x,1/2-y,z
1/4+y,1/4-x,1/4+z
-x,-y,-z
1/4+y,3/4-x,3/4-z
x,1/2+y,-z
3/4-y,3/4+x,3/4-z
1/2+x,1/2+y,1/2+z
1/4-y,3/4+x,3/4+z
1/2-x,-y,1/2+z
3/4+y,3/4-x,3/4+z
1/2-x,1/2-y,1/2-z
3/4+y,1/4-x,1/4-z
1/2+x,y,1/2-z
1/4-y,1/4+x,1/4-z
loop_
_atom_site_type_symbol
_atom_site_label
_atom_site_fract_x
_atom_site_fract_y
_atom_site_fract_z
Si Si1 0.315826 0.523942 0.615887
Si Si2 0.868717 0.852200 0.937232
Si Si3 0.326367 0.360179 0.823554
Si Si4 0.519752 0.581904 0.596462
Si Si5 0.781673 0.252028 0.514440
Si Si6 0.215810 0.368494 0.658833
O O1 0.258087 0.549948 0.692406
O O2 0.360686 0.573667 0.579826
O O3 0.347161 0.478247 0.734983
O O4 0.864996 0.788137 0.875841
O O5 0.930368 0.873279 0.884399
O O6 0.856845 0.856005 0.139760
O O7 0.262372 0.385579 0.801108
O O8 0.362307 0.401489 0.950184
O O9 0.324238 0.298940 0.911647
O O10 0.527261 0.531149 0.733722
O O11 0.523552 0.556092 0.408569
O O12 0.777205 0.199371 0.644317
#
# Coordination Sequence:
#
# PCOD8304373 Si02
#       6
#    16  16  16  16  16  16
#     4  11  21  39  60  92 130 165 201 265 335 385
#     4  11  24  44  66  91 130 173 218 270 326 392
#     4  11  23  41  66  95 130 173 212 266 325 391
#     4  11  24  43  67  95 127 172 218 275 322 389
#     4  11  23  41  67  95 125 170 219 262 326 390
#     4  11  20  40  64  91 126 167 211 261 317 385
#
# _framework density 22.002772
#
# number of rings (size 3 to 8) (size 9 to 14) (size 15 to 20)
#    0.000    1.000    8.333    0.500    2.333    3.000 
#    0.000    0.000    0.000    0.500    0.000    0.000 
#    0.000    0.000    0.000    0.000    0.000    0.000 
#
# Total GULP energy -595301.920988 kJ/mol
# GULP energy per Si atom -12402.123354 kJ/mol
# Density = 2.195269 g / cm^3
# Si number density = 22.002772 Si / 1000 Ang^3
#
#
#
# Elastic Constant Matrix: (Units=GPa)
#
#
# Indices 1 2 3 4 5 6 
#
# 1 138.0358 62.2507 11.7045 0.0000 0.0000 -3.6056
# 2 62.2507 138.0358 11.7045 0.0000 0.0000 3.6056
# 3 11.7045 11.7045 25.3824 0.0000 0.0000 0.0000
# 4 0.0000 0.0000 0.0000 21.1849 0.0000 0.0000
# 5 0.0000 0.0000 0.0000 0.0000 21.1849 0.0000
# 6 -3.6056 3.6056 0.0000 0.0000 0.0000 47.4900
#
#
#
# Elastic Compliance Matrix: (Units=1/GPa)
#
#
# Indices 1 2 3 4 5 6 
#
# 1 0.009284 -0.004007 -0.002433 0.000000 0.000000 0.001009
# 2 -0.004007 0.009284 -0.002433 0.000000 0.000000 -0.001009
# 3 -0.002433 -0.002433 0.041642 0.000000 0.000000 0.000000
# 4 0.000000 0.000000 0.000000 0.047203 0.000000 0.000000
# 5 0.000000 0.000000 0.000000 0.000000 0.047203 0.000000
# 6 0.001009 -0.001009 0.000000 0.000000 0.000000 0.021210
#
#
# Mechanical properties :
#
#
# Convention : Reuss Voigt Hill
#
# Bulk Modulus (GPa) = 23.55036 52.53040 38.04038
# Shear Modulus (GPa) = 24.06981 32.35826 28.21403
#
# Velocity S-wave (km/s) = 3.31107 3.83906 3.58480
# Velocity P-wave (km/s) = 5.03430 6.60132 5.87033
#
# Compressibility (1/GPa) = 0.04246220
#
# Stress axis : x y z
#
# Youngs Moduli (GPa) = 107.70935 107.70935 24.01444
#
# Poissons Ratio (x) = 0.43159 0.05844
# Poissons Ratio (y) = 0.43159 0.05844
# Poissons Ratio (z) = 0.26211 0.26211
#
# Static dielectric constant tensor:
#      x y z
#    x 3.960890 0.000000 0.000000 
#    y 0.000000 3.960890 0.000000 
#    z 0.000000 0.000000 3.754750 
# 
# 
# High freq. dielectric constant tensor:
#      x y z
#    x 1.864710 0.000000 0.000000 
#    y 0.000000 1.864710 0.000000 
#    z 0.000000 0.000000 1.852070 
# 
# From -- ./inp_files/1691.got.cif
#   From: 2010.03.12/outbox.cif.g09.slc.cpg/sg88_1_cif.got.tgz:1691.got - 2010.04.08 20:20:55.
