data_PCOD8304246
_publ_section_title
;
Structure prediction by ZEFSAII (Michael W. Deem and Ramdas Pophale) SiO2 
 PCOD8304246
Probable space group: I 41/A
;
_chemical_formula_sum "Si O2"
_cell_formula_units_Z 48
_cell_length_a 17.720952
_cell_length_b 17.720952
_cell_length_c 7.623382
_cell_angle_alpha 90.000000
_cell_angle_beta 90.000000
_cell_angle_gamma 90.000000
_cell_volume 2393.986962
_symmetry_space_group_name_H-M "I 41/A"
_symmetry_group_IT_number 88
_space_group.IT_coordinate_system_code '2'
_symmetry_cell_setting 'tetragonal'
loop_
_space_group_symop_operation_xyz
x,y,z
3/4-y,1/4+x,1/4+z
-x,1/2-y,z
1/4+y,1/4-x,1/4+z
-x,-y,-z
1/4+y,3/4-x,3/4-z
x,1/2+y,-z
3/4-y,3/4+x,3/4-z
1/2+x,1/2+y,1/2+z
1/4-y,3/4+x,3/4+z
1/2-x,-y,1/2+z
3/4+y,3/4-x,3/4+z
1/2-x,1/2-y,1/2-z
3/4+y,1/4-x,1/4-z
1/2+x,y,1/2-z
1/4-y,1/4+x,1/4-z
loop_
_atom_site_type_symbol
_atom_site_label
_atom_site_fract_x
_atom_site_fract_y
_atom_site_fract_z
Si Si1 0.566813 0.041899 0.809147
Si Si2 0.867262 0.863357 0.008374
Si Si3 0.952380 0.420301 0.310936
O O1 0.579106 0.098129 0.649964
O O2 0.626306 0.971745 0.800329
O O3 0.481447 0.007684 0.791425
O O4 0.576619 0.088736 0.989403
O O5 0.884413 0.899424 0.818531
O O6 0.884538 0.773404 0.015803
#
# Coordination Sequence:
#
# PCOD8304246 Si02
#       3
#    16  16  16
#     4   9  21  39  55  86 118 157 194 248 300 348
#     4  10  20  38  59  85 114 159 199 239 303 355
#     4   9  21  38  61  82 121 159 194 245 305 349
#
# _framework density 20.050232999999999
#
# number of rings (size 3 to 8) (size 9 to 14) (size 15 to 20)
#    2.000    0.667    0.000    1.000    0.000    6.000 
#    6.000    0.000    0.000    0.000    0.000    0.000 
#    0.000    0.000    0.000    0.000    0.000    0.000 
#
# Total GULP energy -297339.841356 kJ/mol
# GULP energy per Si atom -12389.160057 kJ/mol
# Density = 2.000460 g / cm^3
# Si number density = 20.050233 Si / 1000 Ang^3
#
#
#
# Elastic Constant Matrix: (Units=GPa)
#
#
# Indices 1 2 3 4 5 6 
#
# 1 38.1850 26.3373 41.8550 0.0000 0.0000 -2.3349
# 2 26.3373 38.1850 41.8550 0.0000 0.0000 2.3349
# 3 41.8550 41.8550 158.3333 0.0000 0.0000 0.0000
# 4 0.0000 0.0000 0.0000 30.1189 0.0000 0.0000
# 5 0.0000 0.0000 0.0000 0.0000 30.1189 0.0000
# 6 -2.3349 2.3349 0.0000 0.0000 0.0000 31.5167
#
#
#
# Elastic Compliance Matrix: (Units=1/GPa)
#
#
# Indices 1 2 3 4 5 6 
#
# 1 0.055266 -0.031677 -0.006236 0.000000 0.000000 0.006441
# 2 -0.031677 0.055266 -0.006236 0.000000 0.000000 -0.006441
# 3 -0.006236 -0.006236 0.009612 0.000000 0.000000 0.000000
# 4 0.000000 0.000000 0.000000 0.033202 0.000000 0.000000
# 5 0.000000 0.000000 0.000000 0.000000 0.033202 0.000000
# 6 0.006441 -0.006441 0.000000 0.000000 0.000000 0.032684
#
#
# Mechanical properties :
#
#
# Convention : Reuss Voigt Hill
#
# Bulk Modulus (GPa) = 31.40000 50.53308 40.96654
# Shear Modulus (GPa) = 15.71621 26.66133 21.18877
#
# Velocity S-wave (km/s) = 2.80275 3.65050 3.25435
# Velocity P-wave (km/s) = 5.11552 6.55943 5.88195
#
# Compressibility (1/GPa) = 0.03184713
#
# Stress axis : x y z
#
# Youngs Moduli (GPa) = 18.09443 18.09443 104.03149
#
# Poissons Ratio (x) = 0.57318 0.64869
# Poissons Ratio (y) = 0.57318 0.64869
# Poissons Ratio (z) = 0.11283 0.11283
#
# Static dielectric constant tensor:
#      x y z
#    x 3.306540 0.000000 0.000000 
#    y 0.000000 3.306540 0.000000 
#    z 0.000000 0.000000 3.531350 
# 
# 
# High freq. dielectric constant tensor:
#      x y z
#    x 1.752930 0.000000 0.000000 
#    y 0.000000 1.752930 0.000000 
#    z 0.000000 0.000000 1.794490 
# 
# From -- ./inp_files/333.got.cif
#   From: 2010.03.12/outbox.cif.g09.slc.cpg/sg88_1_cif.got.tgz:333.got - 2010.04.08 20:20:55.
