data_PCOD8304825
_publ_section_title
;
Structure prediction by ZEFSAII (Michael W. Deem and Ramdas Pophale) SiO2 
 PCOD8304825
Probable space group: P 41 2 2
;
_chemical_formula_sum "Si O2"
_cell_formula_units_Z 48
_cell_length_a 8.727902
_cell_length_b 8.727902
_cell_length_c 27.964091
_cell_angle_alpha 90.000000
_cell_angle_beta 90.000000
_cell_angle_gamma 90.000000
_cell_volume 2130.200239
_symmetry_space_group_name_H-M "P 41 2 2"
_symmetry_group_IT_number 91
_symmetry_cell_setting 'tetragonal'
loop_
_space_group_symop_operation_xyz
x,y,z
-y,x,1/4+z
-x,-y,1/2+z
y,-x,3/4+z
x,-y,1/2-z
-x,y,-z
y,x,3/4-z
-y,-x,1/4-z
loop_
_atom_site_type_symbol
_atom_site_label
_atom_site_fract_x
_atom_site_fract_y
_atom_site_fract_z
Si Si1 0.810539 0.681799 0.421932
Si Si2 0.061823 0.179302 0.606602
Si Si3 0.099893 0.624731 0.801864
Si Si4 0.007737 0.714721 0.704559
Si Si5 0.942801 0.462850 0.554100
Si Si6 0.432171 0.655805 0.760688
O O1 0.704795 0.704795 0.375000
O O2 0.830549 0.849623 0.445026
O O3 0.975998 0.598566 0.413882
O O4 0.731712 0.566353 0.458501
O O5 0.121920 0.269682 0.652460
O O6 0.958029 0.294500 0.576025
O O7 0.206425 0.133446 0.573152
O O8 0.966498 0.033503 0.625000
O O9 0.984554 0.701534 0.762200
O O10 0.039280 0.455832 0.816492
O O11 0.262657 0.607254 0.776750
O O12 0.000000 0.470831 0.500000
O O13 0.760288 0.492755 0.551713
O O14 0.527498 0.500000 0.750000
#
# Coordination Sequence:
#
# PCOD8304825 Si02
#       6
#     8   8   8   8   8   8
#     4  10  19  38  66 100 128 168 227 278 339 403
#     4  12  28  41  68  99 139 187 232 286 352 426
#     4  10  22  43  69 101 142 174 236 292 347 420
#     4  10  22  44  71 101 134 181 231 292 352 414
#     4  10  25  43  65  98 139 179 227 288 347 416
#     4  10  20  42  68  96 132 179 227 285 338 411
#
# _framework density 22.533090999999999
#
# number of rings (size 3 to 8) (size 9 to 14) (size 15 to 20)
#    0.000    1.667    3.333    1.500    9.333    0.000 
#    0.000    4.167    0.000    0.000    0.000    0.000 
#    0.000    0.000    0.000    0.000    0.000    0.000 
#
# Total GULP energy -594653.845867 kJ/mol
# GULP energy per Si atom -12388.621789 kJ/mol
# Density = 2.248180 g / cm^3
# Si number density = 22.533091 Si / 1000 Ang^3
#
#
#
# Elastic Constant Matrix: (Units=GPa)
#
#
# Indices 1 2 3 4 5 6 
#
# 1 113.7979 54.9953 45.1674 0.0000 0.0000 0.0000
# 2 54.9953 113.7987 45.1676 0.0000 0.0000 0.0000
# 3 45.1674 45.1676 114.3365 0.0000 0.0000 0.0000
# 4 0.0000 0.0000 0.0000 36.9427 0.0000 0.0000
# 5 0.0000 0.0000 0.0000 0.0000 36.9424 0.0000
# 6 0.0000 0.0000 0.0000 0.0000 0.0000 17.5392
#
#
#
# Elastic Compliance Matrix: (Units=1/GPa)
#
#
# Indices 1 2 3 4 5 6 
#
# 1 0.012259 -0.004747 -0.002968 0.000000 0.000000 0.000000
# 2 -0.004747 0.012259 -0.002968 0.000000 0.000000 0.000000
# 3 -0.002968 -0.002968 0.011091 0.000000 0.000000 0.000000
# 4 0.000000 0.000000 0.000000 0.027069 0.000000 0.000000
# 5 0.000000 0.000000 0.000000 0.000000 0.027069 0.000000
# 6 0.000000 0.000000 0.000000 0.000000 0.000000 0.057015
#
#
# Mechanical properties :
#
#
# Convention : Reuss Voigt Hill
#
# Bulk Modulus (GPa) = 70.19973 70.28819 70.24396
# Shear Modulus (GPa) = 28.92251 31.39170 30.15711
#
# Velocity S-wave (km/s) = 3.58656 3.73653 3.66231
# Velocity P-wave (km/s) = 6.95507 7.06233 7.00890
#
# Compressibility (1/GPa) = 0.01424507
#
# Stress axis : x y z
#
# Youngs Moduli (GPa) = 81.57025 81.57083 90.16376
#
# Poissons Ratio (x) = 0.38719 0.26759
# Poissons Ratio (y) = 0.38718 0.26759
# Poissons Ratio (z) = 0.24209 0.24209
#
# Static dielectric constant tensor:
#      x y z
#    x 4.078530 0.000000 0.000000 
#    y 0.000000 4.078530 0.000000 
#    z 0.000000 0.000000 4.298030 
# 
# 
# High freq. dielectric constant tensor:
#      x y z
#    x 1.870330 0.000000 0.000000 
#    y 0.000000 1.870330 0.000000 
#    z 0.000000 0.000000 1.901110 
# 
# From -- ./inp_files/18181.got.cif
#   From: 2010.03.12/outbox.cif.g09.slc.cpg/sg91_10_cif.got.tgz:18181.got - 2010.04.08 20:27:58.
