data_PCOD8304687
_publ_section_title
;
Structure prediction by ZEFSAII (Michael W. Deem and Ramdas Pophale) SiO2 
 PCOD8304687
Probable space group: P 4 21 2
;
_chemical_formula_sum "Si O2"
_cell_formula_units_Z 38
_cell_length_a 8.181358
_cell_length_b 8.181358
_cell_length_c 26.065303
_cell_angle_alpha 90.000000
_cell_angle_beta 90.000000
_cell_angle_gamma 90.000000
_cell_volume 1744.671118
_symmetry_space_group_name_H-M "P 4 21 2"
_symmetry_group_IT_number 90
_symmetry_cell_setting 'tetragonal'
loop_
_space_group_symop_operation_xyz
x,y,z
1/2-y,1/2+x,z
-x,-y,z
1/2+y,1/2-x,z
1/2+x,1/2-y,-z
1/2-x,1/2+y,-z
y,x,-z
-y,-x,-z
loop_
_atom_site_type_symbol
_atom_site_label
_atom_site_fract_x
_atom_site_fract_y
_atom_site_fract_z
Si Si1 0.236149 0.930685 0.324857
Si Si2 0.264428 0.455618 0.409307
Si Si3 0.930318 0.759440 0.042884
Si Si4 0.757349 0.926119 0.843463
Si Si5 0.000000 0.000000 0.761526
Si Si6 0.500000 0.500000 0.500000
O O1 0.384130 0.802116 0.327256
O O2 0.106545 0.907814 0.371352
O O3 0.131449 0.902580 0.273110
O O4 0.184360 0.630328 0.399490
O O5 0.337339 0.481396 0.465957
O O6 0.803686 0.612393 0.035624
O O7 0.905499 0.836061 0.099794
O O8 0.896088 0.896088 0.000000
O O9 0.611120 0.801102 0.836852
O O10 0.884616 0.891477 0.798270
#
# Coordination Sequence:
#
# PCOD8304687 Si02
#       6
#     8   8   8   8   4   2
#     4  11  24  42  64  92 128 165 207 265 321 366
#     4  11  24  42  66  95 128 170 216 254 297 365
#     4   9  19  35  54  78 108 142 184 233 288 353
#     4   9  20  37  55  80 114 149 189 241 297 358
#     4  12  21  36  61  87 114 155 206 248 302 374
#     4  12  22  40  64  96 136 166 200 258 310 346
#
# _framework density 21.780608999999998
#
# number of rings (size 3 to 8) (size 9 to 14) (size 15 to 20)
#    0.000    1.684    0.000    6.316    0.000    3.789 
#    0.000    4.211    0.000    2.526    0.000    0.000 
#    0.000    0.000    0.000    0.000    0.000    0.000 
#
# Total GULP energy -470917.591604 kJ/mol
# GULP energy per Si atom -12392.568200 kJ/mol
# Density = 2.173103 g / cm^3
# Si number density = 21.780609 Si / 1000 Ang^3
#
#
#
# Elastic Constant Matrix: (Units=GPa)
#
#
# Indices 1 2 3 4 5 6 
#
# 1 36.9474 96.5211 59.4995 0.0000 0.0000 0.0000
# 2 96.5211 36.9474 59.4995 0.0000 0.0000 0.0000
# 3 59.4995 59.4995 175.1588 0.0000 0.0000 0.0000
# 4 0.0000 0.0000 0.0000 39.3204 0.0000 0.0000
# 5 0.0000 0.0000 0.0000 0.0000 39.3204 0.0000
# 6 0.0000 0.0000 0.0000 0.0000 0.0000 39.4157
#
#
#
# Elastic Compliance Matrix: (Units=1/GPa)
#
#
# Indices 1 2 3 4 5 6 
#
# 1 -0.003019 0.013767 -0.003651 0.000000 0.000000 0.000000
# 2 0.013767 -0.003019 -0.003651 0.000000 0.000000 0.000000
# 3 -0.003651 -0.003651 0.008189 0.000000 0.000000 0.000000
# 4 0.000000 0.000000 0.000000 0.025432 0.000000 0.000000
# 5 0.000000 0.000000 0.000000 0.000000 0.025432 0.000000
# 6 0.000000 0.000000 0.000000 0.000000 0.000000 0.025371
#
#
# Mechanical properties :
#
#
# Convention : Reuss Voigt Hill
#
# Bulk Modulus (GPa) = 66.30835 75.56597 70.93716
# Shear Modulus (GPa) = 70.93976 25.84688 48.39332
#
# Velocity S-wave (km/s) = 5.71322 3.44858 4.71877
# Velocity P-wave (km/s) = 8.60413 7.11522 7.89485
#
# Compressibility (1/GPa) = 0.01508106
#
# Stress axis : x y z
#
# Youngs Moduli (GPa) = -331.20586 -331.20586 122.10982
#
# Poissons Ratio (x) = 4.55959 0.44579
# Poissons Ratio (y) = 4.55959 0.44579
# Poissons Ratio (z) = -1.20915 -1.20915
#
# Static dielectric constant tensor:
#      x y z
#    x 3.867290 0.000000 0.000000 
#    y 0.000000 3.867290 0.000000 
#    z 0.000000 0.000000 4.027050 
# 
# 
# High freq. dielectric constant tensor:
#      x y z
#    x 1.856940 0.000000 0.000000 
#    y 0.000000 1.856940 0.000000 
#    z 0.000000 0.000000 1.863910 
# 
# From -- ./inp_files/2910.got.cif
#   From: 2010.03.12/outbox.cif.g09.slc.cpg/sg90_2_cif.got.tgz:2910.got - 2010.04.08 20:26:03.
