data_PCOD8304421
_publ_section_title
;
Structure prediction by ZEFSAII (Michael W. Deem and Ramdas Pophale) SiO2 
 PCOD8304421
Probable space group: I 41/A
;
_chemical_formula_sum "Si O2"
_cell_formula_units_Z 68
_cell_length_a 16.759101
_cell_length_b 16.759101
_cell_length_c 11.504174
_cell_angle_alpha 90.000000
_cell_angle_beta 90.000000
_cell_angle_gamma 90.000000
_cell_volume 3231.148204
_symmetry_space_group_name_H-M "I 41/A"
_symmetry_group_IT_number 88
_space_group.IT_coordinate_system_code '2'
_symmetry_cell_setting 'tetragonal'
loop_
_space_group_symop_operation_xyz
x,y,z
3/4-y,1/4+x,1/4+z
-x,1/2-y,z
1/4+y,1/4-x,1/4+z
-x,-y,-z
1/4+y,3/4-x,3/4-z
x,1/2+y,-z
3/4-y,3/4+x,3/4-z
1/2+x,1/2+y,1/2+z
1/4-y,3/4+x,3/4+z
1/2-x,-y,1/2+z
3/4+y,3/4-x,3/4+z
1/2-x,1/2-y,1/2-z
3/4+y,1/4-x,1/4-z
1/2+x,y,1/2-z
1/4-y,1/4+x,1/4-z
loop_
_atom_site_type_symbol
_atom_site_label
_atom_site_fract_x
_atom_site_fract_y
_atom_site_fract_z
Si Si1 0.548815 0.040816 0.100488
Si Si2 0.000000 0.250000 0.125000
Si Si3 0.367845 0.508555 0.556340
Si Si4 0.713714 0.113672 0.054356
Si Si5 0.369946 0.331901 0.506797
O O1 0.624517 0.081634 0.040346
O O2 0.492783 0.106914 0.159042
O O3 0.574865 0.978035 0.199679
O O4 0.500000 0.000000 0.000000
O O5 0.931324 0.206607 0.199846
O O6 0.407590 0.525624 0.429578
O O7 0.276856 0.540710 0.548881
O O8 0.368195 0.413753 0.580439
O O9 0.416319 0.552128 0.657246
#
# Coordination Sequence:
#
# PCOD8304421 Si02
#       5
#    16   4  16  16  16
#     4  11  25  38  64  94 128 169 207 260 318 388
#     4  12  24  40  60  96 130 152 204 272 328 350
#     4   9  20  40  72  88 116 169 225 263 297 372
#     4   9  20  42  62  91 125 161 214 268 313 366
#     4  11  24  39  65  96 126 167 211 264 321 374
#
# _framework density 21.04515
#
# number of rings (size 3 to 8) (size 9 to 14) (size 15 to 20)
#    0.000    1.882    0.000    4.235    9.882    5.647 
#    0.000    0.000    0.000    0.000    0.000    0.000 
#    0.000    0.000    0.000    0.000    0.000    0.000 
#
# Total GULP energy -421598.352946 kJ/mol
# GULP energy per Si atom -12399.951557 kJ/mol
# Density = 2.099725 g / cm^3
# Si number density = 21.045150 Si / 1000 Ang^3
#
#
#
# Elastic Constant Matrix: (Units=GPa)
#
#
# Indices 1 2 3 4 5 6 
#
# 1 85.7130 38.6406 19.9340 0.0000 0.0000 1.5568
# 2 38.6406 85.7130 19.9340 0.0000 0.0000 -1.5568
# 3 19.9340 19.9340 75.3543 0.0000 0.0000 0.0000
# 4 0.0000 0.0000 0.0000 35.2545 0.0000 0.0000
# 5 0.0000 0.0000 0.0000 0.0000 35.2545 0.0000
# 6 1.5568 -1.5568 0.0000 0.0000 0.0000 25.3651
#
#
#
# Elastic Compliance Matrix: (Units=1/GPa)
#
#
# Indices 1 2 3 4 5 6 
#
# 1 0.015059 -0.006272 -0.002324 0.000000 0.000000 -0.001309
# 2 -0.006272 0.015059 -0.002324 0.000000 0.000000 0.001309
# 3 -0.002324 -0.002324 0.014500 0.000000 0.000000 0.000000
# 4 0.000000 0.000000 0.000000 0.028365 0.000000 0.000000
# 5 0.000000 0.000000 0.000000 0.000000 0.028365 0.000000
# 6 -0.001309 0.001309 0.000000 0.000000 0.000000 0.039585
#
#
# Mechanical properties :
#
#
# Convention : Reuss Voigt Hill
#
# Bulk Modulus (GPa) = 43.90527 44.86639 44.38583
# Shear Modulus (GPa) = 29.34849 30.39294 29.87071
#
# Velocity S-wave (km/s) = 3.73842 3.80436 3.77153
# Velocity P-wave (km/s) = 6.28825 6.37675 6.33265
#
# Compressibility (1/GPa) = 0.02277631
#
# Stress axis : x y z
#
# Youngs Moduli (GPa) = 66.40707 66.40707 68.96343
#
# Poissons Ratio (x) = 0.41649 0.16030
# Poissons Ratio (y) = 0.41649 0.16030
# Poissons Ratio (z) = 0.15436 0.15436
#
# Static dielectric constant tensor:
#      x y z
#    x 3.746830 0.000000 0.000000 
#    y 0.000000 3.746830 0.000000 
#    z 0.000000 0.000000 4.743020 
# 
# 
# High freq. dielectric constant tensor:
#      x y z
#    x 1.819670 0.000000 0.000000 
#    y 0.000000 1.819670 0.000000 
#    z 0.000000 0.000000 1.825770 
# 
# From -- ./inp_files/2443.got.cif
#   From: 2010.03.12/outbox.cif.g09.slc.cpg/sg88_2_cif.got.tgz:2443.got - 2010.04.08 20:20:55.
