data_PCOD8304780
_publ_section_title
;
Structure prediction by ZEFSAII (Michael W. Deem and Ramdas Pophale) SiO2 
 PCOD8304780
Probable space group: P 41 2 2
;
_chemical_formula_sum "Si O2"
_cell_formula_units_Z 48
_cell_length_a 14.951903
_cell_length_b 14.951903
_cell_length_c 13.300159
_cell_angle_alpha 90.000000
_cell_angle_beta 90.000000
_cell_angle_gamma 90.000000
_cell_volume 2973.375610
_symmetry_space_group_name_H-M "P 41 2 2"
_symmetry_group_IT_number 91
_symmetry_cell_setting 'tetragonal'
loop_
_space_group_symop_operation_xyz
x,y,z
-y,x,1/4+z
-x,-y,1/2+z
y,-x,3/4+z
x,-y,1/2-z
-x,y,-z
y,x,3/4-z
-y,-x,1/4-z
loop_
_atom_site_type_symbol
_atom_site_label
_atom_site_fract_x
_atom_site_fract_y
_atom_site_fract_z
Si Si1 0.720814 0.330056 0.423527
Si Si2 0.910036 0.592451 0.546886
Si Si3 0.829033 0.399099 0.747318
Si Si4 0.353827 0.489403 0.867206
Si Si5 0.387557 0.101032 0.278458
Si Si6 0.256139 0.678700 0.533742
O O1 0.668910 0.252426 0.483603
O O2 0.664897 0.422256 0.433620
O O3 0.822859 0.337825 0.463061
O O4 0.723636 0.312390 0.305142
O O5 0.906382 0.601072 0.667578
O O6 0.891110 0.492791 0.506775
O O7 0.841626 0.662542 0.503859
O O8 0.000000 0.628861 0.500000
O O9 0.788519 0.500000 0.750000
O O10 0.878384 0.369947 0.645538
O O11 0.325232 0.500000 0.750000
O O12 0.458570 0.458570 0.875000
O O13 0.298482 0.412444 0.923727
O O14 0.354015 0.000000 0.250000
O O15 0.250856 0.749145 0.625000
#
# Coordination Sequence:
#
# PCOD8304780 Si02
#       6
#     8   8   8   8   8   8
#     4  11  20  34  51  69 105 139 171 226 253 299
#     4   9  18  32  50  70  99 126 165 214 259 307
#     4   9  20  35  47  73 104 133 173 213 266 312
#     4  11  20  32  45  70 105 139 184 214 243 299
#     4  10  20  34  52  72  96 133 178 215 266 318
#     4  10  19  32  49  71  99 132 173 212 254 297
#
# _framework density 16.143267999999999
#
# number of rings (size 3 to 8) (size 9 to 14) (size 15 to 20)
#    0.000    2.000    5.000    0.500    0.000    2.000 
#    0.000    1.667    0.000    0.000    0.000    0.000 
#    0.000   37.333    0.000    0.000    0.000    0.000 
#
# Total GULP energy -594667.074107 kJ/mol
# GULP energy per Si atom -12388.897377 kJ/mol
# Density = 1.610653 g / cm^3
# Si number density = 16.143268 Si / 1000 Ang^3
#
#
#
# Elastic Constant Matrix: (Units=GPa)
#
#
# Indices 1 2 3 4 5 6 
#
# 1 76.7789 35.8699 45.8184 0.0000 0.0000 0.0000
# 2 35.8699 76.7775 45.8184 0.0000 0.0000 0.0000
# 3 45.8184 45.8184 124.7447 0.0000 0.0000 0.0000
# 4 0.0000 0.0000 0.0000 22.3323 0.0000 0.0000
# 5 0.0000 0.0000 0.0000 0.0000 22.3325 0.0000
# 6 0.0000 0.0000 0.0000 0.0000 0.0000 10.0824
#
#
#
# Elastic Compliance Matrix: (Units=1/GPa)
#
#
# Indices 1 2 3 4 5 6 
#
# 1 0.018552 -0.005893 -0.004650 0.000000 0.000000 0.000000
# 2 -0.005893 0.018553 -0.004650 0.000000 0.000000 0.000000
# 3 -0.004650 -0.004650 0.011432 0.000000 0.000000 0.000000
# 4 0.000000 0.000000 0.000000 0.044778 0.000000 0.000000
# 5 0.000000 0.000000 0.000000 0.000000 0.044778 0.000000
# 6 0.000000 0.000000 0.000000 0.000000 0.000000 0.099183
#
#
# Mechanical properties :
#
#
# Convention : Reuss Voigt Hill
#
# Bulk Modulus (GPa) = 55.08992 59.25716 57.17354
# Shear Modulus (GPa) = 18.26742 21.00240 19.63491
#
# Velocity S-wave (km/s) = 3.36755 3.61085 3.49132
# Velocity P-wave (km/s) = 7.02284 7.36010 7.19344
#
# Compressibility (1/GPa) = 0.01815214
#
# Stress axis : x y z
#
# Youngs Moduli (GPa) = 53.90211 53.90085 87.47238
#
# Poissons Ratio (x) = 0.31761 0.40673
# Poissons Ratio (y) = 0.31762 0.40675
# Poissons Ratio (z) = 0.25064 0.25064
#
# Static dielectric constant tensor:
#      x y z
#    x 3.062370 0.000000 0.000000 
#    y 0.000000 3.062370 0.000000 
#    z 0.000000 0.000000 3.686140 
# 
# 
# High freq. dielectric constant tensor:
#      x y z
#    x 1.596230 0.000000 0.000000 
#    y 0.000000 1.596230 0.000000 
#    z 0.000000 0.000000 1.638990 
# 
# From -- ./inp_files/10749.got.cif
#   From: 2010.03.12/outbox.cif.g09.slc.cpg/sg91_6_cif.got.tgz:10749.got - 2010.04.08 20:27:58.
