data_PCOD8304835
_publ_section_title
;
Structure prediction by ZEFSAII (Michael W. Deem and Ramdas Pophale) SiO2 
 PCOD8304835
Probable space group: P 41 2 2
;
_chemical_formula_sum "Si O2"
_cell_formula_units_Z 52
_cell_length_a 18.405370
_cell_length_b 18.405370
_cell_length_c 9.330886
_cell_angle_alpha 90.000000
_cell_angle_beta 90.000000
_cell_angle_gamma 90.000000
_cell_volume 3160.908966
_symmetry_space_group_name_H-M "P 41 2 2"
_symmetry_group_IT_number 91
_symmetry_cell_setting 'tetragonal'
loop_
_space_group_symop_operation_xyz
x,y,z
-y,x,1/4+z
-x,-y,1/2+z
y,-x,3/4+z
x,-y,1/2-z
-x,y,-z
y,x,3/4-z
-y,-x,1/4-z
loop_
_atom_site_type_symbol
_atom_site_label
_atom_site_fract_x
_atom_site_fract_y
_atom_site_fract_z
Si Si1 0.441300 0.441300 0.875000
Si Si2 0.280766 0.453539 0.974106
Si Si3 0.677026 0.789216 0.433946
Si Si4 0.418794 0.820492 0.976080
Si Si5 0.916011 0.361604 0.001601
Si Si6 0.796463 0.399497 0.455108
Si Si7 0.520153 0.938028 0.652636
O O1 0.450213 0.500000 0.750000
O O2 0.366557 0.446177 0.962327
O O3 0.242530 0.400071 0.863239
O O4 0.261765 0.536361 0.933204
O O5 0.252946 0.430902 0.132821
O O6 0.745130 0.745130 0.375000
O O7 0.684447 0.871613 0.371154
O O8 0.672513 0.781018 0.608051
O O9 0.360347 0.876072 0.903541
O O10 0.500000 0.855024 0.000000
O O11 0.380625 0.800521 0.126808
O O12 0.907809 0.446875 0.029329
O O13 0.000000 0.334884 0.000000
O O14 0.873593 0.423351 0.389533
O O15 0.500000 0.972712 0.500000
O O16 0.556243 0.000000 0.750000
#
# Coordination Sequence:
#
# PCOD8304835 Si02
#       7
#     4   8   8   8   8   8   8
#     4  12  26  40  56  70  86 120 166 232 286 318
#     4  10  20  36  52  66  91 123 160 207 263 304
#     4  11  20  34  53  71  91 135 173 203 243 307
#     4   9  18  32  50  73  98 127 157 198 246 306
#     4  10  20  31  47  72 107 134 160 198 249 300
#     4  11  19  33  51  73  99 128 168 207 247 298
#     4  11  20  27  46  75 108 134 163 195 244 303
#
# _framework density 16.450963999999999
#
# number of rings (size 3 to 8) (size 9 to 14) (size 15 to 20)
#    0.000    1.538    6.923    1.385    4.308    1.846 
#    0.000    3.077    3.385    0.000    0.000    0.000 
#    0.000    0.000    0.000    4.154    0.000    0.000 
#
# Total GULP energy -644356.937106 kJ/mol
# GULP energy per Si atom -12391.479560 kJ/mol
# Density = 1.641352 g / cm^3
# Si number density = 16.450964 Si / 1000 Ang^3
#
#
#
# Elastic Constant Matrix: (Units=GPa)
#
#
# Indices 1 2 3 4 5 6 
#
# 1 79.5936 28.1836 38.8138 0.0000 0.0000 0.0000
# 2 28.1836 79.5936 38.8138 0.0000 0.0000 0.0000
# 3 38.8138 38.8138 133.8594 0.0000 0.0000 0.0000
# 4 0.0000 0.0000 0.0000 16.9494 0.0000 0.0000
# 5 0.0000 0.0000 0.0000 0.0000 16.9494 0.0000
# 6 0.0000 0.0000 0.0000 0.0000 0.0000 9.3274
#
#
#
# Elastic Compliance Matrix: (Units=1/GPa)
#
#
# Indices 1 2 3 4 5 6 
#
# 1 0.015590 -0.003862 -0.003401 0.000000 0.000000 0.000000
# 2 -0.003862 0.015590 -0.003401 0.000000 0.000000 0.000000
# 3 -0.003401 -0.003401 0.009443 0.000000 0.000000 0.000000
# 4 0.000000 0.000000 0.000000 0.058999 0.000000 0.000000
# 5 0.000000 0.000000 0.000000 0.000000 0.058999 0.000000
# 6 0.000000 0.000000 0.000000 0.000000 0.000000 0.107211
#
#
# Mechanical properties :
#
#
# Convention : Reuss Voigt Hill
#
# Bulk Modulus (GPa) = 51.82498 56.07436 53.94967
# Shear Modulus (GPa) = 17.03062 21.12759 19.07911
#
# Velocity S-wave (km/s) = 3.22100 3.58757 3.40921
# Velocity P-wave (km/s) = 6.73826 7.16384 6.95431
#
# Compressibility (1/GPa) = 0.01929571
#
# Stress axis : x y z
#
# Youngs Moduli (GPa) = 64.14544 64.14544 105.90340
#
# Poissons Ratio (x) = 0.24772 0.36013
# Poissons Ratio (y) = 0.24772 0.36013
# Poissons Ratio (z) = 0.21813 0.21813
#
# Static dielectric constant tensor:
#      x y z
#    x 2.906650 0.000000 0.000000 
#    y 0.000000 2.906650 0.000000 
#    z 0.000000 0.000000 5.628930 
# 
# 
# High freq. dielectric constant tensor:
#      x y z
#    x 1.592630 0.000000 0.000000 
#    y 0.000000 1.592630 0.000000 
#    z 0.000000 0.000000 1.657660 
# 
# From -- ./inp_files/15265.got.cif
#   From: 2010.03.12/outbox.cif.g09.slc.cpg/sg91_8_cif.got.tgz:15265.got - 2010.04.08 20:27:58.
