data_PCOD8304367
_publ_section_title
;
Structure prediction by ZEFSAII (Michael W. Deem and Ramdas Pophale) SiO2 
 PCOD8304367
Probable space group: I 41/A
;
_chemical_formula_sum "Si O2"
_cell_formula_units_Z 52
_cell_length_a 19.027527
_cell_length_b 19.027527
_cell_length_c 6.016745
_cell_angle_alpha 90.000000
_cell_angle_beta 90.000000
_cell_angle_gamma 90.000000
_cell_volume 2178.343176
_symmetry_space_group_name_H-M "I 41/A"
_symmetry_group_IT_number 88
_space_group.IT_coordinate_system_code '2'
_symmetry_cell_setting 'tetragonal'
loop_
_space_group_symop_operation_xyz
x,y,z
3/4-y,1/4+x,1/4+z
-x,1/2-y,z
1/4+y,1/4-x,1/4+z
-x,-y,-z
1/4+y,3/4-x,3/4-z
x,1/2+y,-z
3/4-y,3/4+x,3/4-z
1/2+x,1/2+y,1/2+z
1/4-y,3/4+x,3/4+z
1/2-x,-y,1/2+z
3/4+y,3/4-x,3/4+z
1/2-x,1/2-y,1/2-z
3/4+y,1/4-x,1/4-z
1/2+x,y,1/2-z
1/4-y,1/4+x,1/4-z
loop_
_atom_site_type_symbol
_atom_site_label
_atom_site_fract_x
_atom_site_fract_y
_atom_site_fract_z
Si Si1 0.442335 0.505396 0.314725
Si Si2 0.350477 0.713472 0.193962
Si Si3 0.500000 0.750000 0.125000
Si Si4 0.343303 0.468175 0.671574
O O1 0.500000 0.500000 0.500000
O O2 0.461600 0.570962 0.153439
O O3 0.368019 0.509751 0.446023
O O4 0.443100 0.434142 0.174869
O O5 0.432331 0.722504 0.261012
O O6 0.335286 0.652673 0.011471
O O7 0.326982 0.524205 0.865353
#
# Coordination Sequence:
#
# PCOD8304367 Si02
#       4
#    16  16   4  16
#     4   9  22  47  72  95 142 187 239 306 367 426
#     4  10  25  46  69 103 149 189 243 304 369 445
#     4  12  28  40  78 104 144 202 240 296 370 452
#     4  11  27  42  72 107 138 193 245 307 369 442
#
# _framework density 23.871351000000001
#
# number of rings (size 3 to 8) (size 9 to 14) (size 15 to 20)
#    0.000    1.846    0.000    0.000   21.538    0.000 
#    0.000    6.154    0.000    0.000    0.000    0.000 
#    0.000    0.000    0.000    0.000    0.000    0.000 
#
# Total GULP energy -322195.786232 kJ/mol
# GULP energy per Si atom -12392.145624 kJ/mol
# Density = 2.381702 g / cm^3
# Si number density = 23.871351 Si / 1000 Ang^3
#
#
#
# Elastic Constant Matrix: (Units=GPa)
#
#
# Indices 1 2 3 4 5 6 
#
# 1 141.4019 46.2470 33.9905 0.0000 0.0000 12.3557
# 2 46.2470 141.4019 33.9905 0.0000 0.0000 -12.3557
# 3 33.9905 33.9905 98.6011 0.0000 0.0000 0.0000
# 4 0.0000 0.0000 0.0000 29.5761 0.0000 0.0000
# 5 0.0000 0.0000 0.0000 0.0000 29.5761 0.0000
# 6 12.3557 -12.3557 0.0000 0.0000 0.0000 29.8150
#
#
#
# Elastic Compliance Matrix: (Units=1/GPa)
#
#
# Indices 1 2 3 4 5 6 
#
# 1 0.008933 -0.002843 -0.002099 0.000000 0.000000 -0.004880
# 2 -0.002843 0.008933 -0.002099 0.000000 0.000000 0.004880
# 3 -0.002099 -0.002099 0.011589 0.000000 0.000000 0.000000
# 4 0.000000 0.000000 0.000000 0.033811 0.000000 0.000000
# 5 0.000000 0.000000 0.000000 0.000000 0.033811 0.000000
# 6 -0.004880 0.004880 0.000000 0.000000 0.000000 0.037585
#
#
# Mechanical properties :
#
#
# Convention : Reuss Voigt Hill
#
# Bulk Modulus (GPa) = 65.05582 67.76233 66.40908
# Shear Modulus (GPa) = 32.49487 35.60524 34.05006
#
# Velocity S-wave (km/s) = 3.69351 3.86624 3.78087
# Velocity P-wave (km/s) = 6.74546 6.95547 6.85127
#
# Compressibility (1/GPa) = 0.01537142
#
# Stress axis : x y z
#
# Youngs Moduli (GPa) = 111.94321 111.94321 86.28707
#
# Poissons Ratio (x) = 0.31831 0.18114
# Poissons Ratio (y) = 0.31831 0.18114
# Poissons Ratio (z) = 0.23500 0.23500
#
# Static dielectric constant tensor:
#      x y z
#    x 5.872820 0.000000 0.000000 
#    y 0.000000 5.872820 0.000000 
#    z 0.000000 0.000000 5.192130 
# 
# 
# High freq. dielectric constant tensor:
#      x y z
#    x 1.947310 0.000000 0.000000 
#    y 0.000000 1.947310 0.000000 
#    z 0.000000 0.000000 1.936450 
# 
# From -- ./inp_files/398.got.cif
#   From: 2010.03.12/outbox.cif.g09.slc.cpg/sg88_1_cif.got.tgz:398.got - 2010.04.08 20:20:55.
