data_PCOD8304066
_publ_section_title
;
Structure prediction by ZEFSAII (Michael W. Deem and Ramdas Pophale) SiO2 
 PCOD8304066
Probable space group: I 4/M
;
_chemical_formula_sum "Si O2"
_cell_formula_units_Z 72
_cell_length_a 11.686903
_cell_length_b 11.686903
_cell_length_c 23.949000
_cell_angle_alpha 90.000000
_cell_angle_beta 90.000000
_cell_angle_gamma 90.000000
_cell_volume 3271.043073
_symmetry_space_group_name_H-M "I 4/M"
_symmetry_group_IT_number 87
_symmetry_cell_setting 'tetragonal'
loop_
_space_group_symop_operation_xyz
x,y,z
-y,x,z
-x,-y,z
y,-x,z
-x,-y,-z
y,-x,-z
x,y,-z
-y,x,-z
1/2+x,1/2+y,1/2+z
1/2-y,1/2+x,1/2+z
1/2-x,1/2-y,1/2+z
1/2+y,1/2-x,1/2+z
1/2-x,1/2-y,1/2-z
1/2+y,1/2-x,1/2-z
1/2+x,1/2+y,1/2-z
1/2-y,1/2+x,1/2-z
loop_
_atom_site_type_symbol
_atom_site_label
_atom_site_fract_x
_atom_site_fract_y
_atom_site_fract_z
Si Si1 0.599355 0.851547 0.414203
Si Si2 0.778804 0.780072 0.662195
Si Si3 0.336041 0.595324 0.500000
Si Si4 0.398756 0.157941 0.936573
Si Si5 0.893473 0.149294 0.231440
O O1 0.657056 0.837016 0.353989
O O2 0.635638 0.735589 0.446432
O O3 0.463042 0.857757 0.411699
O O4 0.654536 0.963990 0.442298
O O5 0.856502 0.754396 0.607256
O O6 0.839341 0.872525 0.701976
O O7 0.751923 0.665800 0.697469
O O8 0.345197 0.457990 0.500000
O O9 0.350337 0.178497 0.000000
O O10 0.025852 0.156903 0.214990
#
# Coordination Sequence:
#
# PCOD8304066 Si02
#       5
#    16  16   8  16  16
#     4  11  21  38  57  86 125 162 196 244 299 355
#     4  11  23  37  64  90 113 158 207 252 298 364
#     4  11  22  35  56  86 122 161 200 236 282 353
#     4  11  22  37  59  88 125 164 200 241 303 364
#     4  10  22  43  62  84 118 154 200 257 315 359
#
# _framework density 22.011327999999999
#
# number of rings (size 3 to 8) (size 9 to 14) (size 15 to 20)
#    0.000    1.222    2.222    4.667    1.556    0.000 
#    0.000    2.222    0.000   10.667    0.000    4.667 
#    0.000    0.000    0.000    0.000    0.000    0.000 
#
# Total GULP energy -446284.450793 kJ/mol
# GULP energy per Si atom -12396.790300 kJ/mol
# Density = 2.196123 g / cm^3
# Si number density = 22.011328 Si / 1000 Ang^3
#
#
#
# Elastic Constant Matrix: (Units=GPa)
#
#
# Indices 1 2 3 4 5 6 
#
# 1 50.8571 6.2883 16.5618 0.0000 0.0000 3.1061
# 2 6.2883 50.8571 16.5618 0.0000 0.0000 -3.1061
# 3 16.5618 16.5618 79.1223 0.0000 0.0000 0.0000
# 4 0.0000 0.0000 0.0000 30.7327 0.0000 0.0000
# 5 0.0000 0.0000 0.0000 0.0000 30.7327 0.0000
# 6 3.1061 -3.1061 0.0000 0.0000 0.0000 26.6305
#
#
#
# Elastic Compliance Matrix: (Units=1/GPa)
#
#
# Indices 1 2 3 4 5 6 
#
# 1 0.021362 -0.001446 -0.004169 0.000000 0.000000 -0.002660
# 2 -0.001446 0.021362 -0.004169 0.000000 0.000000 0.002660
# 3 -0.004169 -0.004169 0.014384 0.000000 0.000000 0.000000
# 4 0.000000 0.000000 0.000000 0.032539 0.000000 0.000000
# 5 0.000000 0.000000 0.000000 0.000000 0.032539 0.000000
# 6 -0.002660 0.002660 0.000000 0.000000 0.000000 0.038172
#
#
# Mechanical properties :
#
#
# Convention : Reuss Voigt Hill
#
# Bulk Modulus (GPa) = 26.63814 28.85112 27.74463
# Shear Modulus (GPa) = 25.98254 27.04747 26.51500
#
# Velocity S-wave (km/s) = 3.43945 3.50922 3.47451
# Velocity P-wave (km/s) = 5.28217 5.43649 5.35988
#
# Compressibility (1/GPa) = 0.03754016
#
# Stress axis : x y z
#
# Youngs Moduli (GPa) = 46.81254 46.81254 69.52244
#
# Poissons Ratio (x) = 0.06770 0.28982
# Poissons Ratio (y) = 0.06770 0.28982
# Poissons Ratio (z) = 0.19515 0.19515
#
# Static dielectric constant tensor:
#      x y z
#    x 3.870720 0.000000 0.000000 
#    y 0.000000 3.870720 0.000000 
#    z 0.000000 0.000000 3.930410 
# 
# 
# High freq. dielectric constant tensor:
#      x y z
#    x 1.863440 0.000000 0.000000 
#    y 0.000000 1.863440 0.000000 
#    z 0.000000 0.000000 1.862880 
# 
# From -- ./inp_files/6150.got.cif
#   From: 2010.03.12/outbox.cif.g09.slc.cpg/sg87_4_cif.got.tgz:6150.got - 2010.04.08 20:16:13.
