data_PCOD8304785
_publ_section_title
;
Structure prediction by ZEFSAII (Michael W. Deem and Ramdas Pophale) SiO2 
 PCOD8304785
Probable space group: P 41 2 2
;
_chemical_formula_sum "Si O2"
_cell_formula_units_Z 44
_cell_length_a 11.496600
_cell_length_b 11.496600
_cell_length_c 18.106862
_cell_angle_alpha 90.000000
_cell_angle_beta 90.000000
_cell_angle_gamma 90.000000
_cell_volume 2393.216752
_symmetry_space_group_name_H-M "P 41 2 2"
_symmetry_group_IT_number 91
_symmetry_cell_setting 'tetragonal'
loop_
_space_group_symop_operation_xyz
x,y,z
-y,x,1/4+z
-x,-y,1/2+z
y,-x,3/4+z
x,-y,1/2-z
-x,y,-z
y,x,3/4-z
-y,-x,1/4-z
loop_
_atom_site_type_symbol
_atom_site_label
_atom_site_fract_x
_atom_site_fract_y
_atom_site_fract_z
Si Si1 0.500000 0.743636 0.000000
Si Si2 0.195898 0.689504 0.694813
Si Si3 0.446128 0.446128 0.375000
Si Si4 0.066416 0.679394 0.303286
Si Si5 0.102026 0.939085 0.048122
Si Si6 0.801046 0.100736 0.299796
Si Si7 0.500000 0.371573 0.000000
O O1 0.454798 0.667456 0.070862
O O2 0.596438 0.833493 0.025468
O O3 0.231807 0.768194 0.625000
O O4 0.195617 0.773329 0.764237
O O5 0.291270 0.592258 0.708784
O O6 0.066526 0.631403 0.685513
O O7 0.552987 0.445252 0.316890
O O8 0.116713 0.723369 0.379396
O O9 0.057060 0.780219 0.244817
O O10 0.059153 0.068851 0.070427
O O11 0.126967 0.873034 0.125000
O O12 0.000000 0.877905 0.000000
O O13 0.742952 0.000000 0.250000
#
# Coordination Sequence:
#
# PCOD8304785 Si02
#       7
#     4   8   4   8   8   8   4
#     4  11  25  44  62  88 117 161 210 244 322 353
#     4  11  21  35  61  92 124 155 201 254 306 356
#     4  10  24  44  68  80 112 160 210 266 296 372
#     4  11  22  37  60  88 127 160 191 253 297 367
#     4  10  19  32  55  87 122 156 193 231 286 365
#     4  10  19  32  55  87 122 158 196 234 298 356
#     4  11  21  42  64  90 107 155 216 262 308 351
#
# _framework density 18.385297999999999
#
# number of rings (size 3 to 8) (size 9 to 14) (size 15 to 20)
#    0.000    1.455    4.545    1.636    1.273    0.000 
#    0.000    0.000    0.000    1.091    0.000    0.000 
#    0.000    0.000    0.000    0.000    0.000    0.000 
#
# Total GULP energy -545146.169941 kJ/mol
# GULP energy per Si atom -12389.685680 kJ/mol
# Density = 1.834345 g / cm^3
# Si number density = 18.385298 Si / 1000 Ang^3
#
#
#
# Elastic Constant Matrix: (Units=GPa)
#
#
# Indices 1 2 3 4 5 6 
#
# 1 96.0780 54.5420 46.7931 0.0000 0.0000 0.0000
# 2 54.5420 96.0782 46.7931 0.0000 0.0000 0.0000
# 3 46.7931 46.7931 129.3472 0.0000 0.0000 0.0000
# 4 0.0000 0.0000 0.0000 29.6001 0.0000 0.0000
# 5 0.0000 0.0000 0.0000 0.0000 29.6001 0.0000
# 6 0.0000 0.0000 0.0000 0.0000 0.0000 30.6144
#
#
#
# Elastic Compliance Matrix: (Units=1/GPa)
#
#
# Indices 1 2 3 4 5 6 
#
# 1 0.016320 -0.007756 -0.003098 0.000000 0.000000 0.000000
# 2 -0.007756 0.016320 -0.003098 0.000000 0.000000 0.000000
# 3 -0.003098 -0.003098 0.009973 0.000000 0.000000 0.000000
# 4 0.000000 0.000000 0.000000 0.033784 0.000000 0.000000
# 5 0.000000 0.000000 0.000000 0.000000 0.033784 0.000000
# 6 0.000000 0.000000 0.000000 0.000000 0.000000 0.032664
#
#
# Mechanical properties :
#
#
# Convention : Reuss Voigt Hill
#
# Bulk Modulus (GPa) = 67.98846 68.63998 68.31422
# Shear Modulus (GPa) = 28.46552 29.52128 28.99340
#
# Velocity S-wave (km/s) = 3.93908 4.01147 3.97544
# Velocity P-wave (km/s) = 7.59925 7.67275 7.63609
#
# Compressibility (1/GPa) = 0.01470838
#
# Stress axis : x y z
#
# Youngs Moduli (GPa) = 61.27499 61.27514 100.27283
#
# Poissons Ratio (x) = 0.47522 0.31067
# Poissons Ratio (y) = 0.47522 0.31067
# Poissons Ratio (z) = 0.18984 0.18984
#
# Static dielectric constant tensor:
#      x y z
#    x 3.451950 0.000000 0.000000 
#    y 0.000000 3.451950 0.000000 
#    z 0.000000 0.000000 3.550120 
# 
# 
# High freq. dielectric constant tensor:
#      x y z
#    x 1.703170 0.000000 0.000000 
#    y 0.000000 1.703170 0.000000 
#    z 0.000000 0.000000 1.733170 
# 
# From -- ./inp_files/5531.got.cif
#   From: 2010.03.12/outbox.cif.g09.slc.cpg/sg91_3_cif.got.tgz:5531.got - 2010.04.08 20:27:58.
