data_PCOD8304040
_publ_section_title
;
Structure prediction by ZEFSAII (Michael W. Deem and Ramdas Pophale) SiO2 
 PCOD8304040
Probable space group: I 4/M
;
_chemical_formula_sum "Si O2"
_cell_formula_units_Z 68
_cell_length_a 16.780891
_cell_length_b 16.780891
_cell_length_c 12.775874
_cell_angle_alpha 90.000000
_cell_angle_beta 90.000000
_cell_angle_gamma 90.000000
_cell_volume 3597.664435
_symmetry_space_group_name_H-M "I 4/M"
_symmetry_group_IT_number 87
_symmetry_cell_setting 'tetragonal'
loop_
_space_group_symop_operation_xyz
x,y,z
-y,x,z
-x,-y,z
y,-x,z
-x,-y,-z
y,-x,-z
x,y,-z
-y,x,-z
1/2+x,1/2+y,1/2+z
1/2-y,1/2+x,1/2+z
1/2-x,1/2-y,1/2+z
1/2+y,1/2-x,1/2+z
1/2-x,1/2-y,1/2-z
1/2+y,1/2-x,1/2-z
1/2+x,1/2+y,1/2-z
1/2-y,1/2+x,1/2-z
loop_
_atom_site_type_symbol
_atom_site_label
_atom_site_fract_x
_atom_site_fract_y
_atom_site_fract_z
Si Si1 0.878183 0.241057 0.739983
Si Si2 0.033899 0.874316 0.118825
Si Si3 0.500797 0.156829 0.878921
Si Si4 0.000000 0.500000 0.750000
Si Si5 0.161927 0.257727 0.621282
O O1 0.948499 0.196854 0.801983
O O2 0.917466 0.307028 0.665490
O O3 0.829134 0.178059 0.670092
O O4 0.822021 0.281802 0.824688
O O5 0.944793 0.903597 0.139576
O O6 0.042139 0.843508 0.000000
O O7 0.430253 0.220378 0.862327
O O8 0.478224 0.075145 0.821588
O O9 0.514035 0.136801 0.000000
O O10 0.185146 0.256005 0.500000
#
# Coordination Sequence:
#
# PCOD8304040 Si02
#       5
#    16  16  16   4  16
#     4  11  20  36  59  81 113 150 191 234 293 340
#     4   9  18  33  54  82 114 148 189 236 285 342
#     4  11  23  40  61  85 116 151 194 239 283 345
#     4  12  22  44  60  86 112 160 194 232 292 334
#     4  10  22  37  55  82 114 147 189 240 286 338
#
# _framework density 18.901152
#
# number of rings (size 3 to 8) (size 9 to 14) (size 15 to 20)
#    0.000    1.647    2.353    3.882    0.000    0.000 
#    0.000    0.000    0.000    0.000    0.000    9.882 
#    0.000    0.000    0.000    0.000    0.000    0.000 
#
# Total GULP energy -421747.352547 kJ/mol
# GULP energy per Si atom -12404.333898 kJ/mol
# Density = 1.885813 g / cm^3
# Si number density = 18.901152 Si / 1000 Ang^3
#
#
#
# Elastic Constant Matrix: (Units=GPa)
#
#
# Indices 1 2 3 4 5 6 
#
# 1 56.6873 11.4339 36.2905 0.0000 0.0000 2.5608
# 2 11.4339 56.6873 36.2905 0.0000 0.0000 -2.5608
# 3 36.2905 36.2905 120.0234 0.0000 0.0000 0.0000
# 4 0.0000 0.0000 0.0000 25.7377 0.0000 0.0000
# 5 0.0000 0.0000 0.0000 0.0000 25.7377 0.0000
# 6 2.5608 -2.5608 0.0000 0.0000 0.0000 28.6019
#
#
#
# Elastic Compliance Matrix: (Units=1/GPa)
#
#
# Indices 1 2 3 4 5 6 
#
# 1 0.021990 -0.000334 -0.006548 0.000000 0.000000 -0.001999
# 2 -0.000334 0.021990 -0.006548 0.000000 0.000000 0.001999
# 3 -0.006548 -0.006548 0.012292 0.000000 0.000000 0.000000
# 4 0.000000 0.000000 0.000000 0.038854 0.000000 0.000000
# 5 0.000000 0.000000 0.000000 0.000000 0.038854 0.000000
# 6 -0.001999 0.001999 0.000000 0.000000 0.000000 0.035321
#
#
# Mechanical properties :
#
#
# Convention : Reuss Voigt Hill
#
# Bulk Modulus (GPa) = 33.99957 44.60309 39.30133
# Shear Modulus (GPa) = 24.27612 25.97432 25.12522
#
# Velocity S-wave (km/s) = 3.58770 3.71107 3.64991
# Velocity P-wave (km/s) = 5.93206 6.48167 6.21294
#
# Compressibility (1/GPa) = 0.02941214
#
# Stress axis : x y z
#
# Youngs Moduli (GPa) = 45.47467 45.47467 81.35695
#
# Poissons Ratio (x) = 0.01518 0.53273
# Poissons Ratio (y) = 0.01518 0.53273
# Poissons Ratio (z) = 0.29777 0.29777
#
# Static dielectric constant tensor:
#      x y z
#    x 3.362330 0.000000 0.000000 
#    y 0.000000 3.362330 0.000000 
#    z 0.000000 0.000000 3.514480 
# 
# 
# High freq. dielectric constant tensor:
#      x y z
#    x 1.733050 0.000000 0.000000 
#    y 0.000000 1.733050 0.000000 
#    z 0.000000 0.000000 1.745660 
# 
# From -- ./inp_files/2438.got.cif
#   From: 2010.03.12/outbox.cif.g09.slc.cpg/sg87_2_cif.got.tgz:2438.got - 2010.04.08 20:16:13.
