data_PCOD8304582
_publ_section_title
;
Structure prediction by ZEFSAII (Michael W. Deem and Ramdas Pophale) SiO2 
 PCOD8304582
Probable space group: P 4 21 2
;
_chemical_formula_sum "Si O2"
_cell_formula_units_Z 48
_cell_length_a 8.217098
_cell_length_b 8.217098
_cell_length_c 33.887513
_cell_angle_alpha 90.000000
_cell_angle_beta 90.000000
_cell_angle_gamma 90.000000
_cell_volume 2288.108583
_symmetry_space_group_name_H-M "P 4 21 2"
_symmetry_group_IT_number 90
_symmetry_cell_setting 'tetragonal'
loop_
_space_group_symop_operation_xyz
x,y,z
1/2-y,1/2+x,z
-x,-y,z
1/2+y,1/2-x,z
1/2+x,1/2-y,-z
1/2-x,1/2+y,-z
y,x,-z
-y,-x,-z
loop_
_atom_site_type_symbol
_atom_site_label
_atom_site_fract_x
_atom_site_fract_y
_atom_site_fract_z
Si Si1 0.000000 0.000000 0.733116
Si Si2 0.741729 0.423722 0.203650
Si Si3 0.078292 0.243953 0.118930
Si Si4 0.000000 0.000000 0.398627
Si Si5 0.066301 0.760722 0.667717
Si Si6 0.758982 0.924467 0.965909
Si Si7 0.760969 0.927574 0.535113
O O1 0.882654 0.892054 0.760897
O O2 0.098943 0.874407 0.705636
O O3 0.801016 0.609221 0.207439
O O4 0.650739 0.394489 0.160796
O O5 0.197800 0.394696 0.119005
O O6 0.105439 0.151263 0.077040
O O7 0.134730 0.909812 0.371923
O O8 0.909074 0.862889 0.424612
O O9 0.196696 0.618220 0.668588
O O10 0.607947 0.801936 0.970085
O O11 0.889507 0.889507 0.000000
O O12 0.612379 0.801670 0.532739
O O13 0.886106 0.886106 0.500000
#
# Coordination Sequence:
#
# PCOD8304582 Si02
#       7
#     4   8   8   4   8   8   8
#     4  11  20  32  53  80 104 128 167 216 264 319
#     4   9  17  31  51  73  97 127 164 206 252 304
#     4   7  12  26  46  65  88 120 157 196 239 289
#     4  11  21  38  61  84 110 148 203 244 273 321
#     4  10  22  38  55  77 109 146 179 219 275 334
#     4   9  17  30  47  67  93 125 160 199 242 289
#     4  11  23  39  61  90 125 161 199 247 296 341
#
# _framework density 20.978024999999999
#
# number of rings (size 3 to 8) (size 9 to 14) (size 15 to 20)
#    0.000    2.500    0.000    5.250    0.000    0.333 
#    0.000    6.667    0.000    8.000    0.000    2.333 
#    0.000    0.000    0.000    0.000    0.000    0.000 
#
# Total GULP energy -594711.264652 kJ/mol
# GULP energy per Si atom -12389.818014 kJ/mol
# Density = 2.093028 g / cm^3
# Si number density = 20.978025 Si / 1000 Ang^3
#
#
#
# Elastic Constant Matrix: (Units=GPa)
#
#
# Indices 1 2 3 4 5 6 
#
# 1 56.5182 7.0546 37.6650 0.0000 0.0000 0.0000
# 2 7.0546 56.5182 37.6650 0.0000 0.0000 0.0000
# 3 37.6650 37.6650 191.4786 0.0000 0.0000 0.0000
# 4 0.0000 0.0000 0.0000 25.2915 0.0000 0.0000
# 5 0.0000 0.0000 0.0000 0.0000 25.2915 0.0000
# 6 0.0000 0.0000 0.0000 0.0000 0.0000 26.2762
#
#
#
# Elastic Compliance Matrix: (Units=1/GPa)
#
#
# Indices 1 2 3 4 5 6 
#
# 1 0.020364 0.000147 -0.004035 0.000000 0.000000 0.000000
# 2 0.000147 0.020364 -0.004035 0.000000 0.000000 0.000000
# 3 -0.004035 -0.004035 0.006810 0.000000 0.000000 0.000000
# 4 0.000000 0.000000 0.000000 0.039539 0.000000 0.000000
# 5 0.000000 0.000000 0.000000 0.000000 0.039539 0.000000
# 6 0.000000 0.000000 0.000000 0.000000 0.000000 0.038057
#
#
# Mechanical properties :
#
#
# Convention : Reuss Voigt Hill
#
# Bulk Modulus (GPa) = 31.55279 52.14269 41.84774
# Shear Modulus (GPa) = 26.16686 30.18054 28.17370
#
# Velocity S-wave (km/s) = 3.53561 3.79710 3.66869
# Velocity P-wave (km/s) = 5.63391 6.64333 6.15933
#
# Compressibility (1/GPa) = 0.03169292
#
# Stress axis : x y z
#
# Youngs Moduli (GPa) = 49.10669 49.10669 146.84775
#
# Poissons Ratio (x) = -0.00722 0.59247
# Poissons Ratio (y) = -0.00722 0.59247
# Poissons Ratio (z) = 0.19813 0.19813
#
# Static dielectric constant tensor:
#      x y z
#    x 3.469510 0.000000 0.000000 
#    y 0.000000 3.469510 0.000000 
#    z 0.000000 0.000000 4.292350 
# 
# 
# High freq. dielectric constant tensor:
#      x y z
#    x 1.797730 0.000000 0.000000 
#    y 0.000000 1.797730 0.000000 
#    z 0.000000 0.000000 1.849230 
# 
# From -- ./inp_files/3074.got.cif
#   From: 2010.03.12/outbox.cif.g09.slc.cpg/sg90_2_cif.got.tgz:3074.got - 2010.04.08 20:26:03.
