data_PCOD8304732
_publ_section_title
;
Structure prediction by ZEFSAII (Michael W. Deem and Ramdas Pophale) SiO2 
 PCOD8304732
Probable space group: P 41 2 2
;
_chemical_formula_sum "Si O2"
_cell_formula_units_Z 48
_cell_length_a 14.755098
_cell_length_b 14.755098
_cell_length_c 11.329195
_cell_angle_alpha 90.000000
_cell_angle_beta 90.000000
_cell_angle_gamma 90.000000
_cell_volume 2466.512091
_symmetry_space_group_name_H-M "P 41 2 2"
_symmetry_group_IT_number 91
_symmetry_cell_setting 'tetragonal'
loop_
_space_group_symop_operation_xyz
x,y,z
-y,x,1/4+z
-x,-y,1/2+z
y,-x,3/4+z
x,-y,1/2-z
-x,y,-z
y,x,3/4-z
-y,-x,1/4-z
loop_
_atom_site_type_symbol
_atom_site_label
_atom_site_fract_x
_atom_site_fract_y
_atom_site_fract_z
Si Si1 0.239005 0.500000 0.750000
Si Si2 0.467318 0.084053 0.322921
Si Si3 0.201149 0.291328 0.039101
Si Si4 0.064451 0.644163 0.287402
Si Si5 0.477007 0.720926 0.753811
Si Si6 0.679351 0.135023 0.033136
Si Si7 0.450123 0.450123 0.375000
O O1 0.305734 0.512236 0.635378
O O2 0.171571 0.415900 0.736866
O O3 0.393469 0.111622 0.420223
O O4 0.560336 0.044559 0.375898
O O5 0.484746 0.176577 0.253205
O O6 0.426193 0.000000 0.250000
O O7 0.135358 0.287862 0.151830
O O8 0.277690 0.371401 0.045988
O O9 0.143311 0.311397 0.923061
O O10 0.245134 0.192679 0.035235
O O11 0.970499 0.693115 0.253897
O O12 0.531263 0.655392 0.843401
O O13 0.500000 0.477681 0.500000
#
# Coordination Sequence:
#
# PCOD8304732 Si02
#       7
#     4   8   8   8   8   8   4
#     4  10  20  34  60  82 112 148 196 254 298 350
#     4  10  19  33  55  84 110 149 195 250 318 363
#     4   9  20  33  52  77 114 152 191 247 300 354
#     4  10  18  30  53  77 115 146 188 247 305 362
#     4  10  23  40  59  82 118 156 209 254 304 358
#     4  10  18  31  52  83 111 150 191 242 303 364
#     4  12  32  46  64  84 122 180 228 258 296 362
#
# _framework density 19.460678000000001
#
# number of rings (size 3 to 8) (size 9 to 14) (size 15 to 20)
#    0.000    2.000    0.000    5.500    8.167    1.333 
#    0.000    0.000    0.000    0.000    0.000    0.000 
#    0.000   42.667    0.000    0.000    0.000    0.000 
#
# Total GULP energy -594919.231420 kJ/mol
# GULP energy per Si atom -12394.150655 kJ/mol
# Density = 1.941638 g / cm^3
# Si number density = 19.460678 Si / 1000 Ang^3
#
#
#
# Elastic Constant Matrix: (Units=GPa)
#
#
# Indices 1 2 3 4 5 6 
#
# 1 71.0449 35.2839 38.7927 0.0000 0.0000 0.0000
# 2 35.2839 71.0449 38.7927 0.0000 0.0000 0.0000
# 3 38.7927 38.7927 96.8044 0.0000 0.0000 0.0000
# 4 0.0000 0.0000 0.0000 26.3901 0.0000 0.0000
# 5 0.0000 0.0000 0.0000 0.0000 26.3901 0.0000
# 6 0.0000 0.0000 0.0000 0.0000 0.0000 19.7880
#
#
#
# Elastic Compliance Matrix: (Units=1/GPa)
#
#
# Indices 1 2 3 4 5 6 
#
# 1 0.020627 -0.007336 -0.005326 0.000000 0.000000 0.000000
# 2 -0.007336 0.020627 -0.005326 0.000000 0.000000 0.000000
# 3 -0.005326 -0.005326 0.014599 0.000000 0.000000 0.000000
# 4 0.000000 0.000000 0.000000 0.037893 0.000000 0.000000
# 5 0.000000 0.000000 0.000000 0.000000 0.037893 0.000000
# 6 0.000000 0.000000 0.000000 0.000000 0.000000 0.050536
#
#
# Mechanical properties :
#
#
# Convention : Reuss Voigt Hill
#
# Bulk Modulus (GPa) = 50.31091 51.62588 50.96840
# Shear Modulus (GPa) = 22.24419 22.91529 22.57974
#
# Velocity S-wave (km/s) = 3.38454 3.43522 3.40998
# Velocity P-wave (km/s) = 6.41734 6.50540 6.46152
#
# Compressibility (1/GPa) = 0.01987640
#
# Stress axis : x y z
#
# Youngs Moduli (GPa) = 48.47947 48.47947 68.49834
#
# Poissons Ratio (x) = 0.35565 0.36484
# Poissons Ratio (y) = 0.35565 0.36484
# Poissons Ratio (z) = 0.25821 0.25821
#
# Static dielectric constant tensor:
#      x y z
#    x 3.336770 0.000000 0.000000 
#    y 0.000000 3.336770 0.000000 
#    z 0.000000 0.000000 3.701480 
# 
# 
# High freq. dielectric constant tensor:
#      x y z
#    x 1.730850 0.000000 0.000000 
#    y 0.000000 1.730850 0.000000 
#    z 0.000000 0.000000 1.766300 
# 
# From -- ./inp_files/10800.got.cif
#   From: 2010.03.12/outbox.cif.g09.slc.cpg/sg91_6_cif.got.tgz:10800.got - 2010.04.08 20:27:58.
