data_PCOD8304856
_publ_section_title
;
Structure prediction by ZEFSAII (Michael W. Deem and Ramdas Pophale) SiO2 
 PCOD8304856
Probable space group: P 41 2 2
;
_chemical_formula_sum "Si O2"
_cell_formula_units_Z 60
_cell_length_a 11.135418
_cell_length_b 11.135418
_cell_length_c 23.475668
_cell_angle_alpha 90.000000
_cell_angle_beta 90.000000
_cell_angle_gamma 90.000000
_cell_volume 2910.924942
_symmetry_space_group_name_H-M "P 41 2 2"
_symmetry_group_IT_number 91
_symmetry_cell_setting 'tetragonal'
loop_
_space_group_symop_operation_xyz
x,y,z
-y,x,1/4+z
-x,-y,1/2+z
y,-x,3/4+z
x,-y,1/2-z
-x,y,-z
y,x,3/4-z
-y,-x,1/4-z
loop_
_atom_site_type_symbol
_atom_site_label
_atom_site_fract_x
_atom_site_fract_y
_atom_site_fract_z
Si Si1 0.198320 0.081457 0.506135
Si Si2 0.972091 0.356778 0.337608
Si Si3 0.790220 0.540766 0.567811
Si Si4 0.849336 0.441935 0.807294
Si Si5 0.681583 0.087513 0.706332
Si Si6 0.343425 0.000000 0.750000
Si Si7 0.631861 0.743944 0.520855
Si Si8 0.159397 0.828916 0.691757
O O1 0.302004 0.127037 0.548426
O O2 0.114939 0.189659 0.484733
O O3 0.251375 0.025031 0.449836
O O4 0.127709 0.975748 0.540498
O O5 0.828495 0.365900 0.327374
O O6 0.027641 0.485458 0.320036
O O7 0.006954 0.311060 0.399800
O O8 0.768374 0.550385 0.635890
O O9 0.790648 0.397336 0.552943
O O10 0.687736 0.614243 0.535674
O O11 0.921851 0.583211 0.546412
O O12 0.788550 0.500000 0.750000
O O13 0.612589 0.000000 0.750000
O O14 0.259752 0.081648 0.787792
O O15 0.500000 0.714710 0.500000
O O16 0.699304 0.813546 0.469923
O O17 0.176128 0.823873 0.625000
#
# Coordination Sequence:
#
# PCOD8304856 Si02
#       8
#     8   8   8   8   8   4   8   8
#     4  10  20  36  58  91 122 160 210 256 315 388
#     4   9  19  38  62  88 121 162 208 263 315 383
#     4  10  21  39  59  86 126 162 210 266 317 383
#     4   9  18  35  62  88 115 162 207 247 312 386
#     4  11  23  37  57  88 123 169 210 258 323 396
#     4  10  20  36  54  82 120 164 202 252 326 382
#     4  10  21  40  66  96 124 163 221 269 323 388
#     4  10  21  38  60  89 127 165 202 266 330 387
#
# _framework density 20.612006999999998
#
# number of rings (size 3 to 8) (size 9 to 14) (size 15 to 20)
#    0.000    2.133    0.667    3.200    2.800    1.067 
#    2.400    2.000    0.000    1.600    0.000    0.000 
#    0.000    0.000    0.000    0.000    0.000    0.000 
#
# Total GULP energy -743449.135579 kJ/mol
# GULP energy per Si atom -12390.818926 kJ/mol
# Density = 2.056509 g / cm^3
# Si number density = 20.612007 Si / 1000 Ang^3
#
#
#
# Elastic Constant Matrix: (Units=GPa)
#
#
# Indices 1 2 3 4 5 6 
#
# 1 81.1633 28.5710 39.6321 0.0000 0.0000 0.0000
# 2 28.5710 81.1635 39.6324 0.0000 0.0000 0.0000
# 3 39.6321 39.6324 146.6043 0.0000 0.0000 0.0000
# 4 0.0000 0.0000 0.0000 49.2601 0.0000 0.0000
# 5 0.0000 0.0000 0.0000 0.0000 49.2534 0.0000
# 6 0.0000 0.0000 0.0000 0.0000 0.0000 48.9525
#
#
#
# Elastic Compliance Matrix: (Units=1/GPa)
#
#
# Indices 1 2 3 4 5 6 
#
# 1 0.015169 -0.003845 -0.003061 0.000000 0.000000 0.000000
# 2 -0.003845 0.015169 -0.003061 0.000000 0.000000 0.000000
# 3 -0.003061 -0.003061 0.008476 0.000000 0.000000 0.000000
# 4 0.000000 0.000000 0.000000 0.020300 0.000000 0.000000
# 5 0.000000 0.000000 0.000000 0.000000 0.020303 0.000000
# 6 0.000000 0.000000 0.000000 0.000000 0.000000 0.020428
#
#
# Mechanical properties :
#
#
# Convention : Reuss Voigt Hill
#
# Bulk Modulus (GPa) = 52.96792 58.28910 55.62851
# Shear Modulus (GPa) = 39.65909 42.89957 41.27933
#
# Velocity S-wave (km/s) = 4.39119 4.56707 4.47999
# Velocity P-wave (km/s) = 7.17380 7.49342 7.33535
#
# Compressibility (1/GPa) = 0.01887935
#
# Stress axis : x y z
#
# Youngs Moduli (GPa) = 65.92314 65.92322 117.97673
#
# Poissons Ratio (x) = 0.25347 0.36116
# Poissons Ratio (y) = 0.25347 0.36117
# Poissons Ratio (z) = 0.20181 0.20181
#
# Static dielectric constant tensor:
#      x y z
#    x 1.008100 0.000000 0.000000 
#    y 0.000000 1.008980 0.000000 
#    z 0.000000 0.000000 3.955860 
# 
# 
# High freq. dielectric constant tensor:
#      x y z
#    x 1.793910 0.000000 0.000000 
#    y 0.000000 1.793910 0.000000 
#    z 0.000000 0.000000 1.817580 
# 
# From -- ./inp_files/12512.got.cif
#   From: 2010.03.12/outbox.cif.g09.slc.cpg/sg91_7_cif.got.tgz:12512.got - 2010.04.08 20:27:58.
