data_PCOD8304773
_publ_section_title
;
Structure prediction by ZEFSAII (Michael W. Deem and Ramdas Pophale) SiO2 
 PCOD8304773
Probable space group: P 41 2 2
;
_chemical_formula_sum "Si O2"
_cell_formula_units_Z 64
_cell_length_a 14.653683
_cell_length_b 14.653683
_cell_length_c 18.955686
_cell_angle_alpha 90.000000
_cell_angle_beta 90.000000
_cell_angle_gamma 90.000000
_cell_volume 4070.362520
_symmetry_space_group_name_H-M "P 41 2 2"
_symmetry_group_IT_number 91
_symmetry_cell_setting 'tetragonal'
loop_
_space_group_symop_operation_xyz
x,y,z
-y,x,1/4+z
-x,-y,1/2+z
y,-x,3/4+z
x,-y,1/2-z
-x,y,-z
y,x,3/4-z
-y,-x,1/4-z
loop_
_atom_site_type_symbol
_atom_site_label
_atom_site_fract_x
_atom_site_fract_y
_atom_site_fract_z
Si Si1 0.542052 0.129114 0.572583
Si Si2 0.917644 0.788295 0.335991
Si Si3 0.386991 0.120387 0.675697
Si Si4 0.453281 0.087609 0.070301
Si Si5 0.131783 0.785993 0.338851
Si Si6 0.747058 0.134384 0.572478
Si Si7 0.080229 0.753034 0.823593
Si Si8 0.388838 0.903577 0.668097
O O1 0.500000 0.169254 0.500000
O O2 0.479341 0.157303 0.639055
O O3 0.643351 0.168035 0.585104
O O4 0.547353 0.020943 0.564844
O O5 0.873616 0.873616 0.375000
O O6 0.895525 0.792332 0.253282
O O7 0.875684 0.694876 0.367620
O O8 0.024547 0.798427 0.349439
O O9 0.302521 0.163227 0.633058
O O10 0.381619 0.149746 0.757580
O O11 0.385035 0.011826 0.674651
O O12 0.349421 0.120632 0.079536
O O13 0.513747 0.124291 0.135207
O O14 0.500000 0.127889 0.000000
O O15 0.157536 0.774391 0.257407
O O16 0.184094 0.874167 0.367400
O O17 0.812852 0.187149 0.625000
O O18 0.756039 0.027293 0.587942
#
# Coordination Sequence:
#
# PCOD8304773 Si02
#       8
#     8   8   8   8   8   8   8   8
#     4   9  15  29  51  67  85 121 155 190 246 290
#     4  10  19  31  46  64  91 129 169 205 234 268
#     4   9  16  27  46  69  89 113 152 202 245 275
#     4   9  15  28  47  66  89 118 154 190 241 300
#     4  10  20  33  46  65  94 128 168 204 232 273
#     4  10  21  34  48  68  97 129 161 200 239 288
#     4  10  20  32  48  66  93 134 164 192 243 287
#     4   9  16  26  44  69  90 111 150 203 244 282
#
# _framework density 15.723416
#
# number of rings (size 3 to 8) (size 9 to 14) (size 15 to 20)
#    0.000    2.500    2.500    0.750    0.000    3.500 
#    0.000    5.000    0.000    0.000    0.000    0.000 
#    0.000    2.000    0.000    0.250    0.000    0.000 
#
# Total GULP energy -793419.396467 kJ/mol
# GULP energy per Si atom -12397.178070 kJ/mol
# Density = 1.568763 g / cm^3
# Si number density = 15.723416 Si / 1000 Ang^3
#
#
#
# Elastic Constant Matrix: (Units=GPa)
#
#
# Indices 1 2 3 4 5 6 
#
# 1 58.2077 35.4595 45.6296 0.0000 0.0000 0.0000
# 2 35.4595 58.2098 45.6294 0.0000 0.0000 0.0000
# 3 45.6296 45.6294 114.6625 0.0000 0.0000 0.0000
# 4 0.0000 0.0000 0.0000 26.3291 0.0000 0.0000
# 5 0.0000 0.0000 0.0000 0.0000 26.3290 0.0000
# 6 0.0000 0.0000 0.0000 0.0000 0.0000 0.7203
#
#
#
# Elastic Compliance Matrix: (Units=1/GPa)
#
#
# Indices 1 2 3 4 5 6 
#
# 1 0.030698 -0.013261 -0.006939 0.000000 0.000000 0.000000
# 2 -0.013261 0.030696 -0.006938 0.000000 0.000000 0.000000
# 3 -0.006939 -0.006938 0.014244 0.000000 0.000000 0.000000
# 4 0.000000 0.000000 0.000000 0.037981 0.000000 0.000000
# 5 0.000000 0.000000 0.000000 0.000000 0.037981 0.000000
# 6 0.000000 0.000000 0.000000 0.000000 0.000000 1.388298
#
#
# Mechanical properties :
#
#
# Convention : Reuss Voigt Hill
#
# Bulk Modulus (GPa) = 46.81346 53.83523 50.32434
# Shear Modulus (GPa) = 3.12248 17.63312 10.37780
#
# Velocity S-wave (km/s) = 1.41074 3.35245 2.57188
# Velocity P-wave (km/s) = 5.70011 7.02128 6.39491
#
# Compressibility (1/GPa) = 0.02136138
#
# Stress axis : x y z
#
# Youngs Moduli (GPa) = 32.57578 32.57757 70.20652
#
# Poissons Ratio (x) = 0.43200 0.48717
# Poissons Ratio (y) = 0.43198 0.48711
# Poissons Ratio (z) = 0.22604 0.22603
#
# Static dielectric constant tensor:
#      x y z
#    x 2.806810 0.000000 0.000000 
#    y 0.000000 2.806810 0.000000 
#    z 0.000000 0.000000 3.182130 
# 
# 
# High freq. dielectric constant tensor:
#      x y z
#    x 1.572710 0.000000 0.000000 
#    y 0.000000 1.572710 0.000000 
#    z 0.000000 0.000000 1.619050 
# 
# From -- ./inp_files/5722.got.cif
#   From: 2010.03.12/outbox.cif.g09.slc.cpg/sg91_3_cif.got.tgz:5722.got - 2010.04.08 20:27:58.
