data_PCOD8304787
_publ_section_title
;
Structure prediction by ZEFSAII (Michael W. Deem and Ramdas Pophale) SiO2 
 PCOD8304787
Probable space group: P 41 2 2
;
_chemical_formula_sum "Si O2"
_cell_formula_units_Z 44
_cell_length_a 19.194452
_cell_length_b 19.194452
_cell_length_c 7.890773
_cell_angle_alpha 90.000000
_cell_angle_beta 90.000000
_cell_angle_gamma 90.000000
_cell_volume 2907.173726
_symmetry_space_group_name_H-M "P 41 2 2"
_symmetry_group_IT_number 91
_symmetry_cell_setting 'tetragonal'
loop_
_space_group_symop_operation_xyz
x,y,z
-y,x,1/4+z
-x,-y,1/2+z
y,-x,3/4+z
x,-y,1/2-z
-x,y,-z
y,x,3/4-z
-y,-x,1/4-z
loop_
_atom_site_type_symbol
_atom_site_label
_atom_site_fract_x
_atom_site_fract_y
_atom_site_fract_z
Si Si1 0.577588 0.081056 0.556110
Si Si2 0.368657 0.072300 0.101893
Si Si3 0.216002 0.075276 0.237894
Si Si4 0.813649 0.887189 0.106894
Si Si5 0.091244 0.000000 0.750000
Si Si6 0.084052 0.327156 0.002264
O O1 0.500000 0.099086 0.500000
O O2 0.594118 0.114666 0.743264
O O3 0.628446 0.111296 0.411889
O O4 0.588792 0.998668 0.574188
O O5 0.289678 0.056949 0.155246
O O6 0.365472 0.111311 0.920030
O O7 0.222357 0.109121 0.423073
O O8 0.176703 0.132195 0.121161
O O9 0.176346 0.000000 0.250000
O O10 0.859031 0.955707 0.129933
O O11 0.750210 0.882564 0.240749
O O12 0.045145 0.045145 0.875000
O O13 0.000000 0.321481 0.000000
#
# Coordination Sequence:
#
# PCOD8304787 Si02
#       6
#     8   8   8   8   4   8
#     4  10  20  31  48  70  92 112 135 172 232 294
#     4  10  20  31  49  66  92 110 138 178 226 282
#     4  11  20  36  50  63  85 118 150 196 247 291
#     4  11  23  34  51  61  82 117 154 193 245 290
#     4  12  28  36  42  60  80 106 150 204 250 292
#     4  10  19  33  47  67  89 111 145 182 226 284
#
# _framework density 15.134974
#
# number of rings (size 3 to 8) (size 9 to 14) (size 15 to 20)
#    0.000    1.455    4.545    2.182   14.000    0.000 
#    0.000    0.000    0.000    0.000    0.000    0.000 
#    0.000    0.000    0.000    0.000    0.000    0.000 
#
# Total GULP energy -545150.529727 kJ/mol
# GULP energy per Si atom -12389.784767 kJ/mol
# Density = 1.510053 g / cm^3
# Si number density = 15.134974 Si / 1000 Ang^3
#
#
#
# Elastic Constant Matrix: (Units=GPa)
#
#
# Indices 1 2 3 4 5 6 
#
# 1 61.7135 17.6245 26.0882 0.0000 0.0000 0.0000
# 2 17.6245 61.7135 26.0882 0.0000 0.0000 0.0000
# 3 26.0882 26.0882 117.1667 0.0000 0.0000 0.0000
# 4 0.0000 0.0000 0.0000 17.4398 0.0000 0.0000
# 5 0.0000 0.0000 0.0000 0.0000 17.4398 0.0000
# 6 0.0000 0.0000 0.0000 0.0000 0.0000 3.6498
#
#
#
# Elastic Compliance Matrix: (Units=1/GPa)
#
#
# Indices 1 2 3 4 5 6 
#
# 1 0.018724 -0.003957 -0.003288 0.000000 0.000000 0.000000
# 2 -0.003957 0.018724 -0.003288 0.000000 0.000000 0.000000
# 3 -0.003288 -0.003288 0.009999 0.000000 0.000000 0.000000
# 4 0.000000 0.000000 0.000000 0.057340 0.000000 0.000000
# 5 0.000000 0.000000 0.000000 0.000000 0.057340 0.000000
# 6 0.000000 0.000000 0.000000 0.000000 0.000000 0.273986
#
#
# Mechanical properties :
#
#
# Convention : Reuss Voigt Hill
#
# Bulk Modulus (GPa) = 37.90672 42.24392 40.07532
# Shear Modulus (GPa) = 10.73022 19.09206 14.91114
#
# Velocity S-wave (km/s) = 2.66554 3.55555 3.14221
# Velocity P-wave (km/s) = 5.87993 6.69537 6.30085
#
# Compressibility (1/GPa) = 0.02638055
#
# Stress axis : x y z
#
# Youngs Moduli (GPa) = 53.40739 53.40739 100.00987
#
# Poissons Ratio (x) = 0.21136 0.32882
# Poissons Ratio (y) = 0.21136 0.32882
# Poissons Ratio (z) = 0.17560 0.17560
#
# Static dielectric constant tensor:
#      x y z
#    x 2.647740 0.000000 0.000000 
#    y 0.000000 2.647740 0.000000 
#    z 0.000000 0.000000 3.564590 
# 
# 
# High freq. dielectric constant tensor:
#      x y z
#    x 1.530830 0.000000 0.000000 
#    y 0.000000 1.530830 0.000000 
#    z 0.000000 0.000000 1.614100 
# 
# From -- ./inp_files/19563.got.cif
#   From: 2010.03.12/outbox.cif.g09.slc.cpg/sg91_10_cif.got.tgz:19563.got - 2010.04.08 20:27:58.
