data_PCOD8304510
_publ_section_title
;
Structure prediction by ZEFSAII (Michael W. Deem and Ramdas Pophale) SiO2 
 PCOD8304510
Probable space group: P 4 2 2
;
_chemical_formula_sum "Si O2"
_cell_formula_units_Z 48
_cell_length_a 8.606783
_cell_length_b 8.606783
_cell_length_c 29.642275
_cell_angle_alpha 90.000000
_cell_angle_beta 90.000000
_cell_angle_gamma 90.000000
_cell_volume 2195.802316
_symmetry_space_group_name_H-M "P 4 2 2"
_symmetry_group_IT_number 89
_symmetry_cell_setting 'tetragonal'
loop_
_space_group_symop_operation_xyz
x,y,z
-y,x,z
-x,-y,z
y,-x,z
x,-y,-z
-x,y,-z
y,x,-z
-y,-x,-z
loop_
_atom_site_type_symbol
_atom_site_label
_atom_site_fract_x
_atom_site_fract_y
_atom_site_fract_z
Si Si1 0.256301 0.576381 0.108451
Si Si2 0.033051 0.247696 0.947935
Si Si3 0.192850 0.165112 0.448681
Si Si4 0.736231 0.410403 0.211528
Si Si5 0.897017 0.233257 0.286262
Si Si6 0.284509 0.366937 0.633489
O O1 0.309062 0.400741 0.097766
O O2 0.100320 0.602114 0.078198
O O3 0.206244 0.603305 0.160096
O O4 0.872121 0.170598 0.933680
O O5 0.000000 0.286831 0.000000
O O6 0.219448 0.219448 0.500000
O O7 0.321593 0.248163 0.418081
O O8 0.016793 0.214235 0.438260
O O9 0.696202 0.587691 0.221410
O O10 0.867595 0.352179 0.245350
O O11 0.851369 0.305033 0.334301
O O12 0.077825 0.202440 0.282381
O O13 0.450561 0.290034 0.643263
#
# Coordination Sequence:
#
# PCOD8304510 Si02
#       6
#     8   8   8   8   8   8
#     4   9  19  37  61  89 118 148 187 235 283 334
#     4   9  19  37  55  77 111 148 185 226 272 322
#     4   9  19  37  60  85 113 147 191 243 296 351
#     4   9  19  37  60  86 117 150 185 229 281 338
#     4  11  24  39  56  83 117 151 191 237 284 340
#     4  11  24  39  56  81 114 152 194 242 294 347
#
# _framework density 21.859891999999999
#
# number of rings (size 3 to 8) (size 9 to 14) (size 15 to 20)
#    0.000    2.333    0.000    4.000    0.000   10.000 
#    0.000   15.833    0.000    4.000    0.000    0.000 
#    0.000    0.000    0.000    0.000    0.000    0.000 
#
# Total GULP energy -594809.849430 kJ/mol
# GULP energy per Si atom -12391.871863 kJ/mol
# Density = 2.181014 g / cm^3
# Si number density = 21.859892 Si / 1000 Ang^3
#
#
#
# Elastic Constant Matrix: (Units=GPa)
#
#
# Indices 1 2 3 4 5 6 
#
# 1 17.8605 19.5872 29.5429 0.0000 0.0000 0.0000
# 2 19.5872 17.8605 29.5429 0.0000 0.0000 0.0000
# 3 29.5429 29.5429 101.3994 0.0000 0.0000 0.0000
# 4 0.0000 0.0000 0.0000 27.9392 0.0000 0.0000
# 5 0.0000 0.0000 0.0000 0.0000 27.9392 0.0000
# 6 0.0000 0.0000 0.0000 0.0000 0.0000 44.2539
#
#
#
# Elastic Compliance Matrix: (Units=1/GPa)
#
#
# Indices 1 2 3 4 5 6 
#
# 1 -0.264864 0.314289 -0.014400 0.000000 0.000000 0.000000
# 2 0.314289 -0.264864 -0.014400 0.000000 0.000000 0.000000
# 3 -0.014400 -0.014400 0.018253 0.000000 0.000000 0.000000
# 4 0.000000 0.000000 0.000000 0.035792 0.000000 0.000000
# 5 0.000000 0.000000 0.000000 0.000000 0.035792 0.000000
# 6 0.000000 0.000000 0.000000 0.000000 0.000000 0.022597
#
#
# Mechanical properties :
#
#
# Convention : Reuss Voigt Hill
#
# Bulk Modulus (GPa) = 16.80615 32.71851 24.76233
# Shear Modulus (GPa) = -5.16295 23.92295 9.38000
#
# Velocity S-wave (km/s) = -1.53849 3.31173 2.07371
# Velocity P-wave (km/s) = 2.13281 5.44272 4.13353
#
# Compressibility (1/GPa) = 0.05950203
#
# Stress axis : x y z
#
# Youngs Moduli (GPa) = -3.77552 -3.77552 54.78587
#
# Poissons Ratio (x) = 1.18660 0.78891
# Poissons Ratio (y) = 1.18660 0.78891
# Poissons Ratio (z) = -0.05437 -0.05437
#
# Static dielectric constant tensor:
#      x y z
#    x 3.850230 0.000000 0.000000 
#    y 0.000000 3.850230 0.000000 
#    z 0.000000 0.000000 3.779770 
# 
# 
# High freq. dielectric constant tensor:
#      x y z
#    x 1.860600 0.000000 0.000000 
#    y 0.000000 1.860600 0.000000 
#    z 0.000000 0.000000 1.855740 
# 
# From -- ./inp_files/2964.got.cif
#   From: 2010.03.12/outbox.cif.g09.slc.cpg/sg89_2_cif.got.tgz:2964.got - 2010.04.08 20:24:03.
