data_PCOD8304089
_publ_section_title
;
Structure prediction by ZEFSAII (Michael W. Deem and Ramdas Pophale) SiO2 
 PCOD8304089
Probable space group: I 4/M
;
_chemical_formula_sum "Si O2"
_cell_formula_units_Z 64
_cell_length_a 11.812333
_cell_length_b 11.812333
_cell_length_c 22.400341
_cell_angle_alpha 90.000000
_cell_angle_beta 90.000000
_cell_angle_gamma 90.000000
_cell_volume 3125.546704
_symmetry_space_group_name_H-M "I 4/M"
_symmetry_group_IT_number 87
_symmetry_cell_setting 'tetragonal'
loop_
_space_group_symop_operation_xyz
x,y,z
-y,x,z
-x,-y,z
y,-x,z
-x,-y,-z
y,-x,-z
x,y,-z
-y,x,-z
1/2+x,1/2+y,1/2+z
1/2-y,1/2+x,1/2+z
1/2-x,1/2-y,1/2+z
1/2+y,1/2-x,1/2+z
1/2-x,1/2-y,1/2-z
1/2+y,1/2-x,1/2-z
1/2+x,1/2+y,1/2-z
1/2-y,1/2+x,1/2-z
loop_
_atom_site_type_symbol
_atom_site_label
_atom_site_fract_x
_atom_site_fract_y
_atom_site_fract_z
Si Si1 0.807692 0.379273 0.567915
Si Si2 0.367568 0.001658 0.339059
Si Si3 0.763148 0.607201 0.379274
Si Si4 0.030202 0.818976 0.754790
O O1 0.827914 0.341485 0.500000
O O2 0.916005 0.341339 0.605807
O O3 0.695109 0.323151 0.593435
O O4 0.793493 0.514791 0.570472
O O5 0.295605 0.046951 0.282931
O O6 0.500000 0.000000 0.321267
O O7 0.327771 0.876497 0.358146
O O8 0.709894 0.537167 0.324406
O O9 0.907900 0.871103 0.739206
#
# Coordination Sequence:
#
# PCOD8304089 Si02
#       4
#    16  16  16  16
#     4  11  24  42  63  90 125 166 209 255 304 363
#     4  10  25  39  62  93 125 165 204 252 309 366
#     4  11  23  40  63  93 122 164 207 254 306 367
#     4  11  23  41  64  91 129 160 203 255 308 365
#
# _framework density 20.476419
#
# number of rings (size 3 to 8) (size 9 to 14) (size 15 to 20)
#    0.000    1.250    2.500    2.250    7.000    8.000 
#    0.000    1.250    0.000    0.000    0.000    5.250 
#    0.000    0.000    0.000    0.000    0.000    0.000 
#
# Total GULP energy -396939.253754 kJ/mol
# GULP energy per Si atom -12404.351680 kJ/mol
# Density = 2.042981 g / cm^3
# Si number density = 20.476419 Si / 1000 Ang^3
#
#
#
# Elastic Constant Matrix: (Units=GPa)
#
#
# Indices 1 2 3 4 5 6 
#
# 1 75.8765 15.8952 37.8814 0.0000 0.0000 -1.8077
# 2 15.8952 75.8765 37.8814 0.0000 0.0000 1.8077
# 3 37.8814 37.8814 128.8099 0.0000 0.0000 0.0000
# 4 0.0000 0.0000 0.0000 24.5856 0.0000 0.0000
# 5 0.0000 0.0000 0.0000 0.0000 24.5856 0.0000
# 6 -1.8077 1.8077 0.0000 0.0000 0.0000 24.7236
#
#
#
# Elastic Compliance Matrix: (Units=1/GPa)
#
#
# Indices 1 2 3 4 5 6 
#
# 1 0.015568 -0.001178 -0.004232 0.000000 0.000000 0.001224
# 2 -0.001178 0.015568 -0.004232 0.000000 0.000000 -0.001224
# 3 -0.004232 -0.004232 0.010253 0.000000 0.000000 0.000000
# 4 0.000000 0.000000 0.000000 0.040674 0.000000 0.000000
# 5 0.000000 0.000000 0.000000 0.000000 0.040674 0.000000
# 6 0.001224 -0.001224 0.000000 0.000000 0.000000 0.040626
#
#
# Mechanical properties :
#
#
# Convention : Reuss Voigt Hill
#
# Bulk Modulus (GPa) = 45.23821 51.54211 48.39016
# Shear Modulus (GPa) = 26.31371 27.37263 26.84317
#
# Velocity S-wave (km/s) = 3.58868 3.66018 3.62461
# Velocity P-wave (km/s) = 6.26995 6.56419 6.41876
#
# Compressibility (1/GPa) = 0.02210520
#
# Stress axis : x y z
#
# Youngs Moduli (GPa) = 64.23417 64.23417 97.53655
#
# Poissons Ratio (x) = 0.07564 0.41278
# Poissons Ratio (y) = 0.07564 0.41278
# Poissons Ratio (z) = 0.27184 0.27184
#
# Static dielectric constant tensor:
#      x y z
#    x 3.772480 0.000000 0.000000 
#    y 0.000000 3.772480 0.000000 
#    z 0.000000 0.000000 3.552690 
# 
# 
# High freq. dielectric constant tensor:
#      x y z
#    x 1.804740 0.000000 0.000000 
#    y 0.000000 1.804740 0.000000 
#    z 0.000000 0.000000 1.793920 
# 
# From -- ./inp_files/4965.got.cif
#   From: 2010.03.12/outbox.cif.g09.slc.cpg/sg87_3_cif.got.tgz:4965.got - 2010.04.08 20:16:13.
