data_PCOD8304993
_publ_section_title
;
Structure prediction by ZEFSAII (Michael W. Deem and Ramdas Pophale) SiO2 
 PCOD8304993
Probable space group: P 41 2 2
;
_chemical_formula_sum "Si O2"
_cell_formula_units_Z 48
_cell_length_a 11.915528
_cell_length_b 11.915528
_cell_length_c 17.366196
_cell_angle_alpha 90.000000
_cell_angle_beta 90.000000
_cell_angle_gamma 90.000000
_cell_volume 2465.649165
_symmetry_space_group_name_H-M "P 41 2 2"
_symmetry_group_IT_number 91
_symmetry_cell_setting 'tetragonal'
loop_
_space_group_symop_operation_xyz
x,y,z
-y,x,1/4+z
-x,-y,1/2+z
y,-x,3/4+z
x,-y,1/2-z
-x,y,-z
y,x,3/4-z
-y,-x,1/4-z
loop_
_atom_site_type_symbol
_atom_site_label
_atom_site_fract_x
_atom_site_fract_y
_atom_site_fract_z
Si Si1 0.853722 0.892689 0.130895
Si Si2 0.500000 0.914305 0.500000
Si Si3 0.361407 0.786727 0.374991
Si Si4 0.011705 0.000000 0.250000
Si Si5 0.992138 0.377983 0.110477
Si Si6 0.588098 0.448719 0.931687
Si Si7 0.522440 0.166932 0.249153
O O1 0.799557 0.770808 0.132635
O O2 0.752240 0.979354 0.139998
O O3 0.936313 0.913531 0.201806
O O4 0.922220 0.909973 0.052488
O O5 0.417469 0.840951 0.449110
O O6 0.579424 0.991342 0.447689
O O7 0.400565 0.657694 0.375393
O O8 0.401726 0.841875 0.294141
O O9 0.870688 0.387392 0.067286
O O10 0.080298 0.462007 0.068864
O O11 0.550929 0.550929 0.875000
O O12 0.500000 0.428328 0.000000
O O13 0.707839 0.465666 0.971008
#
# Coordination Sequence:
#
# PCOD8304993 Si02
#       7
#     8   4   8   4   8   8   8
#     4  11  22  41  63  91 123 168 207 277 318 390
#     4  10  22  38  60  94 120 164 212 272 310 398
#     4  11  22  38  64  90 127 163 212 261 333 380
#     4  10  24  40  62  92 124 160 220 262 334 376
#     4  10  21  41  66  91 126 163 222 264 328 380
#     4  12  23  40  63  94 131 166 212 262 329 400
#     4  10  22  41  61  93 125 169 204 270 317 394
#
# _framework density 19.467490000000002
#
# number of rings (size 3 to 8) (size 9 to 14) (size 15 to 20)
#    0.000    1.333    4.167    2.000    0.000    2.667 
#    4.500    0.000    0.000    0.000    0.000    0.000 
#    0.000    0.000    0.000    0.000    0.000    0.000 
#
# Total GULP energy -594954.900762 kJ/mol
# GULP energy per Si atom -12394.893766 kJ/mol
# Density = 1.942318 g / cm^3
# Si number density = 19.467490 Si / 1000 Ang^3
#
#
#
# Elastic Constant Matrix: (Units=GPa)
#
#
# Indices 1 2 3 4 5 6 
#
# 1 97.5476 46.9604 47.6473 0.0000 0.0000 0.0000
# 2 46.9604 97.5476 47.6473 0.0000 0.0000 0.0000
# 3 47.6473 47.6473 117.9283 0.0000 0.0000 0.0000
# 4 0.0000 0.0000 0.0000 26.2501 0.0000 0.0000
# 5 0.0000 0.0000 0.0000 0.0000 26.2501 0.0000
# 6 0.0000 0.0000 0.0000 0.0000 0.0000 39.8344
#
#
#
# Elastic Compliance Matrix: (Units=1/GPa)
#
#
# Indices 1 2 3 4 5 6 
#
# 1 0.014601 -0.005167 -0.003811 0.000000 0.000000 0.000000
# 2 -0.005167 0.014601 -0.003811 0.000000 0.000000 0.000000
# 3 -0.003811 -0.003811 0.011560 0.000000 0.000000 0.000000
# 4 0.000000 0.000000 0.000000 0.038095 0.000000 0.000000
# 5 0.000000 0.000000 0.000000 0.000000 0.038095 0.000000
# 6 0.000000 0.000000 0.000000 0.000000 0.000000 0.025104
#
#
# Mechanical properties :
#
#
# Convention : Reuss Voigt Hill
#
# Bulk Modulus (GPa) = 65.87287 66.39260 66.13274
# Shear Modulus (GPa) = 28.95267 29.85148 29.40207
#
# Velocity S-wave (km/s) = 3.86065 3.92012 3.89050
# Velocity P-wave (km/s) = 7.33373 7.39379 7.36382
#
# Compressibility (1/GPa) = 0.01518076
#
# Stress axis : x y z
#
# Youngs Moduli (GPa) = 68.49004 68.49004 86.50762
#
# Poissons Ratio (x) = 0.35390 0.32972
# Poissons Ratio (y) = 0.35390 0.32972
# Poissons Ratio (z) = 0.26105 0.26105
#
# Static dielectric constant tensor:
#      x y z
#    x 3.577960 0.000000 0.000000 
#    y 0.000000 3.577960 0.000000 
#    z 0.000000 0.000000 4.043480 
# 
# 
# High freq. dielectric constant tensor:
#      x y z
#    x 1.754970 0.000000 0.000000 
#    y 0.000000 1.754970 0.000000 
#    z 0.000000 0.000000 1.771610 
# 
# From -- ./inp_files/5647.got.cif
#   From: 2010.03.12/outbox.cif.g09.slc.cpg/sg91_3_cif.got.tgz:5647.got - 2010.04.08 20:27:58.
