data_PCOD8304803
_publ_section_title
;
Structure prediction by ZEFSAII (Michael W. Deem and Ramdas Pophale) SiO2 
 PCOD8304803
Probable space group: P 41 2 2
;
_chemical_formula_sum "Si O2"
_cell_formula_units_Z 40
_cell_length_a 9.646543
_cell_length_b 9.646543
_cell_length_c 21.688410
_cell_angle_alpha 90.000000
_cell_angle_beta 90.000000
_cell_angle_gamma 90.000000
_cell_volume 2018.232167
_symmetry_space_group_name_H-M "P 41 2 2"
_symmetry_group_IT_number 91
_symmetry_cell_setting 'tetragonal'
loop_
_space_group_symop_operation_xyz
x,y,z
-y,x,1/4+z
-x,-y,1/2+z
y,-x,3/4+z
x,-y,1/2-z
-x,y,-z
y,x,3/4-z
-y,-x,1/4-z
loop_
_atom_site_type_symbol
_atom_site_label
_atom_site_fract_x
_atom_site_fract_y
_atom_site_fract_z
Si Si1 0.714241 0.797218 0.662598
Si Si2 0.835444 0.945849 0.553033
Si Si3 0.292713 0.000000 0.750000
Si Si4 0.815500 0.589378 0.395358
Si Si5 0.000000 0.827230 0.000000
Si Si6 0.043913 0.621520 0.295970
O O1 0.559012 0.738268 0.653410
O O2 0.728575 0.876038 0.727846
O O3 0.822467 0.669791 0.664052
O O4 0.742291 0.920000 0.612811
O O5 0.945612 0.073141 0.556561
O O6 0.747209 0.976509 0.491730
O O7 0.916669 0.801594 0.547754
O O8 0.381052 0.109657 0.789658
O O9 0.705085 0.705085 0.375000
O O10 0.928323 0.567297 0.342400
O O11 0.091456 0.500000 0.250000
#
# Coordination Sequence:
#
# PCOD8304803 Si02
#       6
#     8   8   4   8   4   8
#     4  11  22  39  60  91 128 161 203 262 315 381
#     4  10  19  34  63  93 120 153 212 269 315 361
#     4  11  21  36  62 100 122 160 212 272 310 372
#     4  12  24  39  66  95 129 169 215 260 319 382
#     4   9  21  34  60  92 122 154 206 264 324 362
#     4  11  22  40  63  90 122 170 211 258 318 384
#
# _framework density 19.819324999999999
#
# number of rings (size 3 to 8) (size 9 to 14) (size 15 to 20)
#    0.000    1.200    6.000    1.200    0.000    0.000 
#    0.000    3.000    4.400    0.000    0.000    0.000 
#    0.000    0.000    0.000    0.000    0.000    0.000 
#
# Total GULP energy -495808.067460 kJ/mol
# GULP energy per Si atom -12395.201686 kJ/mol
# Density = 1.977421 g / cm^3
# Si number density = 19.819325 Si / 1000 Ang^3
#
#
#
# Elastic Constant Matrix: (Units=GPa)
#
#
# Indices 1 2 3 4 5 6 
#
# 1 111.5958 43.6845 33.0316 0.0000 0.0000 0.0000
# 2 43.6845 111.5958 33.0316 0.0000 0.0000 0.0000
# 3 33.0316 33.0316 62.8203 0.0000 0.0000 0.0000
# 4 0.0000 0.0000 0.0000 24.7199 0.0000 0.0000
# 5 0.0000 0.0000 0.0000 0.0000 24.7199 0.0000
# 6 0.0000 0.0000 0.0000 0.0000 0.0000 17.4847
#
#
#
# Elastic Compliance Matrix: (Units=1/GPa)
#
#
# Indices 1 2 3 4 5 6 
#
# 1 0.011510 -0.003215 -0.004362 0.000000 0.000000 0.000000
# 2 -0.003215 0.011510 -0.004362 0.000000 0.000000 0.000000
# 3 -0.004362 -0.004362 0.020506 0.000000 0.000000 0.000000
# 4 0.000000 0.000000 0.000000 0.040453 0.000000 0.000000
# 5 0.000000 0.000000 0.000000 0.000000 0.040453 0.000000
# 6 0.000000 0.000000 0.000000 0.000000 0.000000 0.057193
#
#
# Mechanical properties :
#
#
# Convention : Reuss Voigt Hill
#
# Bulk Modulus (GPa) = 50.89291 56.16750 53.53020
# Shear Modulus (GPa) = 23.57902 25.13584 24.35743
#
# Velocity S-wave (km/s) = 3.45294 3.56511 3.50948
# Velocity P-wave (km/s) = 6.45223 6.73409 6.59467
#
# Compressibility (1/GPa) = 0.01964910
#
# Stress axis : x y z
#
# Youngs Moduli (GPa) = 86.87781 86.87781 48.76714
#
# Poissons Ratio (x) = 0.27928 0.21272
# Poissons Ratio (y) = 0.27928 0.21272
# Poissons Ratio (z) = 0.37896 0.37896
#
# Static dielectric constant tensor:
#      x y z
#    x 3.488910 0.000000 0.000000 
#    y 0.000000 3.488910 0.000000 
#    z 0.000000 0.000000 3.500360 
# 
# 
# High freq. dielectric constant tensor:
#      x y z
#    x 1.760970 0.000000 0.000000 
#    y 0.000000 1.760970 0.000000 
#    z 0.000000 0.000000 1.775270 
# 
# From -- ./inp_files/12806.got.cif
#   From: 2010.03.12/outbox.cif.g09.slc.cpg/sg91_7_cif.got.tgz:12806.got - 2010.04.08 20:27:58.
