data_PCOD8304830
_publ_section_title
;
Structure prediction by ZEFSAII (Michael W. Deem and Ramdas Pophale) SiO2 
 PCOD8304830
Probable space group: P 41 2 2
;
_chemical_formula_sum "Si O2"
_cell_formula_units_Z 56
_cell_length_a 15.189443
_cell_length_b 15.189443
_cell_length_c 11.825746
_cell_angle_alpha 90.000000
_cell_angle_beta 90.000000
_cell_angle_gamma 90.000000
_cell_volume 2728.426404
_symmetry_space_group_name_H-M "P 41 2 2"
_symmetry_group_IT_number 91
_symmetry_cell_setting 'tetragonal'
loop_
_space_group_symop_operation_xyz
x,y,z
-y,x,1/4+z
-x,-y,1/2+z
y,-x,3/4+z
x,-y,1/2-z
-x,y,-z
y,x,3/4-z
-y,-x,1/4-z
loop_
_atom_site_type_symbol
_atom_site_label
_atom_site_fract_x
_atom_site_fract_y
_atom_site_fract_z
Si Si1 0.781980 0.923588 0.339455
Si Si2 0.089900 0.628261 0.050199
Si Si3 0.499356 0.235025 0.365991
Si Si4 0.055444 0.771608 0.223534
Si Si5 0.954362 0.954362 0.875000
Si Si6 0.667656 0.332345 0.625000
Si Si7 0.319566 0.240648 0.769728
Si Si8 0.780866 0.754918 0.057566
O O1 0.868080 0.868080 0.375000
O O2 0.700388 0.860979 0.302573
O O3 0.807768 0.000000 0.250000
O O4 0.747969 0.973608 0.448981
O O5 0.147892 0.541832 0.063122
O O6 0.077348 0.678937 0.166870
O O7 0.132862 0.698565 0.965675
O O8 0.000000 0.592628 0.000000
O O9 0.500000 0.222048 0.500000
O O10 0.434511 0.318061 0.344130
O O11 0.589042 0.252152 0.297705
O O12 0.028400 0.849908 0.138044
O O13 0.141763 0.802366 0.293626
O O14 0.982669 0.000000 0.750000
O O15 0.729362 0.302508 0.728943
O O16 0.308714 0.308714 0.875000
O O17 0.241500 0.267443 0.685906
#
# Coordination Sequence:
#
# PCOD8304830 Si02
#       8
#     8   8   8   8   4   4   8   8
#     4  11  27  40  60  94 141 194 246 290 359 427
#     4  11  24  39  64 100 127 163 234 291 335 384
#     4  11  22  45  76  99 129 175 227 277 336 430
#     4  12  22  40  63  88 125 186 246 296 337 402
#     4  12  29  40  58  90 132 182 245 312 358 414
#     4  10  19  40  76 106 116 160 229 282 324 400
#     4  11  25  44  69  99 146 187 215 274 373 440
#     4  11  19  42  67  93 124 179 236 274 332 405
#
# _framework density 20.524650000000001
#
# number of rings (size 3 to 8) (size 9 to 14) (size 15 to 20)
#    0.000    0.857    7.143    0.429    7.000    0.571 
#    0.000    2.857    1.571    0.000    0.000    0.000 
#    0.000    0.000    0.000    0.000    0.000    0.000 
#
# Total GULP energy -693838.726469 kJ/mol
# GULP energy per Si atom -12389.977258 kJ/mol
# Density = 2.047794 g / cm^3
# Si number density = 20.524650 Si / 1000 Ang^3
#
#
#
# Elastic Constant Matrix: (Units=GPa)
#
#
# Indices 1 2 3 4 5 6 
#
# 1 91.9642 58.5365 38.8055 0.0000 0.0000 0.0000
# 2 58.5365 91.9676 38.8081 0.0000 0.0000 0.0000
# 3 38.8055 38.8081 112.3175 0.0000 0.0000 0.0000
# 4 0.0000 0.0000 0.0000 22.7539 0.0000 0.0000
# 5 0.0000 0.0000 0.0000 0.0000 22.7568 0.0000
# 6 0.0000 0.0000 0.0000 0.0000 0.0000 18.6774
#
#
#
# Elastic Compliance Matrix: (Units=1/GPa)
#
#
# Indices 1 2 3 4 5 6 
#
# 1 0.019000 -0.010914 -0.002793 0.000000 0.000000 0.000000
# 2 -0.010914 0.018999 -0.002794 0.000000 0.000000 0.000000
# 3 -0.002793 -0.002794 0.010834 0.000000 0.000000 0.000000
# 4 0.000000 0.000000 0.000000 0.043949 0.000000 0.000000
# 5 0.000000 0.000000 0.000000 0.000000 0.043943 0.000000
# 6 0.000000 0.000000 0.000000 0.000000 0.000000 0.053541
#
#
# Mechanical properties :
#
#
# Convention : Reuss Voigt Hill
#
# Bulk Modulus (GPa) = 63.17179 63.17218 63.17199
# Shear Modulus (GPa) = 21.87765 23.51089 22.69427
#
# Velocity S-wave (km/s) = 3.26839 3.38819 3.32883
# Velocity P-wave (km/s) = 6.71479 6.79352 6.75427
#
# Compressibility (1/GPa) = 0.01582985
#
# Stress axis : x y z
#
# Youngs Moduli (GPa) = 52.63280 52.63389 92.30494
#
# Poissons Ratio (x) = 0.57447 0.25782
# Poissons Ratio (y) = 0.57445 0.25787
# Poissons Ratio (z) = 0.14701 0.14704
#
# Static dielectric constant tensor:
#      x y z
#    x 3.707910 0.000000 0.000000 
#    y 0.000000 3.707890 0.000000 
#    z 0.000000 0.000000 4.215070 
# 
# 
# High freq. dielectric constant tensor:
#      x y z
#    x 1.788920 0.000000 0.000000 
#    y 0.000000 1.788920 0.000000 
#    z 0.000000 0.000000 1.814500 
# 
# From -- ./inp_files/3962.got.cif
#   From: 2010.03.12/outbox.cif.g09.slc.cpg/sg91_2_cif.got.tgz:3962.got - 2010.04.08 20:27:58.
