data_PCOD8304113
_publ_section_title
;
Structure prediction by ZEFSAII (Michael W. Deem and Ramdas Pophale) SiO2 
 PCOD8304113
Probable space group: I 4/M
;
_chemical_formula_sum "Si O2"
_cell_formula_units_Z 88
_cell_length_a 12.617264
_cell_length_b 12.617264
_cell_length_c 26.802150
_cell_angle_alpha 90.000000
_cell_angle_beta 90.000000
_cell_angle_gamma 90.000000
_cell_volume 4266.777673
_symmetry_space_group_name_H-M "I 4/M"
_symmetry_group_IT_number 87
_symmetry_cell_setting 'tetragonal'
loop_
_space_group_symop_operation_xyz
x,y,z
-y,x,z
-x,-y,z
y,-x,z
-x,-y,-z
y,-x,-z
x,y,-z
-y,x,-z
1/2+x,1/2+y,1/2+z
1/2-y,1/2+x,1/2+z
1/2-x,1/2-y,1/2+z
1/2+y,1/2-x,1/2+z
1/2-x,1/2-y,1/2-z
1/2+y,1/2-x,1/2-z
1/2+x,1/2+y,1/2-z
1/2-y,1/2+x,1/2-z
loop_
_atom_site_type_symbol
_atom_site_label
_atom_site_fract_x
_atom_site_fract_y
_atom_site_fract_z
Si Si1 0.944914 0.666477 0.944233
Si Si2 0.662319 0.436761 0.637432
Si Si3 0.842480 0.442279 0.922461
Si Si4 0.165806 0.942484 0.500000
Si Si5 0.873761 0.491238 0.184705
Si Si6 0.794972 0.353384 0.724511
O O1 0.904970 0.754318 0.905221
O O2 0.878831 0.560182 0.935999
O O3 0.069529 0.642818 0.938352
O O4 0.923734 0.709535 0.000000
O O5 0.635932 0.559817 0.631090
O O6 0.706853 0.415923 0.692952
O O7 0.733646 0.416145 0.950640
O O8 0.823572 0.432375 0.863029
O O9 0.065175 0.866582 0.500000
O O10 0.844589 0.429022 0.234095
O O11 0.823343 0.608581 0.187698
O O12 0.000000 0.500000 0.177044
O O13 0.750000 0.250000 0.750000
#
# Coordination Sequence:
#
# PCOD8304113 Si02
#       6
#    16  16  16   8  16  16
#     4  11  21  40  69 101 125 169 221 277 330 390
#     4  11  26  45  63  95 145 180 211 274 344 402
#     4  11  21  40  68  95 129 162 220 282 322 384
#     4  11  26  45  62  88 132 175 212 265 332 382
#     4  12  22  40  67  98 129 162 219 281 320 385
#     4  12  24  39  67  97 132 175 224 265 333 399
#
# _framework density 20.624464
#
# number of rings (size 3 to 8) (size 9 to 14) (size 15 to 20)
#    0.000    0.636    7.273    1.636    2.545    3.636 
#    0.000    0.909    0.000    2.182    0.000    0.000 
#    0.000    0.000    0.000    0.000    0.000    0.000 
#
# Total GULP energy -545738.980881 kJ/mol
# GULP energy per Si atom -12403.158656 kJ/mol
# Density = 2.057752 g / cm^3
# Si number density = 20.624464 Si / 1000 Ang^3
#
#
#
# Elastic Constant Matrix: (Units=GPa)
#
#
# Indices 1 2 3 4 5 6 
#
# 1 68.1298 11.5903 18.2395 0.0000 0.0000 -0.8754
# 2 11.5903 68.1298 18.2395 0.0000 0.0000 0.8754
# 3 18.2395 18.2395 136.3311 0.0000 0.0000 0.0000
# 4 0.0000 0.0000 0.0000 29.0153 0.0000 0.0000
# 5 0.0000 0.0000 0.0000 0.0000 29.0153 0.0000
# 6 -0.8754 0.8754 0.0000 0.0000 0.0000 21.2057
#
#
#
# Elastic Compliance Matrix: (Units=1/GPa)
#
#
# Indices 1 2 3 4 5 6 
#
# 1 0.015536 -0.002174 -0.001788 0.000000 0.000000 0.000731
# 2 -0.002174 0.015536 -0.001788 0.000000 0.000000 -0.000731
# 3 -0.001788 -0.001788 0.007813 0.000000 0.000000 0.000000
# 4 0.000000 0.000000 0.000000 0.034465 0.000000 0.000000
# 5 0.000000 0.000000 0.000000 0.000000 0.034465 0.000000
# 6 0.000731 -0.000731 0.000000 0.000000 0.000000 0.047217
#
#
# Mechanical properties :
#
#
# Convention : Reuss Voigt Hill
#
# Bulk Modulus (GPa) = 36.51428 40.96995 38.74212
# Shear Modulus (GPa) = 28.46435 30.81536 29.63986
#
# Velocity S-wave (km/s) = 3.71903 3.86957 3.79505
# Velocity P-wave (km/s) = 6.01535 6.31448 6.16673
#
# Compressibility (1/GPa) = 0.02738655
#
# Stress axis : x y z
#
# Youngs Moduli (GPa) = 64.36813 64.36813 127.98492
#
# Poissons Ratio (x) = 0.13992 0.22879
# Poissons Ratio (y) = 0.13992 0.22879
# Poissons Ratio (z) = 0.11507 0.11507
#
# Static dielectric constant tensor:
#      x y z
#    x 0.590290 0.000000 0.000000 
#    y 0.000000 0.590290 0.000000 
#    z 0.000000 0.000000 4.089520 
# 
# 
# High freq. dielectric constant tensor:
#      x y z
#    x 1.798020 0.000000 0.000000 
#    y 0.000000 1.798020 0.000000 
#    z 0.000000 0.000000 1.826000 
# 
# From -- ./inp_files/6593.got.cif
#   From: 2010.03.12/outbox.cif.g09.slc.cpg/sg87_4_cif.got.tgz:6593.got - 2010.04.08 20:16:13.
