data_PCOD8304869
_publ_section_title
;
Structure prediction by ZEFSAII (Michael W. Deem and Ramdas Pophale) SiO2 
 PCOD8304869
Probable space group: P 41 2 2
;
_chemical_formula_sum "Si O2"
_cell_formula_units_Z 48
_cell_length_a 9.610688
_cell_length_b 9.610688
_cell_length_c 27.252359
_cell_angle_alpha 90.000000
_cell_angle_beta 90.000000
_cell_angle_gamma 90.000000
_cell_volume 2517.172964
_symmetry_space_group_name_H-M "P 41 2 2"
_symmetry_group_IT_number 91
_symmetry_cell_setting 'tetragonal'
loop_
_space_group_symop_operation_xyz
x,y,z
-y,x,1/4+z
-x,-y,1/2+z
y,-x,3/4+z
x,-y,1/2-z
-x,y,-z
y,x,3/4-z
-y,-x,1/4-z
loop_
_atom_site_type_symbol
_atom_site_label
_atom_site_fract_x
_atom_site_fract_y
_atom_site_fract_z
Si Si1 0.500000 0.128330 0.500000
Si Si2 0.191066 0.000000 0.250000
Si Si3 0.263260 0.647645 0.004472
Si Si4 0.423105 0.019871 0.601909
Si Si5 0.490779 0.307930 0.651677
Si Si6 0.390088 0.212365 0.142006
Si Si7 0.888446 0.088960 0.402820
O O1 0.631643 0.225301 0.508404
O O2 0.476934 0.028443 0.546300
O O3 0.293182 0.115690 0.273196
O O4 0.091817 0.069676 0.209790
O O5 0.306466 0.520534 0.039917
O O6 0.257801 0.593682 0.948660
O O7 0.479905 0.881093 0.627061
O O8 0.475921 0.152817 0.631609
O O9 0.256271 0.007959 0.603320
O O10 0.620946 0.379055 0.625000
O O11 0.349857 0.393393 0.641667
O O12 0.246987 0.127392 0.133363
O O13 0.011571 0.011571 0.375000
#
# Coordination Sequence:
#
# PCOD8304869 Si02
#       7
#     4   4   8   8   8   8   8
#     4  12  20  40  64  88 124 158 208 266 308 358
#     4  10  20  36  58  94 116 152 208 258 300 358
#     4  11  20  38  63  92 123 158 208 265 305 372
#     4  11  23  40  59  91 129 162 205 264 312 373
#     4  11  20  36  66  93 117 168 208 261 316 363
#     4  10  23  40  58  93 128 157 212 255 319 383
#     4  10  22  39  59  86 122 162 203 251 306 368
#
# _framework density 19.069013000000002
#
# number of rings (size 3 to 8) (size 9 to 14) (size 15 to 20)
#    0.000    1.333    6.667    2.000    2.333    2.000 
#    0.000    7.500    0.000    0.000    0.000    0.000 
#    0.000    0.000    0.000    0.000    0.000    0.000 
#
# Total GULP energy -595291.974057 kJ/mol
# GULP energy per Si atom -12401.916126 kJ/mol
# Density = 1.902561 g / cm^3
# Si number density = 19.069013 Si / 1000 Ang^3
#
#
#
# Elastic Constant Matrix: (Units=GPa)
#
#
# Indices 1 2 3 4 5 6 
#
# 1 90.3514 42.6112 43.6640 0.0000 0.0000 0.0000
# 2 42.6112 90.3531 43.6638 0.0000 0.0000 0.0000
# 3 43.6640 43.6638 85.9536 0.0000 0.0000 0.0000
# 4 0.0000 0.0000 0.0000 31.1075 0.0000 0.0000
# 5 0.0000 0.0000 0.0000 0.0000 31.1074 0.0000
# 6 0.0000 0.0000 0.0000 0.0000 0.0000 41.3389
#
#
#
# Elastic Compliance Matrix: (Units=1/GPa)
#
#
# Indices 1 2 3 4 5 6 
#
# 1 0.016117 -0.004830 -0.005734 0.000000 0.000000 0.000000
# 2 -0.004830 0.016116 -0.005733 0.000000 0.000000 0.000000
# 3 -0.005734 -0.005733 0.017459 0.000000 0.000000 0.000000
# 4 0.000000 0.000000 0.000000 0.032147 0.000000 0.000000
# 5 0.000000 0.000000 0.000000 0.000000 0.032147 0.000000
# 6 0.000000 0.000000 0.000000 0.000000 0.000000 0.024190
#
#
# Mechanical properties :
#
#
# Convention : Reuss Voigt Hill
#
# Bulk Modulus (GPa) = 58.48493 58.50403 58.49448
# Shear Modulus (GPa) = 28.33360 29.82537 29.07948
#
# Velocity S-wave (km/s) = 3.85885 3.95913 3.90931
# Velocity P-wave (km/s) = 7.11273 7.18654 7.14973
#
# Compressibility (1/GPa) = 0.01709842
#
# Stress axis : x y z
#
# Youngs Moduli (GPa) = 62.04766 62.04943 57.27593
#
# Poissons Ratio (x) = 0.29969 0.32840
# Poissons Ratio (y) = 0.29968 0.32838
# Poissons Ratio (z) = 0.35576 0.35575
#
# Static dielectric constant tensor:
#      x y z
#    x 3.428870 0.000000 0.000000 
#    y 0.000000 3.428870 0.000000 
#    z 0.000000 0.000000 3.623630 
# 
# 
# High freq. dielectric constant tensor:
#      x y z
#    x 1.738430 0.000000 0.000000 
#    y 0.000000 1.738430 0.000000 
#    z 0.000000 0.000000 1.742520 
# 
# From -- ./inp_files/22304.got.cif
#   From: 2010.03.12/outbox.cif.g09.slc.cpg/sg91_12_cif.got.tgz:22304.got - 2010.04.08 20:27:58.
