data_PCOD8304482
_publ_section_title
;
Structure prediction by ZEFSAII (Michael W. Deem and Ramdas Pophale) SiO2 
 PCOD8304482
Probable space group: P 4 2 2
;
_chemical_formula_sum "Si O2"
_cell_formula_units_Z 40
_cell_length_a 12.942420
_cell_length_b 12.942420
_cell_length_c 11.910605
_cell_angle_alpha 90.000000
_cell_angle_beta 90.000000
_cell_angle_gamma 90.000000
_cell_volume 1995.100606
_symmetry_space_group_name_H-M "P 4 2 2"
_symmetry_group_IT_number 89
_symmetry_cell_setting 'tetragonal'
loop_
_space_group_symop_operation_xyz
x,y,z
-y,x,z
-x,-y,z
y,-x,z
x,-y,-z
-x,y,-z
y,x,-z
-y,-x,-z
loop_
_atom_site_type_symbol
_atom_site_label
_atom_site_fract_x
_atom_site_fract_y
_atom_site_fract_z
Si Si1 0.880422 0.472572 0.846020
Si Si2 0.881978 0.533078 0.613504
Si Si3 0.064064 0.154168 0.824007
Si Si4 0.329025 0.829539 0.970943
Si Si5 0.765257 0.901410 0.420840
O O1 0.835647 0.469611 0.719318
O O2 0.875438 0.361236 0.906637
O O3 0.815971 0.563417 0.905941
O O4 0.000000 0.500000 0.844202
O O5 0.822244 0.500000 0.500000
O O6 0.867358 0.655150 0.628793
O O7 0.000000 0.500000 0.602273
O O8 0.100395 0.250003 0.899923
O O9 0.074799 0.167750 0.689613
O O10 0.944909 0.133598 0.856130
O O11 0.281596 0.718405 0.000000
O O12 0.812967 0.812967 0.500000
O O13 0.753215 0.000000 0.500000
#
# Coordination Sequence:
#
# PCOD8304482 Si02
#       5
#     8   8   8   8   8
#     4  10  23  41  62  88 120 165 214 262 327 371
#     4  10  20  38  62  85 115 158 207 267 317 358
#     4  11  25  38  55  88 133 183 218 253 306 379
#     4  11  24  38  64  86 124 164 215 262 311 375
#     4  12  22  36  61  90 129 171 217 256 319 385
#
# _framework density 20.049113999999999
#
# number of rings (size 3 to 8) (size 9 to 14) (size 15 to 20)
#    0.000    1.200    6.000    1.200    5.600    1.800 
#    0.000    1.000    0.000    4.800    0.000    0.000 
#    0.000    0.400    0.000    0.000    0.000    0.000 
#
# Total GULP energy -495626.721391 kJ/mol
# GULP energy per Si atom -12390.668035 kJ/mol
# Density = 2.000348 g / cm^3
# Si number density = 20.049114 Si / 1000 Ang^3
#
#
#
# Elastic Constant Matrix: (Units=GPa)
#
#
# Indices 1 2 3 4 5 6 
#
# 1 82.8823 28.5768 46.5970 0.0000 0.0000 0.0000
# 2 28.5768 82.8830 46.5974 0.0000 0.0000 0.0000
# 3 46.5970 46.5974 180.4621 0.0000 0.0000 0.0000
# 4 0.0000 0.0000 0.0000 40.5194 0.0000 0.0000
# 5 0.0000 0.0000 0.0000 0.0000 40.5168 0.0000
# 6 0.0000 0.0000 0.0000 0.0000 0.0000 26.3746
#
#
#
# Elastic Compliance Matrix: (Units=1/GPa)
#
#
# Indices 1 2 3 4 5 6 
#
# 1 0.014928 -0.003486 -0.002954 0.000000 0.000000 0.000000
# 2 -0.003486 0.014928 -0.002955 0.000000 0.000000 0.000000
# 3 -0.002954 -0.002955 0.007067 0.000000 0.000000 0.000000
# 4 0.000000 0.000000 0.000000 0.024680 0.000000 0.000000
# 5 0.000000 0.000000 0.000000 0.000000 0.024681 0.000000
# 6 0.000000 0.000000 0.000000 0.000000 0.000000 0.037915
#
#
# Mechanical properties :
#
#
# Convention : Reuss Voigt Hill
#
# Bulk Modulus (GPa) = 55.14647 65.52997 60.33822
# Shear Modulus (GPa) = 33.54940 36.44592 34.99766
#
# Velocity S-wave (km/s) = 4.09511 4.26823 4.18257
# Velocity P-wave (km/s) = 7.06578 7.55288 7.31339
#
# Compressibility (1/GPa) = 0.01813353
#
# Stress axis : x y z
#
# Youngs Moduli (GPa) = 66.98704 66.98745 141.50087
#
# Poissons Ratio (x) = 0.23352 0.41806
# Poissons Ratio (y) = 0.23352 0.41806
# Poissons Ratio (z) = 0.19791 0.19791
#
# Static dielectric constant tensor:
#      x y z
#    x 3.542710 0.000000 0.000000 
#    y 0.000000 3.542700 0.000000 
#    z 0.000000 0.000000 4.838460 
# 
# 
# High freq. dielectric constant tensor:
#      x y z
#    x 1.752880 0.000000 0.000000 
#    y 0.000000 1.752880 0.000000 
#    z 0.000000 0.000000 1.820760 
# 
# From -- ./inp_files/2121.got.cif
#   From: 2010.03.12/outbox.cif.g09.slc.cpg/sg89_2_cif.got.tgz:2121.got - 2010.04.08 20:24:03.
