data_PCOD8304280
_publ_section_title
;
Structure prediction by ZEFSAII (Michael W. Deem and Ramdas Pophale) SiO2 
 PCOD8304280
Probable space group: I 41/A
;
_chemical_formula_sum "Si O2"
_cell_formula_units_Z 64
_cell_length_a 25.270165
_cell_length_b 25.270165
_cell_length_c 4.955571
_cell_angle_alpha 90.000000
_cell_angle_beta 90.000000
_cell_angle_gamma 90.000000
_cell_volume 3164.534670
_symmetry_space_group_name_H-M "I 41/A"
_symmetry_group_IT_number 88
_space_group.IT_coordinate_system_code '2'
_symmetry_cell_setting 'tetragonal'
loop_
_space_group_symop_operation_xyz
x,y,z
3/4-y,1/4+x,1/4+z
-x,1/2-y,z
1/4+y,1/4-x,1/4+z
-x,-y,-z
1/4+y,3/4-x,3/4-z
x,1/2+y,-z
3/4-y,3/4+x,3/4-z
1/2+x,1/2+y,1/2+z
1/4-y,3/4+x,3/4+z
1/2-x,-y,1/2+z
3/4+y,3/4-x,3/4+z
1/2-x,1/2-y,1/2-z
3/4+y,1/4-x,1/4-z
1/2+x,y,1/2-z
1/4-y,1/4+x,1/4-z
loop_
_atom_site_type_symbol
_atom_site_label
_atom_site_fract_x
_atom_site_fract_y
_atom_site_fract_z
Si Si1 0.614036 0.852803 0.173554
Si Si2 0.211386 0.691153 0.476832
Si Si3 0.066980 0.301661 0.163933
Si Si4 0.718901 0.810338 0.968454
O O1 0.598419 0.912342 0.249094
O O2 0.611625 0.818646 0.448540
O O3 0.673533 0.851183 0.057750
O O4 0.574210 0.829489 0.951260
O O5 0.232338 0.689029 0.173572
O O6 0.193938 0.751225 0.551459
O O7 0.257569 0.672022 0.680276
O O8 0.069733 0.239007 0.209261
#
# Coordination Sequence:
#
# PCOD8304280 Si02
#       4
#    16  16  16  16
#     4  12  22  37  60  82 113 156 197 238 295 350
#     4  10  21  37  57  83 114 148 190 237 284 340
#     4  11  22  34  52  84 121 152 185 228 287 364
#     4  10  21  37  57  83 114 148 190 237 284 340
#
# _framework density 20.224142000000001
#
# number of rings (size 3 to 8) (size 9 to 14) (size 15 to 20)
#    0.000    1.250    0.000    7.500    0.000    6.000 
#    0.000    0.000    0.000    3.000    0.000    0.000 
#    0.000    0.000    0.000    0.000    0.000    0.000 
#
# Total GULP energy -397021.460755 kJ/mol
# GULP energy per Si atom -12406.920649 kJ/mol
# Density = 2.017811 g / cm^3
# Si number density = 20.224142 Si / 1000 Ang^3
#
#
#
# Elastic Constant Matrix: (Units=GPa)
#
#
# Indices 1 2 3 4 5 6 
#
# 1 72.2135 28.3484 4.2033 0.0000 0.0000 2.4238
# 2 28.3484 72.2135 4.2033 0.0000 0.0000 -2.4238
# 3 4.2033 4.2033 77.7119 0.0000 0.0000 0.0000
# 4 0.0000 0.0000 0.0000 32.2009 0.0000 0.0000
# 5 0.0000 0.0000 0.0000 0.0000 32.2009 0.0000
# 6 2.4238 -2.4238 0.0000 0.0000 0.0000 30.3326
#
#
#
# Elastic Compliance Matrix: (Units=1/GPa)
#
#
# Indices 1 2 3 4 5 6 
#
# 1 0.016495 -0.006505 -0.000540 0.000000 0.000000 -0.001838
# 2 -0.006505 0.016495 -0.000540 0.000000 0.000000 0.001838
# 3 -0.000540 -0.000540 0.012926 0.000000 0.000000 0.000000
# 4 0.000000 0.000000 0.000000 0.031055 0.000000 0.000000
# 5 0.000000 0.000000 0.000000 0.000000 0.031055 0.000000
# 6 -0.001838 0.001838 0.000000 0.000000 0.000000 0.033262
#
#
# Mechanical properties :
#
#
# Convention : Reuss Voigt Hill
#
# Bulk Modulus (GPa) = 32.52683 32.84989 32.68836
# Shear Modulus (GPa) = 29.99260 31.30581 30.64921
#
# Velocity S-wave (km/s) = 3.85516 3.93866 3.89714
# Velocity P-wave (km/s) = 5.99454 6.07966 6.03725
#
# Compressibility (1/GPa) = 0.03074385
#
# Stress axis : x y z
#
# Youngs Moduli (GPa) = 60.62526 60.62526 77.36050
#
# Poissons Ratio (x) = 0.39440 0.04180
# Poissons Ratio (y) = 0.39440 0.04180
# Poissons Ratio (z) = 0.03276 0.03276
#
# Static dielectric constant tensor:
#      x y z
#    x 3.423490 0.000000 0.000000 
#    y 0.000000 3.423490 0.000000 
#    z 0.000000 0.000000 3.814950 
# 
# 
# High freq. dielectric constant tensor:
#      x y z
#    x 1.769240 0.000000 0.000000 
#    y 0.000000 1.769240 0.000000 
#    z 0.000000 0.000000 1.813750 
# 
# From -- ./inp_files/573.got.cif
#   From: 2010.03.12/outbox.cif.g09.slc.cpg/sg88_1_cif.got.tgz:573.got - 2010.04.08 20:20:55.
