data_PCOD8304802
_publ_section_title
;
Structure prediction by ZEFSAII (Michael W. Deem and Ramdas Pophale) SiO2 
 PCOD8304802
Probable space group: P 41 2 2
;
_chemical_formula_sum "Si O2"
_cell_formula_units_Z 60
_cell_length_a 11.914963
_cell_length_b 11.914963
_cell_length_c 19.845662
_cell_angle_alpha 90.000000
_cell_angle_beta 90.000000
_cell_angle_gamma 90.000000
_cell_volume 2817.416064
_symmetry_space_group_name_H-M "P 41 2 2"
_symmetry_group_IT_number 91
_symmetry_cell_setting 'tetragonal'
loop_
_space_group_symop_operation_xyz
x,y,z
-y,x,1/4+z
-x,-y,1/2+z
y,-x,3/4+z
x,-y,1/2-z
-x,y,-z
y,x,3/4-z
-y,-x,1/4-z
loop_
_atom_site_type_symbol
_atom_site_label
_atom_site_fract_x
_atom_site_fract_y
_atom_site_fract_z
Si Si1 0.860518 0.912892 0.802294
Si Si2 0.021397 0.365723 0.387595
Si Si3 0.753418 0.399279 0.864701
Si Si4 0.799592 0.631227 0.180998
Si Si5 0.633551 0.797208 0.414291
Si Si6 0.628905 0.628905 0.875000
Si Si7 0.603439 0.005751 0.324316
Si Si8 0.668578 0.807655 0.970605
O O1 0.921227 0.921227 0.875000
O O2 0.869388 0.788481 0.770809
O O3 0.917081 0.000000 0.750000
O O4 0.729984 0.942083 0.810909
O O5 0.921311 0.323915 0.340055
O O6 0.975872 0.471517 0.429373
O O7 0.124222 0.401820 0.337068
O O8 0.688756 0.286265 0.880689
O O9 0.661509 0.497476 0.877850
O O10 0.797987 0.401874 0.788201
O O11 0.863721 0.393589 0.909125
O O12 0.780525 0.499439 0.168893
O O13 0.791003 0.673596 0.258254
O O14 0.695933 0.695933 0.375000
O O15 0.661104 0.917559 0.377130
O O16 0.685941 0.682457 0.941542
O O17 0.658414 0.000000 0.250000
#
# Coordination Sequence:
#
# PCOD8304802 Si02
#       8
#     8   8   8   8   8   4   8   8
#     4  10  19  34  61  90 125 161 210 271 333 401
#     4  10  19  38  63  90 120 159 218 266 320 389
#     4  12  25  39  63  95 136 169 215 262 338 394
#     4  10  23  39  62  91 122 177 211 258 325 393
#     4  10  22  42  63  88 127 169 221 263 314 384
#     4  12  24  40  58 100 130 172 206 278 332 396
#     4  11  22  38  66  95 120 165 219 275 314 384
#     4  11  21  41  62  93 128 165 212 276 335 389
#
# _framework density 21.296109999999999
#
# number of rings (size 3 to 8) (size 9 to 14) (size 15 to 20)
#    0.000    1.333    3.333    3.200    0.933    5.333 
#    2.400    0.000    0.000   26.400    0.000    0.000 
#    0.000    0.000    0.000    0.000    0.000    0.000 
#
# Total GULP energy -743509.154520 kJ/mol
# GULP energy per Si atom -12391.819242 kJ/mol
# Density = 2.124764 g / cm^3
# Si number density = 21.296110 Si / 1000 Ang^3
#
#
#
# Elastic Constant Matrix: (Units=GPa)
#
#
# Indices 1 2 3 4 5 6 
#
# 1 65.5009 19.2104 23.7780 0.0000 0.0000 0.0000
# 2 19.2104 65.5009 23.7780 0.0000 0.0000 0.0000
# 3 23.7780 23.7780 96.6509 0.0000 0.0000 0.0000
# 4 0.0000 0.0000 0.0000 33.9694 0.0000 0.0000
# 5 0.0000 0.0000 0.0000 0.0000 33.9694 0.0000
# 6 0.0000 0.0000 0.0000 0.0000 0.0000 19.7570
#
#
#
# Elastic Compliance Matrix: (Units=1/GPa)
#
#
# Indices 1 2 3 4 5 6 
#
# 1 0.017650 -0.003953 -0.003370 0.000000 0.000000 0.000000
# 2 -0.003953 0.017650 -0.003370 0.000000 0.000000 0.000000
# 3 -0.003370 -0.003370 0.012004 0.000000 0.000000 0.000000
# 4 0.000000 0.000000 0.000000 0.029438 0.000000 0.000000
# 5 0.000000 0.000000 0.000000 0.000000 0.029438 0.000000
# 6 0.000000 0.000000 0.000000 0.000000 0.000000 0.050615
#
#
# Mechanical properties :
#
#
# Convention : Reuss Voigt Hill
#
# Bulk Modulus (GPa) = 38.58170 40.13172 39.35671
# Shear Modulus (GPa) = 26.76381 28.26491 27.51436
#
# Velocity S-wave (km/s) = 3.54891 3.64707 3.59833
# Velocity P-wave (km/s) = 5.91178 6.05148 5.98204
#
# Compressibility (1/GPa) = 0.02591902
#
# Stress axis : x y z
#
# Youngs Moduli (GPa) = 56.65861 56.65861 83.30219
#
# Poissons Ratio (x) = 0.22398 0.28069
# Poissons Ratio (y) = 0.22398 0.28069
# Poissons Ratio (z) = 0.19092 0.19092
#
# Static dielectric constant tensor:
#      x y z
#    x 3.797180 0.000000 0.000000 
#    y 0.000000 3.797180 0.000000 
#    z 0.000000 0.000000 3.962050 
# 
# 
# High freq. dielectric constant tensor:
#      x y z
#    x 1.826300 0.000000 0.000000 
#    y 0.000000 1.826300 0.000000 
#    z 0.000000 0.000000 1.841760 
# 
# From -- ./inp_files/21587.got.cif
#   From: 2010.03.12/outbox.cif.g09.slc.cpg/sg91_11_cif.got.tgz:21587.got - 2010.04.08 20:27:58.
