data_PCOD8304750
_publ_section_title
;
Structure prediction by ZEFSAII (Michael W. Deem and Ramdas Pophale) SiO2 
 PCOD8304750
Probable space group: P 41 2 2
;
_chemical_formula_sum "Si O2"
_cell_formula_units_Z 64
_cell_length_a 12.315489
_cell_length_b 12.315489
_cell_length_c 23.416225
_cell_angle_alpha 90.000000
_cell_angle_beta 90.000000
_cell_angle_gamma 90.000000
_cell_volume 3551.568568
_symmetry_space_group_name_H-M "P 41 2 2"
_symmetry_group_IT_number 91
_symmetry_cell_setting 'tetragonal'
loop_
_space_group_symop_operation_xyz
x,y,z
-y,x,1/4+z
-x,-y,1/2+z
y,-x,3/4+z
x,-y,1/2-z
-x,y,-z
y,x,3/4-z
-y,-x,1/4-z
loop_
_atom_site_type_symbol
_atom_site_label
_atom_site_fract_x
_atom_site_fract_y
_atom_site_fract_z
Si Si1 0.772777 0.380057 0.274062
Si Si2 0.198521 0.382037 0.275387
Si Si3 0.818984 0.612375 0.506244
Si Si4 0.637280 0.207867 0.747059
Si Si5 0.406977 0.016833 0.838124
Si Si6 0.379825 0.987950 0.529350
Si Si7 0.637420 0.106959 0.861059
Si Si8 0.114326 0.712151 0.116504
O O1 0.738650 0.500000 0.250000
O O2 0.679647 0.290813 0.266604
O O3 0.806424 0.394282 0.340312
O O4 0.875582 0.327533 0.241248
O O5 0.213018 0.500000 0.250000
O O6 0.312297 0.324676 0.265377
O O7 0.096943 0.321232 0.243652
O O8 0.172023 0.378670 0.343027
O O9 0.776709 0.490656 0.499044
O O10 0.884845 0.647710 0.448733
O O11 0.900957 0.621221 0.559738
O O12 0.686994 0.169921 0.807431
O O13 0.672989 0.123531 0.698542
O O14 0.535209 0.037318 0.838378
O O15 0.368022 0.013349 0.902864
O O16 0.500000 0.989475 0.500000
O O17 0.721865 0.013909 0.882352
O O18 0.170565 0.829436 0.125000
#
# Coordination Sequence:
#
# PCOD8304750 Si02
#       8
#     8   8   8   8   8   8   8   8
#     4  11  22  37  57  86 118 154 191 239 293 353
#     4  10  20  33  54  81 111 145 189 228 281 346
#     4  10  23  36  58  87 117 148 194 239 292 350
#     4  10  22  32  53  85 110 149 181 235 291 339
#     4  10  19  38  60  80 106 155 200 243 273 330
#     4  10  18  34  58  80 105 145 198 240 273 332
#     4  11  18  36  57  82 108 144 204 234 275 343
#     4  10  19  34  55  81 110 137 181 243 292 328
#
# _framework density 18.020206000000002
#
# number of rings (size 3 to 8) (size 9 to 14) (size 15 to 20)
#    0.000    1.750    5.000    1.125    1.750    1.000 
#    0.000    0.000    0.000    3.000    0.000    0.000 
#    0.000    0.000    0.000    0.000    0.000    0.000 
#
# Total GULP energy -792983.048963 kJ/mol
# GULP energy per Si atom -12390.360140 kJ/mol
# Density = 1.797919 g / cm^3
# Si number density = 18.020206 Si / 1000 Ang^3
#
#
#
# Elastic Constant Matrix: (Units=GPa)
#
#
# Indices 1 2 3 4 5 6 
#
# 1 81.6999 48.6361 35.0708 0.0000 0.0000 0.0000
# 2 48.6361 81.7002 35.0705 0.0000 0.0000 0.0000
# 3 35.0708 35.0705 149.9049 0.0000 0.0000 0.0000
# 4 0.0000 0.0000 0.0000 21.1336 0.0000 0.0000
# 5 0.0000 0.0000 0.0000 0.0000 21.1339 0.0000
# 6 0.0000 0.0000 0.0000 0.0000 0.0000 13.8498
#
#
#
# Elastic Compliance Matrix: (Units=1/GPa)
#
#
# Indices 1 2 3 4 5 6 
#
# 1 0.019511 -0.010733 -0.002054 0.000000 0.000000 0.000000
# 2 -0.010733 0.019511 -0.002053 0.000000 0.000000 0.000000
# 3 -0.002054 -0.002053 0.007632 0.000000 0.000000 0.000000
# 4 0.000000 0.000000 0.000000 0.047318 0.000000 0.000000
# 5 0.000000 0.000000 0.000000 0.000000 0.047317 0.000000
# 6 0.000000 0.000000 0.000000 0.000000 0.000000 0.072203
#
#
# Mechanical properties :
#
#
# Convention : Reuss Voigt Hill
#
# Bulk Modulus (GPa) = 58.91784 61.20664 60.06224
# Shear Modulus (GPa) = 20.09399 24.19198 22.14298
#
# Velocity S-wave (km/s) = 3.34291 3.66798 3.50921
# Velocity P-wave (km/s) = 6.90409 7.20958 7.05849
#
# Compressibility (1/GPa) = 0.01697279
#
# Stress axis : x y z
#
# Youngs Moduli (GPa) = 51.25303 51.25331 131.03137
#
# Poissons Ratio (x) = 0.55012 0.26908
# Poissons Ratio (y) = 0.55012 0.26907
# Poissons Ratio (z) = 0.10525 0.10525
#
# Static dielectric constant tensor:
#      x y z
#    x 3.282480 0.000000 0.000000 
#    y 0.000000 3.282480 0.000000 
#    z 0.000000 0.000000 3.623610 
# 
# 
# High freq. dielectric constant tensor:
#      x y z
#    x 1.673350 0.000000 0.000000 
#    y 0.000000 1.673350 0.000000 
#    z 0.000000 0.000000 1.720680 
# 
# From -- ./inp_files/12955.got.cif
#   From: 2010.03.12/outbox.cif.g09.slc.cpg/sg91_7_cif.got.tgz:12955.got - 2010.04.08 20:27:58.
