data_PCOD8304938
_publ_section_title
;
Structure prediction by ZEFSAII (Michael W. Deem and Ramdas Pophale) SiO2 
 PCOD8304938
Probable space group: P 41 2 2
;
_chemical_formula_sum "Si O2"
_cell_formula_units_Z 48
_cell_length_a 13.889181
_cell_length_b 13.889181
_cell_length_c 14.711353
_cell_angle_alpha 90.000000
_cell_angle_beta 90.000000
_cell_angle_gamma 90.000000
_cell_volume 2837.957528
_symmetry_space_group_name_H-M "P 41 2 2"
_symmetry_group_IT_number 91
_symmetry_cell_setting 'tetragonal'
loop_
_space_group_symop_operation_xyz
x,y,z
-y,x,1/4+z
-x,-y,1/2+z
y,-x,3/4+z
x,-y,1/2-z
-x,y,-z
y,x,3/4-z
-y,-x,1/4-z
loop_
_atom_site_type_symbol
_atom_site_label
_atom_site_fract_x
_atom_site_fract_y
_atom_site_fract_z
Si Si1 0.326732 0.611965 0.224726
Si Si2 0.980799 0.622246 0.399858
Si Si3 0.393841 0.034456 0.156213
Si Si4 0.890140 0.614105 0.755424
Si Si5 0.372424 0.772042 0.582430
Si Si6 0.587656 0.751822 0.624619
O O1 0.335317 0.500000 0.250000
O O2 0.372707 0.627294 0.125000
O O3 0.216838 0.649319 0.221090
O O4 0.378275 0.671120 0.304747
O O5 0.977245 0.507905 0.404633
O O6 0.883765 0.656702 0.348177
O O7 0.000000 0.666510 0.500000
O O8 0.073294 0.655737 0.341072
O O9 0.365418 0.145580 0.147730
O O10 0.348327 0.000000 0.250000
O O11 0.347969 0.966878 0.079143
O O12 0.890634 0.500000 0.750000
O O13 0.288253 0.711748 0.625000
O O14 0.472469 0.753025 0.634107
O O15 0.381130 0.734943 0.479110
#
# Coordination Sequence:
#
# PCOD8304938 Si02
#       6
#     8   8   8   8   8   8
#     4  11  25  38  52  74 109 148 189 221 263 309
#     4   9  17  29  51  78  99 126 165 217 282 320
#     4   9  15  29  53  72  93 124 166 217 275 311
#     4   9  17  32  51  72 100 128 168 226 274 317
#     4  10  21  34  53  75 104 140 182 218 258 309
#     4  10  21  36  51  74 105 142 183 218 251 311
#
# _framework density 16.913571999999998
#
# number of rings (size 3 to 8) (size 9 to 14) (size 15 to 20)
#    0.000    2.333    1.667    1.000    4.667    3.333 
#    0.000    0.000    0.000    0.000    0.000    0.000 
#    0.000   12.000    0.000    0.000    0.000    0.000 
#
# Total GULP energy -594795.063227 kJ/mol
# GULP energy per Si atom -12391.563817 kJ/mol
# Density = 1.687508 g / cm^3
# Si number density = 16.913572 Si / 1000 Ang^3
#
#
#
# Elastic Constant Matrix: (Units=GPa)
#
#
# Indices 1 2 3 4 5 6 
#
# 1 77.6401 30.5867 41.1222 0.0000 0.0000 0.0000
# 2 30.5867 77.6391 41.1219 0.0000 0.0000 0.0000
# 3 41.1222 41.1219 129.3534 0.0000 0.0000 0.0000
# 4 0.0000 0.0000 0.0000 27.9160 0.0000 0.0000
# 5 0.0000 0.0000 0.0000 0.0000 27.9159 0.0000
# 6 0.0000 0.0000 0.0000 0.0000 0.0000 0.9316
#
#
#
# Elastic Compliance Matrix: (Units=1/GPa)
#
#
# Indices 1 2 3 4 5 6 
#
# 1 0.016718 -0.004535 -0.003873 0.000000 0.000000 0.000000
# 2 -0.004535 0.016718 -0.003873 0.000000 0.000000 0.000000
# 3 -0.003873 -0.003873 0.010193 0.000000 0.000000 0.000000
# 4 0.000000 0.000000 0.000000 0.035822 0.000000 0.000000
# 5 0.000000 0.000000 0.000000 0.000000 0.035822 0.000000
# 6 0.000000 0.000000 0.000000 0.000000 0.000000 1.073463
#
#
# Mechanical properties :
#
#
# Convention : Reuss Voigt Hill
#
# Bulk Modulus (GPa) = 52.44585 56.69936 54.57261
# Shear Modulus (GPa) = 4.09952 22.80615 13.45284
#
# Velocity S-wave (km/s) = 1.55855 3.67603 2.82332
# Velocity P-wave (km/s) = 5.85783 7.18425 6.55468
#
# Compressibility (1/GPa) = 0.01906729
#
# Stress axis : x y z
#
# Youngs Moduli (GPa) = 59.81647 59.81569 98.10365
#
# Poissons Ratio (x) = 0.27125 0.37996
# Poissons Ratio (y) = 0.27125 0.37996
# Poissons Ratio (z) = 0.23167 0.23167
#
# Static dielectric constant tensor:
#      x y z
#    x 3.013110 0.000000 0.000000 
#    y 0.000000 3.013110 0.000000 
#    z 0.000000 0.000000 3.511520 
# 
# 
# High freq. dielectric constant tensor:
#      x y z
#    x 1.622060 0.000000 0.000000 
#    y 0.000000 1.622060 0.000000 
#    z 0.000000 0.000000 1.675110 
# 
# From -- ./inp_files/4895.got.cif
#   From: 2010.03.12/outbox.cif.g09.slc.cpg/sg91_3_cif.got.tgz:4895.got - 2010.04.08 20:27:58.
