data_PCOD8304358
_publ_section_title
;
Structure prediction by ZEFSAII (Michael W. Deem and Ramdas Pophale) SiO2 
 PCOD8304358
Probable space group: I 41/A
;
_chemical_formula_sum "Si O2"
_cell_formula_units_Z 88
_cell_length_a 17.215585
_cell_length_b 17.215585
_cell_length_c 13.510363
_cell_angle_alpha 90.000000
_cell_angle_beta 90.000000
_cell_angle_gamma 90.000000
_cell_volume 4004.152301
_symmetry_space_group_name_H-M "I 41/A"
_symmetry_group_IT_number 88
_space_group.IT_coordinate_system_code '2'
_symmetry_cell_setting 'tetragonal'
loop_
_space_group_symop_operation_xyz
x,y,z
3/4-y,1/4+x,1/4+z
-x,1/2-y,z
1/4+y,1/4-x,1/4+z
-x,-y,-z
1/4+y,3/4-x,3/4-z
x,1/2+y,-z
3/4-y,3/4+x,3/4-z
1/2+x,1/2+y,1/2+z
1/4-y,3/4+x,3/4+z
1/2-x,-y,1/2+z
3/4+y,3/4-x,3/4+z
1/2-x,1/2-y,1/2-z
3/4+y,1/4-x,1/4-z
1/2+x,y,1/2-z
1/4-y,1/4+x,1/4-z
loop_
_atom_site_type_symbol
_atom_site_label
_atom_site_fract_x
_atom_site_fract_y
_atom_site_fract_z
Si Si1 0.738087 0.626207 0.493390
Si Si2 0.500000 0.750000 0.125000
Si Si3 0.500000 0.250000 0.375000
Si Si4 0.283837 0.452129 0.313864
Si Si5 0.618542 0.416196 0.625381
Si Si6 0.503516 0.864557 0.805705
Si Si7 0.535377 0.133483 0.706939
O O1 0.691891 0.595735 0.589716
O O2 0.730712 0.554822 0.416966
O O3 0.696025 0.702944 0.454631
O O4 0.828560 0.643095 0.514182
O O5 0.496176 0.826333 0.193393
O O6 0.510838 0.175320 0.302158
O O7 0.333609 0.531563 0.294999
O O8 0.292799 0.389540 0.227466
O O9 0.637670 0.324709 0.614960
O O10 0.528792 0.422506 0.656459
O O11 0.552854 0.807106 0.874895
#
# Coordination Sequence:
#
# PCOD8304358 Si02
#       7
#    16   4   4  16  16  16  16
#     4  11  24  43  67 104 138 184 220 274 347 407
#     4  12  26  48  68  94 136 184 230 300 324 390
#     4  12  22  40  72 102 140 176 218 284 360 402
#     4  10  24  43  68  99 147 176 220 278 341 415
#     4  11  22  45  69 102 134 179 228 281 339 410
#     4  12  23  43  70 103 137 175 226 284 341 418
#     4  12  25  46  70  98 137 176 236 283 340 404
#
# _framework density 21.977186
#
# number of rings (size 3 to 8) (size 9 to 14) (size 15 to 20)
#    0.000    0.727    5.455    2.182    0.000    6.545 
#    0.000    1.818    0.000    0.000    0.000    0.000 
#    0.000    0.000    0.000    0.000    0.000    0.000 
#
# Total GULP energy -545242.401743 kJ/mol
# GULP energy per Si atom -12391.872767 kJ/mol
# Density = 2.192716 g / cm^3
# Si number density = 21.977186 Si / 1000 Ang^3
#
#
#
# Elastic Constant Matrix: (Units=GPa)
#
#
# Indices 1 2 3 4 5 6 
#
# 1 89.9445 39.8907 22.6920 0.0000 0.0000 -1.8990
# 2 39.8907 89.9445 22.6920 0.0000 0.0000 1.8990
# 3 22.6920 22.6920 86.2113 0.0000 0.0000 0.0000
# 4 0.0000 0.0000 0.0000 17.0804 0.0000 0.0000
# 5 0.0000 0.0000 0.0000 0.0000 17.0804 0.0000
# 6 -1.8990 1.8990 0.0000 0.0000 0.0000 50.2896
#
#
#
# Elastic Compliance Matrix: (Units=1/GPa)
#
#
# Indices 1 2 3 4 5 6 
#
# 1 0.014259 -0.005777 -0.002233 0.000000 0.000000 0.000757
# 2 -0.005777 0.014259 -0.002233 0.000000 0.000000 -0.000757
# 3 -0.002233 -0.002233 0.012775 0.000000 0.000000 0.000000
# 4 0.000000 0.000000 0.000000 0.058547 0.000000 0.000000
# 5 0.000000 0.000000 0.000000 0.000000 0.058547 0.000000
# 6 0.000757 -0.000757 0.000000 0.000000 0.000000 0.019942
#
#
# Mechanical properties :
#
#
# Convention : Reuss Voigt Hill
#
# Bulk Modulus (GPa) = 48.05628 48.51666 48.28647
# Shear Modulus (GPa) = 24.30147 28.94512 26.62330
#
# Velocity S-wave (km/s) = 3.32890 3.63306 3.48430
# Velocity P-wave (km/s) = 6.05718 6.30259 6.18110
#
# Compressibility (1/GPa) = 0.02080893
#
# Stress axis : x y z
#
# Youngs Moduli (GPa) = 70.13009 70.13009 78.27930
#
# Poissons Ratio (x) = 0.40512 0.17478
# Poissons Ratio (y) = 0.40512 0.17478
# Poissons Ratio (z) = 0.15658 0.15658
#
# Static dielectric constant tensor:
#      x y z
#    x 4.078640 0.000000 0.000000 
#    y 0.000000 4.078640 0.000000 
#    z 0.000000 0.000000 3.999610 
# 
# 
# High freq. dielectric constant tensor:
#      x y z
#    x 1.867600 0.000000 0.000000 
#    y 0.000000 1.867600 0.000000 
#    z 0.000000 0.000000 1.858610 
# 
# From -- ./inp_files/3261.got.cif
#   From: 2010.03.12/outbox.cif.g09.slc.cpg/sg88_2_cif.got.tgz:3261.got - 2010.04.08 20:20:55.
