data_PCOD8304656
_publ_section_title
;
Structure prediction by ZEFSAII (Michael W. Deem and Ramdas Pophale) SiO2 
 PCOD8304656
Probable space group: P 4 21 2
;
_chemical_formula_sum "Si O2"
_cell_formula_units_Z 50
_cell_length_a 8.510873
_cell_length_b 8.510873
_cell_length_c 30.742030
_cell_angle_alpha 90.000000
_cell_angle_beta 90.000000
_cell_angle_gamma 90.000000
_cell_volume 2226.797689
_symmetry_space_group_name_H-M "P 4 21 2"
_symmetry_group_IT_number 90
_symmetry_cell_setting 'tetragonal'
loop_
_space_group_symop_operation_xyz
x,y,z
1/2-y,1/2+x,z
-x,-y,z
1/2+y,1/2-x,z
1/2+x,1/2-y,-z
1/2-x,1/2+y,-z
y,x,-z
-y,-x,-z
loop_
_atom_site_type_symbol
_atom_site_label
_atom_site_fract_x
_atom_site_fract_y
_atom_site_fract_z
Si Si1 0.108076 0.265928 0.116104
Si Si2 0.264781 0.103436 0.785312
Si Si3 0.163473 0.092071 0.453048
Si Si4 0.771218 0.384501 0.367324
Si Si5 0.600753 0.239238 0.039200
Si Si6 0.902457 0.739015 0.709698
Si Si7 0.000000 0.500000 0.541839
O O1 0.203900 0.425160 0.107039
O O2 0.131949 0.206613 0.165434
O O3 0.172205 0.131049 0.084632
O O4 0.421430 0.202590 0.776678
O O5 0.130867 0.157575 0.752321
O O6 0.177999 0.177999 0.500000
O O7 0.155539 0.225376 0.416454
O O8 0.312294 0.972857 0.448879
O O9 0.000000 0.000000 0.450132
O O10 0.792628 0.568378 0.358618
O O11 0.635626 0.331583 0.334381
O O12 0.417777 0.203243 0.036073
O O13 0.646129 0.353872 0.000000
O O14 0.797089 0.584551 0.710399
#
# Coordination Sequence:
#
# PCOD8304656 Si02
#       7
#     8   8   8   8   8   8   2
#     4   9  19  37  62  90 119 156 202 256 314 382
#     4   9  19  39  65  91 122 160 208 261 320 386
#     4  11  28  48  74 111 142 182 232 281 341 407
#     4  11  26  45  70  99 133 174 221 275 334 400
#     4  11  24  39  56  83 119 158 202 256 312 375
#     4  11  26  42  61  91 130 172 218 272 331 391
#     4  12  28  44  80 100 144 188 224 288 336 408
#
# _framework density 22.453769999999999
#
# number of rings (size 3 to 8) (size 9 to 14) (size 15 to 20)
#    0.000    1.600    0.000    3.840    8.960    8.000 
#    0.000    4.800    0.000    0.000    0.000    0.000 
#    0.000    0.000    0.000    0.000    0.000    0.000 
#
# Total GULP energy -619449.068418 kJ/mol
# GULP energy per Si atom -12388.981368 kJ/mol
# Density = 2.240266 g / cm^3
# Si number density = 22.453770 Si / 1000 Ang^3
#
#
#
# Elastic Constant Matrix: (Units=GPa)
#
#
# Indices 1 2 3 4 5 6 
#
# 1 44.8025 12.1846 9.1406 0.0000 0.0000 0.0000
# 2 12.1846 44.8016 9.1402 0.0000 0.0000 0.0000
# 3 9.1406 9.1402 114.7843 0.0000 0.0000 0.0000
# 4 0.0000 0.0000 0.0000 27.2515 0.0000 0.0000
# 5 0.0000 0.0000 0.0000 0.0000 27.2516 0.0000
# 6 0.0000 0.0000 0.0000 0.0000 0.0000 34.4290
#
#
#
# Elastic Compliance Matrix: (Units=1/GPa)
#
#
# Indices 1 2 3 4 5 6 
#
# 1 0.024333 -0.006325 -0.001434 0.000000 0.000000 0.000000
# 2 -0.006325 0.024333 -0.001434 0.000000 0.000000 0.000000
# 3 -0.001434 -0.001434 0.008940 0.000000 0.000000 0.000000
# 4 0.000000 0.000000 0.000000 0.036695 0.000000 0.000000
# 5 0.000000 0.000000 0.000000 0.000000 0.036695 0.000000
# 6 0.000000 0.000000 0.000000 0.000000 0.000000 0.029045
#
#
# Mechanical properties :
#
#
# Convention : Reuss Voigt Hill
#
# Bulk Modulus (GPa) = 25.49695 29.47991 27.48843
# Shear Modulus (GPa) = 26.10936 29.38129 27.74532
#
# Velocity S-wave (km/s) = 3.41369 3.62128 3.51902
# Velocity P-wave (km/s) = 5.18823 5.53557 5.36471
#
# Compressibility (1/GPa) = 0.03922037
#
# Stress axis : x y z
#
# Youngs Moduli (GPa) = 41.09650 41.09573 111.85212
#
# Poissons Ratio (x) = 0.25994 0.16040
# Poissons Ratio (y) = 0.25994 0.16039
# Poissons Ratio (z) = 0.05893 0.05893
#
# Static dielectric constant tensor:
#      x y z
#    x 4.490770 0.000000 0.000000 
#    y 0.000000 4.490770 0.000000 
#    z 0.000000 0.000000 4.059960 
# 
# 
# High freq. dielectric constant tensor:
#      x y z
#    x 1.896560 0.000000 0.000000 
#    y 0.000000 1.896560 0.000000 
#    z 0.000000 0.000000 1.881610 
# 
# From -- ./inp_files/3064.got.cif
#   From: 2010.03.12/outbox.cif.g09.slc.cpg/sg90_2_cif.got.tgz:3064.got - 2010.04.08 20:26:03.
