data_PCOD8304959
_publ_section_title
;
Structure prediction by ZEFSAII (Michael W. Deem and Ramdas Pophale) SiO2 
 PCOD8304959
Probable space group: P 41 2 2
;
_chemical_formula_sum "Si O2"
_cell_formula_units_Z 48
_cell_length_a 8.922920
_cell_length_b 8.922920
_cell_length_c 30.673580
_cell_angle_alpha 90.000000
_cell_angle_beta 90.000000
_cell_angle_gamma 90.000000
_cell_volume 2442.184470
_symmetry_space_group_name_H-M "P 41 2 2"
_symmetry_group_IT_number 91
_symmetry_cell_setting 'tetragonal'
loop_
_space_group_symop_operation_xyz
x,y,z
-y,x,1/4+z
-x,-y,1/2+z
y,-x,3/4+z
x,-y,1/2-z
-x,y,-z
y,x,3/4-z
-y,-x,1/4-z
loop_
_atom_site_type_symbol
_atom_site_label
_atom_site_fract_x
_atom_site_fract_y
_atom_site_fract_z
Si Si1 0.179028 0.675749 0.244704
Si Si2 0.669192 0.174940 0.665488
Si Si3 0.170247 0.317847 0.083145
Si Si4 0.830193 0.862236 0.327508
Si Si5 0.178946 0.860041 0.329843
Si Si6 0.326214 0.161455 0.006177
O O1 0.198554 0.500000 0.250000
O O2 0.293339 0.731251 0.208382
O O3 0.221916 0.753717 0.289882
O O4 0.008739 0.717844 0.230955
O O5 0.756177 0.243824 0.625000
O O6 0.492886 0.181023 0.656674
O O7 0.717541 0.004603 0.672526
O O8 0.217149 0.229330 0.126354
O O9 0.279813 0.274645 0.043969
O O10 0.004295 0.273243 0.068014
O O11 0.791306 0.791306 0.375000
O O12 0.792743 0.744922 0.289972
O O13 0.005234 0.909075 0.327761
O O14 0.500000 0.178325 0.000000
#
# Coordination Sequence:
#
# PCOD8304959 Si02
#       6
#     8   8   8   8   8   8
#     4  10  21  39  63  91 121 153 193 241 293 350
#     4  12  24  39  60  87 119 156 197 243 293 347
#     4  11  23  38  59  87 116 150 194 243 291 341
#     4   9  19  37  60  86 112 146 196 246 284 335
#     4  10  21  39  63  87 113 152 201 244 288 343
#     4  10  21  38  60  86 118 155 191 233 288 350
#
# _framework density 19.654536
#
# number of rings (size 3 to 8) (size 9 to 14) (size 15 to 20)
#    0.000    1.667    0.000    5.500    0.000   11.333 
#    0.000    2.500    0.000    0.000    0.000    0.000 
#    0.000    0.000    0.000    0.000    0.000    0.000 
#
# Total GULP energy -595407.619912 kJ/mol
# GULP energy per Si atom -12404.325415 kJ/mol
# Density = 1.960980 g / cm^3
# Si number density = 19.654536 Si / 1000 Ang^3
#
#
#
# Elastic Constant Matrix: (Units=GPa)
#
#
# Indices 1 2 3 4 5 6 
#
# 1 84.4747 30.7958 39.4269 0.0000 0.0000 0.0000
# 2 30.7958 84.4760 39.4272 0.0000 0.0000 0.0000
# 3 39.4269 39.4272 129.2399 0.0000 0.0000 0.0000
# 4 0.0000 0.0000 0.0000 20.4030 0.0000 0.0000
# 5 0.0000 0.0000 0.0000 0.0000 20.4026 0.0000
# 6 0.0000 0.0000 0.0000 0.0000 0.0000 9.7871
#
#
#
# Elastic Compliance Matrix: (Units=1/GPa)
#
#
# Indices 1 2 3 4 5 6 
#
# 1 0.014796 -0.003833 -0.003345 0.000000 0.000000 0.000000
# 2 -0.003833 0.014796 -0.003344 0.000000 0.000000 0.000000
# 3 -0.003345 -0.003344 0.009778 0.000000 0.000000 0.000000
# 4 0.000000 0.000000 0.000000 0.049012 0.000000 0.000000
# 5 0.000000 0.000000 0.000000 0.000000 0.049013 0.000000
# 6 0.000000 0.000000 0.000000 0.000000 0.000000 0.102175
#
#
# Mechanical properties :
#
#
# Convention : Reuss Voigt Hill
#
# Bulk Modulus (GPa) = 54.56627 57.49893 56.03260
# Shear Modulus (GPa) = 18.74596 22.68792 20.71694
#
# Velocity S-wave (km/s) = 3.09167 3.40124 3.25014
# Velocity P-wave (km/s) = 6.36926 6.68901 6.53109
#
# Compressibility (1/GPa) = 0.01832634
#
# Stress axis : x y z
#
# Youngs Moduli (GPa) = 67.58497 67.58599 102.26889
#
# Poissons Ratio (x) = 0.25906 0.34204
# Poissons Ratio (y) = 0.25905 0.34204
# Poissons Ratio (z) = 0.22604 0.22604
#
# Static dielectric constant tensor:
#      x y z
#    x 3.515170 0.000000 0.000000 
#    y 0.000000 3.515170 0.000000 
#    z 0.000000 0.000000 3.759550 
# 
# 
# High freq. dielectric constant tensor:
#      x y z
#    x 1.759430 0.000000 0.000000 
#    y 0.000000 1.759430 0.000000 
#    z 0.000000 0.000000 1.786920 
# 
# From -- ./inp_files/7927.got.cif
#   From: 2010.03.12/outbox.cif.g09.slc.cpg/sg91_4_cif.got.tgz:7927.got - 2010.04.08 20:27:58.
