data_PCOD8304999
_publ_section_title
;
Structure prediction by ZEFSAII (Michael W. Deem and Ramdas Pophale) SiO2 
 PCOD8304999
Probable space group: P 41 2 2
;
_chemical_formula_sum "Si O2"
_cell_formula_units_Z 36
_cell_length_a 12.672028
_cell_length_b 12.672028
_cell_length_c 10.350176
_cell_angle_alpha 90.000000
_cell_angle_beta 90.000000
_cell_angle_gamma 90.000000
_cell_volume 1662.034301
_symmetry_space_group_name_H-M "P 41 2 2"
_symmetry_group_IT_number 91
_symmetry_cell_setting 'tetragonal'
loop_
_space_group_symop_operation_xyz
x,y,z
-y,x,1/4+z
-x,-y,1/2+z
y,-x,3/4+z
x,-y,1/2-z
-x,y,-z
y,x,3/4-z
-y,-x,1/4-z
loop_
_atom_site_type_symbol
_atom_site_label
_atom_site_fract_x
_atom_site_fract_y
_atom_site_fract_z
Si Si1 0.791816 0.145382 0.494366
Si Si2 0.711619 0.051728 0.892480
Si Si3 0.500000 0.156427 0.000000
Si Si4 0.463860 0.328399 0.795199
Si Si5 0.382616 0.692757 0.968671
O O1 0.860133 0.139868 0.625000
O O2 0.857381 0.197183 0.375483
O O3 0.689898 0.216135 0.523280
O O4 0.752075 0.023921 0.489202
O O5 0.694356 0.000000 0.750000
O O6 0.597921 0.090740 0.942113
O O7 0.543947 0.225858 0.116892
O O8 0.434621 0.434621 0.875000
O O9 0.373889 0.315691 0.686830
O O10 0.578624 0.344083 0.727263
O O11 0.500000 0.726053 0.000000
#
# Coordination Sequence:
#
# PCOD8304999 Si02
#       5
#     8   8   4   8   8
#     4  10  21  42  65  96 129 169 225 289 345 401
#     4  10  23  42  69  94 132 173 228 291 349 414
#     4  12  24  40  62  98 134 180 220 276 350 404
#     4  12  21  38  57  88 142 181 216 260 330 404
#     4  12  23  34  61  94 130 176 226 265 317 416
#
# _framework density 21.660202999999999
#
# number of rings (size 3 to 8) (size 9 to 14) (size 15 to 20)
#    0.000    0.889    4.444    3.333    4.667    0.000 
#    0.000    0.000    0.000   30.667    0.000    0.000 
#    0.000    0.000    0.000    0.000    0.000    0.000 
#
# Total GULP energy -446031.722732 kJ/mol
# GULP energy per Si atom -12389.770076 kJ/mol
# Density = 2.161090 g / cm^3
# Si number density = 21.660203 Si / 1000 Ang^3
#
#
#
# Elastic Constant Matrix: (Units=GPa)
#
#
# Indices 1 2 3 4 5 6 
#
# 1 127.6465 58.0954 22.1190 0.0000 0.0000 0.0000
# 2 58.0954 127.6467 22.1190 0.0000 0.0000 0.0000
# 3 22.1190 22.1190 45.0284 0.0000 0.0000 0.0000
# 4 0.0000 0.0000 0.0000 30.7648 0.0000 0.0000
# 5 0.0000 0.0000 0.0000 0.0000 30.7647 0.0000
# 6 0.0000 0.0000 0.0000 0.0000 0.0000 28.9825
#
#
#
# Elastic Compliance Matrix: (Units=1/GPa)
#
#
# Indices 1 2 3 4 5 6 
#
# 1 0.010238 -0.004140 -0.002995 0.000000 0.000000 0.000000
# 2 -0.004140 0.010238 -0.002995 0.000000 0.000000 0.000000
# 3 -0.002995 -0.002995 0.025151 0.000000 0.000000 0.000000
# 4 0.000000 0.000000 0.000000 0.032505 0.000000 0.000000
# 5 0.000000 0.000000 0.000000 0.000000 0.032505 0.000000
# 6 0.000000 0.000000 0.000000 0.000000 0.000000 0.034504
#
#
# Mechanical properties :
#
#
# Convention : Reuss Voigt Hill
#
# Bulk Modulus (GPa) = 39.42481 56.10983 47.76732
# Shear Modulus (GPa) = 28.75965 31.30161 30.03063
#
# Velocity S-wave (km/s) = 3.64780 3.80560 3.72754
# Velocity P-wave (km/s) = 5.99858 6.72837 6.37393
#
# Compressibility (1/GPa) = 0.02536474
#
# Stress axis : x y z
#
# Youngs Moduli (GPa) = 97.67980 97.68002 39.76031
#
# Poissons Ratio (x) = 0.40443 0.11908
# Poissons Ratio (y) = 0.40443 0.11908
# Poissons Ratio (z) = 0.29256 0.29256
#
# Static dielectric constant tensor:
#      x y z
#    x 3.966730 0.000000 0.000000 
#    y 0.000000 3.966730 0.000000 
#    z 0.000000 0.000000 4.109000 
# 
# 
# High freq. dielectric constant tensor:
#      x y z
#    x 1.844390 0.000000 0.000000 
#    y 0.000000 1.844390 0.000000 
#    z 0.000000 0.000000 1.850070 
# 
# From -- ./inp_files/3523.got.cif
#   From: 2010.03.12/outbox.cif.g09.slc.cpg/sg91_2_cif.got.tgz:3523.got - 2010.04.08 20:27:58.
