data_PCOD8304431
_publ_section_title
;
Structure prediction by ZEFSAII (Michael W. Deem and Ramdas Pophale) SiO2 
 PCOD8304431
Probable space group: I 41/A
;
_chemical_formula_sum "Si O2"
_cell_formula_units_Z 84
_cell_length_a 11.492509
_cell_length_b 11.492509
_cell_length_c 30.395691
_cell_angle_alpha 90.000000
_cell_angle_beta 90.000000
_cell_angle_gamma 90.000000
_cell_volume 4014.594876
_symmetry_space_group_name_H-M "I 41/A"
_symmetry_group_IT_number 88
_space_group.IT_coordinate_system_code '2'
_symmetry_cell_setting 'tetragonal'
loop_
_space_group_symop_operation_xyz
x,y,z
3/4-y,1/4+x,1/4+z
-x,1/2-y,z
1/4+y,1/4-x,1/4+z
-x,-y,-z
1/4+y,3/4-x,3/4-z
x,1/2+y,-z
3/4-y,3/4+x,3/4-z
1/2+x,1/2+y,1/2+z
1/4-y,3/4+x,3/4+z
1/2-x,-y,1/2+z
3/4+y,3/4-x,3/4+z
1/2-x,1/2-y,1/2-z
3/4+y,1/4-x,1/4-z
1/2+x,y,1/2-z
1/4-y,1/4+x,1/4-z
loop_
_atom_site_type_symbol
_atom_site_label
_atom_site_fract_x
_atom_site_fract_y
_atom_site_fract_z
Si Si1 0.228317 0.000877 0.697065
Si Si2 0.367914 0.385714 0.379741
Si Si3 0.500000 0.250000 0.875000
Si Si4 0.768533 0.738659 0.325728
Si Si5 0.240431 0.982721 0.044586
Si Si6 0.861986 0.747828 0.086799
O O1 0.223575 0.140694 0.700383
O O2 0.315186 0.967117 0.658028
O O3 0.269032 0.949398 0.743944
O O4 0.102399 0.948527 0.688695
O O5 0.504158 0.411240 0.382681
O O6 0.314816 0.411125 0.427734
O O7 0.391786 0.206369 0.846985
O O8 0.747497 0.629739 0.293684
O O9 0.665483 0.742866 0.361552
O O10 0.195396 0.867171 0.067662
O O11 0.000000 0.750000 0.079499
#
# Coordination Sequence:
#
# PCOD8304431 Si02
#       6
#    16  16   4  16  16  16
#     4  12  26  44  70 102 136 175 231 286 343 410
#     4  11  25  46  69  95 140 184 222 275 341 412
#     4  12  16  40  80  88 136 188 208 284 340 408
#     4  12  21  44  71 100 136 178 226 282 350 397
#     4  12  26  44  70 102 136 175 231 286 343 410
#     4  12  24  43  71  97 135 184 225 281 342 410
#
# _framework density 20.923653999999999
#
# number of rings (size 3 to 8) (size 9 to 14) (size 15 to 20)
#    0.000    0.190    7.619    1.714    2.667    3.048 
#    0.000    0.000    0.000    0.000    0.000    0.000 
#    0.000    0.000    0.000    0.000    0.000    0.000 
#
# Total GULP energy -520909.505856 kJ/mol
# GULP energy per Si atom -12402.607282 kJ/mol
# Density = 2.087603 g / cm^3
# Si number density = 20.923654 Si / 1000 Ang^3
#
#
#
# Elastic Constant Matrix: (Units=GPa)
#
#
# Indices 1 2 3 4 5 6 
#
# 1 110.8574 33.4086 14.5061 0.0000 0.0000 7.9909
# 2 33.4086 110.8574 14.5061 0.0000 0.0000 -7.9909
# 3 14.5061 14.5061 109.2863 0.0000 0.0000 0.0000
# 4 0.0000 0.0000 0.0000 22.8401 0.0000 0.0000
# 5 0.0000 0.0000 0.0000 0.0000 22.8401 0.0000
# 6 7.9909 -7.9909 0.0000 0.0000 0.0000 14.7176
#
#
#
# Elastic Compliance Matrix: (Units=1/GPa)
#
#
# Indices 1 2 3 4 5 6 
#
# 1 0.010831 -0.003710 -0.000945 0.000000 0.000000 -0.007895
# 2 -0.003710 0.010831 -0.000945 0.000000 0.000000 0.007895
# 3 -0.000945 -0.000945 0.009401 0.000000 0.000000 0.000000
# 4 0.000000 0.000000 0.000000 0.043783 0.000000 0.000000
# 5 0.000000 0.000000 0.000000 0.000000 0.043783 0.000000
# 6 -0.007895 0.007895 0.000000 0.000000 0.000000 0.076519
#
#
# Mechanical properties :
#
#
# Convention : Reuss Voigt Hill
#
# Bulk Modulus (GPa) = 50.34361 50.64920 50.49641
# Shear Modulus (GPa) = 23.47748 29.98490 26.73119
#
# Velocity S-wave (km/s) = 3.35334 3.78969 3.57817
# Velocity P-wave (km/s) = 6.25348 6.58849 6.42317
#
# Compressibility (1/GPa) = 0.01986349
#
# Stress axis : x y z
#
# Youngs Moduli (GPa) = 92.32477 92.32477 106.36906
#
# Poissons Ratio (x) = 0.34249 0.10055
# Poissons Ratio (y) = 0.34249 0.10055
# Poissons Ratio (z) = 0.08728 0.08728
#
# Static dielectric constant tensor:
#      x y z
#    x 4.010440 0.000000 0.000000 
#    y 0.000000 4.010440 0.000000 
#    z 0.000000 0.000000 3.740420 
# 
# 
# High freq. dielectric constant tensor:
#      x y z
#    x 1.831690 0.000000 0.000000 
#    y 0.000000 1.831690 0.000000 
#    z 0.000000 0.000000 1.812310 
# 
# From -- ./inp_files/6468.got.cif
#   From: 2010.03.12/outbox.cif.g09.slc.cpg/sg88_4_cif.got.tgz:6468.got - 2010.04.08 20:20:55.
