data_PCOD8304726
_publ_section_title
;
Structure prediction by ZEFSAII (Michael W. Deem and Ramdas Pophale) SiO2 
 PCOD8304726
Probable space group: P 41 2 2
;
_chemical_formula_sum "Si O2"
_cell_formula_units_Z 56
_cell_length_a 15.810776
_cell_length_b 15.810776
_cell_length_c 13.596879
_cell_angle_alpha 90.000000
_cell_angle_beta 90.000000
_cell_angle_gamma 90.000000
_cell_volume 3398.956483
_symmetry_space_group_name_H-M "P 41 2 2"
_symmetry_group_IT_number 91
_symmetry_cell_setting 'tetragonal'
loop_
_space_group_symop_operation_xyz
x,y,z
-y,x,1/4+z
-x,-y,1/2+z
y,-x,3/4+z
x,-y,1/2-z
-x,y,-z
y,x,3/4-z
-y,-x,1/4-z
loop_
_atom_site_type_symbol
_atom_site_label
_atom_site_fract_x
_atom_site_fract_y
_atom_site_fract_z
Si Si1 0.094919 0.427325 0.531840
Si Si2 0.886928 0.342203 0.264014
Si Si3 0.126313 0.864216 0.914203
Si Si4 0.808218 0.218820 0.016092
Si Si5 0.724317 0.827515 0.812301
Si Si6 0.021214 0.202677 0.315408
Si Si7 0.381734 0.909262 0.704928
O O1 0.109597 0.408963 0.647286
O O2 0.161706 0.373447 0.467057
O O3 0.112864 0.524663 0.505706
O O4 0.000000 0.400739 0.500000
O O5 0.796455 0.291686 0.261128
O O6 0.909944 0.389789 0.163260
O O7 0.957189 0.270516 0.273682
O O8 0.170232 0.871235 0.807498
O O9 0.025401 0.854287 0.897984
O O10 0.165502 0.779699 0.963710
O O11 0.143067 0.947818 0.976784
O O12 0.820503 0.179498 0.125000
O O13 0.834988 0.317625 0.011804
O O14 0.740794 0.740794 0.875000
O O15 0.751853 0.900072 0.886932
O O16 0.353364 0.000000 0.750000
#
# Coordination Sequence:
#
# PCOD8304726 Si02
#       7
#     8   8   8   8   8   8   8
#     4  11  18  32  51  77 102 123 163 208 253 304
#     4  10  18  32  52  69  94 132 171 195 240 308
#     4  10  18  30  49  66  89 128 164 211 244 290
#     4   9  18  32  48  67  93 133 168 197 237 291
#     4  10  18  30  51  72  91 124 164 205 250 291
#     4  10  18  29  51  69  92 122 173 209 249 289
#     4  10  21  31  47  73 107 132 157 203 253 299
#
# _framework density 16.475643999999999
#
# number of rings (size 3 to 8) (size 9 to 14) (size 15 to 20)
#    0.000    2.000    4.286    1.714    0.000    0.000 
#    0.000    0.000    0.000   90.857    0.000    0.000 
#    0.000   10.286    0.000    0.000    0.000    0.000 
#
# Total GULP energy -693972.641381 kJ/mol
# GULP energy per Si atom -12392.368596 kJ/mol
# Density = 1.643814 g / cm^3
# Si number density = 16.475644 Si / 1000 Ang^3
#
#
#
# Elastic Constant Matrix: (Units=GPa)
#
#
# Indices 1 2 3 4 5 6 
#
# 1 66.0559 37.9968 26.3850 0.0000 0.0000 0.0000
# 2 37.9968 66.0561 26.3849 0.0000 0.0000 0.0000
# 3 26.3850 26.3849 84.2923 0.0000 0.0000 0.0000
# 4 0.0000 0.0000 0.0000 23.9451 0.0000 0.0000
# 5 0.0000 0.0000 0.0000 0.0000 23.9451 0.0000
# 6 0.0000 0.0000 0.0000 0.0000 0.0000 16.2998
#
#
#
# Elastic Compliance Matrix: (Units=1/GPa)
#
#
# Indices 1 2 3 4 5 6 
#
# 1 0.023531 -0.012107 -0.003576 0.000000 0.000000 0.000000
# 2 -0.012107 0.023531 -0.003576 0.000000 0.000000 0.000000
# 3 -0.003576 -0.003576 0.014102 0.000000 0.000000 0.000000
# 4 0.000000 0.000000 0.000000 0.041762 0.000000 0.000000
# 5 0.000000 0.000000 0.000000 0.000000 0.041762 0.000000
# 6 0.000000 0.000000 0.000000 0.000000 0.000000 0.061351
#
#
# Mechanical properties :
#
#
# Convention : Reuss Voigt Hill
#
# Bulk Modulus (GPa) = 44.15695 44.21531 44.18613
# Shear Modulus (GPa) = 19.83282 21.21384 20.52333
#
# Velocity S-wave (km/s) = 3.47330 3.59219 3.53324
# Velocity P-wave (km/s) = 6.55321 6.64079 6.59715
#
# Compressibility (1/GPa) = 0.02264649
#
# Stress axis : x y z
#
# Youngs Moduli (GPa) = 42.49623 42.49640 70.91135
#
# Poissons Ratio (x) = 0.51452 0.25357
# Poissons Ratio (y) = 0.51452 0.25357
# Poissons Ratio (z) = 0.15196 0.15196
#
# Static dielectric constant tensor:
#      x y z
#    x 3.050980 0.000000 0.000000 
#    y 0.000000 3.050980 0.000000 
#    z 0.000000 0.000000 3.391550 
# 
# 
# High freq. dielectric constant tensor:
#      x y z
#    x 1.604150 0.000000 0.000000 
#    y 0.000000 1.604150 0.000000 
#    z 0.000000 0.000000 1.657090 
# 
# From -- ./inp_files/11525.got.cif
#   From: 2010.03.12/outbox.cif.g09.slc.cpg/sg91_6_cif.got.tgz:11525.got - 2010.04.08 20:27:58.
