data_PCOD8304799
_publ_section_title
;
Structure prediction by ZEFSAII (Michael W. Deem and Ramdas Pophale) SiO2 
 PCOD8304799
Probable space group: P 41 2 2
;
_chemical_formula_sum "Si O2"
_cell_formula_units_Z 48
_cell_length_a 9.213681
_cell_length_b 9.213681
_cell_length_c 30.653737
_cell_angle_alpha 90.000000
_cell_angle_beta 90.000000
_cell_angle_gamma 90.000000
_cell_volume 2602.254515
_symmetry_space_group_name_H-M "P 41 2 2"
_symmetry_group_IT_number 91
_symmetry_cell_setting 'tetragonal'
loop_
_space_group_symop_operation_xyz
x,y,z
-y,x,1/4+z
-x,-y,1/2+z
y,-x,3/4+z
x,-y,1/2-z
-x,y,-z
y,x,3/4-z
-y,-x,1/4-z
loop_
_atom_site_type_symbol
_atom_site_label
_atom_site_fract_x
_atom_site_fract_y
_atom_site_fract_z
Si Si1 0.841159 0.171442 0.829795
Si Si2 0.168799 0.166372 0.073095
Si Si3 0.337223 0.327127 0.751530
Si Si4 0.837951 0.170719 0.175768
Si Si5 0.159741 0.828755 0.171745
Si Si6 0.361332 0.828046 0.251321
O O1 0.803502 0.229715 0.878181
O O2 0.719988 0.218510 0.795532
O O3 0.998958 0.226571 0.814121
O O4 0.854366 0.999989 0.832972
O O5 0.998357 0.180409 0.061146
O O6 0.228767 0.002094 0.068939
O O7 0.264357 0.257433 0.040301
O O8 0.333638 0.500000 0.750000
O O9 0.268710 0.269898 0.796334
O O10 0.499435 0.270292 0.749272
O O11 0.803732 0.196269 0.125000
O O12 0.225094 0.774907 0.125000
O O13 0.263736 0.780499 0.210480
O O14 0.396730 0.000000 0.250000
#
# Coordination Sequence:
#
# PCOD8304799 Si02
#       6
#     8   8   8   8   8   8
#     4   8  16  32  60  88 102 123 169 228 274 309
#     4   9  17  35  60  83 104 129 170 221 270 315
#     4  12  25  36  47  73 113 151 180 208 251 306
#     4   9  18  36  62  85 102 128 171 222 271 314
#     4   8  15  31  58  86 104 124 168 227 273 310
#     4  10  19  34  55  77 104 141 179 212 256 312
#
# _framework density 18.445544000000002
#
# number of rings (size 3 to 8) (size 9 to 14) (size 15 to 20)
#    0.000    2.667    0.000    4.500    0.000    4.000 
#    0.000   10.833    0.000    0.000    0.000    0.000 
#    0.000    0.000    0.000    0.000    0.000    0.000 
#
# Total GULP energy -595030.821351 kJ/mol
# GULP energy per Si atom -12396.475445 kJ/mol
# Density = 1.840356 g / cm^3
# Si number density = 18.445544 Si / 1000 Ang^3
#
#
#
# Elastic Constant Matrix: (Units=GPa)
#
#
# Indices 1 2 3 4 5 6 
#
# 1 105.4195 59.3014 70.7389 0.0000 0.0000 0.0000
# 2 59.3014 105.4196 70.7390 0.0000 0.0000 0.0000
# 3 70.7389 70.7390 141.9748 0.0000 0.0000 0.0000
# 4 0.0000 0.0000 0.0000 6.0172 0.0000 0.0000
# 5 0.0000 0.0000 0.0000 0.0000 6.0172 0.0000
# 6 0.0000 0.0000 0.0000 0.0000 0.0000 19.5977
#
#
#
# Elastic Compliance Matrix: (Units=1/GPa)
#
#
# Indices 1 2 3 4 5 6 
#
# 1 0.016148 -0.005536 -0.005288 0.000000 0.000000 0.000000
# 2 -0.005536 0.016148 -0.005288 0.000000 0.000000 0.000000
# 3 -0.005288 -0.005288 0.012313 0.000000 0.000000 0.000000
# 4 0.000000 0.000000 0.000000 0.166190 0.000000 0.000000
# 5 0.000000 0.000000 0.000000 0.000000 0.166190 0.000000
# 6 0.000000 0.000000 0.000000 0.000000 0.000000 0.051027
#
#
# Mechanical properties :
#
#
# Convention : Reuss Voigt Hill
#
# Bulk Modulus (GPa) = 80.73045 83.81916 82.27480
# Shear Modulus (GPa) = 10.76739 16.46206 13.61473
#
# Velocity S-wave (km/s) = 2.41869 2.99066 2.71975
# Velocity P-wave (km/s) = 7.18763 7.58060 7.38673
#
# Compressibility (1/GPa) = 0.01238690
#
# Stress axis : x y z
#
# Youngs Moduli (GPa) = 61.92756 61.92755 81.21753
#
# Poissons Ratio (x) = 0.34280 0.42945
# Poissons Ratio (y) = 0.34280 0.42945
# Poissons Ratio (z) = 0.32745 0.32745
#
# Static dielectric constant tensor:
#      x y z
#    x 3.210330 0.000000 0.000000 
#    y 0.000000 3.210330 0.000000 
#    z 0.000000 0.000000 3.936480 
# 
# 
# High freq. dielectric constant tensor:
#      x y z
#    x 1.690230 0.000000 0.000000 
#    y 0.000000 1.690230 0.000000 
#    z 0.000000 0.000000 1.737110 
# 
# From -- ./inp_files/7924.got.cif
#   From: 2010.03.12/outbox.cif.g09.slc.cpg/sg91_4_cif.got.tgz:7924.got - 2010.04.08 20:27:58.
