data_PCOD8304676
_publ_section_title
;
Structure prediction by ZEFSAII (Michael W. Deem and Ramdas Pophale) SiO2 
 PCOD8304676
Probable space group: P 4 21 2
;
_chemical_formula_sum "Si O2"
_cell_formula_units_Z 34
_cell_length_a 8.059639
_cell_length_b 8.059639
_cell_length_c 22.177217
_cell_angle_alpha 90.000000
_cell_angle_beta 90.000000
_cell_angle_gamma 90.000000
_cell_volume 1440.582801
_symmetry_space_group_name_H-M "P 4 21 2"
_symmetry_group_IT_number 90
_symmetry_cell_setting 'tetragonal'
loop_
_space_group_symop_operation_xyz
x,y,z
1/2-y,1/2+x,z
-x,-y,z
1/2+y,1/2-x,z
1/2+x,1/2-y,-z
1/2-x,1/2+y,-z
y,x,-z
-y,-x,-z
loop_
_atom_site_type_symbol
_atom_site_label
_atom_site_fract_x
_atom_site_fract_y
_atom_site_fract_z
Si Si1 0.500000 0.500000 0.500000
Si Si2 0.736200 0.573921 0.706909
Si Si3 0.267307 0.461738 0.391588
Si Si4 0.898325 0.246179 0.180505
Si Si5 0.248605 0.382551 0.938680
O O1 0.337498 0.482242 0.458893
O O2 0.798237 0.387446 0.699996
O O3 0.594081 0.592053 0.655726
O O4 0.653271 0.605673 0.771755
O O5 0.184109 0.636590 0.380101
O O6 0.787772 0.409600 0.189961
O O7 0.871224 0.171972 0.114405
O O8 0.217644 0.577828 0.934347
O O9 0.343530 0.343530 0.000000
#
# Coordination Sequence:
#
# PCOD8304676 Si02
#       5
#     2   8   8   8   8
#     4  12  24  44  68  96 132 172 214 268 324 388
#     4  11  24  42  66  98 135 176 224 279 341 409
#     4  11  24  42  66  96 130 171 218 268 327 395
#     4  11  24  41  63  94 131 173 224 281 342 409
#     4  11  24  41  62  91 127 170 224 283 344 413
#
# _framework density 23.601558000000001
#
# number of rings (size 3 to 8) (size 9 to 14) (size 15 to 20)
#    0.000    0.941    0.000    6.353    0.000   13.647 
#    0.000    2.353    0.000    0.000    0.000    0.000 
#    0.000    0.000    0.000    0.000    0.000    0.000 
#
# Total GULP energy -421603.116463 kJ/mol
# GULP energy per Si atom -12400.091661 kJ/mol
# Density = 2.354784 g / cm^3
# Si number density = 23.601558 Si / 1000 Ang^3
#
#
#
# Elastic Constant Matrix: (Units=GPa)
#
#
# Indices 1 2 3 4 5 6 
#
# 1 70.6846 26.0029 37.9507 0.0000 0.0000 0.0000
# 2 26.0029 70.6846 37.9507 0.0000 0.0000 0.0000
# 3 37.9507 37.9507 168.1712 0.0000 0.0000 0.0000
# 4 0.0000 0.0000 0.0000 28.6024 0.0000 0.0000
# 5 0.0000 0.0000 0.0000 0.0000 28.6024 0.0000
# 6 0.0000 0.0000 0.0000 0.0000 0.0000 36.2831
#
#
#
# Elastic Compliance Matrix: (Units=1/GPa)
#
#
# Indices 1 2 3 4 5 6 
#
# 1 0.017475 -0.004906 -0.002836 0.000000 0.000000 0.000000
# 2 -0.004906 0.017475 -0.002836 0.000000 0.000000 0.000000
# 3 -0.002836 -0.002836 0.007227 0.000000 0.000000 0.000000
# 4 0.000000 0.000000 0.000000 0.034962 0.000000 0.000000
# 5 0.000000 0.000000 0.000000 0.000000 0.034962 0.000000
# 6 0.000000 0.000000 0.000000 0.000000 0.000000 0.027561
#
#
# Mechanical properties :
#
#
# Convention : Reuss Voigt Hill
#
# Bulk Modulus (GPa) = 47.57561 57.03880 52.30720
# Shear Modulus (GPa) = 29.79295 32.54001 31.16648
#
# Velocity S-wave (km/s) = 3.55678 3.71714 3.63785
# Velocity P-wave (km/s) = 6.08845 6.53014 6.31316
#
# Compressibility (1/GPa) = 0.02101917
#
# Stress axis : x y z
#
# Youngs Moduli (GPa) = 57.22494 57.22494 138.37930
#
# Poissons Ratio (x) = 0.28072 0.39251
# Poissons Ratio (y) = 0.28072 0.39251
# Poissons Ratio (z) = 0.16232 0.16232
#
# Static dielectric constant tensor:
#      x y z
#    x 4.393580 0.000000 0.000000 
#    y 0.000000 4.393580 0.000000 
#    z 0.000000 0.000000 4.144140 
# 
# 
# High freq. dielectric constant tensor:
#      x y z
#    x 1.956070 0.000000 0.000000 
#    y 0.000000 1.956070 0.000000 
#    z 0.000000 0.000000 1.935880 
# 
# From -- ./inp_files/2752.got.cif
#   From: 2010.03.12/outbox.cif.g09.slc.cpg/sg90_2_cif.got.tgz:2752.got - 2010.04.08 20:26:03.
