data_PCOD8304077
_publ_section_title
;
Structure prediction by ZEFSAII (Michael W. Deem and Ramdas Pophale) SiO2 
 PCOD8304077
Probable space group: I 4/M
;
_chemical_formula_sum "Si O2"
_cell_formula_units_Z 112
_cell_length_a 15.538893
_cell_length_b 15.538893
_cell_length_c 21.593804
_cell_angle_alpha 90.000000
_cell_angle_beta 90.000000
_cell_angle_gamma 90.000000
_cell_volume 5213.979358
_symmetry_space_group_name_H-M "I 4/M"
_symmetry_group_IT_number 87
_symmetry_cell_setting 'tetragonal'
loop_
_space_group_symop_operation_xyz
x,y,z
-y,x,z
-x,-y,z
y,-x,z
-x,-y,-z
y,-x,-z
x,y,-z
-y,x,-z
1/2+x,1/2+y,1/2+z
1/2-y,1/2+x,1/2+z
1/2-x,1/2-y,1/2+z
1/2+y,1/2-x,1/2+z
1/2-x,1/2-y,1/2-z
1/2+y,1/2-x,1/2-z
1/2+x,1/2+y,1/2-z
1/2-y,1/2+x,1/2-z
loop_
_atom_site_type_symbol
_atom_site_label
_atom_site_fract_x
_atom_site_fract_y
_atom_site_fract_z
Si Si1 0.641636 0.484074 0.331651
Si Si2 0.589127 0.967819 0.931071
Si Si3 0.903800 0.739947 0.929508
Si Si4 0.402634 0.594682 0.073167
Si Si5 0.276165 0.037552 0.267223
Si Si6 0.148482 0.626369 0.175663
Si Si7 0.304555 0.732765 0.145599
O O1 0.594491 0.575410 0.330046
O O2 0.694606 0.469072 0.395009
O O3 0.702901 0.486735 0.271579
O O4 0.629770 0.889179 0.893410
O O5 0.500000 0.000000 0.900649
O O6 0.648840 0.050781 0.932793
O O7 0.572859 0.931754 0.000000
O O8 0.817976 0.725804 0.889718
O O9 0.884373 0.772836 0.000000
O O10 0.379893 0.498416 0.097162
O O11 0.331438 0.660545 0.096414
O O12 0.401918 0.596440 0.000000
O O13 0.350417 0.071325 0.221878
O O14 0.243041 0.117631 0.306866
O O15 0.317285 0.968892 0.312962
O O16 0.222333 0.698094 0.183144
#
# Coordination Sequence:
#
# PCOD8304077 Si02
#       7
#    16  16  16  16  16  16  16
#     4  11  24  45  69  97 134 178 229 284 338 397
#     4  10  23  44  67  95 129 169 219 272 331 392
#     4  11  24  43  68  99 136 175 221 283 340 404
#     4   9  19  37  62  94 133 175 220 272 336 409
#     4  12  25  43  66  98 133 175 228 270 338 395
#     4  12  26  42  69  95 132 175 218 275 330 404
#     4  12  24  42  64 101 135 174 225 277 338 401
#
# _framework density 21.480713000000002
#
# number of rings (size 3 to 8) (size 9 to 14) (size 15 to 20)
#    0.000    1.000    1.429    5.571    2.000    1.714 
#    0.000    5.714    0.000    0.000    0.000    0.000 
#    0.000    0.000    0.000    0.000    0.000    0.000 
#
# Total GULP energy -694482.243422 kJ/mol
# GULP energy per Si atom -12401.468633 kJ/mol
# Density = 2.143182 g / cm^3
# Si number density = 21.480713 Si / 1000 Ang^3
#
#
#
# Elastic Constant Matrix: (Units=GPa)
#
#
# Indices 1 2 3 4 5 6 
#
# 1 98.9358 36.3843 35.9261 0.0000 0.0000 4.5148
# 2 36.3843 98.9358 35.9261 0.0000 0.0000 -4.5148
# 3 35.9261 35.9261 96.6339 0.0000 0.0000 0.0000
# 4 0.0000 0.0000 0.0000 29.4999 0.0000 0.0000
# 5 0.0000 0.0000 0.0000 0.0000 29.4999 0.0000
# 6 4.5148 -4.5148 0.0000 0.0000 0.0000 43.5652
#
#
#
# Elastic Compliance Matrix: (Units=1/GPa)
#
#
# Indices 1 2 3 4 5 6 
#
# 1 0.012719 -0.003511 -0.003423 0.000000 0.000000 -0.001682
# 2 -0.003511 0.012719 -0.003423 0.000000 0.000000 0.001682
# 3 -0.003423 -0.003423 0.012894 0.000000 0.000000 0.000000
# 4 0.000000 0.000000 0.000000 0.033898 0.000000 0.000000
# 5 0.000000 0.000000 0.000000 0.000000 0.033898 0.000000
# 6 -0.001682 0.001682 0.000000 0.000000 0.000000 0.023303
#
#
# Mechanical properties :
#
#
# Convention : Reuss Voigt Hill
#
# Bulk Modulus (GPa) = 56.76623 56.77539 56.77081
# Shear Modulus (GPa) = 32.04782 32.93094 32.48938
#
# Velocity S-wave (km/s) = 3.86675 3.91966 3.89329
# Velocity P-wave (km/s) = 6.81319 6.85370 6.83348
#
# Compressibility (1/GPa) = 0.01761611
#
# Stress axis : x y z
#
# Youngs Moduli (GPa) = 78.62522 78.62522 77.55785
#
# Poissons Ratio (x) = 0.27606 0.26549
# Poissons Ratio (y) = 0.27606 0.26549
# Poissons Ratio (z) = 0.26914 0.26914
#
# Static dielectric constant tensor:
#      x y z
#    x 4.026700 0.000000 0.000000 
#    y 0.000000 4.026700 0.000000 
#    z 0.000000 0.000000 4.017810 
# 
# 
# High freq. dielectric constant tensor:
#      x y z
#    x 1.851740 0.000000 0.000000 
#    y 0.000000 1.851740 0.000000 
#    z 0.000000 0.000000 1.846320 
# 
# From -- ./inp_files/5879.got.cif
#   From: 2010.03.12/outbox.cif.g09.slc.cpg/sg87_3_cif.got.tgz:5879.got - 2010.04.08 20:16:13.
