data_PCOD8304702
_publ_section_title
;
Structure prediction by ZEFSAII (Michael W. Deem and Ramdas Pophale) SiO2 
 PCOD8304702
Probable space group: P 41 2 2
;
_chemical_formula_sum "Si O2"
_cell_formula_units_Z 56
_cell_length_a 14.665787
_cell_length_b 14.665787
_cell_length_c 15.506297
_cell_angle_alpha 90.000000
_cell_angle_beta 90.000000
_cell_angle_gamma 90.000000
_cell_volume 3335.176671
_symmetry_space_group_name_H-M "P 41 2 2"
_symmetry_group_IT_number 91
_symmetry_cell_setting 'tetragonal'
loop_
_space_group_symop_operation_xyz
x,y,z
-y,x,1/4+z
-x,-y,1/2+z
y,-x,3/4+z
x,-y,1/2-z
-x,y,-z
y,x,3/4-z
-y,-x,1/4-z
loop_
_atom_site_type_symbol
_atom_site_label
_atom_site_fract_x
_atom_site_fract_y
_atom_site_fract_z
Si Si1 0.696737 0.492557 0.121527
Si Si2 0.513494 0.898948 0.376651
Si Si3 0.759919 0.045894 0.397414
Si Si4 0.352814 0.946239 0.475877
Si Si5 0.863685 0.863685 0.375000
Si Si6 0.000000 0.622593 0.500000
Si Si7 0.791965 0.783391 0.200940
Si Si8 0.358498 0.642805 0.763167
O O1 0.799187 0.531284 0.120262
O O2 0.697625 0.407896 0.187879
O O3 0.630607 0.573825 0.155173
O O4 0.667045 0.458184 0.026211
O O5 0.432430 0.969412 0.406344
O O6 0.597706 0.899112 0.443046
O O7 0.554448 0.922269 0.284105
O O8 0.683641 0.040589 0.324391
O O9 0.798540 0.147283 0.381350
O O10 0.707306 0.032489 0.489490
O O11 0.841616 0.971127 0.389163
O O12 0.286037 0.873276 0.432933
O O13 0.805420 0.835042 0.291874
O O14 0.694276 0.733412 0.206235
#
# Coordination Sequence:
#
# PCOD8304702 Si02
#       8
#     8   8   8   8   4   4   8   8
#     4  10  17  27  41  69  96 123 163 192 251 288
#     4  10  16  31  43  71 100 123 159 195 255 298
#     4  10  19  27  41  72  98 130 157 191 252 294
#     4   9  18  28  45  65 103 125 150 198 247 290
#     4  10  18  26  40  62 102 126 150 198 238 302
#     4  10  18  26  44  70  96 122 156 200 238 300
#     4  11  16  27  43  68  96 126 157 188 243 298
#     4  10  18  25  43  67  97 126 152 203 241 295
#
# _framework density 16.790716
#
# number of rings (size 3 to 8) (size 9 to 14) (size 15 to 20)
#    0.000    2.000    4.286    2.571    2.000    0.000 
#    0.000    0.000    0.000    0.000    7.429   38.000 
#    0.000    0.000    0.000    0.000    0.000    0.000 
#
# Total GULP energy -693751.536773 kJ/mol
# GULP energy per Si atom -12388.420300 kJ/mol
# Density = 1.675250 g / cm^3
# Si number density = 16.790716 Si / 1000 Ang^3
#
#
#
# Elastic Constant Matrix: (Units=GPa)
#
#
# Indices 1 2 3 4 5 6 
#
# 1 79.5511 36.5086 31.8303 0.0000 0.0000 0.0000
# 2 36.5086 79.5511 31.8303 0.0000 0.0000 0.0000
# 3 31.8303 31.8303 41.7187 0.0000 0.0000 0.0000
# 4 0.0000 0.0000 0.0000 23.7818 0.0000 0.0000
# 5 0.0000 0.0000 0.0000 0.0000 23.7818 0.0000
# 6 0.0000 0.0000 0.0000 0.0000 0.0000 18.3005
#
#
#
# Elastic Compliance Matrix: (Units=1/GPa)
#
#
# Indices 1 2 3 4 5 6 
#
# 1 0.019025 -0.004208 -0.011305 0.000000 0.000000 0.000000
# 2 -0.004208 0.019025 -0.011305 0.000000 0.000000 0.000000
# 3 -0.011305 -0.011305 0.041221 0.000000 0.000000 0.000000
# 4 0.000000 0.000000 0.000000 0.042049 0.000000 0.000000
# 5 0.000000 0.000000 0.000000 0.000000 0.042049 0.000000
# 6 0.000000 0.000000 0.000000 0.000000 0.000000 0.054643
#
#
# Mechanical properties :
#
#
# Convention : Reuss Voigt Hill
#
# Bulk Modulus (GPa) = 39.00920 44.57327 41.79123
# Shear Modulus (GPa) = 17.84475 19.88294 18.86384
#
# Velocity S-wave (km/s) = 3.26356 3.44490 3.35545
# Velocity P-wave (km/s) = 6.12243 6.51361 6.32105
#
# Compressibility (1/GPa) = 0.02563498
#
# Stress axis : x y z
#
# Youngs Moduli (GPa) = 52.56201 52.56201 24.25921
#
# Poissons Ratio (x) = 0.22117 0.27426
# Poissons Ratio (y) = 0.22117 0.27426
# Poissons Ratio (z) = 0.59423 0.59423
#
# Static dielectric constant tensor:
#      x y z
#    x 3.191950 0.000000 0.000000 
#    y 0.000000 3.191950 0.000000 
#    z 0.000000 0.000000 3.050170 
# 
# 
# High freq. dielectric constant tensor:
#      x y z
#    x 1.631560 0.000000 0.000000 
#    y 0.000000 1.631560 0.000000 
#    z 0.000000 0.000000 1.604300 
# 
# From -- ./inp_files/21194.got.cif
#   From: 2010.03.12/outbox.cif.g09.slc.cpg/sg91_11_cif.got.tgz:21194.got - 2010.04.08 20:27:58.
