data_PCOD8304735
_publ_section_title
;
Structure prediction by ZEFSAII (Michael W. Deem and Ramdas Pophale) SiO2 
 PCOD8304735
Probable space group: P 41 2 2
;
_chemical_formula_sum "Si O2"
_cell_formula_units_Z 48
_cell_length_a 11.065168
_cell_length_b 11.065168
_cell_length_c 17.668636
_cell_angle_alpha 90.000000
_cell_angle_beta 90.000000
_cell_angle_gamma 90.000000
_cell_volume 2163.311445
_symmetry_space_group_name_H-M "P 41 2 2"
_symmetry_group_IT_number 91
_symmetry_cell_setting 'tetragonal'
loop_
_space_group_symop_operation_xyz
x,y,z
-y,x,1/4+z
-x,-y,1/2+z
y,-x,3/4+z
x,-y,1/2-z
-x,y,-z
y,x,3/4-z
-y,-x,1/4-z
loop_
_atom_site_type_symbol
_atom_site_label
_atom_site_fract_x
_atom_site_fract_y
_atom_site_fract_z
Si Si1 0.705672 0.216170 0.326216
Si Si2 0.748630 0.412421 0.075262
Si Si3 0.579966 0.098548 0.927743
Si Si4 0.390286 0.549816 0.326549
Si Si5 0.865739 0.042120 0.409619
Si Si6 0.788997 0.054738 0.585412
O O1 0.636093 0.186461 0.249461
O O2 0.812918 0.308155 0.304535
O O3 0.618289 0.281706 0.384312
O O4 0.748063 0.089575 0.363700
O O5 0.700607 0.299394 0.125000
O O6 0.852289 0.492213 0.113628
O O7 0.634269 0.495622 0.055520
O O8 0.645302 0.971247 0.907712
O O9 0.500000 0.078051 0.000000
O O10 0.332890 0.500000 0.250000
O O11 0.437289 0.437289 0.375000
O O12 0.837897 0.035087 0.499348
O O13 0.967879 0.141494 0.394634
O O14 0.912730 0.912730 0.375000
O O15 0.814068 0.185933 0.625000
#
# Coordination Sequence:
#
# PCOD8304735 Si02
#       6
#     8   8   8   8   8   8
#     4  10  20  35  61  96 129 180 222 266 335 403
#     4  10  18  31  58  94 139 175 212 262 331 400
#     4  10  20  36  60 101 139 169 215 277 334 398
#     4  10  18  30  54  88 131 181 223 254 311 402
#     4  10  21  42  68  97 125 166 236 292 346 399
#     4  10  21  42  72  94 125 175 228 284 346 403
#
# _framework density 22.188205
#
# number of rings (size 3 to 8) (size 9 to 14) (size 15 to 20)
#    0.000    2.000    3.333    2.000    0.000    0.000 
#    9.000    2.500   22.000    0.000    0.000    0.000 
#    0.000    0.000    0.000    0.500    0.000    0.167 
#
# Total GULP energy -594860.028667 kJ/mol
# GULP energy per Si atom -12392.917264 kJ/mol
# Density = 2.213770 g / cm^3
# Si number density = 22.188205 Si / 1000 Ang^3
#
#
#
# Elastic Constant Matrix: (Units=GPa)
#
#
# Indices 1 2 3 4 5 6 
#
# 1 89.2726 67.9301 66.2887 0.0000 0.0000 0.0000
# 2 67.9301 89.2734 66.2891 0.0000 0.0000 0.0000
# 3 66.2887 66.2891 152.5445 0.0000 0.0000 0.0000
# 4 0.0000 0.0000 0.0000 22.4403 0.0000 0.0000
# 5 0.0000 0.0000 0.0000 0.0000 22.4366 0.0000
# 6 0.0000 0.0000 0.0000 0.0000 0.0000 -73.1273
#
#
#
# Elastic Compliance Matrix: (Units=1/GPa)
#
#
# Indices 1 2 3 4 5 6 
#
# 1 0.028448 -0.018406 -0.004363 0.000000 0.000000 0.000000
# 2 -0.018406 0.028447 -0.004363 0.000000 0.000000 0.000000
# 3 -0.004363 -0.004363 0.010348 0.000000 0.000000 0.000000
# 4 0.000000 0.000000 0.000000 0.044563 0.000000 0.000000
# 5 0.000000 0.000000 0.000000 0.000000 0.044570 0.000000
# 6 0.000000 0.000000 0.000000 0.000000 0.000000 -0.013675
#
#
# Mechanical properties :
#
#
# Convention : Reuss Voigt Hill
#
# Bulk Modulus (GPa) = 77.06351 81.34515 79.20433
# Shear Modulus (GPa) = 24.83947 3.05543 13.94745
#
# Velocity S-wave (km/s) = 3.34951 1.17475 2.50990
# Velocity P-wave (km/s) = 7.05451 6.21137 6.64632
#
# Compressibility (1/GPa) = 0.01297631
#
# Stress axis : x y z
#
# Youngs Moduli (GPa) = 35.15227 35.15256 96.63947
#
# Poissons Ratio (x) = 0.64703 0.42168
# Poissons Ratio (y) = 0.64703 0.42168
# Poissons Ratio (z) = 0.15338 0.15339
#
# Static dielectric constant tensor:
#      x y z
#    x 4.685180 0.000000 0.000000 
#    y 0.000000 4.685650 0.000000 
#    z 0.000000 0.000000 3.937740 
# 
# 
# High freq. dielectric constant tensor:
#      x y z
#    x 1.858930 0.000000 0.000000 
#    y 0.000000 1.858930 0.000000 
#    z 0.000000 0.000000 1.880250 
# 
# From -- ./inp_files/5603.got.cif
#   From: 2010.03.12/outbox.cif.g09.slc.cpg/sg91_3_cif.got.tgz:5603.got - 2010.04.08 20:27:58.
