data_PCOD8304086
_publ_section_title
;
Structure prediction by ZEFSAII (Michael W. Deem and Ramdas Pophale) SiO2 
 PCOD8304086
Probable space group: I 4/M
;
_chemical_formula_sum "Si O2"
_cell_formula_units_Z 88
_cell_length_a 11.158866
_cell_length_b 11.158866
_cell_length_c 29.232562
_cell_angle_alpha 90.000000
_cell_angle_beta 90.000000
_cell_angle_gamma 90.000000
_cell_volume 3640.047110
_symmetry_space_group_name_H-M "I 4/M"
_symmetry_group_IT_number 87
_symmetry_cell_setting 'tetragonal'
loop_
_space_group_symop_operation_xyz
x,y,z
-y,x,z
-x,-y,z
y,-x,z
-x,-y,-z
y,-x,-z
x,y,-z
-y,x,-z
1/2+x,1/2+y,1/2+z
1/2-y,1/2+x,1/2+z
1/2-x,1/2-y,1/2+z
1/2+y,1/2-x,1/2+z
1/2-x,1/2-y,1/2-z
1/2+y,1/2-x,1/2-z
1/2+x,1/2+y,1/2-z
1/2-y,1/2+x,1/2-z
loop_
_atom_site_type_symbol
_atom_site_label
_atom_site_fract_x
_atom_site_fract_y
_atom_site_fract_z
Si Si1 0.440783 0.686119 0.052972
Si Si2 0.187924 0.504683 0.259523
Si Si3 0.833364 0.102963 0.000000
Si Si4 0.212436 0.631100 0.594618
Si Si5 0.185503 0.950697 0.672442
Si Si6 0.206568 0.391822 0.355226
O O1 0.351193 0.576303 0.063945
O O2 0.409568 0.792119 0.088736
O O3 0.429710 0.724474 0.000000
O O4 0.116312 0.401445 0.231226
O O5 0.297193 0.549175 0.227634
O O6 0.238327 0.454604 0.307153
O O7 0.768282 0.148096 0.955144
O O8 0.961496 0.163172 0.000000
O O9 0.307539 0.681772 0.631417
O O10 0.182211 0.494241 0.607020
O O11 0.311506 0.913401 0.649333
O O12 0.083747 0.855167 0.657626
#
# Coordination Sequence:
#
# PCOD8304086 Si02
#       6
#    16  16   8  16  16  16
#     4   9  20  43  73 103 143 200 251 297 370 445
#     4   9  21  44  71 100 145 190 236 303 377 436
#     4  11  22  44  72  97 150 200 244 294 383 449
#     4  12  24  44  72 108 150 194 246 316 368 445
#     4  10  24  47  74 103 141 195 239 304 384 449
#     4  11  27  42  71 112 144 189 256 306 367 445
#
# _framework density 24.175512999999999
#
# number of rings (size 3 to 8) (size 9 to 14) (size 15 to 20)
#    0.000    1.727    2.727    0.545    5.091    3.273 
#    9.818    1.818    0.000    3.273    0.000    0.000 
#    0.000    0.000    0.000    0.000    0.000    0.000 
#
# Total GULP energy -545584.553568 kJ/mol
# GULP energy per Si atom -12399.648945 kJ/mol
# Density = 2.412049 g / cm^3
# Si number density = 24.175513 Si / 1000 Ang^3
#
#
#
# Elastic Constant Matrix: (Units=GPa)
#
#
# Indices 1 2 3 4 5 6 
#
# 1 98.7901 40.2436 32.6126 0.0000 0.0000 -1.0557
# 2 40.2436 98.7901 32.6126 0.0000 0.0000 1.0557
# 3 32.6126 32.6126 94.5993 0.0000 0.0000 0.0000
# 4 0.0000 0.0000 0.0000 101.9730 0.0000 0.0000
# 5 0.0000 0.0000 0.0000 0.0000 101.9730 0.0000
# 6 -1.0557 1.0557 0.0000 0.0000 0.0000 26.9144
#
#
#
# Elastic Compliance Matrix: (Units=1/GPa)
#
#
# Indices 1 2 3 4 5 6 
#
# 1 0.012842 -0.004262 -0.002958 0.000000 0.000000 0.000671
# 2 -0.004262 0.012842 -0.002958 0.000000 0.000000 -0.000671
# 3 -0.002958 -0.002958 0.012610 0.000000 0.000000 0.000000
# 4 0.000000 0.000000 0.000000 0.009807 0.000000 0.000000
# 5 0.000000 0.000000 0.000000 0.000000 0.009807 0.000000
# 6 0.000671 -0.000671 0.000000 0.000000 0.000000 0.037208
#
#
# Mechanical properties :
#
#
# Convention : Reuss Voigt Hill
#
# Bulk Modulus (GPa) = 55.74490 55.90193 55.82341
# Shear Modulus (GPa) = 41.16861 58.61946 49.89404
#
# Velocity S-wave (km/s) = 4.13110 4.92951 4.54786
# Velocity P-wave (km/s) = 6.77224 7.45478 7.12169
#
# Compressibility (1/GPa) = 0.01793886
#
# Stress axis : x y z
#
# Youngs Moduli (GPa) = 77.86701 77.86701 79.29960
#
# Poissons Ratio (x) = 0.33189 0.23457
# Poissons Ratio (y) = 0.33189 0.23457
# Poissons Ratio (z) = 0.23033 0.23033
#
# Static dielectric constant tensor:
#      x y z
#    x 4.253460 0.000000 0.000000 
#    y 0.000000 4.253460 0.000000 
#    z 0.000000 0.000000 4.388270 
# 
# 
# High freq. dielectric constant tensor:
#      x y z
#    x 1.952570 0.000000 0.000000 
#    y 0.000000 1.952570 0.000000 
#    z 0.000000 0.000000 1.976830 
# 
# From -- ./inp_files/6554.got.cif
#   From: 2010.03.12/outbox.cif.g09.slc.cpg/sg87_4_cif.got.tgz:6554.got - 2010.04.08 20:16:13.
