data_PCOD8304771
_publ_section_title
;
Structure prediction by ZEFSAII (Michael W. Deem and Ramdas Pophale) SiO2 
 PCOD8304771
Probable space group: P 41 2 2
;
_chemical_formula_sum "Si O2"
_cell_formula_units_Z 64
_cell_length_a 12.075492
_cell_length_b 12.075492
_cell_length_c 25.645936
_cell_angle_alpha 90.000000
_cell_angle_beta 90.000000
_cell_angle_gamma 90.000000
_cell_volume 3739.626453
_symmetry_space_group_name_H-M "P 41 2 2"
_symmetry_group_IT_number 91
_symmetry_cell_setting 'tetragonal'
loop_
_space_group_symop_operation_xyz
x,y,z
-y,x,1/4+z
-x,-y,1/2+z
y,-x,3/4+z
x,-y,1/2-z
-x,y,-z
y,x,3/4-z
-y,-x,1/4-z
loop_
_atom_site_type_symbol
_atom_site_label
_atom_site_fract_x
_atom_site_fract_y
_atom_site_fract_z
Si Si1 0.559116 0.614148 0.227513
Si Si2 0.747409 0.182040 0.813623
Si Si3 0.165549 0.494444 0.522695
Si Si4 0.210333 0.182379 0.454630
Si Si5 0.027947 0.720544 0.119605
Si Si6 0.038956 0.481254 0.082005
Si Si7 0.686783 0.566547 0.799884
Si Si8 0.392984 0.752061 0.869676
O O1 0.617258 0.500000 0.250000
O O2 0.540399 0.707677 0.273306
O O3 0.444970 0.572393 0.203270
O O4 0.628717 0.675195 0.181619
O O5 0.630671 0.150312 0.789578
O O6 0.836659 0.183571 0.766063
O O7 0.728025 0.299657 0.838946
O O8 0.777743 0.090742 0.857299
O O9 0.122329 0.488859 0.464369
O O10 0.080377 0.563966 0.560480
O O11 0.241341 0.065754 0.427276
O O12 0.108375 0.237162 0.425388
O O13 0.310575 0.267502 0.449693
O O14 0.020571 0.587291 0.119137
O O15 0.113606 0.388960 0.111199
O O16 0.735071 0.500000 0.750000
O O17 0.719783 0.509926 0.854351
#
# Coordination Sequence:
#
# PCOD8304771 Si02
#       8
#     8   8   8   8   8   8   8   8
#     4  10  19  30  45  70 100 137 173 205 257 311
#     4  11  19  32  47  74 107 134 170 214 258 312
#     4   9  16  28  45  67  98 130 162 211 248 307
#     4  11  18  30  48  73 107 132 160 206 263 318
#     4  10  20  28  49  76 102 134 166 200 262 318
#     4   9  16  28  45  69  97 127 170 203 252 304
#     4  11  18  27  43  76 111 135 154 200 278 318
#     4  11  20  29  47  72 107 136 169 213 254 321
#
# _framework density 17.11401
#
# number of rings (size 3 to 8) (size 9 to 14) (size 15 to 20)
#    0.000    1.750    5.000    2.250    1.750    0.000 
#    0.000    0.000    0.000    3.750   26.000    0.000 
#    0.000    0.000    0.000    0.000    0.000    0.000 
#
# Total GULP energy -792934.762070 kJ/mol
# GULP energy per Si atom -12389.605657 kJ/mol
# Density = 1.707506 g / cm^3
# Si number density = 17.114010 Si / 1000 Ang^3
#
#
#
# Elastic Constant Matrix: (Units=GPa)
#
#
# Indices 1 2 3 4 5 6 
#
# 1 53.0644 8.6703 16.1373 0.0000 0.0000 0.0000
# 2 8.6703 53.0644 16.1373 0.0000 0.0000 0.0000
# 3 16.1373 16.1373 64.9173 0.0000 0.0000 0.0000
# 4 0.0000 0.0000 0.0000 18.5648 0.0000 0.0000
# 5 0.0000 0.0000 0.0000 0.0000 18.5648 0.0000
# 6 0.0000 0.0000 0.0000 0.0000 0.0000 4.0975
#
#
#
# Elastic Compliance Matrix: (Units=1/GPa)
#
#
# Indices 1 2 3 4 5 6 
#
# 1 0.020572 -0.001954 -0.004628 0.000000 0.000000 0.000000
# 2 -0.001954 0.020572 -0.004628 0.000000 0.000000 0.000000
# 3 -0.004628 -0.004628 0.017705 0.000000 0.000000 0.000000
# 4 0.000000 0.000000 0.000000 0.053865 0.000000 0.000000
# 5 0.000000 0.000000 0.000000 0.000000 0.053865 0.000000
# 6 0.000000 0.000000 0.000000 0.000000 0.000000 0.244052
#
#
# Mechanical properties :
#
#
# Convention : Reuss Voigt Hill
#
# Bulk Modulus (GPa) = 27.45100 28.10401 27.77751
# Shear Modulus (GPa) = 11.23107 16.91885 14.07496
#
# Velocity S-wave (km/s) = 2.56452 3.14761 2.87090
# Velocity P-wave (km/s) = 4.98436 5.44676 5.22068
#
# Compressibility (1/GPa) = 0.03642855
#
# Stress axis : x y z
#
# Youngs Moduli (GPa) = 48.61050 48.61050 56.48084
#
# Poissons Ratio (x) = 0.09498 0.26140
# Poissons Ratio (y) = 0.09498 0.26140
# Poissons Ratio (z) = 0.22497 0.22497
#
# Static dielectric constant tensor:
#      x y z
#    x 3.173000 0.000000 0.000000 
#    y 0.000000 3.173000 0.000000 
#    z 0.000000 0.000000 3.524120 
# 
# 
# High freq. dielectric constant tensor:
#      x y z
#    x 1.632150 0.000000 0.000000 
#    y 0.000000 1.632150 0.000000 
#    z 0.000000 0.000000 1.657570 
# 
# From -- ./inp_files/12942.got.cif
#   From: 2010.03.12/outbox.cif.g09.slc.cpg/sg91_7_cif.got.tgz:12942.got - 2010.04.08 20:27:58.
