data_PCOD8304183
_publ_section_title
;
Structure prediction by ZEFSAII (Michael W. Deem and Ramdas Pophale) SiO2 
 PCOD8304183
Probable space group: I 41/A
;
_chemical_formula_sum "Si O2"
_cell_formula_units_Z 96
_cell_length_a 20.974698
_cell_length_b 20.974698
_cell_length_c 12.796177
_cell_angle_alpha 90.000000
_cell_angle_beta 90.000000
_cell_angle_gamma 90.000000
_cell_volume 5629.523956
_symmetry_space_group_name_H-M "I 41/A"
_symmetry_group_IT_number 88
_space_group.IT_coordinate_system_code '2'
_symmetry_cell_setting 'tetragonal'
loop_
_space_group_symop_operation_xyz
x,y,z
3/4-y,1/4+x,1/4+z
-x,1/2-y,z
1/4+y,1/4-x,1/4+z
-x,-y,-z
1/4+y,3/4-x,3/4-z
x,1/2+y,-z
3/4-y,3/4+x,3/4-z
1/2+x,1/2+y,1/2+z
1/4-y,3/4+x,3/4+z
1/2-x,-y,1/2+z
3/4+y,3/4-x,3/4+z
1/2-x,1/2-y,1/2-z
3/4+y,1/4-x,1/4-z
1/2+x,y,1/2-z
1/4-y,1/4+x,1/4-z
loop_
_atom_site_type_symbol
_atom_site_label
_atom_site_fract_x
_atom_site_fract_y
_atom_site_fract_z
Si Si1 0.165740 0.491960 0.499412
Si Si2 0.370140 0.878356 0.630291
Si Si3 0.755321 0.872537 0.024360
Si Si4 0.506744 0.089380 0.467389
Si Si5 0.631871 0.497729 0.773528
Si Si6 0.218006 0.742914 0.580143
O O1 0.120183 0.485862 0.399105
O O2 0.203230 0.425599 0.499508
O O3 0.214989 0.550429 0.495882
O O4 0.122609 0.503805 0.601612
O O5 0.319032 0.891580 0.538707
O O6 0.357863 0.814370 0.691545
O O7 0.438566 0.864764 0.577142
O O8 0.368028 0.934139 0.716354
O O9 0.733086 0.801750 0.994863
O O10 0.511867 0.090534 0.594064
O O11 0.524393 0.022661 0.413293
O O12 0.571662 0.455270 0.735348
#
# Coordination Sequence:
#
# PCOD8304183 Si02
#       6
#    16  16  16  16  16  16
#     4  10  20  31  48  73  96 126 166 202 244 291
#     4  10  18  31  48  68  96 124 154 198 246 291
#     4  10  19  31  48  70  98 128 160 202 248 295
#     4   9  18  29  46  68  91 121 156 190 236 290
#     4  10  19  31  48  70  98 128 160 202 248 295
#     4   9  18  31  46  68  95 125 156 191 242 293
#
# _framework density 17.052951
#
# number of rings (size 3 to 8) (size 9 to 14) (size 15 to 20)
#    0.000    2.333    0.000    4.000    0.000    6.333 
#    0.000    0.000    0.000    0.000    0.000    2.333 
#    0.000    0.000    0.000    0.000    0.000    0.000 
#
# Total GULP energy -594803.816330 kJ/mol
# GULP energy per Si atom -12391.746174 kJ/mol
# Density = 1.701414 g / cm^3
# Si number density = 17.052951 Si / 1000 Ang^3
#
#
#
# Elastic Constant Matrix: (Units=GPa)
#
#
# Indices 1 2 3 4 5 6 
#
# 1 54.5572 -0.7541 32.1492 0.0000 0.0000 6.6006
# 2 -0.7541 54.5572 32.1492 0.0000 0.0000 -6.6006
# 3 32.1492 32.1492 147.7172 0.0000 0.0000 0.0000
# 4 0.0000 0.0000 0.0000 19.2931 0.0000 0.0000
# 5 0.0000 0.0000 0.0000 0.0000 19.2931 0.0000
# 6 6.6006 -6.6006 0.0000 0.0000 0.0000 11.2364
#
#
#
# Elastic Compliance Matrix: (Units=1/GPa)
#
#
# Indices 1 2 3 4 5 6 
#
# 1 0.023074 0.002046 -0.005467 0.000000 0.000000 -0.012352
# 2 0.002046 0.023074 -0.005467 0.000000 0.000000 0.012352
# 3 -0.005467 -0.005467 0.009149 0.000000 0.000000 0.000000
# 4 0.000000 0.000000 0.000000 0.051832 0.000000 0.000000
# 5 0.000000 0.000000 0.000000 0.000000 0.051832 0.000000
# 6 -0.012352 0.012352 0.000000 0.000000 0.000000 0.103509
#
#
# Mechanical properties :
#
#
# Convention : Reuss Voigt Hill
#
# Bulk Modulus (GPa) = 26.65197 42.65780 34.65488
# Shear Modulus (GPa) = 17.07927 22.85035 19.96481
#
# Velocity S-wave (km/s) = 3.16815 3.66452 3.42534
# Velocity P-wave (km/s) = 5.38941 6.55547 6.00083
#
# Compressibility (1/GPa) = 0.03752068
#
# Stress axis : x y z
#
# Youngs Moduli (GPa) = 43.33938 43.33938 109.29673
#
# Poissons Ratio (x) = -0.08868 0.59753
# Poissons Ratio (y) = -0.08868 0.59753
# Poissons Ratio (z) = 0.23694 0.23694
#
# Static dielectric constant tensor:
#      x y z
#    x 3.091770 0.000000 0.000000 
#    y 0.000000 3.091770 0.000000 
#    z 0.000000 0.000000 3.567130 
# 
# 
# High freq. dielectric constant tensor:
#      x y z
#    x 1.642470 0.000000 0.000000 
#    y 0.000000 1.642470 0.000000 
#    z 0.000000 0.000000 1.673160 
# 
# From -- ./inp_files/2616.got.cif
#   From: 2010.03.12/outbox.cif.g09.slc.cpg/sg88_2_cif.got.tgz:2616.got - 2010.04.08 20:20:55.
