data_PCOD8304535
_publ_section_title
;
Structure prediction by ZEFSAII (Michael W. Deem and Ramdas Pophale) SiO2 
 PCOD8304535
Probable space group: P 4 21 2
;
_chemical_formula_sum "Si O2"
_cell_formula_units_Z 56
_cell_length_a 12.541294
_cell_length_b 12.541294
_cell_length_c 19.316832
_cell_angle_alpha 90.000000
_cell_angle_beta 90.000000
_cell_angle_gamma 90.000000
_cell_volume 3038.229670
_symmetry_space_group_name_H-M "P 4 21 2"
_symmetry_group_IT_number 90
_symmetry_cell_setting 'tetragonal'
loop_
_space_group_symop_operation_xyz
x,y,z
1/2-y,1/2+x,z
-x,-y,z
1/2+y,1/2-x,z
1/2+x,1/2-y,-z
1/2-x,1/2+y,-z
y,x,-z
-y,-x,-z
loop_
_atom_site_type_symbol
_atom_site_label
_atom_site_fract_x
_atom_site_fract_y
_atom_site_fract_z
Si Si1 0.245412 0.264493 0.387937
Si Si2 0.631111 0.385712 0.712229
Si Si3 0.980797 0.890163 0.072188
Si Si4 0.883886 0.197671 0.875625
Si Si5 0.628940 0.281024 0.141677
Si Si6 0.634632 0.114382 0.489458
Si Si7 0.626885 0.610606 0.276085
O O1 0.165566 0.178349 0.355409
O O2 0.339567 0.199401 0.424648
O O3 0.181562 0.339714 0.439853
O O4 0.288959 0.340317 0.328437
O O5 0.714467 0.366273 0.775165
O O6 0.630340 0.509945 0.692526
O O7 0.513809 0.347813 0.734247
O O8 0.892186 0.820367 0.111679
O O9 0.101430 0.841900 0.072434
O O10 0.930101 0.930101 0.000000
O O11 0.000000 0.000000 0.117669
O O12 0.816006 0.304113 0.890269
O O13 0.859362 0.165177 0.797606
O O14 0.007771 0.228679 0.887117
O O15 0.511983 0.148819 0.485846
#
# Coordination Sequence:
#
# PCOD8304535 Si02
#       7
#     8   8   8   8   8   8   8
#     4  11  20  34  56  77 100 142 190 229 285 342
#     4  10  19  32  52  78 109 137 179 230 282 332
#     4   9  18  36  58  81 109 152 201 226 265 339
#     4  10  19  34  57  83 117 148 184 239 284 341
#     4  10  19  34  54  84 115 148 182 232 289 330
#     4  10  22  38  52  72 107 143 181 233 285 350
#     4  10  19  32  52  79 108 139 178 234 282 330
#
# _framework density 18.431785000000001
#
# number of rings (size 3 to 8) (size 9 to 14) (size 15 to 20)
#    0.000    2.000    2.857    1.714    0.000    0.286 
#    5.143    0.000    0.000    7.286    0.000    0.000 
#    0.000    0.000    0.000    0.000    0.000    0.000 
#
# Total GULP energy -693975.294541 kJ/mol
# GULP energy per Si atom -12392.415974 kJ/mol
# Density = 1.838983 g / cm^3
# Si number density = 18.431785 Si / 1000 Ang^3
#
#
#
# Elastic Constant Matrix: (Units=GPa)
#
#
# Indices 1 2 3 4 5 6 
#
# 1 87.7848 52.2466 24.6470 0.0000 0.0000 0.0000
# 2 52.2466 87.7848 24.6470 0.0000 0.0000 0.0000
# 3 24.6470 24.6470 61.1842 0.0000 0.0000 0.0000
# 4 0.0000 0.0000 0.0000 21.1344 0.0000 0.0000
# 5 0.0000 0.0000 0.0000 0.0000 21.1344 0.0000
# 6 0.0000 0.0000 0.0000 0.0000 0.0000 26.6676
#
#
#
# Elastic Compliance Matrix: (Units=1/GPa)
#
#
# Indices 1 2 3 4 5 6 
#
# 1 0.018230 -0.009909 -0.003352 0.000000 0.000000 0.000000
# 2 -0.009909 0.018230 -0.003352 0.000000 0.000000 0.000000
# 3 -0.003352 -0.003352 0.019045 0.000000 0.000000 0.000000
# 4 0.000000 0.000000 0.000000 0.047316 0.000000 0.000000
# 5 0.000000 0.000000 0.000000 0.000000 0.047316 0.000000
# 6 0.000000 0.000000 0.000000 0.000000 0.000000 0.037499
#
#
# Mechanical properties :
#
#
# Convention : Reuss Voigt Hill
#
# Bulk Modulus (GPa) = 44.88541 48.87056 46.87799
# Shear Modulus (GPa) = 21.90217 22.80150 22.35184
#
# Velocity S-wave (km/s) = 3.45089 3.52102 3.48613
# Velocity P-wave (km/s) = 6.34691 6.56521 6.45698
#
# Compressibility (1/GPa) = 0.02227895
#
# Stress axis : x y z
#
# Youngs Moduli (GPa) = 54.85458 54.85458 52.50793
#
# Poissons Ratio (x) = 0.54354 0.17601
# Poissons Ratio (y) = 0.54354 0.17601
# Poissons Ratio (z) = 0.18388 0.18388
#
# Static dielectric constant tensor:
#      x y z
#    x 3.403520 0.000000 0.000000 
#    y 0.000000 3.403520 0.000000 
#    z 0.000000 0.000000 3.326380 
# 
# 
# High freq. dielectric constant tensor:
#      x y z
#    x 1.707290 0.000000 0.000000 
#    y 0.000000 1.707290 0.000000 
#    z 0.000000 0.000000 1.716780 
# 
# From -- ./inp_files/2824.got.cif
#   From: 2010.03.12/outbox.cif.g09.slc.cpg/sg90_2_cif.got.tgz:2824.got - 2010.04.08 20:26:03.
