data_PCOD8304393
_publ_section_title
;
Structure prediction by ZEFSAII (Michael W. Deem and Ramdas Pophale) SiO2 
 PCOD8304393
Probable space group: I 41/A
;
_chemical_formula_sum "Si O2"
_cell_formula_units_Z 80
_cell_length_a 13.748896
_cell_length_b 13.748896
_cell_length_c 19.775023
_cell_angle_alpha 90.000000
_cell_angle_beta 90.000000
_cell_angle_gamma 90.000000
_cell_volume 3738.114940
_symmetry_space_group_name_H-M "I 41/A"
_symmetry_group_IT_number 88
_space_group.IT_coordinate_system_code '2'
_symmetry_cell_setting 'tetragonal'
loop_
_space_group_symop_operation_xyz
x,y,z
3/4-y,1/4+x,1/4+z
-x,1/2-y,z
1/4+y,1/4-x,1/4+z
-x,-y,-z
1/4+y,3/4-x,3/4-z
x,1/2+y,-z
3/4-y,3/4+x,3/4-z
1/2+x,1/2+y,1/2+z
1/4-y,3/4+x,3/4+z
1/2-x,-y,1/2+z
3/4+y,3/4-x,3/4+z
1/2-x,1/2-y,1/2-z
3/4+y,1/4-x,1/4-z
1/2+x,y,1/2-z
1/4-y,1/4+x,1/4-z
loop_
_atom_site_type_symbol
_atom_site_label
_atom_site_fract_x
_atom_site_fract_y
_atom_site_fract_z
Si Si1 0.887391 0.512222 0.986289
Si Si2 0.870668 0.000910 0.173346
Si Si3 0.250641 0.321516 0.005859
Si Si4 0.447970 0.108609 0.871541
Si Si5 0.886381 0.003105 0.509177
O O1 0.859025 0.502007 0.907382
O O2 0.851818 0.621933 0.004113
O O3 0.837487 0.432687 0.035360
O O4 0.000000 0.500000 0.000000
O O5 0.816796 0.903302 0.196936
O O6 0.986666 0.004787 0.188362
O O7 0.281864 0.271696 0.935713
O O8 0.333854 0.400825 0.022251
O O9 0.392838 0.203202 0.840060
O O10 0.369502 0.062370 0.921724
O O11 0.000000 0.000000 0.500000
#
# Coordination Sequence:
#
# PCOD8304393 Si02
#       5
#    16  16  16  16  16
#     4  11  27  48  71  96 132 179 238 288 341 394
#     4  11  26  46  68 103 132 178 230 285 338 413
#     4  11  25  41  69  93 135 178 221 278 342 396
#     4  11  22  40  64  99 136 176 212 270 339 418
#     4  11  24  38  64  96 139 171 213 265 336 409
#
# _framework density 21.401160000000001
#
# number of rings (size 3 to 8) (size 9 to 14) (size 15 to 20)
#    0.000    1.000    4.000    1.200   16.800    1.600 
#    0.000    4.000    0.000    0.000    0.000    0.000 
#    0.000    0.000    0.000    0.000    0.000    0.000 
#
# Total GULP energy -495634.119207 kJ/mol
# GULP energy per Si atom -12390.852980 kJ/mol
# Density = 2.135245 g / cm^3
# Si number density = 21.401160 Si / 1000 Ang^3
#
#
#
# Elastic Constant Matrix: (Units=GPa)
#
#
# Indices 1 2 3 4 5 6 
#
# 1 135.5007 44.2350 23.5606 0.0000 0.0000 -10.3834
# 2 44.2350 135.5007 23.5606 0.0000 0.0000 10.3834
# 3 23.5606 23.5606 118.4344 0.0000 0.0000 0.0000
# 4 0.0000 0.0000 0.0000 33.7283 0.0000 0.0000
# 5 0.0000 0.0000 0.0000 0.0000 33.7283 0.0000
# 6 -10.3834 10.3834 0.0000 0.0000 0.0000 19.2612
#
#
#
# Elastic Compliance Matrix: (Units=1/GPa)
#
#
# Indices 1 2 3 4 5 6 
#
# 1 0.009179 -0.003310 -0.001168 0.000000 0.000000 0.006733
# 2 -0.003310 0.009179 -0.001168 0.000000 0.000000 -0.006733
# 3 -0.001168 -0.001168 0.008908 0.000000 0.000000 0.000000
# 4 0.000000 0.000000 0.000000 0.029649 0.000000 0.000000
# 5 0.000000 0.000000 0.000000 0.000000 0.029649 0.000000
# 6 0.006733 -0.006733 0.000000 0.000000 0.000000 0.059177
#
#
# Mechanical properties :
#
#
# Convention : Reuss Voigt Hill
#
# Bulk Modulus (GPa) = 62.59013 63.57202 63.08108
# Shear Modulus (GPa) = 30.79643 37.21553 34.00598
#
# Velocity S-wave (km/s) = 3.79754 4.17460 3.99052
# Velocity P-wave (km/s) = 6.96693 7.28051 7.12544
#
# Compressibility (1/GPa) = 0.01597696
#
# Stress axis : x y z
#
# Youngs Moduli (GPa) = 108.93951 108.93951 112.25752
#
# Poissons Ratio (x) = 0.36054 0.13108
# Poissons Ratio (y) = 0.36054 0.13108
# Poissons Ratio (z) = 0.12721 0.12721
#
# Static dielectric constant tensor:
#      x y z
#    x 4.208420 0.000000 0.000000 
#    y 0.000000 4.208420 0.000000 
#    z 0.000000 0.000000 6.095500 
# 
# 
# High freq. dielectric constant tensor:
#      x y z
#    x 1.844990 0.000000 0.000000 
#    y 0.000000 1.844990 0.000000 
#    z 0.000000 0.000000 1.845160 
# 
# From -- ./inp_files/4510.got.cif
#   From: 2010.03.12/outbox.cif.g09.slc.cpg/sg88_3_cif.got.tgz:4510.got - 2010.04.08 20:20:55.
