data_PCOD8304721
_publ_section_title
;
Structure prediction by ZEFSAII (Michael W. Deem and Ramdas Pophale) SiO2 
 PCOD8304721
Probable space group: P 41 2 2
;
_chemical_formula_sum "Si O2"
_cell_formula_units_Z 56
_cell_length_a 20.362713
_cell_length_b 20.362713
_cell_length_c 10.166039
_cell_angle_alpha 90.000000
_cell_angle_beta 90.000000
_cell_angle_gamma 90.000000
_cell_volume 4215.247232
_symmetry_space_group_name_H-M "P 41 2 2"
_symmetry_group_IT_number 91
_symmetry_cell_setting 'tetragonal'
loop_
_space_group_symop_operation_xyz
x,y,z
-y,x,1/4+z
-x,-y,1/2+z
y,-x,3/4+z
x,-y,1/2-z
-x,y,-z
y,x,3/4-z
-y,-x,1/4-z
loop_
_atom_site_type_symbol
_atom_site_label
_atom_site_fract_x
_atom_site_fract_y
_atom_site_fract_z
Si Si1 0.586066 0.646377 0.247824
Si Si2 0.432830 0.630987 0.245969
Si Si3 0.129977 0.421373 0.258830
Si Si4 0.578085 0.853563 0.514262
Si Si5 0.221006 0.573492 0.012660
Si Si6 0.203502 0.418507 0.006695
Si Si7 0.562962 0.993233 0.593427
O O1 0.625547 0.625547 0.375000
O O2 0.509701 0.633958 0.276181
O O3 0.605492 0.722015 0.222278
O O4 0.605811 0.603525 0.123926
O O5 0.417540 0.582460 0.125000
O O6 0.408485 0.703758 0.209376
O O7 0.129379 0.500000 0.250000
O O8 0.179319 0.395033 0.370012
O O9 0.057005 0.395467 0.296804
O O10 0.156077 0.391692 0.121875
O O11 0.500000 0.853614 0.500000
O O12 0.602707 0.801241 0.622505
O O13 0.609126 0.829545 0.376830
O O14 0.602424 0.925926 0.562313
O O15 0.206043 0.496624 0.008464
O O16 0.500000 0.990972 0.500000
O O17 0.545143 0.000000 0.750000
#
# Coordination Sequence:
#
# PCOD8304721 Si02
#       7
#     8   8   8   8   8   8   8
#     4  11  22  35  47  60  74  91 121 159 209 258
#     4  11  22  33  47  60  74  91 119 159 208 260
#     4   9  16  25  39  54  77  97 118 138 164 202
#     4   9  16  25  39  54  75  95 119 135 162 202
#     4   9  16  29  41  53  70  95 116 143 179 227
#     4   9  18  29  41  55  70  95 118 144 178 227
#     4  10  18  24  36  58  82 101 119 137 158 191
#
# _framework density 13.285104
#
# number of rings (size 3 to 8) (size 9 to 14) (size 15 to 20)
#    0.000    2.286    1.429    2.571    6.000    6.286 
#    0.000    0.000    0.000    0.000    0.000    0.000 
#    0.000    0.000    0.000    0.000    0.000    0.000 
#
# Total GULP energy -693975.036847 kJ/mol
# GULP energy per Si atom -12392.411372 kJ/mol
# Density = 1.325487 g / cm^3
# Si number density = 13.285104 Si / 1000 Ang^3
#
#
#
# Elastic Constant Matrix: (Units=GPa)
#
#
# Indices 1 2 3 4 5 6 
#
# 1 43.5295 13.0631 16.9165 0.0000 0.0000 0.0000
# 2 13.0631 43.5299 16.9158 0.0000 0.0000 0.0000
# 3 16.9165 16.9158 99.0729 0.0000 0.0000 0.0000
# 4 0.0000 0.0000 0.0000 19.1458 0.0000 0.0000
# 5 0.0000 0.0000 0.0000 0.0000 19.1457 0.0000
# 6 0.0000 0.0000 0.0000 0.0000 0.0000 -0.3678
#
#
#
# Elastic Compliance Matrix: (Units=1/GPa)
#
#
# Indices 1 2 3 4 5 6 
#
# 1 0.026251 -0.006572 -0.003360 0.000000 0.000000 0.000000
# 2 -0.006572 0.026251 -0.003360 0.000000 0.000000 0.000000
# 3 -0.003360 -0.003360 0.011241 0.000000 0.000000 0.000000
# 4 0.000000 0.000000 0.000000 0.052231 0.000000 0.000000
# 5 0.000000 0.000000 0.000000 0.000000 0.052231 0.000000
# 6 0.000000 0.000000 0.000000 0.000000 0.000000 -2.719134
#
#
# Mechanical properties :
#
#
# Convention : Reuss Voigt Hill
#
# Bulk Modulus (GPa) = 26.91183 31.10258 29.00721
# Shear Modulus (GPa) = -1.99048 16.86722 7.43837
#
# Velocity S-wave (km/s) = -1.22537 3.56706 2.36879
# Velocity P-wave (km/s) = 4.27774 6.35827 5.41880
#
# Compressibility (1/GPa) = 0.03715837
#
# Stress axis : x y z
#
# Youngs Moduli (GPa) = 38.09372 38.09438 88.96016
#
# Poissons Ratio (x) = 0.25036 0.29892
# Poissons Ratio (y) = 0.25035 0.29890
# Poissons Ratio (z) = 0.12800 0.12799
#
# Static dielectric constant tensor:
#      x y z
#    x 2.577270 0.000000 0.000000 
#    y 0.000000 2.577270 0.000000 
#    z 0.000000 0.000000 2.920220 
# 
# 
# High freq. dielectric constant tensor:
#      x y z
#    x 1.463840 0.000000 0.000000 
#    y 0.000000 1.463840 0.000000 
#    z 0.000000 0.000000 1.533780 
# 
# From -- ./inp_files/2895.got.cif
#   From: 2010.03.12/outbox.cif.g09.slc.cpg/sg91_2_cif.got.tgz:2895.got - 2010.04.08 20:27:58.
