data_PCOD8304143
_publ_section_title
;
Structure prediction by ZEFSAII (Michael W. Deem and Ramdas Pophale) SiO2 
 PCOD8304143
Probable space group: I 4/M
;
_chemical_formula_sum "Si O2"
_cell_formula_units_Z 56
_cell_length_a 14.707636
_cell_length_b 14.707636
_cell_length_c 11.837976
_cell_angle_alpha 90.000000
_cell_angle_beta 90.000000
_cell_angle_gamma 90.000000
_cell_volume 2560.726531
_symmetry_space_group_name_H-M "I 4/M"
_symmetry_group_IT_number 87
_symmetry_cell_setting 'tetragonal'
loop_
_space_group_symop_operation_xyz
x,y,z
-y,x,z
-x,-y,z
y,-x,z
-x,-y,-z
y,-x,-z
x,y,-z
-y,x,-z
1/2+x,1/2+y,1/2+z
1/2-y,1/2+x,1/2+z
1/2-x,1/2-y,1/2+z
1/2+y,1/2-x,1/2+z
1/2-x,1/2-y,1/2-z
1/2+y,1/2-x,1/2-z
1/2+x,1/2+y,1/2-z
1/2-y,1/2+x,1/2-z
loop_
_atom_site_type_symbol
_atom_site_label
_atom_site_fract_x
_atom_site_fract_y
_atom_site_fract_z
Si Si1 0.866966 0.068782 0.873356
Si Si2 0.404628 0.050350 0.875307
Si Si3 0.649607 0.519961 0.000000
Si Si4 0.231115 0.531586 0.199986
O O1 0.794442 0.097774 0.777559
O O2 0.879632 0.960844 0.854581
O O3 0.830595 0.088104 0.000000
O O4 0.412184 0.159689 0.874488
O O5 0.327147 0.029628 0.785389
O O6 0.500000 0.000000 0.846655
O O7 0.372277 0.020067 0.000000
O O8 0.578114 0.601339 0.000000
O O9 0.709593 0.528947 0.886513
#
# Coordination Sequence:
#
# PCOD8304143 Si02
#       4
#    16  16   8  16
#     4   9  19  37  60  87 121 165 213 259 315 376
#     4  11  23  41  65  93 126 170 213 263 328 395
#     4  11  26  46  67  94 134 182 221 258 324 401
#     4  12  20  39  67  91 123 167 214 265 312 386
#
# _framework density 21.868794000000001
#
# number of rings (size 3 to 8) (size 9 to 14) (size 15 to 20)
#    0.000    1.286    4.286    3.429    0.000    2.286 
#    2.571    5.714    0.000    0.000    0.000    0.000 
#    0.000    0.000    0.000    0.000    0.000    0.000 
#
# Total GULP energy -347007.191885 kJ/mol
# GULP energy per Si atom -12393.113996 kJ/mol
# Density = 2.181902 g / cm^3
# Si number density = 21.868794 Si / 1000 Ang^3
#
#
#
# Elastic Constant Matrix: (Units=GPa)
#
#
# Indices 1 2 3 4 5 6 
#
# 1 82.5714 5.4458 40.7849 0.0000 0.0000 0.4524
# 2 5.4458 82.5714 40.7849 0.0000 0.0000 -0.4524
# 3 40.7849 40.7849 169.8215 0.0000 0.0000 0.0000
# 4 0.0000 0.0000 0.0000 34.4159 0.0000 0.0000
# 5 0.0000 0.0000 0.0000 0.0000 34.4159 0.0000
# 6 0.4524 -0.4524 0.0000 0.0000 0.0000 16.5883
#
#
#
# Elastic Compliance Matrix: (Units=1/GPa)
#
#
# Indices 1 2 3 4 5 6 
#
# 1 0.013792 0.000822 -0.003510 0.000000 0.000000 -0.000354
# 2 0.000822 0.013792 -0.003510 0.000000 0.000000 0.000354
# 3 -0.003510 -0.003510 0.007574 0.000000 0.000000 0.000000
# 4 0.000000 0.000000 0.000000 0.029056 0.000000 0.000000
# 5 0.000000 0.000000 0.000000 0.000000 0.029056 0.000000
# 6 -0.000354 0.000354 0.000000 0.000000 0.000000 0.060303
#
#
# Mechanical properties :
#
#
# Convention : Reuss Voigt Hill
#
# Bulk Modulus (GPa) = 43.93003 56.55506 50.24255
# Shear Modulus (GPa) = 28.80902 33.61392 31.21147
#
# Velocity S-wave (km/s) = 3.63348 3.92480 3.78195
# Velocity P-wave (km/s) = 6.14284 6.81586 6.48809
#
# Compressibility (1/GPa) = 0.02276347
#
# Stress axis : x y z
#
# Youngs Moduli (GPa) = 72.50552 72.50552 132.02418
#
# Poissons Ratio (x) = -0.05960 0.46337
# Poissons Ratio (y) = -0.05960 0.46337
# Poissons Ratio (z) = 0.25448 0.25448
#
# Static dielectric constant tensor:
#      x y z
#    x 3.840740 0.000000 0.000000 
#    y 0.000000 3.840740 0.000000 
#    z 0.000000 0.000000 4.302940 
# 
# 
# High freq. dielectric constant tensor:
#      x y z
#    x 1.833220 0.000000 0.000000 
#    y 0.000000 1.833220 0.000000 
#    z 0.000000 0.000000 1.898340 
# 
# From -- ./inp_files/2178.got.cif
#   From: 2010.03.12/outbox.cif.g09.slc.cpg/sg87_2_cif.got.tgz:2178.got - 2010.04.08 20:16:13.
