data_PCOD8304952
_publ_section_title
;
Structure prediction by ZEFSAII (Michael W. Deem and Ramdas Pophale) SiO2 
 PCOD8304952
Probable space group: P 41 2 2
;
_chemical_formula_sum "Si O2"
_cell_formula_units_Z 40
_cell_length_a 14.402643
_cell_length_b 14.402643
_cell_length_c 8.554611
_cell_angle_alpha 90.000000
_cell_angle_beta 90.000000
_cell_angle_gamma 90.000000
_cell_volume 1774.535360
_symmetry_space_group_name_H-M "P 41 2 2"
_symmetry_group_IT_number 91
_symmetry_cell_setting 'tetragonal'
loop_
_space_group_symop_operation_xyz
x,y,z
-y,x,1/4+z
-x,-y,1/2+z
y,-x,3/4+z
x,-y,1/2-z
-x,y,-z
y,x,3/4-z
-y,-x,1/4-z
loop_
_atom_site_type_symbol
_atom_site_label
_atom_site_fract_x
_atom_site_fract_y
_atom_site_fract_z
Si Si1 0.581543 0.581543 0.875000
Si Si2 0.841526 0.841526 0.875000
Si Si3 0.091936 0.432112 0.102329
Si Si4 0.901768 0.685259 0.084722
Si Si5 0.981263 0.238307 0.831321
Si Si6 0.526608 0.242129 0.828040
O O1 0.572929 0.500000 0.750000
O O2 0.572472 0.678278 0.779685
O O3 0.753966 0.836655 0.761590
O O4 0.936297 0.841485 0.775442
O O5 0.091560 0.500000 0.250000
O O6 0.089450 0.325828 0.160342
O O7 0.190863 0.441524 0.011010
O O8 0.000000 0.452257 0.000000
O O9 0.845228 0.592642 0.108027
O O10 0.921871 0.728310 0.255550
O O11 0.000000 0.665373 0.000000
O O12 0.000000 0.194737 0.000000
O O13 0.500000 0.283248 0.000000
#
# Coordination Sequence:
#
# PCOD8304952 Si02
#       6
#     4   4   8   8   8   8
#     4  12  29  52  68  88 126 176 229 280 318 380
#     4  10  21  38  58  84 124 168 197 236 310 384
#     4  11  20  35  62  99 134 164 206 271 341 396
#     4  10  21  38  63  96 131 164 206 264 321 382
#     4  10  21  37  60  92 128 161 203 263 317 372
#     4  12  24  41  68  95 124 169 218 268 335 395
#
# _framework density 22.54111
#
# number of rings (size 3 to 8) (size 9 to 14) (size 15 to 20)
#    0.000    1.200    0.000    9.000    0.000    2.400 
#    0.000    2.000    0.000   32.400    0.000    0.000 
#    0.000    0.000    0.000    0.000    0.000    0.000 
#
# Total GULP energy -495850.371692 kJ/mol
# GULP energy per Si atom -12396.259292 kJ/mol
# Density = 2.248981 g / cm^3
# Si number density = 22.541110 Si / 1000 Ang^3
#
#
#
# Elastic Constant Matrix: (Units=GPa)
#
#
# Indices 1 2 3 4 5 6 
#
# 1 95.8946 42.0265 47.9062 0.0000 0.0000 0.0000
# 2 42.0265 95.8946 47.9062 0.0000 0.0000 0.0000
# 3 47.9062 47.9062 166.4778 0.0000 0.0000 0.0000
# 4 0.0000 0.0000 0.0000 20.2294 0.0000 0.0000
# 5 0.0000 0.0000 0.0000 0.0000 20.2294 0.0000
# 6 0.0000 0.0000 0.0000 0.0000 0.0000 32.8861
#
#
#
# Elastic Compliance Matrix: (Units=1/GPa)
#
#
# Indices 1 2 3 4 5 6 
#
# 1 0.013813 -0.004751 -0.002608 0.000000 0.000000 0.000000
# 2 -0.004751 0.013813 -0.002608 0.000000 0.000000 0.000000
# 3 -0.002608 -0.002608 0.007508 0.000000 0.000000 0.000000
# 4 0.000000 0.000000 0.000000 0.049433 0.000000 0.000000
# 5 0.000000 0.000000 0.000000 0.000000 0.049433 0.000000
# 6 0.000000 0.000000 0.000000 0.000000 0.000000 0.030408
#
#
# Mechanical properties :
#
#
# Convention : Reuss Voigt Hill
#
# Bulk Modulus (GPa) = 65.78573 70.43830 68.11201
# Shear Modulus (GPa) = 26.39812 29.36418 27.88115
#
# Velocity S-wave (km/s) = 3.42586 3.61320 3.52078
# Velocity P-wave (km/s) = 6.70051 6.98023 6.84180
#
# Compressibility (1/GPa) = 0.01520087
#
# Stress axis : x y z
#
# Youngs Moduli (GPa) = 72.39573 72.39573 133.19781
#
# Poissons Ratio (x) = 0.34394 0.34735
# Poissons Ratio (y) = 0.34394 0.34735
# Poissons Ratio (z) = 0.18879 0.18879
#
# Static dielectric constant tensor:
#      x y z
#    x 3.955990 0.000000 0.000000 
#    y 0.000000 3.955990 0.000000 
#    z 0.000000 0.000000 4.735680 
# 
# 
# High freq. dielectric constant tensor:
#      x y z
#    x 1.870730 0.000000 0.000000 
#    y 0.000000 1.870730 0.000000 
#    z 0.000000 0.000000 1.917350 
# 
# From -- ./inp_files/15066.got.cif
#   From: 2010.03.12/outbox.cif.g09.slc.cpg/sg91_8_cif.got.tgz:15066.got - 2010.04.08 20:27:58.
