data_PCOD8304903
_publ_section_title
;
Structure prediction by ZEFSAII (Michael W. Deem and Ramdas Pophale) SiO2 
 PCOD8304903
Probable space group: P 41 2 2
;
_chemical_formula_sum "Si O2"
_cell_formula_units_Z 28
_cell_length_a 16.787423
_cell_length_b 16.787423
_cell_length_c 5.129721
_cell_angle_alpha 90.000000
_cell_angle_beta 90.000000
_cell_angle_gamma 90.000000
_cell_volume 1445.645512
_symmetry_space_group_name_H-M "P 41 2 2"
_symmetry_group_IT_number 91
_symmetry_cell_setting 'tetragonal'
loop_
_space_group_symop_operation_xyz
x,y,z
-y,x,1/4+z
-x,-y,1/2+z
y,-x,3/4+z
x,-y,1/2-z
-x,y,-z
y,x,3/4-z
-y,-x,1/4-z
loop_
_atom_site_type_symbol
_atom_site_label
_atom_site_fract_x
_atom_site_fract_y
_atom_site_fract_z
Si Si1 0.500000 0.829590 0.000000
Si Si2 0.190843 0.255652 0.117777
Si Si3 0.666262 0.333739 0.125000
Si Si4 0.638270 0.948803 0.005485
Si Si5 0.277180 0.500000 0.750000
O O1 0.427037 0.885351 0.080201
O O2 0.484867 0.775786 0.751315
O O3 0.206926 0.206926 0.375000
O O4 0.101034 0.287130 0.137110
O O5 0.194687 0.194687 0.875000
O O6 0.259015 0.324790 0.078284
O O7 0.669966 0.419226 0.273856
O O8 0.606191 0.000000 0.250000
O O9 0.660637 0.000000 0.750000
#
# Coordination Sequence:
#
# PCOD8304903 Si02
#       5
#     4   8   4   8   4
#     4  12  22  41  57  86 122 164 194 252 335 385
#     4  10  20  39  60  83 119 169 199 240 309 374
#     4  10  24  40  64  84 114 164 222 264 316 360
#     4  12  23  36  58  93 124 154 204 255 301 381
#     4  12  24  39  67  84 116 166 224 264 315 365
#
# _framework density 19.368509
#
# number of rings (size 3 to 8) (size 9 to 14) (size 15 to 20)
#    0.857    0.000    2.857    6.000    0.000    0.000 
#    0.000    1.429    0.000    0.000    0.000    0.000 
#    0.000   32.000    0.000    0.000    0.000    0.000 
#
# Total GULP energy -347037.328022 kJ/mol
# GULP energy per Si atom -12394.190286 kJ/mol
# Density = 1.932443 g / cm^3
# Si number density = 19.368509 Si / 1000 Ang^3
#
#
#
# Elastic Constant Matrix: (Units=GPa)
#
#
# Indices 1 2 3 4 5 6 
#
# 1 88.6007 35.7545 33.7661 0.0000 0.0000 0.0000
# 2 35.7545 88.6032 33.7668 0.0000 0.0000 0.0000
# 3 33.7661 33.7668 134.0368 0.0000 0.0000 0.0000
# 4 0.0000 0.0000 0.0000 33.9854 0.0000 0.0000
# 5 0.0000 0.0000 0.0000 0.0000 33.9859 0.0000
# 6 0.0000 0.0000 0.0000 0.0000 0.0000 22.3238
#
#
#
# Elastic Compliance Matrix: (Units=1/GPa)
#
#
# Indices 1 2 3 4 5 6 
#
# 1 0.014119 -0.004803 -0.002347 0.000000 0.000000 0.000000
# 2 -0.004803 0.014119 -0.002347 0.000000 0.000000 0.000000
# 3 -0.002347 -0.002347 0.008643 0.000000 0.000000 0.000000
# 4 0.000000 0.000000 0.000000 0.029424 0.000000 0.000000
# 5 0.000000 0.000000 0.000000 0.000000 0.029424 0.000000
# 6 0.000000 0.000000 0.000000 0.000000 0.000000 0.044795
#
#
# Mechanical properties :
#
#
# Convention : Reuss Voigt Hill
#
# Bulk Modulus (GPa) = 55.90517 57.53504 56.72011
# Shear Modulus (GPa) = 30.21489 31.92257 31.06873
#
# Velocity S-wave (km/s) = 3.95397 4.06417 4.00945
# Velocity P-wave (km/s) = 7.05491 7.19675 7.12618
#
# Compressibility (1/GPa) = 0.01788743
#
# Stress axis : x y z
#
# Youngs Moduli (GPa) = 70.82492 70.82681 115.69963
#
# Poissons Ratio (x) = 0.34020 0.27153
# Poissons Ratio (y) = 0.34019 0.27153
# Poissons Ratio (z) = 0.16622 0.16622
#
# Static dielectric constant tensor:
#      x y z
#    x 3.355870 0.000000 0.000000 
#    y 0.000000 3.355850 0.000000 
#    z 0.000000 0.000000 3.459210 
# 
# 
# High freq. dielectric constant tensor:
#      x y z
#    x 1.737140 0.000000 0.000000 
#    y 0.000000 1.737140 0.000000 
#    z 0.000000 0.000000 1.765510 
# 
# From -- ./inp_files/8395.got.cif
#   From: 2010.03.12/outbox.cif.g09.slc.cpg/sg91_5_cif.got.tgz:8395.got - 2010.04.08 20:27:58.
