data_PCOD8304986
_publ_section_title
;
Structure prediction by ZEFSAII (Michael W. Deem and Ramdas Pophale) SiO2 
 PCOD8304986
Probable space group: P 41 2 2
;
_chemical_formula_sum "Si O2"
_cell_formula_units_Z 60
_cell_length_a 17.979382
_cell_length_b 17.979382
_cell_length_c 8.976735
_cell_angle_alpha 90.000000
_cell_angle_beta 90.000000
_cell_angle_gamma 90.000000
_cell_volume 2901.802992
_symmetry_space_group_name_H-M "P 41 2 2"
_symmetry_group_IT_number 91
_symmetry_cell_setting 'tetragonal'
loop_
_space_group_symop_operation_xyz
x,y,z
-y,x,1/4+z
-x,-y,1/2+z
y,-x,3/4+z
x,-y,1/2-z
-x,y,-z
y,x,3/4-z
-y,-x,1/4-z
loop_
_atom_site_type_symbol
_atom_site_label
_atom_site_fract_x
_atom_site_fract_y
_atom_site_fract_z
Si Si1 0.161031 0.098432 0.518516
Si Si2 0.308013 0.430016 0.339831
Si Si3 0.642699 0.105102 0.869447
Si Si4 0.191247 0.631068 0.389146
Si Si5 0.083709 0.000000 0.750000
Si Si6 0.771567 0.791447 0.536846
Si Si7 0.508892 0.792078 0.662480
Si Si8 0.054656 0.318639 0.295703
O O1 0.105857 0.105857 0.375000
O O2 0.183876 0.180902 0.569586
O O3 0.230083 0.046372 0.474557
O O4 0.129141 0.063932 0.668760
O O5 0.342705 0.500000 0.250000
O O6 0.371582 0.371582 0.375000
O O7 0.239260 0.397280 0.248651
O O8 0.273998 0.453792 0.496361
O O9 0.692159 0.167900 0.951409
O O10 0.558608 0.133624 0.855458
O O11 0.671983 0.092437 0.704503
O O12 0.645068 0.027583 0.962354
O O13 0.234926 0.701934 0.455671
O O14 0.182964 0.569363 0.516922
O O15 0.107431 0.648148 0.333201
O O16 0.033387 0.966613 0.625000
O O17 0.808796 0.808796 0.375000
O O18 0.500000 0.756611 0.500000
#
# Coordination Sequence:
#
# PCOD8304986 Si02
#       8
#     8   8   8   8   4   8   8   8
#     4  11  24  43  68  90 127 171 223 285 343 406
#     4  10  21  40  68  94 129 171 220 263 328 401
#     4  11  22  40  67  93 131 172 220 274 329 396
#     4  10  22  41  65  94 130 171 220 271 321 407
#     4  12  28  44  64  92 128 174 220 288 360 420
#     4  11  23  40  66  96 126 171 223 277 334 394
#     4  11  23  43  64  98 133 170 215 274 333 394
#     4  10  23  40  62  97 127 173 227 270 328 400
#
# _framework density 20.6768
#
# number of rings (size 3 to 8) (size 9 to 14) (size 15 to 20)
#    0.000    1.333    2.667    2.400    3.733    0.000 
#    4.800    2.667    0.000    0.000    0.000    0.000 
#    0.000    0.000    0.000    0.000    0.000    0.000 
#
# Total GULP energy -743950.893078 kJ/mol
# GULP energy per Si atom -12399.181551 kJ/mol
# Density = 2.062974 g / cm^3
# Si number density = 20.676800 Si / 1000 Ang^3
#
#
#
# Elastic Constant Matrix: (Units=GPa)
#
#
# Indices 1 2 3 4 5 6 
#
# 1 119.0799 70.1647 52.3922 0.0000 0.0000 0.0000
# 2 70.1647 119.0792 52.3918 0.0000 0.0000 0.0000
# 3 52.3922 52.3918 141.3605 0.0000 0.0000 0.0000
# 4 0.0000 0.0000 0.0000 30.9385 0.0000 0.0000
# 5 0.0000 0.0000 0.0000 0.0000 30.9383 0.0000
# 6 0.0000 0.0000 0.0000 0.0000 0.0000 34.4705
#
#
#
# Elastic Compliance Matrix: (Units=1/GPa)
#
#
# Indices 1 2 3 4 5 6 
#
# 1 0.013546 -0.006898 -0.002464 0.000000 0.000000 0.000000
# 2 -0.006898 0.013546 -0.002464 0.000000 0.000000 0.000000
# 3 -0.002464 -0.002464 0.008901 0.000000 0.000000 0.000000
# 4 0.000000 0.000000 0.000000 0.032322 0.000000 0.000000
# 5 0.000000 0.000000 0.000000 0.000000 0.032322 0.000000
# 6 0.000000 0.000000 0.000000 0.000000 0.000000 0.029010
#
#
# Mechanical properties :
#
#
# Convention : Reuss Voigt Hill
#
# Bulk Modulus (GPa) = 81.02913 81.04634 81.03774
# Shear Modulus (GPa) = 31.76354 32.90753 32.33553
#
# Velocity S-wave (km/s) = 3.92368 3.99371 3.95885
# Velocity P-wave (km/s) = 7.73308 7.78127 7.75721
#
# Compressibility (1/GPa) = 0.01234124
#
# Stress axis : x y z
#
# Youngs Moduli (GPa) = 73.82197 73.82170 112.35121
#
# Poissons Ratio (x) = 0.50919 0.27685
# Poissons Ratio (y) = 0.50919 0.27685
# Poissons Ratio (z) = 0.18191 0.18191
#
# Static dielectric constant tensor:
#      x y z
#    x 3.825520 0.000000 0.000000 
#    y 0.000000 3.825550 0.000000 
#    z 0.000000 0.000000 3.975580 
# 
# 
# High freq. dielectric constant tensor:
#      x y z
#    x 1.802910 0.000000 0.000000 
#    y 0.000000 1.802910 0.000000 
#    z 0.000000 0.000000 1.827990 
# 
# From -- ./inp_files/2794.got.cif
#   From: 2010.03.12/outbox.cif.g09.slc.cpg/sg91_2_cif.got.tgz:2794.got - 2010.04.08 20:27:58.
