data_PCOD8304822
_publ_section_title
;
Structure prediction by ZEFSAII (Michael W. Deem and Ramdas Pophale) SiO2 
 PCOD8304822
Probable space group: P 41 2 2
;
_chemical_formula_sum "Si O2"
_cell_formula_units_Z 60
_cell_length_a 11.458363
_cell_length_b 11.458363
_cell_length_c 21.232513
_cell_angle_alpha 90.000000
_cell_angle_beta 90.000000
_cell_angle_gamma 90.000000
_cell_volume 2787.703316
_symmetry_space_group_name_H-M "P 41 2 2"
_symmetry_group_IT_number 91
_symmetry_cell_setting 'tetragonal'
loop_
_space_group_symop_operation_xyz
x,y,z
-y,x,1/4+z
-x,-y,1/2+z
y,-x,3/4+z
x,-y,1/2-z
-x,y,-z
y,x,3/4-z
-y,-x,1/4-z
loop_
_atom_site_type_symbol
_atom_site_label
_atom_site_fract_x
_atom_site_fract_y
_atom_site_fract_z
Si Si1 0.236327 0.005760 0.505881
Si Si2 0.872734 0.362903 0.356174
Si Si3 0.801823 0.472809 0.569077
Si Si4 0.950316 0.462385 0.822170
Si Si5 0.741689 0.134834 0.757868
Si Si6 0.384444 0.000000 0.750000
Si Si7 0.624426 0.650278 0.528020
Si Si8 0.229741 0.819544 0.694298
O O1 0.323679 0.033404 0.564661
O O2 0.166936 0.124779 0.492831
O O3 0.291728 0.959420 0.440339
O O4 0.154058 0.900674 0.529425
O O5 0.841911 0.295749 0.420288
O O6 0.746408 0.396141 0.331041
O O7 0.940919 0.486053 0.363304
O O8 0.832219 0.492009 0.643192
O O9 0.798008 0.339574 0.543663
O O10 0.676777 0.531176 0.556698
O O11 0.903753 0.537984 0.532362
O O12 0.946832 0.500000 0.750000
O O13 0.723136 0.000000 0.750000
O O14 0.301302 0.060583 0.801556
O O15 0.500000 0.615414 0.500000
O O16 0.714046 0.707104 0.479784
O O17 0.226145 0.773856 0.625000
#
# Coordination Sequence:
#
# PCOD8304822 Si02
#       8
#     8   8   8   8   8   4   8   8
#     4  10  23  38  61  94 128 167 212 273 335 394
#     4  10  20  41  66  92 128 168 218 264 329 402
#     4  11  21  40  63  91 128 165 221 267 322 398
#     4  10  19  38  63  86 118 167 213 251 314 395
#     4  12  24  41  63  94 126 178 217 268 332 404
#     4  10  20  34  58  86 122 162 206 256 324 378
#     4  10  22  39  65  99 129 166 213 276 332 387
#     4  10  21  37  62  94 127 165 209 268 330 392
#
# _framework density 21.523094
#
# number of rings (size 3 to 8) (size 9 to 14) (size 15 to 20)
#    0.000    1.600    2.000    3.600    0.933    5.867 
#    0.000    2.000    0.000    3.200    0.000    0.000 
#    0.000    0.000    0.000    0.000    0.000    0.000 
#
# Total GULP energy -743514.719244 kJ/mol
# GULP energy per Si atom -12391.911987 kJ/mol
# Density = 2.147411 g / cm^3
# Si number density = 21.523094 Si / 1000 Ang^3
#
#
#
# Elastic Constant Matrix: (Units=GPa)
#
#
# Indices 1 2 3 4 5 6 
#
# 1 73.2612 20.1189 -17.3036 0.0000 0.0000 0.0000
# 2 20.1189 73.2610 -17.3039 0.0000 0.0000 0.0000
# 3 -17.3036 -17.3039 33.8209 0.0000 0.0000 0.0000
# 4 0.0000 0.0000 0.0000 8.8755 0.0000 0.0000
# 5 0.0000 0.0000 0.0000 0.0000 8.8754 0.0000
# 6 0.0000 0.0000 0.0000 0.0000 0.0000 32.5702
#
#
#
# Elastic Compliance Matrix: (Units=1/GPa)
#
#
# Indices 1 2 3 4 5 6 
#
# 1 0.016016 -0.002801 0.006761 0.000000 0.000000 0.000000
# 2 -0.002801 0.016016 0.006761 0.000000 0.000000 0.000000
# 3 0.006761 0.006761 0.036486 0.000000 0.000000 0.000000
# 4 0.000000 0.000000 0.000000 0.112669 0.000000 0.000000
# 5 0.000000 0.000000 0.000000 0.000000 0.112671 0.000000
# 6 0.000000 0.000000 0.000000 0.000000 0.000000 0.030703
#
#
# Mechanical properties :
#
#
# Convention : Reuss Voigt Hill
#
# Bulk Modulus (GPa) = 11.11619 16.81843 13.96731
# Shear Modulus (GPa) = 15.01026 23.05302 19.03164
#
# Velocity S-wave (km/s) = 2.64370 3.27629 2.97685
# Velocity P-wave (km/s) = 3.80721 4.70566 4.28007
#
# Compressibility (1/GPa) = 0.08995889
#
# Stress axis : x y z
#
# Youngs Moduli (GPa) = 62.43776 62.43718 27.40797
#
# Poissons Ratio (x) = 0.17491 -0.18530
# Poissons Ratio (y) = 0.17491 -0.18531
# Poissons Ratio (z) = -0.42213 -0.42214
#
# Static dielectric constant tensor:
#      x y z
#    x 4.041780 0.000000 0.000000 
#    y 0.000000 4.041790 0.000000 
#    z 0.000000 0.000000 3.893140 
# 
# 
# High freq. dielectric constant tensor:
#      x y z
#    x 1.838980 0.000000 0.000000 
#    y 0.000000 1.838980 0.000000 
#    z 0.000000 0.000000 1.848820 
# 
# From -- ./inp_files/12511.got.cif
#   From: 2010.03.12/outbox.cif.g09.slc.cpg/sg91_7_cif.got.tgz:12511.got - 2010.04.08 20:27:58.
