data_PCOD8304083
_publ_section_title
;
Structure prediction by ZEFSAII (Michael W. Deem and Ramdas Pophale) SiO2 
 PCOD8304083
Probable space group: I 4/M
;
_chemical_formula_sum "Si O2"
_cell_formula_units_Z 56
_cell_length_a 17.893210
_cell_length_b 17.893210
_cell_length_c 8.114056
_cell_angle_alpha 90.000000
_cell_angle_beta 90.000000
_cell_angle_gamma 90.000000
_cell_volume 2597.852676
_symmetry_space_group_name_H-M "I 4/M"
_symmetry_group_IT_number 87
_symmetry_cell_setting 'tetragonal'
loop_
_space_group_symop_operation_xyz
x,y,z
-y,x,z
-x,-y,z
y,-x,z
-x,-y,-z
y,-x,-z
x,y,-z
-y,x,-z
1/2+x,1/2+y,1/2+z
1/2-y,1/2+x,1/2+z
1/2-x,1/2-y,1/2+z
1/2+y,1/2-x,1/2+z
1/2-x,1/2-y,1/2-z
1/2+y,1/2-x,1/2-z
1/2+x,1/2+y,1/2-z
1/2-y,1/2+x,1/2-z
loop_
_atom_site_type_symbol
_atom_site_label
_atom_site_fract_x
_atom_site_fract_y
_atom_site_fract_z
Si Si1 0.421835 0.206737 0.310635
Si Si2 0.843143 0.849858 0.683581
Si Si3 0.915629 0.311469 0.685205
Si Si4 0.572192 0.402887 0.500000
O O1 0.402235 0.224909 0.500000
O O2 0.380249 0.268824 0.201714
O O3 0.387665 0.126056 0.258873
O O4 0.511359 0.205386 0.293774
O O5 0.866191 0.879551 0.500000
O O6 0.753020 0.851916 0.696917
O O7 0.867153 0.904264 0.828719
O O8 0.945969 0.319449 0.500000
O O9 0.604834 0.484646 0.500000
#
# Coordination Sequence:
#
# PCOD8304083 Si02
#       4
#    16  16  16   8
#     4  11  23  41  66  95 131 174 221 274 329 391
#     4  11  23  42  67  93 131 171 218 271 328 385
#     4  10  24  42  63  96 132 173 221 272 333 390
#     4  11  24  40  62  96 130 168 220 265 322 398
#
# _framework density 21.556263999999999
#
# number of rings (size 3 to 8) (size 9 to 14) (size 15 to 20)
#    0.000    1.286    1.429    3.429    2.000    6.286 
#    0.000    4.286    0.000    0.000    0.000    0.000 
#    0.000    0.000    0.000    0.000    0.000    0.000 
#
# Total GULP energy -347049.709816 kJ/mol
# GULP energy per Si atom -12394.632493 kJ/mol
# Density = 2.150720 g / cm^3
# Si number density = 21.556264 Si / 1000 Ang^3
#
#
#
# Elastic Constant Matrix: (Units=GPa)
#
#
# Indices 1 2 3 4 5 6 
#
# 1 91.2567 35.3666 23.0359 0.0000 0.0000 0.3198
# 2 35.3666 91.2567 23.0359 0.0000 0.0000 -0.3198
# 3 23.0359 23.0359 130.4240 0.0000 0.0000 0.0000
# 4 0.0000 0.0000 0.0000 45.8647 0.0000 0.0000
# 5 0.0000 0.0000 0.0000 0.0000 45.8647 0.0000
# 6 0.3198 -0.3198 0.0000 0.0000 0.0000 40.9755
#
#
#
# Elastic Compliance Matrix: (Units=1/GPa)
#
#
# Indices 1 2 3 4 5 6 
#
# 1 0.013167 -0.004727 -0.001491 0.000000 0.000000 -0.000140
# 2 -0.004727 0.013167 -0.001491 0.000000 0.000000 0.000140
# 3 -0.001491 -0.001491 0.008194 0.000000 0.000000 0.000000
# 4 0.000000 0.000000 0.000000 0.021803 0.000000 0.000000
# 5 0.000000 0.000000 0.000000 0.000000 0.021803 0.000000
# 6 -0.000140 0.000140 0.000000 0.000000 0.000000 0.024407
#
#
# Mechanical properties :
#
#
# Convention : Reuss Voigt Hill
#
# Bulk Modulus (GPa) = 52.32632 52.86824 52.59728
# Shear Modulus (GPa) = 40.21618 41.97424 41.09521
#
# Velocity S-wave (km/s) = 4.32399 4.41749 4.37099
# Velocity P-wave (km/s) = 7.01827 7.11322 7.06591
#
# Compressibility (1/GPa) = 0.01911084
#
# Stress axis : x y z
#
# Youngs Moduli (GPa) = 75.94843 75.94843 122.04243
#
# Poissons Ratio (x) = 0.35901 0.18192
# Poissons Ratio (y) = 0.35901 0.18192
# Poissons Ratio (z) = 0.11321 0.11321
#
# Static dielectric constant tensor:
#      x y z
#    x 3.850090 0.000000 0.000000 
#    y 0.000000 3.850090 0.000000 
#    z 0.000000 0.000000 5.124720 
# 
# 
# High freq. dielectric constant tensor:
#      x y z
#    x 1.843250 0.000000 0.000000 
#    y 0.000000 1.843250 0.000000 
#    z 0.000000 0.000000 1.858690 
# 
# From -- ./inp_files/711.got.cif
#   From: 2010.03.12/outbox.cif.g09.slc.cpg/sg87_1_cif.got.tgz:711.got - 2010.04.08 20:16:13.
