data_PCOD8304176
_publ_section_title
;
Structure prediction by ZEFSAII (Michael W. Deem and Ramdas Pophale) SiO2 
 PCOD8304176
Probable space group: I 41/A
;
_chemical_formula_sum "Si O2"
_cell_formula_units_Z 84
_cell_length_a 18.590949
_cell_length_b 18.590949
_cell_length_c 16.630324
_cell_angle_alpha 90.000000
_cell_angle_beta 90.000000
_cell_angle_gamma 90.000000
_cell_volume 5747.828870
_symmetry_space_group_name_H-M "I 41/A"
_symmetry_group_IT_number 88
_space_group.IT_coordinate_system_code '2'
_symmetry_cell_setting 'tetragonal'
loop_
_space_group_symop_operation_xyz
x,y,z
3/4-y,1/4+x,1/4+z
-x,1/2-y,z
1/4+y,1/4-x,1/4+z
-x,-y,-z
1/4+y,3/4-x,3/4-z
x,1/2+y,-z
3/4-y,3/4+x,3/4-z
1/2+x,1/2+y,1/2+z
1/4-y,3/4+x,3/4+z
1/2-x,-y,1/2+z
3/4+y,3/4-x,3/4+z
1/2-x,1/2-y,1/2-z
3/4+y,1/4-x,1/4-z
1/2+x,y,1/2-z
1/4-y,1/4+x,1/4-z
loop_
_atom_site_type_symbol
_atom_site_label
_atom_site_fract_x
_atom_site_fract_y
_atom_site_fract_z
Si Si1 0.500000 0.250000 0.875000
Si Si2 0.240066 0.037834 0.885441
Si Si3 0.821085 0.622027 0.515051
Si Si4 0.438555 0.027165 0.943700
Si Si5 0.824017 0.065552 0.775664
Si Si6 0.525258 0.398202 0.784947
O O1 0.524466 0.315611 0.816553
O O2 0.159145 0.051694 0.853696
O O3 0.257756 0.094433 0.956125
O O4 0.297244 0.055307 0.815315
O O5 0.248434 0.955419 0.919756
O O6 0.898318 0.594402 0.484293
O O7 0.829110 0.707326 0.518950
O O8 0.383279 0.962475 0.930562
O O9 0.474636 0.049414 0.860716
O O10 0.500000 0.000000 0.000000
O O11 0.908418 0.082201 0.773843
#
# Coordination Sequence:
#
# PCOD8304176 Si02
#       6
#     4  16  16  16  16  16
#     4  12  20  28  36  72 116 132 140 182 232 332
#     4   8  16  32  46  64  87 128 163 196 217 279
#     4  10  18  29  47  66  94 122 161 193 231 278
#     4  10  18  28  43  62  95 131 152 178 224 295
#     4  10  17  30  46  65  90 126 165 193 229 277
#     4  12  19  29  43  71  99 131 148 188 240 286
#
# _framework density 14.614215
#
# number of rings (size 3 to 8) (size 9 to 14) (size 15 to 20)
#    0.000    2.286    5.714    3.429    0.000    0.000 
#    0.000    0.000    0.000    4.571    0.000    0.000 
#    0.000    0.000    0.000    0.000    0.000    0.000 
#
# Total GULP energy -520363.192100 kJ/mol
# GULP energy per Si atom -12389.599812 kJ/mol
# Density = 1.458095 g / cm^3
# Si number density = 14.614215 Si / 1000 Ang^3
#
#
#
# Elastic Constant Matrix: (Units=GPa)
#
#
# Indices 1 2 3 4 5 6 
#
# 1 94.6972 21.6186 14.9934 0.0000 0.0000 -1.3924
# 2 21.6186 94.6972 14.9934 0.0000 0.0000 1.3924
# 3 14.9934 14.9934 20.2491 0.0000 0.0000 0.0000
# 4 0.0000 0.0000 0.0000 26.8665 0.0000 0.0000
# 5 0.0000 0.0000 0.0000 0.0000 26.8665 0.0000
# 6 -1.3924 1.3924 0.0000 0.0000 0.0000 13.2691
#
#
#
# Elastic Compliance Matrix: (Units=1/GPa)
#
#
# Indices 1 2 3 4 5 6 
#
# 1 0.012182 -0.001557 -0.007868 0.000000 0.000000 0.001442
# 2 -0.001557 0.012182 -0.007868 0.000000 0.000000 -0.001442
# 3 -0.007868 -0.007868 0.061036 0.000000 0.000000 0.000000
# 4 0.000000 0.000000 0.000000 0.037221 0.000000 0.000000
# 5 0.000000 0.000000 0.000000 0.000000 0.037221 0.000000
# 6 0.001442 -0.001442 0.000000 0.000000 0.000000 0.075666
#
#
# Mechanical properties :
#
#
# Convention : Reuss Voigt Hill
#
# Bulk Modulus (GPa) = 19.67865 34.76157 27.22011
# Shear Modulus (GPa) = 17.41970 23.93628 20.67799
#
# Velocity S-wave (km/s) = 3.45624 4.05146 3.76563
# Velocity P-wave (km/s) = 5.42421 6.76192 6.12967
#
# Compressibility (1/GPa) = 0.05081648
#
# Stress axis : x y z
#
# Youngs Moduli (GPa) = 82.08678 82.08678 16.38376
#
# Poissons Ratio (x) = 0.12778 0.12890
# Poissons Ratio (y) = 0.12778 0.12890
# Poissons Ratio (z) = 0.64583 0.64583
#
# Static dielectric constant tensor:
#      x y z
#    x 2.790420 0.000000 0.000000 
#    y 0.000000 2.790420 0.000000 
#    z 0.000000 0.000000 2.719140 
# 
# 
# High freq. dielectric constant tensor:
#      x y z
#    x 1.550010 0.000000 0.000000 
#    y 0.000000 1.550010 0.000000 
#    z 0.000000 0.000000 1.534410 
# 
# From -- ./inp_files/3885.got.cif
#   From: 2010.03.12/outbox.cif.g09.slc.cpg/sg88_2_cif.got.tgz:3885.got - 2010.04.08 20:20:55.
