data_PCOD8304148
_publ_section_title
;
Structure prediction by ZEFSAII (Michael W. Deem and Ramdas Pophale) SiO2 
 PCOD8304148
Probable space group: I 4/M
;
_chemical_formula_sum "Si O2"
_cell_formula_units_Z 44
_cell_length_a 7.998012
_cell_length_b 7.998012
_cell_length_c 29.574745
_cell_angle_alpha 90.000000
_cell_angle_beta 90.000000
_cell_angle_gamma 90.000000
_cell_volume 1891.843083
_symmetry_space_group_name_H-M "I 4/M"
_symmetry_group_IT_number 87
_symmetry_cell_setting 'tetragonal'
loop_
_space_group_symop_operation_xyz
x,y,z
-y,x,z
-x,-y,z
y,-x,z
-x,-y,-z
y,-x,-z
x,y,-z
-y,x,-z
1/2+x,1/2+y,1/2+z
1/2-y,1/2+x,1/2+z
1/2-x,1/2-y,1/2+z
1/2+y,1/2-x,1/2+z
1/2-x,1/2-y,1/2-z
1/2+y,1/2-x,1/2-z
1/2+x,1/2+y,1/2-z
1/2-y,1/2+x,1/2-z
loop_
_atom_site_type_symbol
_atom_site_label
_atom_site_fract_x
_atom_site_fract_y
_atom_site_fract_z
Si Si1 0.240264 0.596695 0.500000
Si Si2 0.584144 0.763102 0.324971
Si Si3 0.500000 0.000000 0.250000
Si Si4 0.592812 0.239204 0.911623
O O1 0.288114 0.403451 0.500000
O O2 0.127737 0.633999 0.456544
O O3 0.392037 0.708330 0.324254
O O4 0.618846 0.870729 0.369532
O O5 0.613698 0.878809 0.281126
O O6 0.710765 0.400322 0.910241
#
# Coordination Sequence:
#
# PCOD8304148 Si02
#       4
#     8  16   4  16
#     4  11  24  41  64  96 132 171 216 264 316 378
#     4  11  24  42  66  96 129 168 215 265 321 384
#     4  12  24  44  68  94 128 168 212 268 328 382
#     4  11  24  42  65  95 131 171 216 265 319 379
#
# _framework density 23.257743000000001
#
# number of rings (size 3 to 8) (size 9 to 14) (size 15 to 20)
#    0.000    0.909    0.000    6.545    0.000   10.182 
#    0.000    3.636    0.000    0.000    0.000    0.000 
#    0.000    0.000    0.000    0.000    0.000    0.000 
#
# Total GULP energy -272959.238771 kJ/mol
# GULP energy per Si atom -12407.238126 kJ/mol
# Density = 2.320481 g / cm^3
# Si number density = 23.257743 Si / 1000 Ang^3
#
#
#
# Elastic Constant Matrix: (Units=GPa)
#
#
# Indices 1 2 3 4 5 6 
#
# 1 84.1118 16.0197 40.7158 0.0000 0.0000 5.2623
# 2 16.0197 84.1118 40.7158 0.0000 0.0000 -5.2623
# 3 40.7158 40.7158 205.2466 0.0000 0.0000 0.0000
# 4 0.0000 0.0000 0.0000 53.8225 0.0000 0.0000
# 5 0.0000 0.0000 0.0000 0.0000 53.8225 0.0000
# 6 5.2623 -5.2623 0.0000 0.0000 0.0000 40.0929
#
#
#
# Elastic Compliance Matrix: (Units=1/GPa)
#
#
# Indices 1 2 3 4 5 6 
#
# 1 0.013449 -0.001541 -0.002362 0.000000 0.000000 -0.001967
# 2 -0.001541 0.013449 -0.002362 0.000000 0.000000 0.001967
# 3 -0.002362 -0.002362 0.005809 0.000000 0.000000 0.000000
# 4 0.000000 0.000000 0.000000 0.018580 0.000000 0.000000
# 5 0.000000 0.000000 0.000000 0.000000 0.018580 0.000000
# 6 -0.001967 0.001967 0.000000 0.000000 0.000000 0.025459
#
#
# Mechanical properties :
#
#
# Convention : Reuss Voigt Hill
#
# Bulk Modulus (GPa) = 49.56298 63.15251 56.35775
# Shear Modulus (GPa) = 43.63696 47.94883 45.79290
#
# Velocity S-wave (km/s) = 4.33625 4.54544 4.44208
# Velocity P-wave (km/s) = 6.81376 7.40002 7.11293
#
# Compressibility (1/GPa) = 0.02017635
#
# Stress axis : x y z
#
# Youngs Moduli (GPa) = 74.35481 74.35482 172.13467
#
# Poissons Ratio (x) = 0.11459 0.40662
# Poissons Ratio (y) = 0.11459 0.40662
# Poissons Ratio (z) = 0.17564 0.17564
#
# Static dielectric constant tensor:
#      x y z
#    x 4.198260 0.000000 0.000000 
#    y 0.000000 4.198260 0.000000 
#    z 0.000000 0.000000 4.264550 
# 
# 
# High freq. dielectric constant tensor:
#      x y z
#    x 1.933410 0.000000 0.000000 
#    y 0.000000 1.933410 0.000000 
#    z 0.000000 0.000000 1.930630 
# 
# From -- ./inp_files/6375.got.cif
#   From: 2010.03.12/outbox.cif.g09.slc.cpg/sg87_4_cif.got.tgz:6375.got - 2010.04.08 20:16:13.
