data_PCOD8304814
_publ_section_title
;
Structure prediction by ZEFSAII (Michael W. Deem and Ramdas Pophale) SiO2 
 PCOD8304814
Probable space group: P 41 2 2
;
_chemical_formula_sum "Si O2"
_cell_formula_units_Z 52
_cell_length_a 23.278040
_cell_length_b 23.278040
_cell_length_c 4.981174
_cell_angle_alpha 90.000000
_cell_angle_beta 90.000000
_cell_angle_gamma 90.000000
_cell_volume 2699.134540
_symmetry_space_group_name_H-M "P 41 2 2"
_symmetry_group_IT_number 91
_symmetry_cell_setting 'tetragonal'
loop_
_space_group_symop_operation_xyz
x,y,z
-y,x,1/4+z
-x,-y,1/2+z
y,-x,3/4+z
x,-y,1/2-z
-x,y,-z
y,x,3/4-z
-y,-x,1/4-z
loop_
_atom_site_type_symbol
_atom_site_label
_atom_site_fract_x
_atom_site_fract_y
_atom_site_fract_z
Si Si1 0.346447 0.434111 0.256366
Si Si2 0.767824 0.139518 0.208356
Si Si3 0.463318 0.000000 0.250000
Si Si4 0.374211 0.904571 0.185951
Si Si5 0.751297 0.935655 0.800940
Si Si6 0.359108 0.167437 0.802021
Si Si7 0.433333 0.726826 0.503330
O O1 0.365433 0.500000 0.250000
O O2 0.400136 0.400136 0.375000
O O3 0.292717 0.420031 0.450878
O O4 0.326431 0.419860 0.953863
O O5 0.819280 0.180721 0.125000
O O6 0.784346 0.102877 0.475452
O O7 0.709500 0.177475 0.237931
O O8 0.758187 0.093415 0.981989
O O9 0.425946 0.052312 0.359183
O O10 0.500000 0.977401 0.500000
O O11 0.315299 0.937224 0.106121
O O12 0.371194 0.883905 0.491252
O O13 0.384804 0.850834 0.986055
O O14 0.775201 0.000000 0.750000
O O15 0.390296 0.223376 0.912103
O O16 0.500000 0.747071 0.500000
#
# Coordination Sequence:
#
# PCOD8304814 Si02
#       7
#     8   8   4   8   8   8   8
#     4  10  21  38  58  81 107 134 172 222 279 341
#     4  10  21  34  53  86 120 143 184 244 285 329
#     4  12  24  36  52  78 110 142 188 256 298 310
#     4  10  21  37  53  77 106 142 197 235 273 341
#     4  10  19  36  59  77 107 156 191 222 280 345
#     4  10  21  36  57  78 109 153 186 226 292 337
#     4  10  21  37  56  80 108 143 188 229 269 339
#
# _framework density 19.265435
#
# number of rings (size 3 to 8) (size 9 to 14) (size 15 to 20)
#    0.000    1.846    0.769    3.231    0.000    3.077 
#    0.000    2.308    0.000    0.000    0.000    0.000 
#    0.000   17.231    0.000    0.000    0.000    0.000 
#
# Total GULP energy -644651.431246 kJ/mol
# GULP energy per Si atom -12397.142909 kJ/mol
# Density = 1.922159 g / cm^3
# Si number density = 19.265435 Si / 1000 Ang^3
#
#
#
# Elastic Constant Matrix: (Units=GPa)
#
#
# Indices 1 2 3 4 5 6 
#
# 1 76.2073 44.3059 3.9614 0.0000 0.0000 0.0000
# 2 44.3059 76.2127 3.9640 0.0000 0.0000 0.0000
# 3 3.9614 3.9640 69.4835 0.0000 0.0000 0.0000
# 4 0.0000 0.0000 0.0000 29.7807 0.0000 0.0000
# 5 0.0000 0.0000 0.0000 0.0000 29.7806 0.0000
# 6 0.0000 0.0000 0.0000 0.0000 0.0000 -177.4737
#
#
#
# Elastic Compliance Matrix: (Units=1/GPa)
#
#
# Indices 1 2 3 4 5 6 
#
# 1 0.019837 -0.011508 -0.000474 0.000000 0.000000 0.000000
# 2 -0.011508 0.019836 -0.000476 0.000000 0.000000 0.000000
# 3 -0.000474 -0.000476 0.014446 0.000000 0.000000 0.000000
# 4 0.000000 0.000000 0.000000 0.033579 0.000000 0.000000
# 5 0.000000 0.000000 0.000000 0.000000 0.033579 0.000000
# 6 0.000000 0.000000 0.000000 0.000000 0.000000 -0.005635
#
#
# Mechanical properties :
#
#
# Convention : Reuss Voigt Hill
#
# Bulk Modulus (GPa) = 34.24204 36.26290 35.25247
# Shear Modulus (GPa) = 33.26863 -12.27100 10.49881
#
# Velocity S-wave (km/s) = 4.16005 -2.52651 2.33696
# Velocity P-wave (km/s) = 6.39430 3.21755 5.06161
#
# Compressibility (1/GPa) = 0.02920387
#
# Stress axis : x y z
#
# Youngs Moduli (GPa) = 50.41057 50.41395 69.22288
#
# Poissons Ratio (x) = 0.58014 0.03284
# Poissons Ratio (y) = 0.58010 0.03292
# Poissons Ratio (z) = 0.02392 0.02397
#
# Static dielectric constant tensor:
#      x y z
#    x 3.342750 0.000000 0.000000 
#    y 0.000000 3.342740 0.000000 
#    z 0.000000 0.000000 3.893860 
# 
# 
# High freq. dielectric constant tensor:
#      x y z
#    x 1.729920 0.000000 0.000000 
#    y 0.000000 1.729920 0.000000 
#    z 0.000000 0.000000 1.775140 
# 
# From -- ./inp_files/9006.got.cif
#   From: 2010.03.12/outbox.cif.g09.slc.cpg/sg91_5_cif.got.tgz:9006.got - 2010.04.08 20:27:58.
