data_PCOD8304503
_publ_section_title
;
Structure prediction by ZEFSAII (Michael W. Deem and Ramdas Pophale) SiO2 
 PCOD8304503
Probable space group: P 4 2 2
;
_chemical_formula_sum "Si O2"
_cell_formula_units_Z 60
_cell_length_a 11.668907
_cell_length_b 11.668907
_cell_length_c 21.883067
_cell_angle_alpha 90.000000
_cell_angle_beta 90.000000
_cell_angle_gamma 90.000000
_cell_volume 2979.672599
_symmetry_space_group_name_H-M "P 4 2 2"
_symmetry_group_IT_number 89
_symmetry_cell_setting 'tetragonal'
loop_
_space_group_symop_operation_xyz
x,y,z
-y,x,z
-x,-y,z
y,-x,z
x,-y,-z
-x,y,-z
y,x,-z
-y,-x,-z
loop_
_atom_site_type_symbol
_atom_site_label
_atom_site_fract_x
_atom_site_fract_y
_atom_site_fract_z
Si Si1 0.000000 0.500000 0.688613
Si Si2 0.642639 0.623492 0.931892
Si Si3 0.436284 0.227793 0.743671
Si Si4 0.052596 0.824302 0.233016
Si Si5 0.254903 0.171578 0.564613
Si Si6 0.330749 0.235142 0.186636
Si Si7 0.271210 0.057071 0.365248
Si Si8 0.327350 0.564667 0.610972
O O1 0.093155 0.565272 0.729104
O O2 0.063289 0.406518 0.647288
O O3 0.511557 0.657899 0.921243
O O4 0.731780 0.680401 0.884753
O O5 0.669778 0.669778 0.000000
O O6 0.541740 0.257909 0.788133
O O7 0.317173 0.245349 0.777214
O O8 0.436503 0.305298 0.683370
O O9 0.103891 0.710492 0.199412
O O10 0.038127 0.804506 0.305319
O O11 0.925386 0.859713 0.212970
O O12 0.196841 0.196841 0.500000
O O13 0.183805 0.243026 0.613559
O O14 0.385635 0.217964 0.572906
O O15 0.246393 0.037306 0.581910
O O16 0.354568 0.434588 0.592309
#
# Coordination Sequence:
#
# PCOD8304503 Si02
#       8
#     4   8   8   8   8   8   8   8
#     4  12  24  38  63  90 123 158 190 262 334 378
#     4   9  18  34  56  88 136 185 219 248 293 362
#     4  12  22  35  58  93 127 157 202 251 322 382
#     4  11  23  41  63  89 121 157 201 254 319 383
#     4  12  27  44  63  88 113 154 207 254 311 388
#     4  12  22  34  60  96 129 166 204 256 310 377
#     4  12  23  44  64  87 119 152 197 255 322 380
#     4  11  23  41  61  84 120 159 194 245 314 389
#
# _framework density 20.136441999999999
#
# number of rings (size 3 to 8) (size 9 to 14) (size 15 to 20)
#    0.000    0.667    6.667    3.200    0.000    1.067 
#    0.000    2.000    0.000    0.800    0.000    3.733 
#    0.000    0.000    0.000    0.000    0.000    0.000 
#
# Total GULP energy -743797.901224 kJ/mol
# GULP energy per Si atom -12396.631687 kJ/mol
# Density = 2.009061 g / cm^3
# Si number density = 20.136442 Si / 1000 Ang^3
#
#
#
# Elastic Constant Matrix: (Units=GPa)
#
#
# Indices 1 2 3 4 5 6 
#
# 1 58.8354 1.6338 2.4224 0.0000 0.0000 0.0000
# 2 1.6338 58.8354 2.4224 0.0000 0.0000 0.0000
# 3 2.4224 2.4224 82.3056 0.0000 0.0000 0.0000
# 4 0.0000 0.0000 0.0000 23.5022 0.0000 0.0000
# 5 0.0000 0.0000 0.0000 0.0000 23.5022 0.0000
# 6 0.0000 0.0000 0.0000 0.0000 0.0000 34.6948
#
#
#
# Elastic Compliance Matrix: (Units=1/GPa)
#
#
# Indices 1 2 3 4 5 6 
#
# 1 0.017029 -0.000453 -0.000488 0.000000 0.000000 0.000000
# 2 -0.000453 0.017029 -0.000488 0.000000 0.000000 0.000000
# 3 -0.000488 -0.000488 0.012179 0.000000 0.000000 0.000000
# 4 0.000000 0.000000 0.000000 0.042549 0.000000 0.000000
# 5 0.000000 0.000000 0.000000 0.000000 0.042549 0.000000
# 6 0.000000 0.000000 0.000000 0.000000 0.000000 0.028823
#
#
# Mechanical properties :
#
#
# Convention : Reuss Voigt Hill
#
# Bulk Modulus (GPa) = 23.05213 23.65928 23.35571
# Shear Modulus (GPa) = 28.17295 29.23970 28.70633
#
# Velocity S-wave (km/s) = 3.74452 3.81475 3.77980
# Velocity P-wave (km/s) = 5.49254 5.58373 5.53833
#
# Compressibility (1/GPa) = 0.04337994
#
# Stress axis : x y z
#
# Youngs Moduli (GPa) = 58.72252 58.72252 82.11147
#
# Poissons Ratio (x) = 0.02659 0.04006
# Poissons Ratio (y) = 0.02659 0.04006
# Poissons Ratio (z) = 0.02865 0.02865
#
# Static dielectric constant tensor:
#      x y z
#    x 3.717740 0.000000 0.000000 
#    y 0.000000 3.717740 0.000000 
#    z 0.000000 0.000000 3.459450 
# 
# 
# High freq. dielectric constant tensor:
#      x y z
#    x 1.790480 0.000000 0.000000 
#    y 0.000000 1.790480 0.000000 
#    z 0.000000 0.000000 1.750810 
# 
# From -- ./inp_files/2652.got.cif
#   From: 2010.03.12/outbox.cif.g09.slc.cpg/sg89_2_cif.got.tgz:2652.got - 2010.04.08 20:24:03.
