data_PCOD8304281
_publ_section_title
;
Structure prediction by ZEFSAII (Michael W. Deem and Ramdas Pophale) SiO2 
 PCOD8304281
Probable space group: I 41/A
;
_chemical_formula_sum "Si O2"
_cell_formula_units_Z 120
_cell_length_a 19.771596
_cell_length_b 19.771596
_cell_length_c 15.406866
_cell_angle_alpha 90.000000
_cell_angle_beta 90.000000
_cell_angle_gamma 90.000000
_cell_volume 6022.790558
_symmetry_space_group_name_H-M "I 41/A"
_symmetry_group_IT_number 88
_space_group.IT_coordinate_system_code '2'
_symmetry_cell_setting 'tetragonal'
loop_
_space_group_symop_operation_xyz
x,y,z
3/4-y,1/4+x,1/4+z
-x,1/2-y,z
1/4+y,1/4-x,1/4+z
-x,-y,-z
1/4+y,3/4-x,3/4-z
x,1/2+y,-z
3/4-y,3/4+x,3/4-z
1/2+x,1/2+y,1/2+z
1/4-y,3/4+x,3/4+z
1/2-x,-y,1/2+z
3/4+y,3/4-x,3/4+z
1/2-x,1/2-y,1/2-z
3/4+y,1/4-x,1/4-z
1/2+x,y,1/2-z
1/4-y,1/4+x,1/4-z
loop_
_atom_site_type_symbol
_atom_site_label
_atom_site_fract_x
_atom_site_fract_y
_atom_site_fract_z
Si Si1 0.905662 0.739772 0.422016
Si Si2 0.113729 0.183804 0.920401
Si Si3 0.753607 0.235058 0.535591
Si Si4 0.415348 0.194784 0.355273
Si Si5 0.201656 0.361697 0.040282
Si Si6 0.102031 0.964601 0.050042
Si Si7 0.500000 0.750000 0.923707
Si Si8 0.301929 0.704215 0.854233
O O1 0.923233 0.803384 0.359741
O O2 0.825870 0.724466 0.418128
O O3 0.931897 0.757853 0.518579
O O4 0.193622 0.199723 0.908771
O O5 0.089963 0.117304 0.868254
O O6 0.067624 0.245799 0.885733
O O7 0.100700 0.168516 0.020759
O O8 0.740325 0.315779 0.530516
O O9 0.753689 0.204015 0.438211
O O10 0.422584 0.273821 0.330133
O O11 0.346850 0.188976 0.407806
O O12 0.252689 0.388657 0.114972
O O13 0.159592 0.418318 0.991391
O O14 0.031924 0.927805 0.078946
O O15 0.082664 0.019241 0.977716
#
# Coordination Sequence:
#
# PCOD8304281 Si02
#       8
#    16  16  16  16  16  16   8  16
#     4   9  21  46  72  86 116 160 201 260 323 367
#     4  12  21  33  61  95 121 160 201 260 292 364
#     4  11  23  38  62  94 121 152 203 254 310 364
#     4  11  20  32  50  87 127 156 197 243 295 350
#     4  11  22  36  56  83 122 165 204 249 300 369
#     4  10  22  37  55  80 122 173 207 238 304 366
#     4  10  21  38  65  96 118 154 212 254 307 356
#     4  10  21  37  57  83 127 165 201 246 298 375
#
# _framework density 19.924319000000001
#
# number of rings (size 3 to 8) (size 9 to 14) (size 15 to 20)
#    0.000    1.600    4.000    2.400    3.733    0.000 
#    0.000    4.000    0.000    0.000    0.000    0.000 
#    0.000    0.000    0.000    0.000    0.000    0.000 
#
# Total GULP energy -743573.692056 kJ/mol
# GULP energy per Si atom -12392.894868 kJ/mol
# Density = 1.987897 g / cm^3
# Si number density = 19.924319 Si / 1000 Ang^3
#
#
#
# Elastic Constant Matrix: (Units=GPa)
#
#
# Indices 1 2 3 4 5 6 
#
# 1 117.3101 43.9743 36.7631 0.0000 0.0000 3.3416
# 2 43.9743 117.3101 36.7631 0.0000 0.0000 -3.3416
# 3 36.7631 36.7631 46.9251 0.0000 0.0000 0.0000
# 4 0.0000 0.0000 0.0000 27.4851 0.0000 0.0000
# 5 0.0000 0.0000 0.0000 0.0000 27.4851 0.0000
# 6 3.3416 -3.3416 0.0000 0.0000 0.0000 29.8335
#
#
#
# Elastic Compliance Matrix: (Units=1/GPa)
#
#
# Indices 1 2 3 4 5 6 
#
# 1 0.011711 -0.002066 -0.007556 0.000000 0.000000 -0.001543
# 2 -0.002066 0.011711 -0.007556 0.000000 0.000000 0.001543
# 3 -0.007556 -0.007556 0.033150 0.000000 0.000000 0.000000
# 4 0.000000 0.000000 0.000000 0.036383 0.000000 0.000000
# 5 0.000000 0.000000 0.000000 0.000000 0.036383 0.000000
# 6 -0.001543 0.001543 0.000000 0.000000 0.000000 0.033865
#
#
# Mechanical properties :
#
#
# Convention : Reuss Voigt Hill
#
# Bulk Modulus (GPa) = 45.01422 57.39405 51.20414
# Shear Modulus (GPa) = 24.39434 27.89705 26.14570
#
# Velocity S-wave (km/s) = 3.50287 3.74592 3.62643
# Velocity P-wave (km/s) = 6.24514 6.89766 6.57950
#
# Compressibility (1/GPa) = 0.02221520
#
# Stress axis : x y z
#
# Youngs Moduli (GPa) = 85.39152 85.39152 30.16551
#
# Poissons Ratio (x) = 0.17640 0.22794
# Poissons Ratio (y) = 0.17640 0.22794
# Poissons Ratio (z) = 0.64524 0.64524
#
# Static dielectric constant tensor:
#      x y z
#    x 3.645070 0.000000 0.000000 
#    y 0.000000 3.645070 0.000000 
#    z 0.000000 0.000000 3.612710 
# 
# 
# High freq. dielectric constant tensor:
#      x y z
#    x 1.764530 0.000000 0.000000 
#    y 0.000000 1.764530 0.000000 
#    z 0.000000 0.000000 1.765580 
# 
# From -- ./inp_files/3380.got.cif
#   From: 2010.03.12/outbox.cif.g09.slc.cpg/sg88_2_cif.got.tgz:3380.got - 2010.04.08 20:20:55.
