data_PCOD8304207
_publ_section_title
;
Structure prediction by ZEFSAII (Michael W. Deem and Ramdas Pophale) SiO2 
 PCOD8304207
Probable space group: I 41/A
;
_chemical_formula_sum "Si O2"
_cell_formula_units_Z 112
_cell_length_a 13.964159
_cell_length_b 13.964159
_cell_length_c 28.552678
_cell_angle_alpha 90.000000
_cell_angle_beta 90.000000
_cell_angle_gamma 90.000000
_cell_volume 5567.707583
_symmetry_space_group_name_H-M "I 41/A"
_symmetry_group_IT_number 88
_space_group.IT_coordinate_system_code '2'
_symmetry_cell_setting 'tetragonal'
loop_
_space_group_symop_operation_xyz
x,y,z
3/4-y,1/4+x,1/4+z
-x,1/2-y,z
1/4+y,1/4-x,1/4+z
-x,-y,-z
1/4+y,3/4-x,3/4-z
x,1/2+y,-z
3/4-y,3/4+x,3/4-z
1/2+x,1/2+y,1/2+z
1/4-y,3/4+x,3/4+z
1/2-x,-y,1/2+z
3/4+y,3/4-x,3/4+z
1/2-x,1/2-y,1/2-z
3/4+y,1/4-x,1/4-z
1/2+x,y,1/2-z
1/4-y,1/4+x,1/4-z
loop_
_atom_site_type_symbol
_atom_site_label
_atom_site_fract_x
_atom_site_fract_y
_atom_site_fract_z
Si Si1 0.543742 0.849587 0.966219
Si Si2 0.877205 0.017705 0.210910
Si Si3 0.979468 0.889765 0.857615
Si Si4 0.214586 0.267272 0.869165
Si Si5 0.143773 0.486851 0.316121
Si Si6 0.954085 0.150893 0.570433
Si Si7 0.184470 0.482241 0.883443
O O1 0.500000 0.750000 0.950026
O O2 0.657910 0.841568 0.960890
O O3 0.494991 0.926423 0.932983
O O4 0.508649 0.876961 0.018394
O O5 0.780879 0.025844 0.180411
O O6 0.962002 0.084959 0.189675
O O7 0.852268 0.054321 0.263355
O O8 0.898529 0.805539 0.852661
O O9 0.925066 0.985268 0.874516
O O10 0.175975 0.181933 0.902608
O O11 0.328953 0.261949 0.861196
O O12 0.184284 0.368647 0.891333
O O13 0.095877 0.590461 0.315739
O O14 0.249075 0.487360 0.339175
O O15 0.000000 0.250000 0.585814
#
# Coordination Sequence:
#
# PCOD8304207 Si02
#       7
#    16  16  16  16  16  16  16
#     4  10  19  35  55  82 116 155 191 228 286 342
#     4  10  20  38  59  83 118 148 195 243 288 351
#     4   9  19  38  68  86 103 145 197 243 293 344
#     4  11  21  34  55  85 120 153 194 232 281 340
#     4  10  22  34  55  87 116 162 192 231 294 332
#     4   9  21  33  53  82 118 159 194 228 267 336
#     4  10  21  38  58  84 120 157 190 243 290 342
#
# _framework density 20.115998000000001
#
# number of rings (size 3 to 8) (size 9 to 14) (size 15 to 20)
#    0.000    2.143    1.429    1.286    4.000    1.143 
#    0.000    0.000    6.286   22.286    0.000    0.000 
#    0.000    0.000    0.000    0.000    0.000    0.000 
#
# Total GULP energy -694096.343183 kJ/mol
# GULP energy per Si atom -12394.577557 kJ/mol
# Density = 2.007021 g / cm^3
# Si number density = 20.115998 Si / 1000 Ang^3
#
#
#
# Elastic Constant Matrix: (Units=GPa)
#
#
# Indices 1 2 3 4 5 6 
#
# 1 67.3873 21.5661 25.9552 0.0000 0.0000 -4.4981
# 2 21.5661 67.3873 25.9552 0.0000 0.0000 4.4981
# 3 25.9552 25.9552 124.1558 0.0000 0.0000 0.0000
# 4 0.0000 0.0000 0.0000 18.5555 0.0000 0.0000
# 5 0.0000 0.0000 0.0000 0.0000 18.5555 0.0000
# 6 -4.4981 4.4981 0.0000 0.0000 0.0000 35.0270
#
#
#
# Elastic Compliance Matrix: (Units=1/GPa)
#
#
# Indices 1 2 3 4 5 6 
#
# 1 0.017596 -0.004792 -0.002677 0.000000 0.000000 0.002875
# 2 -0.004792 0.017596 -0.002677 0.000000 0.000000 -0.002875
# 3 -0.002677 -0.002677 0.009174 0.000000 0.000000 0.000000
# 4 0.000000 0.000000 0.000000 0.053892 0.000000 0.000000
# 5 0.000000 0.000000 0.000000 0.000000 0.053892 0.000000
# 6 0.002875 -0.002875 0.000000 0.000000 0.000000 0.029288
#
#
# Mechanical properties :
#
#
# Convention : Reuss Voigt Hill
#
# Bulk Modulus (GPa) = 41.53770 45.09816 43.31793
# Shear Modulus (GPa) = 23.83736 26.79117 25.31427
#
# Velocity S-wave (km/s) = 3.44611 3.65339 3.55126
# Velocity P-wave (km/s) = 6.04385 6.34540 6.19646
#
# Compressibility (1/GPa) = 0.02407451
#
# Stress axis : x y z
#
# Youngs Moduli (GPa) = 56.83057 56.83057 109.00913
#
# Poissons Ratio (x) = 0.27235 0.29178
# Poissons Ratio (y) = 0.27235 0.29178
# Poissons Ratio (z) = 0.15212 0.15212
#
# Static dielectric constant tensor:
#      x y z
#    x 3.659670 0.000000 0.000000 
#    y 0.000000 3.659670 0.000000 
#    z 0.000000 0.000000 3.892950 
# 
# 
# High freq. dielectric constant tensor:
#      x y z
#    x 1.779800 0.000000 0.000000 
#    y 0.000000 1.779800 0.000000 
#    z 0.000000 0.000000 1.782090 
# 
# From -- ./inp_files/6578.got.cif
#   From: 2010.03.12/outbox.cif.g09.slc.cpg/sg88_4_cif.got.tgz:6578.got - 2010.04.08 20:20:55.
