data_PCOD8304241
_publ_section_title
;
Structure prediction by ZEFSAII (Michael W. Deem and Ramdas Pophale) SiO2 
 PCOD8304241
Probable space group: I 41/A
;
_chemical_formula_sum "Si O2"
_cell_formula_units_Z 128
_cell_length_a 24.145254
_cell_length_b 24.145254
_cell_length_c 9.388966
_cell_angle_alpha 90.000000
_cell_angle_beta 90.000000
_cell_angle_gamma 90.000000
_cell_volume 5473.704185
_symmetry_space_group_name_H-M "I 41/A"
_symmetry_group_IT_number 88
_space_group.IT_coordinate_system_code '2'
_symmetry_cell_setting 'tetragonal'
loop_
_space_group_symop_operation_xyz
x,y,z
3/4-y,1/4+x,1/4+z
-x,1/2-y,z
1/4+y,1/4-x,1/4+z
-x,-y,-z
1/4+y,3/4-x,3/4-z
x,1/2+y,-z
3/4-y,3/4+x,3/4-z
1/2+x,1/2+y,1/2+z
1/4-y,3/4+x,3/4+z
1/2-x,-y,1/2+z
3/4+y,3/4-x,3/4+z
1/2-x,1/2-y,1/2-z
3/4+y,1/4-x,1/4-z
1/2+x,y,1/2-z
1/4-y,1/4+x,1/4-z
loop_
_atom_site_type_symbol
_atom_site_label
_atom_site_fract_x
_atom_site_fract_y
_atom_site_fract_z
Si Si1 0.660719 0.228196 0.123980
Si Si2 0.773141 0.553428 0.715941
Si Si3 0.666459 0.606072 0.839821
Si Si4 0.384838 0.096808 0.278789
Si Si5 0.028612 0.492645 0.274588
Si Si6 0.413666 0.731862 0.122986
Si Si7 0.315794 0.691448 0.294249
Si Si8 0.028401 0.831921 0.864692
O O1 0.670232 0.164403 0.076591
O O2 0.634439 0.232336 0.281319
O O3 0.719859 0.259006 0.108838
O O4 0.620989 0.259797 0.018153
O O5 0.750686 0.540544 0.558174
O O6 0.727889 0.581737 0.819344
O O7 0.827958 0.591977 0.687666
O O8 0.638481 0.615875 0.687552
O O9 0.624506 0.564420 0.921144
O O10 0.416739 0.038522 0.278125
O O11 0.429425 0.145726 0.239368
O O12 0.047145 0.526397 0.412422
O O13 0.978285 0.452080 0.319818
O O14 0.438809 0.789667 0.174234
O O15 0.378333 0.708433 0.254512
O O16 0.059469 0.780269 0.945237
#
# Coordination Sequence:
#
# PCOD8304241 Si02
#       8
#    16  16  16  16  16  16  16  16
#     4  10  22  40  63  97 130 177 226 273 350 406
#     4  10  24  43  66  97 129 179 234 288 349 410
#     4  10  22  41  66  91 134 179 225 277 344 415
#     4  10  24  41  63  96 131 172 222 285 333 413
#     4  10  24  41  68 100 136 176 231 285 345 420
#     4  10  20  36  62  96 139 177 220 284 343 415
#     4  10  22  43  67 100 137 181 229 282 352 425
#     4  10  24  41  64  95 131 175 218 276 346 419
#
# _framework density 23.384532
#
# number of rings (size 3 to 8) (size 9 to 14) (size 15 to 20)
#    0.000    2.000    1.250    0.000    8.750    7.000 
#    0.000    2.500    0.000    0.000    0.000    0.000 
#    0.000    0.000    0.000    0.000    0.000    0.000 
#
# Total GULP energy -793028.443971 kJ/mol
# GULP energy per Si atom -12391.069437 kJ/mol
# Density = 2.333131 g / cm^3
# Si number density = 23.384532 Si / 1000 Ang^3
#
#
#
# Elastic Constant Matrix: (Units=GPa)
#
#
# Indices 1 2 3 4 5 6 
#
# 1 82.5855 49.1907 -0.9240 0.0000 0.0000 3.6976
# 2 49.1907 82.5855 -0.9240 0.0000 0.0000 -3.6976
# 3 -0.9240 -0.9240 38.4112 0.0000 0.0000 0.0000
# 4 0.0000 0.0000 0.0000 21.5172 0.0000 0.0000
# 5 0.0000 0.0000 0.0000 0.0000 21.5172 0.0000
# 6 3.6976 -3.6976 0.0000 0.0000 0.0000 41.7731
#
#
#
# Elastic Compliance Matrix: (Units=1/GPa)
#
#
# Indices 1 2 3 4 5 6 
#
# 1 0.019067 -0.011476 0.000183 0.000000 0.000000 -0.002704
# 2 -0.011476 0.019067 0.000183 0.000000 0.000000 0.002704
# 3 0.000183 0.000183 0.026043 0.000000 0.000000 0.000000
# 4 0.000000 0.000000 0.000000 0.046474 0.000000 0.000000
# 5 0.000000 0.000000 0.000000 0.000000 0.046474 0.000000
# 6 -0.002704 0.002704 0.000000 0.000000 0.000000 0.024417
#
#
# Mechanical properties :
#
#
# Convention : Reuss Voigt Hill
#
# Bulk Modulus (GPa) = 23.83471 33.14084 28.48778
# Shear Modulus (GPa) = 22.96202 27.37747 25.16975
#
# Velocity S-wave (km/s) = 3.13698 3.42534 3.28432
# Velocity P-wave (km/s) = 4.83068 5.46322 5.15666
#
# Compressibility (1/GPa) = 0.04195562
#
# Stress axis : x y z
#
# Youngs Moduli (GPa) = 52.44568 52.44568 38.39829
#
# Poissons Ratio (x) = 0.60187 -0.00701
# Poissons Ratio (y) = 0.60187 -0.00701
# Poissons Ratio (z) = -0.00958 -0.00958
#
# Static dielectric constant tensor:
#      x y z
#    x 4.578860 0.000000 0.000000 
#    y 0.000000 4.578860 0.000000 
#    z 0.000000 0.000000 3.746590 
# 
# 
# High freq. dielectric constant tensor:
#      x y z
#    x 1.937940 0.000000 0.000000 
#    y 0.000000 1.937940 0.000000 
#    z 0.000000 0.000000 1.887240 
# 
# From -- ./inp_files/2754.got.cif
#   From: 2010.03.12/outbox.cif.g09.slc.cpg/sg88_2_cif.got.tgz:2754.got - 2010.04.08 20:20:55.
