data_PCOD8304212
_publ_section_title
;
Structure prediction by ZEFSAII (Michael W. Deem and Ramdas Pophale) SiO2 
 PCOD8304212
Probable space group: I 41/A
;
_chemical_formula_sum "Si O2"
_cell_formula_units_Z 112
_cell_length_a 15.026461
_cell_length_b 15.026461
_cell_length_c 24.038259
_cell_angle_alpha 90.000000
_cell_angle_beta 90.000000
_cell_angle_gamma 90.000000
_cell_volume 5427.707397
_symmetry_space_group_name_H-M "I 41/A"
_symmetry_group_IT_number 88
_space_group.IT_coordinate_system_code '2'
_symmetry_cell_setting 'tetragonal'
loop_
_space_group_symop_operation_xyz
x,y,z
3/4-y,1/4+x,1/4+z
-x,1/2-y,z
1/4+y,1/4-x,1/4+z
-x,-y,-z
1/4+y,3/4-x,3/4-z
x,1/2+y,-z
3/4-y,3/4+x,3/4-z
1/2+x,1/2+y,1/2+z
1/4-y,3/4+x,3/4+z
1/2-x,-y,1/2+z
3/4+y,3/4-x,3/4+z
1/2-x,1/2-y,1/2-z
3/4+y,1/4-x,1/4-z
1/2+x,y,1/2-z
1/4-y,1/4+x,1/4-z
loop_
_atom_site_type_symbol
_atom_site_label
_atom_site_fract_x
_atom_site_fract_y
_atom_site_fract_z
Si Si1 0.098787 0.228972 0.331393
Si Si2 0.526909 0.091165 0.972529
Si Si3 0.731634 0.432300 0.828085
Si Si4 0.320655 0.580410 0.811882
Si Si5 0.880091 0.911657 0.257800
Si Si6 0.352143 0.430540 0.240291
Si Si7 0.663140 0.693081 0.948871
O O1 0.135813 0.323713 0.312454
O O2 0.100363 0.161125 0.278795
O O3 0.151910 0.183419 0.382443
O O4 0.000000 0.250000 0.351848
O O5 0.588469 0.073900 0.917197
O O6 0.431742 0.137854 0.957034
O O7 0.583558 0.146290 0.017807
O O8 0.500000 0.000000 0.000000
O O9 0.797914 0.459339 0.877117
O O10 0.783903 0.418767 0.770262
O O11 0.664215 0.513537 0.816678
O O12 0.389807 0.501289 0.794657
O O13 0.239079 0.593554 0.770656
O O14 0.952373 0.909427 0.209780
O O15 0.409949 0.488826 0.283309
#
# Coordination Sequence:
#
# PCOD8304212 Si02
#       7
#    16  16  16  16  16  16  16
#     4  12  24  39  65  96 122 165 222 266 320 389
#     4   9  19  34  57  86 120 154 199 253 314 382
#     4   9  19  38  58  87 117 161 209 246 324 381
#     4  11  22  40  61  88 126 167 212 260 318 382
#     4  10  19  36  58  87 123 158 201 261 311 379
#     4  10  23  40  62  90 124 167 210 273 321 380
#     4  11  21  39  63  90 124 163 210 261 329 389
#
# _framework density 20.634862999999999
#
# number of rings (size 3 to 8) (size 9 to 14) (size 15 to 20)
#    0.000    1.714    1.429    4.286    2.000    0.000 
#    5.143    0.000    0.000    0.000    0.000    0.000 
#    0.000    0.000    0.000    0.000    0.000    0.000 
#
# Total GULP energy -693789.259922 kJ/mol
# GULP energy per Si atom -12389.093927 kJ/mol
# Density = 2.058790 g / cm^3
# Si number density = 20.634863 Si / 1000 Ang^3
#
#
#
# Elastic Constant Matrix: (Units=GPa)
#
#
# Indices 1 2 3 4 5 6 
#
# 1 113.0249 35.5519 38.3236 0.0000 0.0000 -6.4299
# 2 35.5519 113.0249 38.3236 0.0000 0.0000 6.4299
# 3 38.3236 38.3236 74.5601 0.0000 0.0000 0.0000
# 4 0.0000 0.0000 0.0000 26.3467 0.0000 0.0000
# 5 0.0000 0.0000 0.0000 0.0000 26.3467 0.0000
# 6 -6.4299 6.4299 0.0000 0.0000 0.0000 32.0455
#
#
#
# Elastic Compliance Matrix: (Units=1/GPa)
#
#
# Indices 1 2 3 4 5 6 
#
# 1 0.011256 -0.002097 -0.004708 0.000000 0.000000 0.002679
# 2 -0.002097 0.011256 -0.004708 0.000000 0.000000 -0.002679
# 3 -0.004708 -0.004708 0.018252 0.000000 0.000000 0.000000
# 4 0.000000 0.000000 0.000000 0.037955 0.000000 0.000000
# 5 0.000000 0.000000 0.000000 0.000000 0.037955 0.000000
# 6 0.002679 -0.002679 0.000000 0.000000 0.000000 0.032281
#
#
# Mechanical properties :
#
#
# Convention : Reuss Voigt Hill
#
# Bulk Modulus (GPa) = 56.37365 58.33421 57.35393
# Shear Modulus (GPa) = 28.10693 29.50850 28.80772
#
# Velocity S-wave (km/s) = 3.69468 3.78568 3.74046
# Velocity P-wave (km/s) = 6.75128 6.88764 6.81980
#
# Compressibility (1/GPa) = 0.01773879
#
# Stress axis : x y z
#
# Youngs Moduli (GPa) = 88.84315 88.84315 54.78985
#
# Poissons Ratio (x) = 0.18627 0.25794
# Poissons Ratio (y) = 0.18627 0.25794
# Poissons Ratio (z) = 0.41825 0.41825
#
# Static dielectric constant tensor:
#      x y z
#    x 4.091860 0.000000 0.000000 
#    y 0.000000 4.091860 0.000000 
#    z 0.000000 0.000000 3.388580 
# 
# 
# High freq. dielectric constant tensor:
#      x y z
#    x 1.814630 0.000000 0.000000 
#    y 0.000000 1.814630 0.000000 
#    z 0.000000 0.000000 1.780300 
# 
# From -- ./inp_files/5337.got.cif
#   From: 2010.03.12/outbox.cif.g09.slc.cpg/sg88_3_cif.got.tgz:5337.got - 2010.04.08 20:20:55.
