data_PCOD8304338
_publ_section_title
;
Structure prediction by ZEFSAII (Michael W. Deem and Ramdas Pophale) SiO2 
 PCOD8304338
Probable space group: I 41/A
;
_chemical_formula_sum "Si O2"
_cell_formula_units_Z 112
_cell_length_a 27.536331
_cell_length_b 27.536331
_cell_length_c 6.280638
_cell_angle_alpha 90.000000
_cell_angle_beta 90.000000
_cell_angle_gamma 90.000000
_cell_volume 4762.290780
_symmetry_space_group_name_H-M "I 41/A"
_symmetry_group_IT_number 88
_space_group.IT_coordinate_system_code '2'
_symmetry_cell_setting 'tetragonal'
loop_
_space_group_symop_operation_xyz
x,y,z
3/4-y,1/4+x,1/4+z
-x,1/2-y,z
1/4+y,1/4-x,1/4+z
-x,-y,-z
1/4+y,3/4-x,3/4-z
x,1/2+y,-z
3/4-y,3/4+x,3/4-z
1/2+x,1/2+y,1/2+z
1/4-y,3/4+x,3/4+z
1/2-x,-y,1/2+z
3/4+y,3/4-x,3/4+z
1/2-x,1/2-y,1/2-z
3/4+y,1/4-x,1/4-z
1/2+x,y,1/2-z
1/4-y,1/4+x,1/4-z
loop_
_atom_site_type_symbol
_atom_site_label
_atom_site_fract_x
_atom_site_fract_y
_atom_site_fract_z
Si Si1 0.109606 0.450842 0.567716
Si Si2 0.330863 0.276102 0.083002
Si Si3 0.288250 0.195520 0.844238
Si Si4 0.143056 0.281786 0.035600
Si Si5 0.318492 0.489317 0.333440
Si Si6 0.380588 0.912159 0.422331
Si Si7 0.423959 0.747073 0.179111
O O1 0.082745 0.428645 0.778620
O O2 0.070811 0.483281 0.442714
O O3 0.123678 0.410032 0.397076
O O4 0.156814 0.480975 0.640250
O O5 0.341290 0.266448 0.331154
O O6 0.286028 0.242504 0.999883
O O7 0.376310 0.256226 0.953183
O O8 0.312849 0.206871 0.620164
O O9 0.317951 0.152122 0.952889
O O10 0.135119 0.328230 0.189134
O O11 0.092283 0.270930 0.914270
O O12 0.295722 0.526667 0.499245
O O13 0.359192 0.457296 0.446811
O O14 0.455587 0.795903 0.194482
#
# Coordination Sequence:
#
# PCOD8304338 Si02
#       7
#    16  16  16  16  16  16  16
#     4  12  24  43  72 105 142 195 246 300 360 430
#     4  10  25  42  72 103 143 184 232 299 355 434
#     4  10  22  48  63 102 145 182 237 294 359 428
#     4  10  23  47  72 100 145 183 230 299 362 428
#     4  12  25  45  69 104 148 199 247 302 363 424
#     4  11  24  44  75 105 143 190 246 306 351 430
#     4  10  24  47  72 102 141 183 236 295 356 434
#
# _framework density 23.518094000000001
#
# number of rings (size 3 to 8) (size 9 to 14) (size 15 to 20)
#    0.000    1.286    1.429    3.000    6.000    1.714 
#   12.857    1.429    0.000    0.000    0.000    0.000 
#    0.000    0.000    0.000    0.000    0.000    0.000 
#
# Total GULP energy -694572.941184 kJ/mol
# GULP energy per Si atom -12403.088235 kJ/mol
# Density = 2.346457 g / cm^3
# Si number density = 23.518094 Si / 1000 Ang^3
#
#
#
# Elastic Constant Matrix: (Units=GPa)
#
#
# Indices 1 2 3 4 5 6 
#
# 1 95.2348 39.2005 38.9464 0.0000 0.0000 5.3015
# 2 39.2005 95.2348 38.9464 0.0000 0.0000 -5.3015
# 3 38.9464 38.9464 96.8450 0.0000 0.0000 0.0000
# 4 0.0000 0.0000 0.0000 31.9551 0.0000 0.0000
# 5 0.0000 0.0000 0.0000 0.0000 31.9551 0.0000
# 6 5.3015 -5.3015 0.0000 0.0000 0.0000 34.5307
#
#
#
# Elastic Compliance Matrix: (Units=1/GPa)
#
#
# Indices 1 2 3 4 5 6 
#
# 1 0.014039 -0.004341 -0.003900 0.000000 0.000000 -0.002822
# 2 -0.004341 0.014039 -0.003900 0.000000 0.000000 0.002822
# 3 -0.003900 -0.003900 0.013463 0.000000 0.000000 0.000000
# 4 0.000000 0.000000 0.000000 0.031294 0.000000 0.000000
# 5 0.000000 0.000000 0.000000 0.000000 0.031294 0.000000
# 6 -0.002822 0.002822 0.000000 0.000000 0.000000 0.029826
#
#
# Mechanical properties :
#
#
# Convention : Reuss Voigt Hill
#
# Bulk Modulus (GPa) = 57.94223 57.94460 57.94341
# Shear Modulus (GPa) = 30.48950 31.03626 30.76288
#
# Velocity S-wave (km/s) = 3.60450 3.63668 3.62062
# Velocity P-wave (km/s) = 6.48182 6.50582 6.49383
#
# Compressibility (1/GPa) = 0.01725857
#
# Stress axis : x y z
#
# Youngs Moduli (GPa) = 71.22884 71.22884 74.27916
#
# Poissons Ratio (x) = 0.30920 0.28970
# Poissons Ratio (y) = 0.30920 0.28970
# Poissons Ratio (z) = 0.27781 0.27781
#
# Static dielectric constant tensor:
#      x y z
#    x 4.393970 0.000000 0.000000 
#    y 0.000000 4.393970 0.000000 
#    z 0.000000 0.000000 4.292830 
# 
# 
# High freq. dielectric constant tensor:
#      x y z
#    x 1.937670 0.000000 0.000000 
#    y 0.000000 1.937670 0.000000 
#    z 0.000000 0.000000 1.929600 
# 
# From -- ./inp_files/817.got.cif
#   From: 2010.03.12/outbox.cif.g09.slc.cpg/sg88_1_cif.got.tgz:817.got - 2010.04.08 20:20:55.
