data_PCOD8304006
_publ_section_title
;
Structure prediction by ZEFSAII (Michael W. Deem and Ramdas Pophale) SiO2 
 PCOD8304006
Probable space group: I 4/M
;
_chemical_formula_sum "Si O2"
_cell_formula_units_Z 96
_cell_length_a 23.710592
_cell_length_b 23.710592
_cell_length_c 8.916746
_cell_angle_alpha 90.000000
_cell_angle_beta 90.000000
_cell_angle_gamma 90.000000
_cell_volume 5012.924810
_symmetry_space_group_name_H-M "I 4/M"
_symmetry_group_IT_number 87
_symmetry_cell_setting 'tetragonal'
loop_
_space_group_symop_operation_xyz
x,y,z
-y,x,z
-x,-y,z
y,-x,z
-x,-y,-z
y,-x,-z
x,y,-z
-y,x,-z
1/2+x,1/2+y,1/2+z
1/2-y,1/2+x,1/2+z
1/2-x,1/2-y,1/2+z
1/2+y,1/2-x,1/2+z
1/2-x,1/2-y,1/2-z
1/2+y,1/2-x,1/2-z
1/2+x,1/2+y,1/2-z
1/2-y,1/2+x,1/2-z
loop_
_atom_site_type_symbol
_atom_site_label
_atom_site_fract_x
_atom_site_fract_y
_atom_site_fract_z
Si Si1 0.443473 0.572546 0.164412
Si Si2 0.368055 0.354758 0.329065
Si Si3 0.653033 0.055567 0.172126
Si Si4 0.452956 0.271075 0.176863
Si Si5 0.140348 0.428028 0.328570
Si Si6 0.429241 0.731150 0.324597
O O1 0.421881 0.509384 0.178796
O O2 0.416015 0.604450 0.303625
O O3 0.424290 0.595739 0.000000
O O4 0.373457 0.334697 0.500000
O O5 0.399669 0.309662 0.225603
O O6 0.303052 0.371075 0.286425
O O7 0.708330 0.062425 0.272390
O O8 0.606774 0.100762 0.219078
O O9 0.626029 0.993845 0.192738
O O10 0.670575 0.065410 0.000000
O O11 0.513810 0.291065 0.241398
O O12 0.457369 0.273909 0.000000
O O13 0.130283 0.409044 0.500000
O O14 0.204643 0.416756 0.278533
O O15 0.443581 0.726855 0.500000
#
# Coordination Sequence:
#
# PCOD8304006 Si02
#       6
#    16  16  16  16  16  16
#     4   9  18  31  45  65  96 131 170 222 279 328
#     4  11  21  33  51  74 102 139 184 228 272 324
#     4  10  21  38  60  86 116 146 178 218 265 321
#     4  11  22  36  56  80 109 145 185 229 276 326
#     4   9  19  37  59  84 114 144 177 218 265 320
#     4   9  20  38  57  79 110 147 185 229 278 326
#
# _framework density 19.150497999999999
#
# number of rings (size 3 to 8) (size 9 to 14) (size 15 to 20)
#    0.000    2.167    0.000    5.000    0.000    8.333 
#    0.000    3.333    0.000    0.000    0.000    0.000 
#    0.000    0.000    0.000    0.000    0.000    0.000 
#
# Total GULP energy -594900.945610 kJ/mol
# GULP energy per Si atom -12393.769700 kJ/mol
# Density = 1.910691 g / cm^3
# Si number density = 19.150498 Si / 1000 Ang^3
#
#
#
# Elastic Constant Matrix: (Units=GPa)
#
#
# Indices 1 2 3 4 5 6 
#
# 1 62.5988 36.6344 41.4556 0.0000 0.0000 1.3662
# 2 36.6344 62.5988 41.4556 0.0000 0.0000 -1.3662
# 3 41.4556 41.4556 89.5987 0.0000 0.0000 0.0000
# 4 0.0000 0.0000 0.0000 32.8425 0.0000 0.0000
# 5 0.0000 0.0000 0.0000 0.0000 32.8425 0.0000
# 6 1.3662 -1.3662 0.0000 0.0000 0.0000 33.9777
#
#
#
# Elastic Compliance Matrix: (Units=1/GPa)
#
#
# Indices 1 2 3 4 5 6 
#
# 1 0.027553 -0.011125 -0.007601 0.000000 0.000000 -0.001555
# 2 -0.011125 0.027553 -0.007601 0.000000 0.000000 0.001555
# 3 -0.007601 -0.007601 0.018194 0.000000 0.000000 0.000000
# 4 0.000000 0.000000 0.000000 0.030448 0.000000 0.000000
# 5 0.000000 0.000000 0.000000 0.000000 0.030448 0.000000
# 6 -0.001555 0.001555 0.000000 0.000000 0.000000 0.029556
#
#
# Mechanical properties :
#
#
# Convention : Reuss Voigt Hill
#
# Bulk Modulus (GPa) = 48.43372 50.43196 49.43284
# Shear Modulus (GPa) = 22.39247 26.28257 24.33752
#
# Velocity S-wave (km/s) = 3.42320 3.70864 3.56877
# Velocity P-wave (km/s) = 6.40081 6.68808 6.54602
#
# Compressibility (1/GPa) = 0.02064677
#
# Stress axis : x y z
#
# Youngs Moduli (GPa) = 36.29369 36.29369 54.96176
#
# Poissons Ratio (x) = 0.40377 0.41776
# Poissons Ratio (y) = 0.40377 0.41776
# Poissons Ratio (z) = 0.27587 0.27587
#
# Static dielectric constant tensor:
#      x y z
#    x 3.507960 0.000000 0.000000 
#    y 0.000000 3.507960 0.000000 
#    z 0.000000 0.000000 3.510980 
# 
# 
# High freq. dielectric constant tensor:
#      x y z
#    x 1.738070 0.000000 0.000000 
#    y 0.000000 1.738070 0.000000 
#    z 0.000000 0.000000 1.746940 
# 
# From -- ./inp_files/1330.got.cif
#   From: 2010.03.12/outbox.cif.g09.slc.cpg/sg87_1_cif.got.tgz:1330.got - 2010.04.08 20:16:13.
