data_PCOD8304026
_publ_section_title
;
Structure prediction by ZEFSAII (Michael W. Deem and Ramdas Pophale) SiO2 
 PCOD8304026
Probable space group: I 4/M
;
_chemical_formula_sum "Si O2"
_cell_formula_units_Z 96
_cell_length_a 14.795600
_cell_length_b 14.795600
_cell_length_c 21.117700
_cell_angle_alpha 90.000000
_cell_angle_beta 90.000000
_cell_angle_gamma 90.000000
_cell_volume 4622.871048
_symmetry_space_group_name_H-M "I 4/M"
_symmetry_group_IT_number 87
_symmetry_cell_setting 'tetragonal'
loop_
_space_group_symop_operation_xyz
x,y,z
-y,x,z
-x,-y,z
y,-x,z
-x,-y,-z
y,-x,-z
x,y,-z
-y,x,-z
1/2+x,1/2+y,1/2+z
1/2-y,1/2+x,1/2+z
1/2-x,1/2-y,1/2+z
1/2+y,1/2-x,1/2+z
1/2-x,1/2-y,1/2-z
1/2+y,1/2-x,1/2-z
1/2+x,1/2+y,1/2-z
1/2-y,1/2+x,1/2-z
loop_
_atom_site_type_symbol
_atom_site_label
_atom_site_fract_x
_atom_site_fract_y
_atom_site_fract_z
Si Si1 0.556058 0.360641 0.247084
Si Si2 0.240193 0.949762 0.428714
Si Si3 0.840547 0.787385 0.927978
Si Si4 0.727887 0.534883 0.620145
Si Si5 0.790247 0.863165 0.624905
Si Si6 0.556034 0.086075 0.426062
O O1 0.616127 0.450580 0.240853
O O2 0.569835 0.311026 0.313631
O O3 0.591997 0.288990 0.194878
O O4 0.223604 0.916552 0.500000
O O5 0.176938 0.890269 0.383925
O O6 0.341676 0.932241 0.407905
O O7 0.220774 0.055983 0.424863
O O8 0.788797 0.883115 0.929081
O O9 0.787683 0.712432 0.885562
O O10 0.939365 0.813754 0.901082
O O11 0.846170 0.750796 0.000000
O O12 0.835156 0.518459 0.619181
O O13 0.541162 0.109439 0.500000
O O14 0.500000 0.000000 0.405503
#
# Coordination Sequence:
#
# PCOD8304026 Si02
#       6
#    16  16  16  16  16  16
#     4  11  24  47  69  94 136 184 237 286 354 432
#     4  11  22  38  64 100 134 171 220 285 357 423
#     4  12  25  43  70 107 142 180 235 298 367 435
#     4  12  24  44  70 101 141 185 234 293 354 428
#     4  12  24  43  68  97 139 180 233 291 354 427
#     4  10  21  41  68  99 139 181 224 279 356 431
#
# _framework density 20.766316
#
# number of rings (size 3 to 8) (size 9 to 14) (size 15 to 20)
#    0.000    0.667    5.000    4.000    0.000    2.667 
#    3.000    1.667    0.000    0.000    0.000    0.000 
#    0.000    0.000    0.000    0.000    0.000    0.000 
#
# Total GULP energy -595210.100982 kJ/mol
# GULP energy per Si atom -12400.210437 kJ/mol
# Density = 2.071905 g / cm^3
# Si number density = 20.766316 Si / 1000 Ang^3
#
#
#
# Elastic Constant Matrix: (Units=GPa)
#
#
# Indices 1 2 3 4 5 6 
#
# 1 112.1079 25.3599 35.6398 0.0000 0.0000 2.6989
# 2 25.3599 112.1079 35.6398 0.0000 0.0000 -2.6989
# 3 35.6398 35.6398 102.0926 0.0000 0.0000 0.0000
# 4 0.0000 0.0000 0.0000 40.6064 0.0000 0.0000
# 5 0.0000 0.0000 0.0000 0.0000 40.6064 0.0000
# 6 2.6989 -2.6989 0.0000 0.0000 0.0000 29.2657
#
#
#
# Elastic Compliance Matrix: (Units=1/GPa)
#
#
# Indices 1 2 3 4 5 6 
#
# 1 0.010238 -0.001356 -0.003101 0.000000 0.000000 -0.001069
# 2 -0.001356 0.010238 -0.003101 0.000000 0.000000 0.001069
# 3 -0.003101 -0.003101 0.011960 0.000000 0.000000 0.000000
# 4 0.000000 0.000000 0.000000 0.024627 0.000000 0.000000
# 5 0.000000 0.000000 0.000000 0.000000 0.024627 0.000000
# 6 -0.001069 0.001069 0.000000 0.000000 0.000000 0.034367
#
#
# Mechanical properties :
#
#
# Convention : Reuss Voigt Hill
#
# Bulk Modulus (GPa) = 57.73183 57.73191 57.73187
# Shear Modulus (GPa) = 36.51100 37.40699 36.95899
#
# Velocity S-wave (km/s) = 4.19762 4.24881 4.22329
# Velocity P-wave (km/s) = 7.16620 7.20631 7.18628
#
# Compressibility (1/GPa) = 0.01732147
#
# Stress axis : x y z
#
# Youngs Moduli (GPa) = 97.67353 97.67353 83.61270
#
# Poissons Ratio (x) = 0.13244 0.25926
# Poissons Ratio (y) = 0.13244 0.25926
# Poissons Ratio (z) = 0.30286 0.30286
#
# Static dielectric constant tensor:
#      x y z
#    x 3.546550 0.000000 0.000000 
#    y 0.000000 3.546550 0.000000 
#    z 0.000000 0.000000 3.549940 
# 
# 
# High freq. dielectric constant tensor:
#      x y z
#    x 1.822950 0.000000 0.000000 
#    y 0.000000 1.822950 0.000000 
#    z 0.000000 0.000000 1.796160 
# 
# From -- ./inp_files/5311.got.cif
#   From: 2010.03.12/outbox.cif.g09.slc.cpg/sg87_3_cif.got.tgz:5311.got - 2010.04.08 20:16:13.
