data_PCOD8304872
_publ_section_title
;
Structure prediction by ZEFSAII (Michael W. Deem and Ramdas Pophale) SiO2 
 PCOD8304872
Probable space group: P 41 2 2
;
_chemical_formula_sum "Si O2"
_cell_formula_units_Z 48
_cell_length_a 8.928605
_cell_length_b 8.928605
_cell_length_c 31.030417
_cell_angle_alpha 90.000000
_cell_angle_beta 90.000000
_cell_angle_gamma 90.000000
_cell_volume 2473.744447
_symmetry_space_group_name_H-M "P 41 2 2"
_symmetry_group_IT_number 91
_symmetry_cell_setting 'tetragonal'
loop_
_space_group_symop_operation_xyz
x,y,z
-y,x,1/4+z
-x,-y,1/2+z
y,-x,3/4+z
x,-y,1/2-z
-x,y,-z
y,x,3/4-z
-y,-x,1/4-z
loop_
_atom_site_type_symbol
_atom_site_label
_atom_site_fract_x
_atom_site_fract_y
_atom_site_fract_z
Si Si1 0.401336 0.113154 0.957815
Si Si2 0.311829 0.156451 0.087150
Si Si3 0.694296 0.826150 0.242098
Si Si4 0.658952 0.192039 0.585939
Si Si5 0.199558 0.321582 0.169808
Si Si6 0.672396 0.385074 0.502966
O O1 0.513588 0.197853 0.923894
O O2 0.271263 0.227571 0.970552
O O3 0.317835 0.973498 0.935101
O O4 0.500000 0.061973 0.000000
O O5 0.250981 0.202108 0.134001
O O6 0.305551 0.980488 0.079211
O O7 0.201147 0.235277 0.054253
O O8 0.521731 0.783233 0.240523
O O9 0.714434 0.000000 0.250000
O O10 0.759293 0.240708 0.625000
O O11 0.487658 0.229418 0.598232
O O12 0.701959 0.273019 0.542029
O O13 0.301562 0.279531 0.209948
O O14 0.500000 0.439258 0.500000
#
# Coordination Sequence:
#
# PCOD8304872 Si02
#       6
#     8   8   8   8   8   8
#     4   9  19  40  61  80 115 156 189 231 291 347
#     4  10  21  38  59  85 116 150 186 233 291 347
#     4  11  23  38  58  85 114 150 195 243 288 336
#     4  10  21  37  59  85 115 151 192 233 280 342
#     4  10  20  36  61  88 113 147 191 234 284 346
#     4  10  20  37  59  83 111 150 194 234 281 340
#
# _framework density 19.403784999999999
#
# number of rings (size 3 to 8) (size 9 to 14) (size 15 to 20)
#    0.000    2.000    0.000    6.000    0.000    6.667 
#    0.000    3.333    0.000    0.000    0.000    0.000 
#    0.000    0.000    0.000    0.000    0.000    0.000 
#
# Total GULP energy -595067.130156 kJ/mol
# GULP energy per Si atom -12397.231878 kJ/mol
# Density = 1.935962 g / cm^3
# Si number density = 19.403785 Si / 1000 Ang^3
#
#
#
# Elastic Constant Matrix: (Units=GPa)
#
#
# Indices 1 2 3 4 5 6 
#
# 1 112.1437 68.5218 62.2171 0.0000 0.0000 0.0000
# 2 68.5218 112.1440 62.2190 0.0000 0.0000 0.0000
# 3 62.2171 62.2190 119.3873 0.0000 0.0000 0.0000
# 4 0.0000 0.0000 0.0000 36.7142 0.0000 0.0000
# 5 0.0000 0.0000 0.0000 0.0000 36.7132 0.0000
# 6 0.0000 0.0000 0.0000 0.0000 0.0000 -3.0448
#
#
#
# Elastic Compliance Matrix: (Units=1/GPa)
#
#
# Indices 1 2 3 4 5 6 
#
# 1 0.015779 -0.007145 -0.004499 0.000000 0.000000 0.000000
# 2 -0.007145 0.015779 -0.004500 0.000000 0.000000 0.000000
# 3 -0.004499 -0.004500 0.013066 0.000000 0.000000 0.000000
# 4 0.000000 0.000000 0.000000 0.027237 0.000000 0.000000
# 5 0.000000 0.000000 0.000000 0.000000 0.027238 0.000000
# 6 0.000000 0.000000 0.000000 0.000000 0.000000 -0.328428
#
#
# Mechanical properties :
#
#
# Convention : Reuss Voigt Hill
#
# Bulk Modulus (GPa) = 81.06449 81.06564 81.06507
# Shear Modulus (GPa) = -25.91653 24.12431 -0.89611
#
# Velocity S-wave (km/s) = -3.65861 3.52984 -0.68031
# Velocity P-wave (km/s) = 4.90114 7.64735 6.42274
#
# Compressibility (1/GPa) = 0.01233586
#
# Stress axis : x y z
#
# Youngs Moduli (GPa) = 63.37497 63.37365 76.53370
#
# Poissons Ratio (x) = 0.45280 0.34436
# Poissons Ratio (y) = 0.45281 0.34440
# Poissons Ratio (z) = 0.28515 0.28518
#
# Static dielectric constant tensor:
#      x y z
#    x 3.535170 0.000000 0.000000 
#    y 0.000000 3.535170 0.000000 
#    z 0.000000 0.000000 0.127930 
# 
# 
# High freq. dielectric constant tensor:
#      x y z
#    x 1.752850 0.000000 0.000000 
#    y 0.000000 1.752850 0.000000 
#    z 0.000000 0.000000 1.761100 
# 
# From -- ./inp_files/13602.got.cif
#   From: 2010.03.12/outbox.cif.g09.slc.cpg/sg91_7_cif.got.tgz:13602.got - 2010.04.08 20:27:58.
