data_PCOD8304515
_publ_section_title
;
Structure prediction by ZEFSAII (Michael W. Deem and Ramdas Pophale) SiO2 
 PCOD8304515
Probable space group: P 4 2 2
;
_chemical_formula_sum "Si O2"
_cell_formula_units_Z 64
_cell_length_a 11.238768
_cell_length_b 11.238768
_cell_length_c 25.608488
_cell_angle_alpha 90.000000
_cell_angle_beta 90.000000
_cell_angle_gamma 90.000000
_cell_volume 3234.605716
_symmetry_space_group_name_H-M "P 4 2 2"
_symmetry_group_IT_number 89
_symmetry_cell_setting 'tetragonal'
loop_
_space_group_symop_operation_xyz
x,y,z
-y,x,z
-x,-y,z
y,-x,z
x,-y,-z
-x,y,-z
y,x,-z
-y,-x,-z
loop_
_atom_site_type_symbol
_atom_site_label
_atom_site_fract_x
_atom_site_fract_y
_atom_site_fract_z
Si Si1 0.311627 0.498157 0.158809
Si Si2 0.113616 0.426206 0.773221
Si Si3 0.695004 0.001567 0.941675
Si Si4 0.865138 0.497119 0.411020
Si Si5 0.512632 0.807189 0.943297
Si Si6 0.188798 0.040007 0.166677
Si Si7 0.542756 0.305497 0.683905
Si Si8 0.131030 0.678751 0.506507
O O1 0.384059 0.382449 0.177826
O O2 0.178129 0.498467 0.181119
O O3 0.301262 0.501724 0.096556
O O4 0.070586 0.300178 0.796184
O O5 0.210432 0.419067 0.727497
O O6 0.000000 0.500000 0.753543
O O7 0.640029 0.870192 0.932181
O O8 0.589636 0.095442 0.939567
O O9 0.784966 0.038778 0.895623
O O10 0.755070 0.000000 0.000000
O O11 0.766107 0.455607 0.370129
O O12 0.849522 0.414372 0.460676
O O13 0.841594 0.627208 0.435507
O O14 0.000000 0.500000 0.387401
O O15 0.500000 0.747834 0.000000
O O16 0.090791 0.139534 0.180200
O O17 0.639977 0.410303 0.688562
O O18 0.208830 0.791171 0.500000
O O19 0.000000 0.728508 0.500000
#
# Coordination Sequence:
#
# PCOD8304515 Si02
#       8
#     8   8   8   8   8   8   8   8
#     4  11  24  39  58  87 117 145 187 240 285 344
#     4  12  26  42  68  85 113 158 195 239 305 366
#     4   9  18  35  60  88 118 150 186 232 290 357
#     4   9  18  35  57  88 125 167 218 258 316 382
#     4   9  18  33  55  84 115 149 184 221 279 349
#     4  11  26  43  62  91 119 148 195 247 293 358
#     4  11  24  41  63  94 125 155 205 269 318 373
#     4   9  17  30  54  86 126 174 217 264 313 372
#
# _framework density 19.786028000000002
#
# number of rings (size 3 to 8) (size 9 to 14) (size 15 to 20)
#    0.000    1.875    1.250    4.125    5.250    2.125 
#    0.000    3.750    0.000    3.000    0.000    0.000 
#    0.000    0.000    0.000    0.000    0.000    0.000 
#
# Total GULP energy -793026.084960 kJ/mol
# GULP energy per Si atom -12391.032578 kJ/mol
# Density = 1.974099 g / cm^3
# Si number density = 19.786028 Si / 1000 Ang^3
#
#
#
# Elastic Constant Matrix: (Units=GPa)
#
#
# Indices 1 2 3 4 5 6 
#
# 1 97.2964 46.9968 36.2076 0.0000 0.0000 0.0000
# 2 46.9968 97.2989 36.2149 0.0000 0.0000 0.0000
# 3 36.2076 36.2149 66.8738 0.0000 0.0000 0.0000
# 4 0.0000 0.0000 0.0000 29.0146 0.0000 0.0000
# 5 0.0000 0.0000 0.0000 0.0000 29.0167 0.0000
# 6 0.0000 0.0000 0.0000 0.0000 0.0000 31.0475
#
#
#
# Elastic Compliance Matrix: (Units=1/GPa)
#
#
# Indices 1 2 3 4 5 6 
#
# 1 0.014698 -0.005182 -0.005152 0.000000 0.000000 0.000000
# 2 -0.005182 0.014699 -0.005155 0.000000 0.000000 0.000000
# 3 -0.005152 -0.005155 0.020534 0.000000 0.000000 0.000000
# 4 0.000000 0.000000 0.000000 0.034465 0.000000 0.000000
# 5 0.000000 0.000000 0.000000 0.000000 0.034463 0.000000
# 6 0.000000 0.000000 0.000000 0.000000 0.000000 0.032209
#
#
# Mechanical properties :
#
#
# Convention : Reuss Voigt Hill
#
# Bulk Modulus (GPa) = 52.75650 55.58975 54.17312
# Shear Modulus (GPa) = 26.54449 27.28575 26.91512
#
# Velocity S-wave (km/s) = 3.66673 3.71757 3.69224
# Velocity P-wave (km/s) = 6.68191 6.82522 6.75394
#
# Compressibility (1/GPa) = 0.01895501
#
# Stress axis : x y z
#
# Youngs Moduli (GPa) = 68.03640 68.03156 48.69912
#
# Poissons Ratio (x) = 0.35253 0.25089
# Poissons Ratio (y) = 0.35256 0.25102
# Poissons Ratio (z) = 0.35051 0.35067
#
# Static dielectric constant tensor:
#      x y z
#    x 3.527900 0.000000 0.000000 
#    y 0.000000 3.527910 0.000000 
#    z 0.000000 0.000000 3.729560 
# 
# 
# High freq. dielectric constant tensor:
#      x y z
#    x 1.769360 0.000000 0.000000 
#    y 0.000000 1.769360 0.000000 
#    z 0.000000 0.000000 1.765960 
# 
# From -- ./inp_files/2802.got.cif
#   From: 2010.03.12/outbox.cif.g09.slc.cpg/sg89_2_cif.got.tgz:2802.got - 2010.04.08 20:24:03.
