data_PCOD8304184
_publ_section_title
;
Structure prediction by ZEFSAII (Michael W. Deem and Ramdas Pophale) SiO2 
 PCOD8304184
Probable space group: I 41/A
;
_chemical_formula_sum "Si O2"
_cell_formula_units_Z 96
_cell_length_a 26.613233
_cell_length_b 26.613233
_cell_length_c 7.908280
_cell_angle_alpha 90.000000
_cell_angle_beta 90.000000
_cell_angle_gamma 90.000000
_cell_volume 5601.151376
_symmetry_space_group_name_H-M "I 41/A"
_symmetry_group_IT_number 88
_space_group.IT_coordinate_system_code '2'
_symmetry_cell_setting 'tetragonal'
loop_
_space_group_symop_operation_xyz
x,y,z
3/4-y,1/4+x,1/4+z
-x,1/2-y,z
1/4+y,1/4-x,1/4+z
-x,-y,-z
1/4+y,3/4-x,3/4-z
x,1/2+y,-z
3/4-y,3/4+x,3/4-z
1/2+x,1/2+y,1/2+z
1/4-y,3/4+x,3/4+z
1/2-x,-y,1/2+z
3/4+y,3/4-x,3/4+z
1/2-x,1/2-y,1/2-z
3/4+y,1/4-x,1/4-z
1/2+x,y,1/2-z
1/4-y,1/4+x,1/4-z
loop_
_atom_site_type_symbol
_atom_site_label
_atom_site_fract_x
_atom_site_fract_y
_atom_site_fract_z
Si Si1 0.312306 0.771554 0.419889
Si Si2 0.275724 0.057017 0.326718
Si Si3 0.120492 0.901572 0.807498
Si Si4 0.172875 0.800263 0.775399
Si Si5 0.501172 0.948835 0.196404
Si Si6 0.223462 0.153689 0.362401
O O1 0.336679 0.826842 0.424665
O O2 0.334578 0.739494 0.574063
O O3 0.252374 0.776565 0.435755
O O4 0.327227 0.747137 0.238115
O O5 0.240707 0.037674 0.182952
O O6 0.326980 0.076139 0.240692
O O7 0.246707 0.101132 0.431694
O O8 0.130280 0.841709 0.814968
O O9 0.106372 0.926210 0.988808
O O10 0.164218 0.774162 0.591821
O O11 0.230537 0.819102 0.765548
O O12 0.560756 0.955945 0.235148
#
# Coordination Sequence:
#
# PCOD8304184 Si02
#       6
#    16  16  16  16  16  16
#     4  10  19  33  53  79  98 133 178 211 260 306
#     4   9  19  30  46  70 106 144 171 201 245 305
#     4  10  18  32  53  72 101 143 167 205 268 306
#     4  10  18  33  53  74 107 132 165 223 252 301
#     4  10  18  32  56  76 102 130 173 226 251 292
#     4   9  16  33  52  70 100 141 172 206 258 295
#
# _framework density 17.139334000000002
#
# number of rings (size 3 to 8) (size 9 to 14) (size 15 to 20)
#    0.000    2.333    3.333    1.000    0.000    1.333 
#    3.000    1.667    0.000    0.500    0.000    0.000 
#    0.000    0.000    0.000    0.000    0.000    0.000 
#
# Total GULP energy -594746.408422 kJ/mol
# GULP energy per Si atom -12390.550175 kJ/mol
# Density = 1.710032 g / cm^3
# Si number density = 17.139334 Si / 1000 Ang^3
#
#
#
# Elastic Constant Matrix: (Units=GPa)
#
#
# Indices 1 2 3 4 5 6 
#
# 1 93.1921 36.2163 38.7502 0.0000 0.0000 1.5655
# 2 36.2163 93.1921 38.7502 0.0000 0.0000 -1.5655
# 3 38.7502 38.7502 107.2154 0.0000 0.0000 0.0000
# 4 0.0000 0.0000 0.0000 113.3154 0.0000 0.0000
# 5 0.0000 0.0000 0.0000 0.0000 113.3154 0.0000
# 6 1.5655 -1.5655 0.0000 0.0000 0.0000 21.1798
#
#
#
# Elastic Compliance Matrix: (Units=1/GPa)
#
#
# Indices 1 2 3 4 5 6 
#
# 1 0.013743 -0.003880 -0.003564 0.000000 0.000000 -0.001303
# 2 -0.003880 0.013743 -0.003564 0.000000 0.000000 0.001303
# 3 -0.003564 -0.003564 0.011904 0.000000 0.000000 0.000000
# 4 0.000000 0.000000 0.000000 0.008825 0.000000 0.000000
# 5 0.000000 0.000000 0.000000 0.000000 0.008825 0.000000
# 6 -0.001303 0.001303 0.000000 0.000000 0.000000 0.047407
#
#
# Mechanical properties :
#
#
# Convention : Reuss Voigt Hill
#
# Bulk Modulus (GPa) = 57.56993 57.89253 57.73123
# Shear Modulus (GPa) = 37.80599 61.55431 49.68015
#
# Velocity S-wave (km/s) = 4.70169 5.99934 5.38971
# Velocity P-wave (km/s) = 7.94587 9.04656 8.51402
#
# Compressibility (1/GPa) = 0.01737018
#
# Stress axis : x y z
#
# Youngs Moduli (GPa) = 72.76683 72.76683 84.00867
#
# Poissons Ratio (x) = 0.28236 0.29944
# Poissons Ratio (y) = 0.28236 0.29944
# Poissons Ratio (z) = 0.25937 0.25937
#
# Static dielectric constant tensor:
#      x y z
#    x 2.508840 0.000000 0.000000 
#    y 0.000000 2.508840 0.000000 
#    z 0.000000 0.000000 3.120070 
# 
# 
# High freq. dielectric constant tensor:
#      x y z
#    x 1.648030 0.000000 0.000000 
#    y 0.000000 1.648030 0.000000 
#    z 0.000000 0.000000 1.645750 
# 
# From -- ./inp_files/1791.got.cif
#   From: 2010.03.12/outbox.cif.g09.slc.cpg/sg88_1_cif.got.tgz:1791.got - 2010.04.08 20:20:55.
