data_PCOD8304417
_publ_section_title
;
Structure prediction by ZEFSAII (Michael W. Deem and Ramdas Pophale) SiO2 
 PCOD8304417
Probable space group: I 41/A
;
_chemical_formula_sum "Si O2"
_cell_formula_units_Z 80
_cell_length_a 10.847338
_cell_length_b 10.847338
_cell_length_c 30.753710
_cell_angle_alpha 90.000000
_cell_angle_beta 90.000000
_cell_angle_gamma 90.000000
_cell_volume 3618.627343
_symmetry_space_group_name_H-M "I 41/A"
_symmetry_group_IT_number 88
_space_group.IT_coordinate_system_code '2'
_symmetry_cell_setting 'tetragonal'
loop_
_space_group_symop_operation_xyz
x,y,z
3/4-y,1/4+x,1/4+z
-x,1/2-y,z
1/4+y,1/4-x,1/4+z
-x,-y,-z
1/4+y,3/4-x,3/4-z
x,1/2+y,-z
3/4-y,3/4+x,3/4-z
1/2+x,1/2+y,1/2+z
1/4-y,3/4+x,3/4+z
1/2-x,-y,1/2+z
3/4+y,3/4-x,3/4+z
1/2-x,1/2-y,1/2-z
3/4+y,1/4-x,1/4-z
1/2+x,y,1/2-z
1/4-y,1/4+x,1/4-z
loop_
_atom_site_type_symbol
_atom_site_label
_atom_site_fract_x
_atom_site_fract_y
_atom_site_fract_z
Si Si1 0.674322 0.347183 0.875828
Si Si2 0.754501 0.511613 0.701140
Si Si3 0.260963 0.028011 0.048202
Si Si4 0.510910 0.892151 0.331225
Si Si5 0.506717 0.392408 0.567613
O O1 0.667987 0.202640 0.874753
O O2 0.737999 0.374131 0.922024
O O3 0.744817 0.380547 0.831751
O O4 0.751906 0.449303 0.748558
O O5 0.644165 0.454098 0.673487
O O6 0.765075 0.660325 0.706858
O O7 0.260298 0.176024 0.054292
O O8 0.138610 0.954095 0.059866
O O9 0.500000 0.750000 0.313799
O O10 0.473385 0.893073 0.381566
O O11 0.500000 0.250000 0.550209
#
# Coordination Sequence:
#
# PCOD8304417 Si02
#       5
#    16  16  16  16  16
#     4  11  24  44  70  99 138 182 226 285 348 407
#     4  12  26  44  69 104 137 177 233 281 339 410
#     4  12  26  44  69 104 137 177 233 281 339 410
#     4  11  24  44  72 100 138 181 220 284 349 402
#     4  11  23  46  72  96 140 187 223 280 343 399
#
# _framework density 22.107831000000001
#
# number of rings (size 3 to 8) (size 9 to 14) (size 15 to 20)
#    0.000    0.600    4.000    3.000    5.600    4.000 
#    0.000    2.000    0.000    0.000    0.000    0.000 
#    0.000    0.000    0.000    0.000    0.000    0.000 
#
# Total GULP energy -495788.898690 kJ/mol
# GULP energy per Si atom -12394.722467 kJ/mol
# Density = 2.205751 g / cm^3
# Si number density = 22.107831 Si / 1000 Ang^3
#
#
#
# Elastic Constant Matrix: (Units=GPa)
#
#
# Indices 1 2 3 4 5 6 
#
# 1 102.7282 8.7182 11.3878 0.0000 0.0000 -12.1807
# 2 8.7182 102.7281 11.3878 0.0000 0.0000 12.1807
# 3 11.3878 11.3878 128.4696 0.0000 0.0000 0.0000
# 4 0.0000 0.0000 0.0000 15.5683 0.0000 0.0000
# 5 0.0000 0.0000 0.0000 0.0000 15.5683 0.0000
# 6 -12.1807 12.1807 0.0000 0.0000 0.0000 44.5531
#
#
#
# Elastic Compliance Matrix: (Units=1/GPa)
#
#
# Indices 1 2 3 4 5 6 
#
# 1 0.010293 -0.001155 -0.000810 0.000000 0.000000 0.003130
# 2 -0.001155 0.010293 -0.000810 0.000000 0.000000 -0.003130
# 3 -0.000810 -0.000810 0.007928 0.000000 0.000000 0.000000
# 4 0.000000 0.000000 0.000000 0.064233 0.000000 0.000000
# 5 0.000000 0.000000 0.000000 0.000000 0.064233 0.000000
# 6 0.003130 -0.003130 0.000000 0.000000 0.000000 0.024157
#
#
# Mechanical properties :
#
#
# Convention : Reuss Voigt Hill
#
# Bulk Modulus (GPa) = 43.54587 44.10150 43.82368
# Shear Modulus (GPa) = 25.72788 35.30007 30.51398
#
# Velocity S-wave (km/s) = 3.41507 4.00024 3.71918
# Velocity P-wave (km/s) = 5.94055 6.42865 6.18941
#
# Compressibility (1/GPa) = 0.02296429
#
# Stress axis : x y z
#
# Youngs Moduli (GPa) = 97.14999 97.14999 126.14231
#
# Poissons Ratio (x) = 0.11220 0.10218
# Poissons Ratio (y) = 0.11220 0.10218
# Poissons Ratio (z) = 0.07870 0.07870
#
# Static dielectric constant tensor:
#      x y z
#    x 4.040410 0.000000 0.000000 
#    y 0.000000 4.040410 0.000000 
#    z 0.000000 0.000000 3.993660 
# 
# 
# High freq. dielectric constant tensor:
#      x y z
#    x 1.877200 0.000000 0.000000 
#    y 0.000000 1.877200 0.000000 
#    z 0.000000 0.000000 1.869750 
# 
# From -- ./inp_files/6338.got.cif
#   From: 2010.03.12/outbox.cif.g09.slc.cpg/sg88_4_cif.got.tgz:6338.got - 2010.04.08 20:20:55.
