data_PCOD8304135
_publ_section_title
;
Structure prediction by ZEFSAII (Michael W. Deem and Ramdas Pophale) SiO2 
 PCOD8304135
Probable space group: I 4/M
;
_chemical_formula_sum "Si O2"
_cell_formula_units_Z 48
_cell_length_a 16.937258
_cell_length_b 16.937258
_cell_length_c 8.372452
_cell_angle_alpha 90.000000
_cell_angle_beta 90.000000
_cell_angle_gamma 90.000000
_cell_volume 2401.811238
_symmetry_space_group_name_H-M "I 4/M"
_symmetry_group_IT_number 87
_symmetry_cell_setting 'tetragonal'
loop_
_space_group_symop_operation_xyz
x,y,z
-y,x,z
-x,-y,z
y,-x,z
-x,-y,-z
y,-x,-z
x,y,-z
-y,x,-z
1/2+x,1/2+y,1/2+z
1/2-y,1/2+x,1/2+z
1/2-x,1/2-y,1/2+z
1/2+y,1/2-x,1/2+z
1/2-x,1/2-y,1/2-z
1/2+y,1/2-x,1/2-z
1/2+x,1/2+y,1/2-z
1/2-y,1/2+x,1/2-z
loop_
_atom_site_type_symbol
_atom_site_label
_atom_site_fract_x
_atom_site_fract_y
_atom_site_fract_z
Si Si1 0.933832 0.105617 0.310232
Si Si2 0.838184 0.255868 0.310266
Si Si3 0.900902 0.565610 0.684907
O O1 0.932378 0.107009 0.500000
O O2 0.886916 0.180829 0.242312
O O3 0.024727 0.107770 0.249759
O O4 0.841069 0.259276 0.500000
O O5 0.750000 0.250000 0.250000
O O6 0.873974 0.334553 0.237599
O O7 0.892374 0.544480 0.500000
O O8 0.893167 0.485342 0.785875
#
# Coordination Sequence:
#
# PCOD8304135 Si02
#       3
#    16  16  16
#     4   8  16  33  57  84 113 151 199 248 296 351
#     4  11  23  37  59  91 125 162 204 250 304 363
#     4  11  23  42  65  90 121 159 204 254 311 373
#
# _framework density 19.984916999999999
#
# number of rings (size 3 to 8) (size 9 to 14) (size 15 to 20)
#    0.000    2.000    0.000    6.000    4.667    0.000 
#    0.000    0.000    0.000    0.000    0.000    9.333 
#    0.000    0.000    0.000    0.000    0.000    0.000 
#
# Total GULP energy -297624.588680 kJ/mol
# GULP energy per Si atom -12401.024528 kJ/mol
# Density = 1.993943 g / cm^3
# Si number density = 19.984917 Si / 1000 Ang^3
#
#
#
# Elastic Constant Matrix: (Units=GPa)
#
#
# Indices 1 2 3 4 5 6 
#
# 1 133.0144 95.8174 17.6582 0.0000 0.0000 -5.5769
# 2 95.8174 133.0144 17.6582 0.0000 0.0000 5.5769
# 3 17.6582 17.6582 64.5248 0.0000 0.0000 0.0000
# 4 0.0000 0.0000 0.0000 26.4988 0.0000 0.0000
# 5 0.0000 0.0000 0.0000 0.0000 26.4988 0.0000
# 6 -5.5769 5.5769 0.0000 0.0000 0.0000 41.1622
#
#
#
# Elastic Compliance Matrix: (Units=1/GPa)
#
#
# Indices 1 2 3 4 5 6 
#
# 1 0.016293 -0.011730 -0.001249 0.000000 0.000000 0.003797
# 2 -0.011730 0.016293 -0.001249 0.000000 0.000000 -0.003797
# 3 -0.001249 -0.001249 0.016181 0.000000 0.000000 0.000000
# 4 0.000000 0.000000 0.000000 0.037738 0.000000 0.000000
# 5 0.000000 0.000000 0.000000 0.000000 0.037738 0.000000
# 6 0.003797 -0.003797 0.000000 0.000000 0.000000 0.025323
#
#
# Mechanical properties :
#
#
# Convention : Reuss Voigt Hill
#
# Bulk Modulus (GPa) = 49.23156 65.86902 57.55029
# Shear Modulus (GPa) = 27.05780 32.12660 29.59220
#
# Velocity S-wave (km/s) = 3.68354 4.01377 3.85220
# Velocity P-wave (km/s) = 6.54058 7.38318 6.97462
#
# Compressibility (1/GPa) = 0.02031217
#
# Stress axis : x y z
#
# Youngs Moduli (GPa) = 61.37768 61.37768 61.79951
#
# Poissons Ratio (x) = 0.71995 0.07717
# Poissons Ratio (y) = 0.71995 0.07717
# Poissons Ratio (z) = 0.07664 0.07664
#
# Static dielectric constant tensor:
#      x y z
#    x 3.862210 0.000000 0.000000 
#    y 0.000000 3.862210 0.000000 
#    z 0.000000 0.000000 3.426930 
# 
# 
# High freq. dielectric constant tensor:
#      x y z
#    x 1.789970 0.000000 0.000000 
#    y 0.000000 1.789970 0.000000 
#    z 0.000000 0.000000 1.759280 
# 
# From -- ./inp_files/554.got.cif
#   From: 2010.03.12/outbox.cif.g09.slc.cpg/sg87_1_cif.got.tgz:554.got - 2010.04.08 20:16:13.
