data_PCOD8304549
_publ_section_title
;
Structure prediction by ZEFSAII (Michael W. Deem and Ramdas Pophale) SiO2 
 PCOD8304549
Probable space group: P 4 21 2
;
_chemical_formula_sum "Si O2"
_cell_formula_units_Z 40
_cell_length_a 13.802483
_cell_length_b 13.802483
_cell_length_c 9.478590
_cell_angle_alpha 90.000000
_cell_angle_beta 90.000000
_cell_angle_gamma 90.000000
_cell_volume 1805.752313
_symmetry_space_group_name_H-M "P 4 21 2"
_symmetry_group_IT_number 90
_symmetry_cell_setting 'tetragonal'
loop_
_space_group_symop_operation_xyz
x,y,z
1/2-y,1/2+x,z
-x,-y,z
1/2+y,1/2-x,z
1/2+x,1/2-y,-z
1/2-x,1/2+y,-z
y,x,-z
-y,-x,-z
loop_
_atom_site_type_symbol
_atom_site_label
_atom_site_fract_x
_atom_site_fract_y
_atom_site_fract_z
Si Si1 0.113571 0.192459 0.637061
Si Si2 0.128370 0.585974 0.471676
Si Si3 0.713829 0.590316 0.101856
Si Si4 0.883742 0.720635 0.175603
Si Si5 0.433677 0.407569 0.340571
O O1 0.120208 0.120208 0.500000
O O2 0.140489 0.297590 0.575613
O O3 0.182450 0.166212 0.766322
O O4 0.003143 0.184600 0.693267
O O5 0.132648 0.473174 0.508393
O O6 0.151753 0.591793 0.306494
O O7 0.805828 0.661819 0.081364
O O8 0.750913 0.478668 0.081740
O O9 0.667452 0.595007 0.257378
O O10 0.626098 0.626098 0.000000
O O11 0.500000 0.500000 0.301468
O O12 0.400534 0.400534 0.500000
#
# Coordination Sequence:
#
# PCOD8304549 Si02
#       5
#     8   8   8   8   8
#     4  10  20  35  61  99 138 173 220 282 333 413
#     4  10  20  35  63 101 142 186 225 277 350 429
#     4  12  28  45  70  99 131 187 235 294 355 428
#     4  11  23  44  65  97 135 183 238 286 354 419
#     4  11  20  40  67 100 138 172 219 283 351 401
#
# _framework density 22.151433999999998
#
# number of rings (size 3 to 8) (size 9 to 14) (size 15 to 20)
#    0.000    1.200    6.000    1.200    2.800    3.200 
#    0.000    0.000    0.000    0.000    0.000    0.000 
#    0.000    0.000    0.000    0.000    0.000    0.000 
#
# Total GULP energy -495782.678624 kJ/mol
# GULP energy per Si atom -12394.566966 kJ/mol
# Density = 2.210102 g / cm^3
# Si number density = 22.151434 Si / 1000 Ang^3
#
#
#
# Elastic Constant Matrix: (Units=GPa)
#
#
# Indices 1 2 3 4 5 6 
#
# 1 102.2043 22.1967 26.7911 0.0000 0.0000 0.0000
# 2 22.1967 102.2043 26.7911 0.0000 0.0000 0.0000
# 3 26.7911 26.7911 48.5484 0.0000 0.0000 0.0000
# 4 0.0000 0.0000 0.0000 26.2554 0.0000 0.0000
# 5 0.0000 0.0000 0.0000 0.0000 26.2554 0.0000
# 6 0.0000 0.0000 0.0000 0.0000 0.0000 83.2965
#
#
#
# Elastic Compliance Matrix: (Units=1/GPa)
#
#
# Indices 1 2 3 4 5 6 
#
# 1 0.011522 -0.000977 -0.005819 0.000000 0.000000 0.000000
# 2 -0.000977 0.011522 -0.005819 0.000000 0.000000 0.000000
# 3 -0.005819 -0.005819 0.027021 0.000000 0.000000 0.000000
# 4 0.000000 0.000000 0.000000 0.038087 0.000000 0.000000
# 5 0.000000 0.000000 0.000000 0.000000 0.038087 0.000000
# 6 0.000000 0.000000 0.000000 0.000000 0.000000 0.012005
#
#
# Mechanical properties :
#
#
# Convention : Reuss Voigt Hill
#
# Bulk Modulus (GPa) = 40.26773 44.94611 42.60692
# Shear Modulus (GPa) = 29.11160 38.97333 34.04246
#
# Velocity S-wave (km/s) = 3.62913 4.19908 3.92447
# Velocity P-wave (km/s) = 5.98153 6.62149 6.30963
#
# Compressibility (1/GPa) = 0.02483378
#
# Stress axis : x y z
#
# Youngs Moduli (GPa) = 86.79129 86.79129 37.00890
#
# Poissons Ratio (x) = 0.08479 0.21536
# Poissons Ratio (y) = 0.08479 0.21536
# Poissons Ratio (z) = 0.50505 0.50505
#
# Static dielectric constant tensor:
#      x y z
#    x 4.087010 0.000000 0.000000 
#    y 0.000000 4.087010 0.000000 
#    z 0.000000 0.000000 3.484480 
# 
# 
# High freq. dielectric constant tensor:
#      x y z
#    x 1.879800 0.000000 0.000000 
#    y 0.000000 1.879800 0.000000 
#    z 0.000000 0.000000 1.824340 
# 
# From -- ./inp_files/1302.got.cif
#   From: 2010.03.12/outbox.cif.g09.slc.cpg/sg90_1_cif.got.tgz:1302.got - 2010.04.08 20:26:03.
