data_PCOD8304539
_publ_section_title
;
Structure prediction by ZEFSAII (Michael W. Deem and Ramdas Pophale) SiO2 
 PCOD8304539
Probable space group: P 4 21 2
;
_chemical_formula_sum "Si O2"
_cell_formula_units_Z 24
_cell_length_a 14.115441
_cell_length_b 14.115441
_cell_length_c 5.113262
_cell_angle_alpha 90.000000
_cell_angle_beta 90.000000
_cell_angle_gamma 90.000000
_cell_volume 1018.795337
_symmetry_space_group_name_H-M "P 4 21 2"
_symmetry_group_IT_number 90
_symmetry_cell_setting 'tetragonal'
loop_
_space_group_symop_operation_xyz
x,y,z
1/2-y,1/2+x,z
-x,-y,z
1/2+y,1/2-x,z
1/2+x,1/2-y,-z
1/2-x,1/2+y,-z
y,x,-z
-y,-x,-z
loop_
_atom_site_type_symbol
_atom_site_label
_atom_site_fract_x
_atom_site_fract_y
_atom_site_fract_z
Si Si1 0.105071 0.955956 0.245714
Si Si2 0.870722 0.415468 0.374954
Si Si3 0.756807 0.383052 0.864983
O O1 0.111887 0.888114 0.500000
O O2 0.183389 0.035500 0.215792
O O3 0.114846 0.885155 0.000000
O O4 0.000000 0.000000 0.247705
O O5 0.870651 0.527324 0.427235
O O6 0.804727 0.360254 0.585192
O O7 0.836669 0.409900 0.074941
O O8 0.704307 0.295694 0.000000
#
# Coordination Sequence:
#
# PCOD8304539 Si02
#       3
#     8   8   8
#     4  10  19  34  59  96 130 182 209 248 347 444
#     4  11  26  49  72  96 136 196 241 281 350 418
#     4  12  23  42  75 102 139 175 235 302 350 409
#
# _framework density 23.557234999999999
#
# number of rings (size 3 to 8) (size 9 to 14) (size 15 to 20)
#    0.000    1.000    3.333    5.000    4.667    2.667 
#    0.000   16.667    0.000    0.000    0.000    0.000 
#    0.000    0.000    0.000    0.000    0.000    0.000 
#
# Total GULP energy -297315.043859 kJ/mol
# GULP energy per Si atom -12388.126827 kJ/mol
# Density = 2.350362 g / cm^3
# Si number density = 23.557235 Si / 1000 Ang^3
#
#
#
# Elastic Constant Matrix: (Units=GPa)
#
#
# Indices 1 2 3 4 5 6 
#
# 1 46.0550 23.4855 11.8618 0.0000 0.0000 0.0000
# 2 23.4855 46.0549 11.8619 0.0000 0.0000 0.0000
# 3 11.8618 11.8619 182.7011 0.0000 0.0000 0.0000
# 4 0.0000 0.0000 0.0000 39.0834 0.0000 0.0000
# 5 0.0000 0.0000 0.0000 0.0000 39.0874 0.0000
# 6 0.0000 0.0000 0.0000 0.0000 0.0000 19.7523
#
#
#
# Elastic Compliance Matrix: (Units=1/GPa)
#
#
# Indices 1 2 3 4 5 6 
#
# 1 0.029507 -0.014801 -0.000955 0.000000 0.000000 0.000000
# 2 -0.014801 0.029507 -0.000955 0.000000 0.000000 0.000000
# 3 -0.000955 -0.000955 0.005597 0.000000 0.000000 0.000000
# 4 0.000000 0.000000 0.000000 0.025586 0.000000 0.000000
# 5 0.000000 0.000000 0.000000 0.000000 0.025584 0.000000
# 6 0.000000 0.000000 0.000000 0.000000 0.000000 0.050627
#
#
# Mechanical properties :
#
#
# Convention : Reuss Voigt Hill
#
# Bulk Modulus (GPa) = 32.06159 41.02550 36.54354
# Shear Modulus (GPa) = 23.78396 34.75806 29.27101
#
# Velocity S-wave (km/s) = 3.18091 3.84536 3.52880
# Velocity P-wave (km/s) = 5.20870 6.09662 5.67006
#
# Compressibility (1/GPa) = 0.03118997
#
# Stress axis : x y z
#
# Youngs Moduli (GPa) = 33.89053 33.89045 178.65445
#
# Poissons Ratio (x) = 0.50161 0.17057
# Poissons Ratio (y) = 0.50161 0.17058
# Poissons Ratio (z) = 0.03236 0.03236
#
# Static dielectric constant tensor:
#      x y z
#    x 4.043680 0.000000 0.000000 
#    y 0.000000 4.043750 0.000000 
#    z 0.000000 0.000000 4.228550 
# 
# 
# High freq. dielectric constant tensor:
#      x y z
#    x 1.918550 0.000000 0.000000 
#    y 0.000000 1.918550 0.000000 
#    z 0.000000 0.000000 1.969850 
# 
# From -- ./inp_files/126.got.cif
#   From: 2010.03.12/outbox.cif.g09.slc.cpg/sg90_1_cif.got.tgz:126.got - 2010.04.08 20:26:03.
