data_PCOD8304526
_publ_section_title
;
Structure prediction by ZEFSAII (Michael W. Deem and Ramdas Pophale) SiO2 
 PCOD8304526
Probable space group: P 4 21 2
;
_chemical_formula_sum "Si O2"
_cell_formula_units_Z 52
_cell_length_a 17.862787
_cell_length_b 17.862787
_cell_length_c 8.391257
_cell_angle_alpha 90.000000
_cell_angle_beta 90.000000
_cell_angle_gamma 90.000000
_cell_volume 2677.475230
_symmetry_space_group_name_H-M "P 4 21 2"
_symmetry_group_IT_number 90
_symmetry_cell_setting 'tetragonal'
loop_
_space_group_symop_operation_xyz
x,y,z
1/2-y,1/2+x,z
-x,-y,z
1/2+y,1/2-x,z
1/2+x,1/2-y,-z
1/2-x,1/2+y,-z
y,x,-z
-y,-x,-z
loop_
_atom_site_type_symbol
_atom_site_label
_atom_site_fract_x
_atom_site_fract_y
_atom_site_fract_z
Si Si1 0.254682 0.252119 0.323732
Si Si2 0.197734 0.476536 0.350511
Si Si3 0.512950 0.877224 0.315923
Si Si4 0.801825 0.621767 0.885379
Si Si5 0.348305 0.402930 0.341271
Si Si6 0.364602 0.364602 0.000000
Si Si7 0.336171 0.126619 0.810664
O O1 0.227844 0.227844 0.500000
O O2 0.310785 0.192104 0.244357
O O3 0.304477 0.325833 0.333858
O O4 0.179933 0.263809 0.218783
O O5 0.162382 0.498396 0.516840
O O6 0.287770 0.468783 0.363292
O O7 0.181907 0.540641 0.221901
O O8 0.156069 0.401037 0.304030
O O9 0.435037 0.918374 0.290512
O O10 0.538989 0.812718 0.191981
O O11 0.724200 0.621037 0.982987
O O12 0.869071 0.637599 0.007529
O O13 0.402358 0.402358 0.500000
O O14 0.390121 0.407700 0.165340
#
# Coordination Sequence:
#
# PCOD8304526 Si02
#       7
#     8   8   8   8   8   4   8
#     4   9  17  33  54  72  92 129 174 221 277 308
#     4  11  20  35  49  69 105 142 182 208 257 317
#     4  11  24  36  47  68 104 152 187 214 249 318
#     4  11  19  34  51  73  98 132 184 229 273 307
#     4   9  17  30  51  75  92 131 173 221 267 305
#     4  10  16  32  54  70  92 122 177 227 276 306
#     4  11  21  32  51  75 101 143 172 217 262 316
#
# _framework density 19.421282999999999
#
# number of rings (size 3 to 8) (size 9 to 14) (size 15 to 20)
#    0.000    1.692    6.154    3.692    2.154    0.308 
#    0.000    0.000    0.000    0.000    0.000    0.000 
#    0.000    0.615    0.615    0.462    0.000    0.000 
#
# Total GULP energy -644246.444550 kJ/mol
# GULP energy per Si atom -12389.354703 kJ/mol
# Density = 1.937708 g / cm^3
# Si number density = 19.421283 Si / 1000 Ang^3
#
#
#
# Elastic Constant Matrix: (Units=GPa)
#
#
# Indices 1 2 3 4 5 6 
#
# 1 9.4125 5.0404 0.0344 0.0000 0.0000 0.0000
# 2 5.0404 9.4125 0.0344 0.0000 0.0000 0.0000
# 3 0.0344 0.0344 115.0683 0.0000 0.0000 0.0000
# 4 0.0000 0.0000 0.0000 24.0979 0.0000 0.0000
# 5 0.0000 0.0000 0.0000 0.0000 24.0979 0.0000
# 6 0.0000 0.0000 0.0000 0.0000 0.0000 22.7954
#
#
#
# Elastic Compliance Matrix: (Units=1/GPa)
#
#
# Indices 1 2 3 4 5 6 
#
# 1 0.148956 -0.079766 -0.000021 0.000000 0.000000 0.000000
# 2 -0.079766 0.148956 -0.000021 0.000000 0.000000 0.000000
# 3 -0.000021 -0.000021 0.008691 0.000000 0.000000 0.000000
# 4 0.000000 0.000000 0.000000 0.041497 0.000000 0.000000
# 5 0.000000 0.000000 0.000000 0.000000 0.041497 0.000000
# 6 0.000000 0.000000 0.000000 0.000000 0.000000 0.043869
#
#
# Mechanical properties :
#
#
# Convention : Reuss Voigt Hill
#
# Bulk Modulus (GPa) = 6.80322 16.01238 11.40780
# Shear Modulus (GPa) = 7.78722 22.78386 15.28554
#
# Velocity S-wave (km/s) = 2.00458 3.42883 2.80849
# Velocity P-wave (km/s) = 2.97798 4.89270 4.05011
#
# Compressibility (1/GPa) = 0.14698912
#
# Stress axis : x y z
#
# Youngs Moduli (GPa) = 6.71337 6.71337 115.06816
#
# Poissons Ratio (x) = 0.53550 0.00238
# Poissons Ratio (y) = 0.53550 0.00238
# Poissons Ratio (z) = 0.00014 0.00014
#
# Static dielectric constant tensor:
#      x y z
#    x 3.311230 0.000000 0.000000 
#    y 0.000000 3.311230 0.000000 
#    z 0.000000 0.000000 4.248440 
# 
# 
# High freq. dielectric constant tensor:
#      x y z
#    x 1.715120 0.000000 0.000000 
#    y 0.000000 1.715120 0.000000 
#    z 0.000000 0.000000 1.783470 
# 
# From -- ./inp_files/1587.got.cif
#   From: 2010.03.12/outbox.cif.g09.slc.cpg/sg90_1_cif.got.tgz:1587.got - 2010.04.08 20:26:03.
