data_PCOD8304662
_publ_section_title
;
Structure prediction by ZEFSAII (Michael W. Deem and Ramdas Pophale) SiO2 
 PCOD8304662
Probable space group: P 4 21 2
;
_chemical_formula_sum "Si O2"
_cell_formula_units_Z 50
_cell_length_a 8.595558
_cell_length_b 8.595558
_cell_length_c 30.827273
_cell_angle_alpha 90.000000
_cell_angle_beta 90.000000
_cell_angle_gamma 90.000000
_cell_volume 2277.630442
_symmetry_space_group_name_H-M "P 4 21 2"
_symmetry_group_IT_number 90
_symmetry_cell_setting 'tetragonal'
loop_
_space_group_symop_operation_xyz
x,y,z
1/2-y,1/2+x,z
-x,-y,z
1/2+y,1/2-x,z
1/2+x,1/2-y,-z
1/2-x,1/2+y,-z
y,x,-z
-y,-x,-z
loop_
_atom_site_type_symbol
_atom_site_label
_atom_site_fract_x
_atom_site_fract_y
_atom_site_fract_z
Si Si1 0.000000 0.500000 0.868455
Si Si2 0.917821 0.166878 0.876271
Si Si3 0.118605 0.725164 0.615599
Si Si4 0.267622 0.891986 0.538975
Si Si5 0.228424 0.384584 0.208017
Si Si6 0.223868 0.378774 0.714563
Si Si7 0.622646 0.775893 0.960034
O O1 0.185224 0.536632 0.877316
O O2 0.837085 0.181137 0.829240
O O3 0.794899 0.176129 0.914807
O O4 0.000000 0.000000 0.879778
O O5 0.205593 0.563605 0.606025
O O6 0.185604 0.858603 0.584847
O O7 0.147187 0.777026 0.665073
O O8 0.425877 0.795818 0.535443
O O9 0.154992 0.845008 0.500000
O O10 0.206899 0.567589 0.204153
O O11 0.308010 0.354134 0.254532
O O12 0.205622 0.561019 0.724385
O O13 0.438857 0.791073 0.963160
O O14 0.668059 0.668059 0.000000
#
# Coordination Sequence:
#
# PCOD8304662 Si02
#       7
#     2   8   8   8   8   8   8
#     4  12  28  44  80 108 136 188 244 284 344 440
#     4  12  28  48  74 108 142 186 236 296 355 415
#     4   9  19  39  62  89 124 163 210 269 326 391
#     4  11  24  39  58  87 121 161 209 266 326 394
#     4  11  25  43  64  95 137 178 223 283 352 412
#     4   9  21  39  64  94 127 169 222 274 329 402
#     4  11  27  47  73 106 145 186 233 291 352 421
#
# _framework density 21.952638
#
# number of rings (size 3 to 8) (size 9 to 14) (size 15 to 20)
#    0.000    1.440    0.000    4.800    8.960    6.080 
#    0.000    4.800    0.000    0.000    0.000    0.000 
#    0.000    0.000    0.000    0.000    0.000    0.000 
#
# Total GULP energy -619457.967255 kJ/mol
# GULP energy per Si atom -12389.159345 kJ/mol
# Density = 2.190267 g / cm^3
# Si number density = 21.952638 Si / 1000 Ang^3
#
#
#
# Elastic Constant Matrix: (Units=GPa)
#
#
# Indices 1 2 3 4 5 6 
#
# 1 58.5277 47.6798 34.2952 0.0000 0.0000 0.0000
# 2 47.6798 58.5263 34.2947 0.0000 0.0000 0.0000
# 3 34.2952 34.2947 127.6837 0.0000 0.0000 0.0000
# 4 0.0000 0.0000 0.0000 36.9319 0.0000 0.0000
# 5 0.0000 0.0000 0.0000 0.0000 36.9319 0.0000
# 6 0.0000 0.0000 0.0000 0.0000 0.0000 30.7220
#
#
#
# Elastic Compliance Matrix: (Units=1/GPa)
#
#
# Indices 1 2 3 4 5 6 
#
# 1 0.051790 -0.040399 -0.003060 0.000000 0.000000 0.000000
# 2 -0.040399 0.051791 -0.003060 0.000000 0.000000 0.000000
# 3 -0.003060 -0.003060 0.009475 0.000000 0.000000 0.000000
# 4 0.000000 0.000000 0.000000 0.027077 0.000000 0.000000
# 5 0.000000 0.000000 0.000000 0.000000 0.027077 0.000000
# 6 0.000000 0.000000 0.000000 0.000000 0.000000 0.032550
#
#
# Mechanical properties :
#
#
# Convention : Reuss Voigt Hill
#
# Bulk Modulus (GPa) = 49.95041 53.03079 51.49060
# Shear Modulus (GPa) = 16.69615 29.48170 23.08893
#
# Velocity S-wave (km/s) = 2.76081 3.66863 3.24660
# Velocity P-wave (km/s) = 5.74159 6.49265 6.12863
#
# Compressibility (1/GPa) = 0.02001986
#
# Stress axis : x y z
#
# Youngs Moduli (GPa) = 19.30878 19.30833 105.53554
#
# Poissons Ratio (x) = 0.78004 0.32291
# Poissons Ratio (y) = 0.78005 0.32291
# Poissons Ratio (z) = 0.05908 0.05908
#
# Static dielectric constant tensor:
#      x y z
#    x 4.519260 0.000000 0.000000 
#    y 0.000000 4.519260 0.000000 
#    z 0.000000 0.000000 3.910590 
# 
# 
# High freq. dielectric constant tensor:
#      x y z
#    x 1.878620 0.000000 0.000000 
#    y 0.000000 1.878620 0.000000 
#    z 0.000000 0.000000 1.862690 
# 
# From -- ./inp_files/3062.got.cif
#   From: 2010.03.12/outbox.cif.g09.slc.cpg/sg90_2_cif.got.tgz:3062.got - 2010.04.08 20:26:03.
