data_PCOD8304744
_publ_section_title
;
Structure prediction by ZEFSAII (Michael W. Deem and Ramdas Pophale) SiO2 
 PCOD8304744
Probable space group: P 41 2 2
;
_chemical_formula_sum "Si O2"
_cell_formula_units_Z 48
_cell_length_a 15.454829
_cell_length_b 15.454829
_cell_length_c 11.025452
_cell_angle_alpha 90.000000
_cell_angle_beta 90.000000
_cell_angle_gamma 90.000000
_cell_volume 2633.448388
_symmetry_space_group_name_H-M "P 41 2 2"
_symmetry_group_IT_number 91
_symmetry_cell_setting 'tetragonal'
loop_
_space_group_symop_operation_xyz
x,y,z
-y,x,1/4+z
-x,-y,1/2+z
y,-x,3/4+z
x,-y,1/2-z
-x,y,-z
y,x,3/4-z
-y,-x,1/4-z
loop_
_atom_site_type_symbol
_atom_site_label
_atom_site_fract_x
_atom_site_fract_y
_atom_site_fract_z
Si Si1 0.261475 0.485200 0.617373
Si Si2 0.000000 0.727216 0.500000
Si Si3 0.645941 0.176118 0.201268
Si Si4 0.458438 0.458438 0.875000
Si Si5 0.124510 0.999686 0.557816
Si Si6 0.698311 0.778243 0.569432
Si Si7 0.183332 0.082673 0.180269
O O1 0.223275 0.500000 0.750000
O O2 0.200986 0.544259 0.530427
O O3 0.357484 0.523767 0.610629
O O4 0.255796 0.382077 0.597489
O O5 0.081060 0.662817 0.498723
O O6 0.999061 0.788097 0.384182
O O7 0.698143 0.240893 0.288037
O O8 0.672283 0.179753 0.059273
O O9 0.495313 0.500000 0.750000
O O10 0.112258 0.095762 0.500358
O O11 0.142754 0.933736 0.451014
O O12 0.038664 0.961337 0.625000
O O13 0.744236 0.844796 0.662027
O O14 0.224628 0.000000 0.250000
#
# Coordination Sequence:
#
# PCOD8304744 Si02
#       7
#     8   4   8   4   8   8   8
#     4   9  18  33  58  87 109 138 183 238 293 339
#     4  12  20  30  56  82 104 148 190 236 286 324
#     4  10  18  33  54  80 110 136 185 240 282 335
#     4  10  18  34  62  94 118 140 178 238 302 360
#     4  12  20  35  53  78 107 144 189 238 283 329
#     4  10  19  34  55  80 109 146 183 231 287 339
#     4  12  23  34  51  75 113 149 191 232 279 339
#
# _framework density 18.227049999999998
#
# number of rings (size 3 to 8) (size 9 to 14) (size 15 to 20)
#    0.000    1.333    5.000    4.500    0.000    0.000 
#    1.500    0.000    3.667    0.000    0.000    1.167 
#    0.000    0.000    0.000    0.000    0.000    0.000 
#
# Total GULP energy -594742.929327 kJ/mol
# GULP energy per Si atom -12390.477694 kJ/mol
# Density = 1.818556 g / cm^3
# Si number density = 18.227050 Si / 1000 Ang^3
#
#
#
# Elastic Constant Matrix: (Units=GPa)
#
#
# Indices 1 2 3 4 5 6 
#
# 1 134.9065 72.8463 20.7908 0.0000 0.0000 0.0000
# 2 72.8463 134.9061 20.7906 0.0000 0.0000 0.0000
# 3 20.7908 20.7906 37.2789 0.0000 0.0000 0.0000
# 4 0.0000 0.0000 0.0000 22.7605 0.0000 0.0000
# 5 0.0000 0.0000 0.0000 0.0000 22.7605 0.0000
# 6 0.0000 0.0000 0.0000 0.0000 0.0000 33.0090
#
#
#
# Elastic Compliance Matrix: (Units=1/GPa)
#
#
# Indices 1 2 3 4 5 6 
#
# 1 0.010766 -0.005348 -0.003022 0.000000 0.000000 0.000000
# 2 -0.005348 0.010766 -0.003022 0.000000 0.000000 0.000000
# 3 -0.003022 -0.003022 0.030195 0.000000 0.000000 0.000000
# 4 0.000000 0.000000 0.000000 0.043936 0.000000 0.000000
# 5 0.000000 0.000000 0.000000 0.000000 0.043936 0.000000
# 6 0.000000 0.000000 0.000000 0.000000 0.000000 0.030295
#
#
# Mechanical properties :
#
#
# Convention : Reuss Voigt Hill
#
# Bulk Modulus (GPa) = 34.54866 59.54965 47.04915
# Shear Modulus (GPa) = 24.71286 28.55025 26.63156
#
# Velocity S-wave (km/s) = 3.68616 3.96203 3.82658
# Velocity P-wave (km/s) = 6.09203 7.32613 6.73739
#
# Compressibility (1/GPa) = 0.02894468
#
# Stress axis : x y z
#
# Youngs Moduli (GPa) = 92.88655 92.88636 33.11768
#
# Poissons Ratio (x) = 0.49672 0.10008
# Poissons Ratio (y) = 0.49672 0.10007
# Poissons Ratio (z) = 0.28069 0.28068
#
# Static dielectric constant tensor:
#      x y z
#    x 3.490520 0.000000 0.000000 
#    y 0.000000 3.490520 0.000000 
#    z 0.000000 0.000000 3.269020 
# 
# 
# High freq. dielectric constant tensor:
#      x y z
#    x 1.702950 0.000000 0.000000 
#    y 0.000000 1.702950 0.000000 
#    z 0.000000 0.000000 1.677090 
# 
# From -- ./inp_files/10795.got.cif
#   From: 2010.03.12/outbox.cif.g09.slc.cpg/sg91_6_cif.got.tgz:10795.got - 2010.04.08 20:27:58.
