data_PCOD8304564
_publ_section_title
;
Structure prediction by ZEFSAII (Michael W. Deem and Ramdas Pophale) SiO2 
 PCOD8304564
Probable space group: P 4 21 2
;
_chemical_formula_sum "Si O2"
_cell_formula_units_Z 48
_cell_length_a 11.339060
_cell_length_b 11.339060
_cell_length_c 17.587068
_cell_angle_alpha 90.000000
_cell_angle_beta 90.000000
_cell_angle_gamma 90.000000
_cell_volume 2261.244635
_symmetry_space_group_name_H-M "P 4 21 2"
_symmetry_group_IT_number 90
_symmetry_cell_setting 'tetragonal'
loop_
_space_group_symop_operation_xyz
x,y,z
1/2-y,1/2+x,z
-x,-y,z
1/2+y,1/2-x,z
1/2+x,1/2-y,-z
1/2-x,1/2+y,-z
y,x,-z
-y,-x,-z
loop_
_atom_site_type_symbol
_atom_site_label
_atom_site_fract_x
_atom_site_fract_y
_atom_site_fract_z
Si Si1 0.483339 0.315439 0.957150
Si Si2 0.170333 0.806382 0.835224
Si Si3 0.397547 0.411179 0.313943
Si Si4 0.581102 0.287907 0.108220
Si Si5 0.191267 0.482848 0.418886
Si Si6 0.810004 0.522337 0.595067
O O1 0.382072 0.261879 0.901806
O O2 0.589033 0.352762 0.903157
O O3 0.428307 0.428307 0.000000
O O4 0.535668 0.233589 0.026028
O O5 0.190711 0.863613 0.752827
O O6 0.204175 0.670057 0.845936
O O7 0.029282 0.812293 0.838946
O O8 0.500000 0.500000 0.285167
O O9 0.311595 0.477925 0.371957
O O10 0.464558 0.304078 0.353661
O O11 0.126349 0.605368 0.399347
O O12 0.226190 0.475878 0.507020
O O13 0.870987 0.398338 0.614367
#
# Coordination Sequence:
#
# PCOD8304564 Si02
#       6
#     8   8   8   8   8   8
#     4   9  19  39  64  86 117 159 210 254 301 379
#     4  11  24  39  61  92 128 163 208 261 328 394
#     4  12  26  38  64  98 136 173 221 273 335 404
#     4  10  21  37  65  86 119 165 201 253 318 377
#     4   9  21  43  67  92 127 178 229 279 337 387
#     4   9  21  42  66  93 133 179 224 280 334 392
#
# _framework density 21.227249
#
# number of rings (size 3 to 8) (size 9 to 14) (size 15 to 20)
#    0.000    2.000    0.000    6.000   11.667    3.000 
#    0.000    0.000    0.000    0.500    0.000    0.000 
#    0.000    0.000    0.000    0.000    0.000    0.000 
#
# Total GULP energy -594803.372635 kJ/mol
# GULP energy per Si atom -12391.736930 kJ/mol
# Density = 2.117893 g / cm^3
# Si number density = 21.227249 Si / 1000 Ang^3
#
#
#
# Elastic Constant Matrix: (Units=GPa)
#
#
# Indices 1 2 3 4 5 6 
#
# 1 64.8547 18.4085 32.0888 0.0000 0.0000 0.0000
# 2 18.4085 64.8547 32.0888 0.0000 0.0000 0.0000
# 3 32.0888 32.0888 83.7911 0.0000 0.0000 0.0000
# 4 0.0000 0.0000 0.0000 32.0654 0.0000 0.0000
# 5 0.0000 0.0000 0.0000 0.0000 32.0654 0.0000
# 6 0.0000 0.0000 0.0000 0.0000 0.0000 28.1810
#
#
#
# Elastic Compliance Matrix: (Units=1/GPa)
#
#
# Indices 1 2 3 4 5 6 
#
# 1 0.019285 -0.002245 -0.006526 0.000000 0.000000 0.000000
# 2 -0.002245 0.019285 -0.006526 0.000000 0.000000 0.000000
# 3 -0.006526 -0.006526 0.016933 0.000000 0.000000 0.000000
# 4 0.000000 0.000000 0.000000 0.031186 0.000000 0.000000
# 5 0.000000 0.000000 0.000000 0.000000 0.031186 0.000000
# 6 0.000000 0.000000 0.000000 0.000000 0.000000 0.035485
#
#
# Mechanical properties :
#
#
# Convention : Reuss Voigt Hill
#
# Bulk Modulus (GPa) = 40.14472 42.07476 41.10974
# Shear Modulus (GPa) = 26.00689 27.18996 26.59843
#
# Velocity S-wave (km/s) = 3.50403 3.58285 3.54366
# Velocity P-wave (km/s) = 5.94339 6.08111 6.01265
#
# Compressibility (1/GPa) = 0.02490988
#
# Stress axis : x y z
#
# Youngs Moduli (GPa) = 51.85338 51.85338 59.05762
#
# Poissons Ratio (x) = 0.11642 0.38539
# Poissons Ratio (y) = 0.11642 0.38539
# Poissons Ratio (z) = 0.33838 0.33838
#
# Static dielectric constant tensor:
#      x y z
#    x 3.681700 0.000000 0.000000 
#    y 0.000000 3.681700 0.000000 
#    z 0.000000 0.000000 3.903130 
# 
# 
# High freq. dielectric constant tensor:
#      x y z
#    x 1.817830 0.000000 0.000000 
#    y 0.000000 1.817830 0.000000 
#    z 0.000000 0.000000 1.834730 
# 
# From -- ./inp_files/2652.got.cif
#   From: 2010.03.12/outbox.cif.g09.slc.cpg/sg90_2_cif.got.tgz:2652.got - 2010.04.08 20:26:03.
