data_PCOD8304796
_publ_section_title
;
Structure prediction by ZEFSAII (Michael W. Deem and Ramdas Pophale) SiO2 
 PCOD8304796
Probable space group: P 41 2 2
;
_chemical_formula_sum "Si O2"
_cell_formula_units_Z 48
_cell_length_a 15.025577
_cell_length_b 15.025577
_cell_length_c 11.771359
_cell_angle_alpha 90.000000
_cell_angle_beta 90.000000
_cell_angle_gamma 90.000000
_cell_volume 2657.595757
_symmetry_space_group_name_H-M "P 41 2 2"
_symmetry_group_IT_number 91
_symmetry_cell_setting 'tetragonal'
loop_
_space_group_symop_operation_xyz
x,y,z
-y,x,1/4+z
-x,-y,1/2+z
y,-x,3/4+z
x,-y,1/2-z
-x,y,-z
y,x,3/4-z
-y,-x,1/4-z
loop_
_atom_site_type_symbol
_atom_site_label
_atom_site_fract_x
_atom_site_fract_y
_atom_site_fract_z
Si Si1 0.176450 0.527799 0.872736
Si Si2 0.082479 0.709153 0.816440
Si Si3 0.269011 0.350869 0.474901
Si Si4 0.744856 0.197176 0.370801
Si Si5 0.751745 0.886998 0.901075
Si Si6 0.346877 0.909157 0.684174
O O1 0.219014 0.500000 0.750000
O O2 0.113580 0.613368 0.861067
O O3 0.114521 0.449481 0.916765
O O4 0.252381 0.551610 0.968507
O O5 0.150477 0.786800 0.850175
O O6 0.077472 0.707141 0.680943
O O7 0.989894 0.735423 0.877803
O O8 0.345147 0.345147 0.375000
O O9 0.298808 0.288068 0.579949
O O10 0.176011 0.314193 0.421928
O O11 0.731500 0.120768 0.464675
O O12 0.697243 0.171283 0.254314
O O13 0.852818 0.852818 0.875000
O O14 0.340273 0.000000 0.750000
#
# Coordination Sequence:
#
# PCOD8304796 Si02
#       6
#     8   8   8   8   8   8
#     4   9  20  32  49  79 103 137 174 217 267 332
#     4  10  19  34  52  68 102 137 182 219 266 312
#     4   8  17  33  52  73 104 140 181 212 258 312
#     4   9  18  33  50  68  98 141 172 217 265 312
#     4   9  18  31  49  71  94 135 187 226 258 304
#     4  11  20  31  49  75 107 133 171 212 274 327
#
# _framework density 18.061439
#
# number of rings (size 3 to 8) (size 9 to 14) (size 15 to 20)
#    0.000    3.000    1.667    0.500    2.333    5.333 
#    0.000    3.333    3.667    0.000    0.000    0.000 
#    0.000   74.667    0.000    0.000    0.000    0.000 
#
# Total GULP energy -594651.440089 kJ/mol
# GULP energy per Si atom -12388.571669 kJ/mol
# Density = 1.802033 g / cm^3
# Si number density = 18.061439 Si / 1000 Ang^3
#
#
#
# Elastic Constant Matrix: (Units=GPa)
#
#
# Indices 1 2 3 4 5 6 
#
# 1 39.8165 37.4575 24.9357 0.0000 0.0000 0.0000
# 2 37.4575 39.8165 24.9357 0.0000 0.0000 0.0000
# 3 24.9357 24.9357 92.4572 0.0000 0.0000 0.0000
# 4 0.0000 0.0000 0.0000 27.2303 0.0000 0.0000
# 5 0.0000 0.0000 0.0000 0.0000 27.2303 0.0000
# 6 0.0000 0.0000 0.0000 0.0000 0.0000 21.8550
#
#
#
# Elastic Compliance Matrix: (Units=1/GPa)
#
#
# Indices 1 2 3 4 5 6 
#
# 1 0.219785 -0.204117 -0.004226 0.000000 0.000000 0.000000
# 2 -0.204117 0.219785 -0.004226 0.000000 0.000000 0.000000
# 3 -0.004226 -0.004226 0.013095 0.000000 0.000000 0.000000
# 4 0.000000 0.000000 0.000000 0.036724 0.000000 0.000000
# 5 0.000000 0.000000 0.000000 0.000000 0.036724 0.000000
# 6 0.000000 0.000000 0.000000 0.000000 0.000000 0.045756
#
#
# Mechanical properties :
#
#
# Convention : Reuss Voigt Hill
#
# Bulk Modulus (GPa) = 36.32574 38.52755 37.42665
# Shear Modulus (GPa) = 4.96928 20.91386 12.94157
#
# Velocity S-wave (km/s) = 1.66051 3.40653 2.67971
# Velocity P-wave (km/s) = 4.88184 6.07044 5.50830
#
# Compressibility (1/GPa) = 0.02752869
#
# Stress axis : x y z
#
# Youngs Moduli (GPa) = 4.54990 4.54990 76.36411
#
# Poissons Ratio (x) = 0.92871 0.32269
# Poissons Ratio (y) = 0.92871 0.32269
# Poissons Ratio (z) = 0.01923 0.01923
#
# Static dielectric constant tensor:
#      x y z
#    x 3.137250 0.000000 0.000000 
#    y 0.000000 3.137250 0.000000 
#    z 0.000000 0.000000 3.909300 
# 
# 
# High freq. dielectric constant tensor:
#      x y z
#    x 1.666200 0.000000 0.000000 
#    y 0.000000 1.666200 0.000000 
#    z 0.000000 0.000000 1.730200 
# 
# From -- ./inp_files/3829.got.cif
#   From: 2010.03.12/outbox.cif.g09.slc.cpg/sg91_2_cif.got.tgz:3829.got - 2010.04.08 20:27:58.
