data_PCOD8304884
_publ_section_title
;
Structure prediction by ZEFSAII (Michael W. Deem and Ramdas Pophale) SiO2 
 PCOD8304884
Probable space group: P 41 2 2
;
_chemical_formula_sum "Si O2"
_cell_formula_units_Z 36
_cell_length_a 14.098174
_cell_length_b 14.098174
_cell_length_c 9.841194
_cell_angle_alpha 90.000000
_cell_angle_beta 90.000000
_cell_angle_gamma 90.000000
_cell_volume 1956.021057
_symmetry_space_group_name_H-M "P 41 2 2"
_symmetry_group_IT_number 91
_symmetry_cell_setting 'tetragonal'
loop_
_space_group_symop_operation_xyz
x,y,z
-y,x,1/4+z
-x,-y,1/2+z
y,-x,3/4+z
x,-y,1/2-z
-x,y,-z
y,x,3/4-z
-y,-x,1/4-z
loop_
_atom_site_type_symbol
_atom_site_label
_atom_site_fract_x
_atom_site_fract_y
_atom_site_fract_z
Si Si1 0.245461 0.050942 0.959930
Si Si2 0.500000 0.399294 0.500000
Si Si3 0.349416 0.238879 0.483301
Si Si4 0.865374 0.220471 0.931882
Si Si5 0.418916 0.035483 0.398776
O O1 0.274299 0.103732 0.820091
O O2 0.197841 0.951542 0.919622
O O3 0.174246 0.116101 0.043275
O O4 0.330856 0.028972 0.059817
O O5 0.531760 0.468241 0.625000
O O6 0.414312 0.326881 0.533354
O O7 0.273367 0.273367 0.375000
O O8 0.293055 0.208879 0.617433
O O9 0.403976 0.149427 0.414377
O O10 0.500000 0.003609 0.500000
O O11 0.449095 0.000000 0.250000
#
# Coordination Sequence:
#
# PCOD8304884 Si02
#       5
#     8   4   8   8   8
#     4   9  19  35  58  81 119 152 199 235 291 345
#     4  10  22  42  62  84 116 152 198 248 304 362
#     4  10  20  37  63  81 116 155 194 240 306 351
#     4   9  18  35  60  82 116 160 192 244 288 348
#     4  11  23  35  59  89 119 150 196 240 295 354
#
# _framework density 18.404710000000001
#
# number of rings (size 3 to 8) (size 9 to 14) (size 15 to 20)
#    0.000    2.222    1.111    1.333    6.222    0.000 
#    4.000    0.000   97.778    0.000    0.000    0.000 
#    0.000    0.000    0.000    0.000    0.000    0.000 
#
# Total GULP energy -446111.079792 kJ/mol
# GULP energy per Si atom -12391.974439 kJ/mol
# Density = 1.836282 g / cm^3
# Si number density = 18.404710 Si / 1000 Ang^3
#
#
#
# Elastic Constant Matrix: (Units=GPa)
#
#
# Indices 1 2 3 4 5 6 
#
# 1 88.5631 49.9227 66.8294 0.0000 0.0000 0.0000
# 2 49.9227 88.5621 66.8293 0.0000 0.0000 0.0000
# 3 66.8294 66.8293 126.5698 0.0000 0.0000 0.0000
# 4 0.0000 0.0000 0.0000 28.3184 0.0000 0.0000
# 5 0.0000 0.0000 0.0000 0.0000 28.3182 0.0000
# 6 0.0000 0.0000 0.0000 0.0000 0.0000 4.0602
#
#
#
# Elastic Compliance Matrix: (Units=1/GPa)
#
#
# Indices 1 2 3 4 5 6 
#
# 1 0.020302 -0.005578 -0.007775 0.000000 0.000000 0.000000
# 2 -0.005578 0.020303 -0.007775 0.000000 0.000000 0.000000
# 3 -0.007775 -0.007775 0.016111 0.000000 0.000000 0.000000
# 4 0.000000 0.000000 0.000000 0.035313 0.000000 0.000000
# 5 0.000000 0.000000 0.000000 0.000000 0.035313 0.000000
# 6 0.000000 0.000000 0.000000 0.000000 0.000000 0.246292
#
#
# Mechanical properties :
#
#
# Convention : Reuss Voigt Hill
#
# Bulk Modulus (GPa) = 69.14896 74.53977 71.84436
# Shear Modulus (GPa) = 11.88472 20.14694 16.01583
#
# Velocity S-wave (km/s) = 2.54391 3.31216 2.95312
# Velocity P-wave (km/s) = 6.80305 7.43071 7.12380
#
# Compressibility (1/GPa) = 0.01446153
#
# Stress axis : x y z
#
# Youngs Moduli (GPa) = 49.25581 49.25496 62.06963
#
# Poissons Ratio (x) = 0.27473 0.48257
# Poissons Ratio (y) = 0.27473 0.48258
# Poissons Ratio (z) = 0.38295 0.38295
#
# Static dielectric constant tensor:
#      x y z
#    x 3.650330 0.000000 0.000000 
#    y 0.000000 3.650330 0.000000 
#    z 0.000000 0.000000 3.458150 
# 
# 
# High freq. dielectric constant tensor:
#      x y z
#    x 1.715480 0.000000 0.000000 
#    y 0.000000 1.715480 0.000000 
#    z 0.000000 0.000000 1.715840 
# 
# From -- ./inp_files/2200.got.cif
#   From: 2010.03.12/outbox.cif.g09.slc.cpg/sg91_2_cif.got.tgz:2200.got - 2010.04.08 20:27:58.
