data_PCOD8304186
_publ_section_title
;
Structure prediction by ZEFSAII (Michael W. Deem and Ramdas Pophale) SiO2 
 PCOD8304186
Probable space group: I 41/A
;
_chemical_formula_sum "Si O2"
_cell_formula_units_Z 96
_cell_length_a 22.959627
_cell_length_b 22.959627
_cell_length_c 9.466643
_cell_angle_alpha 90.000000
_cell_angle_beta 90.000000
_cell_angle_gamma 90.000000
_cell_volume 4990.288526
_symmetry_space_group_name_H-M "I 41/A"
_symmetry_group_IT_number 88
_space_group.IT_coordinate_system_code '2'
_symmetry_cell_setting 'tetragonal'
loop_
_space_group_symop_operation_xyz
x,y,z
3/4-y,1/4+x,1/4+z
-x,1/2-y,z
1/4+y,1/4-x,1/4+z
-x,-y,-z
1/4+y,3/4-x,3/4-z
x,1/2+y,-z
3/4-y,3/4+x,3/4-z
1/2+x,1/2+y,1/2+z
1/4-y,3/4+x,3/4+z
1/2-x,-y,1/2+z
3/4+y,3/4-x,3/4+z
1/2-x,1/2-y,1/2-z
3/4+y,1/4-x,1/4-z
1/2+x,y,1/2-z
1/4-y,1/4+x,1/4-z
loop_
_atom_site_type_symbol
_atom_site_label
_atom_site_fract_x
_atom_site_fract_y
_atom_site_fract_z
Si Si1 0.478054 0.947207 0.176531
Si Si2 0.140971 0.858414 0.643880
Si Si3 0.212087 0.681059 0.653685
Si Si4 0.023760 0.919766 0.610152
Si Si5 0.313421 0.490015 0.473828
Si Si6 0.661191 0.267102 0.345135
O O1 0.425035 0.921823 0.265313
O O2 0.540921 0.942038 0.254712
O O3 0.461994 0.013842 0.147713
O O4 0.483649 0.913270 0.028211
O O5 0.084024 0.887946 0.580728
O O6 0.182751 0.907306 0.709681
O O7 0.118506 0.810896 0.760932
O O8 0.214272 0.610896 0.658820
O O9 0.277021 0.702419 0.685795
O O10 0.167085 0.702761 0.775652
O O11 0.988228 0.892092 0.742101
O O12 0.276730 0.521202 0.595965
#
# Coordination Sequence:
#
# PCOD8304186 Si02
#       6
#    16  16  16  16  16  16
#     4   9  19  34  56  82 105 135 182 225 263 322
#     4  10  19  35  56  76 105 143 174 217 277 323
#     4   8  15  32  50  69 101 141 176 213 253 297
#     4  10  18  33  56  81 106 135 178 227 265 314
#     4  11  22  34  50  78 117 152 180 215 261 321
#     4   8  15  30  54  75  94 129 180 218 253 311
#
# _framework density 19.237363999999999
#
# number of rings (size 3 to 8) (size 9 to 14) (size 15 to 20)
#    0.000    2.667    0.000    5.000    0.000    1.333 
#    0.000   13.333    0.000    3.000    0.000    0.000 
#    0.000    0.000    0.000    0.000    0.000    0.000 
#
# Total GULP energy -594871.077544 kJ/mol
# GULP energy per Si atom -12393.147449 kJ/mol
# Density = 1.919358 g / cm^3
# Si number density = 19.237364 Si / 1000 Ang^3
#
#
#
# Elastic Constant Matrix: (Units=GPa)
#
#
# Indices 1 2 3 4 5 6 
#
# 1 60.8373 34.4035 42.3808 0.0000 0.0000 -1.8702
# 2 34.4035 60.8373 42.3808 0.0000 0.0000 1.8702
# 3 42.3808 42.3808 130.3740 0.0000 0.0000 0.0000
# 4 0.0000 0.0000 0.0000 19.6090 0.0000 0.0000
# 5 0.0000 0.0000 0.0000 0.0000 19.6090 0.0000
# 6 -1.8702 1.8702 0.0000 0.0000 0.0000 22.0247
#
#
#
# Elastic Compliance Matrix: (Units=1/GPa)
#
#
# Indices 1 2 3 4 5 6 
#
# 1 0.026532 -0.011758 -0.004803 0.000000 0.000000 0.003251
# 2 -0.011758 0.026532 -0.004803 0.000000 0.000000 -0.003251
# 3 -0.004803 -0.004803 0.010793 0.000000 0.000000 0.000000
# 4 0.000000 0.000000 0.000000 0.050997 0.000000 0.000000
# 5 0.000000 0.000000 0.000000 0.000000 0.050997 0.000000
# 6 0.003251 -0.003251 0.000000 0.000000 0.000000 0.045956
#
#
# Mechanical properties :
#
#
# Convention : Reuss Voigt Hill
#
# Bulk Modulus (GPa) = 47.32595 54.48652 50.90623
# Shear Modulus (GPa) = 19.11485 21.10744 20.11114
#
# Velocity S-wave (km/s) = 3.15561 3.31601 3.23680
# Velocity P-wave (km/s) = 6.15887 6.56094 6.36308
#
# Compressibility (1/GPa) = 0.02113006
#
# Stress axis : x y z
#
# Youngs Moduli (GPa) = 37.69020 37.69020 92.65637
#
# Poissons Ratio (x) = 0.44317 0.44499
# Poissons Ratio (y) = 0.44317 0.44499
# Poissons Ratio (z) = 0.18101 0.18101
#
# Static dielectric constant tensor:
#      x y z
#    x 3.332670 0.000000 0.000000 
#    y 0.000000 3.332670 0.000000 
#    z 0.000000 0.000000 3.709560 
# 
# 
# High freq. dielectric constant tensor:
#      x y z
#    x 1.721600 0.000000 0.000000 
#    y 0.000000 1.721600 0.000000 
#    z 0.000000 0.000000 1.760690 
# 
# From -- ./inp_files/1748.got.cif
#   From: 2010.03.12/outbox.cif.g09.slc.cpg/sg88_1_cif.got.tgz:1748.got - 2010.04.08 20:20:55.
