data_PCOD8304336
_publ_section_title
;
Structure prediction by ZEFSAII (Michael W. Deem and Ramdas Pophale) SiO2 
 PCOD8304336
Probable space group: I 41/A
;
_chemical_formula_sum "Si O2"
_cell_formula_units_Z 48
_cell_length_a 11.815666
_cell_length_b 11.815666
_cell_length_c 13.521883
_cell_angle_alpha 90.000000
_cell_angle_beta 90.000000
_cell_angle_gamma 90.000000
_cell_volume 1887.789586
_symmetry_space_group_name_H-M "I 41/A"
_symmetry_group_IT_number 88
_space_group.IT_coordinate_system_code '2'
_symmetry_cell_setting 'tetragonal'
loop_
_space_group_symop_operation_xyz
x,y,z
3/4-y,1/4+x,1/4+z
-x,1/2-y,z
1/4+y,1/4-x,1/4+z
-x,-y,-z
1/4+y,3/4-x,3/4-z
x,1/2+y,-z
3/4-y,3/4+x,3/4-z
1/2+x,1/2+y,1/2+z
1/4-y,3/4+x,3/4+z
1/2-x,-y,1/2+z
3/4+y,3/4-x,3/4+z
1/2-x,1/2-y,1/2-z
3/4+y,1/4-x,1/4-z
1/2+x,y,1/2-z
1/4-y,1/4+x,1/4-z
loop_
_atom_site_type_symbol
_atom_site_label
_atom_site_fract_x
_atom_site_fract_y
_atom_site_fract_z
Si Si1 0.868928 0.320987 0.184757
Si Si2 0.535617 0.091295 0.825471
Si Si3 0.126303 0.349031 0.353425
O O1 0.850840 0.222146 0.100675
O O2 0.901835 0.263415 0.289050
O O3 0.751789 0.389499 0.183429
O O4 0.406829 0.127143 0.851546
O O5 0.562543 0.132887 0.715759
O O6 0.545189 0.956111 0.835669
#
# Coordination Sequence:
#
# PCOD8304336 Si02
#       3
#    16  16  16
#     4  10  22  43  73 109 143 187 241 305 360 420
#     4  11  26  48  74 108 147 199 241 303 373 444
#     4  11  23  48  72 106 149 188 247 300 364 444
#
# _framework density 25.426565
#
# number of rings (size 3 to 8) (size 9 to 14) (size 15 to 20)
#    0.000    1.333    3.333    1.000    0.000    8.000 
#    6.000    0.000    0.000    0.000    0.000    0.000 
#    0.000    0.000    0.000    0.000    0.000    0.000 
#
# Total GULP energy -297482.986789 kJ/mol
# GULP energy per Si atom -12395.124450 kJ/mol
# Density = 2.536869 g / cm^3
# Si number density = 25.426565 Si / 1000 Ang^3
#
#
#
# Elastic Constant Matrix: (Units=GPa)
#
#
# Indices 1 2 3 4 5 6 
#
# 1 80.5276 -0.5267 6.6026 0.0000 0.0000 1.4287
# 2 -0.5267 80.5276 6.6026 0.0000 0.0000 -1.4287
# 3 6.6026 6.6026 195.6204 0.0000 0.0000 0.0000
# 4 0.0000 0.0000 0.0000 29.3688 0.0000 0.0000
# 5 0.0000 0.0000 0.0000 0.0000 29.3688 0.0000
# 6 1.4287 -1.4287 0.0000 0.0000 0.0000 43.3760
#
#
#
# Elastic Compliance Matrix: (Units=1/GPa)
#
#
# Indices 1 2 3 4 5 6 
#
# 1 0.012461 0.000109 -0.000424 0.000000 0.000000 -0.000407
# 2 0.000109 0.012461 -0.000424 0.000000 0.000000 0.000407
# 3 -0.000424 -0.000424 0.005141 0.000000 0.000000 0.000000
# 4 0.000000 0.000000 0.000000 0.034050 0.000000 0.000000
# 5 0.000000 0.000000 0.000000 0.000000 0.034050 0.000000
# 6 -0.000407 0.000407 0.000000 0.000000 0.000000 0.023081
#
#
# Mechanical properties :
#
#
# Convention : Reuss Voigt Hill
#
# Bulk Modulus (GPa) = 34.98541 42.44804 38.71673
# Shear Modulus (GPa) = 37.80738 43.35587 40.58163
#
# Velocity S-wave (km/s) = 3.86025 4.13381 3.99937
# Velocity P-wave (km/s) = 5.80155 6.28611 6.04868
#
# Compressibility (1/GPa) = 0.02858334
#
# Stress axis : x y z
#
# Youngs Moduli (GPa) = 80.25150 80.25151 194.53057
#
# Poissons Ratio (x) = -0.00875 0.08253
# Poissons Ratio (y) = -0.00875 0.08253
# Poissons Ratio (z) = 0.03405 0.03405
#
# Static dielectric constant tensor:
#      x y z
#    x 4.492840 0.000000 0.000000 
#    y 0.000000 4.492840 0.000000 
#    z 0.000000 0.000000 4.896160 
# 
# 
# High freq. dielectric constant tensor:
#      x y z
#    x 2.008650 0.000000 0.000000 
#    y 0.000000 2.008650 0.000000 
#    z 0.000000 0.000000 2.036110 
# 
# From -- ./inp_files/2946.got.cif
#   From: 2010.03.12/outbox.cif.g09.slc.cpg/sg88_2_cif.got.tgz:2946.got - 2010.04.08 20:20:55.
