data_PCOD8304953
_publ_section_title
;
Structure prediction by ZEFSAII (Michael W. Deem and Ramdas Pophale) SiO2 
 PCOD8304953
Probable space group: P 41 2 2
;
_chemical_formula_sum "Si O2"
_cell_formula_units_Z 48
_cell_length_a 11.201272
_cell_length_b 11.201272
_cell_length_c 18.152133
_cell_angle_alpha 90.000000
_cell_angle_beta 90.000000
_cell_angle_gamma 90.000000
_cell_volume 2277.520798
_symmetry_space_group_name_H-M "P 41 2 2"
_symmetry_group_IT_number 91
_symmetry_cell_setting 'tetragonal'
loop_
_space_group_symop_operation_xyz
x,y,z
-y,x,1/4+z
-x,-y,1/2+z
y,-x,3/4+z
x,-y,1/2-z
-x,y,-z
y,x,3/4-z
-y,-x,1/4-z
loop_
_atom_site_type_symbol
_atom_site_label
_atom_site_fract_x
_atom_site_fract_y
_atom_site_fract_z
Si Si1 0.290861 0.220490 0.171391
Si Si2 0.707374 0.135925 0.071228
Si Si3 0.383219 0.609269 0.038142
Si Si4 0.957753 0.904070 0.688641
Si Si5 0.470666 0.096245 0.810594
Si Si6 0.648594 0.303879 0.275755
O O1 0.316364 0.273768 0.252872
O O2 0.171280 0.143557 0.164210
O O3 0.406803 0.141607 0.153658
O O4 0.283137 0.326732 0.111922
O O5 0.786346 0.213655 0.125000
O O6 0.607848 0.061210 0.117441
O O7 0.792901 0.038021 0.031806
O O8 0.646865 0.229335 0.013117
O O9 0.373003 0.626998 0.125000
O O10 0.387372 0.467742 0.018469
O O11 0.500000 0.664676 0.000000
O O12 0.932847 0.000000 0.750000
O O13 0.028618 0.971383 0.625000
O O14 0.386841 0.183378 0.764379
O O15 0.505352 0.000000 0.750000
#
# Coordination Sequence:
#
# PCOD8304953 Si02
#       6
#     8   8   8   8   8   8
#     4  11  23  38  63  93 129 174 218 268 334 409
#     4   9  20  37  63  94 120 160 218 283 335 385
#     4  11  23  40  65  94 134 177 214 268 337 419
#     4  11  23  41  65  90 124 170 223 274 330 395
#     4  10  21  38  59  88 127 166 208 273 342 394
#     4  10  21  37  62  92 123 159 219 268 324 395
#
# _framework density 21.075551000000001
#
# number of rings (size 3 to 8) (size 9 to 14) (size 15 to 20)
#    0.000    1.667    1.667    2.500    2.333    6.000 
#    0.000    3.333    0.000    0.000    0.000    0.000 
#    0.000    0.000    0.000    0.000    0.000    0.000 
#
# Total GULP energy -594675.818263 kJ/mol
# GULP energy per Si atom -12389.079547 kJ/mol
# Density = 2.102758 g / cm^3
# Si number density = 21.075551 Si / 1000 Ang^3
#
#
#
# Elastic Constant Matrix: (Units=GPa)
#
#
# Indices 1 2 3 4 5 6 
#
# 1 79.9531 54.7700 29.9809 0.0000 0.0000 0.0000
# 2 54.7700 79.9536 29.9812 0.0000 0.0000 0.0000
# 3 29.9809 29.9812 90.6757 0.0000 0.0000 0.0000
# 4 0.0000 0.0000 0.0000 29.5352 0.0000 0.0000
# 5 0.0000 0.0000 0.0000 0.0000 29.5351 0.0000
# 6 0.0000 0.0000 0.0000 0.0000 0.0000 4.8043
#
#
#
# Elastic Compliance Matrix: (Units=1/GPa)
#
#
# Indices 1 2 3 4 5 6 
#
# 1 0.024206 -0.015503 -0.002878 0.000000 0.000000 0.000000
# 2 -0.015503 0.024206 -0.002878 0.000000 0.000000 0.000000
# 3 -0.002878 -0.002878 0.012931 0.000000 0.000000 0.000000
# 4 0.000000 0.000000 0.000000 0.033858 0.000000 0.000000
# 5 0.000000 0.000000 0.000000 0.000000 0.033858 0.000000
# 6 0.000000 0.000000 0.000000 0.000000 0.000000 0.208149
#
#
# Mechanical properties :
#
#
# Convention : Reuss Voigt Hill
#
# Bulk Modulus (GPa) = 53.11433 53.33850 53.22642
# Shear Modulus (GPa) = 12.95336 21.83160 17.39248
#
# Velocity S-wave (km/s) = 2.48183 3.22199 2.87582
# Velocity P-wave (km/s) = 5.78526 6.26137 6.02802
#
# Compressibility (1/GPa) = 0.01882731
#
# Stress axis : x y z
#
# Youngs Moduli (GPa) = 41.31182 41.31197 77.33193
#
# Poissons Ratio (x) = 0.64045 0.22253
# Poissons Ratio (y) = 0.64044 0.22254
# Poissons Ratio (z) = 0.11888 0.11889
#
# Static dielectric constant tensor:
#      x y z
#    x 3.849240 0.000000 0.000000 
#    y 0.000000 3.849240 0.000000 
#    z 0.000000 0.000000 3.929110 
# 
# 
# High freq. dielectric constant tensor:
#      x y z
#    x 1.819770 0.000000 0.000000 
#    y 0.000000 1.819770 0.000000 
#    z 0.000000 0.000000 1.825490 
# 
# From -- ./inp_files/11937.got.cif
#   From: 2010.03.12/outbox.cif.g09.slc.cpg/sg91_6_cif.got.tgz:11937.got - 2010.04.08 20:27:58.
