data_PCOD8304705
_publ_section_title
;
Structure prediction by ZEFSAII (Michael W. Deem and Ramdas Pophale) SiO2 
 PCOD8304705
Probable space group: P 41 2 2
;
_chemical_formula_sum "Si O2"
_cell_formula_units_Z 48
_cell_length_a 9.197606
_cell_length_b 9.197606
_cell_length_c 29.614300
_cell_angle_alpha 90.000000
_cell_angle_beta 90.000000
_cell_angle_gamma 90.000000
_cell_volume 2505.250024
_symmetry_space_group_name_H-M "P 41 2 2"
_symmetry_group_IT_number 91
_symmetry_cell_setting 'tetragonal'
loop_
_space_group_symop_operation_xyz
x,y,z
-y,x,1/4+z
-x,-y,1/2+z
y,-x,3/4+z
x,-y,1/2-z
-x,y,-z
y,x,3/4-z
-y,-x,1/4-z
loop_
_atom_site_type_symbol
_atom_site_label
_atom_site_fract_x
_atom_site_fract_y
_atom_site_fract_z
Si Si1 0.500000 0.981596 0.500000
Si Si2 0.088414 0.000000 0.250000
Si Si3 0.286617 0.767883 0.004139
Si Si4 0.472444 0.925184 0.595381
Si Si5 0.567659 0.248540 0.595499
Si Si6 0.337085 0.259331 0.159682
Si Si7 0.849644 0.016759 0.411079
O O1 0.636251 0.084793 0.484040
O O2 0.528999 0.882254 0.544411
O O3 0.190131 0.874094 0.227970
O O4 0.993273 0.923688 0.289459
O O5 0.391347 0.713341 0.043748
O O6 0.270319 0.647060 0.964462
O O7 0.529286 0.817476 0.634327
O O8 0.297826 0.924271 0.596014
O O9 0.544372 0.080101 0.605086
O O10 0.702677 0.297324 0.625000
O O11 0.422790 0.334629 0.609564
O O12 0.186548 0.175877 0.150879
O O13 0.965963 0.965963 0.375000
#
# Coordination Sequence:
#
# PCOD8304705 Si02
#       7
#     4   4   8   8   8   8   8
#     4  10  16  38  58  82 122 156 192 246 304 352
#     4  10  20  32  56  92 116 148 200 250 302 358
#     4  10  18  35  57  87 122 151 196 255 301 350
#     4  10  21  36  59  84 119 156 195 248 303 353
#     4  10  21  35  59  88 116 152 203 246 296 358
#     4  10  20  37  58  83 117 158 199 240 298 367
#     4  10  22  36  56  87 119 148 198 249 299 350
#
# _framework density 19.159766000000001
#
# number of rings (size 3 to 8) (size 9 to 14) (size 15 to 20)
#    0.000    2.000    6.667    0.000    9.333    0.667 
#    0.000    0.000   14.667    0.000    0.000    0.000 
#    0.000    0.000    0.000    0.000    0.000    0.000 
#
# Total GULP energy -594732.174896 kJ/mol
# GULP energy per Si atom -12390.253644 kJ/mol
# Density = 1.911616 g / cm^3
# Si number density = 19.159766 Si / 1000 Ang^3
#
#
#
# Elastic Constant Matrix: (Units=GPa)
#
#
# Indices 1 2 3 4 5 6 
#
# 1 68.9254 37.1015 38.4956 0.0000 0.0000 0.0000
# 2 37.1015 68.9260 38.4945 0.0000 0.0000 0.0000
# 3 38.4956 38.4945 114.3904 0.0000 0.0000 0.0000
# 4 0.0000 0.0000 0.0000 30.6178 0.0000 0.0000
# 5 0.0000 0.0000 0.0000 0.0000 30.6177 0.0000
# 6 0.0000 0.0000 0.0000 0.0000 0.0000 27.9012
#
#
#
# Elastic Compliance Matrix: (Units=1/GPa)
#
#
# Indices 1 2 3 4 5 6 
#
# 1 0.021952 -0.009471 -0.004201 0.000000 0.000000 0.000000
# 2 -0.009471 0.021952 -0.004200 0.000000 0.000000 0.000000
# 3 -0.004201 -0.004200 0.011569 0.000000 0.000000 0.000000
# 4 0.000000 0.000000 0.000000 0.032661 0.000000 0.000000
# 5 0.000000 0.000000 0.000000 0.000000 0.032661 0.000000
# 6 0.000000 0.000000 0.000000 0.000000 0.000000 0.035841
#
#
# Mechanical properties :
#
#
# Convention : Reuss Voigt Hill
#
# Bulk Modulus (GPa) = 50.68225 53.38057 52.03141
# Shear Modulus (GPa) = 25.13132 27.03735 26.08434
#
# Velocity S-wave (km/s) = 3.62563 3.76061 3.69373
# Velocity P-wave (km/s) = 6.63602 6.83940 6.73848
#
# Compressibility (1/GPa) = 0.01973077
#
# Stress axis : x y z
#
# Youngs Moduli (GPa) = 45.55317 45.55428 86.43770
#
# Poissons Ratio (x) = 0.43142 0.36309
# Poissons Ratio (y) = 0.43141 0.36305
# Poissons Ratio (z) = 0.19135 0.19133
#
# Static dielectric constant tensor:
#      x y z
#    x 3.417260 0.000000 0.000000 
#    y 0.000000 3.417260 0.000000 
#    z 0.000000 0.000000 3.578480 
# 
# 
# High freq. dielectric constant tensor:
#      x y z
#    x 1.725070 0.000000 0.000000 
#    y 0.000000 1.725070 0.000000 
#    z 0.000000 0.000000 1.750980 
# 
# From -- ./inp_files/22303.got.cif
#   From: 2010.03.12/outbox.cif.g09.slc.cpg/sg91_12_cif.got.tgz:22303.got - 2010.04.08 20:27:58.
