data_PCOD8304069
_publ_section_title
;
Structure prediction by ZEFSAII (Michael W. Deem and Ramdas Pophale) SiO2 
 PCOD8304069
Probable space group: I 4/M
;
_chemical_formula_sum "Si O2"
_cell_formula_units_Z 112
_cell_length_a 15.508227
_cell_length_b 15.508227
_cell_length_c 23.511368
_cell_angle_alpha 90.000000
_cell_angle_beta 90.000000
_cell_angle_gamma 90.000000
_cell_volume 5654.604022
_symmetry_space_group_name_H-M "I 4/M"
_symmetry_group_IT_number 87
_symmetry_cell_setting 'tetragonal'
loop_
_space_group_symop_operation_xyz
x,y,z
-y,x,z
-x,-y,z
y,-x,z
-x,-y,-z
y,-x,-z
x,y,-z
-y,x,-z
1/2+x,1/2+y,1/2+z
1/2-y,1/2+x,1/2+z
1/2-x,1/2-y,1/2+z
1/2+y,1/2-x,1/2+z
1/2-x,1/2-y,1/2-z
1/2+y,1/2-x,1/2-z
1/2+x,1/2+y,1/2-z
1/2-y,1/2+x,1/2-z
loop_
_atom_site_type_symbol
_atom_site_label
_atom_site_fract_x
_atom_site_fract_y
_atom_site_fract_z
Si Si1 0.846659 0.807085 0.843213
Si Si2 0.095670 0.528223 0.433670
Si Si3 0.902392 0.906543 0.745809
Si Si4 0.878448 0.299450 0.369256
Si Si5 0.757669 0.532757 0.358437
Si Si6 0.138087 0.462586 0.244888
Si Si7 0.381787 0.433599 0.887116
O O1 0.843650 0.834920 0.776361
O O2 0.792329 0.719946 0.848456
O O3 0.801989 0.886436 0.876920
O O4 0.943130 0.793483 0.867033
O O5 0.114041 0.518773 0.500000
O O6 0.108936 0.626475 0.415223
O O7 0.160051 0.465764 0.400017
O O8 0.000000 0.500000 0.416755
O O9 0.890663 0.912712 0.679247
O O10 0.997879 0.880896 0.767796
O O11 0.940593 0.314830 0.314843
O O12 0.898145 0.211491 0.404234
O O13 0.791036 0.543876 0.293892
O O14 0.103628 0.560434 0.243232
O O15 0.467354 0.385102 0.909753
#
# Coordination Sequence:
#
# PCOD8304069 Si02
#       7
#    16  16  16  16  16  16  16
#     4  11  21  35  50  84 122 159 208 248 299 362
#     4  10  22  45  68  87 115 157 208 255 313 370
#     4   9  16  28  47  71 110 169 199 225 277 355
#     4  11  23  35  58  92 113 156 205 261 309 359
#     4  11  23  37  57  89 122 163 202 253 309 367
#     4  11  21  36  55  80 125 157 195 247 313 375
#     4   9  20  35  52  78 122 163 196 236 302 373
#
# _framework density 19.80687
#
# number of rings (size 3 to 8) (size 9 to 14) (size 15 to 20)
#    0.000    1.714    4.286    2.571    2.000    4.857 
#    0.000    2.857    0.000    0.857    0.000    5.000 
#    0.000    0.000    0.000    0.000    0.000    0.000 
#
# Total GULP energy -693915.464034 kJ/mol
# GULP energy per Si atom -12391.347572 kJ/mol
# Density = 1.976179 g / cm^3
# Si number density = 19.806870 Si / 1000 Ang^3
#
#
#
# Elastic Constant Matrix: (Units=GPa)
#
#
# Indices 1 2 3 4 5 6 
#
# 1 111.3025 41.3638 5.4287 0.0000 0.0000 6.8915
# 2 41.3638 111.3025 5.4287 0.0000 0.0000 -6.8915
# 3 5.4287 5.4287 33.3925 0.0000 0.0000 0.0000
# 4 0.0000 0.0000 0.0000 9.3278 0.0000 0.0000
# 5 0.0000 0.0000 0.0000 0.0000 9.3278 0.0000
# 6 6.8915 -6.8915 0.0000 0.0000 0.0000 36.0905
#
#
#
# Elastic Compliance Matrix: (Units=1/GPa)
#
#
# Indices 1 2 3 4 5 6 
#
# 1 0.010742 -0.004115 -0.001077 0.000000 0.000000 -0.002837
# 2 -0.004115 0.010742 -0.001077 0.000000 0.000000 0.002837
# 3 -0.001077 -0.001077 0.030297 0.000000 0.000000 0.000000
# 4 0.000000 0.000000 0.000000 0.107207 0.000000 0.000000
# 5 0.000000 0.000000 0.000000 0.000000 0.107207 0.000000
# 6 -0.002837 0.002837 0.000000 0.000000 0.000000 0.028792
#
#
# Mechanical properties :
#
#
# Convention : Reuss Voigt Hill
#
# Bulk Modulus (GPa) = 25.48324 40.04888 32.76606
# Shear Modulus (GPa) = 15.59544 24.53430 20.06487
#
# Velocity S-wave (km/s) = 2.80907 3.52330 3.18626
# Velocity P-wave (km/s) = 4.83890 6.06755 5.48772
#
# Compressibility (1/GPa) = 0.03924149
#
# Stress axis : x y z
#
# Youngs Moduli (GPa) = 93.09166 93.09166 33.00638
#
# Poissons Ratio (x) = 0.38310 0.03556
# Poissons Ratio (y) = 0.38310 0.03556
# Poissons Ratio (z) = 0.10029 0.10029
#
# Static dielectric constant tensor:
#      x y z
#    x 3.951830 0.000000 0.000000 
#    y 0.000000 3.951830 0.000000 
#    z 0.000000 0.000000 3.122140 
# 
# 
# High freq. dielectric constant tensor:
#      x y z
#    x 1.784020 0.000000 0.000000 
#    y 0.000000 1.784020 0.000000 
#    z 0.000000 0.000000 1.719790 
# 
# From -- ./inp_files/5914.got.cif
#   From: 2010.03.12/outbox.cif.g09.slc.cpg/sg87_3_cif.got.tgz:5914.got - 2010.04.08 20:16:13.
