data_PCOD8304041
_publ_section_title
;
Structure prediction by ZEFSAII (Michael W. Deem and Ramdas Pophale) SiO2 
 PCOD8304041
Probable space group: I 4/M
;
_chemical_formula_sum "Si O2"
_cell_formula_units_Z 80
_cell_length_a 13.505871
_cell_length_b 13.505871
_cell_length_c 21.974948
_cell_angle_alpha 90.000000
_cell_angle_beta 90.000000
_cell_angle_gamma 90.000000
_cell_volume 4008.418433
_symmetry_space_group_name_H-M "I 4/M"
_symmetry_group_IT_number 87
_symmetry_cell_setting 'tetragonal'
loop_
_space_group_symop_operation_xyz
x,y,z
-y,x,z
-x,-y,z
y,-x,z
-x,-y,-z
y,-x,-z
x,y,-z
-y,x,-z
1/2+x,1/2+y,1/2+z
1/2-y,1/2+x,1/2+z
1/2-x,1/2-y,1/2+z
1/2+y,1/2-x,1/2+z
1/2-x,1/2-y,1/2-z
1/2+y,1/2-x,1/2-z
1/2+x,1/2+y,1/2-z
1/2-y,1/2+x,1/2-z
loop_
_atom_site_type_symbol
_atom_site_label
_atom_site_fract_x
_atom_site_fract_y
_atom_site_fract_z
Si Si1 0.126538 0.404327 0.119843
Si Si2 0.654028 0.816562 0.744381
Si Si3 0.213071 0.813946 0.930661
Si Si4 0.559024 0.649680 0.322317
Si Si5 0.604462 0.124129 0.376624
O O1 0.161920 0.395931 0.189913
O O2 0.194851 0.332362 0.078142
O O3 0.142380 0.517598 0.098542
O O4 0.012461 0.369565 0.112934
O O5 0.750000 0.750000 0.750000
O O6 0.571209 0.735658 0.726945
O O7 0.629142 0.875520 0.804911
O O8 0.183242 0.909471 0.890239
O O9 0.160652 0.712056 0.911061
O O10 0.185079 0.836660 0.000000
O O11 0.444924 0.627474 0.312466
#
# Coordination Sequence:
#
# PCOD8304041 Si02
#       5
#    16  16  16  16  16
#     4  10  23  38  60  92 119 151 195 244 293 348
#     4  11  20  33  58  87 116 151 184 229 285 352
#     4  11  23  39  59  82 114 156 199 246 297 346
#     4  10  22  37  55  84 119 152 190 236 289 351
#     4  11  22  39  62  88 120 153 195 244 293 352
#
# _framework density 19.957996999999999
#
# number of rings (size 3 to 8) (size 9 to 14) (size 15 to 20)
#    0.000    1.400    4.000    3.600    2.800    5.600 
#    0.000    3.000    0.000    0.600    0.000    1.400 
#    0.000    0.000    0.000    0.000    0.000    0.000 
#
# Total GULP energy -495687.080077 kJ/mol
# GULP energy per Si atom -12392.177002 kJ/mol
# Density = 1.991257 g / cm^3
# Si number density = 19.957997 Si / 1000 Ang^3
#
#
#
# Elastic Constant Matrix: (Units=GPa)
#
#
# Indices 1 2 3 4 5 6 
#
# 1 -210.5369 296.2490 2.6474 0.0000 0.0000 -69.7828
# 2 296.2490 -210.5369 2.6474 0.0000 0.0000 69.7828
# 3 2.6474 2.6474 63.5597 0.0000 0.0000 0.0000
# 4 0.0000 0.0000 0.0000 11.8431 0.0000 0.0000
# 5 0.0000 0.0000 0.0000 0.0000 11.8431 0.0000
# 6 -69.7828 69.7828 0.0000 0.0000 0.0000 11.8416
#
#
#
# Elastic Compliance Matrix: (Units=1/GPa)
#
#
# Indices 1 2 3 4 5 6 
#
# 1 0.005472 0.006225 -0.000487 0.000000 0.000000 -0.004433
# 2 0.006225 0.005472 -0.000487 0.000000 0.000000 0.004433
# 3 -0.000487 -0.000487 0.015774 0.000000 0.000000 0.000000
# 4 0.000000 0.000000 0.000000 0.084437 0.000000 0.000000
# 5 0.000000 0.000000 0.000000 0.000000 0.084437 0.000000
# 6 -0.004433 0.004433 0.000000 0.000000 0.000000 0.032196
#
#
# Mechanical properties :
#
#
# Convention : Reuss Voigt Hill
#
# Bulk Modulus (GPa) = 26.86792 27.28595 27.07694
# Shear Modulus (GPa) = 21.76799 -36.83163 -7.53182
#
# Velocity S-wave (km/s) = 3.30614 -4.30054 -1.94474
# Velocity P-wave (km/s) = 5.29769 3.31031 2.92467
#
# Compressibility (1/GPa) = 0.03721911
#
# Stress axis : x y z
#
# Youngs Moduli (GPa) = 182.73595 182.73595 63.39612
#
# Poissons Ratio (x) = -1.13747 0.03089
# Poissons Ratio (y) = -1.13747 0.03089
# Poissons Ratio (z) = 0.08903 0.08903
#
# Static dielectric constant tensor:
#      x y z
#    x 4.038070 0.000000 0.000000 
#    y 0.000000 4.038070 0.000000 
#    z 0.000000 0.000000 2.485460 
# 
# 
# High freq. dielectric constant tensor:
#      x y z
#    x 1.788740 0.000000 0.000000 
#    y 0.000000 1.788740 0.000000 
#    z 0.000000 0.000000 1.753830 
# 
# From -- ./inp_files/5105.got.cif
#   From: 2010.03.12/outbox.cif.g09.slc.cpg/sg87_3_cif.got.tgz:5105.got - 2010.04.08 20:16:13.
