data_PCOD8304111
_publ_section_title
;
Structure prediction by ZEFSAII (Michael W. Deem and Ramdas Pophale) SiO2 
 PCOD8304111
Probable space group: I 4/M
;
_chemical_formula_sum "Si O2"
_cell_formula_units_Z 112
_cell_length_a 13.342578
_cell_length_b 13.342578
_cell_length_c 26.364989
_cell_angle_alpha 90.000000
_cell_angle_beta 90.000000
_cell_angle_gamma 90.000000
_cell_volume 4693.611023
_symmetry_space_group_name_H-M "I 4/M"
_symmetry_group_IT_number 87
_symmetry_cell_setting 'tetragonal'
loop_
_space_group_symop_operation_xyz
x,y,z
-y,x,z
-x,-y,z
y,-x,z
-x,-y,-z
y,-x,-z
x,y,-z
-y,x,-z
1/2+x,1/2+y,1/2+z
1/2-y,1/2+x,1/2+z
1/2-x,1/2-y,1/2+z
1/2+y,1/2-x,1/2+z
1/2-x,1/2-y,1/2-z
1/2+y,1/2-x,1/2-z
1/2+x,1/2+y,1/2-z
1/2-y,1/2+x,1/2-z
loop_
_atom_site_type_symbol
_atom_site_label
_atom_site_fract_x
_atom_site_fract_y
_atom_site_fract_z
Si Si1 0.171569 0.950663 0.797762
Si Si2 0.355630 0.015480 0.266238
Si Si3 0.854791 0.570722 0.942450
Si Si4 0.110231 0.108256 0.303787
Si Si5 0.326731 0.804029 0.154687
Si Si6 0.853122 0.945972 0.102462
Si Si7 0.356823 0.080573 0.057088
O O1 0.247204 0.992213 0.754970
O O2 0.094345 0.894633 0.758656
O O3 0.227801 0.871416 0.836250
O O4 0.132544 0.042013 0.835456
O O5 0.417706 0.913676 0.276380
O O6 0.355057 0.078526 0.317889
O O7 0.792276 0.642022 0.904382
O O8 0.849090 0.451625 0.927722
O O9 0.967867 0.607230 0.938149
O O10 0.814699 0.585695 0.000000
O O11 0.192671 0.189429 0.321611
O O12 0.001597 0.139548 0.325705
O O13 0.743214 0.902061 0.090821
O O14 0.940610 0.872568 0.080980
O O15 0.323603 0.105049 0.000000
#
# Coordination Sequence:
#
# PCOD8304111 Si02
#       7
#    16  16  16  16  16  16  16
#     4  11  21  39  59  86 125 164 212 260 312 393
#     4   9  20  33  53  87 119 150 190 250 321 375
#     4   9  19  38  67  96 125 159 210 283 348 399
#     4  11  23  41  58  80 123 171 212 255 319 400
#     4  11  21  37  63  92 119 162 216 269 330 392
#     4  11  24  39  58  89 129 181 223 259 321 396
#     4   9  19  39  64  92 124 167 215 269 339 396
#
# _framework density 23.862226
#
# number of rings (size 3 to 8) (size 9 to 14) (size 15 to 20)
#    0.000    1.857    2.857    2.143    2.000    2.857 
#    2.571    0.714    0.000    0.857    0.000    1.000 
#    0.000    0.000    0.000    0.000    0.000    0.000 
#
# Total GULP energy -693941.997464 kJ/mol
# GULP energy per Si atom -12391.821383 kJ/mol
# Density = 2.380791 g / cm^3
# Si number density = 23.862226 Si / 1000 Ang^3
#
#
#
# Elastic Constant Matrix: (Units=GPa)
#
#
# Indices 1 2 3 4 5 6 
#
# 1 92.1167 5.8248 16.7452 0.0000 0.0000 -1.0813
# 2 5.8248 92.1167 16.7452 0.0000 0.0000 1.0813
# 3 16.7452 16.7452 87.5655 0.0000 0.0000 0.0000
# 4 0.0000 0.0000 0.0000 31.4876 0.0000 0.0000
# 5 0.0000 0.0000 0.0000 0.0000 31.4876 0.0000
# 6 -1.0813 1.0813 0.0000 0.0000 0.0000 21.8694
#
#
#
# Elastic Compliance Matrix: (Units=1/GPa)
#
#
# Indices 1 2 3 4 5 6 
#
# 1 0.011264 -0.000339 -0.002089 0.000000 0.000000 0.000574
# 2 -0.000339 0.011264 -0.002089 0.000000 0.000000 -0.000574
# 3 -0.002089 -0.002089 0.012219 0.000000 0.000000 0.000000
# 4 0.000000 0.000000 0.000000 0.031759 0.000000 0.000000
# 5 0.000000 0.000000 0.000000 0.000000 0.031759 0.000000
# 6 0.000574 -0.000574 0.000000 0.000000 0.000000 0.045783
#
#
# Mechanical properties :
#
#
# Convention : Reuss Voigt Hill
#
# Bulk Modulus (GPa) = 38.89283 38.93657 38.91470
# Shear Modulus (GPa) = 30.93071 32.46784 31.69928
#
# Velocity S-wave (km/s) = 3.60421 3.69268 3.64872
# Velocity P-wave (km/s) = 5.80127 5.87655 5.83903
#
# Compressibility (1/GPa) = 0.02571168
#
# Stress axis : x y z
#
# Youngs Moduli (GPa) = 88.78050 88.78050 81.83958
#
# Poissons Ratio (x) = 0.03012 0.17097
# Poissons Ratio (y) = 0.03012 0.17097
# Poissons Ratio (z) = 0.18547 0.18547
#
# Static dielectric constant tensor:
#      x y z
#    x 4.368570 0.000000 0.000000 
#    y 0.000000 4.368570 0.000000 
#    z 0.000000 0.000000 4.123640 
# 
# 
# High freq. dielectric constant tensor:
#      x y z
#    x 1.952560 0.000000 0.000000 
#    y 0.000000 1.952560 0.000000 
#    z 0.000000 0.000000 1.918100 
# 
# From -- ./inp_files/6277.got.cif
#   From: 2010.03.12/outbox.cif.g09.slc.cpg/sg87_4_cif.got.tgz:6277.got - 2010.04.08 20:16:13.
