data_PCOD8304034
_publ_section_title
;
Structure prediction by ZEFSAII (Michael W. Deem and Ramdas Pophale) SiO2 
 PCOD8304034
Probable space group: I 4/M
;
_chemical_formula_sum "Si O2"
_cell_formula_units_Z 72
_cell_length_a 11.138809
_cell_length_b 11.138809
_cell_length_c 33.815321
_cell_angle_alpha 90.000000
_cell_angle_beta 90.000000
_cell_angle_gamma 90.000000
_cell_volume 4195.570552
_symmetry_space_group_name_H-M "I 4/M"
_symmetry_group_IT_number 87
_symmetry_cell_setting 'tetragonal'
loop_
_space_group_symop_operation_xyz
x,y,z
-y,x,z
-x,-y,z
y,-x,z
-x,-y,-z
y,-x,-z
x,y,-z
-y,x,-z
1/2+x,1/2+y,1/2+z
1/2-y,1/2+x,1/2+z
1/2-x,1/2-y,1/2+z
1/2+y,1/2-x,1/2+z
1/2-x,1/2-y,1/2-z
1/2+y,1/2-x,1/2-z
1/2+x,1/2+y,1/2-z
1/2-y,1/2+x,1/2-z
loop_
_atom_site_type_symbol
_atom_site_label
_atom_site_fract_x
_atom_site_fract_y
_atom_site_fract_z
Si Si1 0.181009 0.531719 0.737364
Si Si2 0.968871 0.197287 0.914394
Si Si3 0.681095 0.433228 0.809826
Si Si4 0.372921 0.065125 0.156892
Si Si5 0.469320 0.694600 0.500000
O O1 0.078645 0.633249 0.735732
O O2 0.295620 0.579333 0.762079
O O3 0.207797 0.491117 0.692547
O O4 0.953047 0.302581 0.883327
O O5 0.958417 0.263213 0.957817
O O6 0.098122 0.134864 0.909117
O O7 0.651534 0.570474 0.820918
O O8 0.794102 0.390591 0.835363
O O9 0.500000 0.000000 0.154207
O O10 0.366060 0.597445 0.500000
#
# Coordination Sequence:
#
# PCOD8304034 Si02
#       5
#    16  16  16  16   8
#     4   9  16  33  48  66  93 129 170 209 261 294
#     4   9  19  33  55  83 107 134 168 210 264 316
#     4  10  22  36  51  71  98 141 183 212 254 311
#     4  11  21  33  52  77 108 134 172 218 264 298
#     4   7  12  30  53  76 108 135 158 202 264 319
#
# _framework density 17.160957
#
# number of rings (size 3 to 8) (size 9 to 14) (size 15 to 20)
#    0.000    2.556    4.444    1.333    3.111    5.333 
#    0.000    2.778    0.000    0.000    0.000    0.000 
#    0.000    1.778    0.000    0.000    0.000    0.000 
#
# Total GULP energy -445998.884124 kJ/mol
# GULP energy per Si atom -12388.857892 kJ/mol
# Density = 1.712190 g / cm^3
# Si number density = 17.160957 Si / 1000 Ang^3
#
#
#
# Elastic Constant Matrix: (Units=GPa)
#
#
# Indices 1 2 3 4 5 6 
#
# 1 42.0775 -1.1569 33.0994 0.0000 0.0000 -0.1108
# 2 -1.1569 42.0775 33.0994 0.0000 0.0000 0.1108
# 3 33.0994 33.0994 151.3297 0.0000 0.0000 0.0000
# 4 0.0000 0.0000 0.0000 23.1548 0.0000 0.0000
# 5 0.0000 0.0000 0.0000 0.0000 23.1547 0.0000
# 6 -0.1108 0.1108 0.0000 0.0000 0.0000 10.1238
#
#
#
# Elastic Compliance Matrix: (Units=1/GPa)
#
#
# Indices 1 2 3 4 5 6 
#
# 1 0.030475 0.007344 -0.008272 0.000000 0.000000 0.000253
# 2 0.007344 0.030475 -0.008272 0.000000 0.000000 -0.000253
# 3 -0.008272 -0.008272 0.010227 0.000000 0.000000 0.000000
# 4 0.000000 0.000000 0.000000 0.043188 0.000000 0.000000
# 5 0.000000 0.000000 0.000000 0.000000 0.043188 0.000000
# 6 0.000253 -0.000253 0.000000 0.000000 0.000000 0.098783
#
#
# Mechanical properties :
#
#
# Convention : Reuss Voigt Hill
#
# Bulk Modulus (GPa) = 18.94741 40.61872 29.78307
# Shear Modulus (GPa) = 17.10408 22.64950 19.87679
#
# Velocity S-wave (km/s) = 3.16046 3.63688 3.40701
# Velocity P-wave (km/s) = 4.93791 6.43091 5.73322
#
# Compressibility (1/GPa) = 0.05277765
#
# Stress axis : x y z
#
# Youngs Moduli (GPa) = 32.81345 32.81345 97.78356
#
# Poissons Ratio (x) = -0.24099 0.80887
# Poissons Ratio (y) = -0.24099 0.80887
# Poissons Ratio (z) = 0.27143 0.27143
#
# Static dielectric constant tensor:
#      x y z
#    x 3.056470 0.000000 0.000000 
#    y 0.000000 3.056470 0.000000 
#    z 0.000000 0.000000 3.414350 
# 
# 
# High freq. dielectric constant tensor:
#      x y z
#    x 1.646660 0.000000 0.000000 
#    y 0.000000 1.646660 0.000000 
#    z 0.000000 0.000000 1.653610 
# 
# From -- ./inp_files/6171.got.cif
#   From: 2010.03.12/outbox.cif.g09.slc.cpg/sg87_4_cif.got.tgz:6171.got - 2010.04.08 20:16:13.
