data_PCOD8304263
_publ_section_title
;
Structure prediction by ZEFSAII (Michael W. Deem and Ramdas Pophale) SiO2 
 PCOD8304263
Probable space group: I 41/A
;
_chemical_formula_sum "Si O2"
_cell_formula_units_Z 112
_cell_length_a 15.987843
_cell_length_b 15.987843
_cell_length_c 19.563842
_cell_angle_alpha 90.000000
_cell_angle_beta 90.000000
_cell_angle_gamma 90.000000
_cell_volume 5000.735639
_symmetry_space_group_name_H-M "I 41/A"
_symmetry_group_IT_number 88
_space_group.IT_coordinate_system_code '2'
_symmetry_cell_setting 'tetragonal'
loop_
_space_group_symop_operation_xyz
x,y,z
3/4-y,1/4+x,1/4+z
-x,1/2-y,z
1/4+y,1/4-x,1/4+z
-x,-y,-z
1/4+y,3/4-x,3/4-z
x,1/2+y,-z
3/4-y,3/4+x,3/4-z
1/2+x,1/2+y,1/2+z
1/4-y,3/4+x,3/4+z
1/2-x,-y,1/2+z
3/4+y,3/4-x,3/4+z
1/2-x,1/2-y,1/2-z
3/4+y,1/4-x,1/4-z
1/2+x,y,1/2-z
1/4-y,1/4+x,1/4-z
loop_
_atom_site_type_symbol
_atom_site_label
_atom_site_fract_x
_atom_site_fract_y
_atom_site_fract_z
Si Si1 0.299254 0.019736 0.889007
Si Si2 0.368227 0.149669 0.320215
Si Si3 0.936647 0.637964 0.351183
Si Si4 0.458376 0.872620 0.722961
Si Si5 0.814994 0.835801 0.672015
Si Si6 0.506391 0.434729 0.718492
Si Si7 0.173377 0.032878 0.784305
O O1 0.389921 0.060979 0.886638
O O2 0.235673 0.072880 0.840555
O O3 0.303777 0.925991 0.862288
O O4 0.264943 0.022261 0.966294
O O5 0.449687 0.174292 0.273210
O O6 0.389919 0.173127 0.397463
O O7 0.277768 0.187664 0.296112
O O8 0.364415 0.050110 0.317975
O O9 0.887538 0.723502 0.362883
O O10 0.942615 0.625376 0.269356
O O11 0.389755 0.831550 0.773406
O O12 0.468844 0.970638 0.739247
O O13 0.837453 0.773764 0.610341
O O14 0.408471 0.411970 0.731501
#
# Coordination Sequence:
#
# PCOD8304263 Si02
#       7
#    16  16  16  16  16  16  16
#     4  11  21  39  65  96 122 174 220 272 331 396
#     4   9  22  37  66  96 132 173 222 267 338 406
#     4  11  22  39  67  85 132 178 213 268 340 401
#     4  10  20  42  64  97 133 176 218 280 332 407
#     4  10  21  37  74  95 131 173 220 279 337 394
#     4  10  20  42  62  97 130 167 220 275 332 395
#     4  10  22  38  65  95 130 164 226 278 321 405
#
# _framework density 22.396705000000001
#
# number of rings (size 3 to 8) (size 9 to 14) (size 15 to 20)
#    0.000    1.857    2.857    0.857   10.000    0.286 
#    2.571    7.857    0.000    0.000    0.000    0.000 
#    0.000    0.000    0.000    0.000    0.000    0.000 
#
# Total GULP energy -694043.003358 kJ/mol
# GULP energy per Si atom -12393.625060 kJ/mol
# Density = 2.234573 g / cm^3
# Si number density = 22.396705 Si / 1000 Ang^3
#
#
#
# Elastic Constant Matrix: (Units=GPa)
#
#
# Indices 1 2 3 4 5 6 
#
# 1 81.4313 30.5894 55.4196 0.0000 0.0000 6.2271
# 2 30.5894 81.4313 55.4196 0.0000 0.0000 -6.2271
# 3 55.4196 55.4196 110.1218 0.0000 0.0000 0.0000
# 4 0.0000 0.0000 0.0000 31.9720 0.0000 0.0000
# 5 0.0000 0.0000 0.0000 0.0000 31.9721 0.0000
# 6 6.2271 -6.2271 0.0000 0.0000 0.0000 23.6801
#
#
#
# Elastic Compliance Matrix: (Units=1/GPa)
#
#
# Indices 1 2 3 4 5 6 
#
# 1 0.019402 -0.001621 -0.008948 0.000000 0.000000 -0.005528
# 2 -0.001621 0.019402 -0.008948 0.000000 0.000000 0.005528
# 3 -0.008948 -0.008948 0.018087 0.000000 0.000000 0.000000
# 4 0.000000 0.000000 0.000000 0.031277 0.000000 0.000000
# 5 0.000000 0.000000 0.000000 0.000000 0.031277 0.000000
# 6 -0.005528 0.005528 0.000000 0.000000 0.000000 0.045137
#
#
# Mechanical properties :
#
#
# Convention : Reuss Voigt Hill
#
# Bulk Modulus (GPa) = 56.00405 61.76017 58.88211
# Shear Modulus (GPa) = 23.85830 26.29523 25.07676
#
# Velocity S-wave (km/s) = 3.26737 3.43018 3.34977
# Velocity P-wave (km/s) = 6.26850 6.58207 6.42720
#
# Compressibility (1/GPa) = 0.01785585
#
# Stress axis : x y z
#
# Youngs Moduli (GPa) = 51.54115 51.54115 55.28683
#
# Poissons Ratio (x) = 0.08355 0.49473
# Poissons Ratio (y) = 0.08355 0.49473
# Poissons Ratio (z) = 0.46121 0.46121
#
# Static dielectric constant tensor:
#      x y z
#    x 4.264860 0.000000 0.000000 
#    y 0.000000 4.264860 0.000000 
#    z 0.000000 0.000000 3.972680 
# 
# 
# High freq. dielectric constant tensor:
#      x y z
#    x 1.880570 0.000000 0.000000 
#    y 0.000000 1.880570 0.000000 
#    z 0.000000 0.000000 1.874450 
# 
# From -- ./inp_files/4840.got.cif
#   From: 2010.03.12/outbox.cif.g09.slc.cpg/sg88_3_cif.got.tgz:4840.got - 2010.04.08 20:20:55.
