data_PCOD8304036
_publ_section_title
;
Structure prediction by ZEFSAII (Michael W. Deem and Ramdas Pophale) SiO2 
 PCOD8304036
Probable space group: I 4/M
;
_chemical_formula_sum "Si O2"
_cell_formula_units_Z 96
_cell_length_a 23.756373
_cell_length_b 23.756373
_cell_length_c 8.905938
_cell_angle_alpha 90.000000
_cell_angle_beta 90.000000
_cell_angle_gamma 90.000000
_cell_volume 5026.201998
_symmetry_space_group_name_H-M "I 4/M"
_symmetry_group_IT_number 87
_symmetry_cell_setting 'tetragonal'
loop_
_space_group_symop_operation_xyz
x,y,z
-y,x,z
-x,-y,z
y,-x,z
-x,-y,-z
y,-x,-z
x,y,-z
-y,x,-z
1/2+x,1/2+y,1/2+z
1/2-y,1/2+x,1/2+z
1/2-x,1/2-y,1/2+z
1/2+y,1/2-x,1/2+z
1/2-x,1/2-y,1/2-z
1/2+y,1/2-x,1/2-z
1/2+x,1/2+y,1/2-z
1/2-y,1/2+x,1/2-z
loop_
_atom_site_type_symbol
_atom_site_label
_atom_site_fract_x
_atom_site_fract_y
_atom_site_fract_z
Si Si1 0.795914 0.958506 0.176029
Si Si2 0.736032 0.663793 0.677158
Si Si3 0.518941 0.918664 0.821452
Si Si4 0.456592 0.197438 0.674487
Si Si5 0.227743 0.669213 0.325528
Si Si6 0.509726 0.410692 0.823131
O O1 0.784865 0.896044 0.241388
O O2 0.850583 0.985813 0.247542
O O3 0.742697 0.996536 0.217541
O O4 0.806267 0.956580 0.000000
O O5 0.741995 0.660088 0.500000
O O6 0.691354 0.711221 0.728791
O O7 0.797631 0.678042 0.741321
O O8 0.458831 0.933391 0.748659
O O9 0.534362 0.855285 0.781794
O O10 0.516431 0.926947 0.000000
O O11 0.460578 0.179389 0.500000
O O12 0.396340 0.224408 0.712409
O O13 0.219713 0.681459 0.500000
O O14 0.561142 0.450873 0.772276
O O15 0.510833 0.402840 0.000000
#
# Coordination Sequence:
#
# PCOD8304036 Si02
#       6
#    16  16  16  16  16  16
#     4  10  22  36  58  87 117 148 187 239 288 339
#     4   9  19  36  56  82 112 146 188 232 283 336
#     4  11  23  41  64  88 116 152 192 237 287 344
#     4  10  22  38  56  86 121 152 188 237 288 336
#     4   9  19  36  57  78 111 151 189 232 279 334
#     4   9  20  39  59  81 114 153 192 238 289 342
#
# _framework density 19.099907999999999
#
# number of rings (size 3 to 8) (size 9 to 14) (size 15 to 20)
#    0.000    2.333    0.000    2.500    4.667    2.667 
#    0.000    0.833    0.000    0.000    0.000    0.000 
#    0.000    0.000    0.000    0.000    0.000    0.000 
#
# Total GULP energy -595314.803858 kJ/mol
# GULP energy per Si atom -12402.391747 kJ/mol
# Density = 1.905644 g / cm^3
# Si number density = 19.099908 Si / 1000 Ang^3
#
#
#
# Elastic Constant Matrix: (Units=GPa)
#
#
# Indices 1 2 3 4 5 6 
#
# 1 110.4384 38.0687 39.7826 0.0000 0.0000 3.4800
# 2 38.0687 110.4384 39.7826 0.0000 0.0000 -3.4800
# 3 39.7826 39.7826 60.6770 0.0000 0.0000 0.0000
# 4 0.0000 0.0000 0.0000 30.2001 0.0000 0.0000
# 5 0.0000 0.0000 0.0000 0.0000 30.2001 0.0000
# 6 3.4800 -3.4800 0.0000 0.0000 0.0000 23.2307
#
#
#
# Elastic Compliance Matrix: (Units=1/GPa)
#
#
# Indices 1 2 3 4 5 6 
#
# 1 0.012200 -0.001820 -0.006805 0.000000 0.000000 -0.002100
# 2 -0.001820 0.012200 -0.006805 0.000000 0.000000 0.002100
# 3 -0.006805 -0.006805 0.025405 0.000000 0.000000 0.000000
# 4 0.000000 0.000000 0.000000 0.033113 0.000000 0.000000
# 5 0.000000 0.000000 0.000000 0.000000 0.033113 0.000000
# 6 -0.002100 0.002100 0.000000 0.000000 0.000000 0.043676
#
#
# Mechanical properties :
#
#
# Convention : Reuss Voigt Hill
#
# Bulk Modulus (GPa) = 52.79164 57.42463 55.10814
# Shear Modulus (GPa) = 25.39600 27.65416 26.52508
#
# Velocity S-wave (km/s) = 3.65038 3.80922 3.73064
# Velocity P-wave (km/s) = 6.74290 7.03402 6.89000
#
# Compressibility (1/GPa) = 0.01894239
#
# Stress axis : x y z
#
# Youngs Moduli (GPa) = 81.96802 81.96802 39.36280
#
# Poissons Ratio (x) = 0.14918 0.26788
# Poissons Ratio (y) = 0.14918 0.26788
# Poissons Ratio (z) = 0.55783 0.55783
#
# Static dielectric constant tensor:
#      x y z
#    x 3.636420 0.000000 0.000000 
#    y 0.000000 3.636420 0.000000 
#    z 0.000000 0.000000 3.348360 
# 
# 
# High freq. dielectric constant tensor:
#      x y z
#    x 1.749730 0.000000 0.000000 
#    y 0.000000 1.749730 0.000000 
#    z 0.000000 0.000000 1.732150 
# 
# From -- ./inp_files/1376.got.cif
#   From: 2010.03.12/outbox.cif.g09.slc.cpg/sg87_1_cif.got.tgz:1376.got - 2010.04.08 20:16:13.
