data_PCOD8304415
_publ_section_title
;
Structure prediction by ZEFSAII (Michael W. Deem and Ramdas Pophale) SiO2 
 PCOD8304415
Probable space group: I 41/A
;
_chemical_formula_sum "Si O2"
_cell_formula_units_Z 64
_cell_length_a 12.471403
_cell_length_b 12.471403
_cell_length_c 20.023005
_cell_angle_alpha 90.000000
_cell_angle_beta 90.000000
_cell_angle_gamma 90.000000
_cell_volume 3114.295959
_symmetry_space_group_name_H-M "I 41/A"
_symmetry_group_IT_number 88
_space_group.IT_coordinate_system_code '2'
_symmetry_cell_setting 'tetragonal'
loop_
_space_group_symop_operation_xyz
x,y,z
3/4-y,1/4+x,1/4+z
-x,1/2-y,z
1/4+y,1/4-x,1/4+z
-x,-y,-z
1/4+y,3/4-x,3/4-z
x,1/2+y,-z
3/4-y,3/4+x,3/4-z
1/2+x,1/2+y,1/2+z
1/4-y,3/4+x,3/4+z
1/2-x,-y,1/2+z
3/4+y,3/4-x,3/4+z
1/2-x,1/2-y,1/2-z
3/4+y,1/4-x,1/4-z
1/2+x,y,1/2-z
1/4-y,1/4+x,1/4-z
loop_
_atom_site_type_symbol
_atom_site_label
_atom_site_fract_x
_atom_site_fract_y
_atom_site_fract_z
Si Si1 0.012768 0.120286 0.231543
Si Si2 0.004145 0.129903 0.380935
Si Si3 0.192628 0.974083 0.178783
Si Si4 0.279638 0.578601 0.944997
O O1 0.007227 0.074586 0.307803
O O2 0.000000 0.250000 0.222278
O O3 0.923933 0.056442 0.189167
O O4 0.123592 0.077892 0.200124
O O5 0.900303 0.105886 0.424538
O O6 0.000000 0.250000 0.357133
O O7 0.108650 0.114884 0.427589
O O8 0.290737 0.966976 0.229276
O O9 0.238480 0.986961 0.104575
#
# Coordination Sequence:
#
# PCOD8304415 Si02
#       4
#    16  16  16  16
#     4  11  26  42  65 105 135 173 227 278 348 405
#     4  11  23  45  70  93 136 183 222 281 342 405
#     4  12  25  43  69  98 137 179 229 282 336 405
#     4  12  25  43  69  98 137 179 229 282 336 405
#
# _framework density 20.55039
#
# number of rings (size 3 to 8) (size 9 to 14) (size 15 to 20)
#    0.000    0.500    7.500    0.750    3.500    1.000 
#    0.000    0.000    0.000    0.000    0.000    0.000 
#    0.000    0.000    0.000    0.000    0.000    0.000 
#
# Total GULP energy -396557.140893 kJ/mol
# GULP energy per Si atom -12392.410653 kJ/mol
# Density = 2.050362 g / cm^3
# Si number density = 20.550390 Si / 1000 Ang^3
#
#
#
# Elastic Constant Matrix: (Units=GPa)
#
#
# Indices 1 2 3 4 5 6 
#
# 1 114.9352 35.3124 20.1623 0.0000 0.0000 -1.2035
# 2 35.3124 114.9352 20.1623 0.0000 0.0000 1.2035
# 3 20.1623 20.1623 76.4627 0.0000 0.0000 0.0000
# 4 0.0000 0.0000 0.0000 29.3438 0.0000 0.0000
# 5 0.0000 0.0000 0.0000 0.0000 29.3438 0.0000
# 6 -1.2035 1.2035 0.0000 0.0000 0.0000 28.1566
#
#
#
# Elastic Compliance Matrix: (Units=1/GPa)
#
#
# Indices 1 2 3 4 5 6 
#
# 1 0.009869 -0.002706 -0.001889 0.000000 0.000000 0.000538
# 2 -0.002706 0.009869 -0.001889 0.000000 0.000000 -0.000538
# 3 -0.001889 -0.001889 0.014074 0.000000 0.000000 0.000000
# 4 0.000000 0.000000 0.000000 0.034079 0.000000 0.000000
# 5 0.000000 0.000000 0.000000 0.000000 0.034079 0.000000
# 6 0.000538 -0.000538 0.000000 0.000000 0.000000 0.035562
#
#
# Mechanical properties :
#
#
# Convention : Reuss Voigt Hill
#
# Bulk Modulus (GPa) = 47.97372 50.84521 49.40947
# Shear Modulus (GPa) = 31.75665 32.74858 32.25262
#
# Velocity S-wave (km/s) = 3.93530 3.99629 3.96591
# Velocity P-wave (km/s) = 6.63656 6.78890 6.71316
#
# Compressibility (1/GPa) = 0.02084474
#
# Stress axis : x y z
#
# Youngs Moduli (GPa) = 101.32721 101.32721 71.05138
#
# Poissons Ratio (x) = 0.27424 0.13419
# Poissons Ratio (y) = 0.27424 0.13419
# Poissons Ratio (z) = 0.19138 0.19138
#
# Static dielectric constant tensor:
#      x y z
#    x 3.546420 0.000000 0.000000 
#    y 0.000000 3.546420 0.000000 
#    z 0.000000 0.000000 3.718920 
# 
# 
# High freq. dielectric constant tensor:
#      x y z
#    x 1.802700 0.000000 0.000000 
#    y 0.000000 1.802700 0.000000 
#    z 0.000000 0.000000 1.818080 
# 
# From -- ./inp_files/4386.got.cif
#   From: 2010.03.12/outbox.cif.g09.slc.cpg/sg88_3_cif.got.tgz:4386.got - 2010.04.08 20:20:55.
