data_PCOD8304820
_publ_section_title
;
Structure prediction by ZEFSAII (Michael W. Deem and Ramdas Pophale) SiO2 
 PCOD8304820
Probable space group: P 41 2 2
;
_chemical_formula_sum "Si O2"
_cell_formula_units_Z 60
_cell_length_a 17.623099
_cell_length_b 17.623099
_cell_length_c 9.801763
_cell_angle_alpha 90.000000
_cell_angle_beta 90.000000
_cell_angle_gamma 90.000000
_cell_volume 3044.169001
_symmetry_space_group_name_H-M "P 41 2 2"
_symmetry_group_IT_number 91
_symmetry_cell_setting 'tetragonal'
loop_
_space_group_symop_operation_xyz
x,y,z
-y,x,1/4+z
-x,-y,1/2+z
y,-x,3/4+z
x,-y,1/2-z
-x,y,-z
y,x,3/4-z
-y,-x,1/4-z
loop_
_atom_site_type_symbol
_atom_site_label
_atom_site_fract_x
_atom_site_fract_y
_atom_site_fract_z
Si Si1 0.945242 0.822284 0.389908
Si Si2 0.170098 0.048632 0.381379
Si Si3 0.359636 0.325149 0.523133
Si Si4 0.412253 0.842795 0.976329
Si Si5 0.217785 0.698831 0.808183
Si Si6 0.089997 0.681736 0.033857
Si Si7 0.432659 0.500000 0.250000
Si Si8 0.156256 0.695810 0.517046
O O1 0.869717 0.869717 0.375000
O O2 0.920698 0.738623 0.438428
O O3 0.000000 0.861476 0.500000
O O4 0.991362 0.819055 0.252940
O O5 0.090693 0.090693 0.375000
O O6 0.241622 0.104890 0.372137
O O7 0.175718 0.000000 0.250000
O O8 0.322444 0.322444 0.375000
O O9 0.400801 0.246024 0.543866
O O10 0.291807 0.344065 0.630330
O O11 0.424887 0.386565 0.537305
O O12 0.372061 0.871908 0.834650
O O13 0.500000 0.862129 0.000000
O O14 0.381404 0.879468 0.114534
O O15 0.199139 0.666957 0.655715
O O16 0.242587 0.787995 0.806798
O O17 0.141724 0.686009 0.897671
O O18 0.000000 0.668081 0.000000
O O19 0.487339 0.487339 0.375000
#
# Coordination Sequence:
#
# PCOD8304820 Si02
#       8
#     8   8   8   8   8   8   4   8
#     4  12  24  39  58  85 130 174 219 271 338 396
#     4  11  25  38  59  89 121 167 220 269 321 393
#     4  10  19  37  67  97 129 171 217 261 321 393
#     4  11  23  42  66  99 122 167 216 269 337 401
#     4  10  20  38  64  94 123 166 221 278 321 379
#     4  11  24  40  65  91 125 162 219 277 320 390
#     4  10  22  42  62 102 146 178 204 256 322 404
#     4  10  22  39  64  91 127 164 216 277 329 397
#
# _framework density 19.709810999999998
#
# number of rings (size 3 to 8) (size 9 to 14) (size 15 to 20)
#    0.000    1.333    3.333    3.200    5.600    1.600 
#    4.800    4.000    0.000    0.000    0.000    0.000 
#    0.000    0.000    0.000    0.000    0.000    0.000 
#
# Total GULP energy -743345.003136 kJ/mol
# GULP energy per Si atom -12389.083386 kJ/mol
# Density = 1.966495 g / cm^3
# Si number density = 19.709811 Si / 1000 Ang^3
#
#
#
# Elastic Constant Matrix: (Units=GPa)
#
#
# Indices 1 2 3 4 5 6 
#
# 1 100.2035 35.1144 59.3865 0.0000 0.0000 0.0000
# 2 35.1144 100.2035 59.3865 0.0000 0.0000 0.0000
# 3 59.3865 59.3865 151.9081 0.0000 0.0000 0.0000
# 4 0.0000 0.0000 0.0000 43.4424 0.0000 0.0000
# 5 0.0000 0.0000 0.0000 0.0000 43.4424 0.0000
# 6 0.0000 0.0000 0.0000 0.0000 0.0000 4.0217
#
#
#
# Elastic Compliance Matrix: (Units=1/GPa)
#
#
# Indices 1 2 3 4 5 6 
#
# 1 0.013307 -0.002057 -0.004398 0.000000 0.000000 0.000000
# 2 -0.002057 0.013307 -0.004398 0.000000 0.000000 0.000000
# 3 -0.004398 -0.004398 0.010022 0.000000 0.000000 0.000000
# 4 0.000000 0.000000 0.000000 0.023019 0.000000 0.000000
# 5 0.000000 0.000000 0.000000 0.000000 0.023019 0.000000
# 6 0.000000 0.000000 0.000000 0.000000 0.000000 0.248652
#
#
# Mechanical properties :
#
#
# Convention : Reuss Voigt Hill
#
# Bulk Modulus (GPa) = 66.98003 73.34334 70.16169
# Shear Modulus (GPa) = 13.96615 31.40979 22.68797
#
# Velocity S-wave (km/s) = 2.66482 3.99634 3.39647
# Velocity P-wave (km/s) = 6.59737 7.65419 7.14534
#
# Compressibility (1/GPa) = 0.01492982
#
# Stress axis : x y z
#
# Youngs Moduli (GPa) = 75.14834 75.14834 99.78260
#
# Poissons Ratio (x) = 0.15455 0.43887
# Poissons Ratio (y) = 0.15455 0.43887
# Poissons Ratio (z) = 0.33052 0.33052
#
# Static dielectric constant tensor:
#      x y z
#    x 3.448340 0.000000 0.000000 
#    y 0.000000 3.448340 0.000000 
#    z 0.000000 0.000000 3.651590 
# 
# 
# High freq. dielectric constant tensor:
#      x y z
#    x 1.758350 0.000000 0.000000 
#    y 0.000000 1.758350 0.000000 
#    z 0.000000 0.000000 1.786610 
# 
# From -- ./inp_files/19719.got.cif
#   From: 2010.03.12/outbox.cif.g09.slc.cpg/sg91_10_cif.got.tgz:19719.got - 2010.04.08 20:27:58.
