data_PCOD8304093
_publ_section_title
;
Structure prediction by ZEFSAII (Michael W. Deem and Ramdas Pophale) SiO2 
 PCOD8304093
Probable space group: I 4/M
;
_chemical_formula_sum "Si O2"
_cell_formula_units_Z 88
_cell_length_a 14.456782
_cell_length_b 14.456782
_cell_length_c 20.564996
_cell_angle_alpha 90.000000
_cell_angle_beta 90.000000
_cell_angle_gamma 90.000000
_cell_volume 4298.054258
_symmetry_space_group_name_H-M "I 4/M"
_symmetry_group_IT_number 87
_symmetry_cell_setting 'tetragonal'
loop_
_space_group_symop_operation_xyz
x,y,z
-y,x,z
-x,-y,z
y,-x,z
-x,-y,-z
y,-x,-z
x,y,-z
-y,x,-z
1/2+x,1/2+y,1/2+z
1/2-y,1/2+x,1/2+z
1/2-x,1/2-y,1/2+z
1/2+y,1/2-x,1/2+z
1/2-x,1/2-y,1/2-z
1/2+y,1/2-x,1/2-z
1/2+x,1/2+y,1/2-z
1/2-y,1/2+x,1/2-z
loop_
_atom_site_type_symbol
_atom_site_label
_atom_site_fract_x
_atom_site_fract_y
_atom_site_fract_z
Si Si1 0.421854 0.062206 0.929336
Si Si2 0.217899 0.120104 0.425622
Si Si3 0.912177 0.708724 0.098811
Si Si4 0.039378 0.351197 0.241559
Si Si5 0.571272 0.747679 0.866582
Si Si6 0.136871 0.931195 0.000000
O O1 0.396046 0.153093 0.891549
O O2 0.500000 0.000000 0.891252
O O3 0.330964 0.001184 0.938351
O O4 0.462174 0.090156 0.000000
O O5 0.185669 0.136451 0.500000
O O6 0.324438 0.145563 0.417096
O O7 0.157087 0.179292 0.375394
O O8 0.205272 0.013412 0.406935
O O9 0.932945 0.701464 0.175380
O O10 0.899618 0.810096 0.066647
O O11 0.110135 0.434327 0.259646
O O12 0.045692 0.265518 0.291741
O O13 0.040886 0.877250 0.000000
#
# Coordination Sequence:
#
# PCOD8304093 Si02
#       6
#    16  16  16  16  16   8
#     4  11  19  34  63  96 125 162 221 292 344 377
#     4  12  25  44  67 104 138 182 238 286 346 420
#     4  12  23  40  71 101 134 173 232 291 347 414
#     4  11  22  42  69 104 142 173 223 293 362 413
#     4  12  26  43  66  98 143 186 225 287 349 419
#     4  11  28  50  67 100 146 187 234 287 363 430
#
# _framework density 20.47438
#
# number of rings (size 3 to 8) (size 9 to 14) (size 15 to 20)
#    0.000    0.455    7.273    1.636    2.545    1.091 
#    3.273    0.909    0.000    0.000    0.000    0.000 
#    0.000    0.000    0.000    0.000    0.000    0.000 
#
# Total GULP energy -545497.137376 kJ/mol
# GULP energy per Si atom -12397.662213 kJ/mol
# Density = 2.042778 g / cm^3
# Si number density = 20.474380 Si / 1000 Ang^3
#
#
#
# Elastic Constant Matrix: (Units=GPa)
#
#
# Indices 1 2 3 4 5 6 
#
# 1 72.3140 28.8773 26.6127 0.0000 0.0000 -1.6992
# 2 28.8773 72.3140 26.6127 0.0000 0.0000 1.6992
# 3 26.6127 26.6127 132.0024 0.0000 0.0000 0.0000
# 4 0.0000 0.0000 0.0000 26.6191 0.0000 0.0000
# 5 0.0000 0.0000 0.0000 0.0000 26.6191 0.0000
# 6 -1.6992 1.6992 0.0000 0.0000 0.0000 33.8953
#
#
#
# Elastic Compliance Matrix: (Units=1/GPa)
#
#
# Indices 1 2 3 4 5 6 
#
# 1 0.017084 -0.006029 -0.002229 0.000000 0.000000 0.001159
# 2 -0.006029 0.017084 -0.002229 0.000000 0.000000 -0.001159
# 3 -0.002229 -0.002229 0.008474 0.000000 0.000000 0.000000
# 4 0.000000 0.000000 0.000000 0.037567 0.000000 0.000000
# 5 0.000000 0.000000 0.000000 0.000000 0.037567 0.000000
# 6 0.001159 -0.001159 0.000000 0.000000 0.000000 0.029619
#
#
# Mechanical properties :
#
#
# Convention : Reuss Voigt Hill
#
# Bulk Modulus (GPa) = 46.14974 48.98177 47.56576
# Shear Modulus (GPa) = 28.47545 30.39523 29.43534
#
# Velocity S-wave (km/s) = 3.73337 3.85717 3.79577
# Velocity P-wave (km/s) = 6.41664 6.61909 6.51865
#
# Compressibility (1/GPa) = 0.02166859
#
# Stress axis : x y z
#
# Youngs Moduli (GPa) = 58.53569 58.53569 118.00446
#
# Poissons Ratio (x) = 0.35292 0.26299
# Poissons Ratio (y) = 0.35292 0.26299
# Poissons Ratio (z) = 0.13046 0.13046
#
# Static dielectric constant tensor:
#      x y z
#    x 3.570750 0.000000 0.000000 
#    y 0.000000 3.570750 0.000000 
#    z 0.000000 0.000000 3.948030 
# 
# 
# High freq. dielectric constant tensor:
#      x y z
#    x 1.789160 0.000000 0.000000 
#    y 0.000000 1.789160 0.000000 
#    z 0.000000 0.000000 1.811600 
# 
# From -- ./inp_files/5202.got.cif
#   From: 2010.03.12/outbox.cif.g09.slc.cpg/sg87_3_cif.got.tgz:5202.got - 2010.04.08 20:16:13.
