data_PCOD8304965
_publ_section_title
;
Structure prediction by ZEFSAII (Michael W. Deem and Ramdas Pophale) SiO2 
 PCOD8304965
Probable space group: P 41 2 2
;
_chemical_formula_sum "Si O2"
_cell_formula_units_Z 32
_cell_length_a 11.082164
_cell_length_b 11.082164
_cell_length_c 14.394351
_cell_angle_alpha 90.000000
_cell_angle_beta 90.000000
_cell_angle_gamma 90.000000
_cell_volume 1767.832990
_symmetry_space_group_name_H-M "P 41 2 2"
_symmetry_group_IT_number 91
_symmetry_cell_setting 'tetragonal'
loop_
_space_group_symop_operation_xyz
x,y,z
-y,x,1/4+z
-x,-y,1/2+z
y,-x,3/4+z
x,-y,1/2-z
-x,y,-z
y,x,3/4-z
-y,-x,1/4-z
loop_
_atom_site_type_symbol
_atom_site_label
_atom_site_fract_x
_atom_site_fract_y
_atom_site_fract_z
Si Si1 0.985169 0.628320 0.729707
Si Si2 0.231263 0.884085 0.816743
Si Si3 0.802048 0.990647 0.857778
Si Si4 0.256656 0.367704 0.788415
O O1 0.927712 0.500000 0.750000
O O2 0.894735 0.692987 0.660540
O O3 0.996356 0.681813 0.832534
O O4 0.117072 0.621633 0.681435
O O5 0.267021 0.752316 0.776588
O O6 0.252919 0.000000 0.750000
O O7 0.093588 0.890937 0.852020
O O8 0.862976 0.862976 0.875000
O O9 0.767842 0.000000 0.750000
O O10 0.297685 0.500000 0.750000
O O11 0.343500 0.343500 0.875000
#
# Coordination Sequence:
#
# PCOD8304965 Si02
#       4
#     8   8   8   8
#     4  10  22  38  56  86 117 152 195 239 297 356
#     4  11  21  35  61  86 117 152 192 243 293 354
#     4  11  21  34  56  85 117 146 182 240 301 349
#     4  10  21  39  60  87 120 157 205 243 293 357
#
# _framework density 18.101258000000001
#
# number of rings (size 3 to 8) (size 9 to 14) (size 15 to 20)
#    0.000    1.500    5.000    0.750    3.500    1.000 
#    4.500    1.250    0.000    0.000    0.000    0.000 
#    0.000    0.000    0.000    0.000    0.000    0.000 
#
# Total GULP energy -396464.284204 kJ/mol
# GULP energy per Si atom -12389.508881 kJ/mol
# Density = 1.806006 g / cm^3
# Si number density = 18.101258 Si / 1000 Ang^3
#
#
#
# Elastic Constant Matrix: (Units=GPa)
#
#
# Indices 1 2 3 4 5 6 
#
# 1 92.3881 32.4991 44.4446 0.0000 0.0000 0.0000
# 2 32.4991 92.3881 44.4446 0.0000 0.0000 0.0000
# 3 44.4446 44.4446 124.3643 0.0000 0.0000 0.0000
# 4 0.0000 0.0000 0.0000 22.9458 0.0000 0.0000
# 5 0.0000 0.0000 0.0000 0.0000 22.9458 0.0000
# 6 0.0000 0.0000 0.0000 0.0000 0.0000 -8.2072
#
#
#
# Elastic Compliance Matrix: (Units=1/GPa)
#
#
# Indices 1 2 3 4 5 6 
#
# 1 0.013718 -0.002979 -0.003838 0.000000 0.000000 0.000000
# 2 -0.002979 0.013718 -0.003838 0.000000 0.000000 0.000000
# 3 -0.003838 -0.003838 0.010784 0.000000 0.000000 0.000000
# 4 0.000000 0.000000 0.000000 0.043581 0.000000 0.000000
# 5 0.000000 0.000000 0.000000 0.000000 0.043581 0.000000
# 6 0.000000 0.000000 0.000000 0.000000 0.000000 -0.121845
#
#
# Mechanical properties :
#
#
# Convention : Reuss Voigt Hill
#
# Bulk Modulus (GPa) = 59.13510 61.32413 60.22961
# Shear Modulus (GPa) = 164.01886 20.05369 92.03627
#
# Velocity S-wave (km/s) = 9.52935 3.33207 7.13832
# Velocity P-wave (km/s) = 12.40234 6.98251 10.06413
#
# Compressibility (1/GPa) = 0.01691043
#
# Stress axis : x y z
#
# Youngs Moduli (GPa) = 72.89602 72.89602 92.73058
#
# Poissons Ratio (x) = 0.21719 0.35588
# Poissons Ratio (y) = 0.21719 0.35588
# Poissons Ratio (z) = 0.27976 0.27976
#
# Static dielectric constant tensor:
#      x y z
#    x 3.303950 0.000000 0.000000 
#    y 0.000000 3.303950 0.000000 
#    z 0.000000 0.000000 3.434420 
# 
# 
# High freq. dielectric constant tensor:
#      x y z
#    x 1.690140 0.000000 0.000000 
#    y 0.000000 1.690140 0.000000 
#    z 0.000000 0.000000 1.708170 
# 
# From -- ./inp_files/10406.got.cif
#   From: 2010.03.12/outbox.cif.g09.slc.cpg/sg91_6_cif.got.tgz:10406.got - 2010.04.08 20:27:58.
