data_PCOD8304969
_publ_section_title
;
Structure prediction by ZEFSAII (Michael W. Deem and Ramdas Pophale) SiO2 
 PCOD8304969
Probable space group: P 41 2 2
;
_chemical_formula_sum "Si O2"
_cell_formula_units_Z 48
_cell_length_a 8.529858
_cell_length_b 8.529858
_cell_length_c 30.764463
_cell_angle_alpha 90.000000
_cell_angle_beta 90.000000
_cell_angle_gamma 90.000000
_cell_volume 2238.375489
_symmetry_space_group_name_H-M "P 41 2 2"
_symmetry_group_IT_number 91
_symmetry_cell_setting 'tetragonal'
loop_
_space_group_symop_operation_xyz
x,y,z
-y,x,1/4+z
-x,-y,1/2+z
y,-x,3/4+z
x,-y,1/2-z
-x,y,-z
y,x,3/4-z
-y,-x,1/4-z
loop_
_atom_site_type_symbol
_atom_site_label
_atom_site_fract_x
_atom_site_fract_y
_atom_site_fract_z
Si Si1 0.896759 0.105843 0.208988
Si Si2 0.854617 0.196336 0.341406
Si Si3 0.357485 0.816052 0.242577
Si Si4 0.313975 0.681123 0.760873
Si Si5 0.325266 0.815448 0.085738
Si Si6 0.687584 0.813789 0.070918
O O1 0.748448 0.215910 0.220268
O O2 0.034720 0.220285 0.195314
O O3 0.950890 0.000000 0.250000
O O4 0.849919 0.989442 0.169796
O O5 0.805442 0.302244 0.300627
O O6 0.738666 0.232415 0.380836
O O7 0.026503 0.251665 0.355347
O O8 0.521506 0.753331 0.224237
O O9 0.227995 0.776410 0.206515
O O10 0.326505 0.726975 0.287915
O O11 0.362561 0.000000 0.250000
O O12 0.331430 0.500000 0.750000
O O13 0.311395 0.688605 0.125000
O O14 0.502611 0.841698 0.070752
#
# Coordination Sequence:
#
# PCOD8304969 Si02
#       6
#     8   8   8   8   8   8
#     4  10  21  39  63  91 124 167 213 256 309 382
#     4  11  23  41  65  93 127 167 214 262 316 390
#     4  12  24  42  65  91 126 168 211 259 322 387
#     4  11  23  42  65  93 128 166 211 266 324 379
#     4  12  25  42  64  93 127 165 213 266 320 384
#     4  12  24  40  64  93 125 163 208 263 321 380
#
# _framework density 21.444123999999999
#
# number of rings (size 3 to 8) (size 9 to 14) (size 15 to 20)
#    0.000    0.667    0.000   11.000    0.000    1.333 
#    0.000    1.667    0.000    0.000    0.000    0.000 
#    0.000    0.000    0.000    0.000    0.000    0.000 
#
# Total GULP energy -595530.469838 kJ/mol
# GULP energy per Si atom -12406.884788 kJ/mol
# Density = 2.139532 g / cm^3
# Si number density = 21.444124 Si / 1000 Ang^3
#
#
#
# Elastic Constant Matrix: (Units=GPa)
#
#
# Indices 1 2 3 4 5 6 
#
# 1 129.1972 36.7984 33.5553 0.0000 0.0000 0.0000
# 2 36.7984 129.1972 33.5553 0.0000 0.0000 0.0000
# 3 33.5553 33.5553 91.4314 0.0000 0.0000 0.0000
# 4 0.0000 0.0000 0.0000 24.9668 0.0000 0.0000
# 5 0.0000 0.0000 0.0000 0.0000 24.9668 0.0000
# 6 0.0000 0.0000 0.0000 0.0000 0.0000 36.1810
#
#
#
# Elastic Compliance Matrix: (Units=1/GPa)
#
#
# Indices 1 2 3 4 5 6 
#
# 1 0.008948 -0.001874 -0.002596 0.000000 0.000000 0.000000
# 2 -0.001874 0.008948 -0.002596 0.000000 0.000000 0.000000
# 3 -0.002596 -0.002596 0.012843 0.000000 0.000000 0.000000
# 4 0.000000 0.000000 0.000000 0.040053 0.000000 0.000000
# 5 0.000000 0.000000 0.000000 0.000000 0.040053 0.000000
# 6 0.000000 0.000000 0.000000 0.000000 0.000000 0.027639
#
#
# Mechanical properties :
#
#
# Convention : Reuss Voigt Hill
#
# Bulk Modulus (GPa) = 60.21924 61.96040 61.08982
# Shear Modulus (GPa) = 31.61498 33.61738 32.61618
#
# Velocity S-wave (km/s) = 3.84382 3.96368 3.90421
# Velocity P-wave (km/s) = 6.91685 7.06430 6.99096
#
# Compressibility (1/GPa) = 0.01660599
#
# Stress axis : x y z
#
# Youngs Moduli (GPa) = 111.75384 111.75384 77.86529
#
# Poissons Ratio (x) = 0.20947 0.20215
# Poissons Ratio (y) = 0.20947 0.20215
# Poissons Ratio (z) = 0.29012 0.29012
#
# Static dielectric constant tensor:
#      x y z
#    x 3.915590 0.000000 0.000000 
#    y 0.000000 3.915590 0.000000 
#    z 0.000000 0.000000 3.930320 
# 
# 
# High freq. dielectric constant tensor:
#      x y z
#    x 1.848180 0.000000 0.000000 
#    y 0.000000 1.848180 0.000000 
#    z 0.000000 0.000000 1.845970 
# 
# From -- ./inp_files/13607.got.cif
#   From: 2010.03.12/outbox.cif.g09.slc.cpg/sg91_7_cif.got.tgz:13607.got - 2010.04.08 20:27:58.
