data_PCOD8304911
_publ_section_title
;
Structure prediction by ZEFSAII (Michael W. Deem and Ramdas Pophale) SiO2 
 PCOD8304911
Probable space group: P 41 2 2
;
_chemical_formula_sum "Si O2"
_cell_formula_units_Z 56
_cell_length_a 15.438035
_cell_length_b 15.438035
_cell_length_c 11.304076
_cell_angle_alpha 90.000000
_cell_angle_beta 90.000000
_cell_angle_gamma 90.000000
_cell_volume 2694.133494
_symmetry_space_group_name_H-M "P 41 2 2"
_symmetry_group_IT_number 91
_symmetry_cell_setting 'tetragonal'
loop_
_space_group_symop_operation_xyz
x,y,z
-y,x,1/4+z
-x,-y,1/2+z
y,-x,3/4+z
x,-y,1/2-z
-x,y,-z
y,x,3/4-z
-y,-x,1/4-z
loop_
_atom_site_type_symbol
_atom_site_label
_atom_site_fract_x
_atom_site_fract_y
_atom_site_fract_z
Si Si1 0.185795 0.612912 0.567051
Si Si2 0.298540 0.844627 0.138025
Si Si3 0.111237 0.807153 0.900102
Si Si4 0.435798 0.261090 0.257530
Si Si5 0.251066 0.692990 0.795903
Si Si6 0.961258 0.215343 0.777793
Si Si7 0.000000 0.319215 0.000000
Si Si8 0.555313 0.444688 0.625000
O O1 0.213538 0.514321 0.555218
O O2 0.191686 0.637289 0.705575
O O3 0.264216 0.663292 0.505142
O O4 0.089092 0.625042 0.510788
O O5 0.239918 0.760083 0.125000
O O6 0.262193 0.904411 0.245139
O O7 0.396052 0.811719 0.155351
O O8 0.294690 0.902485 0.020978
O O9 0.194870 0.776217 0.828793
O O10 0.130940 0.902936 0.948709
O O11 0.029184 0.816519 0.817787
O O12 0.365083 0.282239 0.156212
O O13 0.460553 0.345776 0.334121
O O14 0.006832 0.253688 0.891385
O O15 0.534949 0.500000 0.750000
#
# Coordination Sequence:
#
# PCOD8304911 Si02
#       8
#     8   8   8   8   8   8   4   4
#     4  11  23  41  65  98 138 176 226 284 343 420
#     4   9  20  40  68  92 124 172 220 269 340 408
#     4  10  20  39  69  91 126 172 224 278 340 411
#     4  11  23  43  69 100 131 176 230 286 341 416
#     4  10  21  41  68  92 132 186 224 268 351 422
#     4  11  22  39  68  92 129 175 229 277 339 420
#     4  12  24  40  64  94 134 176 226 276 342 408
#     4  12  28  46  74 108 148 182 240 294 362 424
#
# _framework density 20.785903000000001
#
# number of rings (size 3 to 8) (size 9 to 14) (size 15 to 20)
#    0.000    1.429    3.571    1.714    0.000    4.000 
#    5.143    0.000   18.857    0.000    0.000    0.000 
#    0.000    0.000    0.000    0.000    0.000    0.000 
#
# Total GULP energy -693911.088306 kJ/mol
# GULP energy per Si atom -12391.269434 kJ/mol
# Density = 2.073859 g / cm^3
# Si number density = 20.785903 Si / 1000 Ang^3
#
#
#
# Elastic Constant Matrix: (Units=GPa)
#
#
# Indices 1 2 3 4 5 6 
#
# 1 96.7000 38.1455 40.2967 0.0000 0.0000 0.0000
# 2 38.1455 96.6994 40.2956 0.0000 0.0000 0.0000
# 3 40.2967 40.2956 99.2536 0.0000 0.0000 0.0000
# 4 0.0000 0.0000 0.0000 38.4041 0.0000 0.0000
# 5 0.0000 0.0000 0.0000 0.0000 38.4038 0.0000
# 6 0.0000 0.0000 0.0000 0.0000 0.0000 14.6123
#
#
#
# Elastic Compliance Matrix: (Units=1/GPa)
#
#
# Indices 1 2 3 4 5 6 
#
# 1 0.013435 -0.003643 -0.003976 0.000000 0.000000 0.000000
# 2 -0.003643 0.013435 -0.003975 0.000000 0.000000 0.000000
# 3 -0.003976 -0.003975 0.013303 0.000000 0.000000 0.000000
# 4 0.000000 0.000000 0.000000 0.026039 0.000000 0.000000
# 5 0.000000 0.000000 0.000000 0.000000 0.026039 0.000000
# 6 0.000000 0.000000 0.000000 0.000000 0.000000 0.068435
#
#
# Mechanical properties :
#
#
# Convention : Reuss Voigt Hill
#
# Bulk Modulus (GPa) = 58.87464 58.90320 58.88892
# Shear Modulus (GPa) = 26.38017 29.87840 28.12928
#
# Velocity S-wave (km/s) = 3.56636 3.79547 3.68270
# Velocity P-wave (km/s) = 6.73382 6.89978 6.81731
#
# Compressibility (1/GPa) = 0.01698524
#
# Stress axis : x y z
#
# Youngs Moduli (GPa) = 74.43211 74.43239 75.17000
#
# Poissons Ratio (x) = 0.27117 0.29884
# Poissons Ratio (y) = 0.27117 0.29882
# Poissons Ratio (z) = 0.29591 0.29589
#
# Static dielectric constant tensor:
#      x y z
#    x 3.673910 0.000000 0.000000 
#    y 0.000000 3.673910 0.000000 
#    z 0.000000 0.000000 4.447330 
# 
# 
# High freq. dielectric constant tensor:
#      x y z
#    x 1.804280 0.000000 0.000000 
#    y 0.000000 1.804280 0.000000 
#    z 0.000000 0.000000 1.832970 
# 
# From -- ./inp_files/16017.got.cif
#   From: 2010.03.12/outbox.cif.g09.slc.cpg/sg91_9_cif.got.tgz:16017.got - 2010.04.08 20:27:58.
