data_PCOD8304886
_publ_section_title
;
Structure prediction by ZEFSAII (Michael W. Deem and Ramdas Pophale) SiO2 
 PCOD8304886
Probable space group: P 41 2 2
;
_chemical_formula_sum "Si O2"
_cell_formula_units_Z 56
_cell_length_a 14.398410
_cell_length_b 14.398410
_cell_length_c 13.611046
_cell_angle_alpha 90.000000
_cell_angle_beta 90.000000
_cell_angle_gamma 90.000000
_cell_volume 2821.763256
_symmetry_space_group_name_H-M "P 41 2 2"
_symmetry_group_IT_number 91
_symmetry_cell_setting 'tetragonal'
loop_
_space_group_symop_operation_xyz
x,y,z
-y,x,1/4+z
-x,-y,1/2+z
y,-x,3/4+z
x,-y,1/2-z
-x,y,-z
y,x,3/4-z
-y,-x,1/4-z
loop_
_atom_site_type_symbol
_atom_site_label
_atom_site_fract_x
_atom_site_fract_y
_atom_site_fract_z
Si Si1 0.172642 0.858600 0.778988
Si Si2 0.481996 0.137520 0.702145
Si Si3 0.319738 0.731124 0.855812
Si Si4 0.025739 0.771142 0.653886
Si Si5 0.395982 0.433345 0.979372
Si Si6 0.705766 0.614454 0.965663
Si Si7 0.555120 0.953728 0.401864
O O1 0.226549 0.763946 0.801962
O O2 0.067683 0.829155 0.746974
O O3 0.223921 0.906108 0.688329
O O4 0.179962 0.927644 0.873638
O O5 0.398785 0.190864 0.647034
O O6 0.580670 0.190332 0.688163
O O7 0.453665 0.125556 0.817557
O O8 0.496218 0.042213 0.644599
O O9 0.357389 0.637111 0.807285
O O10 0.291564 0.705641 0.966702
O O11 0.018983 0.661697 0.678125
O O12 0.336146 0.526016 0.979408
O O13 0.500000 0.464374 0.000000
O O14 0.384428 0.384428 0.875000
O O15 0.640861 0.640861 0.875000
O O16 0.500000 0.922128 0.500000
#
# Coordination Sequence:
#
# PCOD8304886 Si02
#       7
#     8   8   8   8   8   8   8
#     4  10  20  37  64  94 124 156 204 260 322 389
#     4  10  23  42  59  92 126 162 219 266 306 395
#     4  11  22  38  61  85 125 166 210 263 316 373
#     4  10  20  38  61 100 124 157 204 261 322 399
#     4  11  22  38  52  80 121 167 218 270 307 354
#     4  11  26  38  59  84 120 174 224 261 315 376
#     4  11  22  40  67  94 129 166 208 262 334 383
#
# _framework density 19.845748
#
# number of rings (size 3 to 8) (size 9 to 14) (size 15 to 20)
#    0.000    1.429    4.286    1.286    8.000    0.000 
#    0.000    0.000    0.000    0.000   40.857    0.000 
#    0.000    0.000    0.000    0.000    0.000    0.000 
#
# Total GULP energy -694190.566643 kJ/mol
# GULP energy per Si atom -12396.260119 kJ/mol
# Density = 1.980058 g / cm^3
# Si number density = 19.845748 Si / 1000 Ang^3
#
#
#
# Elastic Constant Matrix: (Units=GPa)
#
#
# Indices 1 2 3 4 5 6 
#
# 1 89.5564 40.1968 31.6085 0.0000 0.0000 0.0000
# 2 40.1968 89.5564 31.6085 0.0000 0.0000 0.0000
# 3 31.6085 31.6085 62.6602 0.0000 0.0000 0.0000
# 4 0.0000 0.0000 0.0000 28.4359 0.0000 0.0000
# 5 0.0000 0.0000 0.0000 0.0000 28.4359 0.0000
# 6 0.0000 0.0000 0.0000 0.0000 0.0000 28.8286
#
#
#
# Elastic Compliance Matrix: (Units=1/GPa)
#
#
# Indices 1 2 3 4 5 6 
#
# 1 0.015239 -0.005021 -0.005155 0.000000 0.000000 0.000000
# 2 -0.005021 0.015239 -0.005155 0.000000 0.000000 0.000000
# 3 -0.005155 -0.005155 0.021159 0.000000 0.000000 0.000000
# 4 0.000000 0.000000 0.000000 0.035167 0.000000 0.000000
# 5 0.000000 0.000000 0.000000 0.000000 0.035167 0.000000
# 6 0.000000 0.000000 0.000000 0.000000 0.000000 0.034688
#
#
# Mechanical properties :
#
#
# Convention : Reuss Voigt Hill
#
# Bulk Modulus (GPa) = 47.66937 49.84451 48.75694
# Shear Modulus (GPa) = 25.73198 26.36401 26.04800
#
# Velocity S-wave (km/s) = 3.60474 3.64874 3.62681
# Velocity P-wave (km/s) = 6.43410 6.55145 6.49304
#
# Compressibility (1/GPa) = 0.02097783
#
# Stress axis : x y z
#
# Youngs Moduli (GPa) = 65.62158 65.62158 47.26026
#
# Poissons Ratio (x) = 0.32946 0.24361
# Poissons Ratio (y) = 0.32946 0.24361
# Poissons Ratio (z) = 0.33825 0.33825
#
# Static dielectric constant tensor:
#      x y z
#    x 3.635820 0.000000 0.000000 
#    y 0.000000 3.635820 0.000000 
#    z 0.000000 0.000000 3.657090 
# 
# 
# High freq. dielectric constant tensor:
#      x y z
#    x 1.766940 0.000000 0.000000 
#    y 0.000000 1.766940 0.000000 
#    z 0.000000 0.000000 1.760670 
# 
# From -- ./inp_files/3916.got.cif
#   From: 2010.03.12/outbox.cif.g09.slc.cpg/sg91_2_cif.got.tgz:3916.got - 2010.04.08 20:27:58.
