data_PCOD8304347
_publ_section_title
;
Structure prediction by ZEFSAII (Michael W. Deem and Ramdas Pophale) SiO2 
 PCOD8304347
Probable space group: I 41/A
;
_chemical_formula_sum "Si O2"
_cell_formula_units_Z 100
_cell_length_a 13.224503
_cell_length_b 13.224503
_cell_length_c 25.257130
_cell_angle_alpha 90.000000
_cell_angle_beta 90.000000
_cell_angle_gamma 90.000000
_cell_volume 4417.155808
_symmetry_space_group_name_H-M "I 41/A"
_symmetry_group_IT_number 88
_space_group.IT_coordinate_system_code '2'
_symmetry_cell_setting 'tetragonal'
loop_
_space_group_symop_operation_xyz
x,y,z
3/4-y,1/4+x,1/4+z
-x,1/2-y,z
1/4+y,1/4-x,1/4+z
-x,-y,-z
1/4+y,3/4-x,3/4-z
x,1/2+y,-z
3/4-y,3/4+x,3/4-z
1/2+x,1/2+y,1/2+z
1/4-y,3/4+x,3/4+z
1/2-x,-y,1/2+z
3/4+y,3/4-x,3/4+z
1/2-x,1/2-y,1/2-z
3/4+y,1/4-x,1/4-z
1/2+x,y,1/2-z
1/4-y,1/4+x,1/4-z
loop_
_atom_site_type_symbol
_atom_site_label
_atom_site_fract_x
_atom_site_fract_y
_atom_site_fract_z
Si Si1 0.667120 0.983952 0.835674
Si Si2 0.383504 0.216138 0.109458
Si Si3 0.996686 0.544245 0.254863
Si Si4 0.407738 0.633486 0.147893
Si Si5 0.000000 0.250000 0.125000
Si Si6 0.200127 0.800252 0.820611
Si Si7 0.648461 0.430851 0.488667
O O1 0.615548 0.898384 0.870990
O O2 0.775377 0.956204 0.812147
O O3 0.596128 0.015059 0.786888
O O4 0.694091 0.075018 0.875578
O O5 0.500000 0.250000 0.118601
O O6 0.296437 0.273888 0.142575
O O7 0.352871 0.224647 0.048181
O O8 0.928584 0.620309 0.290112
O O9 0.930146 0.443036 0.248262
O O10 0.364323 0.745130 0.138865
O O11 0.932373 0.340296 0.098330
O O12 0.239711 0.899961 0.788482
O O13 0.168148 0.717761 0.776903
#
# Coordination Sequence:
#
# PCOD8304347 Si02
#       7
#    16  16  16  16   4  16  16
#     4  10  24  42  67  94 131 178 223 291 346 415
#     4  11  25  44  67 101 140 180 240 292 355 432
#     4  11  24  40  70  98 132 184 227 293 350 422
#     4   9  21  42  65  88 129 170 210 276 344 407
#     4  12  24  40  72 104 144 184 240 304 356 440
#     4  10  24  42  64 101 141 190 226 299 358 421
#     4  10  23  42  65  97 135 184 234 281 358 425
#
# _framework density 22.639002999999999
#
# number of rings (size 3 to 8) (size 9 to 14) (size 15 to 20)
#    0.000    1.760    0.000    1.920   11.200    5.120 
#    2.880    1.600    0.000    0.000    0.000    0.000 
#    0.000    0.000    0.000    0.000    0.000    0.000 
#
# Total GULP energy -619427.530747 kJ/mol
# GULP energy per Si atom -12388.550615 kJ/mol
# Density = 2.258748 g / cm^3
# Si number density = 22.639003 Si / 1000 Ang^3
#
#
#
# Elastic Constant Matrix: (Units=GPa)
#
#
# Indices 1 2 3 4 5 6 
#
# 1 69.8144 -1.6608 22.8655 0.0000 0.0000 11.0195
# 2 -1.6608 69.8144 22.8655 0.0000 0.0000 -11.0195
# 3 22.8655 22.8655 112.4005 0.0000 0.0000 0.0000
# 4 0.0000 0.0000 0.0000 33.8840 0.0000 0.0000
# 5 0.0000 0.0000 0.0000 0.0000 33.8840 0.0000
# 6 11.0195 -11.0195 0.0000 0.0000 0.0000 23.9396
#
#
#
# Elastic Compliance Matrix: (Units=1/GPa)
#
#
# Indices 1 2 3 4 5 6 
#
# 1 0.016649 0.000344 -0.003457 0.000000 0.000000 -0.007505
# 2 0.000344 0.016649 -0.003457 0.000000 0.000000 0.007505
# 3 -0.003457 -0.003457 0.010303 0.000000 0.000000 0.000000
# 4 0.000000 0.000000 0.000000 0.029512 0.000000 0.000000
# 5 0.000000 0.000000 0.000000 0.000000 0.029512 0.000000
# 6 -0.007505 0.007505 0.000000 0.000000 0.000000 0.048681
#
#
# Mechanical properties :
#
#
# Convention : Reuss Voigt Hill
#
# Bulk Modulus (GPa) = 32.82918 37.79662 35.31290
# Shear Modulus (GPa) = 28.63693 32.20547 30.42120
#
# Velocity S-wave (km/s) = 3.56045 3.77578 3.66970
# Velocity P-wave (km/s) = 5.60670 5.97832 5.79549
#
# Compressibility (1/GPa) = 0.03046071
#
# Stress axis : x y z
#
# Youngs Moduli (GPa) = 60.06500 60.06500 97.05782
#
# Poissons Ratio (x) = -0.02063 0.33550
# Poissons Ratio (y) = -0.02063 0.33550
# Poissons Ratio (z) = 0.20763 0.20763
#
# Static dielectric constant tensor:
#      x y z
#    x 4.154650 0.000000 0.000000 
#    y 0.000000 4.154650 0.000000 
#    z 0.000000 0.000000 4.484910 
# 
# 
# High freq. dielectric constant tensor:
#      x y z
#    x 1.891460 0.000000 0.000000 
#    y 0.000000 1.891460 0.000000 
#    z 0.000000 0.000000 1.903600 
# 
# From -- ./inp_files/5274.got.cif
#   From: 2010.03.12/outbox.cif.g09.slc.cpg/sg88_3_cif.got.tgz:5274.got - 2010.04.08 20:20:55.
