data_PCOD8304295
_publ_section_title
;
Structure prediction by ZEFSAII (Michael W. Deem and Ramdas Pophale) SiO2 
 PCOD8304295
Probable space group: I 41/A
;
_chemical_formula_sum "Si O2"
_cell_formula_units_Z 72
_cell_length_a 12.347646
_cell_length_b 12.347646
_cell_length_c 18.745570
_cell_angle_alpha 90.000000
_cell_angle_beta 90.000000
_cell_angle_gamma 90.000000
_cell_volume 2858.031366
_symmetry_space_group_name_H-M "I 41/A"
_symmetry_group_IT_number 88
_space_group.IT_coordinate_system_code '2'
_symmetry_cell_setting 'tetragonal'
loop_
_space_group_symop_operation_xyz
x,y,z
3/4-y,1/4+x,1/4+z
-x,1/2-y,z
1/4+y,1/4-x,1/4+z
-x,-y,-z
1/4+y,3/4-x,3/4-z
x,1/2+y,-z
3/4-y,3/4+x,3/4-z
1/2+x,1/2+y,1/2+z
1/4-y,3/4+x,3/4+z
1/2-x,-y,1/2+z
3/4+y,3/4-x,3/4+z
1/2-x,1/2-y,1/2-z
3/4+y,1/4-x,1/4-z
1/2+x,y,1/2-z
1/4-y,1/4+x,1/4-z
loop_
_atom_site_type_symbol
_atom_site_label
_atom_site_fract_x
_atom_site_fract_y
_atom_site_fract_z
Si Si1 0.913476 0.052853 0.708163
Si Si2 0.895594 0.392139 0.877536
Si Si3 0.672253 0.152049 0.472632
Si Si4 0.000000 0.750000 0.875000
Si Si5 0.000000 0.750000 0.375000
Si Si6 0.601536 0.607732 0.903036
O O1 0.991664 0.144158 0.674502
O O2 0.835233 0.110232 0.765816
O O3 0.848230 0.988375 0.646229
O O4 0.981936 0.961751 0.749077
O O5 0.847584 0.483591 0.824969
O O6 0.847488 0.278535 0.850303
O O7 0.026097 0.391167 0.874997
O O8 0.859140 0.420332 0.958488
O O9 0.566331 0.166959 0.424140
#
# Coordination Sequence:
#
# PCOD8304295 Si02
#       6
#    16  16  16   4   4  16
#     4  10  21  40  63  90 124 167 207 255 315 371
#     4   9  18  38  66  92 125 164 208 258 311 371
#     4  10  21  40  63  90 124 167 207 255 315 371
#     4  12  24  40  62  88 128 164 208 266 312 364
#     4  12  24  40  62  88 128 164 208 266 312 364
#     4   9  18  38  66  92 125 164 208 258 311 371
#
# _framework density 25.192166
#
# number of rings (size 3 to 8) (size 9 to 14) (size 15 to 20)
#    0.000    2.222    0.000    5.333    0.000    1.778 
#    0.000   17.778    0.000    0.000    0.000    0.000 
#    0.000    0.000    0.000    0.000    0.000    0.000 
#
# Total GULP energy -446369.971298 kJ/mol
# GULP energy per Si atom -12399.165869 kJ/mol
# Density = 2.513483 g / cm^3
# Si number density = 25.192166 Si / 1000 Ang^3
#
#
#
# Elastic Constant Matrix: (Units=GPa)
#
#
# Indices 1 2 3 4 5 6 
#
# 1 90.8945 12.5247 68.6529 0.0000 0.0000 -2.5070
# 2 12.5247 90.8945 68.6529 0.0000 0.0000 2.5070
# 3 68.6529 68.6529 222.3840 0.0000 0.0000 0.0000
# 4 0.0000 0.0000 0.0000 49.6951 0.0000 0.0000
# 5 0.0000 0.0000 0.0000 0.0000 49.6951 0.0000
# 6 -2.5070 2.5070 0.0000 0.0000 0.0000 7.6231
#
#
#
# Elastic Compliance Matrix: (Units=1/GPa)
#
#
# Indices 1 2 3 4 5 6 
#
# 1 0.014710 0.001675 -0.005058 0.000000 0.000000 0.004287
# 2 0.001675 0.014710 -0.005058 0.000000 0.000000 -0.004287
# 3 -0.005058 -0.005058 0.007620 0.000000 0.000000 0.000000
# 4 0.000000 0.000000 0.000000 0.020123 0.000000 0.000000
# 5 0.000000 0.000000 0.000000 0.000000 0.020123 0.000000
# 6 0.004287 -0.004287 0.000000 0.000000 0.000000 0.134000
#
#
# Mechanical properties :
#
#
# Convention : Reuss Voigt Hill
#
# Bulk Modulus (GPa) = 49.61086 78.20376 63.90731
# Shear Modulus (GPa) = 21.28691 38.35881 29.82286
#
# Velocity S-wave (km/s) = 2.91001 3.90635 3.44439
# Velocity P-wave (km/s) = 5.57015 7.17331 6.42195
#
# Compressibility (1/GPa) = 0.02015688
#
# Stress axis : x y z
#
# Youngs Moduli (GPa) = 67.98240 67.98240 131.23608
#
# Poissons Ratio (x) = -0.11390 0.66383
# Poissons Ratio (y) = -0.11390 0.66383
# Poissons Ratio (z) = 0.34388 0.34388
#
# Static dielectric constant tensor:
#      x y z
#    x 4.315060 0.000000 0.000000 
#    y 0.000000 4.315060 0.000000 
#    z 0.000000 0.000000 5.186600 
# 
# 
# High freq. dielectric constant tensor:
#      x y z
#    x 1.988730 0.000000 0.000000 
#    y 0.000000 1.988730 0.000000 
#    z 0.000000 0.000000 2.025230 
# 
# From -- ./inp_files/3790.got.cif
#   From: 2010.03.12/outbox.cif.g09.slc.cpg/sg88_2_cif.got.tgz:3790.got - 2010.04.08 20:20:55.
