data_PCOD8304273
_publ_section_title
;
Structure prediction by ZEFSAII (Michael W. Deem and Ramdas Pophale) SiO2 
 PCOD8304273
Probable space group: I 41/A
;
_chemical_formula_sum "Si O2"
_cell_formula_units_Z 112
_cell_length_a 14.969563
_cell_length_b 14.969563
_cell_length_c 28.210642
_cell_angle_alpha 90.000000
_cell_angle_beta 90.000000
_cell_angle_gamma 90.000000
_cell_volume 6321.661165
_symmetry_space_group_name_H-M "I 41/A"
_symmetry_group_IT_number 88
_space_group.IT_coordinate_system_code '2'
_symmetry_cell_setting 'tetragonal'
loop_
_space_group_symop_operation_xyz
x,y,z
3/4-y,1/4+x,1/4+z
-x,1/2-y,z
1/4+y,1/4-x,1/4+z
-x,-y,-z
1/4+y,3/4-x,3/4-z
x,1/2+y,-z
3/4-y,3/4+x,3/4-z
1/2+x,1/2+y,1/2+z
1/4-y,3/4+x,3/4+z
1/2-x,-y,1/2+z
3/4+y,3/4-x,3/4+z
1/2-x,1/2-y,1/2-z
3/4+y,1/4-x,1/4-z
1/2+x,y,1/2-z
1/4-y,1/4+x,1/4-z
loop_
_atom_site_type_symbol
_atom_site_label
_atom_site_fract_x
_atom_site_fract_y
_atom_site_fract_z
Si Si1 0.001568 0.535243 0.765252
Si Si2 0.099870 0.782134 0.074532
Si Si3 0.834404 0.085677 0.787333
Si Si4 0.894521 0.265986 0.820428
Si Si5 0.955606 0.379780 0.138917
Si Si6 0.161217 0.469112 0.893832
Si Si7 0.685278 0.547196 0.288737
O O1 0.998572 0.582285 0.714818
O O2 0.072445 0.453729 0.766659
O O3 0.031888 0.603532 0.805594
O O4 0.899474 0.509846 0.773663
O O5 0.129367 0.740372 0.124309
O O6 0.113058 0.888757 0.078216
O O7 0.000000 0.750000 0.061213
O O8 0.844444 0.192457 0.788643
O O9 0.810734 0.053388 0.840205
O O10 0.750818 0.059917 0.755331
O O11 0.856871 0.360543 0.805470
O O12 0.000000 0.250000 0.813228
O O13 0.888368 0.297828 0.137211
O O14 0.917643 0.460049 0.108322
O O15 0.248325 0.507973 0.920184
#
# Coordination Sequence:
#
# PCOD8304273 Si02
#       7
#    16  16  16  16  16  16  16
#     4  11  22  38  57  88 121 151 200 247 289 353
#     4  10  23  39  59  85 123 152 196 252 297 352
#     4  10  22  41  60  88 120 152 204 247 298 367
#     4  10  21  40  63  87 116 158 195 246 308 363
#     4  10  21  36  56  77 117 160 193 230 285 350
#     4  10  22  40  58  89 116 154 201 247 299 357
#     4  12  22  38  64  87 118 158 201 245 305 360
#
# _framework density 17.716861999999999
#
# number of rings (size 3 to 8) (size 9 to 14) (size 15 to 20)
#    0.000    1.571    4.286    0.429    6.000    0.000 
#    2.571    1.429    0.000    0.000    0.000    0.000 
#    0.000    0.000    0.000    0.000    0.000    0.000 
#
# Total GULP energy -694191.449044 kJ/mol
# GULP energy per Si atom -12396.275876 kJ/mol
# Density = 1.767654 g / cm^3
# Si number density = 17.716862 Si / 1000 Ang^3
#
#
#
# Elastic Constant Matrix: (Units=GPa)
#
#
# Indices 1 2 3 4 5 6 
#
# 1 115.4416 39.6309 47.6155 0.0000 0.0000 0.5736
# 2 39.6309 115.4416 47.6155 0.0000 0.0000 -0.5736
# 3 47.6155 47.6155 86.1353 0.0000 0.0000 0.0000
# 4 0.0000 0.0000 0.0000 28.2196 0.0000 0.0000
# 5 0.0000 0.0000 0.0000 0.0000 28.2196 0.0000
# 6 0.5736 -0.5736 0.0000 0.0000 0.0000 36.9270
#
#
#
# Elastic Compliance Matrix: (Units=1/GPa)
#
#
# Indices 1 2 3 4 5 6 
#
# 1 0.011478 -0.001715 -0.005397 0.000000 0.000000 -0.000205
# 2 -0.001715 0.011478 -0.005397 0.000000 0.000000 0.000205
# 3 -0.005397 -0.005397 0.017576 0.000000 0.000000 0.000000
# 4 0.000000 0.000000 0.000000 0.035436 0.000000 0.000000
# 5 0.000000 0.000000 0.000000 0.000000 0.035436 0.000000
# 6 -0.000205 0.000205 0.000000 0.000000 0.000000 0.027087
#
#
# Mechanical properties :
#
#
# Convention : Reuss Voigt Hill
#
# Bulk Modulus (GPa) = 64.45554 65.19359 64.82457
# Shear Modulus (GPa) = 29.64145 30.81703 30.22924
#
# Velocity S-wave (km/s) = 4.09475 4.17516 4.13515
# Velocity P-wave (km/s) = 7.66915 7.75371 7.71154
#
# Compressibility (1/GPa) = 0.01551457
#
# Stress axis : x y z
#
# Youngs Moduli (GPa) = 87.12049 87.12049 56.89435
#
# Poissons Ratio (x) = 0.14945 0.30705
# Poissons Ratio (y) = 0.14945 0.30705
# Poissons Ratio (z) = 0.47018 0.47018
#
# Static dielectric constant tensor:
#      x y z
#    x 3.431020 0.000000 0.000000 
#    y 0.000000 3.431020 0.000000 
#    z 0.000000 0.000000 3.275280 
# 
# 
# High freq. dielectric constant tensor:
#      x y z
#    x 1.693490 0.000000 0.000000 
#    y 0.000000 1.693490 0.000000 
#    z 0.000000 0.000000 1.686180 
# 
# From -- ./inp_files/5338.got.cif
#   From: 2010.03.12/outbox.cif.g09.slc.cpg/sg88_3_cif.got.tgz:5338.got - 2010.04.08 20:20:55.
