data_PCOD8304905
_publ_section_title
;
Structure prediction by ZEFSAII (Michael W. Deem and Ramdas Pophale) SiO2 
 PCOD8304905
Probable space group: P 41 2 2
;
_chemical_formula_sum "Si O2"
_cell_formula_units_Z 56
_cell_length_a 11.944707
_cell_length_b 11.944707
_cell_length_c 18.937818
_cell_angle_alpha 90.000000
_cell_angle_beta 90.000000
_cell_angle_gamma 90.000000
_cell_volume 2701.972600
_symmetry_space_group_name_H-M "P 41 2 2"
_symmetry_group_IT_number 91
_symmetry_cell_setting 'tetragonal'
loop_
_space_group_symop_operation_xyz
x,y,z
-y,x,1/4+z
-x,-y,1/2+z
y,-x,3/4+z
x,-y,1/2-z
-x,y,-z
y,x,3/4-z
-y,-x,1/4-z
loop_
_atom_site_type_symbol
_atom_site_label
_atom_site_fract_x
_atom_site_fract_y
_atom_site_fract_z
Si Si1 0.291902 0.864399 0.586169
Si Si2 0.889530 0.679600 0.711792
Si Si3 0.746629 0.654754 0.059369
Si Si4 0.339140 0.450479 0.435503
Si Si5 0.877825 0.437691 0.647294
Si Si6 0.486363 0.074294 0.811805
Si Si7 0.620727 0.302181 0.968371
O O1 0.181359 0.818642 0.625000
O O2 0.394770 0.860482 0.641285
O O3 0.314824 0.785807 0.518172
O O4 0.269327 0.992173 0.563231
O O5 0.788862 0.765964 0.692388
O O6 0.858853 0.563836 0.674131
O O7 0.893736 0.657856 0.794520
O O8 0.843255 0.576639 0.025275
O O9 0.742590 0.610960 0.139193
O O10 0.640591 0.624916 0.006928
O O11 0.436686 0.436686 0.375000
O O12 0.227726 0.403120 0.398897
O O13 0.319908 0.577418 0.462191
O O14 0.995607 0.435216 0.608413
O O15 0.426930 0.000000 0.750000
O O16 0.500000 0.324049 0.000000
#
# Coordination Sequence:
#
# PCOD8304905 Si02
#       7
#     8   8   8   8   8   8   8
#     4  11  25  44  68  97 137 178 231 288 348 417
#     4  10  22  39  67  91 131 175 226 280 336 404
#     4  12  23  41  65  99 136 177 232 285 348 410
#     4  12  25  38  63 100 141 184 221 282 345 427
#     4  10  20  39  61  94 125 173 231 274 328 401
#     4  11  22  39  68  99 128 174 233 293 339 412
#     4  12  27  40  62  99 145 185 217 281 361 428
#
# _framework density 20.725598000000002
#
# number of rings (size 3 to 8) (size 9 to 14) (size 15 to 20)
#    0.000    0.857    5.714    1.714    4.000    0.000 
#    0.000    0.000    0.000    5.143    0.000    0.000 
#    0.000    0.000    0.000    0.000    0.000    0.000 
#
# Total GULP energy -693971.365612 kJ/mol
# GULP energy per Si atom -12392.345815 kJ/mol
# Density = 2.067843 g / cm^3
# Si number density = 20.725598 Si / 1000 Ang^3
#
#
#
# Elastic Constant Matrix: (Units=GPa)
#
#
# Indices 1 2 3 4 5 6 
#
# 1 96.4294 41.2989 39.2199 0.0000 0.0000 0.0000
# 2 41.2989 96.4291 39.2195 0.0000 0.0000 0.0000
# 3 39.2199 39.2195 141.2043 0.0000 0.0000 0.0000
# 4 0.0000 0.0000 0.0000 32.1736 0.0000 0.0000
# 5 0.0000 0.0000 0.0000 0.0000 32.1739 0.0000
# 6 0.0000 0.0000 0.0000 0.0000 0.0000 21.5447
#
#
#
# Elastic Compliance Matrix: (Units=1/GPa)
#
#
# Indices 1 2 3 4 5 6 
#
# 1 0.013382 -0.004757 -0.002396 0.000000 0.000000 0.000000
# 2 -0.004757 0.013382 -0.002396 0.000000 0.000000 0.000000
# 3 -0.002396 -0.002396 0.008413 0.000000 0.000000 0.000000
# 4 0.000000 0.000000 0.000000 0.031081 0.000000 0.000000
# 5 0.000000 0.000000 0.000000 0.000000 0.031081 0.000000
# 6 0.000000 0.000000 0.000000 0.000000 0.000000 0.046415
#
#
# Mechanical properties :
#
#
# Convention : Reuss Voigt Hill
#
# Bulk Modulus (GPa) = 62.18782 63.72661 62.95721
# Shear Modulus (GPa) = 29.72464 31.46673 30.59569
#
# Velocity S-wave (km/s) = 3.79119 3.90071 3.84634
# Velocity P-wave (km/s) = 7.01674 7.14856 7.08295
#
# Compressibility (1/GPa) = 0.01608032
#
# Stress axis : x y z
#
# Youngs Moduli (GPa) = 74.72767 74.72761 118.86769
#
# Poissons Ratio (x) = 0.35547 0.28476
# Poissons Ratio (y) = 0.35547 0.28476
# Poissons Ratio (z) = 0.17902 0.17902
#
# Static dielectric constant tensor:
#      x y z
#    x 3.617580 0.000000 0.000000 
#    y 0.000000 3.617580 0.000000 
#    z 0.000000 0.000000 4.226940 
# 
# 
# High freq. dielectric constant tensor:
#      x y z
#    x 1.788770 0.000000 0.000000 
#    y 0.000000 1.788770 0.000000 
#    z 0.000000 0.000000 1.842950 
# 
# From -- ./inp_files/6421.got.cif
#   From: 2010.03.12/outbox.cif.g09.slc.cpg/sg91_4_cif.got.tgz:6421.got - 2010.04.08 20:27:58.
