data_PCOD8304480
_publ_section_title
;
Structure prediction by ZEFSAII (Michael W. Deem and Ramdas Pophale) SiO2 
 PCOD8304480
Probable space group: P 4 2 2
;
_chemical_formula_sum "Si O2"
_cell_formula_units_Z 64
_cell_length_a 11.658496
_cell_length_b 11.658496
_cell_length_c 23.724108
_cell_angle_alpha 90.000000
_cell_angle_beta 90.000000
_cell_angle_gamma 90.000000
_cell_volume 3224.593309
_symmetry_space_group_name_H-M "P 4 2 2"
_symmetry_group_IT_number 89
_symmetry_cell_setting 'tetragonal'
loop_
_space_group_symop_operation_xyz
x,y,z
-y,x,z
-x,-y,z
y,-x,z
x,-y,-z
-x,y,-z
y,x,-z
-y,-x,-z
loop_
_atom_site_type_symbol
_atom_site_label
_atom_site_fract_x
_atom_site_fract_y
_atom_site_fract_z
Si Si1 0.437816 0.324154 0.817296
Si Si2 0.764113 0.413709 0.695265
Si Si3 0.382062 0.066219 0.851391
Si Si4 0.367157 0.018937 0.435397
Si Si5 0.325456 0.991049 0.269736
Si Si6 0.356888 0.203200 0.349159
Si Si7 0.947777 0.176733 0.636914
Si Si8 0.013422 0.816076 0.934063
O O1 0.569438 0.354628 0.834802
O O2 0.422155 0.315216 0.750168
O O3 0.400346 0.204265 0.846723
O O4 0.897793 0.422674 0.713385
O O5 0.742937 0.295939 0.660460
O O6 0.734841 0.519798 0.654259
O O7 0.317737 0.009221 0.797585
O O8 0.500000 0.000000 0.859831
O O9 0.304988 0.034160 0.904532
O O10 0.340636 0.145972 0.410734
O O11 0.500000 0.000000 0.423939
O O12 0.333379 0.000000 0.500000
O O13 0.292129 0.927183 0.399817
O O14 0.205043 0.944791 0.296299
O O15 0.352486 0.113556 0.297022
O O16 0.078506 0.140286 0.621168
O O17 0.120700 0.895960 0.916429
O O18 0.000000 0.792366 0.000000
#
# Coordination Sequence:
#
# PCOD8304480 Si02
#       8
#     8   8   8   8   8   8   8   8
#     4  10  21  38  57  87 136 176 206 250 310 390
#     4  11  20  33  57  82 114 158 196 230 288 360
#     4  11  24  35  61  96 129 166 216 259 313 374
#     4  10  22  39  57  76 105 144 189 238 292 352
#     4  10  20  35  51  83 123 156 184 232 285 355
#     4  11  21  35  57  81 115 147 191 238 289 356
#     4  10  21  38  59  85 113 143 182 231 294 359
#     4   9  21  43  67  90 123 168 219 277 328 371
#
# _framework density 19.847466000000001
#
# number of rings (size 3 to 8) (size 9 to 14) (size 15 to 20)
#    0.000    1.750    1.250    5.250    1.750    3.500 
#    0.000    3.125    0.000    0.000    0.000    0.000 
#    0.000   12.000    0.000    0.000    0.000    0.000 
#
# Total GULP energy -793064.054315 kJ/mol
# GULP energy per Si atom -12391.625849 kJ/mol
# Density = 1.980229 g / cm^3
# Si number density = 19.847466 Si / 1000 Ang^3
#
#
#
# Elastic Constant Matrix: (Units=GPa)
#
#
# Indices 1 2 3 4 5 6 
#
# 1 152.2173 -7.3296 48.8958 0.0000 0.0000 0.0000
# 2 -7.3296 152.2173 48.8958 0.0000 0.0000 0.0000
# 3 48.8958 48.8958 88.0215 0.0000 0.0000 0.0000
# 4 0.0000 0.0000 0.0000 25.8304 0.0000 0.0000
# 5 0.0000 0.0000 0.0000 0.0000 25.8304 0.0000
# 6 0.0000 0.0000 0.0000 0.0000 0.0000 49.8162
#
#
#
# Elastic Compliance Matrix: (Units=1/GPa)
#
#
# Indices 1 2 3 4 5 6 
#
# 1 0.008655 0.002387 -0.006134 0.000000 0.000000 0.000000
# 2 0.002387 0.008655 -0.006134 0.000000 0.000000 0.000000
# 3 -0.006134 -0.006134 0.018175 0.000000 0.000000 0.000000
# 4 0.000000 0.000000 0.000000 0.038714 0.000000 0.000000
# 5 0.000000 0.000000 0.000000 0.000000 0.038714 0.000000
# 6 0.000000 0.000000 0.000000 0.000000 0.000000 0.020074
#
#
# Mechanical properties :
#
#
# Convention : Reuss Voigt Hill
#
# Bulk Modulus (GPa) = 63.59628 63.70890 63.65259
# Shear Modulus (GPa) = 31.64775 40.42834 36.03804
#
# Velocity S-wave (km/s) = 3.99751 4.51816 4.26578
# Velocity P-wave (km/s) = 7.30882 7.70631 7.51020
#
# Compressibility (1/GPa) = 0.01572419
#
# Stress axis : x y z
#
# Youngs Moduli (GPa) = 115.54291 115.54291 55.01942
#
# Poissons Ratio (x) = -0.27581 0.33747
# Poissons Ratio (y) = -0.27581 0.33747
# Poissons Ratio (z) = 0.70871 0.70871
#
# Static dielectric constant tensor:
#      x y z
#    x 3.744030 0.000000 0.000000 
#    y 0.000000 3.744030 0.000000 
#    z 0.000000 0.000000 3.324590 
# 
# 
# High freq. dielectric constant tensor:
#      x y z
#    x 1.785560 0.000000 0.000000 
#    y 0.000000 1.785560 0.000000 
#    z 0.000000 0.000000 1.733030 
# 
# From -- ./inp_files/2803.got.cif
#   From: 2010.03.12/outbox.cif.g09.slc.cpg/sg89_2_cif.got.tgz:2803.got - 2010.04.08 20:24:03.
