data_PCOD8304175
_publ_section_title
;
Structure prediction by ZEFSAII (Michael W. Deem and Ramdas Pophale) SiO2 
 PCOD8304175
Probable space group: I 41/A
;
_chemical_formula_sum "Si O2"
_cell_formula_units_Z 120
_cell_length_a 21.180796
_cell_length_b 21.180796
_cell_length_c 13.068125
_cell_angle_alpha 90.000000
_cell_angle_beta 90.000000
_cell_angle_gamma 90.000000
_cell_volume 5862.702204
_symmetry_space_group_name_H-M "I 41/A"
_symmetry_group_IT_number 88
_space_group.IT_coordinate_system_code '2'
_symmetry_cell_setting 'tetragonal'
loop_
_space_group_symop_operation_xyz
x,y,z
3/4-y,1/4+x,1/4+z
-x,1/2-y,z
1/4+y,1/4-x,1/4+z
-x,-y,-z
1/4+y,3/4-x,3/4-z
x,1/2+y,-z
3/4-y,3/4+x,3/4-z
1/2+x,1/2+y,1/2+z
1/4-y,3/4+x,3/4+z
1/2-x,-y,1/2+z
3/4+y,3/4-x,3/4+z
1/2-x,1/2-y,1/2-z
3/4+y,1/4-x,1/4-z
1/2+x,y,1/2-z
1/4-y,1/4+x,1/4-z
loop_
_atom_site_type_symbol
_atom_site_label
_atom_site_fract_x
_atom_site_fract_y
_atom_site_fract_z
Si Si1 0.420437 0.852880 0.081664
Si Si2 0.000000 0.750000 0.503299
Si Si3 0.910161 0.714826 0.875611
Si Si4 0.814421 0.362958 0.426796
Si Si5 0.498390 0.063247 0.061710
Si Si6 0.181594 0.259701 0.300735
Si Si7 0.908639 0.851091 0.185679
Si Si8 0.318163 0.147651 0.522110
O O1 0.412431 0.875498 0.197678
O O2 0.443771 0.780203 0.069596
O O3 0.352501 0.867240 0.031988
O O4 0.474595 0.887715 0.019355
O O5 0.039863 0.795476 0.578923
O O6 0.932656 0.779733 0.931600
O O7 0.864841 0.744228 0.792476
O O8 0.877017 0.664734 0.950013
O O9 0.830076 0.294859 0.381612
O O10 0.740573 0.372340 0.450732
O O11 0.838315 0.415173 0.344975
O O12 0.427271 0.088240 0.089452
O O13 0.539700 0.053072 0.163223
O O14 0.500000 0.000000 0.000000
O O15 0.250000 0.250000 0.250000
O O16 0.161412 0.324208 0.362623
#
# Coordination Sequence:
#
# PCOD8304175 Si02
#       8
#    16   8  16  16  16  16  16  16
#     4  10  20  34  59  95 129 168 203 270 329 395
#     4  10  17  28  54  94 125 154 195 252 334 398
#     4  11  23  39  61  94 133 164 209 265 335 404
#     4  11  23  42  68  89 126 169 228 264 337 394
#     4  10  22  36  60  94 130 170 214 267 336 398
#     4  12  24  38  62  93 125 178 218 266 331 403
#     4  11  21  34  58  93 134 161 213 262 331 398
#     4  11  23  42  67  90 122 175 218 275 324 401
#
# _framework density 20.468378000000001
#
# number of rings (size 3 to 8) (size 9 to 14) (size 15 to 20)
#    0.000    1.200    4.000    3.600    1.867    1.067 
#    0.000    0.000    8.800    0.000    0.000    0.000 
#    0.000    0.000    0.000    0.000    0.000    0.000 
#
# Total GULP energy -743358.230508 kJ/mol
# GULP energy per Si atom -12389.303842 kJ/mol
# Density = 2.042179 g / cm^3
# Si number density = 20.468378 Si / 1000 Ang^3
#
#
#
# Elastic Constant Matrix: (Units=GPa)
#
#
# Indices 1 2 3 4 5 6 
#
# 1 99.7270 44.3430 44.7005 0.0000 0.0000 4.1286
# 2 44.3430 99.7270 44.7005 0.0000 0.0000 -4.1286
# 3 44.7005 44.7005 93.0424 0.0000 0.0000 0.0000
# 4 0.0000 0.0000 0.0000 27.6519 0.0000 0.0000
# 5 0.0000 0.0000 0.0000 0.0000 27.6519 0.0000
# 6 4.1286 -4.1286 0.0000 0.0000 0.0000 21.5124
#
#
#
# Elastic Compliance Matrix: (Units=1/GPa)
#
#
# Indices 1 2 3 4 5 6 
#
# 1 0.014238 -0.004349 -0.004751 0.000000 0.000000 -0.003567
# 2 -0.004349 0.014238 -0.004751 0.000000 0.000000 0.003567
# 3 -0.004751 -0.004751 0.015313 0.000000 0.000000 0.000000
# 4 0.000000 0.000000 0.000000 0.036164 0.000000 0.000000
# 5 0.000000 0.000000 0.000000 0.000000 0.036164 0.000000
# 6 -0.003567 0.003567 0.000000 0.000000 0.000000 0.047854
#
#
# Mechanical properties :
#
#
# Convention : Reuss Voigt Hill
#
# Bulk Modulus (GPa) = 62.16169 62.22046 62.19108
# Shear Modulus (GPa) = 25.37595 25.94675 25.66135
#
# Velocity S-wave (km/s) = 3.52485 3.56427 3.54461
# Velocity P-wave (km/s) = 6.85577 6.88499 6.87039
#
# Compressibility (1/GPa) = 0.01608708
#
# Stress axis : x y z
#
# Youngs Moduli (GPa) = 70.23219 70.23219 65.30401
#
# Poissons Ratio (x) = 0.30545 0.31027
# Poissons Ratio (y) = 0.30545 0.31027
# Poissons Ratio (z) = 0.33368 0.33368
#
# Static dielectric constant tensor:
#      x y z
#    x 3.322900 0.000000 0.000000 
#    y 0.000000 3.322900 0.000000 
#    z 0.000000 0.000000 3.612430 
# 
# 
# High freq. dielectric constant tensor:
#      x y z
#    x 1.784580 0.000000 0.000000 
#    y 0.000000 1.784580 0.000000 
#    z 0.000000 0.000000 1.806680 
# 
# From -- ./inp_files/3377.got.cif
#   From: 2010.03.12/outbox.cif.g09.slc.cpg/sg88_2_cif.got.tgz:3377.got - 2010.04.08 20:20:55.
