data_PCOD8304922
_publ_section_title
;
Structure prediction by ZEFSAII (Michael W. Deem and Ramdas Pophale) SiO2 
 PCOD8304922
Probable space group: P 41 2 2
;
_chemical_formula_sum "Si O2"
_cell_formula_units_Z 48
_cell_length_a 11.451913
_cell_length_b 11.451913
_cell_length_c 15.958329
_cell_angle_alpha 90.000000
_cell_angle_beta 90.000000
_cell_angle_gamma 90.000000
_cell_volume 2092.875984
_symmetry_space_group_name_H-M "P 41 2 2"
_symmetry_group_IT_number 91
_symmetry_cell_setting 'tetragonal'
loop_
_space_group_symop_operation_xyz
x,y,z
-y,x,1/4+z
-x,-y,1/2+z
y,-x,3/4+z
x,-y,1/2-z
-x,y,-z
y,x,3/4-z
-y,-x,1/4-z
loop_
_atom_site_type_symbol
_atom_site_label
_atom_site_fract_x
_atom_site_fract_y
_atom_site_fract_z
Si Si1 0.213813 0.021801 0.569511
Si Si2 0.865181 0.497086 0.482643
Si Si3 0.274213 0.724296 0.988073
Si Si4 0.807589 0.360945 0.170998
Si Si5 0.631955 0.671561 0.188286
Si Si6 0.394045 0.394045 0.375000
Si Si7 0.000000 0.118808 0.000000
O O1 0.232819 0.143467 0.521379
O O2 0.198218 0.037929 0.670199
O O3 0.323005 0.936984 0.549629
O O4 0.102842 0.966101 0.525964
O O5 0.830203 0.366253 0.512588
O O6 0.824465 0.524454 0.386682
O O7 0.803701 0.599251 0.536463
O O8 0.000000 0.514309 0.500000
O O9 0.314072 0.671033 0.901807
O O10 0.377036 0.712978 0.058013
O O11 0.751814 0.248187 0.125000
O O12 0.720819 0.391946 0.247554
O O13 0.509983 0.602705 0.181458
#
# Coordination Sequence:
#
# PCOD8304922 Si02
#       7
#     8   8   8   8   8   4   4
#     4  11  22  38  68 100 142 180 239 288 361 433
#     4  10  23  42  66 100 148 185 222 300 365 425
#     4  11  24  42  67 100 138 191 239 287 364 445
#     4  10  20  40  70 105 133 178 238 300 358 427
#     4  10  22  45  70 100 133 182 244 288 362 430
#     4  10  24  48  68  96 140 190 234 304 368 418
#     4  10  22  38  60 104 136 192 226 302 356 424
#
# _framework density 22.934947000000001
#
# number of rings (size 3 to 8) (size 9 to 14) (size 15 to 20)
#    0.000    1.667    1.667    2.500    4.667    2.000 
#   22.500    0.000    0.000    0.000    0.000    0.000 
#    0.000    0.000    0.000    0.000    0.000    0.000 
#
# Total GULP energy -594856.231946 kJ/mol
# GULP energy per Si atom -12392.838166 kJ/mol
# Density = 2.288275 g / cm^3
# Si number density = 22.934947 Si / 1000 Ang^3
#
#
#
# Elastic Constant Matrix: (Units=GPa)
#
#
# Indices 1 2 3 4 5 6 
#
# 1 110.1350 38.5674 43.5865 0.0000 0.0000 0.0000
# 2 38.5674 110.1351 43.5867 0.0000 0.0000 0.0000
# 3 43.5865 43.5867 133.4381 0.0000 0.0000 0.0000
# 4 0.0000 0.0000 0.0000 32.3574 0.0000 0.0000
# 5 0.0000 0.0000 0.0000 0.0000 32.3572 0.0000
# 6 0.0000 0.0000 0.0000 0.0000 0.0000 10.0979
#
#
#
# Elastic Compliance Matrix: (Units=1/GPa)
#
#
# Indices 1 2 3 4 5 6 
#
# 1 0.011145 -0.002828 -0.002717 0.000000 0.000000 0.000000
# 2 -0.002828 0.011145 -0.002717 0.000000 0.000000 0.000000
# 3 -0.002717 -0.002717 0.009269 0.000000 0.000000 0.000000
# 4 0.000000 0.000000 0.000000 0.030905 0.000000 0.000000
# 5 0.000000 0.000000 0.000000 0.000000 0.030905 0.000000
# 6 0.000000 0.000000 0.000000 0.000000 0.000000 0.099030
#
#
# Mechanical properties :
#
#
# Convention : Reuss Voigt Hill
#
# Bulk Modulus (GPa) = 66.50432 67.24326 66.87379
# Shear Modulus (GPa) = 23.37164 30.16034 26.76599
#
# Velocity S-wave (km/s) = 3.19570 3.63028 3.41990
# Velocity P-wave (km/s) = 6.53273 6.85235 6.69445
#
# Compressibility (1/GPa) = 0.01503662
#
# Stress axis : x y z
#
# Youngs Moduli (GPa) = 89.72507 89.72501 107.88655
#
# Poissons Ratio (x) = 0.25371 0.29311
# Poissons Ratio (y) = 0.25371 0.29311
# Poissons Ratio (z) = 0.24377 0.24377
#
# Static dielectric constant tensor:
#      x y z
#    x 4.039030 0.000000 0.000000 
#    y 0.000000 4.039030 0.000000 
#    z 0.000000 0.000000 4.442760 
# 
# 
# High freq. dielectric constant tensor:
#      x y z
#    x 1.902120 0.000000 0.000000 
#    y 0.000000 1.902120 0.000000 
#    z 0.000000 0.000000 1.911240 
# 
# From -- ./inp_files/21135.got.cif
#   From: 2010.03.12/outbox.cif.g09.slc.cpg/sg91_11_cif.got.tgz:21135.got - 2010.04.08 20:27:58.
