data_PCOD8304685
_publ_section_title
;
Structure prediction by ZEFSAII (Michael W. Deem and Ramdas Pophale) SiO2 
 PCOD8304685
Probable space group: P 4 21 2
;
_chemical_formula_sum "Si O2"
_cell_formula_units_Z 28
_cell_length_a 8.225199
_cell_length_b 8.225199
_cell_length_c 19.225486
_cell_angle_alpha 90.000000
_cell_angle_beta 90.000000
_cell_angle_gamma 90.000000
_cell_volume 1300.679080
_symmetry_space_group_name_H-M "P 4 21 2"
_symmetry_group_IT_number 90
_symmetry_cell_setting 'tetragonal'
loop_
_space_group_symop_operation_xyz
x,y,z
1/2-y,1/2+x,z
-x,-y,z
1/2+y,1/2-x,z
1/2+x,1/2-y,-z
1/2-x,1/2+y,-z
y,x,-z
-y,-x,-z
loop_
_atom_site_type_symbol
_atom_site_label
_atom_site_fract_x
_atom_site_fract_y
_atom_site_fract_z
Si Si1 0.574148 0.255943 0.212151
Si Si2 0.759518 0.080339 0.564160
Si Si3 0.742325 0.429812 0.942427
Si Si4 0.000000 0.000000 0.678185
O O1 0.389956 0.198066 0.221830
O O2 0.594478 0.332304 0.134938
O O3 0.609633 0.386079 0.272125
O O4 0.606769 0.201629 0.562758
O O5 0.876872 0.123129 0.500000
O O6 0.872510 0.103661 0.632026
O O7 0.804318 0.611101 0.952742
O O8 0.605313 0.394688 0.000000
#
# Coordination Sequence:
#
# PCOD8304685 Si02
#       4
#     8   8   8   4
#     4   9  20  37  55  80 115 152 190 234 287 348
#     4  11  24  42  64  91 122 155 196 245 295 353
#     4   9  19  35  54  78 108 143 188 237 283 337
#     4  12  21  36  61  88 116 152 194 238 289 346
#
# _framework density 21.527215000000002
#
# number of rings (size 3 to 8) (size 9 to 14) (size 15 to 20)
#    0.000    2.000    0.000    5.571    0.000    5.143 
#    0.000    2.857    0.000    3.429    0.000    0.000 
#    0.000    0.000    0.000    0.000    0.000    0.000 
#
# Total GULP energy -347139.710447 kJ/mol
# GULP energy per Si atom -12397.846802 kJ/mol
# Density = 2.147822 g / cm^3
# Si number density = 21.527215 Si / 1000 Ang^3
#
#
#
# Elastic Constant Matrix: (Units=GPa)
#
#
# Indices 1 2 3 4 5 6 
#
# 1 71.0503 33.2875 59.2335 0.0000 0.0000 0.0000
# 2 33.2875 71.0496 59.2331 0.0000 0.0000 0.0000
# 3 59.2335 59.2331 190.8305 0.0000 0.0000 0.0000
# 4 0.0000 0.0000 0.0000 37.5360 0.0000 0.0000
# 5 0.0000 0.0000 0.0000 0.0000 37.5361 0.0000
# 6 0.0000 0.0000 0.0000 0.0000 0.0000 34.1825
#
#
#
# Elastic Compliance Matrix: (Units=1/GPa)
#
#
# Indices 1 2 3 4 5 6 
#
# 1 0.020641 -0.005840 -0.004594 0.000000 0.000000 0.000000
# 2 -0.005840 0.020641 -0.004594 0.000000 0.000000 0.000000
# 3 -0.004594 -0.004594 0.008092 0.000000 0.000000 0.000000
# 4 0.000000 0.000000 0.000000 0.026641 0.000000 0.000000
# 5 0.000000 0.000000 0.000000 0.000000 0.026641 0.000000
# 6 0.000000 0.000000 0.000000 0.000000 0.000000 0.029255
#
#
# Mechanical properties :
#
#
# Convention : Reuss Voigt Hill
#
# Bulk Modulus (GPa) = 51.76799 70.71540 61.24169
# Shear Modulus (GPa) = 29.69002 33.92933 31.80967
#
# Velocity S-wave (km/s) = 3.71777 3.97434 3.84819
# Velocity P-wave (km/s) = 6.52142 7.34718 6.94658
#
# Compressibility (1/GPa) = 0.01931696
#
# Stress axis : x y z
#
# Youngs Moduli (GPa) = 48.44780 48.44740 123.57608
#
# Poissons Ratio (x) = 0.28296 0.56771
# Poissons Ratio (y) = 0.28296 0.56771
# Poissons Ratio (z) = 0.22257 0.22257
#
# Static dielectric constant tensor:
#      x y z
#    x 3.721150 0.000000 0.000000 
#    y 0.000000 3.721150 0.000000 
#    z 0.000000 0.000000 4.059780 
# 
# 
# High freq. dielectric constant tensor:
#      x y z
#    x 1.836850 0.000000 0.000000 
#    y 0.000000 1.836850 0.000000 
#    z 0.000000 0.000000 1.859840 
# 
# From -- ./inp_files/2593.got.cif
#   From: 2010.03.12/outbox.cif.g09.slc.cpg/sg90_2_cif.got.tgz:2593.got - 2010.04.08 20:26:03.
