data_PCOD8304691
_publ_section_title
;
Structure prediction by ZEFSAII (Michael W. Deem and Ramdas Pophale) SiO2 
 PCOD8304691
Probable space group: P 4 21 2
;
_chemical_formula_sum "Si O2"
_cell_formula_units_Z 40
_cell_length_a 18.993469
_cell_length_b 18.993469
_cell_length_c 4.884973
_cell_angle_alpha 90.000000
_cell_angle_beta 90.000000
_cell_angle_gamma 90.000000
_cell_volume 1762.263119
_symmetry_space_group_name_H-M "P 4 21 2"
_symmetry_group_IT_number 90
_symmetry_cell_setting 'tetragonal'
loop_
_space_group_symop_operation_xyz
x,y,z
1/2-y,1/2+x,z
-x,-y,z
1/2+y,1/2-x,z
1/2+x,1/2-y,-z
1/2-x,1/2+y,-z
y,x,-z
-y,-x,-z
loop_
_atom_site_type_symbol
_atom_site_label
_atom_site_fract_x
_atom_site_fract_y
_atom_site_fract_z
Si Si1 0.332133 0.733380 0.252907
Si Si2 0.943781 0.170623 0.038316
Si Si3 0.324022 0.890155 0.040495
Si Si4 0.937885 0.404172 0.459369
Si Si5 0.961157 0.846962 0.561786
O O1 0.276428 0.723573 0.500000
O O2 0.409410 0.719960 0.385084
O O3 0.321024 0.678977 0.000000
O O4 0.320763 0.809707 0.129803
O O5 0.927577 0.249104 0.936162
O O6 0.978829 0.170587 0.338511
O O7 0.871552 0.128449 0.000000
O O8 0.999997 0.134646 0.841092
O O9 0.348736 0.896053 0.727176
O O10 0.381056 0.929866 0.226553
O O11 0.904071 0.479561 0.398287
O O12 0.915875 0.915875 0.500000
#
# Coordination Sequence:
#
# PCOD8304691 Si02
#       5
#     8   8   8   8   8
#     4  11  24  45  71 104 144 182 235 293 352 425
#     4  12  27  45  70 105 144 183 239 297 360 424
#     4  12  26  43  76 101 142 186 231 288 360 420
#     4  11  26  46  67 103 142 182 233 286 346 428
#     4  11  25  46  72 103 139 187 240 292 346 425
#
# _framework density 22.698084999999999
#
# number of rings (size 3 to 8) (size 9 to 14) (size 15 to 20)
#    0.000    0.600    0.000    7.800    8.400    5.600 
#    0.000    0.000    0.000    0.000    0.000    0.000 
#    0.000    0.000    0.000    0.000    0.000    0.000 
#
# Total GULP energy -496126.923310 kJ/mol
# GULP energy per Si atom -12403.173083 kJ/mol
# Density = 2.264642 g / cm^3
# Si number density = 22.698085 Si / 1000 Ang^3
#
#
#
# Elastic Constant Matrix: (Units=GPa)
#
#
# Indices 1 2 3 4 5 6 
#
# 1 84.3813 51.3517 27.3674 0.0000 0.0000 0.0000
# 2 51.3517 84.3796 27.3683 0.0000 0.0000 0.0000
# 3 27.3674 27.3683 96.7718 0.0000 0.0000 0.0000
# 4 0.0000 0.0000 0.0000 38.5569 0.0000 0.0000
# 5 0.0000 0.0000 0.0000 0.0000 38.5620 0.0000
# 6 0.0000 0.0000 0.0000 0.0000 0.0000 31.0362
#
#
#
# Elastic Compliance Matrix: (Units=1/GPa)
#
#
# Indices 1 2 3 4 5 6 
#
# 1 0.019296 -0.010980 -0.002352 0.000000 0.000000 0.000000
# 2 -0.010980 0.019297 -0.002352 0.000000 0.000000 0.000000
# 3 -0.002352 -0.002352 0.011664 0.000000 0.000000 0.000000
# 4 0.000000 0.000000 0.000000 0.025936 0.000000 0.000000
# 5 0.000000 0.000000 0.000000 0.000000 0.025932 0.000000
# 6 0.000000 0.000000 0.000000 0.000000 0.000000 0.032220
#
#
# Mechanical properties :
#
#
# Convention : Reuss Voigt Hill
#
# Bulk Modulus (GPa) = 52.94275 53.07862 53.01068
# Shear Modulus (GPa) = 29.06829 32.26070 30.66449
#
# Velocity S-wave (km/s) = 3.58250 3.77410 3.67955
# Velocity P-wave (km/s) = 6.36300 6.51361 6.43875
#
# Compressibility (1/GPa) = 0.01888833
#
# Stress axis : x y z
#
# Youngs Moduli (GPa) = 51.82433 51.82280 85.73536
#
# Poissons Ratio (x) = 0.56903 0.20161
# Poissons Ratio (y) = 0.56905 0.20165
# Poissons Ratio (z) = 0.12187 0.12189
#
# Static dielectric constant tensor:
#      x y z
#    x 4.056670 0.000000 0.000000 
#    y 0.000000 4.056680 0.000000 
#    z 0.000000 0.000000 4.018370 
# 
# 
# High freq. dielectric constant tensor:
#      x y z
#    x 1.898790 0.000000 0.000000 
#    y 0.000000 1.898790 0.000000 
#    z 0.000000 0.000000 1.916070 
# 
# From -- ./inp_files/442.got.cif
#   From: 2010.03.12/outbox.cif.g09.slc.cpg/sg90_1_cif.got.tgz:442.got - 2010.04.08 20:26:03.
