data_PCOD8304022
_publ_section_title
;
Structure prediction by ZEFSAII (Michael W. Deem and Ramdas Pophale) SiO2 
 PCOD8304022
Probable space group: I 4/M
;
_chemical_formula_sum "Si O2"
_cell_formula_units_Z 112
_cell_length_a 15.372200
_cell_length_b 15.372200
_cell_length_c 21.711139
_cell_angle_alpha 90.000000
_cell_angle_beta 90.000000
_cell_angle_gamma 90.000000
_cell_volume 5130.440559
_symmetry_space_group_name_H-M "I 4/M"
_symmetry_group_IT_number 87
_symmetry_cell_setting 'tetragonal'
loop_
_space_group_symop_operation_xyz
x,y,z
-y,x,z
-x,-y,z
y,-x,z
-x,-y,-z
y,-x,-z
x,y,-z
-y,x,-z
1/2+x,1/2+y,1/2+z
1/2-y,1/2+x,1/2+z
1/2-x,1/2-y,1/2+z
1/2+y,1/2-x,1/2+z
1/2-x,1/2-y,1/2-z
1/2+y,1/2-x,1/2-z
1/2+x,1/2+y,1/2-z
1/2-y,1/2+x,1/2-z
loop_
_atom_site_type_symbol
_atom_site_label
_atom_site_fract_x
_atom_site_fract_y
_atom_site_fract_z
Si Si1 0.359511 0.508933 0.070764
Si Si2 0.546302 0.819197 0.874253
Si Si3 0.815765 0.576643 0.569394
Si Si4 0.153637 0.196419 0.928745
Si Si5 0.647796 0.774319 0.246993
Si Si6 0.360317 0.896448 0.130653
Si Si7 0.626971 0.438369 0.683653
O O1 0.409172 0.420166 0.085818
O O2 0.277371 0.512804 0.114585
O O3 0.330270 0.511051 0.000000
O O4 0.603313 0.857102 0.929921
O O5 0.610963 0.818120 0.815212
O O6 0.462780 0.881939 0.874812
O O7 0.803049 0.540882 0.500000
O O8 0.734349 0.636080 0.589952
O O9 0.834517 0.496354 0.614966
O O10 0.167276 0.299499 0.912428
O O11 0.074193 0.166984 0.884886
O O12 0.128063 0.185136 0.000000
O O13 0.750000 0.750000 0.250000
O O14 0.625721 0.844323 0.298672
O O15 0.594281 0.687329 0.261323
O O16 0.615134 0.539621 0.691655
#
# Coordination Sequence:
#
# PCOD8304022 Si02
#       7
#    16  16  16  16  16  16  16
#     4   9  21  41  65  98 138 175 220 281 341 407
#     4  12  26  41  72  97 133 181 233 281 346 415
#     4  11  25  46  69 102 142 181 227 286 353 418
#     4  10  21  40  69  98 134 180 227 282 347 419
#     4  11  27  44  67  93 139 176 234 281 342 402
#     4  11  26  44  67 100 135 179 230 288 340 410
#     4  10  22  40  64  95 134 176 224 284 345 405
#
# _framework density 21.830483000000001
#
# number of rings (size 3 to 8) (size 9 to 14) (size 15 to 20)
#    0.000    1.429    0.000    5.143    8.000    4.571 
#    0.000    2.143    0.000    0.000    0.000    0.000 
#    0.000    0.000    0.000    0.000    0.000    0.000 
#
# Total GULP energy -694105.137099 kJ/mol
# GULP energy per Si atom -12394.734591 kJ/mol
# Density = 2.178080 g / cm^3
# Si number density = 21.830483 Si / 1000 Ang^3
#
#
#
# Elastic Constant Matrix: (Units=GPa)
#
#
# Indices 1 2 3 4 5 6 
#
# 1 27.9024 89.9326 15.0833 0.0000 0.0000 -35.3021
# 2 89.9326 27.9024 15.0833 0.0000 0.0000 35.3021
# 3 15.0833 15.0833 62.6306 0.0000 0.0000 0.0000
# 4 0.0000 0.0000 0.0000 26.2154 0.0000 0.0000
# 5 0.0000 0.0000 0.0000 0.0000 26.2154 0.0000
# 6 -35.3021 35.3021 0.0000 0.0000 0.0000 18.7834
#
#
#
# Elastic Compliance Matrix: (Units=1/GPa)
#
#
# Indices 1 2 3 4 5 6 
#
# 1 0.001954 0.007090 -0.002178 0.000000 0.000000 -0.009652
# 2 0.007090 0.001954 -0.002178 0.000000 0.000000 0.009652
# 3 -0.002178 -0.002178 0.017016 0.000000 0.000000 0.000000
# 4 0.000000 0.000000 0.000000 0.038146 0.000000 0.000000
# 5 0.000000 0.000000 0.000000 0.000000 0.038146 0.000000
# 6 -0.009652 0.009652 0.000000 0.000000 0.000000 0.016959
#
#
# Mechanical properties :
#
#
# Convention : Reuss Voigt Hill
#
# Bulk Modulus (GPa) = 37.89095 39.84820 38.86957
# Shear Modulus (GPa) = 42.55149 14.13190 28.34170
#
# Velocity S-wave (km/s) = 4.41974 2.54706 3.60705
# Velocity P-wave (km/s) = 6.59091 5.19068 5.93225
#
# Compressibility (1/GPa) = 0.02639153
#
# Stress axis : x y z
#
# Youngs Moduli (GPa) = 511.68791 511.68807 58.76917
#
# Poissons Ratio (x) = -3.62773 0.12800
# Poissons Ratio (y) = -3.62773 0.12800
# Poissons Ratio (z) = 1.11449 1.11449
#
# Static dielectric constant tensor:
#      x y z
#    x 4.048930 0.000000 0.000000 
#    y 0.000000 4.048930 0.000000 
#    z 0.000000 0.000000 3.813190 
# 
# 
# High freq. dielectric constant tensor:
#      x y z
#    x 1.867920 0.000000 0.000000 
#    y 0.000000 1.867920 0.000000 
#    z 0.000000 0.000000 1.852850 
# 
# From -- ./inp_files/5922.got.cif
#   From: 2010.03.12/outbox.cif.g09.slc.cpg/sg87_3_cif.got.tgz:5922.got - 2010.04.08 20:16:13.
