data_PCOD8304100
_publ_section_title
;
Structure prediction by ZEFSAII (Michael W. Deem and Ramdas Pophale) SiO2 
 PCOD8304100
Probable space group: I 4/M
;
_chemical_formula_sum "Si O2"
_cell_formula_units_Z 96
_cell_length_a 14.948621
_cell_length_b 14.948621
_cell_length_c 21.261249
_cell_angle_alpha 90.000000
_cell_angle_beta 90.000000
_cell_angle_gamma 90.000000
_cell_volume 4751.065699
_symmetry_space_group_name_H-M "I 4/M"
_symmetry_group_IT_number 87
_symmetry_cell_setting 'tetragonal'
loop_
_space_group_symop_operation_xyz
x,y,z
-y,x,z
-x,-y,z
y,-x,z
-x,-y,-z
y,-x,-z
x,y,-z
-y,x,-z
1/2+x,1/2+y,1/2+z
1/2-y,1/2+x,1/2+z
1/2-x,1/2-y,1/2+z
1/2+y,1/2-x,1/2+z
1/2-x,1/2-y,1/2-z
1/2+y,1/2-x,1/2-z
1/2+x,1/2+y,1/2-z
1/2-y,1/2+x,1/2-z
loop_
_atom_site_type_symbol
_atom_site_label
_atom_site_fract_x
_atom_site_fract_y
_atom_site_fract_z
Si Si1 0.850957 0.491862 0.245507
Si Si2 0.492478 0.757420 0.113855
Si Si3 0.681949 0.324430 0.927129
Si Si4 0.027117 0.250530 0.869956
Si Si5 0.933386 0.568445 0.069259
Si Si6 0.341465 0.689633 0.425888
O O1 0.915985 0.406629 0.253012
O O2 0.798744 0.483308 0.180767
O O3 0.770848 0.492045 0.296972
O O4 0.402017 0.699635 0.116927
O O5 0.572604 0.699391 0.087155
O O6 0.476242 0.836952 0.064365
O O7 0.767428 0.263957 0.909498
O O8 0.656601 0.311224 0.000000
O O9 0.074074 0.339538 0.895093
O O10 0.100076 0.173228 0.883846
O O11 0.936861 0.229443 0.907118
O O12 0.000000 0.500000 0.105836
O O13 0.972511 0.586690 0.000000
O O14 0.340009 0.665282 0.500000
#
# Coordination Sequence:
#
# PCOD8304100 Si02
#       6
#    16  16  16  16  16  16
#     4  11  22  40  66  95 132 172 224 279 330 393
#     4  12  24  40  63  95 130 175 218 266 334 394
#     4  11  23  41  65  95 132 172 223 280 336 394
#     4  12  24  40  63  95 130 175 218 266 334 394
#     4  11  20  36  62  91 120 157 219 284 329 367
#     4  11  23  41  65  95 132 172 223 280 336 394
#
# _framework density 20.205994
#
# number of rings (size 3 to 8) (size 9 to 14) (size 15 to 20)
#    0.000    0.667    3.333    6.000    0.000    4.667 
#    0.000    5.000    0.000    2.000    0.000    0.000 
#    0.000    0.000    0.000    0.000    0.000    0.000 
#
# Total GULP energy -595265.698013 kJ/mol
# GULP energy per Si atom -12401.368709 kJ/mol
# Density = 2.016000 g / cm^3
# Si number density = 20.205994 Si / 1000 Ang^3
#
#
#
# Elastic Constant Matrix: (Units=GPa)
#
#
# Indices 1 2 3 4 5 6 
#
# 1 104.4388 32.5205 14.4407 0.0000 0.0000 -0.4300
# 2 32.5205 104.4388 14.4407 0.0000 0.0000 0.4300
# 3 14.4407 14.4407 81.5473 0.0000 0.0000 0.0000
# 4 0.0000 0.0000 0.0000 25.3347 0.0000 0.0000
# 5 0.0000 0.0000 0.0000 0.0000 25.3347 0.0000
# 6 -0.4300 0.4300 0.0000 0.0000 0.0000 36.6115
#
#
#
# Elastic Compliance Matrix: (Units=1/GPa)
#
#
# Indices 1 2 3 4 5 6 
#
# 1 0.010746 -0.003161 -0.001343 0.000000 0.000000 0.000163
# 2 -0.003161 0.010746 -0.001343 0.000000 0.000000 -0.000163
# 3 -0.001343 -0.001343 0.012739 0.000000 0.000000 0.000000
# 4 0.000000 0.000000 0.000000 0.039472 0.000000 0.000000
# 5 0.000000 0.000000 0.000000 0.000000 0.039472 0.000000
# 6 0.000163 -0.000163 0.000000 0.000000 0.000000 0.027318
#
#
# Mechanical properties :
#
#
# Convention : Reuss Voigt Hill
#
# Bulk Modulus (GPa) = 44.37469 45.91430 45.14449
# Shear Modulus (GPa) = 31.30930 32.72435 32.01682
#
# Velocity S-wave (km/s) = 3.94065 4.02871 3.98492
# Velocity P-wave (km/s) = 6.53558 6.66432 6.60026
#
# Compressibility (1/GPa) = 0.02253537
#
# Stress axis : x y z
#
# Youngs Moduli (GPa) = 93.06093 93.06093 78.50207
#
# Poissons Ratio (x) = 0.29416 0.10544
# Poissons Ratio (y) = 0.29416 0.10544
# Poissons Ratio (z) = 0.12499 0.12499
#
# Static dielectric constant tensor:
#      x y z
#    x 3.672730 0.000000 0.000000 
#    y 0.000000 3.672730 0.000000 
#    z 0.000000 0.000000 3.700370 
# 
# 
# High freq. dielectric constant tensor:
#      x y z
#    x 1.788910 0.000000 0.000000 
#    y 0.000000 1.788910 0.000000 
#    z 0.000000 0.000000 1.788670 
# 
# From -- ./inp_files/5286.got.cif
#   From: 2010.03.12/outbox.cif.g09.slc.cpg/sg87_3_cif.got.tgz:5286.got - 2010.04.08 20:16:13.
