data_PCOD8304837
_publ_section_title
;
Structure prediction by ZEFSAII (Michael W. Deem and Ramdas Pophale) SiO2 
 PCOD8304837
Probable space group: P 41 2 2
;
_chemical_formula_sum "Si O2"
_cell_formula_units_Z 60
_cell_length_a 12.586151
_cell_length_b 12.586151
_cell_length_c 20.044932
_cell_angle_alpha 90.000000
_cell_angle_beta 90.000000
_cell_angle_gamma 90.000000
_cell_volume 3175.341672
_symmetry_space_group_name_H-M "P 41 2 2"
_symmetry_group_IT_number 91
_symmetry_cell_setting 'tetragonal'
loop_
_space_group_symop_operation_xyz
x,y,z
-y,x,1/4+z
-x,-y,1/2+z
y,-x,3/4+z
x,-y,1/2-z
-x,y,-z
y,x,3/4-z
-y,-x,1/4-z
loop_
_atom_site_type_symbol
_atom_site_label
_atom_site_fract_x
_atom_site_fract_y
_atom_site_fract_z
Si Si1 0.023456 0.552096 0.647339
Si Si2 0.204556 0.653589 0.079607
Si Si3 0.789472 0.417301 0.900640
Si Si4 0.010269 0.243261 0.217568
Si Si5 0.662602 0.888544 0.280237
Si Si6 0.022858 0.318075 0.642807
Si Si7 0.743299 0.230949 0.813436
Si Si8 0.851274 0.851274 0.375000
O O1 0.088100 0.561339 0.577702
O O2 0.900353 0.573147 0.635952
O O3 0.051490 0.647161 0.697997
O O4 0.045120 0.434553 0.675581
O O5 0.261083 0.738918 0.125000
O O6 0.254253 0.537606 0.096267
O O7 0.078421 0.666675 0.093675
O O8 0.231148 0.672762 0.002534
O O9 0.715211 0.335534 0.858479
O O10 0.803544 0.370226 0.974758
O O11 0.995416 0.233163 0.297547
O O12 0.133979 0.236989 0.204592
O O13 0.957103 0.151306 0.171477
O O14 0.755809 0.839000 0.323328
O O15 0.703966 0.000000 0.250000
O O16 0.122737 0.277303 0.602270
#
# Coordination Sequence:
#
# PCOD8304837 Si02
#       8
#     8   8   8   8   8   8   8   4
#     4   8  17  31  56  82 106 139 188 250 293 324
#     4  11  22  39  58  88 116 145 192 242 296 343
#     4   9  19  34  58  83 111 147 190 240 288 345
#     4  10  20  35  51  80 113 148 199 232 277 357
#     4   9  16  32  51  80 111 141 193 237 284 342
#     4  11  20  36  58  81 118 148 183 245 298 342
#     4  11  22  37  56  86 114 149 196 237 292 352
#     4  10  20  32  52  76 112 160 186 230 278 344
#
# _framework density 18.895606000000001
#
# number of rings (size 3 to 8) (size 9 to 14) (size 15 to 20)
#    0.000    2.133    1.333    3.200    0.000    2.667 
#    1.200    1.333    0.000    0.000   32.933    0.000 
#    0.000    0.000    0.000    0.000    0.000    0.000 
#
# Total GULP energy -743478.918541 kJ/mol
# GULP energy per Si atom -12391.315309 kJ/mol
# Density = 1.885260 g / cm^3
# Si number density = 18.895606 Si / 1000 Ang^3
#
#
#
# Elastic Constant Matrix: (Units=GPa)
#
#
# Indices 1 2 3 4 5 6 
#
# 1 87.6239 19.5529 40.8104 0.0000 0.0000 0.0000
# 2 19.5529 87.6227 40.8083 0.0000 0.0000 0.0000
# 3 40.8104 40.8083 99.3076 0.0000 0.0000 0.0000
# 4 0.0000 0.0000 0.0000 30.1323 0.0000 0.0000
# 5 0.0000 0.0000 0.0000 0.0000 30.1323 0.0000
# 6 0.0000 0.0000 0.0000 0.0000 0.0000 2.3848
#
#
#
# Elastic Compliance Matrix: (Units=1/GPa)
#
#
# Indices 1 2 3 4 5 6 
#
# 1 0.014136 -0.000555 -0.005581 0.000000 0.000000 0.000000
# 2 -0.000555 0.014135 -0.005581 0.000000 0.000000 0.000000
# 3 -0.005581 -0.005581 0.014656 0.000000 0.000000 0.000000
# 4 0.000000 0.000000 0.000000 0.033187 0.000000 0.000000
# 5 0.000000 0.000000 0.000000 0.000000 0.033187 0.000000
# 6 0.000000 0.000000 0.000000 0.000000 0.000000 0.419321
#
#
# Mechanical properties :
#
#
# Convention : Reuss Voigt Hill
#
# Bulk Modulus (GPa) = 51.29708 52.98859 52.14284
# Shear Modulus (GPa) = 8.95169 24.08873 16.52021
#
# Velocity S-wave (km/s) = 2.17893 3.57435 2.96004
# Velocity P-wave (km/s) = 5.79110 6.71851 6.27197
#
# Compressibility (1/GPa) = 0.01949429
#
# Stress axis : x y z
#
# Youngs Moduli (GPa) = 70.74363 70.74414 68.22983
#
# Poissons Ratio (x) = 0.03928 0.38078
# Poissons Ratio (y) = 0.03928 0.38076
# Poissons Ratio (z) = 0.39481 0.39479
#
# Static dielectric constant tensor:
#      x y z
#    x 3.479990 0.000000 0.000000 
#    y 0.000000 3.479990 0.000000 
#    z 0.000000 0.000000 4.062300 
# 
# 
# High freq. dielectric constant tensor:
#      x y z
#    x 1.712520 0.000000 0.000000 
#    y 0.000000 1.712520 0.000000 
#    z 0.000000 0.000000 1.752820 
# 
# From -- ./inp_files/12518.got.cif
#   From: 2010.03.12/outbox.cif.g09.slc.cpg/sg91_7_cif.got.tgz:12518.got - 2010.04.08 20:27:58.
