data_PCOD8304620
_publ_section_title
;
Structure prediction by ZEFSAII (Michael W. Deem and Ramdas Pophale) SiO2 
 PCOD8304620
Probable space group: P 4 21 2
;
_chemical_formula_sum "Si O2"
_cell_formula_units_Z 56
_cell_length_a 14.708700
_cell_length_b 14.708700
_cell_length_c 12.473413
_cell_angle_alpha 90.000000
_cell_angle_beta 90.000000
_cell_angle_gamma 90.000000
_cell_volume 2698.571209
_symmetry_space_group_name_H-M "P 4 21 2"
_symmetry_group_IT_number 90
_symmetry_cell_setting 'tetragonal'
loop_
_space_group_symop_operation_xyz
x,y,z
1/2-y,1/2+x,z
-x,-y,z
1/2+y,1/2-x,z
1/2+x,1/2-y,-z
1/2-x,1/2+y,-z
y,x,-z
-y,-x,-z
loop_
_atom_site_type_symbol
_atom_site_label
_atom_site_fract_x
_atom_site_fract_y
_atom_site_fract_z
Si Si1 0.361113 0.197723 0.136775
Si Si2 0.137372 0.154434 0.374269
Si Si3 0.273202 0.816584 0.745081
Si Si4 0.513780 0.856262 0.480547
Si Si5 0.967749 0.715468 0.738419
Si Si6 0.623563 0.084333 0.917545
Si Si7 0.939574 0.169232 0.411777
O O1 0.274820 0.260788 0.159988
O O2 0.452257 0.245851 0.181460
O O3 0.346502 0.101750 0.195525
O O4 0.370850 0.184668 0.009933
O O5 0.159399 0.159399 0.500000
O O6 0.163118 0.252363 0.326397
O O7 0.195409 0.076970 0.315008
O O8 0.030683 0.128365 0.356394
O O9 0.336025 0.891951 0.800962
O O10 0.193838 0.861930 0.673409
O O11 0.418794 0.901834 0.516598
O O12 0.513920 0.846217 0.352722
O O13 0.523155 0.759940 0.534403
O O14 0.523412 0.124882 0.928387
O O15 0.900112 0.099888 0.500000
#
# Coordination Sequence:
#
# PCOD8304620 Si02
#       7
#     8   8   8   8   8   8   8
#     4  11  22  40  66  96 130 168 217 274 331 390
#     4  11  24  42  64  92 138 177 223 270 323 402
#     4  11  25  42  66  95 134 178 215 268 335 400
#     4  11  22  36  60  92 127 164 214 274 333 388
#     4  11  21  37  64  98 127 166 218 280 329 376
#     4  11  23  42  71 100 130 163 214 279 338 395
#     4  12  25  42  64  90 133 182 227 265 321 395
#
# _framework density 20.751721
#
# number of rings (size 3 to 8) (size 9 to 14) (size 15 to 20)
#    0.000    0.857    4.286    3.429    2.000    0.571 
#    0.000    1.429    0.000    0.000    0.000    2.000 
#    0.000    0.000    0.000    0.000    0.000    0.000 
#
# Total GULP energy -694513.120023 kJ/mol
# GULP energy per Si atom -12402.020000 kJ/mol
# Density = 2.070449 g / cm^3
# Si number density = 20.751721 Si / 1000 Ang^3
#
#
#
# Elastic Constant Matrix: (Units=GPa)
#
#
# Indices 1 2 3 4 5 6 
#
# 1 89.5218 45.1876 32.5323 0.0000 0.0000 0.0000
# 2 45.1876 89.5218 32.5323 0.0000 0.0000 0.0000
# 3 32.5323 32.5323 79.7882 0.0000 0.0000 0.0000
# 4 0.0000 0.0000 0.0000 32.9092 0.0000 0.0000
# 5 0.0000 0.0000 0.0000 0.0000 32.9092 0.0000
# 6 0.0000 0.0000 0.0000 0.0000 0.0000 21.9016
#
#
#
# Elastic Compliance Matrix: (Units=1/GPa)
#
#
# Indices 1 2 3 4 5 6 
#
# 1 0.015900 -0.006656 -0.003769 0.000000 0.000000 0.000000
# 2 -0.006656 0.015900 -0.003769 0.000000 0.000000 0.000000
# 3 -0.003769 -0.003769 0.015607 0.000000 0.000000 0.000000
# 4 0.000000 0.000000 0.000000 0.030387 0.000000 0.000000
# 5 0.000000 0.000000 0.000000 0.000000 0.030387 0.000000
# 6 0.000000 0.000000 0.000000 0.000000 0.000000 0.045659
#
#
# Mechanical properties :
#
#
# Convention : Reuss Voigt Hill
#
# Bulk Modulus (GPa) = 52.58102 53.25958 52.92030
# Shear Modulus (GPa) = 26.51588 27.44928 26.98258
#
# Velocity S-wave (km/s) = 3.57847 3.64090 3.60982
# Velocity P-wave (km/s) = 6.51667 6.58755 6.55221
#
# Compressibility (1/GPa) = 0.01901827
#
# Stress axis : x y z
#
# Youngs Moduli (GPa) = 62.89346 62.89346 64.07511
#
# Poissons Ratio (x) = 0.41862 0.24150
# Poissons Ratio (y) = 0.41862 0.24150
# Poissons Ratio (z) = 0.23705 0.23705
#
# Static dielectric constant tensor:
#      x y z
#    x 3.832650 0.000000 0.000000 
#    y 0.000000 3.832650 0.000000 
#    z 0.000000 0.000000 3.656340 
# 
# 
# High freq. dielectric constant tensor:
#      x y z
#    x 1.815600 0.000000 0.000000 
#    y 0.000000 1.815600 0.000000 
#    z 0.000000 0.000000 1.804950 
# 
# From -- ./inp_files/2228.got.cif
#   From: 2010.03.12/outbox.cif.g09.slc.cpg/sg90_2_cif.got.tgz:2228.got - 2010.04.08 20:26:03.
