data_PCOD8304970
_publ_section_title
;
Structure prediction by ZEFSAII (Michael W. Deem and Ramdas Pophale) SiO2 
 PCOD8304970
Probable space group: P 41 2 2
;
_chemical_formula_sum "Si O2"
_cell_formula_units_Z 48
_cell_length_a 12.111649
_cell_length_b 12.111649
_cell_length_c 16.304690
_cell_angle_alpha 90.000000
_cell_angle_beta 90.000000
_cell_angle_gamma 90.000000
_cell_volume 2391.768262
_symmetry_space_group_name_H-M "P 41 2 2"
_symmetry_group_IT_number 91
_symmetry_cell_setting 'tetragonal'
loop_
_space_group_symop_operation_xyz
x,y,z
-y,x,1/4+z
-x,-y,1/2+z
y,-x,3/4+z
x,-y,1/2-z
-x,y,-z
y,x,3/4-z
-y,-x,1/4-z
loop_
_atom_site_type_symbol
_atom_site_label
_atom_site_fract_x
_atom_site_fract_y
_atom_site_fract_z
Si Si1 0.898665 0.552157 0.664922
Si Si2 0.008606 0.105443 0.198922
Si Si3 0.873791 0.625450 0.402302
Si Si4 0.811319 0.757360 0.255495
Si Si5 0.127999 0.420395 0.489659
Si Si6 0.763825 0.771323 0.077642
O O1 0.942891 0.500000 0.750000
O O2 0.850257 0.459072 0.603700
O O3 0.800888 0.636338 0.687361
O O4 0.995762 0.616517 0.616635
O O5 0.118968 0.163254 0.169207
O O6 0.934816 0.191966 0.250272
O O7 0.046123 0.000000 0.250000
O O8 0.930810 0.069191 0.125000
O O9 0.809154 0.652514 0.317597
O O10 0.852596 0.725706 0.465632
O O11 0.832999 0.512777 0.444511
O O12 0.778533 0.712574 0.166058
O O13 0.199188 0.310837 0.505609
O O14 0.000000 0.390624 0.500000
#
# Coordination Sequence:
#
# PCOD8304970 Si02
#       6
#     8   8   8   8   8   8
#     4  11  24  42  65  90 127 178 223 263 323 396
#     4  12  22  34  56  90 134 169 205 248 328 407
#     4  10  21  39  63  95 126 165 223 267 311 377
#     4  11  21  35  67  96 124 168 211 272 323 387
#     4  10  24  41  64  94 131 168 216 273 315 385
#     4  12  24  41  62  93 131 173 216 268 334 387
#
# _framework density 20.068833999999999
#
# number of rings (size 3 to 8) (size 9 to 14) (size 15 to 20)
#    0.000    1.000    6.667    0.500    4.667    0.667 
#    3.000    0.000    0.000    4.000    0.000    0.000 
#    0.000    0.000    0.000    0.000    0.000    0.000 
#
# Total GULP energy -595221.225237 kJ/mol
# GULP energy per Si atom -12400.442192 kJ/mol
# Density = 2.002316 g / cm^3
# Si number density = 20.068834 Si / 1000 Ang^3
#
#
#
# Elastic Constant Matrix: (Units=GPa)
#
#
# Indices 1 2 3 4 5 6 
#
# 1 74.6812 36.3799 29.2603 0.0000 0.0000 0.0000
# 2 36.3799 74.6809 29.2603 0.0000 0.0000 0.0000
# 3 29.2603 29.2603 97.1161 0.0000 0.0000 0.0000
# 4 0.0000 0.0000 0.0000 30.2782 0.0000 0.0000
# 5 0.0000 0.0000 0.0000 0.0000 30.2778 0.0000
# 6 0.0000 0.0000 0.0000 0.0000 0.0000 20.0412
#
#
#
# Elastic Compliance Matrix: (Units=1/GPa)
#
#
# Indices 1 2 3 4 5 6 
#
# 1 0.018406 -0.007703 -0.003225 0.000000 0.000000 0.000000
# 2 -0.007703 0.018406 -0.003225 0.000000 0.000000 0.000000
# 3 -0.003225 -0.003225 0.012240 0.000000 0.000000 0.000000
# 4 0.000000 0.000000 0.000000 0.033027 0.000000 0.000000
# 5 0.000000 0.000000 0.000000 0.000000 0.033027 0.000000
# 6 0.000000 0.000000 0.000000 0.000000 0.000000 0.049897
#
#
# Mechanical properties :
#
#
# Convention : Reuss Voigt Hill
#
# Bulk Modulus (GPa) = 48.19858 48.47547 48.33702
# Shear Modulus (GPa) = 24.97191 26.22461 25.59826
#
# Velocity S-wave (km/s) = 3.53131 3.61880 3.57532
# Velocity P-wave (km/s) = 6.37931 6.45507 6.41730
#
# Compressibility (1/GPa) = 0.02074750
#
# Stress axis : x y z
#
# Youngs Moduli (GPa) = 54.32994 54.32967 81.69821
#
# Poissons Ratio (x) = 0.41849 0.26346
# Poissons Ratio (y) = 0.41849 0.26346
# Poissons Ratio (z) = 0.17520 0.17520
#
# Static dielectric constant tensor:
#      x y z
#    x 3.488130 0.000000 0.000000 
#    y 0.000000 3.488130 0.000000 
#    z 0.000000 0.000000 3.793290 
# 
# 
# High freq. dielectric constant tensor:
#      x y z
#    x 1.762080 0.000000 0.000000 
#    y 0.000000 1.762080 0.000000 
#    z 0.000000 0.000000 1.792370 
# 
# From -- ./inp_files/11949.got.cif
#   From: 2010.03.12/outbox.cif.g09.slc.cpg/sg91_6_cif.got.tgz:11949.got - 2010.04.08 20:27:58.
