data_PCOD8304507
_publ_section_title
;
Structure prediction by ZEFSAII (Michael W. Deem and Ramdas Pophale) SiO2 
 PCOD8304507
Probable space group: P 4 2 2
;
_chemical_formula_sum "Si O2"
_cell_formula_units_Z 44
_cell_length_a 9.075734
_cell_length_b 9.075734
_cell_length_c 28.157416
_cell_angle_alpha 90.000000
_cell_angle_beta 90.000000
_cell_angle_gamma 90.000000
_cell_volume 2319.296724
_symmetry_space_group_name_H-M "P 4 2 2"
_symmetry_group_IT_number 89
_symmetry_cell_setting 'tetragonal'
loop_
_space_group_symop_operation_xyz
x,y,z
-y,x,z
-x,-y,z
y,-x,z
x,-y,-z
-x,y,-z
y,x,-z
-y,-x,-z
loop_
_atom_site_type_symbol
_atom_site_label
_atom_site_fract_x
_atom_site_fract_y
_atom_site_fract_z
Si Si1 0.183441 0.152719 0.554951
Si Si2 0.738729 0.478859 0.053923
Si Si3 0.624625 0.291203 0.367192
Si Si4 0.098026 0.781896 0.706172
Si Si5 0.939061 0.768354 0.184861
Si Si6 0.500000 0.000000 0.121521
O O1 0.196275 0.196275 0.500000
O O2 0.314862 0.232899 0.582583
O O3 0.018794 0.202841 0.568633
O O4 0.656625 0.631170 0.064508
O O5 0.873687 0.438576 0.087661
O O6 0.794030 0.500000 0.000000
O O7 0.699124 0.450008 0.362882
O O8 0.658989 0.175590 0.325387
O O9 0.095933 0.729287 0.760628
O O10 0.928226 0.809394 0.693930
O O11 0.919644 0.623068 0.153591
O O12 0.103521 0.823589 0.172959
#
# Coordination Sequence:
#
# PCOD8304507 Si02
#       6
#     8   8   8   8   8   4
#     4   9  19  37  60  84 108 137 178 223 264 316
#     4   9  19  35  52  74 108 146 183 223 268 327
#     4  11  24  37  51  78 113 143 174 218 269 318
#     4   9  19  37  58  76  98 134 179 219 260 318
#     4   9  20  36  52  76 108 137 170 219 273 322
#     4  12  19  30  56  84 104 136 182 227 276 328
#
# _framework density 18.971268999999999
#
# number of rings (size 3 to 8) (size 9 to 14) (size 15 to 20)
#    0.000    2.364    0.000    4.636    0.000    8.000 
#    0.000    2.727    0.000    2.182    0.000    7.636 
#    0.000    0.000    0.000    0.000    0.000    0.000 
#
# Total GULP energy -545183.376393 kJ/mol
# GULP energy per Si atom -12390.531282 kJ/mol
# Density = 1.892809 g / cm^3
# Si number density = 18.971269 Si / 1000 Ang^3
#
#
#
# Elastic Constant Matrix: (Units=GPa)
#
#
# Indices 1 2 3 4 5 6 
#
# 1 66.4090 26.0687 45.8817 0.0000 0.0000 0.0000
# 2 26.0687 66.4090 45.8817 0.0000 0.0000 0.0000
# 3 45.8817 45.8817 92.8752 0.0000 0.0000 0.0000
# 4 0.0000 0.0000 0.0000 23.7635 0.0000 0.0000
# 5 0.0000 0.0000 0.0000 0.0000 23.7635 0.0000
# 6 0.0000 0.0000 0.0000 0.0000 0.0000 26.7080
#
#
#
# Elastic Compliance Matrix: (Units=1/GPa)
#
#
# Indices 1 2 3 4 5 6 
#
# 1 0.023000 -0.001789 -0.010479 0.000000 0.000000 0.000000
# 2 -0.001789 0.023000 -0.010479 0.000000 0.000000 0.000000
# 3 -0.010479 -0.010479 0.021120 0.000000 0.000000 0.000000
# 4 0.000000 0.000000 0.000000 0.042081 0.000000 0.000000
# 5 0.000000 0.000000 0.000000 0.000000 0.042081 0.000000
# 6 0.000000 0.000000 0.000000 0.000000 0.000000 0.037442
#
#
# Mechanical properties :
#
#
# Convention : Reuss Voigt Hill
#
# Bulk Modulus (GPa) = 46.23614 51.26191 48.74903
# Shear Modulus (GPa) = 20.71021 22.03773 21.37397
#
# Velocity S-wave (km/s) = 3.30762 3.41198 3.36020
# Velocity P-wave (km/s) = 6.24593 6.52699 6.38801
#
# Compressibility (1/GPa) = 0.02162810
#
# Stress axis : x y z
#
# Youngs Moduli (GPa) = 43.47812 43.47812 47.34797
#
# Poissons Ratio (x) = 0.07778 0.49614
# Poissons Ratio (y) = 0.07778 0.49614
# Poissons Ratio (z) = 0.45559 0.45559
#
# Static dielectric constant tensor:
#      x y z
#    x 3.361040 0.000000 0.000000 
#    y 0.000000 3.361040 0.000000 
#    z 0.000000 0.000000 3.427280 
# 
# 
# High freq. dielectric constant tensor:
#      x y z
#    x 1.731770 0.000000 0.000000 
#    y 0.000000 1.731770 0.000000 
#    z 0.000000 0.000000 1.742490 
# 
# From -- ./inp_files/2940.got.cif
#   From: 2010.03.12/outbox.cif.g09.slc.cpg/sg89_2_cif.got.tgz:2940.got - 2010.04.08 20:24:03.
