data_PCOD8304114
_publ_section_title
;
Structure prediction by ZEFSAII (Michael W. Deem and Ramdas Pophale) SiO2 
 PCOD8304114
Probable space group: I 4/M
;
_chemical_formula_sum "Si O2"
_cell_formula_units_Z 72
_cell_length_a 15.087899
_cell_length_b 15.087899
_cell_length_c 15.847140
_cell_angle_alpha 90.000000
_cell_angle_beta 90.000000
_cell_angle_gamma 90.000000
_cell_volume 3607.517371
_symmetry_space_group_name_H-M "I 4/M"
_symmetry_group_IT_number 87
_symmetry_cell_setting 'tetragonal'
loop_
_space_group_symop_operation_xyz
x,y,z
-y,x,z
-x,-y,z
y,-x,z
-x,-y,-z
y,-x,-z
x,y,-z
-y,x,-z
1/2+x,1/2+y,1/2+z
1/2-y,1/2+x,1/2+z
1/2-x,1/2-y,1/2+z
1/2+y,1/2-x,1/2+z
1/2-x,1/2-y,1/2-z
1/2+y,1/2-x,1/2-z
1/2+x,1/2+y,1/2-z
1/2-y,1/2+x,1/2-z
loop_
_atom_site_type_symbol
_atom_site_label
_atom_site_fract_x
_atom_site_fract_y
_atom_site_fract_z
Si Si1 0.136786 0.500194 0.770445
Si Si2 0.857509 0.027434 0.000000
Si Si3 0.722311 0.872903 0.400562
Si Si4 0.901128 0.776302 0.161299
Si Si5 0.889068 0.905126 0.698742
O O1 0.071366 0.583581 0.787803
O O2 0.168810 0.453946 0.857038
O O3 0.223381 0.533755 0.723137
O O4 0.799706 0.036948 0.083186
O O5 0.930466 0.103305 0.000000
O O6 0.715340 0.886901 0.500000
O O7 0.681484 0.779898 0.371738
O O8 0.825354 0.865680 0.373357
O O9 0.862355 0.863568 0.209849
O O10 0.990456 0.877094 0.689038
#
# Coordination Sequence:
#
# PCOD8304114 Si02
#       5
#    16   8  16  16  16
#     4   9  20  41  67  93 125 168 211 259 324 385
#     4  11  24  40  62  95 132 163 210 261 308 383
#     4  11  23  42  66  97 130 161 215 274 317 373
#     4  11  21  43  66  95 124 169 211 262 323 377
#     4  11  23  41  66  90 124 175 215 253 316 383
#
# _framework density 19.958324000000001
#
# number of rings (size 3 to 8) (size 9 to 14) (size 15 to 20)
#    0.000    1.444    3.333    2.000    0.000    2.667 
#    2.000    3.333    0.000    0.000    0.000    0.000 
#    0.000    0.000    0.000    0.000    0.000    0.000 
#
# Total GULP energy -446233.983376 kJ/mol
# GULP energy per Si atom -12395.388427 kJ/mol
# Density = 1.991290 g / cm^3
# Si number density = 19.958324 Si / 1000 Ang^3
#
#
#
# Elastic Constant Matrix: (Units=GPa)
#
#
# Indices 1 2 3 4 5 6 
#
# 1 103.3595 31.1216 41.4081 0.0000 0.0000 1.9188
# 2 31.1216 103.3595 41.4081 0.0000 0.0000 -1.9188
# 3 41.4081 41.4081 120.2347 0.0000 0.0000 0.0000
# 4 0.0000 0.0000 0.0000 25.6085 0.0000 0.0000
# 5 0.0000 0.0000 0.0000 0.0000 25.6085 0.0000
# 6 1.9188 -1.9188 0.0000 0.0000 0.0000 37.4562
#
#
#
# Elastic Compliance Matrix: (Units=1/GPa)
#
#
# Indices 1 2 3 4 5 6 
#
# 1 0.011659 -0.002222 -0.003250 0.000000 0.000000 -0.000711
# 2 -0.002222 0.011659 -0.003250 0.000000 0.000000 0.000711
# 3 -0.003250 -0.003250 0.010556 0.000000 0.000000 0.000000
# 4 0.000000 0.000000 0.000000 0.039049 0.000000 0.000000
# 5 0.000000 0.000000 0.000000 0.000000 0.039049 0.000000
# 6 -0.000711 0.000711 0.000000 0.000000 0.000000 0.026771
#
#
# Mechanical properties :
#
#
# Convention : Reuss Voigt Hill
#
# Bulk Modulus (GPa) = 60.86444 61.64768 61.25606
# Shear Modulus (GPa) = 30.92818 31.93573 31.43195
#
# Velocity S-wave (km/s) = 3.94082 4.00449 3.97278
# Velocity P-wave (km/s) = 7.16021 7.23440 7.19740
#
# Compressibility (1/GPa) = 0.01642996
#
# Stress axis : x y z
#
# Youngs Moduli (GPa) = 85.76892 85.76892 94.73480
#
# Poissons Ratio (x) = 0.19055 0.30791
# Poissons Ratio (y) = 0.19055 0.30791
# Poissons Ratio (z) = 0.27877 0.27877
#
# Static dielectric constant tensor:
#      x y z
#    x 3.809460 0.000000 0.000000 
#    y 0.000000 3.809460 0.000000 
#    z 0.000000 0.000000 3.567010 
# 
# 
# High freq. dielectric constant tensor:
#      x y z
#    x 1.791990 0.000000 0.000000 
#    y 0.000000 1.791990 0.000000 
#    z 0.000000 0.000000 1.758940 
# 
# From -- ./inp_files/4285.got.cif
#   From: 2010.03.12/outbox.cif.g09.slc.cpg/sg87_3_cif.got.tgz:4285.got - 2010.04.08 20:16:13.
