data_PCOD8304568
_publ_section_title
;
Structure prediction by ZEFSAII (Michael W. Deem and Ramdas Pophale) SiO2 
 PCOD8304568
Probable space group: P 4 21 2
;
_chemical_formula_sum "Si O2"
_cell_formula_units_Z 36
_cell_length_a 12.315055
_cell_length_b 12.315055
_cell_length_c 10.607583
_cell_angle_alpha 90.000000
_cell_angle_beta 90.000000
_cell_angle_gamma 90.000000
_cell_volume 1608.752186
_symmetry_space_group_name_H-M "P 4 21 2"
_symmetry_group_IT_number 90
_symmetry_cell_setting 'tetragonal'
loop_
_space_group_symop_operation_xyz
x,y,z
1/2-y,1/2+x,z
-x,-y,z
1/2+y,1/2-x,z
1/2+x,1/2-y,-z
1/2-x,1/2+y,-z
y,x,-z
-y,-x,-z
loop_
_atom_site_type_symbol
_atom_site_label
_atom_site_fract_x
_atom_site_fract_y
_atom_site_fract_z
Si Si1 0.668545 0.058569 0.636488
Si Si2 0.678283 0.512765 0.150575
Si Si3 0.881304 0.118697 0.500000
Si Si4 0.859357 0.991422 0.248896
Si Si5 0.177364 0.513038 0.918499
O O1 0.566512 0.136282 0.616203
O O2 0.757482 0.100191 0.538677
O O3 0.718770 0.065382 0.776642
O O4 0.628322 0.409617 0.227072
O O5 0.579337 0.598736 0.144096
O O6 0.722373 0.475966 0.015194
O O7 0.897988 0.033670 0.385827
O O8 0.729975 0.983264 0.222659
O O9 0.114468 0.401078 0.937246
#
# Coordination Sequence:
#
# PCOD8304568 Si02
#       5
#     8   8   4   8   8
#     4  10  22  39  61  90 123 166 221 275 329 398
#     4  10  21  39  64  91 124 162 210 267 328 395
#     4  10  24  43  64  91 130 174 220 279 338 392
#     4  10  23  40  62  92 124 166 217 266 324 396
#     4  11  24  40  61  94 134 171 211 267 333 400
#
# _framework density 22.377590000000001
#
# number of rings (size 3 to 8) (size 9 to 14) (size 15 to 20)
#    0.000    1.778    0.000    2.667    0.000   21.333 
#    0.000    2.222    0.000    0.000    0.000    0.000 
#    0.000    0.000    0.000    0.000    0.000    0.000 
#
# Total GULP energy -446140.459609 kJ/mol
# GULP energy per Si atom -12392.790545 kJ/mol
# Density = 2.232666 g / cm^3
# Si number density = 22.377590 Si / 1000 Ang^3
#
#
#
# Elastic Constant Matrix: (Units=GPa)
#
#
# Indices 1 2 3 4 5 6 
#
# 1 124.3410 45.7622 48.3397 0.0000 0.0000 0.0000
# 2 45.7622 124.3420 48.3399 0.0000 0.0000 0.0000
# 3 48.3397 48.3399 103.2874 0.0000 0.0000 0.0000
# 4 0.0000 0.0000 0.0000 29.7398 0.0000 0.0000
# 5 0.0000 0.0000 0.0000 0.0000 29.7396 0.0000
# 6 0.0000 0.0000 0.0000 0.0000 0.0000 19.2449
#
#
#
# Elastic Compliance Matrix: (Units=1/GPa)
#
#
# Indices 1 2 3 4 5 6 
#
# 1 0.010368 -0.002358 -0.003748 0.000000 0.000000 0.000000
# 2 -0.002358 0.010368 -0.003748 0.000000 0.000000 0.000000
# 3 -0.003748 -0.003748 0.013190 0.000000 0.000000 0.000000
# 4 0.000000 0.000000 0.000000 0.033625 0.000000 0.000000
# 5 0.000000 0.000000 0.000000 0.000000 0.033625 0.000000
# 6 0.000000 0.000000 0.000000 0.000000 0.000000 0.051962
#
#
# Mechanical properties :
#
#
# Convention : Reuss Voigt Hill
#
# Bulk Modulus (GPa) = 70.34773 70.76156 70.55465
# Shear Modulus (GPa) = 28.15531 29.71343 28.93437
#
# Velocity S-wave (km/s) = 3.55095 3.64788 3.59974
# Velocity P-wave (km/s) = 6.95106 7.03086 6.99107
#
# Compressibility (1/GPa) = 0.01421510
#
# Stress axis : x y z
#
# Youngs Moduli (GPa) = 96.45395 96.45478 75.81313
#
# Poissons Ratio (x) = 0.22748 0.28418
# Poissons Ratio (y) = 0.22748 0.28418
# Poissons Ratio (z) = 0.36155 0.36155
#
# Static dielectric constant tensor:
#      x y z
#    x 4.020400 0.000000 0.000000 
#    y 0.000000 4.020400 0.000000 
#    z 0.000000 0.000000 3.927270 
# 
# 
# High freq. dielectric constant tensor:
#      x y z
#    x 1.886390 0.000000 0.000000 
#    y 0.000000 1.886390 0.000000 
#    z 0.000000 0.000000 1.870880 
# 
# From -- ./inp_files/1955.got.cif
#   From: 2010.03.12/outbox.cif.g09.slc.cpg/sg90_1_cif.got.tgz:1955.got - 2010.04.08 20:26:03.
