data_PCOD8304604
_publ_section_title
;
Structure prediction by ZEFSAII (Michael W. Deem and Ramdas Pophale) SiO2 
 PCOD8304604
Probable space group: P 4 21 2
;
_chemical_formula_sum "Si O2"
_cell_formula_units_Z 26
_cell_length_a 14.491945
_cell_length_b 14.491945
_cell_length_c 5.169808
_cell_angle_alpha 90.000000
_cell_angle_beta 90.000000
_cell_angle_gamma 90.000000
_cell_volume 1085.744826
_symmetry_space_group_name_H-M "P 4 21 2"
_symmetry_group_IT_number 90
_symmetry_cell_setting 'tetragonal'
loop_
_space_group_symop_operation_xyz
x,y,z
1/2-y,1/2+x,z
-x,-y,z
1/2+y,1/2-x,z
1/2+x,1/2-y,-z
1/2-x,1/2+y,-z
y,x,-z
-y,-x,-z
loop_
_atom_site_type_symbol
_atom_site_label
_atom_site_fract_x
_atom_site_fract_y
_atom_site_fract_z
Si Si1 0.883686 0.728393 0.981627
Si Si2 0.171217 0.949156 0.823736
Si Si3 0.500000 0.500000 0.500000
Si Si4 0.163990 0.688360 0.476642
O O1 0.868950 0.655642 0.744902
O O2 0.801914 0.801914 0.000000
O O3 0.883746 0.666449 0.240596
O O4 0.982740 0.778899 0.973075
O O5 0.088292 0.003358 0.686231
O O6 0.236405 0.915168 0.588209
O O7 0.137247 0.862754 0.000000
O O8 0.262316 0.737685 0.500000
#
# Coordination Sequence:
#
# PCOD8304604 Si02
#       4
#     8   8   2   8
#     4  10  23  40  64  97 141 191 240 284 361 445
#     4  12  25  42  68 108 155 188 242 312 384 426
#     4  12  26  36  68 114 156 196 220 318 394 436
#     4  10  22  41  63  93 142 195 233 283 356 450
#
# _framework density 23.946697
#
# number of rings (size 3 to 8) (size 9 to 14) (size 15 to 20)
#    0.000    1.231    1.538    5.077   10.769    0.000 
#    0.000    0.000    0.000    0.923    0.000   12.923 
#    9.231    0.000    0.000    0.000    0.000    0.000 
#
# Total GULP energy -322265.820210 kJ/mol
# GULP energy per Si atom -12394.839239 kJ/mol
# Density = 2.389219 g / cm^3
# Si number density = 23.946697 Si / 1000 Ang^3
#
#
#
# Elastic Constant Matrix: (Units=GPa)
#
#
# Indices 1 2 3 4 5 6 
#
# 1 76.6916 68.4310 64.6521 0.0000 0.0000 0.0000
# 2 68.4310 76.6929 64.6516 0.0000 0.0000 0.0000
# 3 64.6521 64.6516 207.0884 0.0000 0.0000 0.0000
# 4 0.0000 0.0000 0.0000 35.1925 0.0000 0.0000
# 5 0.0000 0.0000 0.0000 0.0000 35.1921 0.0000
# 6 0.0000 0.0000 0.0000 0.0000 0.0000 50.9365
#
#
#
# Elastic Compliance Matrix: (Units=1/GPa)
#
#
# Indices 1 2 3 4 5 6 
#
# 1 0.065297 -0.055750 -0.002981 0.000000 0.000000 0.000000
# 2 -0.055750 0.065296 -0.002980 0.000000 0.000000 0.000000
# 3 -0.002981 -0.002980 0.006690 0.000000 0.000000 0.000000
# 4 0.000000 0.000000 0.000000 0.028415 0.000000 0.000000
# 5 0.000000 0.000000 0.000000 0.000000 0.028415 0.000000
# 6 0.000000 0.000000 0.000000 0.000000 0.000000 0.019632
#
#
# Mechanical properties :
#
#
# Convention : Reuss Voigt Hill
#
# Bulk Modulus (GPa) = 72.14548 83.99358 78.06953
# Shear Modulus (GPa) = 14.62897 35.11344 24.87121
#
# Velocity S-wave (km/s) = 2.47431 3.83341 3.22624
# Velocity P-wave (km/s) = 6.19321 7.39897 6.82278
#
# Compressibility (1/GPa) = 0.01386088
#
# Stress axis : x y z
#
# Youngs Moduli (GPa) = 15.31455 15.31497 149.48412
#
# Poissons Ratio (x) = 0.85382 0.44556
# Poissons Ratio (y) = 0.85379 0.44543
# Poissons Ratio (z) = 0.04565 0.04564
#
# Static dielectric constant tensor:
#      x y z
#    x 3.994320 0.000000 0.000000 
#    y 0.000000 3.994310 0.000000 
#    z 0.000000 0.000000 4.963580 
# 
# 
# High freq. dielectric constant tensor:
#      x y z
#    x 1.914900 0.000000 0.000000 
#    y 0.000000 1.914900 0.000000 
#    z 0.000000 0.000000 1.975740 
# 
# From -- ./inp_files/274.got.cif
#   From: 2010.03.12/outbox.cif.g09.slc.cpg/sg90_1_cif.got.tgz:274.got - 2010.04.08 20:26:03.
