data_PCOD8304458
_publ_section_title
;
Structure prediction by ZEFSAII (Michael W. Deem and Ramdas Pophale) SiO2 
 PCOD8304458
Probable space group: I 41/A
;
_chemical_formula_sum "Si O2"
_cell_formula_units_Z 80
_cell_length_a 18.674993
_cell_length_b 18.674993
_cell_length_c 12.670300
_cell_angle_alpha 90.000000
_cell_angle_beta 90.000000
_cell_angle_gamma 90.000000
_cell_volume 4418.835083
_symmetry_space_group_name_H-M "I 41/A"
_symmetry_group_IT_number 88
_space_group.IT_coordinate_system_code '2'
_symmetry_cell_setting 'tetragonal'
loop_
_space_group_symop_operation_xyz
x,y,z
3/4-y,1/4+x,1/4+z
-x,1/2-y,z
1/4+y,1/4-x,1/4+z
-x,-y,-z
1/4+y,3/4-x,3/4-z
x,1/2+y,-z
3/4-y,3/4+x,3/4-z
1/2+x,1/2+y,1/2+z
1/4-y,3/4+x,3/4+z
1/2-x,-y,1/2+z
3/4+y,3/4-x,3/4+z
1/2-x,1/2-y,1/2-z
3/4+y,1/4-x,1/4-z
1/2+x,y,1/2-z
1/4-y,1/4+x,1/4-z
loop_
_atom_site_type_symbol
_atom_site_label
_atom_site_fract_x
_atom_site_fract_y
_atom_site_fract_z
Si Si1 0.691248 0.175811 0.341292
Si Si2 0.106508 0.397859 0.421119
Si Si3 0.610024 0.242578 0.845860
Si Si4 0.424498 0.972241 0.205838
Si Si5 0.917161 0.915836 0.969257
O O1 0.731105 0.201412 0.446766
O O2 0.750521 0.150484 0.252914
O O3 0.634273 0.112119 0.372039
O O4 0.652778 0.248960 0.304502
O O5 0.031786 0.377236 0.476819
O O6 0.169173 0.388282 0.506772
O O7 0.108687 0.480302 0.387391
O O8 0.115812 0.346874 0.320324
O O9 0.566068 0.184249 0.913069
O O10 0.681964 0.255718 0.911974
#
# Coordination Sequence:
#
# PCOD8304458 Si02
#       5
#    16  16  16  16  16
#     4   9  18  34  55  76 108 142 176 224 268 320
#     4   9  17  31  53  71  99 140 165 208 257 305
#     4   9  17  30  50  75 101 128 164 207 257 310
#     4   9  17  31  52  71 102 133 165 204 258 300
#     4   9  18  34  56  77 105 143 178 222 271 319
#
# _framework density 18.104319
#
# number of rings (size 3 to 8) (size 9 to 14) (size 15 to 20)
#    0.000    3.000    0.000    0.600    0.000    0.400 
#    0.000   26.000   57.200    0.000    0.000    0.000 
#    0.000    0.000    0.000    0.000    0.000    0.000 
#
# Total GULP energy -495584.084062 kJ/mol
# GULP energy per Si atom -12389.602102 kJ/mol
# Density = 1.806311 g / cm^3
# Si number density = 18.104319 Si / 1000 Ang^3
#
#
#
# Elastic Constant Matrix: (Units=GPa)
#
#
# Indices 1 2 3 4 5 6 
#
# 1 104.0001 56.9389 53.9915 0.0000 0.0000 9.6344
# 2 56.9389 104.0001 53.9915 0.0000 0.0000 -9.6344
# 3 53.9915 53.9915 74.3593 0.0000 0.0000 0.0000
# 4 0.0000 0.0000 0.0000 35.7983 0.0000 0.0000
# 5 0.0000 0.0000 0.0000 0.0000 35.7983 0.0000
# 6 9.6344 -9.6344 0.0000 0.0000 0.0000 26.0181
#
#
#
# Elastic Compliance Matrix: (Units=1/GPa)
#
#
# Indices 1 2 3 4 5 6 
#
# 1 0.018581 -0.006465 -0.008797 0.000000 0.000000 -0.009275
# 2 -0.006465 0.018581 -0.008797 0.000000 0.000000 0.009275
# 3 -0.008797 -0.008797 0.026224 0.000000 0.000000 0.000000
# 4 0.000000 0.000000 0.000000 0.027934 0.000000 0.000000
# 5 0.000000 0.000000 0.000000 0.000000 0.027934 0.000000
# 6 -0.009275 0.009275 0.000000 0.000000 0.000000 0.045303
#
#
# Mechanical properties :
#
#
# Convention : Reuss Voigt Hill
#
# Bulk Modulus (GPa) = 65.50369 68.02257 66.76313
# Shear Modulus (GPa) = 22.96033 27.35213 25.15623
#
# Velocity S-wave (km/s) = 3.56508 3.89113 3.73166
# Velocity P-wave (km/s) = 7.29426 7.60539 7.45145
#
# Compressibility (1/GPa) = 0.01526632
#
# Stress axis : x y z
#
# Youngs Moduli (GPa) = 53.81764 53.81764 38.13345
#
# Poissons Ratio (x) = 0.34793 0.33548
# Poissons Ratio (y) = 0.34793 0.33548
# Poissons Ratio (z) = 0.47346 0.47346
#
# Static dielectric constant tensor:
#      x y z
#    x 3.419830 0.000000 0.000000 
#    y 0.000000 3.419830 0.000000 
#    z 0.000000 0.000000 3.488570 
# 
# 
# High freq. dielectric constant tensor:
#      x y z
#    x 1.691510 0.000000 0.000000 
#    y 0.000000 1.691510 0.000000 
#    z 0.000000 0.000000 1.696140 
# 
# From -- ./inp_files/3151.got.cif
#   From: 2010.03.12/outbox.cif.g09.slc.cpg/sg88_2_cif.got.tgz:3151.got - 2010.04.08 20:20:55.
