data_PCOD8304070
_publ_section_title
;
Structure prediction by ZEFSAII (Michael W. Deem and Ramdas Pophale) SiO2 
 PCOD8304070
Probable space group: I 4/M
;
_chemical_formula_sum "Si O2"
_cell_formula_units_Z 104
_cell_length_a 15.422456
_cell_length_b 15.422456
_cell_length_c 23.161186
_cell_angle_alpha 90.000000
_cell_angle_beta 90.000000
_cell_angle_gamma 90.000000
_cell_volume 5508.937865
_symmetry_space_group_name_H-M "I 4/M"
_symmetry_group_IT_number 87
_symmetry_cell_setting 'tetragonal'
loop_
_space_group_symop_operation_xyz
x,y,z
-y,x,z
-x,-y,z
y,-x,z
-x,-y,-z
y,-x,-z
x,y,-z
-y,x,-z
1/2+x,1/2+y,1/2+z
1/2-y,1/2+x,1/2+z
1/2-x,1/2-y,1/2+z
1/2+y,1/2-x,1/2+z
1/2-x,1/2-y,1/2-z
1/2+y,1/2-x,1/2-z
1/2+x,1/2+y,1/2-z
1/2-y,1/2+x,1/2-z
loop_
_atom_site_type_symbol
_atom_site_label
_atom_site_fract_x
_atom_site_fract_y
_atom_site_fract_z
Si Si1 0.748784 0.278263 0.684063
Si Si2 0.911052 0.242667 0.604721
Si Si3 0.422609 0.622586 0.000000
Si Si4 0.642720 0.507682 0.802592
Si Si5 0.398967 0.981542 0.565864
Si Si6 0.618285 0.140366 0.670414
Si Si7 0.044127 0.285645 0.224711
O O1 0.750000 0.250000 0.750000
O O2 0.832271 0.245733 0.649474
O O3 0.662797 0.233781 0.658314
O O4 0.748570 0.382627 0.681441
O O5 0.887351 0.175755 0.554395
O O6 0.992029 0.201149 0.639643
O O7 0.935402 0.338207 0.580760
O O8 0.381444 0.527170 0.000000
O O9 0.581396 0.590733 0.801585
O O10 0.704881 0.512680 0.747096
O O11 0.379907 0.952814 0.500000
O O12 0.374184 0.905445 0.609050
O O13 0.500000 0.000000 0.574320
O O14 0.664433 0.085679 0.720908
O O15 0.518122 0.151039 0.688809
#
# Coordination Sequence:
#
# PCOD8304070 Si02
#       7
#    16  16   8  16  16  16  16
#     4  10  23  38  57  89 119 154 198 249 298 351
#     4  12  22  40  60  85 121 161 202 250 297 360
#     4  11  26  40  61  92 124 164 209 241 291 372
#     4  11  21  34  57  88 124 159 193 243 307 370
#     4  11  25  42  59  86 120 159 206 252 300 357
#     4  11  23  37  61  86 117 156 200 246 297 360
#     4  11  21  37  58  86 119 153 203 246 304 356
#
# _framework density 18.878412999999998
#
# number of rings (size 3 to 8) (size 9 to 14) (size 15 to 20)
#    0.000    1.000    2.308    6.462    4.308    1.231 
#    0.000    0.000    0.000    0.000    0.000    0.000 
#    0.000    0.000    0.000    8.615    0.000    0.000 
#
# Total GULP energy -644666.201172 kJ/mol
# GULP energy per Si atom -12397.426946 kJ/mol
# Density = 1.883544 g / cm^3
# Si number density = 18.878413 Si / 1000 Ang^3
#
#
#
# Elastic Constant Matrix: (Units=GPa)
#
#
# Indices 1 2 3 4 5 6 
#
# 1 87.7581 30.5542 46.6130 0.0000 0.0000 -6.8734
# 2 30.5542 87.7581 46.6130 0.0000 0.0000 6.8734
# 3 46.6130 46.6130 113.5445 0.0000 0.0000 0.0000
# 4 0.0000 0.0000 0.0000 28.9685 0.0000 0.0000
# 5 0.0000 0.0000 0.0000 0.0000 28.9685 0.0000
# 6 -6.8734 6.8734 0.0000 0.0000 0.0000 31.1788
#
#
#
# Elastic Compliance Matrix: (Units=1/GPa)
#
#
# Indices 1 2 3 4 5 6 
#
# 1 0.015476 -0.002983 -0.005129 0.000000 0.000000 0.004069
# 2 -0.002983 0.015476 -0.005129 0.000000 0.000000 -0.004069
# 3 -0.005129 -0.005129 0.013018 0.000000 0.000000 0.000000
# 4 0.000000 0.000000 0.000000 0.034520 0.000000 0.000000
# 5 0.000000 0.000000 0.000000 0.000000 0.034520 0.000000
# 6 0.004069 -0.004069 0.000000 0.000000 0.000000 0.033867
#
#
# Mechanical properties :
#
#
# Convention : Reuss Voigt Hill
#
# Bulk Modulus (GPa) = 57.17652 59.62458 58.40055
# Shear Modulus (GPa) = 27.90328 28.84187 28.37258
#
# Velocity S-wave (km/s) = 3.84872 3.91291 3.88095
# Velocity P-wave (km/s) = 7.07832 7.21571 7.14735
#
# Compressibility (1/GPa) = 0.01748970
#
# Stress axis : x y z
#
# Youngs Moduli (GPa) = 64.61420 64.61420 76.81505
#
# Poissons Ratio (x) = 0.19273 0.39398
# Poissons Ratio (y) = 0.19273 0.39398
# Poissons Ratio (z) = 0.33141 0.33141
#
# Static dielectric constant tensor:
#      x y z
#    x 3.671430 0.000000 0.000000 
#    y 0.000000 3.671430 0.000000 
#    z 0.000000 0.000000 3.473980 
# 
# 
# High freq. dielectric constant tensor:
#      x y z
#    x 1.737970 0.000000 0.000000 
#    y 0.000000 1.737970 0.000000 
#    z 0.000000 0.000000 1.720600 
# 
# From -- ./inp_files/5899.got.cif
#   From: 2010.03.12/outbox.cif.g09.slc.cpg/sg87_3_cif.got.tgz:5899.got - 2010.04.08 20:16:13.
