data_PCOD8304890
_publ_section_title
;
Structure prediction by ZEFSAII (Michael W. Deem and Ramdas Pophale) SiO2 
 PCOD8304890
Probable space group: P 41 2 2
;
_chemical_formula_sum "Si O2"
_cell_formula_units_Z 64
_cell_length_a 11.526886
_cell_length_b 11.526886
_cell_length_c 22.800435
_cell_angle_alpha 90.000000
_cell_angle_beta 90.000000
_cell_angle_gamma 90.000000
_cell_volume 3029.473298
_symmetry_space_group_name_H-M "P 41 2 2"
_symmetry_group_IT_number 91
_symmetry_cell_setting 'tetragonal'
loop_
_space_group_symop_operation_xyz
x,y,z
-y,x,1/4+z
-x,-y,1/2+z
y,-x,3/4+z
x,-y,1/2-z
-x,y,-z
y,x,3/4-z
-y,-x,1/4-z
loop_
_atom_site_type_symbol
_atom_site_label
_atom_site_fract_x
_atom_site_fract_y
_atom_site_fract_z
Si Si1 0.776909 0.029852 0.049864
Si Si2 0.565492 0.726273 0.336522
Si Si3 0.393183 0.726193 0.077164
Si Si4 0.478342 0.883769 0.561963
Si Si5 0.177253 0.182132 0.626962
Si Si6 0.326589 0.351460 0.198292
Si Si7 0.967263 0.697999 0.822531
Si Si8 0.262395 0.133491 0.755089
O O1 0.650402 0.068556 0.070728
O O2 0.856699 0.144717 0.043726
O O3 0.830060 0.946886 0.099841
O O4 0.769759 0.960860 0.988401
O O5 0.656218 0.656218 0.375000
O O6 0.494363 0.807729 0.381262
O O7 0.466152 0.643779 0.309871
O O8 0.632872 0.795534 0.285303
O O9 0.372625 0.627376 0.125000
O O10 0.531427 0.737906 0.071694
O O11 0.327858 0.842033 0.099864
O O12 0.333040 0.691100 0.016835
O O13 0.500000 0.813919 0.500000
O O14 0.570023 0.986585 0.558128
O O15 0.245897 0.267446 0.584782
O O16 0.238389 0.185501 0.690685
O O17 0.046163 0.230703 0.631778
O O18 0.300286 0.000000 0.750000
#
# Coordination Sequence:
#
# PCOD8304890 Si02
#       8
#     8   8   8   8   8   8   8   8
#     4  10  20  41  67  96 134 177 227 280 332 425
#     4  12  24  43  65 100 141 172 229 295 353 414
#     4  11  25  47  68  95 137 178 229 281 351 421
#     4  10  20  37  67  93 126 175 225 277 337 413
#     4  11  22  42  70  99 140 176 233 283 338 419
#     4  11  25  45  69 100 132 182 230 283 351 419
#     4  10  21  40  68 101 124 181 227 274 348 404
#     4  11  26  41  66 104 138 181 226 286 359 404
#
# _framework density 21.125782999999998
#
# number of rings (size 3 to 8) (size 9 to 14) (size 15 to 20)
#    0.000    1.250    3.750    1.875    5.250    0.000 
#    6.750    0.625    0.000    0.000    0.000    0.000 
#    0.000    0.000    0.000    0.000    0.000    0.000 
#
# Total GULP energy -793540.481083 kJ/mol
# GULP energy per Si atom -12399.070017 kJ/mol
# Density = 2.107770 g / cm^3
# Si number density = 21.125783 Si / 1000 Ang^3
#
#
#
# Elastic Constant Matrix: (Units=GPa)
#
#
# Indices 1 2 3 4 5 6 
#
# 1 100.5716 40.4081 46.6152 0.0000 0.0000 0.0000
# 2 40.4081 100.5726 46.6144 0.0000 0.0000 0.0000
# 3 46.6152 46.6144 116.2911 0.0000 0.0000 0.0000
# 4 0.0000 0.0000 0.0000 34.6410 0.0000 0.0000
# 5 0.0000 0.0000 0.0000 0.0000 34.6408 0.0000
# 6 0.0000 0.0000 0.0000 0.0000 0.0000 26.8875
#
#
#
# Elastic Compliance Matrix: (Units=1/GPa)
#
#
# Indices 1 2 3 4 5 6 
#
# 1 0.013137 -0.003485 -0.003869 0.000000 0.000000 0.000000
# 2 -0.003485 0.013136 -0.003869 0.000000 0.000000 0.000000
# 3 -0.003869 -0.003869 0.011701 0.000000 0.000000 0.000000
# 4 0.000000 0.000000 0.000000 0.028868 0.000000 0.000000
# 5 0.000000 0.000000 0.000000 0.000000 0.028868 0.000000
# 6 0.000000 0.000000 0.000000 0.000000 0.000000 0.037192
#
#
# Mechanical properties :
#
#
# Convention : Reuss Voigt Hill
#
# Bulk Modulus (GPa) = 64.39687 64.96785 64.68236
# Shear Modulus (GPa) = 31.14839 31.48703 31.31771
#
# Velocity S-wave (km/s) = 3.84399 3.86483 3.85442
# Velocity P-wave (km/s) = 7.08876 7.12289 7.10584
#
# Compressibility (1/GPa) = 0.01552870
#
# Stress axis : x y z
#
# Youngs Moduli (GPa) = 76.12347 76.12489 85.46494
#
# Poissons Ratio (x) = 0.26528 0.33066
# Poissons Ratio (y) = 0.26528 0.33064
# Poissons Ratio (z) = 0.29452 0.29451
#
# Static dielectric constant tensor:
#      x y z
#    x 3.760610 0.000000 0.000000 
#    y 0.000000 3.760610 0.000000 
#    z 0.000000 0.000000 4.069030 
# 
# 
# High freq. dielectric constant tensor:
#      x y z
#    x 1.823880 0.000000 0.000000 
#    y 0.000000 1.823880 0.000000 
#    z 0.000000 0.000000 1.833580 
# 
# From -- ./inp_files/17658.got.cif
#   From: 2010.03.12/outbox.cif.g09.slc.cpg/sg91_9_cif.got.tgz:17658.got - 2010.04.08 20:27:58.
