data_PCOD8304613
_publ_section_title
;
Structure prediction by ZEFSAII (Michael W. Deem and Ramdas Pophale) SiO2 
 PCOD8304613
Probable space group: P 4 21 2
;
_chemical_formula_sum "Si O2"
_cell_formula_units_Z 64
_cell_length_a 24.063775
_cell_length_b 24.063775
_cell_length_c 5.224018
_cell_angle_alpha 90.000000
_cell_angle_beta 90.000000
_cell_angle_gamma 90.000000
_cell_volume 3025.047379
_symmetry_space_group_name_H-M "P 4 21 2"
_symmetry_group_IT_number 90
_symmetry_cell_setting 'tetragonal'
loop_
_space_group_symop_operation_xyz
x,y,z
1/2-y,1/2+x,z
-x,-y,z
1/2+y,1/2-x,z
1/2+x,1/2-y,-z
1/2-x,1/2+y,-z
y,x,-z
-y,-x,-z
loop_
_atom_site_type_symbol
_atom_site_label
_atom_site_fract_x
_atom_site_fract_y
_atom_site_fract_z
Si Si1 0.377708 0.103235 0.810457
Si Si2 0.466761 0.374953 0.967857
Si Si3 0.685063 0.867215 0.294617
Si Si4 0.465274 0.747910 0.432291
Si Si5 0.739275 0.566027 0.893937
Si Si6 0.837793 0.513223 0.194959
Si Si7 0.255760 0.307284 0.746161
Si Si8 0.037116 0.128041 0.512949
O O1 0.339208 0.121274 0.575525
O O2 0.439885 0.118564 0.716855
O O3 0.374748 0.038668 0.900986
O O4 0.359754 0.136239 0.066001
O O5 0.438926 0.313580 0.916785
O O6 0.509026 0.377910 0.207321
O O7 0.415931 0.415931 0.000000
O O8 0.496670 0.393843 0.708642
O O9 0.729829 0.916695 0.239494
O O10 0.714449 0.806956 0.301669
O O11 0.521601 0.723304 0.318269
O O12 0.484368 0.800271 0.594215
O O13 0.443195 0.691421 0.564204
O O14 0.745374 0.626361 0.771931
O O15 0.798171 0.544343 0.996860
O O16 0.292770 0.292770 0.500000
O O17 0.279729 0.279729 0.000000
O O18 0.092856 0.092856 0.500000
#
# Coordination Sequence:
#
# PCOD8304613 Si02
#       8
#     8   8   8   8   8   8   8   8
#     4  11  24  39  71  97 133 175 220 273 329 398
#     4  11  24  41  62  93 125 164 213 271 329 394
#     4  11  23  44  64  96 130 178 228 266 339 400
#     4  10  23  41  70  94 128 176 227 276 329 398
#     4  11  22  40  68  92 132 171 229 267 336 408
#     4  11  22  42  67  99 133 175 221 272 334 398
#     4  12  27  42  65 100 141 180 223 287 356 410
#     4  11  24  41  64  92 123 167 216 267 330 394
#
# _framework density 21.156692
#
# number of rings (size 3 to 8) (size 9 to 14) (size 15 to 20)
#    0.000    1.000    3.750    2.625    1.750    4.250 
#    0.000    2.500    0.000    1.500    0.000    0.000 
#    0.000    0.000    0.000    0.000    0.000    0.000 
#
# Total GULP energy -792882.553560 kJ/mol
# GULP energy per Si atom -12388.789899 kJ/mol
# Density = 2.110854 g / cm^3
# Si number density = 21.156692 Si / 1000 Ang^3
#
#
#
# Elastic Constant Matrix: (Units=GPa)
#
#
# Indices 1 2 3 4 5 6 
#
# 1 94.2834 127.5508 30.2392 0.0000 0.0000 0.0000
# 2 127.5508 94.2834 30.2392 0.0000 0.0000 0.0000
# 3 30.2392 30.2392 104.6091 0.0000 0.0000 0.0000
# 4 0.0000 0.0000 0.0000 27.8891 0.0000 0.0000
# 5 0.0000 0.0000 0.0000 0.0000 27.8891 0.0000
# 6 0.0000 0.0000 0.0000 0.0000 0.0000 -9.4970
#
#
#
# Elastic Compliance Matrix: (Units=1/GPa)
#
#
# Indices 1 2 3 4 5 6 
#
# 1 -0.012583 0.017476 -0.001415 0.000000 0.000000 0.000000
# 2 0.017476 -0.012583 -0.001415 0.000000 0.000000 0.000000
# 3 -0.001415 -0.001415 0.010377 0.000000 0.000000 0.000000
# 4 0.000000 0.000000 0.000000 0.035856 0.000000 0.000000
# 5 0.000000 0.000000 0.000000 0.000000 0.035856 0.000000
# 6 0.000000 0.000000 0.000000 0.000000 0.000000 -0.105297
#
#
# Mechanical properties :
#
#
# Convention : Reuss Voigt Hill
#
# Bulk Modulus (GPa) = 68.93700 74.35937 71.64819
# Shear Modulus (GPa) = -68.65108 16.26602 -26.19253
#
# Velocity S-wave (km/s) = -5.70257 2.77580 -3.52238
# Velocity P-wave (km/s) = 3.27175 6.74512 4.17087
#
# Compressibility (1/GPa) = 0.01450600
#
# Stress axis : x y z
#
# Youngs Moduli (GPa) = -79.47252 -79.47252 96.36505
#
# Poissons Ratio (x) = 1.38890 0.13631
# Poissons Ratio (y) = 1.38890 0.13631
# Poissons Ratio (z) = -0.11242 -0.11242
#
# Static dielectric constant tensor:
#      x y z
#    x 4.289540 0.000000 0.000000 
#    y 0.000000 4.289540 0.000000 
#    z 0.000000 0.000000 3.412650 
# 
# 
# High freq. dielectric constant tensor:
#      x y z
#    x 1.838440 0.000000 0.000000 
#    y 0.000000 1.838440 0.000000 
#    z 0.000000 0.000000 1.818560 
# 
# From -- ./inp_files/771.got.cif
#   From: 2010.03.12/outbox.cif.g09.slc.cpg/sg90_1_cif.got.tgz:771.got - 2010.04.08 20:26:03.
