data_PCOD8304088
_publ_section_title
;
Structure prediction by ZEFSAII (Michael W. Deem and Ramdas Pophale) SiO2 
 PCOD8304088
Probable space group: I 4/M
;
_chemical_formula_sum "Si O2"
_cell_formula_units_Z 72
_cell_length_a 11.773397
_cell_length_b 11.773397
_cell_length_c 26.976707
_cell_angle_alpha 90.000000
_cell_angle_beta 90.000000
_cell_angle_gamma 90.000000
_cell_volume 3739.318967
_symmetry_space_group_name_H-M "I 4/M"
_symmetry_group_IT_number 87
_symmetry_cell_setting 'tetragonal'
loop_
_space_group_symop_operation_xyz
x,y,z
-y,x,z
-x,-y,z
y,-x,z
-x,-y,-z
y,-x,-z
x,y,-z
-y,x,-z
1/2+x,1/2+y,1/2+z
1/2-y,1/2+x,1/2+z
1/2-x,1/2-y,1/2+z
1/2+y,1/2-x,1/2+z
1/2-x,1/2-y,1/2-z
1/2+y,1/2-x,1/2-z
1/2+x,1/2+y,1/2-z
1/2-y,1/2+x,1/2-z
loop_
_atom_site_type_symbol
_atom_site_label
_atom_site_fract_x
_atom_site_fract_y
_atom_site_fract_z
Si Si1 0.317382 0.543020 0.241199
Si Si2 0.989218 0.629066 0.664323
Si Si3 0.589830 0.332266 0.500000
Si Si4 0.260535 0.879807 0.846467
Si Si5 0.782666 0.601494 0.601350
O O1 0.364820 0.416262 0.232862
O O2 0.213833 0.568850 0.203760
O O3 0.266736 0.555033 0.295794
O O4 0.915627 0.625115 0.613196
O O5 0.000000 0.500000 0.685765
O O6 0.114479 0.675807 0.652992
O O7 0.651311 0.454007 0.500000
O O8 0.632823 0.256398 0.546170
O O9 0.171566 0.782368 0.856643
O O10 0.252183 0.970123 0.890946
#
# Coordination Sequence:
#
# PCOD8304088 Si02
#       5
#    16  16   8  16  16
#     4  11  23  38  60  87 117 165 211 244 282 342
#     4  10  25  38  55  84 123 166 193 234 291 360
#     4  11  22  38  67  95 113 146 199 258 311 361
#     4  11  22  37  59  87 123 157 195 244 298 350
#     4  11  22  40  60  88 121 151 194 249 303 355
#
# _framework density 19.254842
#
# number of rings (size 3 to 8) (size 9 to 14) (size 15 to 20)
#    0.000    1.222    4.444    1.333    6.222    2.222 
#    0.000    6.111    0.000    0.000    0.000    0.000 
#    0.000    5.333    0.000    0.000    0.000    0.000 
#
# Total GULP energy -446309.595763 kJ/mol
# GULP energy per Si atom -12397.488771 kJ/mol
# Density = 1.921102 g / cm^3
# Si number density = 19.254842 Si / 1000 Ang^3
#
#
#
# Elastic Constant Matrix: (Units=GPa)
#
#
# Indices 1 2 3 4 5 6 
#
# 1 94.2209 31.6750 41.7264 0.0000 0.0000 1.7723
# 2 31.6750 94.2209 41.7264 0.0000 0.0000 -1.7723
# 3 41.7264 41.7264 108.2205 0.0000 0.0000 0.0000
# 4 0.0000 0.0000 0.0000 27.4376 0.0000 0.0000
# 5 0.0000 0.0000 0.0000 0.0000 27.4376 0.0000
# 6 1.7723 -1.7723 0.0000 0.0000 0.0000 20.2994
#
#
#
# Elastic Compliance Matrix: (Units=1/GPa)
#
#
# Indices 1 2 3 4 5 6 
#
# 1 0.013369 -0.002699 -0.004114 0.000000 0.000000 -0.001403
# 2 -0.002699 0.013369 -0.004114 0.000000 0.000000 0.001403
# 3 -0.004114 -0.004114 0.012413 0.000000 0.000000 0.000000
# 4 0.000000 0.000000 0.000000 0.036446 0.000000 0.000000
# 5 0.000000 0.000000 0.000000 0.000000 0.036446 0.000000
# 6 -0.001403 0.001403 0.000000 0.000000 0.000000 0.049507
#
#
# Mechanical properties :
#
#
# Convention : Reuss Voigt Hill
#
# Bulk Modulus (GPa) = 57.81368 58.54642 58.18005
# Shear Modulus (GPa) = 26.43120 27.13724 26.78422
#
# Velocity S-wave (km/s) = 3.70902 3.75823 3.73371
# Velocity P-wave (km/s) = 6.95939 7.02172 6.99063
#
# Compressibility (1/GPa) = 0.01729694
#
# Stress axis : x y z
#
# Youngs Moduli (GPa) = 74.80009 74.80009 80.56132
#
# Poissons Ratio (x) = 0.20187 0.33144
# Poissons Ratio (y) = 0.20187 0.33144
# Poissons Ratio (z) = 0.30773 0.30773
#
# Static dielectric constant tensor:
#      x y z
#    x 3.601020 0.000000 0.000000 
#    y 0.000000 3.601020 0.000000 
#    z 0.000000 0.000000 3.208050 
# 
# 
# High freq. dielectric constant tensor:
#      x y z
#    x 1.754320 0.000000 0.000000 
#    y 0.000000 1.754320 0.000000 
#    z 0.000000 0.000000 1.724090 
# 
# From -- ./inp_files/6177.got.cif
#   From: 2010.03.12/outbox.cif.g09.slc.cpg/sg87_4_cif.got.tgz:6177.got - 2010.04.08 20:16:13.
