data_PCOD8304716
_publ_section_title
;
Structure prediction by ZEFSAII (Michael W. Deem and Ramdas Pophale) SiO2 
 PCOD8304716
Probable space group: P 41 2 2
;
_chemical_formula_sum "Si O2"
_cell_formula_units_Z 48
_cell_length_a 15.950109
_cell_length_b 15.950109
_cell_length_c 10.121324
_cell_angle_alpha 90.000000
_cell_angle_beta 90.000000
_cell_angle_gamma 90.000000
_cell_volume 2574.925322
_symmetry_space_group_name_H-M "P 41 2 2"
_symmetry_group_IT_number 91
_symmetry_cell_setting 'tetragonal'
loop_
_space_group_symop_operation_xyz
x,y,z
-y,x,1/4+z
-x,-y,1/2+z
y,-x,3/4+z
x,-y,1/2-z
-x,y,-z
y,x,3/4-z
-y,-x,1/4-z
loop_
_atom_site_type_symbol
_atom_site_label
_atom_site_fract_x
_atom_site_fract_y
_atom_site_fract_z
Si Si1 0.019201 0.381643 0.684870
Si Si2 0.783013 0.915922 0.694965
Si Si3 0.893936 0.357363 0.894997
Si Si4 0.876442 0.535020 0.000911
Si Si5 0.823667 0.903233 0.246971
Si Si6 0.198804 0.672429 0.127471
O O1 0.986604 0.381725 0.836335
O O2 0.941635 0.413583 0.594583
O O3 0.050933 0.287813 0.656633
O O4 0.094960 0.446938 0.652701
O O5 0.856310 0.861814 0.629200
O O6 0.741111 0.862715 0.811454
O O7 0.827214 0.000000 0.750000
O O8 0.864940 0.436784 0.981038
O O9 0.828255 0.342103 0.778538
O O10 0.898814 0.277318 0.989898
O O11 0.793272 0.586002 0.958602
O O12 0.854420 0.854420 0.375000
O O13 0.853180 0.000000 0.250000
O O14 0.292675 0.707326 0.125000
#
# Coordination Sequence:
#
# PCOD8304716 Si02
#       6
#     8   8   8   8   8   8
#     4   9  16  33  55  84 107 141 189 235 307 378
#     4  11  19  38  62  74 104 154 211 257 291 356
#     4  11  20  37  58  83 120 150 189 255 320 373
#     4   9  18  30  54  89 115 137 181 243 319 383
#     4  12  29  43  54  81 117 164 214 262 317 353
#     4  10  17  31  58  86 106 151 193 239 299 366
#
# _framework density 18.641317000000001
#
# number of rings (size 3 to 8) (size 9 to 14) (size 15 to 20)
#    0.000    1.667    6.667    3.000    2.333    0.667 
#    3.000    0.000    0.000    0.000    0.000    0.000 
#    0.000    5.333    0.000    0.000    0.000    0.000 
#
# Total GULP energy -594648.710370 kJ/mol
# GULP energy per Si atom -12388.514799 kJ/mol
# Density = 1.859889 g / cm^3
# Si number density = 18.641317 Si / 1000 Ang^3
#
#
#
# Elastic Constant Matrix: (Units=GPa)
#
#
# Indices 1 2 3 4 5 6 
#
# 1 115.5445 52.3187 37.7464 0.0000 0.0000 0.0000
# 2 52.3187 115.5455 37.7464 0.0000 0.0000 0.0000
# 3 37.7464 37.7464 58.4191 0.0000 0.0000 0.0000
# 4 0.0000 0.0000 0.0000 26.0151 0.0000 0.0000
# 5 0.0000 0.0000 0.0000 0.0000 26.0151 0.0000
# 6 0.0000 0.0000 0.0000 0.0000 0.0000 15.3601
#
#
#
# Elastic Compliance Matrix: (Units=1/GPa)
#
#
# Indices 1 2 3 4 5 6 
#
# 1 0.012107 -0.003709 -0.005426 0.000000 0.000000 0.000000
# 2 -0.003709 0.012107 -0.005426 0.000000 0.000000 0.000000
# 3 -0.005426 -0.005426 0.024129 0.000000 0.000000 0.000000
# 4 0.000000 0.000000 0.000000 0.038439 0.000000 0.000000
# 5 0.000000 0.000000 0.000000 0.000000 0.038439 0.000000
# 6 0.000000 0.000000 0.000000 0.000000 0.000000 0.065104
#
#
# Mechanical properties :
#
#
# Convention : Reuss Voigt Hill
#
# Bulk Modulus (GPa) = 52.02705 60.57024 56.29864
# Shear Modulus (GPa) = 22.13819 24.25788 23.19804
#
# Velocity S-wave (km/s) = 3.44988 3.61126 3.53149
# Velocity P-wave (km/s) = 6.62110 7.06762 6.84800
#
# Compressibility (1/GPa) = 0.01922077
#
# Stress axis : x y z
#
# Youngs Moduli (GPa) = 82.59794 82.59886 41.44352
#
# Poissons Ratio (x) = 0.30640 0.22487
# Poissons Ratio (y) = 0.30639 0.22486
# Poissons Ratio (z) = 0.44816 0.44816
#
# Static dielectric constant tensor:
#      x y z
#    x 3.514160 0.000000 0.000000 
#    y 0.000000 3.514160 0.000000 
#    z 0.000000 0.000000 3.528160 
# 
# 
# High freq. dielectric constant tensor:
#      x y z
#    x 1.700350 0.000000 0.000000 
#    y 0.000000 1.700350 0.000000 
#    z 0.000000 0.000000 1.723220 
# 
# From -- ./inp_files/15881.got.cif
#   From: 2010.03.12/outbox.cif.g09.slc.cpg/sg91_8_cif.got.tgz:15881.got - 2010.04.08 20:27:58.
