data_PCOD8304401
_publ_section_title
;
Structure prediction by ZEFSAII (Michael W. Deem and Ramdas Pophale) SiO2 
 PCOD8304401
Probable space group: I 41/A
;
_chemical_formula_sum "Si O2"
_cell_formula_units_Z 112
_cell_length_a 23.402403
_cell_length_b 23.402403
_cell_length_c 11.015013
_cell_angle_alpha 90.000000
_cell_angle_beta 90.000000
_cell_angle_gamma 90.000000
_cell_volume 6032.619335
_symmetry_space_group_name_H-M "I 41/A"
_symmetry_group_IT_number 88
_space_group.IT_coordinate_system_code '2'
_symmetry_cell_setting 'tetragonal'
loop_
_space_group_symop_operation_xyz
x,y,z
3/4-y,1/4+x,1/4+z
-x,1/2-y,z
1/4+y,1/4-x,1/4+z
-x,-y,-z
1/4+y,3/4-x,3/4-z
x,1/2+y,-z
3/4-y,3/4+x,3/4-z
1/2+x,1/2+y,1/2+z
1/4-y,3/4+x,3/4+z
1/2-x,-y,1/2+z
3/4+y,3/4-x,3/4+z
1/2-x,1/2-y,1/2-z
3/4+y,1/4-x,1/4-z
1/2+x,y,1/2-z
1/4-y,1/4+x,1/4-z
loop_
_atom_site_type_symbol
_atom_site_label
_atom_site_fract_x
_atom_site_fract_y
_atom_site_fract_z
Si Si1 0.659353 0.829723 0.950725
Si Si2 0.726338 0.901928 0.140476
Si Si3 0.756273 0.379916 0.598894
Si Si4 0.052717 0.420162 0.802572
Si Si5 0.941903 0.679648 0.377644
Si Si6 0.686831 0.105629 0.242508
Si Si7 0.333092 0.934308 0.500877
O O1 0.675718 0.764453 0.924000
O O2 0.660777 0.862819 0.823550
O O3 0.704496 0.854909 0.046258
O O4 0.596055 0.836420 0.005862
O O5 0.678488 0.946949 0.182247
O O6 0.751973 0.869035 0.257001
O O7 0.777805 0.938442 0.084342
O O8 0.776517 0.322478 0.531050
O O9 0.694026 0.395980 0.553396
O O10 0.070007 0.362116 0.733900
O O11 0.084341 0.418643 0.932648
O O12 0.925809 0.742596 0.329302
O O13 0.679888 0.108902 0.388093
O O14 0.751918 0.094301 0.201062
#
# Coordination Sequence:
#
# PCOD8304401 Si02
#       7
#    16  16  16  16  16  16  16
#     4  11  23  38  57  88 123 151 192 246 295 348
#     4  12  20  35  61  89 113 148 195 249 292 350
#     4  12  20  35  61  89 113 148 195 249 292 350
#     4  11  23  38  57  88 123 151 192 246 295 348
#     4   9  18  38  64  84 112 156 196 236 288 344
#     4  12  22  38  59  85 116 159 201 230 293 358
#     4  12  22  38  59  85 116 159 201 230 293 358
#
# _framework density 18.565733000000002
#
# number of rings (size 3 to 8) (size 9 to 14) (size 15 to 20)
#    0.000    0.714    7.143    1.714    0.000    1.143 
#    0.000    2.857    0.000    0.000    0.000    0.000 
#    0.000    0.000    0.000    0.000    0.000    0.000 
#
# Total GULP energy -694610.613496 kJ/mol
# GULP energy per Si atom -12403.760955 kJ/mol
# Density = 1.852348 g / cm^3
# Si number density = 18.565733 Si / 1000 Ang^3
#
#
#
# Elastic Constant Matrix: (Units=GPa)
#
#
# Indices 1 2 3 4 5 6 
#
# 1 77.6217 24.5571 9.5634 0.0000 0.0000 0.4726
# 2 24.5571 77.6217 9.5634 0.0000 0.0000 -0.4726
# 3 9.5634 9.5634 72.5848 0.0000 0.0000 0.0000
# 4 0.0000 0.0000 0.0000 25.3806 0.0000 0.0000
# 5 0.0000 0.0000 0.0000 0.0000 25.3806 0.0000
# 6 0.4726 -0.4726 0.0000 0.0000 0.0000 26.4655
#
#
#
# Elastic Compliance Matrix: (Units=1/GPa)
#
#
# Indices 1 2 3 4 5 6 
#
# 1 0.014443 -0.004408 -0.001322 0.000000 0.000000 -0.000337
# 2 -0.004408 0.014443 -0.001322 0.000000 0.000000 0.000337
# 3 -0.001322 -0.001322 0.014125 0.000000 0.000000 0.000000
# 4 0.000000 0.000000 0.000000 0.039400 0.000000 0.000000
# 5 0.000000 0.000000 0.000000 0.000000 0.039400 0.000000
# 6 -0.000337 0.000337 0.000000 0.000000 0.000000 0.037797
#
#
# Mechanical properties :
#
#
# Convention : Reuss Voigt Hill
#
# Bulk Modulus (GPa) = 34.59533 35.02175 34.80854
# Shear Modulus (GPa) = 27.27053 27.72163 27.49608
#
# Velocity S-wave (km/s) = 3.83673 3.86834 3.85257
# Velocity P-wave (km/s) = 6.18884 6.23351 6.21122
#
# Compressibility (1/GPa) = 0.02890564
#
# Stress axis : x y z
#
# Youngs Moduli (GPa) = 69.23960 69.23960 70.79460
#
# Poissons Ratio (x) = 0.30523 0.09359
# Poissons Ratio (y) = 0.30523 0.09359
# Poissons Ratio (z) = 0.09154 0.09154
#
# Static dielectric constant tensor:
#      x y z
#    x 3.430120 0.000000 0.000000 
#    y 0.000000 3.430120 0.000000 
#    z 0.000000 0.000000 3.579360 
# 
# 
# High freq. dielectric constant tensor:
#      x y z
#    x 1.713680 0.000000 0.000000 
#    y 0.000000 1.713680 0.000000 
#    z 0.000000 0.000000 1.723890 
# 
# From -- ./inp_files/2732.got.cif
#   From: 2010.03.12/outbox.cif.g09.slc.cpg/sg88_2_cif.got.tgz:2732.got - 2010.04.08 20:20:55.
