data_PCOD8304101
_publ_section_title
;
Structure prediction by ZEFSAII (Michael W. Deem and Ramdas Pophale) SiO2 
 PCOD8304101
Probable space group: I 4/M
;
_chemical_formula_sum "Si O2"
_cell_formula_units_Z 80
_cell_length_a 11.049689
_cell_length_b 11.049689
_cell_length_c 32.908977
_cell_angle_alpha 90.000000
_cell_angle_beta 90.000000
_cell_angle_gamma 90.000000
_cell_volume 4018.042181
_symmetry_space_group_name_H-M "I 4/M"
_symmetry_group_IT_number 87
_symmetry_cell_setting 'tetragonal'
loop_
_space_group_symop_operation_xyz
x,y,z
-y,x,z
-x,-y,z
y,-x,z
-x,-y,-z
y,-x,-z
x,y,-z
-y,x,-z
1/2+x,1/2+y,1/2+z
1/2-y,1/2+x,1/2+z
1/2-x,1/2-y,1/2+z
1/2+y,1/2-x,1/2+z
1/2-x,1/2-y,1/2-z
1/2+y,1/2-x,1/2-z
1/2+x,1/2+y,1/2-z
1/2-y,1/2+x,1/2-z
loop_
_atom_site_type_symbol
_atom_site_label
_atom_site_fract_x
_atom_site_fract_y
_atom_site_fract_z
Si Si1 0.223253 0.731597 0.120882
Si Si2 0.667639 0.398874 0.195236
Si Si3 0.611880 0.663949 0.954645
Si Si4 0.352062 0.975049 0.142890
Si Si5 0.170949 0.566098 0.264186
O O1 0.245801 0.650015 0.160513
O O2 0.248333 0.666850 0.078513
O O3 0.303937 0.853104 0.121239
O O4 0.077173 0.733909 0.122450
O O5 0.663441 0.540934 0.188653
O O6 0.716658 0.369319 0.240903
O O7 0.468897 0.664623 0.948226
O O8 0.643815 0.710872 0.000000
O O9 0.306141 0.963331 0.189183
O O10 0.500000 0.000000 0.139051
O O11 0.150944 0.445740 0.237679
#
# Coordination Sequence:
#
# PCOD8304101 Si02
#       5
#    16  16  16  16  16
#     4  12  24  41  63  88 128 168 211 260 316 382
#     4  11  23  36  57  87 113 151 211 271 320 368
#     4   9  18  36  66 100 129 157 198 262 332 385
#     4  12  25  41  63  91 122 171 217 263 317 376
#     4  11  20  37  56  78 117 162 207 254 318 373
#
# _framework density 19.910195000000002
#
# number of rings (size 3 to 8) (size 9 to 14) (size 15 to 20)
#    0.000    1.000    4.000    5.400    2.800    3.600 
#    0.000    1.000    0.000    3.600    0.000    1.400 
#    0.000    0.000    0.000    0.000    0.000    0.000 
#
# Total GULP energy -495594.531734 kJ/mol
# GULP energy per Si atom -12389.863293 kJ/mol
# Density = 1.986488 g / cm^3
# Si number density = 19.910195 Si / 1000 Ang^3
#
#
#
# Elastic Constant Matrix: (Units=GPa)
#
#
# Indices 1 2 3 4 5 6 
#
# 1 85.3445 16.3689 30.4753 0.0000 0.0000 9.6875
# 2 16.3689 85.3445 30.4753 0.0000 0.0000 -9.6875
# 3 30.4753 30.4753 116.3665 0.0000 0.0000 0.0000
# 4 0.0000 0.0000 0.0000 11.2769 0.0000 0.0000
# 5 0.0000 0.0000 0.0000 0.0000 11.2769 0.0000
# 6 9.6875 -9.6875 0.0000 0.0000 0.0000 27.7103
#
#
#
# Elastic Compliance Matrix: (Units=1/GPa)
#
#
# Indices 1 2 3 4 5 6 
#
# 1 0.013869 -0.002207 -0.003054 0.000000 0.000000 -0.005620
# 2 -0.002207 0.013869 -0.003054 0.000000 0.000000 0.005620
# 3 -0.003054 -0.003054 0.010193 0.000000 0.000000 0.000000
# 4 0.000000 0.000000 0.000000 0.088677 0.000000 0.000000
# 5 0.000000 0.000000 0.000000 0.000000 0.088677 0.000000
# 6 -0.005620 0.005620 0.000000 0.000000 0.000000 0.040017
#
#
# Mechanical properties :
#
#
# Convention : Reuss Voigt Hill
#
# Bulk Modulus (GPa) = 46.94785 49.07714 48.01249
# Shear Modulus (GPa) = 17.91893 24.03522 20.97707
#
# Velocity S-wave (km/s) = 3.00323 3.47822 3.24942
# Velocity P-wave (km/s) = 5.97134 6.39011 6.18427
#
# Compressibility (1/GPa) = 0.02130023
#
# Stress axis : x y z
#
# Youngs Moduli (GPa) = 72.10249 72.10250 98.10453
#
# Poissons Ratio (x) = 0.15916 0.29962
# Poissons Ratio (y) = 0.15916 0.29962
# Poissons Ratio (z) = 0.22021 0.22021
#
# Static dielectric constant tensor:
#      x y z
#    x 3.736940 0.000000 0.000000 
#    y 0.000000 3.736940 0.000000 
#    z 0.000000 0.000000 3.520000 
# 
# 
# High freq. dielectric constant tensor:
#      x y z
#    x 1.775890 0.000000 0.000000 
#    y 0.000000 1.775890 0.000000 
#    z 0.000000 0.000000 1.762580 
# 
# From -- ./inp_files/6487.got.cif
#   From: 2010.03.12/outbox.cif.g09.slc.cpg/sg87_4_cif.got.tgz:6487.got - 2010.04.08 20:16:13.
