data_PCOD8304950
_publ_section_title
;
Structure prediction by ZEFSAII (Michael W. Deem and Ramdas Pophale) SiO2 
 PCOD8304950
Probable space group: P 41 2 2
;
_chemical_formula_sum "Si O2"
_cell_formula_units_Z 48
_cell_length_a 9.016586
_cell_length_b 9.016586
_cell_length_c 30.819255
_cell_angle_alpha 90.000000
_cell_angle_beta 90.000000
_cell_angle_gamma 90.000000
_cell_volume 2505.569160
_symmetry_space_group_name_H-M "P 41 2 2"
_symmetry_group_IT_number 91
_symmetry_cell_setting 'tetragonal'
loop_
_space_group_symop_operation_xyz
x,y,z
-y,x,1/4+z
-x,-y,1/2+z
y,-x,3/4+z
x,-y,1/2-z
-x,y,-z
y,x,3/4-z
-y,-x,1/4-z
loop_
_atom_site_type_symbol
_atom_site_label
_atom_site_fract_x
_atom_site_fract_y
_atom_site_fract_z
Si Si1 0.179240 0.661091 0.585605
Si Si2 0.346379 0.682980 0.172554
Si Si3 0.835360 0.174467 0.249549
Si Si4 0.649798 0.337662 0.831281
Si Si5 0.349223 0.828585 0.832148
Si Si6 0.673165 0.853119 0.001360
O O1 0.244043 0.755958 0.625000
O O2 0.227761 0.732559 0.540024
O O3 0.241510 0.496204 0.586503
O O4 0.003020 0.656917 0.590398
O O5 0.281017 0.718984 0.125000
O O6 0.393492 0.509983 0.174351
O O7 0.487093 0.783892 0.183611
O O8 0.219091 0.724587 0.206309
O O9 0.764056 0.226047 0.294999
O O10 0.994703 0.243458 0.242200
O O11 0.853406 0.000000 0.250000
O O12 0.747932 0.307576 0.873519
O O13 0.741941 0.282685 0.789866
O O14 0.500000 0.887416 0.000000
#
# Coordination Sequence:
#
# PCOD8304950 Si02
#       6
#     8   8   8   8   8   8
#     4  11  22  38  59  83 113 149 188 231 280 335
#     4   9  19  36  55  82 114 144 185 233 279 331
#     4  10  23  39  55  81 116 150 186 229 277 332
#     4  10  21  37  59  85 113 145 185 234 283 330
#     4  10  21  37  56  81 113 149 188 229 279 336
#     4  10  21  37  59  86 114 147 191 236 276 330
#
# _framework density 19.157322000000001
#
# number of rings (size 3 to 8) (size 9 to 14) (size 15 to 20)
#    0.000    2.000    0.000    3.500    0.000    8.000 
#    0.000    3.333    0.000    0.000    0.000    0.000 
#    0.000    0.000    0.000    0.000    0.000    0.000 
#
# Total GULP energy -595371.939612 kJ/mol
# GULP energy per Si atom -12403.582075 kJ/mol
# Density = 1.911372 g / cm^3
# Si number density = 19.157322 Si / 1000 Ang^3
#
#
#
# Elastic Constant Matrix: (Units=GPa)
#
#
# Indices 1 2 3 4 5 6 
#
# 1 75.8001 44.8577 58.3614 0.0000 0.0000 0.0000
# 2 44.8577 75.7974 58.3618 0.0000 0.0000 0.0000
# 3 58.3614 58.3618 146.7443 0.0000 0.0000 0.0000
# 4 0.0000 0.0000 0.0000 28.2123 0.0000 0.0000
# 5 0.0000 0.0000 0.0000 0.0000 28.2122 0.0000
# 6 0.0000 0.0000 0.0000 0.0000 0.0000 32.2375
#
#
#
# Elastic Compliance Matrix: (Units=1/GPa)
#
#
# Indices 1 2 3 4 5 6 
#
# 1 0.022895 -0.009424 -0.005357 0.000000 0.000000 0.000000
# 2 -0.009424 0.022896 -0.005358 0.000000 0.000000 0.000000
# 3 -0.005357 -0.005358 0.011076 0.000000 0.000000 0.000000
# 4 0.000000 0.000000 0.000000 0.035446 0.000000 0.000000
# 5 0.000000 0.000000 0.000000 0.000000 0.035446 0.000000
# 6 0.000000 0.000000 0.000000 0.000000 0.000000 0.031020
#
#
# Mechanical properties :
#
#
# Convention : Reuss Voigt Hill
#
# Bulk Modulus (GPa) = 60.28540 69.05596 64.67068
# Shear Modulus (GPa) = 24.43970 26.84978 25.64474
#
# Velocity S-wave (km/s) = 3.57562 3.74778 3.66271
# Velocity P-wave (km/s) = 6.97020 7.40627 7.19154
#
# Compressibility (1/GPa) = 0.01658776
#
# Stress axis : x y z
#
# Youngs Moduli (GPa) = 43.67861 43.67614 90.28510
#
# Poissons Ratio (x) = 0.41162 0.48367
# Poissons Ratio (y) = 0.41164 0.48373
# Poissons Ratio (z) = 0.23399 0.23401
#
# Static dielectric constant tensor:
#      x y z
#    x 3.437370 0.000000 0.000000 
#    y 0.000000 3.437360 0.000000 
#    z 0.000000 0.000000 3.865970 
# 
# 
# High freq. dielectric constant tensor:
#      x y z
#    x 1.743570 0.000000 0.000000 
#    y 0.000000 1.743570 0.000000 
#    z 0.000000 0.000000 1.767690 
# 
# From -- ./inp_files/7975.got.cif
#   From: 2010.03.12/outbox.cif.g09.slc.cpg/sg91_4_cif.got.tgz:7975.got - 2010.04.08 20:27:58.
