data_PCOD8304105
_publ_section_title
;
Structure prediction by ZEFSAII (Michael W. Deem and Ramdas Pophale) SiO2 
 PCOD8304105
Probable space group: I 4/M
;
_chemical_formula_sum "Si O2"
_cell_formula_units_Z 72
_cell_length_a 17.018517
_cell_length_b 17.018517
_cell_length_c 12.351123
_cell_angle_alpha 90.000000
_cell_angle_beta 90.000000
_cell_angle_gamma 90.000000
_cell_volume 3577.254777
_symmetry_space_group_name_H-M "I 4/M"
_symmetry_group_IT_number 87
_symmetry_cell_setting 'tetragonal'
loop_
_space_group_symop_operation_xyz
x,y,z
-y,x,z
-x,-y,z
y,-x,z
-x,-y,-z
y,-x,-z
x,y,-z
-y,x,-z
1/2+x,1/2+y,1/2+z
1/2-y,1/2+x,1/2+z
1/2-x,1/2-y,1/2+z
1/2+y,1/2-x,1/2+z
1/2-x,1/2-y,1/2-z
1/2+y,1/2-x,1/2-z
1/2+x,1/2+y,1/2-z
1/2-y,1/2+x,1/2-z
loop_
_atom_site_type_symbol
_atom_site_label
_atom_site_fract_x
_atom_site_fract_y
_atom_site_fract_z
Si Si1 0.497984 0.196782 0.704996
Si Si2 0.255169 0.160453 0.877613
Si Si3 0.101219 0.917052 0.500000
Si Si4 0.368210 0.293820 0.801183
Si Si5 0.450356 0.924144 0.121844
O O1 0.570345 0.218418 0.628686
O O2 0.451374 0.273071 0.746152
O O3 0.527281 0.151573 0.810673
O O4 0.440343 0.142128 0.634465
O O5 0.329214 0.215901 0.851480
O O6 0.185485 0.171452 0.793150
O O7 0.226098 0.177638 0.000000
O O8 0.141263 0.880692 0.393398
O O9 0.010915 0.890342 0.500000
O O10 0.500000 0.000000 0.159550
O O11 0.471167 0.901702 0.000000
#
# Coordination Sequence:
#
# PCOD8304105 Si02
#       5
#    16  16   8  16  16
#     4  12  21  41  61  92 130 169 216 266 326 402
#     4  11  24  43  65  93 135 174 216 270 331 396
#     4  11  24  46  72  98 129 175 231 280 325 381
#     4  11  24  42  64  97 130 174 221 270 331 390
#     4  11  21  34  57  90 128 170 212 264 327 398
#
# _framework density 20.127165999999999
#
# number of rings (size 3 to 8) (size 9 to 14) (size 15 to 20)
#    0.000    0.778    5.556    2.000    1.556    3.556 
#    2.000    0.000    0.000    0.000    0.000    4.667 
#    0.000    0.000    0.000    0.000    0.000    0.000 
#
# Total GULP energy -446556.361152 kJ/mol
# GULP energy per Si atom -12404.343365 kJ/mol
# Density = 2.008136 g / cm^3
# Si number density = 20.127166 Si / 1000 Ang^3
#
#
#
# Elastic Constant Matrix: (Units=GPa)
#
#
# Indices 1 2 3 4 5 6 
#
# 1 75.4881 37.3777 34.8070 0.0000 0.0000 -5.3253
# 2 37.3777 75.4881 34.8070 0.0000 0.0000 5.3253
# 3 34.8070 34.8070 124.4758 0.0000 0.0000 0.0000
# 4 0.0000 0.0000 0.0000 30.1750 0.0000 0.0000
# 5 0.0000 0.0000 0.0000 0.0000 30.1750 0.0000
# 6 -5.3253 5.3253 0.0000 0.0000 0.0000 32.3850
#
#
#
# Elastic Compliance Matrix: (Units=1/GPa)
#
#
# Indices 1 2 3 4 5 6 
#
# 1 0.019105 -0.008398 -0.002994 0.000000 0.000000 0.004523
# 2 -0.008398 0.019105 -0.002994 0.000000 0.000000 -0.004523
# 3 -0.002994 -0.002994 0.009708 0.000000 0.000000 0.000000
# 4 0.000000 0.000000 0.000000 0.033140 0.000000 0.000000
# 5 0.000000 0.000000 0.000000 0.000000 0.033140 0.000000
# 6 0.004523 -0.004523 0.000000 0.000000 0.000000 0.032366
#
#
# Mechanical properties :
#
#
# Convention : Reuss Voigt Hill
#
# Bulk Modulus (GPa) = 52.23070 54.38169 53.30620
# Shear Modulus (GPa) = 27.51508 29.77768 28.64638
#
# Velocity S-wave (km/s) = 3.70139 3.85057 3.77672
# Velocity P-wave (km/s) = 6.65385 6.84448 6.74984
#
# Compressibility (1/GPa) = 0.01914583
#
# Stress axis : x y z
#
# Youngs Moduli (GPa) = 52.34206 52.34206 103.00735
#
# Poissons Ratio (x) = 0.43959 0.30839
# Poissons Ratio (y) = 0.43959 0.30839
# Poissons Ratio (z) = 0.15671 0.15671
#
# Static dielectric constant tensor:
#      x y z
#    x 3.777160 0.000000 0.000000 
#    y 0.000000 3.777160 0.000000 
#    z 0.000000 0.000000 3.699690 
# 
# 
# High freq. dielectric constant tensor:
#      x y z
#    x 1.778550 0.000000 0.000000 
#    y 0.000000 1.778550 0.000000 
#    z 0.000000 0.000000 1.802300 
# 
# From -- ./inp_files/2448.got.cif
#   From: 2010.03.12/outbox.cif.g09.slc.cpg/sg87_2_cif.got.tgz:2448.got - 2010.04.08 20:16:13.
