data_PCOD8304377
_publ_section_title
;
Structure prediction by ZEFSAII (Michael W. Deem and Ramdas Pophale) SiO2 
 PCOD8304377
Probable space group: I 41/A
;
_chemical_formula_sum "Si O2"
_cell_formula_units_Z 96
_cell_length_a 22.628967
_cell_length_b 22.628967
_cell_length_c 10.034861
_cell_angle_alpha 90.000000
_cell_angle_beta 90.000000
_cell_angle_gamma 90.000000
_cell_volume 5138.552752
_symmetry_space_group_name_H-M "I 41/A"
_symmetry_group_IT_number 88
_space_group.IT_coordinate_system_code '2'
_symmetry_cell_setting 'tetragonal'
loop_
_space_group_symop_operation_xyz
x,y,z
3/4-y,1/4+x,1/4+z
-x,1/2-y,z
1/4+y,1/4-x,1/4+z
-x,-y,-z
1/4+y,3/4-x,3/4-z
x,1/2+y,-z
3/4-y,3/4+x,3/4-z
1/2+x,1/2+y,1/2+z
1/4-y,3/4+x,3/4+z
1/2-x,-y,1/2+z
3/4+y,3/4-x,3/4+z
1/2-x,1/2-y,1/2-z
3/4+y,1/4-x,1/4-z
1/2+x,y,1/2-z
1/4-y,1/4+x,1/4-z
loop_
_atom_site_type_symbol
_atom_site_label
_atom_site_fract_x
_atom_site_fract_y
_atom_site_fract_z
Si Si1 0.873469 0.564108 0.239162
Si Si2 0.998104 0.427375 0.355174
Si Si3 0.824230 0.874305 0.019359
Si Si4 0.125846 0.563557 0.271309
Si Si5 0.125435 0.574923 0.757606
Si Si6 0.317036 0.251975 0.901882
O O1 0.826646 0.597667 0.332795
O O2 0.867396 0.494674 0.263034
O O3 0.858319 0.577883 0.086289
O O4 0.939788 0.587581 0.268648
O O5 0.055401 0.407475 0.271348
O O6 0.996330 0.497348 0.365862
O O7 0.940393 0.403424 0.279606
O O8 0.000841 0.402153 0.506101
O O9 0.755342 0.882600 0.989053
O O10 0.862714 0.907742 0.909583
O O11 0.837149 0.900574 0.164053
O O12 0.057254 0.584080 0.267226
#
# Coordination Sequence:
#
# PCOD8304377 Si02
#       6
#    16  16  16  16  16  16
#     4  11  21  36  59  84 114 150 187 230 279 333
#     4   9  18  37  57  76 109 153 192 224 268 331
#     4  11  23  36  56  86 117 149 182 229 287 338
#     4  11  21  36  59  84 114 150 187 230 279 333
#     4  11  23  36  56  86 117 149 182 229 287 338
#     4   9  18  35  59  80 103 149 202 226 256 330
#
# _framework density 18.682303000000001
#
# number of rings (size 3 to 8) (size 9 to 14) (size 15 to 20)
#    0.000    1.667    3.333    2.000    0.000    5.333 
#    0.000    5.000    0.000    6.000    0.000    0.000 
#    0.000    0.000    0.000    0.000    0.000    0.000 
#
# Total GULP energy -595292.144920 kJ/mol
# GULP energy per Si atom -12401.919686 kJ/mol
# Density = 1.863978 g / cm^3
# Si number density = 18.682303 Si / 1000 Ang^3
#
#
#
# Elastic Constant Matrix: (Units=GPa)
#
#
# Indices 1 2 3 4 5 6 
#
# 1 87.4308 28.0663 17.9781 0.0000 0.0000 0.7270
# 2 28.0663 87.4308 17.9781 0.0000 0.0000 -0.7270
# 3 17.9781 17.9781 65.0155 0.0000 0.0000 0.0000
# 4 0.0000 0.0000 0.0000 24.0842 0.0000 0.0000
# 5 0.0000 0.0000 0.0000 0.0000 24.0842 0.0000
# 6 0.7270 -0.7270 0.0000 0.0000 0.0000 2.9549
#
#
#
# Elastic Compliance Matrix: (Units=1/GPa)
#
#
# Indices 1 2 3 4 5 6 
#
# 1 0.013211 -0.003737 -0.002620 0.000000 0.000000 -0.004169
# 2 -0.003737 0.013211 -0.002620 0.000000 0.000000 0.004169
# 3 -0.002620 -0.002620 0.016830 0.000000 0.000000 0.000000
# 4 0.000000 0.000000 0.000000 0.041521 0.000000 0.000000
# 5 0.000000 0.000000 0.000000 0.000000 0.041521 0.000000
# 6 -0.004169 0.004169 0.000000 0.000000 0.000000 0.340470
#
#
# Mechanical properties :
#
#
# Convention : Reuss Voigt Hill
#
# Bulk Modulus (GPa) = 39.52799 40.88025 40.20412
# Shear Modulus (GPa) = 10.13895 21.94828 16.04362
#
# Velocity S-wave (km/s) = 2.33213 3.43128 2.93364
# Velocity P-wave (km/s) = 5.33439 6.13413 5.74818
#
# Compressibility (1/GPa) = 0.02529853
#
# Stress axis : x y z
#
# Youngs Moduli (GPa) = 75.69736 75.69736 59.41860
#
# Poissons Ratio (x) = 0.28286 0.15566
# Poissons Ratio (y) = 0.28286 0.15566
# Poissons Ratio (z) = 0.19830 0.19830
#
# Static dielectric constant tensor:
#      x y z
#    x 3.441920 0.000000 0.000000 
#    y 0.000000 3.441920 0.000000 
#    z 0.000000 0.000000 3.325130 
# 
# 
# High freq. dielectric constant tensor:
#      x y z
#    x 1.715040 0.000000 0.000000 
#    y 0.000000 1.715040 0.000000 
#    z 0.000000 0.000000 1.725760 
# 
# From -- ./inp_files/1728.got.cif
#   From: 2010.03.12/outbox.cif.g09.slc.cpg/sg88_1_cif.got.tgz:1728.got - 2010.04.08 20:20:55.
