data_PCOD8304839
_publ_section_title
;
Structure prediction by ZEFSAII (Michael W. Deem and Ramdas Pophale) SiO2 
 PCOD8304839
Probable space group: P 41 2 2
;
_chemical_formula_sum "Si O2"
_cell_formula_units_Z 60
_cell_length_a 16.033154
_cell_length_b 16.033154
_cell_length_c 13.528340
_cell_angle_alpha 90.000000
_cell_angle_beta 90.000000
_cell_angle_gamma 90.000000
_cell_volume 3477.622505
_symmetry_space_group_name_H-M "P 41 2 2"
_symmetry_group_IT_number 91
_symmetry_cell_setting 'tetragonal'
loop_
_space_group_symop_operation_xyz
x,y,z
-y,x,1/4+z
-x,-y,1/2+z
y,-x,3/4+z
x,-y,1/2-z
-x,y,-z
y,x,3/4-z
-y,-x,1/4-z
loop_
_atom_site_type_symbol
_atom_site_label
_atom_site_fract_x
_atom_site_fract_y
_atom_site_fract_z
Si Si1 0.179448 0.636123 0.397395
Si Si2 0.405094 0.976799 0.979111
Si Si3 0.301110 0.756904 0.328572
Si Si4 0.329875 0.480299 0.071689
Si Si5 0.932229 0.367188 0.418448
Si Si6 0.659257 0.545517 0.145746
Si Si7 0.667512 0.332489 0.625000
Si Si8 0.917129 0.552620 0.439366
O O1 0.105952 0.634911 0.316715
O O2 0.219336 0.728422 0.390621
O O3 0.252893 0.569736 0.380774
O O4 0.145979 0.614423 0.506339
O O5 0.401230 0.058665 0.910597
O O6 0.500000 0.951615 0.000000
O O7 0.355241 0.009420 0.073002
O O8 0.300359 0.857383 0.322456
O O9 0.382183 0.727901 0.388845
O O10 0.294723 0.712671 0.221111
O O11 0.414847 0.433750 0.104476
O O12 0.319740 0.568365 0.125910
O O13 0.330628 0.486060 0.950946
O O14 0.885097 0.457744 0.423038
O O15 0.000000 0.348678 0.500000
O O16 0.676398 0.500000 0.250000
O O17 0.000000 0.536887 0.500000
#
# Coordination Sequence:
#
# PCOD8304839 Si02
#       8
#     8   8   8   8   8   8   4   8
#     4  10  20  34  52  76 106 134 177 216 270 327
#     4   9  19  31  56  78  98 138 174 219 268 325
#     4  10  23  34  50  77 103 134 175 222 279 322
#     4  10  22  33  48  71  97 145 193 229 263 316
#     4  10  20  35  52  76 104 135 177 221 270 330
#     4  10  21  35  49  67  99 144 188 240 269 304
#     4  10  22  34  48  72 106 144 180 236 258 304
#     4   8  15  31  51  75 100 132 171 211 255 319
#
# _framework density 17.253166
#
# number of rings (size 3 to 8) (size 9 to 14) (size 15 to 20)
#    0.000    2.400    0.000    2.800    5.600    6.400 
#    0.000    2.000    0.000    0.000    0.000    0.000 
#    0.000    9.600    0.000    0.000    0.000    0.000 
#
# Total GULP energy -743412.026829 kJ/mol
# GULP energy per Si atom -12390.200447 kJ/mol
# Density = 1.721390 g / cm^3
# Si number density = 17.253166 Si / 1000 Ang^3
#
#
#
# Elastic Constant Matrix: (Units=GPa)
#
#
# Indices 1 2 3 4 5 6 
#
# 1 90.7598 37.5910 35.0103 0.0000 0.0000 0.0000
# 2 37.5910 90.7603 35.0104 0.0000 0.0000 0.0000
# 3 35.0103 35.0104 80.5398 0.0000 0.0000 0.0000
# 4 0.0000 0.0000 0.0000 17.4348 0.0000 0.0000
# 5 0.0000 0.0000 0.0000 0.0000 17.4347 0.0000
# 6 0.0000 0.0000 0.0000 0.0000 0.0000 16.0362
#
#
#
# Elastic Compliance Matrix: (Units=1/GPa)
#
#
# Indices 1 2 3 4 5 6 
#
# 1 0.014511 -0.004297 -0.004440 0.000000 0.000000 0.000000
# 2 -0.004297 0.014510 -0.004440 0.000000 0.000000 0.000000
# 3 -0.004440 -0.004440 0.016276 0.000000 0.000000 0.000000
# 4 0.000000 0.000000 0.000000 0.057356 0.000000 0.000000
# 5 0.000000 0.000000 0.000000 0.000000 0.057357 0.000000
# 6 0.000000 0.000000 0.000000 0.000000 0.000000 0.062359
#
#
# Mechanical properties :
#
#
# Convention : Reuss Voigt Hill
#
# Bulk Modulus (GPa) = 52.78771 53.03146 52.90959
# Shear Modulus (GPa) = 19.60499 20.47769 20.04134
#
# Velocity S-wave (km/s) = 3.37458 3.44887 3.41193
# Velocity P-wave (km/s) = 6.77097 6.83107 6.80109
#
# Compressibility (1/GPa) = 0.01894380
#
# Stress axis : x y z
#
# Youngs Moduli (GPa) = 68.91530 68.91569 61.44026
#
# Poissons Ratio (x) = 0.29616 0.27277
# Poissons Ratio (y) = 0.29616 0.27277
# Poissons Ratio (z) = 0.30596 0.30596
#
# Static dielectric constant tensor:
#      x y z
#    x 3.007960 0.000000 0.000000 
#    y 0.000000 3.007950 0.000000 
#    z 0.000000 0.000000 3.153260 
# 
# 
# High freq. dielectric constant tensor:
#      x y z
#    x 1.638960 0.000000 0.000000 
#    y 0.000000 1.638960 0.000000 
#    z 0.000000 0.000000 1.679700 
# 
# From -- ./inp_files/5012.got.cif
#   From: 2010.03.12/outbox.cif.g09.slc.cpg/sg91_3_cif.got.tgz:5012.got - 2010.04.08 20:27:58.
