data_PCOD8304779
_publ_section_title
;
Structure prediction by ZEFSAII (Michael W. Deem and Ramdas Pophale) SiO2 
 PCOD8304779
Probable space group: P 41 2 2
;
_chemical_formula_sum "Si O2"
_cell_formula_units_Z 48
_cell_length_a 8.816523
_cell_length_b 8.816523
_cell_length_c 34.540383
_cell_angle_alpha 90.000000
_cell_angle_beta 90.000000
_cell_angle_gamma 90.000000
_cell_volume 2684.861199
_symmetry_space_group_name_H-M "P 41 2 2"
_symmetry_group_IT_number 91
_symmetry_cell_setting 'tetragonal'
loop_
_space_group_symop_operation_xyz
x,y,z
-y,x,1/4+z
-x,-y,1/2+z
y,-x,3/4+z
x,-y,1/2-z
-x,y,-z
y,x,3/4-z
-y,-x,1/4-z
loop_
_atom_site_type_symbol
_atom_site_label
_atom_site_fract_x
_atom_site_fract_y
_atom_site_fract_z
Si Si1 0.816614 0.988552 0.095952
Si Si2 0.624592 0.556561 0.468041
Si Si3 0.593410 0.600871 0.599677
Si Si4 0.648452 0.822870 0.666794
Si Si5 0.413716 0.934661 0.840090
Si Si6 0.883857 0.214304 0.031972
O O1 0.861600 0.824233 0.080197
O O2 0.654486 0.972717 0.117409
O O3 0.799860 0.086280 0.057029
O O4 0.943634 0.056367 0.125000
O O5 0.500000 0.507479 0.500000
O O6 0.531811 0.634529 0.433051
O O7 0.715336 0.408760 0.452204
O O8 0.749136 0.676690 0.484291
O O9 0.544251 0.455750 0.625000
O O10 0.602768 0.749404 0.625956
O O11 0.757091 0.563326 0.581964
O O12 0.574704 0.988125 0.666500
O O13 0.301925 0.000455 0.808765
O O14 0.000000 0.146312 0.000000
#
# Coordination Sequence:
#
# PCOD8304779 Si02
#       6
#     8   8   8   8   8   8
#     4   9  18  33  52  73  99 128 161 202 243 288
#     4  10  19  32  50  71  98 130 165 202 243 291
#     4   9  17  30  49  73  97 123 160 203 243 285
#     4   9  18  32  51  74  99 127 161 204 249 289
#     4   9  17  31  51  72  94 124 161 197 238 288
#     4  10  19  32  49  69  94 126 164 198 235 285
#
# _framework density 17.878018999999998
#
# number of rings (size 3 to 8) (size 9 to 14) (size 15 to 20)
#    0.000    2.667    0.000    2.000    0.000    4.667 
#    0.000    5.833    0.000    4.000    0.000    0.000 
#    0.000    0.000    0.000    0.000    0.000    0.000 
#
# Total GULP energy -594837.272048 kJ/mol
# GULP energy per Si atom -12392.443168 kJ/mol
# Density = 1.783733 g / cm^3
# Si number density = 17.878019 Si / 1000 Ang^3
#
#
#
# Elastic Constant Matrix: (Units=GPa)
#
#
# Indices 1 2 3 4 5 6 
#
# 1 82.2225 18.1195 18.3256 0.0000 0.0000 0.0000
# 2 18.1195 82.2221 18.3254 0.0000 0.0000 0.0000
# 3 18.3256 18.3254 56.1793 0.0000 0.0000 0.0000
# 4 0.0000 0.0000 0.0000 17.7896 0.0000 0.0000
# 5 0.0000 0.0000 0.0000 0.0000 17.7897 0.0000
# 6 0.0000 0.0000 0.0000 0.0000 0.0000 13.4401
#
#
#
# Elastic Compliance Matrix: (Units=1/GPa)
#
#
# Indices 1 2 3 4 5 6 
#
# 1 0.013457 -0.002143 -0.003691 0.000000 0.000000 0.000000
# 2 -0.002143 0.013457 -0.003691 0.000000 0.000000 0.000000
# 3 -0.003691 -0.003691 0.020208 0.000000 0.000000 0.000000
# 4 0.000000 0.000000 0.000000 0.056213 0.000000 0.000000
# 5 0.000000 0.000000 0.000000 0.000000 0.056212 0.000000
# 6 0.000000 0.000000 0.000000 0.000000 0.000000 0.074404
#
#
# Mechanical properties :
#
#
# Convention : Reuss Voigt Hill
#
# Bulk Modulus (GPa) = 35.62081 36.68498 36.15290
# Shear Modulus (GPa) = 19.05801 20.86077 19.95939
#
# Velocity S-wave (km/s) = 3.26851 3.41961 3.34491
# Velocity P-wave (km/s) = 5.84909 6.01297 5.93159
#
# Compressibility (1/GPa) = 0.02807348
#
# Stress axis : x y z
#
# Youngs Moduli (GPa) = 74.31113 74.31088 49.48575
#
# Poissons Ratio (x) = 0.15925 0.18263
# Poissons Ratio (y) = 0.15925 0.18263
# Poissons Ratio (z) = 0.27425 0.27425
#
# Static dielectric constant tensor:
#      x y z
#    x 3.371360 0.000000 0.000000 
#    y 0.000000 3.371360 0.000000 
#    z 0.000000 0.000000 3.353680 
# 
# 
# High freq. dielectric constant tensor:
#      x y z
#    x 1.685240 0.000000 0.000000 
#    y 0.000000 1.685240 0.000000 
#    z 0.000000 0.000000 1.683660 
# 
# From -- ./inp_files/7978.got.cif
#   From: 2010.03.12/outbox.cif.g09.slc.cpg/sg91_4_cif.got.tgz:7978.got - 2010.04.08 20:27:58.
