data_PCOD8304259
_publ_section_title
;
Structure prediction by ZEFSAII (Michael W. Deem and Ramdas Pophale) SiO2 
 PCOD8304259
Probable space group: I 41/A
;
_chemical_formula_sum "Si O2"
_cell_formula_units_Z 104
_cell_length_a 16.483761
_cell_length_b 16.483761
_cell_length_c 18.562601
_cell_angle_alpha 90.000000
_cell_angle_beta 90.000000
_cell_angle_gamma 90.000000
_cell_volume 5043.725561
_symmetry_space_group_name_H-M "I 41/A"
_symmetry_group_IT_number 88
_space_group.IT_coordinate_system_code '2'
_symmetry_cell_setting 'tetragonal'
loop_
_space_group_symop_operation_xyz
x,y,z
3/4-y,1/4+x,1/4+z
-x,1/2-y,z
1/4+y,1/4-x,1/4+z
-x,-y,-z
1/4+y,3/4-x,3/4-z
x,1/2+y,-z
3/4-y,3/4+x,3/4-z
1/2+x,1/2+y,1/2+z
1/4-y,3/4+x,3/4+z
1/2-x,-y,1/2+z
3/4+y,3/4-x,3/4+z
1/2-x,1/2-y,1/2-z
3/4+y,1/4-x,1/4-z
1/2+x,y,1/2-z
1/4-y,1/4+x,1/4-z
loop_
_atom_site_type_symbol
_atom_site_label
_atom_site_fract_x
_atom_site_fract_y
_atom_site_fract_z
Si Si1 0.630616 0.481137 0.627756
Si Si2 0.258592 0.559873 0.782169
Si Si3 0.845928 0.183094 0.802865
Si Si4 0.010105 0.556091 0.410143
Si Si5 0.000000 0.250000 0.389165
Si Si6 0.380623 0.908768 0.216173
Si Si7 0.669026 0.298211 0.125327
O O1 0.667889 0.544060 0.686234
O O2 0.667971 0.504146 0.551196
O O3 0.668279 0.395986 0.650377
O O4 0.532335 0.476391 0.628939
O O5 0.318211 0.483301 0.795366
O O6 0.291279 0.639584 0.820775
O O7 0.826909 0.168987 0.718100
O O8 0.790784 0.252427 0.839329
O O9 0.936084 0.215268 0.804855
O O10 0.924762 0.590659 0.439780
O O11 0.037585 0.582609 0.331428
O O12 0.078511 0.277877 0.342355
O O13 0.411033 0.906882 0.297642
#
# Coordination Sequence:
#
# PCOD8304259 Si02
#       7
#    16  16  16  16   8  16  16
#     4  11  26  42  76  94 134 180 244 289 355 418
#     4  12  25  49  70 103 135 187 239 300 355 421
#     4  10  22  40  61  96 133 179 226 275 339 417
#     4  11  25  38  62 101 150 180 224 270 347 436
#     4  10  20  40  67  92 137 174 218 282 348 406
#     4  12  26  40  70 103 149 188 226 285 349 443
#     4  11  25  46  67 103 138 186 233 295 350 416
#
# _framework density 20.619679000000001
#
# number of rings (size 3 to 8) (size 9 to 14) (size 15 to 20)
#    0.000    0.923    4.615    1.385   10.769    0.308 
#    0.000    0.000    0.000    0.462    0.000    0.000 
#    0.000    0.000    0.000    0.000    0.000    0.000 
#
# Total GULP energy -644350.732140 kJ/mol
# GULP energy per Si atom -12391.360233 kJ/mol
# Density = 2.057275 g / cm^3
# Si number density = 20.619679 Si / 1000 Ang^3
#
#
#
# Elastic Constant Matrix: (Units=GPa)
#
#
# Indices 1 2 3 4 5 6 
#
# 1 93.4293 49.4570 25.1474 0.0000 0.0000 2.8843
# 2 49.4570 93.4293 25.1473 0.0000 0.0000 -2.8843
# 3 25.1474 25.1473 81.2801 0.0000 0.0000 0.0000
# 4 0.0000 0.0000 0.0000 30.5463 0.0000 0.0000
# 5 0.0000 0.0000 0.0000 0.0000 30.5463 0.0000
# 6 2.8843 -2.8843 0.0000 0.0000 0.0000 30.1861
#
#
#
# Elastic Compliance Matrix: (Units=1/GPa)
#
#
# Indices 1 2 3 4 5 6 
#
# 1 0.015442 -0.007588 -0.002430 0.000000 0.000000 -0.002201
# 2 -0.007588 0.015442 -0.002430 0.000000 0.000000 0.002201
# 3 -0.002430 -0.002430 0.013807 0.000000 0.000000 0.000000
# 4 0.000000 0.000000 0.000000 0.032737 0.000000 0.000000
# 5 0.000000 0.000000 0.000000 0.000000 0.032737 0.000000
# 6 -0.002201 0.002201 0.000000 0.000000 0.000000 0.033548
#
#
# Mechanical properties :
#
#
# Convention : Reuss Voigt Hill
#
# Bulk Modulus (GPa) = 50.51831 51.96023 51.23927
# Shear Modulus (GPa) = 28.53752 29.48155 29.00954
#
# Velocity S-wave (km/s) = 3.72424 3.78534 3.75492
# Velocity P-wave (km/s) = 6.56099 6.66027 6.61081
#
# Compressibility (1/GPa) = 0.01979480
#
# Stress axis : x y z
#
# Youngs Moduli (GPa) = 64.75808 64.75807 72.42847
#
# Poissons Ratio (x) = 0.49140 0.17600
# Poissons Ratio (y) = 0.49140 0.17600
# Poissons Ratio (z) = 0.15736 0.15736
#
# Static dielectric constant tensor:
#      x y z
#    x 4.079900 0.000000 0.000000 
#    y 0.000000 4.079900 0.000000 
#    z 0.000000 0.000000 3.905990 
# 
# 
# High freq. dielectric constant tensor:
#      x y z
#    x 1.817100 0.000000 0.000000 
#    y 0.000000 1.817100 0.000000 
#    z 0.000000 0.000000 1.793400 
# 
# From -- ./inp_files/3982.got.cif
#   From: 2010.03.12/outbox.cif.g09.slc.cpg/sg88_2_cif.got.tgz:3982.got - 2010.04.08 20:20:55.
