data_PCOD8304538
_publ_section_title
;
Structure prediction by ZEFSAII (Michael W. Deem and Ramdas Pophale) SiO2 
 PCOD8304538
Probable space group: P 4 21 2
;
_chemical_formula_sum "Si O2"
_cell_formula_units_Z 48
_cell_length_a 11.838965
_cell_length_b 11.838965
_cell_length_c 17.720789
_cell_angle_alpha 90.000000
_cell_angle_beta 90.000000
_cell_angle_gamma 90.000000
_cell_volume 2483.765142
_symmetry_space_group_name_H-M "P 4 21 2"
_symmetry_group_IT_number 90
_symmetry_cell_setting 'tetragonal'
loop_
_space_group_symop_operation_xyz
x,y,z
1/2-y,1/2+x,z
-x,-y,z
1/2+y,1/2-x,z
1/2+x,1/2-y,-z
1/2-x,1/2+y,-z
y,x,-z
-y,-x,-z
loop_
_atom_site_type_symbol
_atom_site_label
_atom_site_fract_x
_atom_site_fract_y
_atom_site_fract_z
Si Si1 0.693085 0.627649 0.919857
Si Si2 0.072623 0.892835 0.349702
Si Si3 0.040222 0.677283 0.450080
Si Si4 0.996374 0.132762 0.185492
Si Si5 0.958387 0.322042 0.628018
Si Si6 0.189586 0.126357 0.081427
O O1 0.611374 0.684529 0.857527
O O2 0.722078 0.500472 0.897237
O O3 0.809630 0.693060 0.921480
O O4 0.630958 0.630958 0.000000
O O5 0.069188 0.795517 0.411763
O O6 0.014515 0.842497 0.274312
O O7 0.202151 0.930717 0.332540
O O8 0.000000 0.000000 0.378695
O O9 0.133423 0.584044 0.426317
O O10 0.045101 0.697247 0.538881
O O11 0.110051 0.181790 0.146876
O O12 0.000000 0.000000 0.168846
O O13 0.865704 0.416591 0.651753
O O14 0.129266 0.129266 0.000000
#
# Coordination Sequence:
#
# PCOD8304538 Si02
#       6
#     8   8   8   8   8   8
#     4  10  19  34  57  81 105 148 186 231 278 331
#     4  11  23  36  57  88 118 150 194 242 287 354
#     4   9  20  38  59  83 114 157 196 237 291 346
#     4   9  20  37  54  79 112 147 183 226 281 336
#     4   9  20  40  61  83 116 153 194 242 295 343
#     4  10  19  34  59  81 110 143 190 233 281 334
#
# _framework density 19.325499000000001
#
# number of rings (size 3 to 8) (size 9 to 14) (size 15 to 20)
#    0.000    2.333    1.667    1.500    2.333    3.000 
#    6.000    0.000    0.000    0.500    0.000    0.000 
#    0.000    0.000    0.000    0.000    0.000    0.000 
#
# Total GULP energy -595064.205116 kJ/mol
# GULP energy per Si atom -12397.170940 kJ/mol
# Density = 1.928151 g / cm^3
# Si number density = 19.325499 Si / 1000 Ang^3
#
#
#
# Elastic Constant Matrix: (Units=GPa)
#
#
# Indices 1 2 3 4 5 6 
#
# 1 91.8823 42.0666 18.5441 0.0000 0.0000 0.0000
# 2 42.0666 91.8823 18.5441 0.0000 0.0000 0.0000
# 3 18.5441 18.5441 57.3761 0.0000 0.0000 0.0000
# 4 0.0000 0.0000 0.0000 19.2687 0.0000 0.0000
# 5 0.0000 0.0000 0.0000 0.0000 19.2687 0.0000
# 6 0.0000 0.0000 0.0000 0.0000 0.0000 15.2759
#
#
#
# Elastic Compliance Matrix: (Units=1/GPa)
#
#
# Indices 1 2 3 4 5 6 
#
# 1 0.014137 -0.005937 -0.002650 0.000000 0.000000 0.000000
# 2 -0.005937 0.014137 -0.002650 0.000000 0.000000 0.000000
# 3 -0.002650 -0.002650 0.019142 0.000000 0.000000 0.000000
# 4 0.000000 0.000000 0.000000 0.051898 0.000000 0.000000
# 5 0.000000 0.000000 0.000000 0.000000 0.051898 0.000000
# 6 0.000000 0.000000 0.000000 0.000000 0.000000 0.065462
#
#
# Mechanical properties :
#
#
# Convention : Reuss Voigt Hill
#
# Bulk Modulus (GPa) = 40.09574 44.38336 42.23955
# Shear Modulus (GPa) = 20.20522 21.56175 20.88349
#
# Velocity S-wave (km/s) = 3.23696 3.34386 3.29084
# Velocity P-wave (km/s) = 5.89603 6.15829 6.02859
#
# Compressibility (1/GPa) = 0.02494031
#
# Stress axis : x y z
#
# Youngs Moduli (GPa) = 70.73821 70.73821 52.24161
#
# Poissons Ratio (x) = 0.42000 0.13844
# Poissons Ratio (y) = 0.42000 0.13844
# Poissons Ratio (z) = 0.18746 0.18746
#
# Static dielectric constant tensor:
#      x y z
#    x 3.467610 0.000000 0.000000 
#    y 0.000000 3.467610 0.000000 
#    z 0.000000 0.000000 3.485890 
# 
# 
# High freq. dielectric constant tensor:
#      x y z
#    x 1.746090 0.000000 0.000000 
#    y 0.000000 1.746090 0.000000 
#    z 0.000000 0.000000 1.742800 
# 
# From -- ./inp_files/2635.got.cif
#   From: 2010.03.12/outbox.cif.g09.slc.cpg/sg90_2_cif.got.tgz:2635.got - 2010.04.08 20:26:03.
