data_PCOD8304194
_publ_section_title
;
Structure prediction by ZEFSAII (Michael W. Deem and Ramdas Pophale) SiO2 
 PCOD8304194
Probable space group: I 41/A
;
_chemical_formula_sum "Si O2"
_cell_formula_units_Z 68
_cell_length_a 18.886671
_cell_length_b 18.886671
_cell_length_c 8.364770
_cell_angle_alpha 90.000000
_cell_angle_beta 90.000000
_cell_angle_gamma 90.000000
_cell_volume 2983.766504
_symmetry_space_group_name_H-M "I 41/A"
_symmetry_group_IT_number 88
_space_group.IT_coordinate_system_code '2'
_symmetry_cell_setting 'tetragonal'
loop_
_space_group_symop_operation_xyz
x,y,z
3/4-y,1/4+x,1/4+z
-x,1/2-y,z
1/4+y,1/4-x,1/4+z
-x,-y,-z
1/4+y,3/4-x,3/4-z
x,1/2+y,-z
3/4-y,3/4+x,3/4-z
1/2+x,1/2+y,1/2+z
1/4-y,3/4+x,3/4+z
1/2-x,-y,1/2+z
3/4+y,3/4-x,3/4+z
1/2-x,1/2-y,1/2-z
3/4+y,1/4-x,1/4-z
1/2+x,y,1/2-z
1/4-y,1/4+x,1/4-z
loop_
_atom_site_type_symbol
_atom_site_label
_atom_site_fract_x
_atom_site_fract_y
_atom_site_fract_z
Si Si1 0.281436 0.430287 0.406863
Si Si2 0.441547 0.458326 0.098190
Si Si3 0.126165 0.187664 0.965618
Si Si4 0.500000 0.250000 0.375000
Si Si5 0.358182 0.093419 0.896033
O O1 0.314127 0.504038 0.475127
O O2 0.338939 0.368095 0.411789
O O3 0.220701 0.412555 0.535280
O O4 0.486120 0.416256 0.232836
O O5 0.386175 0.516584 0.168571
O O6 0.500000 0.500000 0.000000
O O7 0.399739 0.398264 0.996888
O O8 0.127554 0.160181 0.783277
O O9 0.044900 0.197238 0.013786
#
# Coordination Sequence:
#
# PCOD8304194 Si02
#       5
#    16  16  16   4  16
#     4  10  19  38  66  95 125 154 201 266 315 365
#     4  10  19  36  63  95 123 151 202 256 303 361
#     4  10  24  42  59  81 130 162 205 247 305 368
#     4  12  28  48  50  80 128 180 200 242 296 392
#     4  10  18  36  67  93 120 149 198 266 306 353
#
# _framework density 22.789985999999999
#
# number of rings (size 3 to 8) (size 9 to 14) (size 15 to 20)
#    0.000    1.882    7.059    0.000    0.000    5.647 
#    0.000    4.706    0.000    0.000    0.000    0.000 
#    0.000    0.000    0.000    0.000    0.000    0.000 
#
# Total GULP energy -421463.381439 kJ/mol
# GULP energy per Si atom -12395.981807 kJ/mol
# Density = 2.273812 g / cm^3
# Si number density = 22.789986 Si / 1000 Ang^3
#
#
#
# Elastic Constant Matrix: (Units=GPa)
#
#
# Indices 1 2 3 4 5 6 
#
# 1 126.9897 57.8550 35.3959 0.0000 0.0000 -4.9921
# 2 57.8550 126.9897 35.3959 0.0000 0.0000 4.9921
# 3 35.3959 35.3959 44.3073 0.0000 0.0000 0.0000
# 4 0.0000 0.0000 0.0000 20.7024 0.0000 0.0000
# 5 0.0000 0.0000 0.0000 0.0000 20.7024 0.0000
# 6 -4.9921 4.9921 0.0000 0.0000 0.0000 58.0321
#
#
#
# Elastic Compliance Matrix: (Units=1/GPa)
#
#
# Indices 1 2 3 4 5 6 
#
# 1 0.011221 -0.003426 -0.006227 0.000000 0.000000 0.001260
# 2 -0.003426 0.011221 -0.006227 0.000000 0.000000 -0.001260
# 3 -0.006227 -0.006227 0.032519 0.000000 0.000000 0.000000
# 4 0.000000 0.000000 0.000000 0.048304 0.000000 0.000000
# 5 0.000000 0.000000 0.000000 0.000000 0.048304 0.000000
# 6 0.001260 -0.001260 0.000000 0.000000 0.000000 0.017449
#
#
# Mechanical properties :
#
#
# Convention : Reuss Voigt Hill
#
# Bulk Modulus (GPa) = 43.10295 61.73112 52.41704
# Shear Modulus (GPa) = 23.97975 31.19669 27.58822
#
# Velocity S-wave (km/s) = 3.24729 3.70385 3.48306
# Velocity P-wave (km/s) = 5.74578 6.74070 6.26303
#
# Compressibility (1/GPa) = 0.02320027
#
# Stress axis : x y z
#
# Youngs Moduli (GPa) = 89.12160 89.12160 30.75142
#
# Poissons Ratio (x) = 0.30532 0.19149
# Poissons Ratio (y) = 0.30532 0.19149
# Poissons Ratio (z) = 0.55496 0.55496
#
# Static dielectric constant tensor:
#      x y z
#    x 4.563640 0.000000 0.000000 
#    y 0.000000 4.563640 0.000000 
#    z 0.000000 0.000000 3.712670 
# 
# 
# High freq. dielectric constant tensor:
#      x y z
#    x 1.907200 0.000000 0.000000 
#    y 0.000000 1.907200 0.000000 
#    z 0.000000 0.000000 1.864650 
# 
# From -- ./inp_files/1514.got.cif
#   From: 2010.03.12/outbox.cif.g09.slc.cpg/sg88_1_cif.got.tgz:1514.got - 2010.04.08 20:20:55.
