data_PCOD8304392
_publ_section_title
;
Structure prediction by ZEFSAII (Michael W. Deem and Ramdas Pophale) SiO2 
 PCOD8304392
Probable space group: I 41/A
;
_chemical_formula_sum "Si O2"
_cell_formula_units_Z 112
_cell_length_a 22.675128
_cell_length_b 22.675128
_cell_length_c 11.463733
_cell_angle_alpha 90.000000
_cell_angle_beta 90.000000
_cell_angle_gamma 90.000000
_cell_volume 5894.209350
_symmetry_space_group_name_H-M "I 41/A"
_symmetry_group_IT_number 88
_space_group.IT_coordinate_system_code '2'
_symmetry_cell_setting 'tetragonal'
loop_
_space_group_symop_operation_xyz
x,y,z
3/4-y,1/4+x,1/4+z
-x,1/2-y,z
1/4+y,1/4-x,1/4+z
-x,-y,-z
1/4+y,3/4-x,3/4-z
x,1/2+y,-z
3/4-y,3/4+x,3/4-z
1/2+x,1/2+y,1/2+z
1/4-y,3/4+x,3/4+z
1/2-x,-y,1/2+z
3/4+y,3/4-x,3/4+z
1/2-x,1/2-y,1/2-z
3/4+y,1/4-x,1/4-z
1/2+x,y,1/2-z
1/4-y,1/4+x,1/4-z
loop_
_atom_site_type_symbol
_atom_site_label
_atom_site_fract_x
_atom_site_fract_y
_atom_site_fract_z
Si Si1 0.380004 0.873559 0.603428
Si Si2 0.822301 0.059166 0.334372
Si Si3 0.308908 0.552276 0.466806
Si Si4 0.807566 0.128748 0.562995
Si Si5 0.874436 0.052270 0.730282
Si Si6 0.832898 0.256555 0.181340
Si Si7 0.208552 0.252877 0.435048
O O1 0.358344 0.884573 0.472154
O O2 0.334978 0.912663 0.675790
O O3 0.445507 0.896283 0.622703
O O4 0.379088 0.805563 0.640051
O O5 0.765038 0.043849 0.253024
O O6 0.800064 0.088088 0.451217
O O7 0.863720 0.004657 0.374111
O O8 0.355919 0.557019 0.364318
O O9 0.250186 0.585850 0.423402
O O10 0.860720 0.110512 0.651586
O O11 0.814504 0.196679 0.523603
O O12 0.944322 0.039256 0.734595
O O13 0.833574 0.255575 0.322569
O O14 0.770472 0.272305 0.122212
#
# Coordination Sequence:
#
# PCOD8304392 Si02
#       7
#    16  16  16  16  16  16  16
#     4  12  22  37  68  96 124 158 212 260 313 374
#     4  12  20  37  62  95 128 159 200 258 319 377
#     4  12  20  37  62  95 128 159 200 258 319 377
#     4  12  24  38  60  94 129 167 205 255 315 382
#     4  12  24  38  60  94 129 167 205 255 315 382
#     4  11  22  41  65  93 127 161 213 261 312 370
#     4  11  22  40  64  88 126 175 204 253 316 386
#
# _framework density 19.0017
#
# number of rings (size 3 to 8) (size 9 to 14) (size 15 to 20)
#    0.000    0.286    8.571    2.571    0.000    0.286 
#    0.000    4.286    0.000    0.429    0.000    0.000 
#    0.000    0.000    0.000    0.000    0.000    0.000 
#
# Total GULP energy -694266.636048 kJ/mol
# GULP energy per Si atom -12397.618501 kJ/mol
# Density = 1.895845 g / cm^3
# Si number density = 19.001700 Si / 1000 Ang^3
#
#
#
# Elastic Constant Matrix: (Units=GPa)
#
#
# Indices 1 2 3 4 5 6 
#
# 1 84.2480 2.2461 28.8250 0.0000 0.0000 -1.3491
# 2 2.2461 84.2480 28.8250 0.0000 0.0000 1.3491
# 3 28.8250 28.8250 48.5816 0.0000 0.0000 0.0000
# 4 0.0000 0.0000 0.0000 27.4781 0.0000 0.0000
# 5 0.0000 0.0000 0.0000 0.0000 27.4781 0.0000
# 6 -1.3491 1.3491 0.0000 0.0000 0.0000 23.3661
#
#
#
# Elastic Compliance Matrix: (Units=1/GPa)
#
#
# Indices 1 2 3 4 5 6 
#
# 1 0.015671 0.003453 -0.011347 0.000000 0.000000 0.000705
# 2 0.003453 0.015671 -0.011347 0.000000 0.000000 -0.000705
# 3 -0.011347 -0.011347 0.034049 0.000000 0.000000 0.000000
# 4 0.000000 0.000000 0.000000 0.036393 0.000000 0.000000
# 5 0.000000 0.000000 0.000000 0.000000 0.036393 0.000000
# 6 0.000705 -0.000705 0.000000 0.000000 0.000000 0.042879
#
#
# Mechanical properties :
#
#
# Convention : Reuss Voigt Hill
#
# Bulk Modulus (GPa) = 37.16150 37.42997 37.29574
# Shear Modulus (GPa) = 21.88108 26.14322 24.01215
#
# Velocity S-wave (km/s) = 3.39711 3.71325 3.55869
# Velocity P-wave (km/s) = 5.91494 6.17457 6.04615
#
# Compressibility (1/GPa) = 0.02690957
#
# Stress axis : x y z
#
# Youngs Moduli (GPa) = 63.81075 63.81075 29.36923
#
# Poissons Ratio (x) = -0.22036 0.33326
# Poissons Ratio (y) = -0.22036 0.33326
# Poissons Ratio (z) = 0.72408 0.72408
#
# Static dielectric constant tensor:
#      x y z
#    x 3.483230 0.000000 0.000000 
#    y 0.000000 3.483230 0.000000 
#    z 0.000000 0.000000 3.486810 
# 
# 
# High freq. dielectric constant tensor:
#      x y z
#    x 1.726440 0.000000 0.000000 
#    y 0.000000 1.726440 0.000000 
#    z 0.000000 0.000000 1.737520 
# 
# From -- ./inp_files/2720.got.cif
#   From: 2010.03.12/outbox.cif.g09.slc.cpg/sg88_2_cif.got.tgz:2720.got - 2010.04.08 20:20:55.
