data_PCOD8304020
_publ_section_title
;
Structure prediction by ZEFSAII (Michael W. Deem and Ramdas Pophale) SiO2 
 PCOD8304020
Probable space group: I 4/M
;
_chemical_formula_sum "Si O2"
_cell_formula_units_Z 64
_cell_length_a 14.416990
_cell_length_b 14.416990
_cell_length_c 14.574188
_cell_angle_alpha 90.000000
_cell_angle_beta 90.000000
_cell_angle_gamma 90.000000
_cell_volume 3029.239156
_symmetry_space_group_name_H-M "I 4/M"
_symmetry_group_IT_number 87
_symmetry_cell_setting 'tetragonal'
loop_
_space_group_symop_operation_xyz
x,y,z
-y,x,z
-x,-y,z
y,-x,z
-x,-y,-z
y,-x,-z
x,y,-z
-y,x,-z
1/2+x,1/2+y,1/2+z
1/2-y,1/2+x,1/2+z
1/2-x,1/2-y,1/2+z
1/2+y,1/2-x,1/2+z
1/2-x,1/2-y,1/2-z
1/2+y,1/2-x,1/2-z
1/2+x,1/2+y,1/2-z
1/2-y,1/2+x,1/2-z
loop_
_atom_site_type_symbol
_atom_site_label
_atom_site_fract_x
_atom_site_fract_y
_atom_site_fract_z
Si Si1 0.101699 0.484473 0.607757
Si Si2 0.236875 0.880073 0.894094
Si Si3 0.864391 0.063340 0.276497
Si Si4 0.333333 0.214709 0.892917
O O1 0.090176 0.474217 0.500000
O O2 0.165176 0.572828 0.631688
O O3 0.149273 0.389777 0.643828
O O4 0.000000 0.500000 0.652740
O O5 0.157525 0.925267 0.831512
O O6 0.244939 0.771545 0.871646
O O7 0.209380 0.897912 0.000000
O O8 0.780648 0.097798 0.338603
O O9 0.955924 0.121439 0.299928
O O10 0.356029 0.224334 0.000000
#
# Coordination Sequence:
#
# PCOD8304020 Si02
#       4
#    16  16  16  16
#     4   9  19  37  62  93 124 158 210 263 311 369
#     4  10  21  40  66  91 121 162 206 262 321 371
#     4  11  25  41  60  89 126 167 212 258 305 373
#     4  10  22  40  64  90 126 170 207 256 316 370
#
# _framework density 21.127419
#
# number of rings (size 3 to 8) (size 9 to 14) (size 15 to 20)
#    0.000    2.000    0.000    2.250    3.500    4.000 
#    0.000    2.500    0.000    0.000    0.000    0.000 
#    0.000    0.000    0.000    0.000    0.000    0.000 
#
# Total GULP energy -396870.500106 kJ/mol
# GULP energy per Si atom -12402.203128 kJ/mol
# Density = 2.107933 g / cm^3
# Si number density = 21.127419 Si / 1000 Ang^3
#
#
#
# Elastic Constant Matrix: (Units=GPa)
#
#
# Indices 1 2 3 4 5 6 
#
# 1 151.6277 97.3685 31.9693 0.0000 0.0000 -12.4029
# 2 97.3685 151.6277 31.9693 0.0000 0.0000 12.4029
# 3 31.9693 31.9693 53.8084 0.0000 0.0000 0.0000
# 4 0.0000 0.0000 0.0000 24.6553 0.0000 0.0000
# 5 0.0000 0.0000 0.0000 0.0000 24.6553 0.0000
# 6 -12.4029 12.4029 0.0000 0.0000 0.0000 36.2620
#
#
#
# Elastic Compliance Matrix: (Units=1/GPa)
#
#
# Indices 1 2 3 4 5 6 
#
# 1 0.013293 -0.008553 -0.002816 0.000000 0.000000 0.007472
# 2 -0.008553 0.013293 -0.002816 0.000000 0.000000 -0.007472
# 3 -0.002816 -0.002816 0.021930 0.000000 0.000000 0.000000
# 4 0.000000 0.000000 0.000000 0.040559 0.000000 0.000000
# 5 0.000000 0.000000 0.000000 0.000000 0.040559 0.000000
# 6 0.007472 -0.007472 0.000000 0.000000 0.000000 0.032689
#
#
# Mechanical properties :
#
#
# Convention : Reuss Voigt Hill
#
# Bulk Modulus (GPa) = 49.63809 75.51976 62.57893
# Shear Modulus (GPa) = 25.32831 30.16495 27.74663
#
# Velocity S-wave (km/s) = 3.46618 3.78267 3.62788
# Velocity P-wave (km/s) = 6.29006 7.40950 6.87261
#
# Compressibility (1/GPa) = 0.02014582
#
# Stress axis : x y z
#
# Youngs Moduli (GPa) = 75.22975 75.22975 45.59912
#
# Poissons Ratio (x) = 0.64347 0.12839
# Poissons Ratio (y) = 0.64347 0.12839
# Poissons Ratio (z) = 0.21182 0.21182
#
# Static dielectric constant tensor:
#      x y z
#    x 3.901350 0.000000 0.000000 
#    y 0.000000 3.901350 0.000000 
#    z 0.000000 0.000000 3.703230 
# 
# 
# High freq. dielectric constant tensor:
#      x y z
#    x 1.834310 0.000000 0.000000 
#    y 0.000000 1.834310 0.000000 
#    z 0.000000 0.000000 1.820810 
# 
# From -- ./inp_files/3357.got.cif
#   From: 2010.03.12/outbox.cif.g09.slc.cpg/sg87_2_cif.got.tgz:3357.got - 2010.04.08 20:16:13.
