data_PCOD8304790
_publ_section_title
;
Structure prediction by ZEFSAII (Michael W. Deem and Ramdas Pophale) SiO2 
 PCOD8304790
Probable space group: P 41 2 2
;
_chemical_formula_sum "Si O2"
_cell_formula_units_Z 48
_cell_length_a 8.983230
_cell_length_b 8.983230
_cell_length_c 31.073169
_cell_angle_alpha 90.000000
_cell_angle_beta 90.000000
_cell_angle_gamma 90.000000
_cell_volume 2507.555681
_symmetry_space_group_name_H-M "P 41 2 2"
_symmetry_group_IT_number 91
_symmetry_cell_setting 'tetragonal'
loop_
_space_group_symop_operation_xyz
x,y,z
-y,x,1/4+z
-x,-y,1/2+z
y,-x,3/4+z
x,-y,1/2-z
-x,y,-z
y,x,3/4-z
-y,-x,1/4-z
loop_
_atom_site_type_symbol
_atom_site_label
_atom_site_fract_x
_atom_site_fract_y
_atom_site_fract_z
Si Si1 0.288960 0.151574 0.415775
Si Si2 0.918623 0.570525 0.615830
Si Si3 0.324280 0.651835 0.507345
Si Si4 0.232200 0.404236 0.843993
Si Si5 0.738024 0.810389 0.573615
Si Si6 0.606046 0.859805 0.778509
O O1 0.193340 0.193340 0.375000
O O2 0.465161 0.156434 0.402865
O O3 0.245964 0.257227 0.455902
O O4 0.238711 0.985108 0.426133
O O5 0.833964 0.726176 0.609753
O O6 0.921800 0.481658 0.570478
O O7 0.077674 0.627426 0.632081
O O8 0.500000 0.629151 0.500000
O O9 0.301183 0.739164 0.552126
O O10 0.232747 0.756184 0.474585
O O11 0.243407 0.492060 0.503253
O O12 0.369224 0.369224 0.875000
O O13 0.244691 0.573809 0.832690
O O14 0.663036 0.000000 0.750000
#
# Coordination Sequence:
#
# PCOD8304790 Si02
#       6
#     8   8   8   8   8   8
#     4   9  19  36  55  79 106 138 181 222 264 325
#     4   9  19  35  56  77 107 145 179 222 272 323
#     4   9  19  35  54  77 107 140 178 225 273 321
#     4  10  19  33  54  80 105 134 179 225 268 322
#     4   9  19  36  55  77 107 141 177 225 275 319
#     4  10  19  35  55  78 110 146 182 221 270 324
#
# _framework density 19.142147000000001
#
# number of rings (size 3 to 8) (size 9 to 14) (size 15 to 20)
#    0.000    2.667    0.000    1.000    0.000    5.333 
#    0.000   15.833    0.000    0.000    0.000    0.000 
#    0.000    0.000    0.000    0.000    0.000    0.000 
#
# Total GULP energy -594651.014452 kJ/mol
# GULP energy per Si atom -12388.562801 kJ/mol
# Density = 1.909858 g / cm^3
# Si number density = 19.142147 Si / 1000 Ang^3
#
#
#
# Elastic Constant Matrix: (Units=GPa)
#
#
# Indices 1 2 3 4 5 6 
#
# 1 76.9497 50.9112 43.6166 0.0000 0.0000 0.0000
# 2 50.9112 76.9497 43.6166 0.0000 0.0000 0.0000
# 3 43.6166 43.6166 81.9226 0.0000 0.0000 0.0000
# 4 0.0000 0.0000 0.0000 31.1516 0.0000 0.0000
# 5 0.0000 0.0000 0.0000 0.0000 31.1516 0.0000
# 6 0.0000 0.0000 0.0000 0.0000 0.0000 26.2710
#
#
#
# Elastic Compliance Matrix: (Units=1/GPa)
#
#
# Indices 1 2 3 4 5 6 
#
# 1 0.025344 -0.013061 -0.006539 0.000000 0.000000 0.000000
# 2 -0.013061 0.025344 -0.006539 0.000000 0.000000 0.000000
# 3 -0.006539 -0.006539 0.019170 0.000000 0.000000 0.000000
# 4 0.000000 0.000000 0.000000 0.032101 0.000000 0.000000
# 5 0.000000 0.000000 0.000000 0.000000 0.032101 0.000000
# 6 0.000000 0.000000 0.000000 0.000000 0.000000 0.038065
#
#
# Mechanical properties :
#
#
# Convention : Reuss Voigt Hill
#
# Bulk Modulus (GPa) = 56.89100 56.90122 56.89611
# Shear Modulus (GPa) = 21.71431 24.22666 22.97049
#
# Velocity S-wave (km/s) = 3.37170 3.56141 3.46785
# Velocity P-wave (km/s) = 6.70392 6.83386 6.76921
#
# Compressibility (1/GPa) = 0.01757747
#
# Stress axis : x y z
#
# Youngs Moduli (GPa) = 39.45766 39.45766 52.16514
#
# Poissons Ratio (x) = 0.51536 0.34113
# Poissons Ratio (y) = 0.51536 0.34113
# Poissons Ratio (z) = 0.25803 0.25803
#
# Static dielectric constant tensor:
#      x y z
#    x 3.501620 0.000000 0.000000 
#    y 0.000000 3.501620 0.000000 
#    z 0.000000 0.000000 3.812950 
# 
# 
# High freq. dielectric constant tensor:
#      x y z
#    x 1.737840 0.000000 0.000000 
#    y 0.000000 1.737840 0.000000 
#    z 0.000000 0.000000 1.747310 
# 
# From -- ./inp_files/7940.got.cif
#   From: 2010.03.12/outbox.cif.g09.slc.cpg/sg91_4_cif.got.tgz:7940.got - 2010.04.08 20:27:58.
