data_PCOD8304115
_publ_section_title
;
Structure prediction by ZEFSAII (Michael W. Deem and Ramdas Pophale) SiO2 
 PCOD8304115
Probable space group: I 4/M
;
_chemical_formula_sum "Si O2"
_cell_formula_units_Z 112
_cell_length_a 15.447882
_cell_length_b 15.447882
_cell_length_c 24.645704
_cell_angle_alpha 90.000000
_cell_angle_beta 90.000000
_cell_angle_gamma 90.000000
_cell_volume 5881.378302
_symmetry_space_group_name_H-M "I 4/M"
_symmetry_group_IT_number 87
_symmetry_cell_setting 'tetragonal'
loop_
_space_group_symop_operation_xyz
x,y,z
-y,x,z
-x,-y,z
y,-x,z
-x,-y,-z
y,-x,-z
x,y,-z
-y,x,-z
1/2+x,1/2+y,1/2+z
1/2-y,1/2+x,1/2+z
1/2-x,1/2-y,1/2+z
1/2+y,1/2-x,1/2+z
1/2-x,1/2-y,1/2-z
1/2+y,1/2-x,1/2-z
1/2+x,1/2+y,1/2-z
1/2-y,1/2+x,1/2-z
loop_
_atom_site_type_symbol
_atom_site_label
_atom_site_fract_x
_atom_site_fract_y
_atom_site_fract_z
Si Si1 0.343189 0.791500 0.145562
Si Si2 0.440232 0.625644 0.719322
Si Si3 0.739557 0.397453 0.561069
Si Si4 0.626791 0.558359 0.152907
Si Si5 0.602821 0.906730 0.744539
Si Si6 0.780574 0.663209 0.330780
Si Si7 0.239752 0.097064 0.061525
O O1 0.314392 0.852998 0.096540
O O2 0.402618 0.711984 0.123500
O O3 0.396534 0.847747 0.188204
O O4 0.260604 0.751769 0.176153
O O5 0.385999 0.540506 0.703119
O O6 0.432957 0.642486 0.783136
O O7 0.403834 0.706764 0.687196
O O8 0.773473 0.388534 0.500000
O O9 0.725545 0.497206 0.576416
O O10 0.646471 0.351789 0.568367
O O11 0.541662 0.613261 0.136029
O O12 0.503700 0.883766 0.734008
O O13 0.636354 0.844593 0.792457
O O14 0.804255 0.640208 0.393820
O O15 0.276244 0.109063 0.000000
#
# Coordination Sequence:
#
# PCOD8304115 Si02
#       7
#    16  16  16  16  16  16  16
#     4  11  22  34  58  81 105 143 182 221 265 325
#     4   9  19  31  47  75 110 143 175 221 266 316
#     4   9  19  36  55  79 107 145 187 225 270 313
#     4   9  19  35  55  81 110 139 170 217 274 326
#     4  11  25  38  51  77 115 147 176 220 270 324
#     4  11  22  32  55  77 104 145 186 216 270 318
#     4   9  19  34  51  76 110 144 184 228 263 312
#
# _framework density 19.043154000000001
#
# number of rings (size 3 to 8) (size 9 to 14) (size 15 to 20)
#    0.000    2.143    1.429    2.143    8.000    0.286 
#    0.000    1.429    0.000    1.714    0.000    5.000 
#    0.000    0.000    0.000    0.000    0.000    0.000 
#
# Total GULP energy -694338.787538 kJ/mol
# GULP energy per Si atom -12398.906920 kJ/mol
# Density = 1.899981 g / cm^3
# Si number density = 19.043154 Si / 1000 Ang^3
#
#
#
# Elastic Constant Matrix: (Units=GPa)
#
#
# Indices 1 2 3 4 5 6 
#
# 1 75.5018 42.3203 28.5148 0.0000 0.0000 0.2927
# 2 42.3203 75.5018 28.5148 0.0000 0.0000 -0.2927
# 3 28.5148 28.5148 50.0012 0.0000 0.0000 0.0000
# 4 0.0000 0.0000 0.0000 24.3060 0.0000 0.0000
# 5 0.0000 0.0000 0.0000 0.0000 24.3060 0.0000
# 6 0.2927 -0.2927 0.0000 0.0000 0.0000 21.1319
#
#
#
# Elastic Compliance Matrix: (Units=1/GPa)
#
#
# Indices 1 2 3 4 5 6 
#
# 1 0.020934 -0.009211 -0.006686 0.000000 0.000000 -0.000418
# 2 -0.009211 0.020934 -0.006686 0.000000 0.000000 0.000418
# 3 -0.006686 -0.006686 0.027625 0.000000 0.000000 0.000000
# 4 0.000000 0.000000 0.000000 0.041142 0.000000 0.000000
# 5 0.000000 0.000000 0.000000 0.000000 0.041142 0.000000
# 6 -0.000418 0.000418 0.000000 0.000000 0.000000 0.047334
#
#
# Mechanical properties :
#
#
# Convention : Reuss Voigt Hill
#
# Bulk Modulus (GPa) = 41.10296 44.41163 42.75730
# Shear Modulus (GPa) = 19.81106 20.72577 20.26841
#
# Velocity S-wave (km/s) = 3.22891 3.30261 3.26596
# Velocity P-wave (km/s) = 5.96088 6.15753 6.06000
#
# Compressibility (1/GPa) = 0.02432915
#
# Stress axis : x y z
#
# Youngs Moduli (GPa) = 47.76908 47.76908 36.19914
#
# Poissons Ratio (x) = 0.43998 0.24202
# Poissons Ratio (y) = 0.43998 0.24202
# Poissons Ratio (z) = 0.31937 0.31937
#
# Static dielectric constant tensor:
#      x y z
#    x 3.498690 0.000000 0.000000 
#    y 0.000000 3.498690 0.000000 
#    z 0.000000 0.000000 3.502610 
# 
# 
# High freq. dielectric constant tensor:
#      x y z
#    x 1.735740 0.000000 0.000000 
#    y 0.000000 1.735740 0.000000 
#    z 0.000000 0.000000 1.721600 
# 
# From -- ./inp_files/5860.got.cif
#   From: 2010.03.12/outbox.cif.g09.slc.cpg/sg87_3_cif.got.tgz:5860.got - 2010.04.08 20:16:13.
