data_PCOD8304659
_publ_section_title
;
Structure prediction by ZEFSAII (Michael W. Deem and Ramdas Pophale) SiO2 
 PCOD8304659
Probable space group: P 4 21 2
;
_chemical_formula_sum "Si O2"
_cell_formula_units_Z 44
_cell_length_a 8.468973
_cell_length_b 8.468973
_cell_length_c 29.130800
_cell_angle_alpha 90.000000
_cell_angle_beta 90.000000
_cell_angle_gamma 90.000000
_cell_volume 2089.363041
_symmetry_space_group_name_H-M "P 4 21 2"
_symmetry_group_IT_number 90
_symmetry_cell_setting 'tetragonal'
loop_
_space_group_symop_operation_xyz
x,y,z
1/2-y,1/2+x,z
-x,-y,z
1/2+y,1/2-x,z
1/2+x,1/2-y,-z
1/2-x,1/2+y,-z
y,x,-z
-y,-x,-z
loop_
_atom_site_type_symbol
_atom_site_label
_atom_site_fract_x
_atom_site_fract_y
_atom_site_fract_z
Si Si1 0.500000 0.500000 0.707653
Si Si2 0.078852 0.745795 0.774523
Si Si3 0.571732 0.248633 0.535657
Si Si4 0.244087 0.404945 0.041463
Si Si5 0.251204 0.071195 0.639175
Si Si6 0.095097 0.740885 0.878716
O O1 0.610738 0.610392 0.739673
O O2 0.393302 0.612035 0.675186
O O3 0.195405 0.601509 0.765435
O O4 0.108032 0.802779 0.826579
O O5 0.394931 0.191716 0.527157
O O6 0.612230 0.387771 0.500000
O O7 0.591094 0.313718 0.587426
O O8 0.201816 0.588051 0.038738
O O9 0.340058 0.378246 0.088620
O O10 0.359448 0.359448 0.000000
O O11 0.392400 0.192235 0.647441
O O12 0.200174 0.586418 0.888651
#
# Coordination Sequence:
#
# PCOD8304659 Si02
#       6
#     4   8   8   8   8   8
#     4  12  20  32  59  84 103 144 192 224 268 332
#     4   9  20  37  55  80 112 142 180 232 279 321
#     4   9  19  35  54  77 107 141 178 221 268 321
#     4  11  24  39  57  85 117 146 181 223 266 319
#     4   9  20  37  53  77 114 147 178 223 276 327
#     4   9  19  37  59  81 109 145 182 222 271 323
#
# _framework density 21.059048000000001
#
# number of rings (size 3 to 8) (size 9 to 14) (size 15 to 20)
#    0.000    2.364    0.000    4.364    0.000   10.182 
#    0.000    0.000    0.000    4.364    0.000    0.000 
#    0.000    0.000    0.000    0.000    0.000    0.000 
#
# Total GULP energy -545602.412645 kJ/mol
# GULP energy per Si atom -12400.054833 kJ/mol
# Density = 2.101112 g / cm^3
# Si number density = 21.059048 Si / 1000 Ang^3
#
#
#
# Elastic Constant Matrix: (Units=GPa)
#
#
# Indices 1 2 3 4 5 6 
#
# 1 49.0829 12.8566 45.1265 0.0000 0.0000 0.0000
# 2 12.8566 49.0822 45.1262 0.0000 0.0000 0.0000
# 3 45.1265 45.1262 148.5646 0.0000 0.0000 0.0000
# 4 0.0000 0.0000 0.0000 38.4240 0.0000 0.0000
# 5 0.0000 0.0000 0.0000 0.0000 38.4241 0.0000
# 6 0.0000 0.0000 0.0000 0.0000 0.0000 29.1884
#
#
#
# Elastic Compliance Matrix: (Units=1/GPa)
#
#
# Indices 1 2 3 4 5 6 
#
# 1 0.028284 0.000680 -0.008798 0.000000 0.000000 0.000000
# 2 0.000680 0.028285 -0.008798 0.000000 0.000000 0.000000
# 3 -0.008798 -0.008798 0.012076 0.000000 0.000000 0.000000
# 4 0.000000 0.000000 0.000000 0.026025 0.000000 0.000000
# 5 0.000000 0.000000 0.000000 0.000000 0.026025 0.000000
# 6 0.000000 0.000000 0.000000 0.000000 0.000000 0.034260
#
#
# Mechanical properties :
#
#
# Convention : Reuss Voigt Hill
#
# Bulk Modulus (GPa) = 28.72486 50.32759 39.52623
# Shear Modulus (GPa) = 24.95112 30.78201 27.86656
#
# Velocity S-wave (km/s) = 3.44585 3.82737 3.64161
# Velocity P-wave (km/s) = 5.43154 6.59408 6.04084
#
# Compressibility (1/GPa) = 0.03481305
#
# Stress axis : x y z
#
# Youngs Moduli (GPa) = 35.35535 35.35474 82.81027
#
# Poissons Ratio (x) = -0.02404 0.72855
# Poissons Ratio (y) = -0.02404 0.72856
# Poissons Ratio (z) = 0.31105 0.31105
#
# Static dielectric constant tensor:
#      x y z
#    x 3.573880 0.000000 0.000000 
#    y 0.000000 3.573880 0.000000 
#    z 0.000000 0.000000 3.860090 
# 
# 
# High freq. dielectric constant tensor:
#      x y z
#    x 1.812400 0.000000 0.000000 
#    y 0.000000 1.812400 0.000000 
#    z 0.000000 0.000000 1.836400 
# 
# From -- ./inp_files/3016.got.cif
#   From: 2010.03.12/outbox.cif.g09.slc.cpg/sg90_2_cif.got.tgz:3016.got - 2010.04.08 20:26:03.
