data_PCOD8304709
_publ_section_title
;
Structure prediction by ZEFSAII (Michael W. Deem and Ramdas Pophale) SiO2 
 PCOD8304709
Probable space group: P 41 2 2
;
_chemical_formula_sum "Si O2"
_cell_formula_units_Z 48
_cell_length_a 12.158710
_cell_length_b 12.158710
_cell_length_c 18.175028
_cell_angle_alpha 90.000000
_cell_angle_beta 90.000000
_cell_angle_gamma 90.000000
_cell_volume 2686.891249
_symmetry_space_group_name_H-M "P 41 2 2"
_symmetry_group_IT_number 91
_symmetry_cell_setting 'tetragonal'
loop_
_space_group_symop_operation_xyz
x,y,z
-y,x,1/4+z
-x,-y,1/2+z
y,-x,3/4+z
x,-y,1/2-z
-x,y,-z
y,x,3/4-z
-y,-x,1/4-z
loop_
_atom_site_type_symbol
_atom_site_label
_atom_site_fract_x
_atom_site_fract_y
_atom_site_fract_z
Si Si1 0.485742 0.122593 0.338378
Si Si2 0.111674 0.735613 0.164585
Si Si3 0.520807 0.860622 0.675081
Si Si4 0.609628 0.115331 0.044736
Si Si5 0.851338 0.732620 0.158252
Si Si6 0.883852 0.695874 0.671558
O O1 0.369009 0.157941 0.370591
O O2 0.504200 0.177356 0.257947
O O3 0.581051 0.167129 0.392279
O O4 0.488813 0.991629 0.332511
O O5 0.156443 0.843558 0.125000
O O6 0.158490 0.726121 0.247271
O O7 0.981320 0.749544 0.162634
O O8 0.431996 0.813285 0.615260
O O9 0.643200 0.821060 0.654173
O O10 0.684007 0.015395 0.075374
O O11 0.500000 0.070986 0.000000
O O12 0.685392 0.186393 0.988663
O O13 0.790576 0.845866 0.136308
#
# Coordination Sequence:
#
# PCOD8304709 Si02
#       6
#     8   8   8   8   8   8
#     4   9  16  27  45  69  89 114 152 196 239 275
#     4  10  19  30  46  68  96 126 155 188 232 291
#     4   8  14  27  46  64  87 115 153 196 231 275
#     4   8  15  29  47  67  92 122 155 197 241 283
#     4   9  17  28  45  70  93 120 154 190 238 286
#     4  10  17  27  44  66  94 118 148 196 238 270
#
# _framework density 17.864512000000001
#
# number of rings (size 3 to 8) (size 9 to 14) (size 15 to 20)
#    0.000    3.000    0.000    4.500    0.000    2.000 
#    0.000    0.833    0.000   16.000    0.000   14.000 
#    0.000    0.000    0.000    0.000    0.000    0.000 
#
# Total GULP energy -594646.006353 kJ/mol
# GULP energy per Si atom -12388.458466 kJ/mol
# Density = 1.782385 g / cm^3
# Si number density = 17.864512 Si / 1000 Ang^3
#
#
#
# Elastic Constant Matrix: (Units=GPa)
#
#
# Indices 1 2 3 4 5 6 
#
# 1 41.6000 24.3590 22.8603 0.0000 0.0000 0.0000
# 2 24.3590 41.5983 22.8599 0.0000 0.0000 0.0000
# 3 22.8603 22.8599 91.8583 0.0000 0.0000 0.0000
# 4 0.0000 0.0000 0.0000 25.2935 0.0000 0.0000
# 5 0.0000 0.0000 0.0000 0.0000 25.2935 0.0000
# 6 0.0000 0.0000 0.0000 0.0000 0.0000 5.5365
#
#
#
# Elastic Compliance Matrix: (Units=1/GPa)
#
#
# Indices 1 2 3 4 5 6 
#
# 1 0.038162 -0.019841 -0.004560 0.000000 0.000000 0.000000
# 2 -0.019841 0.038164 -0.004560 0.000000 0.000000 0.000000
# 3 -0.004560 -0.004560 0.013156 0.000000 0.000000 0.000000
# 4 0.000000 0.000000 0.000000 0.039536 0.000000 0.000000
# 5 0.000000 0.000000 0.000000 0.000000 0.039536 0.000000
# 6 0.000000 0.000000 0.000000 0.000000 0.000000 0.180618
#
#
# Mechanical properties :
#
#
# Convention : Reuss Voigt Hill
#
# Bulk Modulus (GPa) = 31.68485 35.02388 33.35437
# Shear Modulus (GPa) = 11.97282 18.22320 15.09801
#
# Velocity S-wave (km/s) = 2.59163 3.19733 2.91028
# Velocity P-wave (km/s) = 5.17012 5.76874 5.47761
#
# Compressibility (1/GPa) = 0.03156082
#
# Stress axis : x y z
#
# Youngs Moduli (GPa) = 26.20407 26.20293 76.01243
#
# Poissons Ratio (x) = 0.51990 0.34658
# Poissons Ratio (y) = 0.51992 0.34659
# Poissons Ratio (z) = 0.11948 0.11948
#
# Static dielectric constant tensor:
#      x y z
#    x 2.946690 0.000000 0.000000 
#    y 0.000000 2.946690 0.000000 
#    z 0.000000 0.000000 3.872700 
# 
# 
# High freq. dielectric constant tensor:
#      x y z
#    x 1.647470 0.000000 0.000000 
#    y 0.000000 1.647470 0.000000 
#    z 0.000000 0.000000 1.717920 
# 
# From -- ./inp_files/16920.got.cif
#   From: 2010.03.12/outbox.cif.g09.slc.cpg/sg91_9_cif.got.tgz:16920.got - 2010.04.08 20:27:58.
