data_PCOD8304499
_publ_section_title
;
Structure prediction by ZEFSAII (Michael W. Deem and Ramdas Pophale) SiO2 
 PCOD8304499
Probable space group: P 4 2 2
;
_chemical_formula_sum "Si O2"
_cell_formula_units_Z 60
_cell_length_a 11.933951
_cell_length_b 11.933951
_cell_length_c 21.390071
_cell_angle_alpha 90.000000
_cell_angle_beta 90.000000
_cell_angle_gamma 90.000000
_cell_volume 3046.356510
_symmetry_space_group_name_H-M "P 4 2 2"
_symmetry_group_IT_number 89
_symmetry_cell_setting 'tetragonal'
loop_
_space_group_symop_operation_xyz
x,y,z
-y,x,z
-x,-y,z
y,-x,z
x,-y,-z
-x,y,-z
y,x,-z
-y,-x,-z
loop_
_atom_site_type_symbol
_atom_site_label
_atom_site_fract_x
_atom_site_fract_y
_atom_site_fract_z
Si Si1 0.137001 0.874191 0.231542
Si Si2 0.677969 0.034318 0.065456
Si Si3 0.376841 0.637319 0.429540
Si Si4 0.500000 0.000000 0.168642
Si Si5 0.478102 0.774405 0.757693
Si Si6 0.186146 0.769781 0.101633
Si Si7 0.711049 0.267633 0.309927
Si Si8 0.661316 0.426096 0.120157
O O1 0.197827 0.815642 0.172493
O O2 0.196253 0.826846 0.294172
O O3 0.006570 0.843227 0.230479
O O4 0.596683 0.045515 0.123863
O O5 0.740461 0.152337 0.056193
O O6 0.773173 0.942052 0.080502
O O7 0.618095 0.000000 0.000000
O O8 0.345733 0.508409 0.417020
O O9 0.336823 0.663177 0.500000
O O10 0.315486 0.726045 0.383793
O O11 0.462089 0.103481 0.211031
O O12 0.601821 0.758729 0.731312
O O13 0.388878 0.764660 0.702780
O O14 0.443671 0.675313 0.805584
O O15 0.229821 0.640541 0.095296
O O16 0.647061 0.554169 0.096825
#
# Coordination Sequence:
#
# PCOD8304499 Si02
#       8
#     8   8   8   4   8   8   8   8
#     4  11  23  40  60  85 118 158 197 251 316 366
#     4  12  26  43  64  85 113 154 203 245 304 380
#     4   9  18  34  56  87 133 176 203 233 279 343
#     4  12  25  42  58  88 123 158 192 256 316 356
#     4  12  23  34  59  91 127 156 198 244 306 364
#     4  12  23  42  62  89 115 150 192 255 308 363
#     4  12  22  35  58  96 124 164 197 247 290 363
#     4  11  21  36  58  88 120 155 184 230 307 372
#
# _framework density 19.695658999999999
#
# number of rings (size 3 to 8) (size 9 to 14) (size 15 to 20)
#    0.000    0.667    6.667    2.600    1.867    0.533 
#    0.000    0.667    0.000    0.800    0.000    7.467 
#    0.000    0.000    0.000    0.000    0.000    0.000 
#
# Total GULP energy -743707.741570 kJ/mol
# GULP energy per Si atom -12395.129026 kJ/mol
# Density = 1.965083 g / cm^3
# Si number density = 19.695659 Si / 1000 Ang^3
#
#
#
# Elastic Constant Matrix: (Units=GPa)
#
#
# Indices 1 2 3 4 5 6 
#
# 1 75.2884 29.3705 14.4725 0.0000 0.0000 0.0000
# 2 29.3705 75.2884 14.4725 0.0000 0.0000 0.0000
# 3 14.4725 14.4725 74.2187 0.0000 0.0000 0.0000
# 4 0.0000 0.0000 0.0000 23.1613 0.0000 0.0000
# 5 0.0000 0.0000 0.0000 0.0000 23.1613 0.0000
# 6 0.0000 0.0000 0.0000 0.0000 0.0000 36.3322
#
#
#
# Elastic Compliance Matrix: (Units=1/GPa)
#
#
# Indices 1 2 3 4 5 6 
#
# 1 0.015939 -0.005839 -0.001969 0.000000 0.000000 0.000000
# 2 -0.005839 0.015939 -0.001969 0.000000 0.000000 0.000000
# 3 -0.001969 -0.001969 0.014242 0.000000 0.000000 0.000000
# 4 0.000000 0.000000 0.000000 0.043176 0.000000 0.000000
# 5 0.000000 0.000000 0.000000 0.000000 0.043176 0.000000
# 6 0.000000 0.000000 0.000000 0.000000 0.000000 0.027524
#
#
# Mechanical properties :
#
#
# Convention : Reuss Voigt Hill
#
# Bulk Modulus (GPa) = 37.64603 37.93629 37.79116
# Shear Modulus (GPa) = 26.53863 27.62961 27.08412
#
# Velocity S-wave (km/s) = 3.67473 3.74950 3.71230
# Velocity P-wave (km/s) = 6.09591 6.16831 6.13222
#
# Compressibility (1/GPa) = 0.02656323
#
# Stress axis : x y z
#
# Youngs Moduli (GPa) = 62.74015 62.74015 70.21606
#
# Poissons Ratio (x) = 0.36636 0.13828
# Poissons Ratio (y) = 0.36636 0.13828
# Poissons Ratio (z) = 0.12356 0.12356
#
# Static dielectric constant tensor:
#      x y z
#    x 3.610780 0.000000 0.000000 
#    y 0.000000 3.610780 0.000000 
#    z 0.000000 0.000000 3.382050 
# 
# 
# High freq. dielectric constant tensor:
#      x y z
#    x 1.768830 0.000000 0.000000 
#    y 0.000000 1.768830 0.000000 
#    z 0.000000 0.000000 1.735060 
# 
# From -- ./inp_files/2649.got.cif
#   From: 2010.03.12/outbox.cif.g09.slc.cpg/sg89_2_cif.got.tgz:2649.got - 2010.04.08 20:24:03.
