data_PCOD8304617
_publ_section_title
;
Structure prediction by ZEFSAII (Michael W. Deem and Ramdas Pophale) SiO2 
 PCOD8304617
Probable space group: P 4 21 2
;
_chemical_formula_sum "Si O2"
_cell_formula_units_Z 32
_cell_length_a 11.112546
_cell_length_b 11.112546
_cell_length_c 12.173560
_cell_angle_alpha 90.000000
_cell_angle_beta 90.000000
_cell_angle_gamma 90.000000
_cell_volume 1503.296838
_symmetry_space_group_name_H-M "P 4 21 2"
_symmetry_group_IT_number 90
_symmetry_cell_setting 'tetragonal'
loop_
_space_group_symop_operation_xyz
x,y,z
1/2-y,1/2+x,z
-x,-y,z
1/2+y,1/2-x,z
1/2+x,1/2-y,-z
1/2-x,1/2+y,-z
y,x,-z
-y,-x,-z
loop_
_atom_site_type_symbol
_atom_site_label
_atom_site_fract_x
_atom_site_fract_y
_atom_site_fract_z
Si Si1 0.354630 0.354630 0.000000
Si Si2 0.856261 0.821257 0.683254
Si Si3 0.500000 0.500000 0.168922
Si Si4 0.054721 0.310368 0.473201
Si Si5 0.121923 0.656042 0.837445
O O1 0.387851 0.447599 0.097627
O O2 0.361194 0.216611 0.042862
O O3 0.929037 0.770051 0.580386
O O4 0.760781 0.918439 0.639142
O O5 0.784715 0.712466 0.747563
O O6 0.950715 0.889493 0.760959
O O7 0.148275 0.418767 0.475189
O O8 0.165431 0.519230 0.819327
#
# Coordination Sequence:
#
# PCOD8304617 Si02
#       5
#     4   8   4   8   8
#     4  11  26  44  66  95 144 176 242 277 346 398
#     4  11  24  42  72  97 136 178 226 275 354 406
#     4  11  26  45  66 102 136 187 220 297 330 422
#     4  10  24  43  66 102 136 174 222 284 334 421
#     4  11  24  43  69  98 132 182 229 284 338 405
#
# _framework density 21.286548
#
# number of rings (size 3 to 8) (size 9 to 14) (size 15 to 20)
#    0.000    1.250    2.500    1.500    7.000    6.000 
#    0.000    0.000    0.000    0.000    0.000    0.000 
#    0.000    0.000    0.000    0.000    0.000    0.000 
#
# Total GULP energy -396490.796947 kJ/mol
# GULP energy per Si atom -12390.337405 kJ/mol
# Density = 2.123810 g / cm^3
# Si number density = 21.286548 Si / 1000 Ang^3
#
#
#
# Elastic Constant Matrix: (Units=GPa)
#
#
# Indices 1 2 3 4 5 6 
#
# 1 98.8577 23.7712 53.7367 0.0000 0.0000 0.0000
# 2 23.7712 98.8577 53.7367 0.0000 0.0000 0.0000
# 3 53.7367 53.7367 128.4889 0.0000 0.0000 0.0000
# 4 0.0000 0.0000 0.0000 35.3175 0.0000 0.0000
# 5 0.0000 0.0000 0.0000 0.0000 35.3175 0.0000
# 6 0.0000 0.0000 0.0000 0.0000 0.0000 12.5062
#
#
#
# Elastic Compliance Matrix: (Units=1/GPa)
#
#
# Indices 1 2 3 4 5 6 
#
# 1 0.013096 -0.000222 -0.005384 0.000000 0.000000 0.000000
# 2 -0.000222 0.013096 -0.005384 0.000000 0.000000 0.000000
# 3 -0.005384 -0.005384 0.012286 0.000000 0.000000 0.000000
# 4 0.000000 0.000000 0.000000 0.028315 0.000000 0.000000
# 5 0.000000 0.000000 0.000000 0.000000 0.028315 0.000000
# 6 0.000000 0.000000 0.000000 0.000000 0.000000 0.079960
#
#
# Mechanical properties :
#
#
# Convention : Reuss Voigt Hill
#
# Bulk Modulus (GPa) = 60.61698 65.41038 63.01368
# Shear Modulus (GPa) = 24.68582 29.62555 27.15569
#
# Velocity S-wave (km/s) = 3.40912 3.73466 3.57560
# Velocity P-wave (km/s) = 6.63586 7.02796 6.83472
#
# Compressibility (1/GPa) = 0.01649703
#
# Stress axis : x y z
#
# Youngs Moduli (GPa) = 76.36186 76.36186 81.39342
#
# Poissons Ratio (x) = 0.01699 0.43821
# Poissons Ratio (y) = 0.01699 0.43821
# Poissons Ratio (z) = 0.41112 0.41112
#
# Static dielectric constant tensor:
#      x y z
#    x 3.966630 0.000000 0.000000 
#    y 0.000000 3.966630 0.000000 
#    z 0.000000 0.000000 4.011200 
# 
# 
# High freq. dielectric constant tensor:
#      x y z
#    x 1.839440 0.000000 0.000000 
#    y 0.000000 1.839440 0.000000 
#    z 0.000000 0.000000 1.836510 
# 
# From -- ./inp_files/1875.got.cif
#   From: 2010.03.12/outbox.cif.g09.slc.cpg/sg90_1_cif.got.tgz:1875.got - 2010.04.08 20:26:03.
