data_PCOD8304913
_publ_section_title
;
Structure prediction by ZEFSAII (Michael W. Deem and Ramdas Pophale) SiO2 
 PCOD8304913
Probable space group: P 41 2 2
;
_chemical_formula_sum "Si O2"
_cell_formula_units_Z 56
_cell_length_a 14.116784
_cell_length_b 14.116784
_cell_length_c 13.959862
_cell_angle_alpha 90.000000
_cell_angle_beta 90.000000
_cell_angle_gamma 90.000000
_cell_volume 2781.971422
_symmetry_space_group_name_H-M "P 41 2 2"
_symmetry_group_IT_number 91
_symmetry_cell_setting 'tetragonal'
loop_
_space_group_symop_operation_xyz
x,y,z
-y,x,1/4+z
-x,-y,1/2+z
y,-x,3/4+z
x,-y,1/2-z
-x,y,-z
y,x,3/4-z
-y,-x,1/4-z
loop_
_atom_site_type_symbol
_atom_site_label
_atom_site_fract_x
_atom_site_fract_y
_atom_site_fract_z
Si Si1 0.667970 0.007313 0.646703
Si Si2 0.328301 0.191900 0.682959
Si Si3 0.824537 0.571777 0.379478
Si Si4 0.950160 0.162253 0.705283
Si Si5 0.086065 0.143908 0.070205
Si Si6 0.798078 0.636452 0.173710
Si Si7 0.961056 0.467248 0.857421
O O1 0.664466 0.903294 0.603588
O O2 0.718466 0.000000 0.750000
O O3 0.730374 0.075724 0.577235
O O4 0.565698 0.057579 0.663587
O O5 0.385196 0.223561 0.776582
O O6 0.243836 0.123733 0.716034
O O7 0.280864 0.286815 0.635735
O O8 0.397565 0.129580 0.614340
O O9 0.793121 0.633666 0.288864
O O10 0.780151 0.466898 0.370603
O O11 0.939473 0.576962 0.394209
O O12 0.909484 0.090517 0.625000
O O13 0.926208 0.143375 0.814925
O O14 0.063480 0.162421 0.698064
O O15 0.000000 0.116927 0.000000
O O16 0.980707 0.500000 0.750000
#
# Coordination Sequence:
#
# PCOD8304913 Si02
#       7
#     8   8   8   8   8   8   8
#     4  11  21  38  60  82 123 173 213 263 321 388
#     4  12  24  35  64  99 121 160 222 269 329 393
#     4  10  20  40  63  92 131 168 199 273 335 395
#     4  12  25  42  57  83 126 183 227 258 320 400
#     4  12  25  38  60  88 131 171 216 273 325 381
#     4  10  21  39  62  93 127 159 214 266 331 392
#     4  11  20  38  60  88 128 163 210 274 330 375
#
# _framework density 20.129611000000001
#
# number of rings (size 3 to 8) (size 9 to 14) (size 15 to 20)
#    0.000    0.857    4.286    6.857    2.000    1.143 
#    0.000    0.000    0.000    0.000   11.143    0.000 
#    0.000    0.000    0.000    0.000    0.000    0.000 
#
# Total GULP energy -693803.396965 kJ/mol
# GULP energy per Si atom -12389.346374 kJ/mol
# Density = 2.008379 g / cm^3
# Si number density = 20.129611 Si / 1000 Ang^3
#
#
#
# Elastic Constant Matrix: (Units=GPa)
#
#
# Indices 1 2 3 4 5 6 
#
# 1 88.4941 43.0306 10.4507 0.0000 0.0000 0.0000
# 2 43.0306 88.4953 10.4513 0.0000 0.0000 0.0000
# 3 10.4507 10.4513 70.5966 0.0000 0.0000 0.0000
# 4 0.0000 0.0000 0.0000 25.0269 0.0000 0.0000
# 5 0.0000 0.0000 0.0000 0.0000 25.0268 0.0000
# 6 0.0000 0.0000 0.0000 0.0000 0.0000 34.0628
#
#
#
# Elastic Compliance Matrix: (Units=1/GPa)
#
#
# Indices 1 2 3 4 5 6 
#
# 1 0.014891 -0.007105 -0.001153 0.000000 0.000000 0.000000
# 2 -0.007105 0.014891 -0.001153 0.000000 0.000000 0.000000
# 3 -0.001153 -0.001153 0.014506 0.000000 0.000000 0.000000
# 4 0.000000 0.000000 0.000000 0.039957 0.000000 0.000000
# 5 0.000000 0.000000 0.000000 0.000000 0.039957 0.000000
# 6 0.000000 0.000000 0.000000 0.000000 0.000000 0.029358
#
#
# Mechanical properties :
#
#
# Convention : Reuss Voigt Hill
#
# Bulk Modulus (GPa) = 39.26471 41.71679 40.49075
# Shear Modulus (GPa) = 27.64438 29.06689 28.35564
#
# Velocity S-wave (km/s) = 3.70985 3.80410 3.75727
# Velocity P-wave (km/s) = 6.15621 6.32962 6.24352
#
# Compressibility (1/GPa) = 0.02546817
#
# Stress axis : x y z
#
# Youngs Moduli (GPa) = 67.15510 67.15592 68.93576
#
# Poissons Ratio (x) = 0.47711 0.07945
# Poissons Ratio (y) = 0.47711 0.07947
# Poissons Ratio (z) = 0.07740 0.07741
#
# Static dielectric constant tensor:
#      x y z
#    x 3.771590 0.000000 0.000000 
#    y 0.000000 3.771590 0.000000 
#    z 0.000000 0.000000 3.770620 
# 
# 
# High freq. dielectric constant tensor:
#      x y z
#    x 1.772710 0.000000 0.000000 
#    y 0.000000 1.772710 0.000000 
#    z 0.000000 0.000000 1.794910 
# 
# From -- ./inp_files/20818.got.cif
#   From: 2010.03.12/outbox.cif.g09.slc.cpg/sg91_11_cif.got.tgz:20818.got - 2010.04.08 20:27:58.
