data_PCOD8304789
_publ_section_title
;
Structure prediction by ZEFSAII (Michael W. Deem and Ramdas Pophale) SiO2 
 PCOD8304789
Probable space group: P 41 2 2
;
_chemical_formula_sum "Si O2"
_cell_formula_units_Z 52
_cell_length_a 17.690472
_cell_length_b 17.690472
_cell_length_c 10.164308
_cell_angle_alpha 90.000000
_cell_angle_beta 90.000000
_cell_angle_gamma 90.000000
_cell_volume 3180.948644
_symmetry_space_group_name_H-M "P 41 2 2"
_symmetry_group_IT_number 91
_symmetry_cell_setting 'tetragonal'
loop_
_space_group_symop_operation_xyz
x,y,z
-y,x,1/4+z
-x,-y,1/2+z
y,-x,3/4+z
x,-y,1/2-z
-x,y,-z
y,x,3/4-z
-y,-x,1/4-z
loop_
_atom_site_type_symbol
_atom_site_label
_atom_site_fract_x
_atom_site_fract_y
_atom_site_fract_z
Si Si1 0.992439 0.500000 0.250000
Si Si2 0.794227 0.327392 0.474765
Si Si3 0.950991 0.355020 0.372445
Si Si4 0.669457 0.206585 0.471050
Si Si5 0.956717 0.355046 0.866645
Si Si6 0.443301 0.334439 0.617496
Si Si7 0.545291 0.684362 0.631293
O O1 0.940967 0.445317 0.341746
O O2 0.045003 0.553774 0.342018
O O3 0.870644 0.315959 0.393112
O O4 0.749115 0.249343 0.460110
O O5 0.811840 0.347759 0.626536
O O6 0.751047 0.396835 0.410250
O O7 0.000000 0.342060 0.500000
O O8 0.994569 0.315622 0.250146
O O9 0.674188 0.129625 0.385731
O O10 0.604072 0.259597 0.414656
O O11 0.000000 0.333942 0.000000
O O12 0.500000 0.352004 0.500000
O O13 0.485918 0.321426 0.752251
O O14 0.392878 0.408742 0.633945
O O15 0.500000 0.703744 0.500000
#
# Coordination Sequence:
#
# PCOD8304789 Si02
#       7
#     4   8   8   8   8   8   8
#     4   8  20  28  50  76 106 136 172 220 262 312
#     4  10  20  38  55  80 104 144 182 220 270 326
#     4  10  19  33  53  79 106 136 176 213 264 318
#     4  10  21  36  58  76 108 141 183 222 265 333
#     4  10  21  34  52  83 109 136 173 213 274 320
#     4  11  22  37  54  73  94 138 186 229 282 327
#     4  11  24  36  52  73 100 134 182 236 285 319
#
# _framework density 16.347324
#
# number of rings (size 3 to 8) (size 9 to 14) (size 15 to 20)
#    0.923    0.923    3.077    1.385    2.154    5.538 
#    0.000    2.308    0.000    0.000    0.000    0.000 
#    0.000    3.692    0.000    0.000    0.000    0.000 
#
# Total GULP energy -644548.812767 kJ/mol
# GULP energy per Si atom -12395.169476 kJ/mol
# Density = 1.631012 g / cm^3
# Si number density = 16.347324 Si / 1000 Ang^3
#
#
#
# Elastic Constant Matrix: (Units=GPa)
#
#
# Indices 1 2 3 4 5 6 
#
# 1 94.6936 31.5971 39.8333 0.0000 0.0000 0.0000
# 2 31.5971 94.6936 39.8333 0.0000 0.0000 0.0000
# 3 39.8333 39.8333 118.8664 0.0000 0.0000 0.0000
# 4 0.0000 0.0000 0.0000 16.7235 0.0000 0.0000
# 5 0.0000 0.0000 0.0000 0.0000 16.7235 0.0000
# 6 0.0000 0.0000 0.0000 0.0000 0.0000 14.1239
#
#
#
# Elastic Compliance Matrix: (Units=1/GPa)
#
#
# Indices 1 2 3 4 5 6 
#
# 1 0.012945 -0.002904 -0.003365 0.000000 0.000000 0.000000
# 2 -0.002904 0.012945 -0.003365 0.000000 0.000000 0.000000
# 3 -0.003365 -0.003365 0.010668 0.000000 0.000000 0.000000
# 4 0.000000 0.000000 0.000000 0.059796 0.000000 0.000000
# 5 0.000000 0.000000 0.000000 0.000000 0.059796 0.000000
# 6 0.000000 0.000000 0.000000 0.000000 0.000000 0.070802
#
#
# Mechanical properties :
#
#
# Convention : Reuss Voigt Hill
#
# Bulk Modulus (GPa) = 57.83536 58.97566 58.40551
# Shear Modulus (GPa) = 19.84267 22.64684 21.24475
#
# Velocity S-wave (km/s) = 3.48777 3.72607 3.60889
# Velocity P-wave (km/s) = 7.18855 7.39368 7.29184
#
# Compressibility (1/GPa) = 0.01729046
#
# Stress axis : x y z
#
# Youngs Moduli (GPa) = 77.25125 77.25125 93.73884
#
# Poissons Ratio (x) = 0.22434 0.31541
# Poissons Ratio (y) = 0.22434 0.31541
# Poissons Ratio (z) = 0.25993 0.25993
#
# Static dielectric constant tensor:
#      x y z
#    x 2.999190 0.000000 0.000000 
#    y 0.000000 2.999190 0.000000 
#    z 0.000000 0.000000 3.125020 
# 
# 
# High freq. dielectric constant tensor:
#      x y z
#    x 1.609970 0.000000 0.000000 
#    y 0.000000 1.609970 0.000000 
#    z 0.000000 0.000000 1.639440 
# 
# From -- ./inp_files/15241.got.cif
#   From: 2010.03.12/outbox.cif.g09.slc.cpg/sg91_8_cif.got.tgz:15241.got - 2010.04.08 20:27:58.
