data_PCOD8304038
_publ_section_title
;
Structure prediction by ZEFSAII (Michael W. Deem and Ramdas Pophale) SiO2 
 PCOD8304038
Probable space group: I 4/M
;
_chemical_formula_sum "Si O2"
_cell_formula_units_Z 72
_cell_length_a 17.520538
_cell_length_b 17.520538
_cell_length_c 11.901598
_cell_angle_alpha 90.000000
_cell_angle_beta 90.000000
_cell_angle_gamma 90.000000
_cell_volume 3653.424633
_symmetry_space_group_name_H-M "I 4/M"
_symmetry_group_IT_number 87
_symmetry_cell_setting 'tetragonal'
loop_
_space_group_symop_operation_xyz
x,y,z
-y,x,z
-x,-y,z
y,-x,z
-x,-y,-z
y,-x,-z
x,y,-z
-y,x,-z
1/2+x,1/2+y,1/2+z
1/2-y,1/2+x,1/2+z
1/2-x,1/2-y,1/2+z
1/2+y,1/2-x,1/2+z
1/2-x,1/2-y,1/2-z
1/2+y,1/2-x,1/2-z
1/2+x,1/2+y,1/2-z
1/2-y,1/2+x,1/2-z
loop_
_atom_site_type_symbol
_atom_site_label
_atom_site_fract_x
_atom_site_fract_y
_atom_site_fract_z
Si Si1 0.063283 0.893727 0.500000
Si Si2 0.094286 0.788476 0.000000
Si Si3 0.679684 0.316032 0.125276
Si Si4 0.708827 0.077063 0.761778
Si Si5 0.901115 0.299916 0.228519
Si Si6 0.782899 0.078106 0.000000
O O1 0.094668 0.852274 0.611818
O O2 0.974592 0.895551 0.500000
O O3 0.110223 0.734967 0.105960
O O4 0.147834 0.862375 0.000000
O O5 0.007111 0.818733 0.000000
O O6 0.731038 0.378509 0.185362
O O7 0.664802 0.240007 0.195742
O O8 0.713569 0.296805 0.000000
O O9 0.624726 0.111458 0.734453
O O10 0.707898 0.987665 0.728208
O O11 0.729169 0.088375 0.892152
#
# Coordination Sequence:
#
# PCOD8304038 Si02
#       6
#     8   8  16  16  16   8
#     4   9  18  32  52  86 126 154 188 239 294 358
#     4  10  22  40  62  89 121 159 205 247 294 359
#     4  10  22  36  63  89 116 155 201 243 302 356
#     4  11  24  41  63  89 121 160 202 249 298 354
#     4  11  24  41  63  89 121 160 202 249 298 354
#     4  10  22  40  62  89 121 159 205 247 294 359
#
# _framework density 19.707536999999999
#
# number of rings (size 3 to 8) (size 9 to 14) (size 15 to 20)
#    0.667    1.000    2.222    2.000    3.111    0.667 
#    0.000    0.000    0.000    4.000    0.000    0.000 
#    0.000    0.000    0.000    0.000    0.000    0.000 
#
# Total GULP energy -446118.723363 kJ/mol
# GULP energy per Si atom -12392.186760 kJ/mol
# Density = 1.966268 g / cm^3
# Si number density = 19.707537 Si / 1000 Ang^3
#
#
#
# Elastic Constant Matrix: (Units=GPa)
#
#
# Indices 1 2 3 4 5 6 
#
# 1 92.9674 50.1463 34.3854 0.0000 0.0000 -0.3626
# 2 50.1463 92.9674 34.3854 0.0000 0.0000 0.3626
# 3 34.3854 34.3854 116.9792 0.0000 0.0000 0.0000
# 4 0.0000 0.0000 0.0000 9.2077 0.0000 0.0000
# 5 0.0000 0.0000 0.0000 0.0000 9.2077 0.0000
# 6 -0.3626 0.3626 0.0000 0.0000 0.0000 36.1129
#
#
#
# Elastic Compliance Matrix: (Units=1/GPa)
#
#
# Indices 1 2 3 4 5 6 
#
# 1 0.015747 -0.007610 -0.002392 0.000000 0.000000 0.000235
# 2 -0.007610 0.015747 -0.002392 0.000000 0.000000 -0.000235
# 3 -0.002392 -0.002392 0.009955 0.000000 0.000000 0.000000
# 4 0.000000 0.000000 0.000000 0.108605 0.000000 0.000000
# 5 0.000000 0.000000 0.000000 0.000000 0.108605 0.000000
# 6 0.000235 -0.000235 0.000000 0.000000 0.000000 0.027696
#
#
# Mechanical properties :
#
#
# Convention : Reuss Voigt Hill
#
# Bulk Modulus (GPa) = 60.01996 60.08312 60.05154
# Shear Modulus (GPa) = 15.78811 23.17214 19.48012
#
# Velocity S-wave (km/s) = 2.83348 3.43272 3.14739
# Velocity P-wave (km/s) = 6.42077 6.80183 6.61405
#
# Compressibility (1/GPa) = 0.01666112
#
# Stress axis : x y z
#
# Youngs Moduli (GPa) = 63.50473 63.50473 100.45589
#
# Poissons Ratio (x) = 0.48328 0.24027
# Poissons Ratio (y) = 0.48328 0.24027
# Poissons Ratio (z) = 0.15189 0.15189
#
# Static dielectric constant tensor:
#      x y z
#    x 3.631240 0.000000 0.000000 
#    y 0.000000 3.631240 0.000000 
#    z 0.000000 0.000000 3.655390 
# 
# 
# High freq. dielectric constant tensor:
#      x y z
#    x 1.768620 0.000000 0.000000 
#    y 0.000000 1.768620 0.000000 
#    z 0.000000 0.000000 1.773550 
# 
# From -- ./inp_files/2507.got.cif
#   From: 2010.03.12/outbox.cif.g09.slc.cpg/sg87_2_cif.got.tgz:2507.got - 2010.04.08 20:16:13.
