data_PCOD8304157
_publ_section_title
;
Structure prediction by ZEFSAII (Michael W. Deem and Ramdas Pophale) SiO2 
 PCOD8304157
Probable space group: I 4/M
;
_chemical_formula_sum "Si O2"
_cell_formula_units_Z 112
_cell_length_a 14.287325
_cell_length_b 14.287325
_cell_length_c 28.215939
_cell_angle_alpha 90.000000
_cell_angle_beta 90.000000
_cell_angle_gamma 90.000000
_cell_volume 5759.653480
_symmetry_space_group_name_H-M "I 4/M"
_symmetry_group_IT_number 87
_symmetry_cell_setting 'tetragonal'
loop_
_space_group_symop_operation_xyz
x,y,z
-y,x,z
-x,-y,z
y,-x,z
-x,-y,-z
y,-x,-z
x,y,-z
-y,x,-z
1/2+x,1/2+y,1/2+z
1/2-y,1/2+x,1/2+z
1/2-x,1/2-y,1/2+z
1/2+y,1/2-x,1/2+z
1/2-x,1/2-y,1/2-z
1/2+y,1/2-x,1/2-z
1/2+x,1/2+y,1/2-z
1/2-y,1/2+x,1/2-z
loop_
_atom_site_type_symbol
_atom_site_label
_atom_site_fract_x
_atom_site_fract_y
_atom_site_fract_z
Si Si1 0.624188 0.588509 0.948629
Si Si2 0.406614 0.879052 0.696114
Si Si3 0.093482 0.623357 0.697259
Si Si4 0.994341 0.608236 0.555794
Si Si5 0.157312 0.717463 0.393264
Si Si6 0.646074 0.536585 0.444546
Si Si7 0.147954 0.702394 0.101910
O O1 0.521949 0.628831 0.945908
O O2 0.677102 0.623547 0.902246
O O3 0.668291 0.618803 0.000000
O O4 0.517488 0.875317 0.688396
O O5 0.381932 0.845499 0.749221
O O6 0.358740 0.810051 0.658591
O O7 0.367927 0.983213 0.687491
O O8 0.149142 0.691128 0.661838
O O9 0.989363 0.623718 0.500000
O O10 0.900659 0.655027 0.577922
O O11 0.000000 0.500000 0.570353
O O12 0.092022 0.650895 0.574676
O O13 0.266032 0.726373 0.409000
O O14 0.566538 0.611644 0.430273
O O15 0.666787 0.542563 0.500000
O O16 0.743153 0.556690 0.417372
#
# Coordination Sequence:
#
# PCOD8304157 Si02
#       7
#    16  16  16  16  16  16  16
#     4   9  19  36  55  75 110 160 204 238 283 354
#     4   9  19  39  63  87 114 155 203 249 310 369
#     4   9  19  38  64  85 116 157 196 252 312 373
#     4  11  25  42  60  87 129 170 210 260 305 355
#     4  12  23  34  57  90 123 153 195 251 311 367
#     4   9  21  41  61  83 120 166 207 247 297 364
#     4  12  24  36  64  96 122 159 206 261 310 370
#
# _framework density 19.445613999999999
#
# number of rings (size 3 to 8) (size 9 to 14) (size 15 to 20)
#    0.000    1.857    1.429    4.286    4.000    4.000 
#    0.000    0.000    0.000    0.000    0.000    2.000 
#    0.000    0.000    0.000    0.000    0.000    0.000 
#
# Total GULP energy -694034.773197 kJ/mol
# GULP energy per Si atom -12393.478093 kJ/mol
# Density = 1.940136 g / cm^3
# Si number density = 19.445614 Si / 1000 Ang^3
#
#
#
# Elastic Constant Matrix: (Units=GPa)
#
#
# Indices 1 2 3 4 5 6 
#
# 1 60.2272 19.1835 34.4279 0.0000 0.0000 8.7460
# 2 19.1835 60.2272 34.4279 0.0000 0.0000 -8.7460
# 3 34.4279 34.4279 98.6975 0.0000 0.0000 0.0000
# 4 0.0000 0.0000 0.0000 32.6165 0.0000 0.0000
# 5 0.0000 0.0000 0.0000 0.0000 32.6165 0.0000
# 6 8.7460 -8.7460 0.0000 0.0000 0.0000 30.3889
#
#
#
# Elastic Compliance Matrix: (Units=1/GPa)
#
#
# Indices 1 2 3 4 5 6 
#
# 1 0.022912 -0.004859 -0.006297 0.000000 0.000000 -0.007992
# 2 -0.004859 0.022912 -0.006297 0.000000 0.000000 0.007992
# 3 -0.006297 -0.006297 0.014525 0.000000 0.000000 0.000000
# 4 0.000000 0.000000 0.000000 0.030659 0.000000 0.000000
# 5 0.000000 0.000000 0.000000 0.000000 0.030659 0.000000
# 6 -0.007992 0.007992 0.000000 0.000000 0.000000 0.037507
#
#
# Mechanical properties :
#
#
# Convention : Reuss Voigt Hill
#
# Bulk Modulus (GPa) = 39.30490 43.91450 41.60970
# Shear Modulus (GPa) = 24.68378 27.86521 26.27449
#
# Velocity S-wave (km/s) = 3.56669 3.78958 3.67983
# Velocity P-wave (km/s) = 6.10068 6.46376 6.28484
#
# Compressibility (1/GPa) = 0.02544212
#
# Stress axis : x y z
#
# Youngs Moduli (GPa) = 43.64566 43.64566 68.84567
#
# Poissons Ratio (x) = 0.21206 0.43354
# Poissons Ratio (y) = 0.21206 0.43354
# Poissons Ratio (z) = 0.27485 0.27485
#
# Static dielectric constant tensor:
#      x y z
#    x 3.490800 0.000000 0.000000 
#    y 0.000000 3.490800 0.000000 
#    z 0.000000 0.000000 3.602770 
# 
# 
# High freq. dielectric constant tensor:
#      x y z
#    x 1.751300 0.000000 0.000000 
#    y 0.000000 1.751300 0.000000 
#    z 0.000000 0.000000 1.753910 
# 
# From -- ./inp_files/6300.got.cif
#   From: 2010.03.12/outbox.cif.g09.slc.cpg/sg87_4_cif.got.tgz:6300.got - 2010.04.08 20:16:13.
