data_PCOD8304170
_publ_section_title
;
Structure prediction by ZEFSAII (Michael W. Deem and Ramdas Pophale) SiO2 
 PCOD8304170
Probable space group: I 4/M
;
_chemical_formula_sum "Si O2"
_cell_formula_units_Z 80
_cell_length_a 10.432893
_cell_length_b 10.432893
_cell_length_c 33.874091
_cell_angle_alpha 90.000000
_cell_angle_beta 90.000000
_cell_angle_gamma 90.000000
_cell_volume 3687.034118
_symmetry_space_group_name_H-M "I 4/M"
_symmetry_group_IT_number 87
_symmetry_cell_setting 'tetragonal'
loop_
_space_group_symop_operation_xyz
x,y,z
-y,x,z
-x,-y,z
y,-x,z
-x,-y,-z
y,-x,-z
x,y,-z
-y,x,-z
1/2+x,1/2+y,1/2+z
1/2-y,1/2+x,1/2+z
1/2-x,1/2-y,1/2+z
1/2+y,1/2-x,1/2+z
1/2-x,1/2-y,1/2-z
1/2+y,1/2-x,1/2-z
1/2+x,1/2+y,1/2-z
1/2-y,1/2+x,1/2-z
loop_
_atom_site_type_symbol
_atom_site_label
_atom_site_fract_x
_atom_site_fract_y
_atom_site_fract_z
Si Si1 0.433707 0.301455 0.808336
Si Si2 0.453833 0.146818 0.355850
Si Si3 0.047922 0.207361 0.778842
Si Si4 0.792601 0.289671 0.880212
Si Si5 0.097532 0.186763 0.543726
O O1 0.579271 0.340599 0.812991
O O2 0.423028 0.236554 0.765021
O O3 0.396867 0.211785 0.844740
O O4 0.430316 0.176952 0.309420
O O5 0.321778 0.187062 0.377409
O O6 0.557875 0.247133 0.374736
O O7 0.500000 0.000000 0.363124
O O8 0.905747 0.151295 0.785125
O O9 0.782844 0.354997 0.922842
O O10 0.126849 0.243021 0.500000
O O11 0.947058 0.169065 0.549206
#
# Coordination Sequence:
#
# PCOD8304170 Si02
#       5
#    16  16  16  16  16
#     4   9  18  35  61  84 113 159 204 262 323 364
#     4  12  25  40  61  92 120 170 217 254 317 375
#     4   9  18  39  61  81 117 165 212 256 312 363
#     4  12  24  41  59  89 132 161 212 266 307 379
#     4   9  18  36  66  98 126 159 201 261 332 382
#
# _framework density 21.697655000000001
#
# number of rings (size 3 to 8) (size 9 to 14) (size 15 to 20)
#    0.000    1.800    2.000    5.400    0.000    2.800 
#    3.600    1.000    0.000    3.600    0.000    1.400 
#    0.000    0.000    0.000    0.000    0.000    0.000 
#
# Total GULP energy -495582.080960 kJ/mol
# GULP energy per Si atom -12389.552024 kJ/mol
# Density = 2.164827 g / cm^3
# Si number density = 21.697655 Si / 1000 Ang^3
#
#
#
# Elastic Constant Matrix: (Units=GPa)
#
#
# Indices 1 2 3 4 5 6 
#
# 1 61.5757 3.1022 30.0155 0.0000 0.0000 10.2478
# 2 3.1022 61.5757 30.0155 0.0000 0.0000 -10.2478
# 3 30.0155 30.0155 156.6698 0.0000 0.0000 0.0000
# 4 0.0000 0.0000 0.0000 27.7587 0.0000 0.0000
# 5 0.0000 0.0000 0.0000 0.0000 27.7587 0.0000
# 6 10.2478 -10.2478 0.0000 0.0000 0.0000 20.7489
#
#
#
# Elastic Compliance Matrix: (Units=1/GPa)
#
#
# Indices 1 2 3 4 5 6 
#
# 1 0.019744 -0.000939 -0.003603 0.000000 0.000000 -0.010215
# 2 -0.000939 0.019744 -0.003603 0.000000 0.000000 0.010215
# 3 -0.003603 -0.003603 0.007763 0.000000 0.000000 0.000000
# 4 0.000000 0.000000 0.000000 0.036025 0.000000 0.000000
# 5 0.000000 0.000000 0.000000 0.000000 0.036025 0.000000
# 6 -0.010215 0.010215 0.000000 0.000000 0.000000 0.058286
#
#
# Mechanical properties :
#
#
# Convention : Reuss Voigt Hill
#
# Bulk Modulus (GPa) = 32.29708 45.12085 38.70897
# Shear Modulus (GPa) = 24.48643 29.69912 27.09277
#
# Velocity S-wave (km/s) = 3.36300 3.70370 3.53746
# Velocity P-wave (km/s) = 5.47696 6.25542 5.87909
#
# Compressibility (1/GPa) = 0.03096255
#
# Stress axis : x y z
#
# Youngs Moduli (GPa) = 50.64910 50.64911 128.81077
#
# Poissons Ratio (x) = 0.04753 0.46408
# Poissons Ratio (y) = 0.04753 0.46408
# Poissons Ratio (z) = 0.18248 0.18248
#
# Static dielectric constant tensor:
#      x y z
#    x 3.882380 0.000000 0.000000 
#    y 0.000000 3.882380 0.000000 
#    z 0.000000 0.000000 3.927740 
# 
# 
# High freq. dielectric constant tensor:
#      x y z
#    x 1.845680 0.000000 0.000000 
#    y 0.000000 1.845680 0.000000 
#    z 0.000000 0.000000 1.837790 
# 
# From -- ./inp_files/6491.got.cif
#   From: 2010.03.12/outbox.cif.g09.slc.cpg/sg87_4_cif.got.tgz:6491.got - 2010.04.08 20:16:13.
