data_PCOD8304920
_publ_section_title
;
Structure prediction by ZEFSAII (Michael W. Deem and Ramdas Pophale) SiO2 
 PCOD8304920
Probable space group: P 41 2 2
;
_chemical_formula_sum "Si O2"
_cell_formula_units_Z 48
_cell_length_a 11.482804
_cell_length_b 11.482804
_cell_length_c 16.830588
_cell_angle_alpha 90.000000
_cell_angle_beta 90.000000
_cell_angle_gamma 90.000000
_cell_volume 2219.193608
_symmetry_space_group_name_H-M "P 41 2 2"
_symmetry_group_IT_number 91
_symmetry_cell_setting 'tetragonal'
loop_
_space_group_symop_operation_xyz
x,y,z
-y,x,1/4+z
-x,-y,1/2+z
y,-x,3/4+z
x,-y,1/2-z
-x,y,-z
y,x,3/4-z
-y,-x,1/4-z
loop_
_atom_site_type_symbol
_atom_site_label
_atom_site_fract_x
_atom_site_fract_y
_atom_site_fract_z
Si Si1 0.122426 0.436324 0.328921
Si Si2 0.598129 0.698213 0.140311
Si Si3 0.201069 0.157955 0.148797
Si Si4 0.819378 0.061193 0.554095
Si Si5 0.530554 0.337715 0.189711
Si Si6 0.548121 0.084741 0.818953
O O1 0.159861 0.500000 0.250000
O O2 0.221385 0.481997 0.389607
O O3 0.132198 0.299013 0.319397
O O4 0.989927 0.470173 0.350891
O O5 0.710293 0.783229 0.132941
O O6 0.585203 0.631175 0.224414
O O7 0.605041 0.597614 0.073073
O O8 0.095290 0.142595 0.213691
O O9 0.316625 0.116584 0.195132
O O10 0.186625 0.078751 0.068689
O O11 0.904611 0.095389 0.625000
O O12 0.620315 0.379686 0.125000
O O13 0.529368 0.198833 0.177344
O O14 0.504939 0.000000 0.750000
#
# Coordination Sequence:
#
# PCOD8304920 Si02
#       6
#     8   8   8   8   8   8
#     4  11  22  37  67 102 129 173 226 283 325 397
#     4  11  24  44  65 100 137 177 229 278 342 408
#     4  10  22  40  66 101 133 172 226 281 345 399
#     4  11  22  38  68 100 136 173 224 286 347 392
#     4  11  25  43  66  95 141 181 216 272 348 410
#     4  10  20  40  67  93 127 172 225 275 325 394
#
# _framework density 21.629477999999999
#
# number of rings (size 3 to 8) (size 9 to 14) (size 15 to 20)
#    0.000    1.333    3.333    3.000    2.333    6.000 
#    0.000    0.000    7.333    0.000    0.000    0.000 
#    0.000    0.000    0.000    0.000    0.000    0.000 
#
# Total GULP energy -594912.884747 kJ/mol
# GULP energy per Si atom -12394.018432 kJ/mol
# Density = 2.158025 g / cm^3
# Si number density = 21.629478 Si / 1000 Ang^3
#
#
#
# Elastic Constant Matrix: (Units=GPa)
#
#
# Indices 1 2 3 4 5 6 
#
# 1 86.5700 37.7853 30.7135 0.0000 0.0000 0.0000
# 2 37.7853 86.5702 30.7136 0.0000 0.0000 0.0000
# 3 30.7135 30.7136 100.4172 0.0000 0.0000 0.0000
# 4 0.0000 0.0000 0.0000 36.4770 0.0000 0.0000
# 5 0.0000 0.0000 0.0000 0.0000 36.4769 0.0000
# 6 0.0000 0.0000 0.0000 0.0000 0.0000 24.9663
#
#
#
# Elastic Compliance Matrix: (Units=1/GPa)
#
#
# Indices 1 2 3 4 5 6 
#
# 1 0.014985 -0.005513 -0.002897 0.000000 0.000000 0.000000
# 2 -0.005513 0.014985 -0.002897 0.000000 0.000000 0.000000
# 3 -0.002897 -0.002897 0.011731 0.000000 0.000000 0.000000
# 4 0.000000 0.000000 0.000000 0.027415 0.000000 0.000000
# 5 0.000000 0.000000 0.000000 0.000000 0.027415 0.000000
# 6 0.000000 0.000000 0.000000 0.000000 0.000000 0.040054
#
#
# Mechanical properties :
#
#
# Convention : Reuss Voigt Hill
#
# Bulk Modulus (GPa) = 52.39204 52.44246 52.41725
# Shear Modulus (GPa) = 30.20021 31.20705 30.70363
#
# Velocity S-wave (km/s) = 3.74070 3.80254 3.77175
# Velocity P-wave (km/s) = 6.55227 6.60133 6.57685
#
# Compressibility (1/GPa) = 0.01908687
#
# Stress axis : x y z
#
# Youngs Moduli (GPa) = 66.73155 66.73167 85.24584
#
# Poissons Ratio (x) = 0.36788 0.24698
# Poissons Ratio (y) = 0.36788 0.24698
# Poissons Ratio (z) = 0.19334 0.19334
#
# Static dielectric constant tensor:
#      x y z
#    x 4.341270 0.000000 0.000000 
#    y 0.000000 4.341280 0.000000 
#    z 0.000000 0.000000 4.172990 
# 
# 
# High freq. dielectric constant tensor:
#      x y z
#    x 1.844960 0.000000 0.000000 
#    y 0.000000 1.844960 0.000000 
#    z 0.000000 0.000000 1.842630 
# 
# From -- ./inp_files/11958.got.cif
#   From: 2010.03.12/outbox.cif.g09.slc.cpg/sg91_6_cif.got.tgz:11958.got - 2010.04.08 20:27:58.
