data_PCOD8304541
_publ_section_title
;
Structure prediction by ZEFSAII (Michael W. Deem and Ramdas Pophale) SiO2 
 PCOD8304541
Probable space group: P 4 21 2
;
_chemical_formula_sum "Si O2"
_cell_formula_units_Z 48
_cell_length_a 13.938592
_cell_length_b 13.938592
_cell_length_c 11.675561
_cell_angle_alpha 90.000000
_cell_angle_beta 90.000000
_cell_angle_gamma 90.000000
_cell_volume 2268.378744
_symmetry_space_group_name_H-M "P 4 21 2"
_symmetry_group_IT_number 90
_symmetry_cell_setting 'tetragonal'
loop_
_space_group_symop_operation_xyz
x,y,z
1/2-y,1/2+x,z
-x,-y,z
1/2+y,1/2-x,z
1/2+x,1/2-y,-z
1/2-x,1/2+y,-z
y,x,-z
-y,-x,-z
loop_
_atom_site_type_symbol
_atom_site_label
_atom_site_fract_x
_atom_site_fract_y
_atom_site_fract_z
Si Si1 0.652444 0.003366 0.121200
Si Si2 0.795349 0.580206 0.643827
Si Si3 0.978368 0.893000 0.677460
Si Si4 0.709107 0.283422 0.636051
Si Si5 0.136439 0.998425 0.060320
Si Si6 0.384160 0.902740 0.600448
O O1 0.592371 0.096698 0.086290
O O2 0.667631 0.006118 0.259495
O O3 0.749439 0.001123 0.048712
O O4 0.688306 0.540783 0.608946
O O5 0.793103 0.687641 0.697149
O O6 0.866666 0.590966 0.536746
O O7 0.009694 0.894683 0.808570
O O8 0.865046 0.866594 0.672863
O O9 0.000000 0.000000 0.626027
O O10 0.715795 0.284206 0.500000
O O11 0.679212 0.174627 0.667836
O O12 0.096683 0.903318 0.000000
O O13 0.093033 0.093033 0.000000
O O14 0.489304 0.866866 0.638646
#
# Coordination Sequence:
#
# PCOD8304541 Si02
#       6
#     8   8   8   8   8   8
#     4  10  20  34  59  93 121 150 202 264 317 373
#     4  10  19  35  57  83 119 159 210 261 314 374
#     4  11  22  37  63  91 124 167 213 275 321 376
#     4  10  22  37  55  89 128 165 215 256 321 384
#     4  10  20  40  63  88 124 166 211 255 329 397
#     4  10  20  35  56  77 115 167 210 255 310 373
#
# _framework density 21.160488000000001
#
# number of rings (size 3 to 8) (size 9 to 14) (size 15 to 20)
#    0.000    1.833    1.667    5.000    2.333    2.333 
#    3.000    0.000    0.000    0.000    0.000    2.333 
#    0.000    0.000    0.000    0.000    0.000    0.000 
#
# Total GULP energy -594755.961255 kJ/mol
# GULP energy per Si atom -12390.749193 kJ/mol
# Density = 2.111233 g / cm^3
# Si number density = 21.160488 Si / 1000 Ang^3
#
#
#
# Elastic Constant Matrix: (Units=GPa)
#
#
# Indices 1 2 3 4 5 6 
#
# 1 35.3269 159.5313 5.7912 0.0000 0.0000 0.0000
# 2 159.5313 35.3268 5.7915 0.0000 0.0000 0.0000
# 3 5.7912 5.7915 24.6767 0.0000 0.0000 0.0000
# 4 0.0000 0.0000 0.0000 24.2551 0.0000 0.0000
# 5 0.0000 0.0000 0.0000 0.0000 24.2551 0.0000
# 6 0.0000 0.0000 0.0000 0.0000 0.0000 27.4104
#
#
#
# Elastic Compliance Matrix: (Units=1/GPa)
#
#
# Indices 1 2 3 4 5 6 
#
# 1 -0.001423 0.006628 -0.001222 0.000000 0.000000 0.000000
# 2 0.006628 -0.001423 -0.001221 0.000000 0.000000 0.000000
# 3 -0.001222 -0.001221 0.041097 0.000000 0.000000 0.000000
# 4 0.000000 0.000000 0.000000 0.041228 0.000000 0.000000
# 5 0.000000 0.000000 0.000000 0.000000 0.041228 0.000000
# 6 0.000000 0.000000 0.000000 0.000000 0.000000 0.036483
#
#
# Mechanical properties :
#
#
# Convention : Reuss Voigt Hill
#
# Bulk Modulus (GPa) = 21.44974 48.61763 35.03368
# Shear Modulus (GPa) = 30.42098 10.13188 20.27643
#
# Velocity S-wave (km/s) = 3.79572 2.19055 3.09887
# Velocity P-wave (km/s) = 5.41929 5.42435 5.42182
#
# Compressibility (1/GPa) = 0.04662062
#
# Stress axis : x y z
#
# Youngs Moduli (GPa) = -702.57089 -702.56637 24.33247
#
# Poissons Ratio (x) = 4.65653 0.02972
# Poissons Ratio (y) = 4.65656 0.02972
# Poissons Ratio (z) = -0.85819 -0.85812
#
# Static dielectric constant tensor:
#      x y z
#    x 4.233530 0.000000 0.000000 
#    y 0.000000 4.233520 0.000000 
#    z 0.000000 0.000000 3.276620 
# 
# 
# High freq. dielectric constant tensor:
#      x y z
#    x 1.843990 0.000000 0.000000 
#    y 0.000000 1.843990 0.000000 
#    z 0.000000 0.000000 1.770390 
# 
# From -- ./inp_files/2143.got.cif
#   From: 2010.03.12/outbox.cif.g09.slc.cpg/sg90_2_cif.got.tgz:2143.got - 2010.04.08 20:26:03.
