data_PCOD8304632
_publ_section_title
;
Structure prediction by ZEFSAII (Michael W. Deem and Ramdas Pophale) SiO2 
 PCOD8304632
Probable space group: P 4 21 2
;
_chemical_formula_sum "Si O2"
_cell_formula_units_Z 40
_cell_length_a 9.420360
_cell_length_b 9.420360
_cell_length_c 23.072133
_cell_angle_alpha 90.000000
_cell_angle_beta 90.000000
_cell_angle_gamma 90.000000
_cell_volume 2047.494510
_symmetry_space_group_name_H-M "P 4 21 2"
_symmetry_group_IT_number 90
_symmetry_cell_setting 'tetragonal'
loop_
_space_group_symop_operation_xyz
x,y,z
1/2-y,1/2+x,z
-x,-y,z
1/2+y,1/2-x,z
1/2+x,1/2-y,-z
1/2-x,1/2+y,-z
y,x,-z
-y,-x,-z
loop_
_atom_site_type_symbol
_atom_site_label
_atom_site_fract_x
_atom_site_fract_y
_atom_site_fract_z
Si Si1 0.166420 0.137373 0.829882
Si Si2 0.716526 0.090304 0.462939
Si Si3 0.292809 0.112563 0.956501
Si Si4 0.853403 0.135345 0.217663
Si Si5 0.778845 0.568782 0.668650
O O1 0.230268 0.141879 0.893564
O O2 0.215867 0.274179 0.795288
O O3 0.996491 0.145260 0.827134
O O4 0.222055 0.997216 0.795916
O O5 0.574858 0.182496 0.476155
O O6 0.847289 0.152712 0.500000
O O7 0.771170 0.097667 0.396807
O O8 0.443742 0.190383 0.965766
O O9 0.176988 0.176988 0.000000
O O10 0.848722 0.095429 0.285795
O O11 0.825859 0.408673 0.679824
#
# Coordination Sequence:
#
# PCOD8304632 Si02
#       5
#     8   8   8   8   8
#     4  11  24  40  64  92 126 162 197 253 304 363
#     4   9  19  37  59  85 121 162 205 253 309 362
#     4  11  26  46  68  94 126 165 205 250 307 365
#     4  11  22  39  62  92 124 163 203 246 308 366
#     4   9  17  35  61  87 118 159 205 256 301 360
#
# _framework density 19.536071
#
# number of rings (size 3 to 8) (size 9 to 14) (size 15 to 20)
#    0.000    1.800    4.000    1.200    2.800    1.600 
#    3.600    0.000    0.000    0.000    0.000    0.000 
#    0.000    0.000    0.000    0.000    0.000    0.000 
#
# Total GULP energy -495764.534067 kJ/mol
# GULP energy per Si atom -12394.113352 kJ/mol
# Density = 1.949161 g / cm^3
# Si number density = 19.536071 Si / 1000 Ang^3
#
#
#
# Elastic Constant Matrix: (Units=GPa)
#
#
# Indices 1 2 3 4 5 6 
#
# 1 76.6625 40.2481 48.7067 0.0000 0.0000 0.0000
# 2 40.2481 76.6635 48.7071 0.0000 0.0000 0.0000
# 3 48.7067 48.7071 131.3182 0.0000 0.0000 0.0000
# 4 0.0000 0.0000 0.0000 24.9098 0.0000 0.0000
# 5 0.0000 0.0000 0.0000 0.0000 24.9096 0.0000
# 6 0.0000 0.0000 0.0000 0.0000 0.0000 39.2168
#
#
#
# Elastic Compliance Matrix: (Units=1/GPa)
#
#
# Indices 1 2 3 4 5 6 
#
# 1 0.019920 -0.007541 -0.004592 0.000000 0.000000 0.000000
# 2 -0.007541 0.019920 -0.004592 0.000000 0.000000 0.000000
# 3 -0.004592 -0.004592 0.011021 0.000000 0.000000 0.000000
# 4 0.000000 0.000000 0.000000 0.040145 0.000000 0.000000
# 5 0.000000 0.000000 0.000000 0.000000 0.040145 0.000000
# 6 0.000000 0.000000 0.000000 0.000000 0.000000 0.025499
#
#
# Mechanical properties :
#
#
# Convention : Reuss Voigt Hill
#
# Bulk Modulus (GPa) = 57.42656 62.21866 59.82261
# Shear Modulus (GPa) = 25.52272 27.60607 26.56440
#
# Velocity S-wave (km/s) = 3.61839 3.76318 3.69149
# Velocity P-wave (km/s) = 6.84952 7.12736 6.98982
#
# Compressibility (1/GPa) = 0.01741354
#
# Stress axis : x y z
#
# Youngs Moduli (GPa) = 50.19974 50.20033 90.73416
#
# Poissons Ratio (x) = 0.37856 0.41661
# Poissons Ratio (y) = 0.37855 0.41662
# Poissons Ratio (z) = 0.23050 0.23050
#
# Static dielectric constant tensor:
#      x y z
#    x 3.569220 0.000000 0.000000 
#    y 0.000000 3.569210 0.000000 
#    z 0.000000 0.000000 3.546030 
# 
# 
# High freq. dielectric constant tensor:
#      x y z
#    x 1.757950 0.000000 0.000000 
#    y 0.000000 1.757950 0.000000 
#    z 0.000000 0.000000 1.762100 
# 
# From -- ./inp_files/2888.got.cif
#   From: 2010.03.12/outbox.cif.g09.slc.cpg/sg90_2_cif.got.tgz:2888.got - 2010.04.08 20:26:03.
