data_PCOD8304902
_publ_section_title
;
Structure prediction by ZEFSAII (Michael W. Deem and Ramdas Pophale) SiO2 
 PCOD8304902
Probable space group: P 41 2 2
;
_chemical_formula_sum "Si O2"
_cell_formula_units_Z 48
_cell_length_a 11.727598
_cell_length_b 11.727598
_cell_length_c 16.385780
_cell_angle_alpha 90.000000
_cell_angle_beta 90.000000
_cell_angle_gamma 90.000000
_cell_volume 2253.643730
_symmetry_space_group_name_H-M "P 41 2 2"
_symmetry_group_IT_number 91
_symmetry_cell_setting 'tetragonal'
loop_
_space_group_symop_operation_xyz
x,y,z
-y,x,1/4+z
-x,-y,1/2+z
y,-x,3/4+z
x,-y,1/2-z
-x,y,-z
y,x,3/4-z
-y,-x,1/4-z
loop_
_atom_site_type_symbol
_atom_site_label
_atom_site_fract_x
_atom_site_fract_y
_atom_site_fract_z
Si Si1 0.000000 0.543450 0.500000
Si Si2 0.926598 0.926598 0.875000
Si Si3 0.160495 0.475340 0.629818
Si Si4 0.829732 0.092241 0.451480
Si Si5 0.803985 0.322273 0.924824
Si Si6 0.868340 0.307854 0.228186
Si Si7 0.568267 0.405822 0.916889
O O1 0.915128 0.460982 0.450802
O O2 0.926164 0.621408 0.560689
O O3 0.881390 0.857281 0.796160
O O4 0.060026 0.907687 0.892819
O O5 0.161046 0.608505 0.653841
O O6 0.103652 0.389709 0.694883
O O7 0.292210 0.444698 0.611713
O O8 0.744870 0.186438 0.412036
O O9 0.772284 0.969275 0.449463
O O10 0.773262 0.237733 0.999314
O O11 0.704922 0.419778 0.924910
O O12 0.518527 0.518527 0.875000
O O13 0.500000 0.380243 0.000000
#
# Coordination Sequence:
#
# PCOD8304902 Si02
#       7
#     4   4   8   8   8   8   8
#     4  12  24  36  64 102 130 168 216 274 342 406
#     4  10  24  36  60  88 134 186 212 266 318 408
#     4  10  21  39  61  92 125 167 216 277 349 387
#     4  11  21  39  58  91 133 175 222 263 333 390
#     4  11  23  38  65 100 129 167 226 275 332 405
#     4  10  20  39  58  85 130 168 210 281 327 388
#     4  11  22  44  70  93 129 175 224 282 339 400
#
# _framework density 21.298842
#
# number of rings (size 3 to 8) (size 9 to 14) (size 15 to 20)
#    0.000    1.333    6.667    1.000    2.333    0.000 
#    6.000    1.667    1.833    0.000    0.000    0.000 
#    0.000    0.000    0.000    0.000    0.000    0.000 
#
# Total GULP energy -594957.296910 kJ/mol
# GULP energy per Si atom -12394.943686 kJ/mol
# Density = 2.125037 g / cm^3
# Si number density = 21.298842 Si / 1000 Ang^3
#
#
#
# Elastic Constant Matrix: (Units=GPa)
#
#
# Indices 1 2 3 4 5 6 
#
# 1 83.4766 30.6146 23.7652 0.0000 0.0000 0.0000
# 2 30.6146 83.4766 23.7652 0.0000 0.0000 0.0000
# 3 23.7652 23.7652 78.4780 0.0000 0.0000 0.0000
# 4 0.0000 0.0000 0.0000 31.2809 0.0000 0.0000
# 5 0.0000 0.0000 0.0000 0.0000 31.2809 0.0000
# 6 0.0000 0.0000 0.0000 0.0000 0.0000 35.4796
#
#
#
# Elastic Compliance Matrix: (Units=1/GPa)
#
#
# Indices 1 2 3 4 5 6 
#
# 1 0.014474 -0.004443 -0.003037 0.000000 0.000000 0.000000
# 2 -0.004443 0.014474 -0.003037 0.000000 0.000000 0.000000
# 3 -0.003037 -0.003037 0.014582 0.000000 0.000000 0.000000
# 4 0.000000 0.000000 0.000000 0.031968 0.000000 0.000000
# 5 0.000000 0.000000 0.000000 0.000000 0.031968 0.000000
# 6 0.000000 0.000000 0.000000 0.000000 0.000000 0.028185
#
#
# Mechanical properties :
#
#
# Convention : Reuss Voigt Hill
#
# Bulk Modulus (GPa) = 44.45844 44.63569 44.54707
# Shear Modulus (GPa) = 30.45329 30.76069 30.60699
#
# Velocity S-wave (km/s) = 3.78538 3.80444 3.79493
# Velocity P-wave (km/s) = 6.32649 6.34829 6.33740
#
# Compressibility (1/GPa) = 0.02249292
#
# Stress axis : x y z
#
# Youngs Moduli (GPa) = 69.09060 69.09060 68.57740
#
# Poissons Ratio (x) = 0.30700 0.20830
# Poissons Ratio (y) = 0.30700 0.20830
# Poissons Ratio (z) = 0.20986 0.20986
#
# Static dielectric constant tensor:
#      x y z
#    x 3.811350 0.000000 0.000000 
#    y 0.000000 3.811350 0.000000 
#    z 0.000000 0.000000 3.813170 
# 
# 
# High freq. dielectric constant tensor:
#      x y z
#    x 1.826920 0.000000 0.000000 
#    y 0.000000 1.826920 0.000000 
#    z 0.000000 0.000000 1.827060 
# 
# From -- ./inp_files/21155.got.cif
#   From: 2010.03.12/outbox.cif.g09.slc.cpg/sg91_11_cif.got.tgz:21155.got - 2010.04.08 20:27:58.
