data_PCOD8304648
_publ_section_title
;
Structure prediction by ZEFSAII (Michael W. Deem and Ramdas Pophale) SiO2 
 PCOD8304648
Probable space group: P 4 21 2
;
_chemical_formula_sum "Si O2"
_cell_formula_units_Z 42
_cell_length_a 8.794517
_cell_length_b 8.794517
_cell_length_c 27.046792
_cell_angle_alpha 90.000000
_cell_angle_beta 90.000000
_cell_angle_gamma 90.000000
_cell_volume 2091.894349
_symmetry_space_group_name_H-M "P 4 21 2"
_symmetry_group_IT_number 90
_symmetry_cell_setting 'tetragonal'
loop_
_space_group_symop_operation_xyz
x,y,z
1/2-y,1/2+x,z
-x,-y,z
1/2+y,1/2-x,z
1/2+x,1/2-y,-z
1/2-x,1/2+y,-z
y,x,-z
-y,-x,-z
loop_
_atom_site_type_symbol
_atom_site_label
_atom_site_fract_x
_atom_site_fract_y
_atom_site_fract_z
Si Si1 0.768242 0.411609 0.759135
Si Si2 0.024943 0.253514 0.419654
Si Si3 0.726597 0.888294 0.955877
Si Si4 0.000000 0.000000 0.500000
Si Si5 0.756207 0.440147 0.310383
Si Si6 0.777303 0.392002 0.873241
O O1 0.807430 0.585905 0.746460
O O2 0.617433 0.372172 0.727546
O O3 0.728970 0.382673 0.816222
O O4 0.163727 0.366297 0.425078
O O5 0.054488 0.181687 0.365328
O O6 0.017781 0.140575 0.464465
O O7 0.567878 0.798988 0.958977
O O8 0.815364 0.856135 0.904814
O O9 0.834972 0.834972 0.000000
O O10 0.819779 0.607982 0.301583
O O11 0.801237 0.568584 0.886241
#
# Coordination Sequence:
#
# PCOD8304648 Si02
#       6
#     8   8   8   2   8   8
#     4   9  19  35  55  81 112 144 182 230 277 324
#     4   9  20  37  53  76 110 141 175 223 274 322
#     4  11  24  39  56  81 111 143 183 232 283 338
#     4  12  20  32  60  84 100 140 188 224 266 324
#     4   9  19  35  53  74 105 143 179 219 269 325
#     4   9  19  37  58  80 109 144 182 227 279 332
#
# _framework density 20.077494000000002
#
# number of rings (size 3 to 8) (size 9 to 14) (size 15 to 20)
#    0.000    2.476    0.000    4.000    0.000    9.524 
#    0.000    5.714    0.000    2.286    0.000    0.000 
#    0.000    0.000    0.000    0.000    0.000    0.000 
#
# Total GULP energy -520470.197476 kJ/mol
# GULP energy per Si atom -12392.147559 kJ/mol
# Density = 2.003180 g / cm^3
# Si number density = 20.077494 Si / 1000 Ang^3
#
#
#
# Elastic Constant Matrix: (Units=GPa)
#
#
# Indices 1 2 3 4 5 6 
#
# 1 44.1413 8.8027 39.4231 0.0000 0.0000 0.0000
# 2 8.8027 44.1413 39.4231 0.0000 0.0000 0.0000
# 3 39.4231 39.4231 121.0862 0.0000 0.0000 0.0000
# 4 0.0000 0.0000 0.0000 39.6614 0.0000 0.0000
# 5 0.0000 0.0000 0.0000 0.0000 39.6614 0.0000
# 6 0.0000 0.0000 0.0000 0.0000 0.0000 24.3474
#
#
#
# Elastic Compliance Matrix: (Units=1/GPa)
#
#
# Indices 1 2 3 4 5 6 
#
# 1 0.032482 0.004184 -0.011938 0.000000 0.000000 0.000000
# 2 0.004184 0.032482 -0.011938 0.000000 0.000000 0.000000
# 3 -0.011938 -0.011938 0.016032 0.000000 0.000000 0.000000
# 4 0.000000 0.000000 0.000000 0.025213 0.000000 0.000000
# 5 0.000000 0.000000 0.000000 0.000000 0.025213 0.000000
# 6 0.000000 0.000000 0.000000 0.000000 0.000000 0.041072
#
#
# Mechanical properties :
#
#
# Convention : Reuss Voigt Hill
#
# Bulk Modulus (GPa) = 24.03097 42.74075 33.38586
# Shear Modulus (GPa) = 22.14863 28.84869 25.49866
#
# Velocity S-wave (km/s) = 3.32498 3.79471 3.56759
# Velocity P-wave (km/s) = 5.17067 6.36663 5.79956
#
# Compressibility (1/GPa) = 0.04161297
#
# Stress axis : x y z
#
# Youngs Moduli (GPa) = 30.78655 30.78655 62.37595
#
# Poissons Ratio (x) = -0.12881 0.74462
# Poissons Ratio (y) = -0.12881 0.74462
# Poissons Ratio (z) = 0.36752 0.36752
#
# Static dielectric constant tensor:
#      x y z
#    x 3.463050 0.000000 0.000000 
#    y 0.000000 3.463050 0.000000 
#    z 0.000000 0.000000 3.658290 
# 
# 
# High freq. dielectric constant tensor:
#      x y z
#    x 1.780390 0.000000 0.000000 
#    y 0.000000 1.780390 0.000000 
#    z 0.000000 0.000000 1.789250 
# 
# From -- ./inp_files/2984.got.cif
#   From: 2010.03.12/outbox.cif.g09.slc.cpg/sg90_2_cif.got.tgz:2984.got - 2010.04.08 20:26:03.
