data_PCOD8304301
_publ_section_title
;
Structure prediction by ZEFSAII (Michael W. Deem and Ramdas Pophale) SiO2 
 PCOD8304301
Probable space group: I 41/A
;
_chemical_formula_sum "Si O2"
_cell_formula_units_Z 56
_cell_length_a 14.677455
_cell_length_b 14.677455
_cell_length_c 10.735173
_cell_angle_alpha 90.000000
_cell_angle_beta 90.000000
_cell_angle_gamma 90.000000
_cell_volume 2312.653470
_symmetry_space_group_name_H-M "I 41/A"
_symmetry_group_IT_number 88
_space_group.IT_coordinate_system_code '2'
_symmetry_cell_setting 'tetragonal'
loop_
_space_group_symop_operation_xyz
x,y,z
3/4-y,1/4+x,1/4+z
-x,1/2-y,z
1/4+y,1/4-x,1/4+z
-x,-y,-z
1/4+y,3/4-x,3/4-z
x,1/2+y,-z
3/4-y,3/4+x,3/4-z
1/2+x,1/2+y,1/2+z
1/4-y,3/4+x,3/4+z
1/2-x,-y,1/2+z
3/4+y,3/4-x,3/4+z
1/2-x,1/2-y,1/2-z
3/4+y,1/4-x,1/4-z
1/2+x,y,1/2-z
1/4-y,1/4+x,1/4-z
loop_
_atom_site_type_symbol
_atom_site_label
_atom_site_fract_x
_atom_site_fract_y
_atom_site_fract_z
Si Si1 0.500000 0.750000 0.838518
Si Si2 0.302025 0.051513 0.384192
Si Si3 0.190772 0.246655 0.043207
Si Si4 0.127955 0.751530 0.439708
O O1 0.489162 0.662426 0.751538
O O2 0.408331 0.762778 0.919017
O O3 0.249406 0.015527 0.259513
O O4 0.410370 0.034053 0.378554
O O5 0.286477 0.159733 0.387577
O O6 0.263164 0.242367 0.928909
O O7 0.083823 0.845457 0.392197
#
# Coordination Sequence:
#
# PCOD8304301 Si02
#       4
#     8  16  16  16
#     4  10  21  41  68 104 136 191 242 291 374 435
#     4  12  28  47  72 110 145 194 250 302 378 442
#     4  12  23  45  74  96 153 187 250 299 373 437
#     4   9  22  40  63 103 140 184 242 304 370 430
#
# _framework density 24.214608999999999
#
# number of rings (size 3 to 8) (size 9 to 14) (size 15 to 20)
#    0.000    1.429    0.000    6.000    4.000    4.571 
#    0.000    0.000    0.000    0.000    0.000    0.000 
#    0.000    0.000    0.000    0.000    0.000    0.000 
#
# Total GULP energy -347044.225924 kJ/mol
# GULP energy per Si atom -12394.436640 kJ/mol
# Density = 2.415950 g / cm^3
# Si number density = 24.214609 Si / 1000 Ang^3
#
#
#
# Elastic Constant Matrix: (Units=GPa)
#
#
# Indices 1 2 3 4 5 6 
#
# 1 116.2966 41.3557 33.9358 0.0000 0.0000 -2.2732
# 2 41.3557 116.2966 33.9358 0.0000 0.0000 2.2732
# 3 33.9358 33.9358 119.1246 0.0000 0.0000 0.0000
# 4 0.0000 0.0000 0.0000 25.5130 0.0000 0.0000
# 5 0.0000 0.0000 0.0000 0.0000 25.5130 0.0000
# 6 -2.2732 2.2732 0.0000 0.0000 0.0000 13.7954
#
#
#
# Elastic Compliance Matrix: (Units=1/GPa)
#
#
# Indices 1 2 3 4 5 6 
#
# 1 0.010354 -0.003124 -0.002060 0.000000 0.000000 0.002221
# 2 -0.003124 0.010354 -0.002060 0.000000 0.000000 -0.002221
# 3 -0.002060 -0.002060 0.009568 0.000000 0.000000 0.000000
# 4 0.000000 0.000000 0.000000 0.039196 0.000000 0.000000
# 5 0.000000 0.000000 0.000000 0.000000 0.039196 0.000000
# 6 0.002221 -0.002221 0.000000 0.000000 0.000000 0.073220
#
#
# Mechanical properties :
#
#
# Convention : Reuss Voigt Hill
#
# Bulk Modulus (GPa) = 63.33447 63.35248 63.34347
# Shear Modulus (GPa) = 24.79690 29.13031 26.96361
#
# Velocity S-wave (km/s) = 3.20355 3.47220 3.34057
# Velocity P-wave (km/s) = 6.31632 6.50343 6.41056
#
# Compressibility (1/GPa) = 0.01578919
#
# Stress axis : x y z
#
# Youngs Moduli (GPa) = 96.57950 96.57950 104.51475
#
# Poissons Ratio (x) = 0.30175 0.21526
# Poissons Ratio (y) = 0.30175 0.21526
# Poissons Ratio (z) = 0.19891 0.19891
#
# Static dielectric constant tensor:
#      x y z
#    x 4.427220 0.000000 0.000000 
#    y 0.000000 4.427220 0.000000 
#    z 0.000000 0.000000 4.230350 
# 
# 
# High freq. dielectric constant tensor:
#      x y z
#    x 1.966180 0.000000 0.000000 
#    y 0.000000 1.966180 0.000000 
#    z 0.000000 0.000000 1.950650 
# 
# From -- ./inp_files/2237.got.cif
#   From: 2010.03.12/outbox.cif.g09.slc.cpg/sg88_2_cif.got.tgz:2237.got - 2010.04.08 20:20:55.
