data_PCOD8304174
_publ_section_title
;
Structure prediction by ZEFSAII (Michael W. Deem and Ramdas Pophale) SiO2 
 PCOD8304174
Probable space group: I 41/A
;
_chemical_formula_sum "Si O2"
_cell_formula_units_Z 112
_cell_length_a 23.651559
_cell_length_b 23.651559
_cell_length_c 11.293504
_cell_angle_alpha 90.000000
_cell_angle_beta 90.000000
_cell_angle_gamma 90.000000
_cell_volume 6317.543709
_symmetry_space_group_name_H-M "I 41/A"
_symmetry_group_IT_number 88
_space_group.IT_coordinate_system_code '2'
_symmetry_cell_setting 'tetragonal'
loop_
_space_group_symop_operation_xyz
x,y,z
3/4-y,1/4+x,1/4+z
-x,1/2-y,z
1/4+y,1/4-x,1/4+z
-x,-y,-z
1/4+y,3/4-x,3/4-z
x,1/2+y,-z
3/4-y,3/4+x,3/4-z
1/2+x,1/2+y,1/2+z
1/4-y,3/4+x,3/4+z
1/2-x,-y,1/2+z
3/4+y,3/4-x,3/4+z
1/2-x,1/2-y,1/2-z
3/4+y,1/4-x,1/4-z
1/2+x,y,1/2-z
1/4-y,1/4+x,1/4-z
loop_
_atom_site_type_symbol
_atom_site_label
_atom_site_fract_x
_atom_site_fract_y
_atom_site_fract_z
Si Si1 0.807639 0.088008 0.010979
Si Si2 0.682095 0.554043 0.997453
Si Si3 0.080884 0.399397 0.304512
Si Si4 0.156055 0.425892 0.502731
Si Si5 0.574147 0.573209 0.551664
Si Si6 0.088142 0.249132 0.097936
Si Si7 0.894197 0.006171 0.137986
O O1 0.822667 0.099682 0.872778
O O2 0.749138 0.054472 0.023517
O O3 0.801957 0.149228 0.073961
O O4 0.854871 0.048234 0.065365
O O5 0.666458 0.596559 0.105351
O O6 0.665174 0.490778 0.033023
O O7 0.095369 0.407602 0.444049
O O8 0.136920 0.372328 0.251018
O O9 0.070356 0.458945 0.236281
O O10 0.027061 0.358334 0.278544
O O11 0.208444 0.391200 0.453228
O O12 0.515806 0.606981 0.574651
O O13 0.563134 0.522744 0.457797
O O14 0.053759 0.201663 0.173446
#
# Coordination Sequence:
#
# PCOD8304174 Si02
#       7
#    16  16  16  16  16  16  16
#     4  10  17  26  40  68  99 141 163 188 214 267
#     4  10  18  24  42  64 102 147 173 174 198 274
#     4   9  18  28  46  68  96 126 156 197 246 282
#     4  10  17  26  40  68  99 141 163 188 214 267
#     4   9  18  28  46  68  96 126 156 197 246 282
#     4   9  18  35  52  69  86 113 157 206 262 304
#     4  10  16  27  40  68 104 122 156 193 230 284
#
# _framework density 17.728408999999999
#
# number of rings (size 3 to 8) (size 9 to 14) (size 15 to 20)
#    0.000    2.429    2.857    1.714    2.000    0.571 
#    0.000    0.000    0.000    3.429    0.000    0.000 
#    0.000    9.143    0.000    0.000    0.000    0.000 
#
# Total GULP energy -693806.433775 kJ/mol
# GULP energy per Si atom -12389.400603 kJ/mol
# Density = 1.768806 g / cm^3
# Si number density = 17.728409 Si / 1000 Ang^3
#
#
#
# Elastic Constant Matrix: (Units=GPa)
#
#
# Indices 1 2 3 4 5 6 
#
# 1 36.1594 12.2243 13.7194 0.0000 0.0000 0.2654
# 2 12.2243 36.1594 13.7194 0.0000 0.0000 -0.2654
# 3 13.7194 13.7194 99.9246 0.0000 0.0000 0.0000
# 4 0.0000 0.0000 0.0000 12.1899 0.0000 0.0000
# 5 0.0000 0.0000 0.0000 0.0000 12.1899 0.0000
# 6 0.2654 -0.2654 0.0000 0.0000 0.0000 19.2933
#
#
#
# Elastic Compliance Matrix: (Units=1/GPa)
#
#
# Indices 1 2 3 4 5 6 
#
# 1 0.032103 -0.009690 -0.003077 0.000000 0.000000 -0.000575
# 2 -0.009690 0.032103 -0.003077 0.000000 0.000000 0.000575
# 3 -0.003077 -0.003077 0.010853 0.000000 0.000000 0.000000
# 4 0.000000 0.000000 0.000000 0.082035 0.000000 0.000000
# 5 0.000000 0.000000 0.000000 0.000000 0.082035 0.000000
# 6 -0.000575 0.000575 0.000000 0.000000 0.000000 0.051847
#
#
# Mechanical properties :
#
#
# Convention : Reuss Voigt Hill
#
# Bulk Modulus (GPa) = 23.05743 27.95217 25.50480
# Shear Modulus (GPa) = 14.83150 17.57332 16.20241
#
# Velocity S-wave (km/s) = 2.89553 3.15183 3.02640
# Velocity P-wave (km/s) = 4.92067 5.38948 5.16040
#
# Compressibility (1/GPa) = 0.04336997
#
# Stress axis : x y z
#
# Youngs Moduli (GPa) = 31.14994 31.14994 92.14426
#
# Poissons Ratio (x) = 0.30183 0.28355
# Poissons Ratio (y) = 0.30183 0.28355
# Poissons Ratio (z) = 0.09586 0.09586
#
# Static dielectric constant tensor:
#      x y z
#    x 3.174560 0.000000 0.000000 
#    y 0.000000 3.174560 0.000000 
#    z 0.000000 0.000000 3.552800 
# 
# 
# High freq. dielectric constant tensor:
#      x y z
#    x 1.662640 0.000000 0.000000 
#    y 0.000000 1.662640 0.000000 
#    z 0.000000 0.000000 1.674770 
# 
# From -- ./inp_files/2706.got.cif
#   From: 2010.03.12/outbox.cif.g09.slc.cpg/sg88_2_cif.got.tgz:2706.got - 2010.04.08 20:20:55.
