data_PCOD8304149
_publ_section_title
;
Structure prediction by ZEFSAII (Michael W. Deem and Ramdas Pophale) SiO2 
 PCOD8304149
Probable space group: I 4/M
;
_chemical_formula_sum "Si O2"
_cell_formula_units_Z 88
_cell_length_a 17.873174
_cell_length_b 17.873174
_cell_length_c 13.821132
_cell_angle_alpha 90.000000
_cell_angle_beta 90.000000
_cell_angle_gamma 90.000000
_cell_volume 4415.165439
_symmetry_space_group_name_H-M "I 4/M"
_symmetry_group_IT_number 87
_symmetry_cell_setting 'tetragonal'
loop_
_space_group_symop_operation_xyz
x,y,z
-y,x,z
-x,-y,z
y,-x,z
-x,-y,-z
y,-x,-z
x,y,-z
-y,x,-z
1/2+x,1/2+y,1/2+z
1/2-y,1/2+x,1/2+z
1/2-x,1/2-y,1/2+z
1/2+y,1/2-x,1/2+z
1/2-x,1/2-y,1/2-z
1/2+y,1/2-x,1/2-z
1/2+x,1/2+y,1/2-z
1/2-y,1/2+x,1/2-z
loop_
_atom_site_type_symbol
_atom_site_label
_atom_site_fract_x
_atom_site_fract_y
_atom_site_fract_z
Si Si1 0.598675 0.850536 0.500000
Si Si2 0.754748 0.861497 0.810695
Si Si3 0.486902 0.144244 0.000000
Si Si4 0.889041 0.039980 0.386690
Si Si5 0.991733 0.742089 0.306763
Si Si6 0.426219 0.822178 0.500000
Si Si7 0.227366 0.642977 0.686536
O O1 0.515702 0.816667 0.500000
O O2 0.648681 0.820642 0.589048
O O3 0.590158 0.940758 0.500000
O O4 0.693912 0.803844 0.771910
O O5 0.831666 0.814507 0.830650
O O6 0.765271 0.926329 0.730512
O O7 0.722583 0.895865 0.908491
O O8 0.495536 0.191513 0.901886
O O9 0.409103 0.099404 0.000000
O O10 0.877016 0.044196 0.500000
O O11 0.813208 0.060440 0.333689
O O12 0.954938 0.093881 0.354375
O O13 0.942973 0.710308 0.218673
#
# Coordination Sequence:
#
# PCOD8304149 Si02
#       7
#     8  16   8  16  16   8  16
#     4  12  24  45  65  91 128 165 211 260 312 372
#     4  11  24  41  65  93 125 168 213 260 315 376
#     4  12  25  38  64  97 122 162 210 258 314 377
#     4   9  18  32  52  83 119 156 197 246 309 369
#     4  12  21  40  60  88 126 160 212 252 317 369
#     4  12  24  45  65  91 128 165 211 260 312 372
#     4  11  24  41  65  93 125 168 213 260 315 376
#
# _framework density 19.931301999999999
#
# number of rings (size 3 to 8) (size 9 to 14) (size 15 to 20)
#    0.000    0.909    6.364    2.455    0.000    0.000 
#    0.000    0.000    0.000    0.000    0.000    1.273 
#    0.000    0.000    0.000    0.000    0.000    0.000 
#
# Total GULP energy -545240.850552 kJ/mol
# GULP energy per Si atom -12391.837513 kJ/mol
# Density = 1.988594 g / cm^3
# Si number density = 19.931302 Si / 1000 Ang^3
#
#
#
# Elastic Constant Matrix: (Units=GPa)
#
#
# Indices 1 2 3 4 5 6 
#
# 1 85.2336 4.7930 31.0876 0.0000 0.0000 5.7680
# 2 4.7930 85.2336 31.0876 0.0000 0.0000 -5.7680
# 3 31.0876 31.0876 85.6561 0.0000 0.0000 0.0000
# 4 0.0000 0.0000 0.0000 20.8093 0.0000 0.0000
# 5 0.0000 0.0000 0.0000 0.0000 20.8093 0.0000
# 6 5.7680 -5.7680 0.0000 0.0000 0.0000 29.1080
#
#
#
# Elastic Compliance Matrix: (Units=1/GPa)
#
#
# Indices 1 2 3 4 5 6 
#
# 1 0.013809 0.001014 -0.005380 0.000000 0.000000 -0.002535
# 2 0.001014 0.013809 -0.005380 0.000000 0.000000 0.002535
# 3 -0.005380 -0.005380 0.015580 0.000000 0.000000 0.000000
# 4 0.000000 0.000000 0.000000 0.048055 0.000000 0.000000
# 5 0.000000 0.000000 0.000000 0.000000 0.048055 0.000000
# 6 -0.002535 0.002535 0.000000 0.000000 0.000000 0.035360
#
#
# Mechanical properties :
#
#
# Convention : Reuss Voigt Hill
#
# Bulk Modulus (GPa) = 42.18205 43.33998 42.76102
# Shear Modulus (GPa) = 24.74483 26.75566 25.75024
#
# Velocity S-wave (km/s) = 3.52732 3.66784 3.59827
# Velocity P-wave (km/s) = 6.14809 6.30312 6.22609
#
# Compressibility (1/GPa) = 0.02370676
#
# Stress axis : x y z
#
# Youngs Moduli (GPa) = 72.41519 72.41519 64.18607
#
# Poissons Ratio (x) = -0.07344 0.34532
# Poissons Ratio (y) = -0.07344 0.34532
# Poissons Ratio (z) = 0.38959 0.38959
#
# Static dielectric constant tensor:
#      x y z
#    x 3.576090 0.000000 0.000000 
#    y 0.000000 3.576090 0.000000 
#    z 0.000000 0.000000 3.545490 
# 
# 
# High freq. dielectric constant tensor:
#      x y z
#    x 1.778080 0.000000 0.000000 
#    y 0.000000 1.778080 0.000000 
#    z 0.000000 0.000000 1.783540 
# 
# From -- ./inp_files/3685.got.cif
#   From: 2010.03.12/outbox.cif.g09.slc.cpg/sg87_2_cif.got.tgz:3685.got - 2010.04.08 20:16:13.
