data_PCOD8304989
_publ_section_title
;
Structure prediction by ZEFSAII (Michael W. Deem and Ramdas Pophale) SiO2 
 PCOD8304989
Probable space group: P 41 2 2
;
_chemical_formula_sum "Si O2"
_cell_formula_units_Z 48
_cell_length_a 11.863473
_cell_length_b 11.863473
_cell_length_c 15.879085
_cell_angle_alpha 90.000000
_cell_angle_beta 90.000000
_cell_angle_gamma 90.000000
_cell_volume 2234.854048
_symmetry_space_group_name_H-M "P 41 2 2"
_symmetry_group_IT_number 91
_symmetry_cell_setting 'tetragonal'
loop_
_space_group_symop_operation_xyz
x,y,z
-y,x,1/4+z
-x,-y,1/2+z
y,-x,3/4+z
x,-y,1/2-z
-x,y,-z
y,x,3/4-z
-y,-x,1/4-z
loop_
_atom_site_type_symbol
_atom_site_label
_atom_site_fract_x
_atom_site_fract_y
_atom_site_fract_z
Si Si1 0.021324 0.751056 0.627097
Si Si2 0.827643 0.164965 0.263491
Si Si3 0.992083 0.502894 0.599322
Si Si4 0.633473 0.208873 0.864838
Si Si5 0.613137 0.772012 0.820328
Si Si6 0.588056 0.442482 0.928401
O O1 0.933712 0.837982 0.583237
O O2 0.972300 0.625719 0.641307
O O3 0.054280 0.804976 0.717217
O O4 0.127571 0.741548 0.561535
O O5 0.783306 0.272106 0.313482
O O6 0.886093 0.421468 0.620622
O O7 0.000000 0.519533 0.500000
O O8 0.106849 0.450913 0.637792
O O9 0.674575 0.194243 0.768034
O O10 0.581903 0.333216 0.869373
O O11 0.702475 0.702475 0.875000
O O12 0.493023 0.710773 0.796208
O O13 0.547627 0.547627 0.875000
O O14 0.500000 0.413520 0.000000
#
# Coordination Sequence:
#
# PCOD8304989 Si02
#       6
#     8   8   8   8   8   8
#     4  10  21  42  68  98 132 180 217 292 343 402
#     4  10  22  39  68  98 134 169 233 275 349 399
#     4  10  21  41  62  94 133 175 224 275 343 401
#     4  11  24  38  63  98 132 178 228 279 342 416
#     4  10  23  43  68  91 137 186 222 282 345 419
#     4  11  22  38  59  94 132 173 223 281 345 415
#
# _framework density 21.477913999999998
#
# number of rings (size 3 to 8) (size 9 to 14) (size 15 to 20)
#    0.000    1.667    3.333    1.000    4.667    1.333 
#    0.000    1.667   40.333    0.000    0.000    0.000 
#    0.000    0.000    0.000    0.000    0.000    0.000 
#
# Total GULP energy -594650.361158 kJ/mol
# GULP energy per Si atom -12388.549191 kJ/mol
# Density = 2.142903 g / cm^3
# Si number density = 21.477914 Si / 1000 Ang^3
#
#
#
# Elastic Constant Matrix: (Units=GPa)
#
#
# Indices 1 2 3 4 5 6 
#
# 1 123.8287 25.7090 33.1722 0.0000 0.0000 0.0000
# 2 25.7090 123.8287 33.1722 0.0000 0.0000 0.0000
# 3 33.1722 33.1722 78.2701 0.0000 0.0000 0.0000
# 4 0.0000 0.0000 0.0000 62.9727 0.0000 0.0000
# 5 0.0000 0.0000 0.0000 0.0000 62.9727 0.0000
# 6 0.0000 0.0000 0.0000 0.0000 0.0000 25.2889
#
#
#
# Elastic Compliance Matrix: (Units=1/GPa)
#
#
# Indices 1 2 3 4 5 6 
#
# 1 0.009214 -0.000978 -0.003491 0.000000 0.000000 0.000000
# 2 -0.000978 0.009214 -0.003491 0.000000 0.000000 0.000000
# 3 -0.003491 -0.003491 0.015735 0.000000 0.000000 0.000000
# 4 0.000000 0.000000 0.000000 0.015880 0.000000 0.000000
# 5 0.000000 0.000000 0.000000 0.000000 0.015880 0.000000
# 6 0.000000 0.000000 0.000000 0.000000 0.000000 0.039543
#
#
# Mechanical properties :
#
#
# Convention : Reuss Voigt Hill
#
# Bulk Modulus (GPa) = 54.81048 56.67047 55.74048
# Shear Modulus (GPa) = 39.22657 45.83846 42.53252
#
# Velocity S-wave (km/s) = 4.27824 4.62477 4.45487
# Velocity P-wave (km/s) = 7.06960 7.41355 7.24362
#
# Compressibility (1/GPa) = 0.01824468
#
# Stress axis : x y z
#
# Youngs Moduli (GPa) = 108.53327 108.53327 63.55280
#
# Poissons Ratio (x) = 0.10613 0.22183
# Poissons Ratio (y) = 0.10613 0.22183
# Poissons Ratio (z) = 0.37884 0.37884
#
# Static dielectric constant tensor:
#      x y z
#    x 3.834720 0.000000 0.000000 
#    y 0.000000 3.834720 0.000000 
#    z 0.000000 0.000000 4.466150 
# 
# 
# High freq. dielectric constant tensor:
#      x y z
#    x 1.833550 0.000000 0.000000 
#    y 0.000000 1.833550 0.000000 
#    z 0.000000 0.000000 1.836780 
# 
# From -- ./inp_files/21111.got.cif
#   From: 2010.03.12/outbox.cif.g09.slc.cpg/sg91_11_cif.got.tgz:21111.got - 2010.04.08 20:27:58.
