data_PCOD8304765
_publ_section_title
;
Structure prediction by ZEFSAII (Michael W. Deem and Ramdas Pophale) SiO2 
 PCOD8304765
Probable space group: P 41 2 2
;
_chemical_formula_sum "Si O2"
_cell_formula_units_Z 28
_cell_length_a 9.306507
_cell_length_b 9.306507
_cell_length_c 12.641141
_cell_angle_alpha 90.000000
_cell_angle_beta 90.000000
_cell_angle_gamma 90.000000
_cell_volume 1094.862780
_symmetry_space_group_name_H-M "P 41 2 2"
_symmetry_group_IT_number 91
_symmetry_cell_setting 'tetragonal'
loop_
_space_group_symop_operation_xyz
x,y,z
-y,x,1/4+z
-x,-y,1/2+z
y,-x,3/4+z
x,-y,1/2-z
-x,y,-z
y,x,3/4-z
-y,-x,1/4-z
loop_
_atom_site_type_symbol
_atom_site_label
_atom_site_fract_x
_atom_site_fract_y
_atom_site_fract_z
Si Si1 0.208252 0.716176 0.283293
Si Si2 0.168217 0.504702 0.468009
Si Si3 0.262544 0.737457 0.625000
Si Si4 0.164467 0.054762 0.036272
O O1 0.192814 0.564658 0.347839
O O2 0.359394 0.742327 0.228574
O O3 0.090490 0.742879 0.189772
O O4 0.165275 0.844107 0.363098
O O5 0.257059 0.600622 0.550248
O O6 0.000000 0.496113 0.500000
O O7 0.119959 0.737534 0.694488
O O8 0.000000 0.026815 0.000000
#
# Coordination Sequence:
#
# PCOD8304765 Si02
#       4
#     8   8   4   8
#     4  11  23  40  72  96 142 173 236 271 355 394
#     4  11  23  42  69 105 131 186 224 283 334 415
#     4  10  18  38  66  92 132 168 224 268 336 386
#     4  11  18  36  68 105 128 176 224 299 325 399
#
# _framework density 25.573978
#
# number of rings (size 3 to 8) (size 9 to 14) (size 15 to 20)
#    0.000    1.143    5.714    2.571    0.000    4.571 
#    0.000    0.000   18.857    0.000    0.000    0.000 
#    0.000    0.000    0.000    0.000    0.000    0.000 
#
# Total GULP energy -346927.680971 kJ/mol
# GULP energy per Si atom -12390.274320 kJ/mol
# Density = 2.551577 g / cm^3
# Si number density = 25.573978 Si / 1000 Ang^3
#
#
#
# Elastic Constant Matrix: (Units=GPa)
#
#
# Indices 1 2 3 4 5 6 
#
# 1 106.2078 16.2460 -1.1049 0.0000 0.0000 0.0000
# 2 16.2460 106.2099 -1.1056 0.0000 0.0000 0.0000
# 3 -1.1049 -1.1056 41.4126 0.0000 0.0000 0.0000
# 4 0.0000 0.0000 0.0000 1.5773 0.0000 0.0000
# 5 0.0000 0.0000 0.0000 0.0000 1.5771 0.0000
# 6 0.0000 0.0000 0.0000 0.0000 0.0000 27.9768
#
#
#
# Elastic Compliance Matrix: (Units=1/GPa)
#
#
# Indices 1 2 3 4 5 6 
#
# 1 0.009643 -0.001473 0.000218 0.000000 0.000000 0.000000
# 2 -0.001473 0.009643 0.000218 0.000000 0.000000 0.000000
# 3 0.000218 0.000218 0.024159 0.000000 0.000000 0.000000
# 4 0.000000 0.000000 0.000000 0.633983 0.000000 0.000000
# 5 0.000000 0.000000 0.000000 0.000000 0.634070 0.000000
# 6 0.000000 0.000000 0.000000 0.000000 0.000000 0.035744
#
#
# Mechanical properties :
#
#
# Convention : Reuss Voigt Hill
#
# Bulk Modulus (GPa) = 24.17119 31.32234 27.74677
# Shear Modulus (GPa) = 3.66810 22.21256 12.94033
#
# Velocity S-wave (km/s) = 1.19893 2.95033 2.25188
# Velocity P-wave (km/s) = 3.37469 4.88675 4.19934
#
# Compressibility (1/GPa) = 0.04137156
#
# Stress axis : x y z
#
# Youngs Moduli (GPa) = 103.70164 103.70364 41.39262
#
# Poissons Ratio (x) = 0.15273 -0.00902
# Poissons Ratio (y) = 0.15273 -0.00903
# Poissons Ratio (z) = -0.02260 -0.02262
#
# Static dielectric constant tensor:
#      x y z
#    x 4.852670 0.000000 0.000000 
#    y 0.000000 4.852680 0.000000 
#    z 0.000000 0.000000 5.892260 
# 
# 
# High freq. dielectric constant tensor:
#      x y z
#    x 2.023560 0.000000 0.000000 
#    y 0.000000 2.023560 0.000000 
#    z 0.000000 0.000000 2.041730 
# 
# From -- ./inp_files/5256.got.cif
#   From: 2010.03.12/outbox.cif.g09.slc.cpg/sg91_3_cif.got.tgz:5256.got - 2010.04.08 20:27:58.
