data_PCOD8304254
_publ_section_title
;
Structure prediction by ZEFSAII (Michael W. Deem and Ramdas Pophale) SiO2 
 PCOD8304254
Probable space group: I 41/A
;
_chemical_formula_sum "Si O2"
_cell_formula_units_Z 100
_cell_length_a 14.432323
_cell_length_b 14.432323
_cell_length_c 22.662678
_cell_angle_alpha 90.000000
_cell_angle_beta 90.000000
_cell_angle_gamma 90.000000
_cell_volume 4720.453329
_symmetry_space_group_name_H-M "I 41/A"
_symmetry_group_IT_number 88
_space_group.IT_coordinate_system_code '2'
_symmetry_cell_setting 'tetragonal'
loop_
_space_group_symop_operation_xyz
x,y,z
3/4-y,1/4+x,1/4+z
-x,1/2-y,z
1/4+y,1/4-x,1/4+z
-x,-y,-z
1/4+y,3/4-x,3/4-z
x,1/2+y,-z
3/4-y,3/4+x,3/4-z
1/2+x,1/2+y,1/2+z
1/4-y,3/4+x,3/4+z
1/2-x,-y,1/2+z
3/4+y,3/4-x,3/4+z
1/2-x,1/2-y,1/2-z
3/4+y,1/4-x,1/4-z
1/2+x,y,1/2-z
1/4-y,1/4+x,1/4-z
loop_
_atom_site_type_symbol
_atom_site_label
_atom_site_fract_x
_atom_site_fract_y
_atom_site_fract_z
Si Si1 0.500000 0.250000 0.875000
Si Si2 0.602786 0.784797 0.751150
Si Si3 0.430911 0.920579 0.313516
Si Si4 0.740094 0.692770 0.837584
Si Si5 0.734533 0.508918 0.081182
Si Si6 0.830170 0.300430 0.551538
Si Si7 0.683837 0.166177 0.595123
O O1 0.445060 0.175525 0.836604
O O2 0.500000 0.750000 0.737061
O O3 0.656368 0.712434 0.792583
O O4 0.658822 0.792189 0.690439
O O5 0.599090 0.884858 0.782337
O O6 0.491915 0.986429 0.355508
O O7 0.337544 0.976027 0.293934
O O8 0.492019 0.896267 0.257086
O O9 0.395006 0.829927 0.351881
O O10 0.726553 0.586930 0.856149
O O11 0.700869 0.593767 0.039410
O O12 0.670916 0.500830 0.140092
O O13 0.747334 0.256958 0.590936
#
# Coordination Sequence:
#
# PCOD8304254 Si02
#       7
#     4  16  16  16  16  16  16
#     4  12  24  44  64 108 128 176 240 284 322 416
#     4  10  20  39  67  93 133 176 222 279 335 400
#     4   9  23  43  63 100 137 171 227 282 325 411
#     4  10  21  40  62  99 133 175 227 274 334 409
#     4  10  22  42  66  99 132 178 223 274 347 400
#     4  12  22  46  72  92 140 181 219 288 345 392
#     4   9  21  42  64  95 135 168 228 271 334 412
#
# _framework density 21.184405000000002
#
# number of rings (size 3 to 8) (size 9 to 14) (size 15 to 20)
#    0.960    0.960    1.600    1.920    0.000    2.560 
#   14.400    1.600    0.000    0.000    0.000    0.000 
#    0.000    0.000    0.000    0.000    0.000    0.000 
#
# Total GULP energy -619548.655885 kJ/mol
# GULP energy per Si atom -12390.973118 kJ/mol
# Density = 2.113619 g / cm^3
# Si number density = 21.184405 Si / 1000 Ang^3
#
#
#
# Elastic Constant Matrix: (Units=GPa)
#
#
# Indices 1 2 3 4 5 6 
#
# 1 125.5804 25.1366 42.8016 0.0000 0.0000 5.0607
# 2 25.1366 125.5804 42.8016 0.0000 0.0000 -5.0607
# 3 42.8016 42.8016 82.5566 0.0000 0.0000 0.0000
# 4 0.0000 0.0000 0.0000 20.8370 0.0000 0.0000
# 5 0.0000 0.0000 0.0000 0.0000 20.8370 0.0000
# 6 5.0607 -5.0607 0.0000 0.0000 0.0000 25.9185
#
#
#
# Elastic Compliance Matrix: (Units=1/GPa)
#
#
# Indices 1 2 3 4 5 6 
#
# 1 0.009780 -0.000376 -0.004876 0.000000 0.000000 -0.001983
# 2 -0.000376 0.009780 -0.004876 0.000000 0.000000 0.001983
# 3 -0.004876 -0.004876 0.017168 0.000000 0.000000 0.000000
# 4 0.000000 0.000000 0.000000 0.047992 0.000000 0.000000
# 5 0.000000 0.000000 0.000000 0.000000 0.047992 0.000000
# 6 -0.001983 0.001983 0.000000 0.000000 0.000000 0.039357
#
#
# Mechanical properties :
#
#
# Convention : Reuss Voigt Hill
#
# Bulk Modulus (GPa) = 60.70043 61.68855 61.19449
# Shear Modulus (GPa) = 25.27633 28.38367 26.83000
#
# Velocity S-wave (km/s) = 3.45796 3.66435 3.56265
# Velocity P-wave (km/s) = 6.68273 6.86195 6.77293
#
# Compressibility (1/GPa) = 0.01647435
#
# Stress axis : x y z
#
# Youngs Moduli (GPa) = 102.25056 102.25056 58.24643
#
# Poissons Ratio (x) = 0.03842 0.28399
# Poissons Ratio (y) = 0.03842 0.28399
# Poissons Ratio (z) = 0.49853 0.49853
#
# Static dielectric constant tensor:
#      x y z
#    x 3.810030 0.000000 0.000000 
#    y 0.000000 3.810030 0.000000 
#    z 0.000000 0.000000 3.502390 
# 
# 
# High freq. dielectric constant tensor:
#      x y z
#    x 1.833660 0.000000 0.000000 
#    y 0.000000 1.833660 0.000000 
#    z 0.000000 0.000000 1.803480 
# 
# From -- ./inp_files/5292.got.cif
#   From: 2010.03.12/outbox.cif.g09.slc.cpg/sg88_3_cif.got.tgz:5292.got - 2010.04.08 20:20:55.
