data_PCOD8304366
_publ_section_title
;
Structure prediction by ZEFSAII (Michael W. Deem and Ramdas Pophale) SiO2 
 PCOD8304366
Probable space group: I 41/A
;
_chemical_formula_sum "Si O2"
_cell_formula_units_Z 68
_cell_length_a 14.438772
_cell_length_b 14.438772
_cell_length_c 16.443351
_cell_angle_alpha 90.000000
_cell_angle_beta 90.000000
_cell_angle_gamma 90.000000
_cell_volume 3428.079180
_symmetry_space_group_name_H-M "I 41/A"
_symmetry_group_IT_number 88
_space_group.IT_coordinate_system_code '2'
_symmetry_cell_setting 'tetragonal'
loop_
_space_group_symop_operation_xyz
x,y,z
3/4-y,1/4+x,1/4+z
-x,1/2-y,z
1/4+y,1/4-x,1/4+z
-x,-y,-z
1/4+y,3/4-x,3/4-z
x,1/2+y,-z
3/4-y,3/4+x,3/4-z
1/2+x,1/2+y,1/2+z
1/4-y,3/4+x,3/4+z
1/2-x,-y,1/2+z
3/4+y,3/4-x,3/4+z
1/2-x,1/2-y,1/2-z
3/4+y,1/4-x,1/4-z
1/2+x,y,1/2-z
1/4-y,1/4+x,1/4-z
loop_
_atom_site_type_symbol
_atom_site_label
_atom_site_fract_x
_atom_site_fract_y
_atom_site_fract_z
Si Si1 0.746362 0.935208 0.749207
Si Si2 0.790445 0.346819 0.415844
Si Si3 0.642589 0.764305 0.265521
Si Si4 0.179933 0.859668 0.585194
Si Si5 0.500000 0.750000 0.125000
O O1 0.762766 0.863116 0.677414
O O2 0.691711 0.883455 0.820349
O O3 0.846149 0.971839 0.776786
O O4 0.686790 0.023481 0.721209
O O5 0.895602 0.377779 0.429916
O O6 0.774217 0.239148 0.434998
O O7 0.750000 0.750000 0.250000
O O8 0.601820 0.678387 0.315674
O O9 0.589522 0.773608 0.179554
#
# Coordination Sequence:
#
# PCOD8304366 Si02
#       5
#    16  16  16  16   4
#     4  10  25  41  68  90 128 168 217 266 327 386
#     4  11  23  43  63  96 125 173 212 272 320 390
#     4  12  26  38  68  94 137 170 216 268 334 397
#     4  11  23  43  63  96 125 173 212 272 320 390
#     4  12  28  44  60 112 128 170 220 276 324 396
#
# _framework density 19.836182000000001
#
# number of rings (size 3 to 8) (size 9 to 14) (size 15 to 20)
#    0.000    0.941    4.706    0.706    9.882    0.000 
#    0.000    0.000    0.000    2.824    0.000    0.000 
#    0.000    0.000    0.000    0.000    0.000    0.000 
#
# Total GULP energy -421815.116180 kJ/mol
# GULP energy per Si atom -12406.326946 kJ/mol
# Density = 1.979103 g / cm^3
# Si number density = 19.836182 Si / 1000 Ang^3
#
#
#
# Elastic Constant Matrix: (Units=GPa)
#
#
# Indices 1 2 3 4 5 6 
#
# 1 76.5140 -29.8574 28.2899 0.0000 0.0000 3.9139
# 2 -29.8574 76.5139 28.2899 0.0000 0.0000 -3.9139
# 3 28.2899 28.2899 95.9811 0.0000 0.0000 0.0000
# 4 0.0000 0.0000 0.0000 25.2222 0.0000 0.0000
# 5 0.0000 0.0000 0.0000 0.0000 25.2222 0.0000
# 6 3.9139 -3.9139 0.0000 0.0000 0.0000 28.0359
#
#
#
# Elastic Compliance Matrix: (Units=1/GPa)
#
#
# Indices 1 2 3 4 5 6 
#
# 1 0.021427 0.011929 -0.009831 0.000000 0.000000 -0.001326
# 2 0.011929 0.021427 -0.009831 0.000000 0.000000 0.001326
# 3 -0.009831 -0.009831 0.016214 0.000000 0.000000 0.000000
# 4 0.000000 0.000000 0.000000 0.039648 0.000000 0.000000
# 5 0.000000 0.000000 0.000000 0.000000 0.039648 0.000000
# 6 -0.001326 0.001326 0.000000 0.000000 0.000000 0.036039
#
#
# Mechanical properties :
#
#
# Convention : Reuss Voigt Hill
#
# Bulk Modulus (GPa) = 22.93585 33.60600 28.27093
# Shear Modulus (GPa) = 24.46131 30.51515 27.48823
#
# Velocity S-wave (km/s) = 3.51546 3.92645 3.72662
# Velocity P-wave (km/s) = 5.29770 6.12654 5.72714
#
# Compressibility (1/GPa) = 0.04359987
#
# Stress axis : x y z
#
# Youngs Moduli (GPa) = 46.66983 46.66983 61.67421
#
# Poissons Ratio (x) = -0.55670 0.60634
# Poissons Ratio (y) = -0.55670 0.60634
# Poissons Ratio (z) = 0.45883 0.45883
#
# Static dielectric constant tensor:
#      x y z
#    x 3.693800 0.000000 0.000000 
#    y 0.000000 3.693800 0.000000 
#    z 0.000000 0.000000 3.656420 
# 
# 
# High freq. dielectric constant tensor:
#      x y z
#    x 1.781100 0.000000 0.000000 
#    y 0.000000 1.781100 0.000000 
#    z 0.000000 0.000000 1.780080 
# 
# From -- ./inp_files/3754.got.cif
#   From: 2010.03.12/outbox.cif.g09.slc.cpg/sg88_2_cif.got.tgz:3754.got - 2010.04.08 20:20:55.
