data_PCOD8304842
_publ_section_title
;
Structure prediction by ZEFSAII (Michael W. Deem and Ramdas Pophale) SiO2 
 PCOD8304842
Probable space group: P 41 2 2
;
_chemical_formula_sum "Si O2"
_cell_formula_units_Z 48
_cell_length_a 7.820754
_cell_length_b 7.820754
_cell_length_c 36.539250
_cell_angle_alpha 90.000000
_cell_angle_beta 90.000000
_cell_angle_gamma 90.000000
_cell_volume 2234.893744
_symmetry_space_group_name_H-M "P 41 2 2"
_symmetry_group_IT_number 91
_symmetry_cell_setting 'tetragonal'
loop_
_space_group_symop_operation_xyz
x,y,z
-y,x,1/4+z
-x,-y,1/2+z
y,-x,3/4+z
x,-y,1/2-z
-x,y,-z
y,x,3/4-z
-y,-x,1/4-z
loop_
_atom_site_type_symbol
_atom_site_label
_atom_site_fract_x
_atom_site_fract_y
_atom_site_fract_z
Si Si1 0.391526 0.991029 0.578645
Si Si2 0.965232 0.659258 0.041006
Si Si3 0.347512 0.019291 0.837860
Si Si4 0.685629 0.438208 0.790789
Si Si5 0.037037 0.967620 0.708228
Si Si6 0.424421 0.623919 0.585445
O O1 0.332034 0.035929 0.619981
O O2 0.233843 0.970633 0.550664
O O3 0.503586 0.814704 0.579625
O O4 0.505196 0.149190 0.563583
O O5 0.048829 0.523072 0.069167
O O6 0.763537 0.673948 0.046322
O O7 0.048382 0.847005 0.048053
O O8 0.000000 0.594570 0.000000
O O9 0.179597 0.942817 0.817561
O O10 0.344663 0.222132 0.832531
O O11 0.707791 0.500000 0.750000
O O12 0.505786 0.509638 0.806461
O O13 0.093005 0.000000 0.750000
O O14 0.459803 0.540198 0.625000
#
# Coordination Sequence:
#
# PCOD8304842 Si02
#       6
#     8   8   8   8   8   8
#     4   9  18  33  55  76 108 143 181 231 273 329
#     4   9  18  33  54  75 111 142 176 225 275 328
#     4   9  16  31  56  78 104 145 184 222 277 331
#     4  10  20  34  54  76 109 143 174 224 279 323
#     4   9  16  28  53  81 109 141 180 226 275 333
#     4   8  16  33  55  74 103 143 181 221 271 327
#
# _framework density 21.477533999999999
#
# number of rings (size 3 to 8) (size 9 to 14) (size 15 to 20)
#    0.000    3.000    0.000    2.000    0.000    0.667 
#    3.000    0.000   58.667    0.000    0.000    0.000 
#    0.000    0.000    0.000    0.000    0.000    0.000 
#
# Total GULP energy -594698.673785 kJ/mol
# GULP energy per Si atom -12389.555704 kJ/mol
# Density = 2.142865 g / cm^3
# Si number density = 21.477534 Si / 1000 Ang^3
#
#
#
# Elastic Constant Matrix: (Units=GPa)
#
#
# Indices 1 2 3 4 5 6 
#
# 1 86.0157 13.8225 53.4844 0.0000 0.0000 0.0000
# 2 13.8225 86.0157 53.4844 0.0000 0.0000 0.0000
# 3 53.4844 53.4844 172.6987 0.0000 0.0000 0.0000
# 4 0.0000 0.0000 0.0000 35.5244 0.0000 0.0000
# 5 0.0000 0.0000 0.0000 0.0000 35.5243 0.0000
# 6 0.0000 0.0000 0.0000 0.0000 0.0000 3.2225
#
#
#
# Elastic Compliance Matrix: (Units=1/GPa)
#
#
# Indices 1 2 3 4 5 6 
#
# 1 0.014421 0.000569 -0.004642 0.000000 0.000000 0.000000
# 2 0.000569 0.014421 -0.004642 0.000000 0.000000 0.000000
# 3 -0.004642 -0.004642 0.008666 0.000000 0.000000 0.000000
# 4 0.000000 0.000000 0.000000 0.028150 0.000000 0.000000
# 5 0.000000 0.000000 0.000000 0.000000 0.028150 0.000000
# 6 0.000000 0.000000 0.000000 0.000000 0.000000 0.310321
#
#
# Mechanical properties :
#
#
# Convention : Reuss Voigt Hill
#
# Bulk Modulus (GPa) = 49.80921 65.14588 57.47754
# Shear Modulus (GPa) = 11.67536 29.78349 20.72943
#
# Velocity S-wave (km/s) = 2.33407 3.72792 3.11009
# Velocity P-wave (km/s) = 5.52318 6.99484 6.30211
#
# Compressibility (1/GPa) = 0.02007661
#
# Stress axis : x y z
#
# Youngs Moduli (GPa) = 69.34349 69.34349 115.39438
#
# Poissons Ratio (x) = -0.03947 0.53571
# Poissons Ratio (y) = -0.03947 0.53571
# Poissons Ratio (z) = 0.32192 0.32192
#
# Static dielectric constant tensor:
#      x y z
#    x 3.794800 0.000000 0.000000 
#    y 0.000000 3.794770 0.000000 
#    z 0.000000 0.000000 3.907000 
# 
# 
# High freq. dielectric constant tensor:
#      x y z
#    x 1.819280 0.000000 0.000000 
#    y 0.000000 1.819280 0.000000 
#    z 0.000000 0.000000 1.846610 
# 
# From -- ./inp_files/7987.got.cif
#   From: 2010.03.12/outbox.cif.g09.slc.cpg/sg91_4_cif.got.tgz:7987.got - 2010.04.08 20:27:58.
