data_PCOD8304786
_publ_section_title
;
Structure prediction by ZEFSAII (Michael W. Deem and Ramdas Pophale) SiO2 
 PCOD8304786
Probable space group: P 41 2 2
;
_chemical_formula_sum "Si O2"
_cell_formula_units_Z 48
_cell_length_a 9.457055
_cell_length_b 9.457055
_cell_length_c 27.508109
_cell_angle_alpha 90.000000
_cell_angle_beta 90.000000
_cell_angle_gamma 90.000000
_cell_volume 2460.212191
_symmetry_space_group_name_H-M "P 41 2 2"
_symmetry_group_IT_number 91
_symmetry_cell_setting 'tetragonal'
loop_
_space_group_symop_operation_xyz
x,y,z
-y,x,1/4+z
-x,-y,1/2+z
y,-x,3/4+z
x,-y,1/2-z
-x,y,-z
y,x,3/4-z
-y,-x,1/4-z
loop_
_atom_site_type_symbol
_atom_site_label
_atom_site_fract_x
_atom_site_fract_y
_atom_site_fract_z
Si Si1 0.988071 0.052417 0.552741
Si Si2 0.825749 0.217917 0.204753
Si Si3 0.976357 0.582860 0.651639
Si Si4 0.694789 0.929052 0.557966
Si Si5 0.910547 0.472256 0.049426
Si Si6 0.258240 0.198004 0.154703
O O1 0.064123 0.898689 0.549230
O O2 0.000000 0.126651 0.500000
O O3 0.826189 0.033130 0.567353
O O4 0.063578 0.153151 0.591222
O O5 0.887565 0.317010 0.162075
O O6 0.859158 0.295971 0.255367
O O7 0.658380 0.197954 0.201329
O O8 0.978148 0.446652 0.686550
O O9 0.980996 0.541826 0.594731
O O10 0.829207 0.659747 0.664941
O O11 0.687967 0.805783 0.599012
O O12 0.815094 0.612548 0.057276
O O13 0.000000 0.481942 0.000000
#
# Coordination Sequence:
#
# PCOD8304786 Si02
#       6
#     8   8   8   8   8   8
#     4   9  17  31  53  78 103 136 182 230 270 316
#     4  10  19  34  56  79 104 141 188 231 269 318
#     4  10  21  36  56  82 112 145 184 229 277 330
#     4  10  19  32  56  81 106 140 184 227 269 324
#     4  11  21  34  56  83 112 145 183 229 280 332
#     4  10  20  33  52  81 112 141 176 224 279 330
#
# _framework density 19.51051
#
# number of rings (size 3 to 8) (size 9 to 14) (size 15 to 20)
#    0.000    2.000    0.000    5.500    0.000    2.667 
#    0.000    0.000    0.000   34.000    0.000    0.000 
#    0.000    0.000    0.000    0.000    0.000    0.000 
#
# Total GULP energy -595142.588381 kJ/mol
# GULP energy per Si atom -12398.803925 kJ/mol
# Density = 1.946610 g / cm^3
# Si number density = 19.510510 Si / 1000 Ang^3
#
#
#
# Elastic Constant Matrix: (Units=GPa)
#
#
# Indices 1 2 3 4 5 6 
#
# 1 128.1013 56.2089 31.1488 0.0000 0.0000 0.0000
# 2 56.2089 128.1013 31.1488 0.0000 0.0000 0.0000
# 3 31.1488 31.1488 94.8646 0.0000 0.0000 0.0000
# 4 0.0000 0.0000 0.0000 21.8779 0.0000 0.0000
# 5 0.0000 0.0000 0.0000 0.0000 21.8779 0.0000
# 6 0.0000 0.0000 0.0000 0.0000 0.0000 18.9355
#
#
#
# Elastic Compliance Matrix: (Units=1/GPa)
#
#
# Indices 1 2 3 4 5 6 
#
# 1 0.010006 -0.003903 -0.002004 0.000000 0.000000 0.000000
# 2 -0.003903 0.010006 -0.002004 0.000000 0.000000 0.000000
# 3 -0.002004 -0.002004 0.011857 0.000000 0.000000 0.000000
# 4 0.000000 0.000000 0.000000 0.045708 0.000000 0.000000
# 5 0.000000 0.000000 0.000000 0.000000 0.045708 0.000000
# 6 0.000000 0.000000 0.000000 0.000000 0.000000 0.052811
#
#
# Mechanical properties :
#
#
# Convention : Reuss Voigt Hill
#
# Bulk Modulus (GPa) = 62.31461 65.34225 63.82843
# Shear Modulus (GPa) = 25.34614 28.04232 26.69423
#
# Velocity S-wave (km/s) = 3.60822 3.79528 3.70293
# Velocity P-wave (km/s) = 7.02619 7.26423 7.14620
#
# Compressibility (1/GPa) = 0.01604760
#
# Stress axis : x y z
#
# Youngs Moduli (GPa) = 99.93683 99.93683 84.33622
#
# Poissons Ratio (x) = 0.39009 0.16900
# Poissons Ratio (y) = 0.39009 0.16900
# Poissons Ratio (z) = 0.20026 0.20026
#
# Static dielectric constant tensor:
#      x y z
#    x 3.406490 0.000000 0.000000 
#    y 0.000000 3.406490 0.000000 
#    z 0.000000 0.000000 3.777070 
# 
# 
# High freq. dielectric constant tensor:
#      x y z
#    x 1.738450 0.000000 0.000000 
#    y 0.000000 1.738450 0.000000 
#    z 0.000000 0.000000 1.783470 
# 
# From -- ./inp_files/7929.got.cif
#   From: 2010.03.12/outbox.cif.g09.slc.cpg/sg91_4_cif.got.tgz:7929.got - 2010.04.08 20:27:58.
