data_PCOD8304201
_publ_section_title
;
Structure prediction by ZEFSAII (Michael W. Deem and Ramdas Pophale) SiO2 
 PCOD8304201
Probable space group: I 41/A
;
_chemical_formula_sum "Si O2"
_cell_formula_units_Z 112
_cell_length_a 24.805283
_cell_length_b 24.805283
_cell_length_c 9.948488
_cell_angle_alpha 90.000000
_cell_angle_beta 90.000000
_cell_angle_gamma 90.000000
_cell_volume 6121.325207
_symmetry_space_group_name_H-M "I 41/A"
_symmetry_group_IT_number 88
_space_group.IT_coordinate_system_code '2'
_symmetry_cell_setting 'tetragonal'
loop_
_space_group_symop_operation_xyz
x,y,z
3/4-y,1/4+x,1/4+z
-x,1/2-y,z
1/4+y,1/4-x,1/4+z
-x,-y,-z
1/4+y,3/4-x,3/4-z
x,1/2+y,-z
3/4-y,3/4+x,3/4-z
1/2+x,1/2+y,1/2+z
1/4-y,3/4+x,3/4+z
1/2-x,-y,1/2+z
3/4+y,3/4-x,3/4+z
1/2-x,1/2-y,1/2-z
3/4+y,1/4-x,1/4-z
1/2+x,y,1/2-z
1/4-y,1/4+x,1/4-z
loop_
_atom_site_type_symbol
_atom_site_label
_atom_site_fract_x
_atom_site_fract_y
_atom_site_fract_z
Si Si1 0.946149 0.380800 0.051198
Si Si2 0.552049 0.545986 0.100337
Si Si3 0.765272 0.201425 0.346435
Si Si4 0.592833 0.659472 0.097604
Si Si5 0.004911 0.187719 0.815236
Si Si6 0.316663 0.308512 0.718354
Si Si7 0.849649 0.810131 0.925023
O O1 0.921504 0.435635 0.982334
O O2 0.970215 0.341797 0.940438
O O3 0.897822 0.349024 0.129229
O O4 0.996244 0.393296 0.148803
O O5 0.532006 0.538266 0.255671
O O6 0.591359 0.595819 0.076155
O O7 0.584611 0.492556 0.053469
O O8 0.503841 0.557020 0.998424
O O9 0.750000 0.250000 0.250000
O O10 0.708583 0.169155 0.366822
O O11 0.543032 0.679850 0.187018
O O12 0.651956 0.665669 0.159012
O O13 0.588270 0.695787 0.963584
O O14 0.000000 0.250000 0.852532
O O15 0.352386 0.315933 0.585591
#
# Coordination Sequence:
#
# PCOD8304201 Si02
#       7
#    16  16  16  16  16  16  16
#     4  11  22  35  49  75 115 140 181 218 271 333
#     4  10  19  31  51  73 100 135 175 215 256 311
#     4   9  18  36  51  69 104 140 179 214 262 323
#     4  12  18  32  50  73 105 139 172 211 268 321
#     4  12  21  30  48  75 110 142 165 205 266 331
#     4  10  19  33  49  73 105 130 178 219 254 312
#     4  10  22  32  52  75 107 143 175 224 270 319
#
# _framework density 18.296692
#
# number of rings (size 3 to 8) (size 9 to 14) (size 15 to 20)
#    0.000    1.429    5.714    0.000    2.000    0.000 
#    0.000    0.000    0.000    0.000    0.000    0.000 
#  218.571    0.000    0.000    0.000    0.000    0.000 
#
# Total GULP energy -693756.080203 kJ/mol
# GULP energy per Si atom -12388.501432 kJ/mol
# Density = 1.825505 g / cm^3
# Si number density = 18.296692 Si / 1000 Ang^3
#
#
#
# Elastic Constant Matrix: (Units=GPa)
#
#
# Indices 1 2 3 4 5 6 
#
# 1 115.9482 45.9152 21.4846 0.0000 0.0000 -2.4522
# 2 45.9152 115.9482 21.4846 0.0000 0.0000 2.4522
# 3 21.4846 21.4846 30.3484 0.0000 0.0000 0.0000
# 4 0.0000 0.0000 0.0000 19.1101 0.0000 0.0000
# 5 0.0000 0.0000 0.0000 0.0000 19.1101 0.0000
# 6 -2.4522 2.4522 0.0000 0.0000 0.0000 16.5891
#
#
#
# Elastic Compliance Matrix: (Units=1/GPa)
#
#
# Indices 1 2 3 4 5 6 
#
# 1 0.011018 -0.003410 -0.005386 0.000000 0.000000 0.002133
# 2 -0.003410 0.011018 -0.005386 0.000000 0.000000 -0.002133
# 3 -0.005386 -0.005386 0.040576 0.000000 0.000000 0.000000
# 4 0.000000 0.000000 0.000000 0.052328 0.000000 0.000000
# 5 0.000000 0.000000 0.000000 0.000000 0.052328 0.000000
# 6 0.002133 -0.002133 0.000000 0.000000 0.000000 0.060911
#
#
# Mechanical properties :
#
#
# Convention : Reuss Voigt Hill
#
# Bulk Modulus (GPa) = 29.19823 48.89040 39.04431
# Shear Modulus (GPa) = 18.65949 22.51922 20.58935
#
# Velocity S-wave (km/s) = 3.19694 3.51205 3.35820
# Velocity P-wave (km/s) = 5.44243 6.57457 6.03511
#
# Compressibility (1/GPa) = 0.03424865
#
# Stress axis : x y z
#
# Youngs Moduli (GPa) = 90.76003 90.76003 24.64492
#
# Poissons Ratio (x) = 0.30952 0.13273
# Poissons Ratio (y) = 0.30952 0.13273
# Poissons Ratio (z) = 0.48882 0.48882
#
# Static dielectric constant tensor:
#      x y z
#    x 3.793390 0.000000 0.000000 
#    y 0.000000 3.793390 0.000000 
#    z 0.000000 0.000000 3.420730 
# 
# 
# High freq. dielectric constant tensor:
#      x y z
#    x 1.694690 0.000000 0.000000 
#    y 0.000000 1.694690 0.000000 
#    z 0.000000 0.000000 1.706790 
# 
# From -- ./inp_files/2717.got.cif
#   From: 2010.03.12/outbox.cif.g09.slc.cpg/sg88_2_cif.got.tgz:2717.got - 2010.04.08 20:20:55.
