data_PCOD8304512
_publ_section_title
;
Structure prediction by ZEFSAII (Michael W. Deem and Ramdas Pophale) SiO2 
 PCOD8304512
Probable space group: P 4 2 2
;
_chemical_formula_sum "Si O2"
_cell_formula_units_Z 40
_cell_length_a 8.308972
_cell_length_b 8.308972
_cell_length_c 24.802554
_cell_angle_alpha 90.000000
_cell_angle_beta 90.000000
_cell_angle_gamma 90.000000
_cell_volume 1712.343915
_symmetry_space_group_name_H-M "P 4 2 2"
_symmetry_group_IT_number 89
_symmetry_cell_setting 'tetragonal'
loop_
_space_group_symop_operation_xyz
x,y,z
-y,x,z
-x,-y,z
y,-x,z
x,-y,-z
-x,y,-z
y,x,-z
-y,-x,-z
loop_
_atom_site_type_symbol
_atom_site_label
_atom_site_fract_x
_atom_site_fract_y
_atom_site_fract_z
Si Si1 0.529540 0.760158 0.561183
Si Si2 0.618285 0.733611 0.735393
Si Si3 0.853541 0.785355 0.164810
Si Si4 0.324777 0.697693 0.060266
Si Si5 0.079620 0.746971 0.639388
O O1 0.364380 0.673615 0.575121
O O2 0.500000 0.817877 0.500000
O O3 0.595727 0.905261 0.597857
O O4 0.430935 0.712547 0.722105
O O5 0.648302 0.772065 0.798331
O O6 0.683898 0.881218 0.699476
O O7 0.818690 0.757873 0.101838
O O8 0.041345 0.780039 0.178531
O O9 0.277312 0.513567 0.069671
O O10 0.262514 0.737487 0.000000
O O11 0.897370 0.801145 0.630243
#
# Coordination Sequence:
#
# PCOD8304512 Si02
#       5
#     8   8   8   8   8
#     4   9  19  39  63  89 119 154 200 246 286 340
#     4  11  24  41  64  93 122 157 205 256 306 367
#     4  11  24  39  56  85 125 163 203 255 313 373
#     4   9  19  37  60  85 115 156 209 264 314 370
#     4  11  24  41  63  95 132 165 201 247 302 365
#
# _framework density 23.359793
#
# number of rings (size 3 to 8) (size 9 to 14) (size 15 to 20)
#    0.000    1.800    0.000    4.800    0.000   13.600 
#    0.000   13.000    0.000    4.800    0.000    0.000 
#    0.000    0.000    0.000    0.000    0.000    0.000 
#
# Total GULP energy -495703.128347 kJ/mol
# GULP energy per Si atom -12392.578209 kJ/mol
# Density = 2.330662 g / cm^3
# Si number density = 23.359793 Si / 1000 Ang^3
#
#
#
# Elastic Constant Matrix: (Units=GPa)
#
#
# Indices 1 2 3 4 5 6 
#
# 1 46.2294 34.8928 37.0001 0.0000 0.0000 0.0000
# 2 34.8928 46.2290 37.0002 0.0000 0.0000 0.0000
# 3 37.0001 37.0002 139.5629 0.0000 0.0000 0.0000
# 4 0.0000 0.0000 0.0000 16.7120 0.0000 0.0000
# 5 0.0000 0.0000 0.0000 0.0000 16.7120 0.0000
# 6 0.0000 0.0000 0.0000 0.0000 0.0000 63.4029
#
#
#
# Elastic Compliance Matrix: (Units=1/GPa)
#
#
# Indices 1 2 3 4 5 6 
#
# 1 0.052235 -0.035976 -0.004310 0.000000 0.000000 0.000000
# 2 -0.035976 0.052235 -0.004311 0.000000 0.000000 0.000000
# 3 -0.004310 -0.004311 0.009451 0.000000 0.000000 0.000000
# 4 0.000000 0.000000 0.000000 0.059837 0.000000 0.000000
# 5 0.000000 0.000000 0.000000 0.000000 0.059837 0.000000
# 6 0.000000 0.000000 0.000000 0.000000 0.000000 0.015772
#
#
# Mechanical properties :
#
#
# Convention : Reuss Voigt Hill
#
# Bulk Modulus (GPa) = 40.44152 49.97862 45.21007
# Shear Modulus (GPa) = 14.41737 27.57393 20.99565
#
# Velocity S-wave (km/s) = 2.48702 3.43942 3.00124
# Velocity P-wave (km/s) = 5.05935 6.10036 5.60408
#
# Compressibility (1/GPa) = 0.02472706
#
# Stress axis : x y z
#
# Youngs Moduli (GPa) = 19.14433 19.14409 105.81101
#
# Poissons Ratio (x) = 0.68873 0.45609
# Poissons Ratio (y) = 0.68873 0.45612
# Poissons Ratio (z) = 0.08252 0.08252
#
# Static dielectric constant tensor:
#      x y z
#    x 4.159480 0.000000 0.000000 
#    y 0.000000 4.159470 0.000000 
#    z 0.000000 0.000000 4.030690 
# 
# 
# High freq. dielectric constant tensor:
#      x y z
#    x 1.927600 0.000000 0.000000 
#    y 0.000000 1.927600 0.000000 
#    z 0.000000 0.000000 1.923200 
# 
# From -- ./inp_files/2687.got.cif
#   From: 2010.03.12/outbox.cif.g09.slc.cpg/sg89_2_cif.got.tgz:2687.got - 2010.04.08 20:24:03.
