data_PCOD8304142
_publ_section_title
;
Structure prediction by ZEFSAII (Michael W. Deem and Ramdas Pophale) SiO2 
 PCOD8304142
Probable space group: I 4/M
;
_chemical_formula_sum "Si O2"
_cell_formula_units_Z 40
_cell_length_a 10.153307
_cell_length_b 10.153307
_cell_length_c 18.577488
_cell_angle_alpha 90.000000
_cell_angle_beta 90.000000
_cell_angle_gamma 90.000000
_cell_volume 1915.146606
_symmetry_space_group_name_H-M "I 4/M"
_symmetry_group_IT_number 87
_symmetry_cell_setting 'tetragonal'
loop_
_space_group_symop_operation_xyz
x,y,z
-y,x,z
-x,-y,z
y,-x,z
-x,-y,-z
y,-x,-z
x,y,-z
-y,x,-z
1/2+x,1/2+y,1/2+z
1/2-y,1/2+x,1/2+z
1/2-x,1/2-y,1/2+z
1/2+y,1/2-x,1/2+z
1/2-x,1/2-y,1/2-z
1/2+y,1/2-x,1/2-z
1/2+x,1/2+y,1/2-z
1/2-y,1/2+x,1/2-z
loop_
_atom_site_type_symbol
_atom_site_label
_atom_site_fract_x
_atom_site_fract_y
_atom_site_fract_z
Si Si1 0.800428 0.086981 0.000000
Si Si2 0.215537 0.035269 0.744083
Si Si3 0.426298 0.123332 0.632518
O O1 0.720729 0.125883 0.928769
O O2 0.932066 0.171734 0.000000
O O3 0.301600 0.064809 0.674442
O O4 0.108391 0.150029 0.745289
O O5 0.306722 0.033660 0.815047
O O6 0.500000 0.000000 0.595692
#
# Coordination Sequence:
#
# PCOD8304142 Si02
#       3
#     8  16  16
#     4  11  27  46  68  95 130 178 222 269 329 391
#     4  11  23  40  67  99 133 173 217 271 328 387
#     4  12  23  42  67  98 132 171 220 272 329 386
#
# _framework density 20.886130999999999
#
# number of rings (size 3 to 8) (size 9 to 14) (size 15 to 20)
#    0.000    0.600    4.000    4.200    5.600    3.200 
#    0.000    0.000    0.000    2.400    0.000    0.000 
#    0.000    0.000    0.000    0.000    0.000    0.000 
#
# Total GULP energy -248029.523574 kJ/mol
# GULP energy per Si atom -12401.476179 kJ/mol
# Density = 2.083859 g / cm^3
# Si number density = 20.886131 Si / 1000 Ang^3
#
#
#
# Elastic Constant Matrix: (Units=GPa)
#
#
# Indices 1 2 3 4 5 6 
#
# 1 98.8449 36.1672 34.3341 0.0000 0.0000 14.5994
# 2 36.1672 98.8449 34.3341 0.0000 0.0000 -14.5994
# 3 34.3341 34.3341 94.3322 0.0000 0.0000 0.0000
# 4 0.0000 0.0000 0.0000 26.5930 0.0000 0.0000
# 5 0.0000 0.0000 0.0000 0.0000 26.5930 0.0000
# 6 14.5994 -14.5994 0.0000 0.0000 0.0000 11.8497
#
#
#
# Elastic Compliance Matrix: (Units=1/GPa)
#
#
# Indices 1 2 3 4 5 6 
#
# 1 0.023269 -0.014180 -0.003308 0.000000 0.000000 -0.046138
# 2 -0.014180 0.023269 -0.003308 0.000000 0.000000 0.046138
# 3 -0.003308 -0.003308 0.013009 0.000000 0.000000 0.000000
# 4 0.000000 0.000000 0.000000 0.037604 0.000000 0.000000
# 5 0.000000 0.000000 0.000000 0.000000 0.037604 0.000000
# 6 -0.046138 0.046138 0.000000 0.000000 0.000000 0.198079
#
#
# Mechanical properties :
#
#
# Convention : Reuss Voigt Hill
#
# Bulk Modulus (GPa) = 55.69560 55.74363 55.71961
# Shear Modulus (GPa) = 13.14370 25.48627 19.31498
#
# Velocity S-wave (km/s) = 2.51131 3.49700 3.04431
# Velocity P-wave (km/s) = 5.92732 6.56144 6.25243
#
# Compressibility (1/GPa) = 0.01795474
#
# Stress axis : x y z
#
# Youngs Moduli (GPa) = 42.97588 42.97588 76.86964
#
# Poissons Ratio (x) = 0.60938 0.25430
# Poissons Ratio (y) = 0.60938 0.25430
# Poissons Ratio (z) = 0.14217 0.14217
#
# Static dielectric constant tensor:
#      x y z
#    x 4.067780 0.000000 0.000000 
#    y 0.000000 4.067780 0.000000 
#    z 0.000000 0.000000 3.595090 
# 
# 
# High freq. dielectric constant tensor:
#      x y z
#    x 1.833430 0.000000 0.000000 
#    y 0.000000 1.833430 0.000000 
#    z 0.000000 0.000000 1.801140 
# 
# From -- ./inp_files/3147.got.cif
#   From: 2010.03.12/outbox.cif.g09.slc.cpg/sg87_2_cif.got.tgz:3147.got - 2010.04.08 20:16:13.
