data_PCOD8304320
_publ_section_title
;
Structure prediction by ZEFSAII (Michael W. Deem and Ramdas Pophale) SiO2 
 PCOD8304320
Probable space group: I 41/A
;
_chemical_formula_sum "Si O2"
_cell_formula_units_Z 96
_cell_length_a 14.973705
_cell_length_b 14.973705
_cell_length_c 19.779548
_cell_angle_alpha 90.000000
_cell_angle_beta 90.000000
_cell_angle_gamma 90.000000
_cell_volume 4434.808880
_symmetry_space_group_name_H-M "I 41/A"
_symmetry_group_IT_number 88
_space_group.IT_coordinate_system_code '2'
_symmetry_cell_setting 'tetragonal'
loop_
_space_group_symop_operation_xyz
x,y,z
3/4-y,1/4+x,1/4+z
-x,1/2-y,z
1/4+y,1/4-x,1/4+z
-x,-y,-z
1/4+y,3/4-x,3/4-z
x,1/2+y,-z
3/4-y,3/4+x,3/4-z
1/2+x,1/2+y,1/2+z
1/4-y,3/4+x,3/4+z
1/2-x,-y,1/2+z
3/4+y,3/4-x,3/4+z
1/2-x,1/2-y,1/2-z
3/4+y,1/4-x,1/4-z
1/2+x,y,1/2-z
1/4-y,1/4+x,1/4-z
loop_
_atom_site_type_symbol
_atom_site_label
_atom_site_fract_x
_atom_site_fract_y
_atom_site_fract_z
Si Si1 0.459410 0.843322 0.315756
Si Si2 0.625956 0.978799 0.509424
Si Si3 0.020229 0.145134 0.219400
Si Si4 0.689190 0.136956 0.577904
Si Si5 0.474170 0.495786 0.387179
Si Si6 0.882629 0.200918 0.590499
O O1 0.500000 0.750000 0.342309
O O2 0.368446 0.866350 0.354126
O O3 0.439694 0.838081 0.236868
O O4 0.528559 0.924197 0.332228
O O5 0.705091 0.039243 0.541909
O O6 0.618218 0.006924 0.429971
O O7 0.632842 0.872215 0.514027
O O8 0.544558 0.018447 0.554033
O O9 0.001552 0.099125 0.146746
O O10 0.000000 0.250000 0.214074
O O11 0.955923 0.103930 0.275101
O O12 0.783417 0.170177 0.603553
O O13 0.890920 0.304022 0.612294
#
# Coordination Sequence:
#
# PCOD8304320 Si02
#       6
#    16  16  16  16  16  16
#     4  11  21  45  74  95 140 185 227 305 360 425
#     4  10  24  41  60 104 147 182 240 297 350 438
#     4  12  24  40  70 103 139 195 238 283 371 441
#     4  11  25  46  68 104 146 181 243 301 365 434
#     4  10  22  39  64 100 139 188 236 286 356 431
#     4  11  24  49  73 102 134 182 248 303 367 435
#
# _framework density 21.646929
#
# number of rings (size 3 to 8) (size 9 to 14) (size 15 to 20)
#    0.000    1.167    3.333    4.500    4.667    0.667 
#    9.000    0.833    0.000    0.000    0.000    0.000 
#    0.000    0.000    0.000    0.000    0.000    0.000 
#
# Total GULP energy -594958.192212 kJ/mol
# GULP energy per Si atom -12394.962338 kJ/mol
# Density = 2.159766 g / cm^3
# Si number density = 21.646929 Si / 1000 Ang^3
#
#
#
# Elastic Constant Matrix: (Units=GPa)
#
#
# Indices 1 2 3 4 5 6 
#
# 1 137.7849 47.9095 47.5911 0.0000 0.0000 10.9887
# 2 47.9095 137.7849 47.5911 0.0000 0.0000 -10.9887
# 3 47.5911 47.5911 139.3401 0.0000 0.0000 0.0000
# 4 0.0000 0.0000 0.0000 30.0633 0.0000 0.0000
# 5 0.0000 0.0000 0.0000 0.0000 30.0633 0.0000
# 6 10.9887 -10.9887 0.0000 0.0000 0.0000 16.1281
#
#
#
# Elastic Compliance Matrix: (Units=1/GPa)
#
#
# Indices 1 2 3 4 5 6 
#
# 1 0.009939 -0.003411 -0.002230 0.000000 0.000000 -0.009096
# 2 -0.003411 0.009939 -0.002230 0.000000 0.000000 0.009096
# 3 -0.002230 -0.002230 0.008700 0.000000 0.000000 0.000000
# 4 0.000000 0.000000 0.000000 0.033263 0.000000 0.000000
# 5 0.000000 0.000000 0.000000 0.000000 0.033263 0.000000
# 6 -0.009096 0.009096 0.000000 0.000000 0.000000 0.074399
#
#
# Mechanical properties :
#
#
# Convention : Reuss Voigt Hill
#
# Bulk Modulus (GPa) = 77.89800 77.89924 77.89862
# Shear Modulus (GPa) = 26.38181 33.37215 29.87698
#
# Velocity S-wave (km/s) = 3.49482 3.93065 3.71913
# Velocity P-wave (km/s) = 7.23525 7.52758 7.38286
#
# Compressibility (1/GPa) = 0.01283730
#
# Stress axis : x y z
#
# Youngs Moduli (GPa) = 100.60900 100.60900 114.94610
#
# Poissons Ratio (x) = 0.34322 0.25629
# Poissons Ratio (y) = 0.34322 0.25629
# Poissons Ratio (z) = 0.22432 0.22432
#
# Static dielectric constant tensor:
#      x y z
#    x 3.964120 0.000000 0.000000 
#    y 0.000000 3.964120 0.000000 
#    z 0.000000 0.000000 4.050210 
# 
# 
# High freq. dielectric constant tensor:
#      x y z
#    x 1.841190 0.000000 0.000000 
#    y 0.000000 1.841190 0.000000 
#    z 0.000000 0.000000 1.866020 
# 
# From -- ./inp_files/4687.got.cif
#   From: 2010.03.12/outbox.cif.g09.slc.cpg/sg88_3_cif.got.tgz:4687.got - 2010.04.08 20:20:55.
