data_PCOD8304061
_publ_section_title
;
Structure prediction by ZEFSAII (Michael W. Deem and Ramdas Pophale) SiO2 
 PCOD8304061
Probable space group: I 4/M
;
_chemical_formula_sum "Si O2"
_cell_formula_units_Z 84
_cell_length_a 17.997958
_cell_length_b 17.997958
_cell_length_c 12.801614
_cell_angle_alpha 90.000000
_cell_angle_beta 90.000000
_cell_angle_gamma 90.000000
_cell_volume 4146.781917
_symmetry_space_group_name_H-M "I 4/M"
_symmetry_group_IT_number 87
_symmetry_cell_setting 'tetragonal'
loop_
_space_group_symop_operation_xyz
x,y,z
-y,x,z
-x,-y,z
y,-x,z
-x,-y,-z
y,-x,-z
x,y,-z
-y,x,-z
1/2+x,1/2+y,1/2+z
1/2-y,1/2+x,1/2+z
1/2-x,1/2-y,1/2+z
1/2+y,1/2-x,1/2+z
1/2-x,1/2-y,1/2-z
1/2+y,1/2-x,1/2-z
1/2+x,1/2+y,1/2-z
1/2-y,1/2+x,1/2-z
loop_
_atom_site_type_symbol
_atom_site_label
_atom_site_fract_x
_atom_site_fract_y
_atom_site_fract_z
Si Si1 0.962796 0.115308 0.381298
Si Si2 0.266059 0.861459 0.197331
Si Si3 0.247741 0.472665 0.254892
Si Si4 0.000000 0.500000 0.750000
Si Si5 0.926364 0.380745 0.380319
Si Si6 0.828602 0.269444 0.120625
O O1 0.954062 0.143168 0.500000
O O2 0.939799 0.180481 0.303725
O O3 0.047352 0.092002 0.359684
O O4 0.340932 0.856823 0.129466
O O5 0.204018 0.812748 0.139367
O O6 0.281508 0.829727 0.313589
O O7 0.236446 0.945671 0.200199
O O8 0.180938 0.479048 0.171979
O O9 0.228225 0.415384 0.347389
O O10 0.060453 0.540952 0.677563
O O11 0.949598 0.389014 0.500000
O O12 0.822333 0.291967 0.000000
#
# Coordination Sequence:
#
# PCOD8304061 Si02
#       6
#    16  16  16   4  16  16
#     4   9  18  33  55  84 116 150 188 237 297 350
#     4  10  22  42  59  86 123 153 203 242 290 361
#     4  11  21  38  58  89 114 149 200 244 290 352
#     4  12  22  44  52  94 116 148 198 240 292 350
#     4  11  23  39  61  84 118 156 192 240 296 351
#     4  10  23  40  61  86 118 158 196 245 295 350
#
# _framework density 20.256671000000001
#
# number of rings (size 3 to 8) (size 9 to 14) (size 15 to 20)
#    0.000    1.714    1.905    3.143    0.000    3.048 
#    0.000    4.762    0.000    0.000    0.000    4.000 
#    0.000    0.000    0.000    0.000    0.000    0.000 
#
# Total GULP energy -521008.714711 kJ/mol
# GULP energy per Si atom -12404.969398 kJ/mol
# Density = 2.021057 g / cm^3
# Si number density = 20.256671 Si / 1000 Ang^3
#
#
#
# Elastic Constant Matrix: (Units=GPa)
#
#
# Indices 1 2 3 4 5 6 
#
# 1 79.9688 -4.9412 22.6546 0.0000 0.0000 2.8219
# 2 -4.9412 79.9688 22.6546 0.0000 0.0000 -2.8219
# 3 22.6546 22.6546 116.1124 0.0000 0.0000 0.0000
# 4 0.0000 0.0000 0.0000 21.4156 0.0000 0.0000
# 5 0.0000 0.0000 0.0000 0.0000 21.4156 0.0000
# 6 2.8219 -2.8219 0.0000 0.0000 0.0000 26.2777
#
#
#
# Elastic Compliance Matrix: (Units=1/GPa)
#
#
# Indices 1 2 3 4 5 6 
#
# 1 0.013485 0.001623 -0.002948 0.000000 0.000000 -0.001274
# 2 0.001623 0.013485 -0.002948 0.000000 0.000000 0.001274
# 3 -0.002948 -0.002948 0.009763 0.000000 0.000000 0.000000
# 4 0.000000 0.000000 0.000000 0.046695 0.000000 0.000000
# 5 0.000000 0.000000 0.000000 0.000000 0.046695 0.000000
# 6 -0.001274 0.001274 0.000000 0.000000 0.000000 0.038329
#
#
# Mechanical properties :
#
#
# Convention : Reuss Voigt Hill
#
# Bulk Modulus (GPa) = 35.47538 39.64289 37.55913
# Shear Modulus (GPa) = 26.82515 29.53393 28.17954
#
# Velocity S-wave (km/s) = 3.64299 3.82250 3.73382
# Velocity P-wave (km/s) = 5.93684 6.25258 6.09676
#
# Compressibility (1/GPa) = 0.02818856
#
# Stress axis : x y z
#
# Youngs Moduli (GPa) = 74.15520 74.15520 102.43129
#
# Poissons Ratio (x) = -0.12038 0.30195
# Poissons Ratio (y) = -0.12038 0.30195
# Poissons Ratio (z) = 0.21860 0.21860
#
# Static dielectric constant tensor:
#      x y z
#    x 3.602600 0.000000 0.000000 
#    y 0.000000 3.602600 0.000000 
#    z 0.000000 0.000000 3.466760 
# 
# 
# High freq. dielectric constant tensor:
#      x y z
#    x 1.793600 0.000000 0.000000 
#    y 0.000000 1.793600 0.000000 
#    z 0.000000 0.000000 1.777580 
# 
# From -- ./inp_files/2671.got.cif
#   From: 2010.03.12/outbox.cif.g09.slc.cpg/sg87_2_cif.got.tgz:2671.got - 2010.04.08 20:16:13.
