data_PCOD8304442
_publ_section_title
;
Structure prediction by ZEFSAII (Michael W. Deem and Ramdas Pophale) SiO2 
 PCOD8304442
Probable space group: I 41/A
;
_chemical_formula_sum "Si O2"
_cell_formula_units_Z 64
_cell_length_a 14.284739
_cell_length_b 14.284739
_cell_length_c 13.985646
_cell_angle_alpha 90.000000
_cell_angle_beta 90.000000
_cell_angle_gamma 90.000000
_cell_volume 2853.823768
_symmetry_space_group_name_H-M "I 41/A"
_symmetry_group_IT_number 88
_space_group.IT_coordinate_system_code '2'
_symmetry_cell_setting 'tetragonal'
loop_
_space_group_symop_operation_xyz
x,y,z
3/4-y,1/4+x,1/4+z
-x,1/2-y,z
1/4+y,1/4-x,1/4+z
-x,-y,-z
1/4+y,3/4-x,3/4-z
x,1/2+y,-z
3/4-y,3/4+x,3/4-z
1/2+x,1/2+y,1/2+z
1/4-y,3/4+x,3/4+z
1/2-x,-y,1/2+z
3/4+y,3/4-x,3/4+z
1/2-x,1/2-y,1/2-z
3/4+y,1/4-x,1/4-z
1/2+x,y,1/2-z
1/4-y,1/4+x,1/4-z
loop_
_atom_site_type_symbol
_atom_site_label
_atom_site_fract_x
_atom_site_fract_y
_atom_site_fract_z
Si Si1 0.380554 0.573461 0.898662
Si Si2 0.109648 0.763155 0.993090
Si Si3 0.791368 0.830592 0.815568
Si Si4 0.417910 0.871416 0.147110
O O1 0.473131 0.612981 0.846387
O O2 0.289135 0.593733 0.834663
O O3 0.389039 0.462233 0.914093
O O4 0.372395 0.625047 0.998367
O O5 0.171101 0.709752 0.915056
O O6 0.131956 0.874046 0.990516
O O7 0.000000 0.750000 0.971324
O O8 0.750000 0.750000 0.750000
O O9 0.530482 0.868531 0.159152
#
# Coordination Sequence:
#
# PCOD8304442 Si02
#       4
#    16  16  16  16
#     4  12  26  50  74 114 144 193 256 304 371 460
#     4  12  23  44  68 104 152 189 240 309 370 420
#     4  12  23  41  74 109 149 196 242 304 372 436
#     4  11  28  52  77 103 149 198 247 311 384 447
#
# _framework density 22.426053
#
# number of rings (size 3 to 8) (size 9 to 14) (size 15 to 20)
#    0.000    0.250    7.500    0.750    3.500    2.000 
#    0.000    0.000    0.000    0.000    0.000    0.000 
#    0.000    0.000    0.000    0.000    0.000    0.000 
#
# Total GULP energy -396960.496323 kJ/mol
# GULP energy per Si atom -12405.015510 kJ/mol
# Density = 2.237501 g / cm^3
# Si number density = 22.426053 Si / 1000 Ang^3
#
#
#
# Elastic Constant Matrix: (Units=GPa)
#
#
# Indices 1 2 3 4 5 6 
#
# 1 156.6390 65.4763 33.6007 0.0000 0.0000 9.3640
# 2 65.4763 156.6390 33.6007 0.0000 0.0000 -9.3640
# 3 33.6007 33.6007 85.6436 0.0000 0.0000 0.0000
# 4 0.0000 0.0000 0.0000 38.8377 0.0000 0.0000
# 5 0.0000 0.0000 0.0000 0.0000 38.8377 0.0000
# 6 9.3640 -9.3640 0.0000 0.0000 0.0000 28.1352
#
#
#
# Elastic Compliance Matrix: (Units=1/GPa)
#
#
# Indices 1 2 3 4 5 6 
#
# 1 0.008442 -0.003333 -0.002004 0.000000 0.000000 -0.003919
# 2 -0.003333 0.008442 -0.002004 0.000000 0.000000 0.003919
# 3 -0.002004 -0.002004 0.013249 0.000000 0.000000 0.000000
# 4 0.000000 0.000000 0.000000 0.025748 0.000000 0.000000
# 5 0.000000 0.000000 0.000000 0.000000 0.025748 0.000000
# 6 -0.003919 0.003919 0.000000 0.000000 0.000000 0.038151
#
#
# Mechanical properties :
#
#
# Convention : Reuss Voigt Hill
#
# Bulk Modulus (GPa) = 64.72879 73.80856 69.26867
# Shear Modulus (GPa) = 35.81351 38.91170 37.36260
#
# Velocity S-wave (km/s) = 4.00053 4.16999 4.08614
# Velocity P-wave (km/s) = 7.08977 7.49456 7.29498
#
# Compressibility (1/GPa) = 0.01544908
#
# Stress axis : x y z
#
# Youngs Moduli (GPa) = 118.46223 118.46223 75.47760
#
# Poissons Ratio (x) = 0.39483 0.15128
# Poissons Ratio (y) = 0.39483 0.15128
# Poissons Ratio (z) = 0.23743 0.23743
#
# Static dielectric constant tensor:
#      x y z
#    x 5.076140 0.000000 0.000000 
#    y 0.000000 5.076140 0.000000 
#    z 0.000000 0.000000 4.052580 
# 
# 
# High freq. dielectric constant tensor:
#      x y z
#    x 1.894090 0.000000 0.000000 
#    y 0.000000 1.894090 0.000000 
#    z 0.000000 0.000000 1.877220 
# 
# From -- ./inp_files/3060.got.cif
#   From: 2010.03.12/outbox.cif.g09.slc.cpg/sg88_2_cif.got.tgz:3060.got - 2010.04.08 20:20:55.
