data_PCOD8304356
_publ_section_title
;
Structure prediction by ZEFSAII (Michael W. Deem and Ramdas Pophale) SiO2 
 PCOD8304356
Probable space group: I 41/A
;
_chemical_formula_sum "Si O2"
_cell_formula_units_Z 32
_cell_length_a 14.059829
_cell_length_b 14.059829
_cell_length_c 5.465396
_cell_angle_alpha 90.000000
_cell_angle_beta 90.000000
_cell_angle_gamma 90.000000
_cell_volume 1080.392876
_symmetry_space_group_name_H-M "I 41/A"
_symmetry_group_IT_number 88
_space_group.IT_coordinate_system_code '2'
_symmetry_cell_setting 'tetragonal'
loop_
_space_group_symop_operation_xyz
x,y,z
3/4-y,1/4+x,1/4+z
-x,1/2-y,z
1/4+y,1/4-x,1/4+z
-x,-y,-z
1/4+y,3/4-x,3/4-z
x,1/2+y,-z
3/4-y,3/4+x,3/4-z
1/2+x,1/2+y,1/2+z
1/4-y,3/4+x,3/4+z
1/2-x,-y,1/2+z
3/4+y,3/4-x,3/4+z
1/2-x,1/2-y,1/2-z
3/4+y,1/4-x,1/4-z
1/2+x,y,1/2-z
1/4-y,1/4+x,1/4-z
loop_
_atom_site_type_symbol
_atom_site_label
_atom_site_fract_x
_atom_site_fract_y
_atom_site_fract_z
Si Si1 0.994995 0.609414 0.791861
Si Si2 0.799493 0.634314 0.391153
O O1 0.904180 0.683456 0.753097
O O2 0.951789 0.503273 0.846455
O O3 0.054002 0.614632 0.539265
O O4 0.853722 0.542687 0.480128
#
# Coordination Sequence:
#
# PCOD8304356 Si02
#       2
#    16  16
#     4  10  24  41  64  94 132 175 222 274 334 397
#     4  11  24  42  68  99 134 178 226 277 338 404
#
# _framework density 29.618856999999998
#
# number of rings (size 3 to 8) (size 9 to 14) (size 15 to 20)
#    0.000    1.500    0.000    3.000    0.000   20.000 
#    0.000    0.000    0.000    0.000    0.000    0.000 
#    0.000    0.000    0.000    0.000    0.000    0.000 
#
# Total GULP energy -198283.391596 kJ/mol
# GULP energy per Si atom -12392.711975 kJ/mol
# Density = 2.955144 g / cm^3
# Si number density = 29.618857 Si / 1000 Ang^3
#
#
#
# Elastic Constant Matrix: (Units=GPa)
#
#
# Indices 1 2 3 4 5 6 
#
# 1 134.8631 45.2058 50.0427 0.0000 0.0000 -9.6375
# 2 45.2058 134.8631 50.0427 0.0000 0.0000 9.6375
# 3 50.0427 50.0427 79.3009 0.0000 0.0000 0.0000
# 4 0.0000 0.0000 0.0000 30.9905 0.0000 0.0000
# 5 0.0000 0.0000 0.0000 0.0000 30.9905 0.0000
# 6 -9.6375 9.6375 0.0000 0.0000 0.0000 82.8235
#
#
#
# Elastic Compliance Matrix: (Units=1/GPa)
#
#
# Indices 1 2 3 4 5 6 
#
# 1 0.009997 -0.001443 -0.005398 0.000000 0.000000 0.001331
# 2 -0.001443 0.009997 -0.005398 0.000000 0.000000 -0.001331
# 3 -0.005398 -0.005398 0.019423 0.000000 0.000000 0.000000
# 4 0.000000 0.000000 0.000000 0.032268 0.000000 0.000000
# 5 0.000000 0.000000 0.000000 0.000000 0.032268 0.000000
# 6 0.001331 -0.001331 0.000000 0.000000 0.000000 0.012384
#
#
# Mechanical properties :
#
#
# Convention : Reuss Voigt Hill
#
# Bulk Modulus (GPa) = 66.93928 71.06774 69.00351
# Shear Modulus (GPa) = 34.29538 42.54331 38.41934
#
# Velocity S-wave (km/s) = 3.40647 3.79404 3.60547
# Velocity P-wave (km/s) = 6.17425 6.57565 6.37811
#
# Compressibility (1/GPa) = 0.01493891
#
# Stress axis : x y z
#
# Youngs Moduli (GPa) = 100.03331 100.03331 51.48624
#
# Poissons Ratio (x) = 0.14436 0.27791
# Poissons Ratio (y) = 0.14436 0.27791
# Poissons Ratio (z) = 0.53995 0.53995
#
# Static dielectric constant tensor:
#      x y z
#    x 6.230620 0.000000 0.000000 
#    y 0.000000 6.230620 0.000000 
#    z 0.000000 0.000000 5.086200 
# 
# 
# High freq. dielectric constant tensor:
#      x y z
#    x 2.245830 0.000000 0.000000 
#    y 0.000000 2.245830 0.000000 
#    z 0.000000 0.000000 2.193060 
# 
# From -- ./inp_files/213.got.cif
#   From: 2010.03.12/outbox.cif.g09.slc.cpg/sg88_1_cif.got.tgz:213.got - 2010.04.08 20:20:55.
