data_PCOD8304580
_publ_section_title
;
Structure prediction by ZEFSAII (Michael W. Deem and Ramdas Pophale) SiO2 
 PCOD8304580
Probable space group: P 4 21 2
;
_chemical_formula_sum "Si O2"
_cell_formula_units_Z 44
_cell_length_a 14.120677
_cell_length_b 14.120677
_cell_length_c 11.122547
_cell_angle_alpha 90.000000
_cell_angle_beta 90.000000
_cell_angle_gamma 90.000000
_cell_volume 2217.763786
_symmetry_space_group_name_H-M "P 4 21 2"
_symmetry_group_IT_number 90
_symmetry_cell_setting 'tetragonal'
loop_
_space_group_symop_operation_xyz
x,y,z
1/2-y,1/2+x,z
-x,-y,z
1/2+y,1/2-x,z
1/2+x,1/2-y,-z
1/2-x,1/2+y,-z
y,x,-z
-y,-x,-z
loop_
_atom_site_type_symbol
_atom_site_label
_atom_site_fract_x
_atom_site_fract_y
_atom_site_fract_z
Si Si1 0.859253 0.560636 0.069951
Si Si2 0.448332 0.590923 0.638359
Si Si3 0.891432 0.761807 0.774705
Si Si4 0.229417 0.407738 0.817542
Si Si5 0.336876 0.436215 0.172353
Si Si6 0.889801 0.889801 0.000000
O O1 0.877076 0.450640 0.100316
O O2 0.770756 0.594059 0.148081
O O3 0.835984 0.579454 0.932452
O O4 0.500000 0.500000 0.700251
O O5 0.433390 0.566611 0.500000
O O6 0.347475 0.624580 0.684607
O O7 0.524259 0.667704 0.688713
O O8 0.811301 0.683192 0.746541
O O9 0.886480 0.797817 0.913284
O O10 0.994846 0.718429 0.743447
O O11 0.341220 0.398247 0.845496
O O12 0.381134 0.514868 0.080945
#
# Coordination Sequence:
#
# PCOD8304580 Si02
#       6
#     8   8   8   8   8   4
#     4  11  23  37  54  87 135 174 195 230 298 379
#     4  10  22  44  65  85 116 150 202 264 315 350
#     4  11  24  36  57  89 120 161 197 249 301 366
#     4  12  22  35  56  89 125 161 203 240 303 364
#     4  11  23  35  60  91 119 159 203 255 303 362
#     4  10  22  35  52  88 124 151 194 244 308 357
#
# _framework density 19.839803
#
# number of rings (size 3 to 8) (size 9 to 14) (size 15 to 20)
#    0.000    1.091    5.455    0.545    7.636    1.091 
#    0.000    1.818    0.000    0.000    0.000    0.000 
#    0.000    0.000    0.000    0.000    0.000    0.000 
#
# Total GULP energy -545084.657249 kJ/mol
# GULP energy per Si atom -12388.287665 kJ/mol
# Density = 1.979465 g / cm^3
# Si number density = 19.839803 Si / 1000 Ang^3
#
#
#
# Elastic Constant Matrix: (Units=GPa)
#
#
# Indices 1 2 3 4 5 6 
#
# 1 86.5737 28.3307 7.1209 0.0000 0.0000 0.0000
# 2 28.3307 86.5737 7.1210 0.0000 0.0000 0.0000
# 3 7.1209 7.1210 48.4280 0.0000 0.0000 0.0000
# 4 0.0000 0.0000 0.0000 16.2443 0.0000 0.0000
# 5 0.0000 0.0000 0.0000 0.0000 16.2444 0.0000
# 6 0.0000 0.0000 0.0000 0.0000 0.0000 36.2953
#
#
#
# Elastic Compliance Matrix: (Units=1/GPa)
#
#
# Indices 1 2 3 4 5 6 
#
# 1 0.013017 -0.004152 -0.001303 0.000000 0.000000 0.000000
# 2 -0.004152 0.013017 -0.001303 0.000000 0.000000 0.000000
# 3 -0.001303 -0.001303 0.021033 0.000000 0.000000 0.000000
# 4 0.000000 0.000000 0.000000 0.061560 0.000000 0.000000
# 5 0.000000 0.000000 0.000000 0.000000 0.061560 0.000000
# 6 0.000000 0.000000 0.000000 0.000000 0.000000 0.027552
#
#
# Mechanical properties :
#
#
# Convention : Reuss Voigt Hill
#
# Bulk Modulus (GPa) = 29.80837 34.08006 31.94422
# Shear Modulus (GPa) = 22.47806 25.69032 24.08419
#
# Velocity S-wave (km/s) = 3.36963 3.60236 3.48793
# Velocity P-wave (km/s) = 5.49512 5.87517 5.68832
#
# Compressibility (1/GPa) = 0.03354763
#
# Stress axis : x y z
#
# Youngs Moduli (GPa) = 76.82295 76.82294 47.54543
#
# Poissons Ratio (x) = 0.31901 0.06197
# Poissons Ratio (y) = 0.31901 0.06197
# Poissons Ratio (z) = 0.10013 0.10014
#
# Static dielectric constant tensor:
#      x y z
#    x 3.829300 0.000000 0.000000 
#    y 0.000000 3.829300 0.000000 
#    z 0.000000 0.000000 3.263770 
# 
# 
# High freq. dielectric constant tensor:
#      x y z
#    x 1.786580 0.000000 0.000000 
#    y 0.000000 1.786580 0.000000 
#    z 0.000000 0.000000 1.716380 
# 
# From -- ./inp_files/2058.got.cif
#   From: 2010.03.12/outbox.cif.g09.slc.cpg/sg90_2_cif.got.tgz:2058.got - 2010.04.08 20:26:03.
