data_PCOD8304131
_publ_section_title
;
Structure prediction by ZEFSAII (Michael W. Deem and Ramdas Pophale) SiO2 
 PCOD8304131
Probable space group: I 4/M
;
_chemical_formula_sum "Si O2"
_cell_formula_units_Z 96
_cell_length_a 14.835803
_cell_length_b 14.835803
_cell_length_c 19.657361
_cell_angle_alpha 90.000000
_cell_angle_beta 90.000000
_cell_angle_gamma 90.000000
_cell_volume 4326.605809
_symmetry_space_group_name_H-M "I 4/M"
_symmetry_group_IT_number 87
_symmetry_cell_setting 'tetragonal'
loop_
_space_group_symop_operation_xyz
x,y,z
-y,x,z
-x,-y,z
y,-x,z
-x,-y,-z
y,-x,-z
x,y,-z
-y,x,-z
1/2+x,1/2+y,1/2+z
1/2-y,1/2+x,1/2+z
1/2-x,1/2-y,1/2+z
1/2+y,1/2-x,1/2+z
1/2-x,1/2-y,1/2-z
1/2+y,1/2-x,1/2-z
1/2+x,1/2+y,1/2-z
1/2-y,1/2+x,1/2-z
loop_
_atom_site_type_symbol
_atom_site_label
_atom_site_fract_x
_atom_site_fract_y
_atom_site_fract_z
Si Si1 0.616806 0.407635 0.500000
Si Si2 0.666771 0.920152 0.827822
Si Si3 0.542441 0.637109 0.767655
Si Si4 0.633140 0.126642 0.175830
Si Si5 0.971444 0.852521 0.500000
Si Si6 0.281223 0.962361 0.375097
Si Si7 0.348976 0.327238 0.355307
O O1 0.624994 0.514573 0.500000
O O2 0.667290 0.368386 0.434844
O O3 0.630102 0.902118 0.752496
O O4 0.612819 0.859056 0.882552
O O5 0.772235 0.897010 0.831864
O O6 0.649220 0.023599 0.847116
O O7 0.441878 0.610520 0.789842
O O8 0.563304 0.730564 0.804638
O O9 0.559139 0.650070 0.686775
O O10 0.559923 0.172388 0.126597
O O11 0.725846 0.181803 0.164129
O O12 0.956994 0.790717 0.434722
O O13 0.070407 0.895708 0.500000
#
# Coordination Sequence:
#
# PCOD8304131 Si02
#       7
#     8  16  16  16   8  16  16
#     4  11  24  44  68  96 140 186 225 292 376 440
#     4  12  25  43  73 106 145 191 243 306 371 453
#     4  11  22  39  66 101 137 175 236 311 370 438
#     4  12  24  45  71 106 147 188 236 309 376 439
#     4  11  28  52  77 108 156 206 253 316 386 449
#     4  12  26  43  74 104 144 194 249 303 376 451
#     4  12  25  42  69 104 141 190 248 303 368 454
#
# _framework density 22.188295
#
# number of rings (size 3 to 8) (size 9 to 14) (size 15 to 20)
#    0.000    0.333    3.333    6.000    4.667    4.000 
#    0.000    3.333    0.000    0.000    0.000    0.000 
#    0.000    0.000    0.000    0.000    0.000    0.000 
#
# Total GULP energy -595349.226316 kJ/mol
# GULP energy per Si atom -12403.108882 kJ/mol
# Density = 2.213779 g / cm^3
# Si number density = 22.188295 Si / 1000 Ang^3
#
#
#
# Elastic Constant Matrix: (Units=GPa)
#
#
# Indices 1 2 3 4 5 6 
#
# 1 107.8801 44.1595 37.4116 0.0000 0.0000 3.3958
# 2 44.1595 107.8801 37.4116 0.0000 0.0000 -3.3958
# 3 37.4116 37.4116 96.0491 0.0000 0.0000 0.0000
# 4 0.0000 0.0000 0.0000 31.2633 0.0000 0.0000
# 5 0.0000 0.0000 0.0000 0.0000 31.2633 0.0000
# 6 3.3958 -3.3958 0.0000 0.0000 0.0000 40.4986
#
#
#
# Elastic Compliance Matrix: (Units=1/GPa)
#
#
# Indices 1 2 3 4 5 6 
#
# 1 0.011986 -0.003849 -0.003169 0.000000 0.000000 -0.001328
# 2 -0.003849 0.011986 -0.003169 0.000000 0.000000 0.001328
# 3 -0.003169 -0.003169 0.012880 0.000000 0.000000 0.000000
# 4 0.000000 0.000000 0.000000 0.031986 0.000000 0.000000
# 5 0.000000 0.000000 0.000000 0.000000 0.031986 0.000000
# 6 -0.001328 0.001328 0.000000 0.000000 0.000000 0.024915
#
#
# Mechanical properties :
#
#
# Convention : Reuss Voigt Hill
#
# Bulk Modulus (GPa) = 60.69171 61.08610 60.88891
# Shear Modulus (GPa) = 32.97983 33.46016 33.22000
#
# Velocity S-wave (km/s) = 3.85952 3.88752 3.87355
# Velocity P-wave (km/s) = 6.87558 6.90949 6.89255
#
# Compressibility (1/GPa) = 0.01647671
#
# Stress axis : x y z
#
# Youngs Moduli (GPa) = 83.43059 83.43060 77.63776
#
# Poissons Ratio (x) = 0.32113 0.24606
# Poissons Ratio (y) = 0.32113 0.24607
# Poissons Ratio (z) = 0.26442 0.26442
#
# Static dielectric constant tensor:
#      x y z
#    x 4.230800 0.000000 0.000000 
#    y 0.000000 4.230800 0.000000 
#    z 0.000000 0.000000 3.828920 
# 
# 
# High freq. dielectric constant tensor:
#      x y z
#    x 1.890300 0.000000 0.000000 
#    y 0.000000 1.890300 0.000000 
#    z 0.000000 0.000000 1.845620 
# 
# From -- ./inp_files/5363.got.cif
#   From: 2010.03.12/outbox.cif.g09.slc.cpg/sg87_3_cif.got.tgz:5363.got - 2010.04.08 20:16:13.
