data_PCOD8304879
_publ_section_title
;
Structure prediction by ZEFSAII (Michael W. Deem and Ramdas Pophale) SiO2 
 PCOD8304879
Probable space group: P 41 2 2
;
_chemical_formula_sum "Si O2"
_cell_formula_units_Z 64
_cell_length_a 11.707902
_cell_length_b 11.707902
_cell_length_c 24.227526
_cell_angle_alpha 90.000000
_cell_angle_beta 90.000000
_cell_angle_gamma 90.000000
_cell_volume 3320.987381
_symmetry_space_group_name_H-M "P 41 2 2"
_symmetry_group_IT_number 91
_symmetry_cell_setting 'tetragonal'
loop_
_space_group_symop_operation_xyz
x,y,z
-y,x,1/4+z
-x,-y,1/2+z
y,-x,3/4+z
x,-y,1/2-z
-x,y,-z
y,x,3/4-z
-y,-x,1/4-z
loop_
_atom_site_type_symbol
_atom_site_label
_atom_site_fract_x
_atom_site_fract_y
_atom_site_fract_z
Si Si1 0.090274 0.681891 0.768882
Si Si2 0.454840 0.055961 0.912827
Si Si3 0.443683 0.166527 0.382739
Si Si4 0.121236 0.791684 0.183002
Si Si5 0.499256 0.240651 0.173301
Si Si6 0.340366 0.869136 0.235632
Si Si7 0.384524 0.566152 0.384876
Si Si8 0.338263 0.365261 0.746897
O O1 0.055321 0.648635 0.706331
O O2 0.081069 0.575738 0.809578
O O3 0.225451 0.712123 0.764890
O O4 0.010392 0.786154 0.792996
O O5 0.435695 0.144854 0.862794
O O6 0.460021 0.929978 0.887406
O O7 0.340202 0.155119 0.425367
O O8 0.393291 0.165819 0.322126
O O9 0.505218 0.284169 0.398836
O O10 0.135529 0.864472 0.125000
O O11 0.204797 0.839386 0.231034
O O12 0.412511 0.194419 0.218530
O O13 0.411192 0.306420 0.134109
O O14 0.598920 0.321525 0.197996
O O15 0.351993 0.000000 0.250000
O O16 0.499565 0.499565 0.375000
O O17 0.347423 0.569980 0.448641
O O18 0.303245 0.500000 0.750000
#
# Coordination Sequence:
#
# PCOD8304879 Si02
#       8
#     8   8   8   8   8   8   8   8
#     4  10  20  38  60  83 116 161 210 245 299 378
#     4  10  20  37  58  82 116 162 211 242 292 375
#     4  10  21  38  56  85 123 160 196 254 311 375
#     4   9  21  38  62  88 115 152 201 267 322 363
#     4  12  24  35  59  90 125 168 205 254 308 371
#     4  11  21  38  60  87 120 154 205 257 323 370
#     4  12  23  35  54  86 131 160 194 249 316 374
#     4  12  22  37  57  89 128 170 209 249 309 390
#
# _framework density 19.271377000000001
#
# number of rings (size 3 to 8) (size 9 to 14) (size 15 to 20)
#    0.000    1.250    6.250    1.125    1.750    0.000 
#    0.000    0.000    0.000    2.250    3.250    0.000 
#    0.000    0.000    0.000    0.000    0.000    0.000 
#
# Total GULP energy -793146.737042 kJ/mol
# GULP energy per Si atom -12392.917766 kJ/mol
# Density = 1.922751 g / cm^3
# Si number density = 19.271377 Si / 1000 Ang^3
#
#
#
# Elastic Constant Matrix: (Units=GPa)
#
#
# Indices 1 2 3 4 5 6 
#
# 1 472.1660 -374.8000 19.4948 0.0000 0.0000 0.0000
# 2 -374.8000 472.1606 19.4860 0.0000 0.0000 0.0000
# 3 19.4948 19.4860 64.4871 0.0000 0.0000 0.0000
# 4 0.0000 0.0000 0.0000 28.7295 0.0000 0.0000
# 5 0.0000 0.0000 0.0000 0.0000 28.7294 0.0000
# 6 0.0000 0.0000 0.0000 0.0000 0.0000 20.7971
#
#
#
# Elastic Compliance Matrix: (Units=1/GPa)
#
#
# Indices 1 2 3 4 5 6 
#
# 1 0.006433 0.005252 -0.003532 0.000000 0.000000 0.000000
# 2 0.005252 0.006433 -0.003531 0.000000 0.000000 0.000000
# 3 -0.003532 -0.003531 0.017642 0.000000 0.000000 0.000000
# 4 0.000000 0.000000 0.000000 0.034807 0.000000 0.000000
# 5 0.000000 0.000000 0.000000 0.000000 0.034807 0.000000
# 6 0.000000 0.000000 0.000000 0.000000 0.000000 0.048084
#
#
# Mechanical properties :
#
#
# Convention : Reuss Voigt Hill
#
# Bulk Modulus (GPa) = 37.19557 37.46392 37.32974
# Shear Modulus (GPa) = 31.09653 105.29339 68.19496
#
# Velocity S-wave (km/s) = 4.02134 7.39972 5.95512
# Velocity P-wave (km/s) = 6.39565 9.61718 8.16684
#
# Compressibility (1/GPa) = 0.02688493
#
# Stress axis : x y z
#
# Youngs Moduli (GPa) = 155.45562 155.45561 56.68384
#
# Poissons Ratio (x) = -0.81646 0.20019
# Poissons Ratio (y) = -0.81646 0.20018
# Poissons Ratio (z) = 0.54901 0.54899
#
# Static dielectric constant tensor:
#      x y z
#    x 3.541460 0.000000 0.000000 
#    y 0.000000 3.541460 0.000000 
#    z 0.000000 0.000000 3.641690 
# 
# 
# High freq. dielectric constant tensor:
#      x y z
#    x 1.734250 0.000000 0.000000 
#    y 0.000000 1.734250 0.000000 
#    z 0.000000 0.000000 1.755890 
# 
# From -- ./inp_files/17674.got.cif
#   From: 2010.03.12/outbox.cif.g09.slc.cpg/sg91_9_cif.got.tgz:17674.got - 2010.04.08 20:27:58.
