data_PCOD8304080
_publ_section_title
;
Structure prediction by ZEFSAII (Michael W. Deem and Ramdas Pophale) SiO2 
 PCOD8304080
Probable space group: I 4/M
;
_chemical_formula_sum "Si O2"
_cell_formula_units_Z 72
_cell_length_a 20.759444
_cell_length_b 20.759444
_cell_length_c 7.894362
_cell_angle_alpha 90.000000
_cell_angle_beta 90.000000
_cell_angle_gamma 90.000000
_cell_volume 3402.110948
_symmetry_space_group_name_H-M "I 4/M"
_symmetry_group_IT_number 87
_symmetry_cell_setting 'tetragonal'
loop_
_space_group_symop_operation_xyz
x,y,z
-y,x,z
-x,-y,z
y,-x,z
-x,-y,-z
y,-x,-z
x,y,-z
-y,x,-z
1/2+x,1/2+y,1/2+z
1/2-y,1/2+x,1/2+z
1/2-x,1/2-y,1/2+z
1/2+y,1/2-x,1/2+z
1/2-x,1/2-y,1/2-z
1/2+y,1/2-x,1/2-z
1/2+x,1/2+y,1/2-z
1/2-y,1/2+x,1/2-z
loop_
_atom_site_type_symbol
_atom_site_label
_atom_site_fract_x
_atom_site_fract_y
_atom_site_fract_z
Si Si1 0.093494 0.657114 0.698457
Si Si2 0.531533 0.601747 0.000000
Si Si3 0.685056 0.049021 0.306937
Si Si4 0.775997 0.818964 0.302682
Si Si5 0.083609 0.178453 0.187927
O O1 0.099383 0.643118 0.500000
O O2 0.126114 0.598407 0.796642
O O3 0.127633 0.723909 0.747226
O O4 0.020060 0.661423 0.761008
O O5 0.457827 0.580127 0.000000
O O6 0.541459 0.642949 0.829911
O O7 0.708382 0.042333 0.500000
O O8 0.744742 0.074568 0.198380
O O9 0.792627 0.818998 0.500000
O O10 0.750000 0.750000 0.250000
O O11 0.840977 0.837074 0.205487
O O12 0.061747 0.155670 0.000000
#
# Coordination Sequence:
#
# PCOD8304080 Si02
#       5
#    16   8  16  16  16
#     4  10  24  41  64  94 132 181 229 282 347 412
#     4  11  28  52  74 100 144 185 225 281 343 411
#     4  11  23  42  65  95 137 182 228 286 347 408
#     4  11  21  38  64  98 136 172 223 287 347 401
#     4  12  25  43  72 105 139 177 232 285 341 411
#
# _framework density 21.163330999999999
#
# number of rings (size 3 to 8) (size 9 to 14) (size 15 to 20)
#    0.000    1.000    4.444    1.333    3.111    4.000 
#    0.000    3.333    0.000    0.000    0.000    0.000 
#    0.000    0.000    0.000    0.000    0.000    0.000 
#
# Total GULP energy -446631.551944 kJ/mol
# GULP energy per Si atom -12406.431998 kJ/mol
# Density = 2.111516 g / cm^3
# Si number density = 21.163331 Si / 1000 Ang^3
#
#
#
# Elastic Constant Matrix: (Units=GPa)
#
#
# Indices 1 2 3 4 5 6 
#
# 1 119.5776 43.7439 40.2097 0.0000 0.0000 -6.7419
# 2 43.7439 119.5776 40.2097 0.0000 0.0000 6.7419
# 3 40.2097 40.2097 116.4236 0.0000 0.0000 0.0000
# 4 0.0000 0.0000 0.0000 26.0309 0.0000 0.0000
# 5 0.0000 0.0000 0.0000 0.0000 26.0309 0.0000
# 6 -6.7419 6.7419 0.0000 0.0000 0.0000 28.0350
#
#
#
# Elastic Compliance Matrix: (Units=1/GPa)
#
#
# Indices 1 2 3 4 5 6 
#
# 1 0.010577 -0.003199 -0.002548 0.000000 0.000000 0.003313
# 2 -0.003199 0.010577 -0.002548 0.000000 0.000000 -0.003313
# 3 -0.002548 -0.002548 0.010349 0.000000 0.000000 0.000000
# 4 0.000000 0.000000 0.000000 0.038416 0.000000 0.000000
# 5 0.000000 0.000000 0.000000 0.000000 0.038416 0.000000
# 6 0.003313 -0.003313 0.000000 0.000000 0.000000 0.037263
#
#
# Mechanical properties :
#
#
# Convention : Reuss Voigt Hill
#
# Bulk Modulus (GPa) = 67.05838 67.10062 67.07950
# Shear Modulus (GPa) = 29.91172 31.44706 30.67939
#
# Velocity S-wave (km/s) = 3.76357 3.85895 3.81156
# Velocity P-wave (km/s) = 7.11624 7.18542 7.15091
#
# Compressibility (1/GPa) = 0.01491238
#
# Stress axis : x y z
#
# Youngs Moduli (GPa) = 94.54774 94.54774 96.62440
#
# Poissons Ratio (x) = 0.30247 0.24620
# Poissons Ratio (y) = 0.30247 0.24620
# Poissons Ratio (z) = 0.24091 0.24091
#
# Static dielectric constant tensor:
#      x y z
#    x 3.871370 0.000000 0.000000 
#    y 0.000000 3.871370 0.000000 
#    z 0.000000 0.000000 3.804720 
# 
# 
# High freq. dielectric constant tensor:
#      x y z
#    x 1.832280 0.000000 0.000000 
#    y 0.000000 1.832280 0.000000 
#    z 0.000000 0.000000 1.832030 
# 
# From -- ./inp_files/1035.got.cif
#   From: 2010.03.12/outbox.cif.g09.slc.cpg/sg87_1_cif.got.tgz:1035.got - 2010.04.08 20:16:13.
