data_PCOD8304203
_publ_section_title
;
Structure prediction by ZEFSAII (Michael W. Deem and Ramdas Pophale) SiO2 
 PCOD8304203
Probable space group: I 41/A
;
_chemical_formula_sum "Si O2"
_cell_formula_units_Z 80
_cell_length_a 10.583387
_cell_length_b 10.583387
_cell_length_c 37.200755
_cell_angle_alpha 90.000000
_cell_angle_beta 90.000000
_cell_angle_gamma 90.000000
_cell_volume 4166.785157
_symmetry_space_group_name_H-M "I 41/A"
_symmetry_group_IT_number 88
_space_group.IT_coordinate_system_code '2'
_symmetry_cell_setting 'tetragonal'
loop_
_space_group_symop_operation_xyz
x,y,z
3/4-y,1/4+x,1/4+z
-x,1/2-y,z
1/4+y,1/4-x,1/4+z
-x,-y,-z
1/4+y,3/4-x,3/4-z
x,1/2+y,-z
3/4-y,3/4+x,3/4-z
1/2+x,1/2+y,1/2+z
1/4-y,3/4+x,3/4+z
1/2-x,-y,1/2+z
3/4+y,3/4-x,3/4+z
1/2-x,1/2-y,1/2-z
3/4+y,1/4-x,1/4-z
1/2+x,y,1/2-z
1/4-y,1/4+x,1/4-z
loop_
_atom_site_type_symbol
_atom_site_label
_atom_site_fract_x
_atom_site_fract_y
_atom_site_fract_z
Si Si1 0.289265 0.969748 0.363164
Si Si2 0.524508 0.098594 0.149119
Si Si3 0.426318 0.127673 0.223448
Si Si4 0.812269 0.822019 0.949493
Si Si5 0.082577 0.426217 0.069084
O O1 0.266524 0.826116 0.376259
O O2 0.353623 0.957735 0.323733
O O3 0.390007 0.032420 0.390229
O O4 0.162097 0.053321 0.363026
O O5 0.500000 0.250000 0.144084
O O6 0.508447 0.064158 0.191535
O O7 0.500000 0.250000 0.238993
O O8 0.403617 0.038465 0.258072
O O9 0.292335 0.167099 0.208064
O O10 0.808812 0.671600 0.943197
O O11 0.943465 0.871028 0.932941
#
# Coordination Sequence:
#
# PCOD8304203 Si02
#       5
#    16  16  16  16  16
#     4  11  22  37  57  83 112 158 196 249 288 353
#     4  10  22  39  60  85 121 150 201 242 302 353
#     4  10  19  32  50  83 119 153 181 234 299 373
#     4  11  19  29  54  82 116 146 186 237 306 350
#     4  10  20  31  50  81 117 144 191 239 296 356
#
# _framework density 19.199455
#
# number of rings (size 3 to 8) (size 9 to 14) (size 15 to 20)
#    0.000    1.600    2.000    6.600    2.800    2.000 
#    0.000    0.000    0.000    4.800   10.400    0.000 
#    0.000    0.000    0.000    0.000    0.000    0.000 
#
# Total GULP energy -495788.106592 kJ/mol
# GULP energy per Si atom -12394.702665 kJ/mol
# Density = 1.915576 g / cm^3
# Si number density = 19.199455 Si / 1000 Ang^3
#
#
#
# Elastic Constant Matrix: (Units=GPa)
#
#
# Indices 1 2 3 4 5 6 
#
# 1 70.8724 21.5004 34.9935 0.0000 0.0000 3.3284
# 2 21.5004 70.8724 34.9935 0.0000 0.0000 -3.3284
# 3 34.9935 34.9935 147.3961 0.0000 0.0000 0.0000
# 4 0.0000 0.0000 0.0000 17.5885 0.0000 0.0000
# 5 0.0000 0.0000 0.0000 0.0000 17.5885 0.0000
# 6 3.3284 -3.3284 0.0000 0.0000 0.0000 22.8242
#
#
#
# Elastic Compliance Matrix: (Units=1/GPa)
#
#
# Indices 1 2 3 4 5 6 
#
# 1 0.016930 -0.003730 -0.003134 0.000000 0.000000 -0.003013
# 2 -0.003730 0.016930 -0.003134 0.000000 0.000000 0.003013
# 3 -0.003134 -0.003134 0.008272 0.000000 0.000000 0.000000
# 4 0.000000 0.000000 0.000000 0.056855 0.000000 0.000000
# 5 0.000000 0.000000 0.000000 0.000000 0.056855 0.000000
# 6 -0.003013 0.003013 0.000000 0.000000 0.000000 0.044692
#
#
# Mechanical properties :
#
#
# Convention : Reuss Voigt Hill
#
# Bulk Modulus (GPa) = 45.17277 52.45731 48.81504
# Shear Modulus (GPa) = 21.93844 24.77716 23.35780
#
# Velocity S-wave (km/s) = 3.38399 3.59627 3.49174
# Velocity P-wave (km/s) = 6.23280 6.68025 6.46040
#
# Compressibility (1/GPa) = 0.02213723
#
# Stress axis : x y z
#
# Youngs Moduli (GPa) = 59.06555 59.06555 120.88297
#
# Poissons Ratio (x) = 0.22033 0.37883
# Poissons Ratio (y) = 0.22033 0.37883
# Poissons Ratio (z) = 0.18510 0.18510
#
# Static dielectric constant tensor:
#      x y z
#    x 3.467900 0.000000 0.000000 
#    y 0.000000 3.467900 0.000000 
#    z 0.000000 0.000000 3.766610 
# 
# 
# High freq. dielectric constant tensor:
#      x y z
#    x 1.720800 0.000000 0.000000 
#    y 0.000000 1.720800 0.000000 
#    z 0.000000 0.000000 1.762190 
# 
# From -- ./inp_files/6300.got.cif
#   From: 2010.03.12/outbox.cif.g09.slc.cpg/sg88_4_cif.got.tgz:6300.got - 2010.04.08 20:20:55.
