data_PCOD8304867
_publ_section_title
;
Structure prediction by ZEFSAII (Michael W. Deem and Ramdas Pophale) SiO2 
 PCOD8304867
Probable space group: P 41 2 2
;
_chemical_formula_sum "Si O2"
_cell_formula_units_Z 64
_cell_length_a 11.771562
_cell_length_b 11.771562
_cell_length_c 24.804000
_cell_angle_alpha 90.000000
_cell_angle_beta 90.000000
_cell_angle_gamma 90.000000
_cell_volume 3437.082142
_symmetry_space_group_name_H-M "P 41 2 2"
_symmetry_group_IT_number 91
_symmetry_cell_setting 'tetragonal'
loop_
_space_group_symop_operation_xyz
x,y,z
-y,x,1/4+z
-x,-y,1/2+z
y,-x,3/4+z
x,-y,1/2-z
-x,y,-z
y,x,3/4-z
-y,-x,1/4-z
loop_
_atom_site_type_symbol
_atom_site_label
_atom_site_fract_x
_atom_site_fract_y
_atom_site_fract_z
Si Si1 0.975142 0.341928 0.441241
Si Si2 0.668724 0.846185 0.894155
Si Si3 0.992756 0.610918 0.440830
Si Si4 0.258819 0.627242 0.574700
Si Si5 0.224374 0.629057 0.765615
Si Si6 0.601191 0.162614 0.396432
Si Si7 0.627494 0.741534 0.643298
Si Si8 0.635481 0.968195 0.000875
O O1 0.993939 0.475828 0.442794
O O2 0.848725 0.313580 0.421978
O O3 0.000000 0.288669 0.500000
O O4 0.061489 0.287331 0.398658
O O5 0.729236 0.729236 0.875000
O O6 0.533817 0.833392 0.894065
O O7 0.696460 0.893270 0.954081
O O8 0.874216 0.651167 0.415204
O O9 0.000000 0.664657 0.500000
O O10 0.102645 0.651295 0.407348
O O11 0.319907 0.680094 0.625000
O O12 0.299696 0.679839 0.517403
O O13 0.283916 0.492501 0.577819
O O14 0.238322 0.500000 0.750000
O O15 0.240415 0.626553 0.829481
O O16 0.098967 0.677874 0.751700
O O17 0.633983 0.293191 0.403731
O O18 0.663444 0.089350 0.442523
O O19 0.500000 0.967648 0.000000
#
# Coordination Sequence:
#
# PCOD8304867 Si02
#       8
#     8   8   8   8   8   8   8   8
#     4   9  19  35  57  80 107 146 196 240 276 334
#     4  10  20  36  58  83 111 148 195 235 285 343
#     4   9  18  35  55  79 108 144 195 237 271 332
#     4  11  21  34  58  90 115 150 192 235 292 350
#     4  11  20  37  60  84 118 157 196 243 293 352
#     4  10  21  36  56  84 116 153 188 236 293 345
#     4  11  22  37  57  88 122 152 191 238 300 357
#     4   9  19  36  58  80 109 152 202 239 274 345
#
# _framework density 18.620445
#
# number of rings (size 3 to 8) (size 9 to 14) (size 15 to 20)
#    0.000    2.000    2.500    1.500    5.250    1.500 
#    0.000    0.625    0.000    2.250    3.250    0.000 
#    0.000    0.000    0.000    0.000    0.000    0.000 
#
# Total GULP energy -793021.050773 kJ/mol
# GULP energy per Si atom -12390.953918 kJ/mol
# Density = 1.857806 g / cm^3
# Si number density = 18.620445 Si / 1000 Ang^3
#
#
#
# Elastic Constant Matrix: (Units=GPa)
#
#
# Indices 1 2 3 4 5 6 
#
# 1 78.3397 39.4518 38.8779 0.0000 0.0000 0.0000
# 2 39.4518 78.3400 38.8786 0.0000 0.0000 0.0000
# 3 38.8779 38.8786 135.4912 0.0000 0.0000 0.0000
# 4 0.0000 0.0000 0.0000 16.9506 0.0000 0.0000
# 5 0.0000 0.0000 0.0000 0.0000 16.9490 0.0000
# 6 0.0000 0.0000 0.0000 0.0000 0.0000 8.1937
#
#
#
# Elastic Compliance Matrix: (Units=1/GPa)
#
#
# Indices 1 2 3 4 5 6 
#
# 1 0.018094 -0.007621 -0.003005 0.000000 0.000000 0.000000
# 2 -0.007621 0.018094 -0.003005 0.000000 0.000000 0.000000
# 3 -0.003005 -0.003005 0.009105 0.000000 0.000000 0.000000
# 4 0.000000 0.000000 0.000000 0.058995 0.000000 0.000000
# 5 0.000000 0.000000 0.000000 0.000000 0.059001 0.000000
# 6 0.000000 0.000000 0.000000 0.000000 0.000000 0.122045
#
#
# Mechanical properties :
#
#
# Convention : Reuss Voigt Hill
#
# Bulk Modulus (GPa) = 55.46013 58.50969 56.98491
# Shear Modulus (GPa) = 15.69330 20.08283 17.88807
#
# Velocity S-wave (km/s) = 2.90625 3.28767 3.10283
# Velocity P-wave (km/s) = 6.41178 6.77512 6.59595
#
# Compressibility (1/GPa) = 0.01803097
#
# Stress axis : x y z
#
# Youngs Moduli (GPa) = 55.26662 55.26653 109.82695
#
# Poissons Ratio (x) = 0.42117 0.33005
# Poissons Ratio (y) = 0.42117 0.33007
# Poissons Ratio (z) = 0.16609 0.16609
#
# Static dielectric constant tensor:
#      x y z
#    x 3.450830 0.000000 0.000000 
#    y 0.000000 3.450870 0.000000 
#    z 0.000000 0.000000 3.682490 
# 
# 
# High freq. dielectric constant tensor:
#      x y z
#    x 1.700770 0.000000 0.000000 
#    y 0.000000 1.700770 0.000000 
#    z 0.000000 0.000000 1.744300 
# 
# From -- ./inp_files/12941.got.cif
#   From: 2010.03.12/outbox.cif.g09.slc.cpg/sg91_7_cif.got.tgz:12941.got - 2010.04.08 20:27:58.
