data_PCOD8304239
_publ_section_title
;
Structure prediction by ZEFSAII (Michael W. Deem and Ramdas Pophale) SiO2 
 PCOD8304239
Probable space group: I 41/A
;
_chemical_formula_sum "Si O2"
_cell_formula_units_Z 64
_cell_length_a 14.052587
_cell_length_b 14.052587
_cell_length_c 15.587310
_cell_angle_alpha 90.000000
_cell_angle_beta 90.000000
_cell_angle_gamma 90.000000
_cell_volume 3078.107181
_symmetry_space_group_name_H-M "I 41/A"
_symmetry_group_IT_number 88
_space_group.IT_coordinate_system_code '2'
_symmetry_cell_setting 'tetragonal'
loop_
_space_group_symop_operation_xyz
x,y,z
3/4-y,1/4+x,1/4+z
-x,1/2-y,z
1/4+y,1/4-x,1/4+z
-x,-y,-z
1/4+y,3/4-x,3/4-z
x,1/2+y,-z
3/4-y,3/4+x,3/4-z
1/2+x,1/2+y,1/2+z
1/4-y,3/4+x,3/4+z
1/2-x,-y,1/2+z
3/4+y,3/4-x,3/4+z
1/2-x,1/2-y,1/2-z
3/4+y,1/4-x,1/4-z
1/2+x,y,1/2-z
1/4-y,1/4+x,1/4-z
loop_
_atom_site_type_symbol
_atom_site_label
_atom_site_fract_x
_atom_site_fract_y
_atom_site_fract_z
Si Si1 0.380929 0.346574 0.877506
Si Si2 0.687236 0.876014 0.802099
Si Si3 0.624959 0.233594 0.330165
Si Si4 0.729255 0.573424 0.278034
O O1 0.486689 0.374524 0.845549
O O2 0.308461 0.364994 0.800250
O O3 0.349050 0.409526 0.959188
O O4 0.616289 0.804375 0.752327
O O5 0.772281 0.811080 0.836768
O O6 0.641706 0.923693 0.886235
O O7 0.720694 0.959789 0.737238
O O8 0.546055 0.148865 0.332782
#
# Coordination Sequence:
#
# PCOD8304239 Si02
#       4
#    16  16  16  16
#     4  10  22  42  65  90 126 161 211 260 308 383
#     4  10  20  38  59  87 127 165 210 261 320 384
#     4  10  20  36  58  87 125 164 210 263 320 380
#     4  10  21  40  63  92 122 169 209 258 320 372
#
# _framework density 20.792000000000002
#
# number of rings (size 3 to 8) (size 9 to 14) (size 15 to 20)
#    0.000    2.000    2.500    0.750    0.000    2.000 
#    9.000    5.000    0.000    0.000    0.000    0.000 
#    0.000    0.000    0.000    0.000    0.000    0.000 
#
# Total GULP energy -396497.318225 kJ/mol
# GULP energy per Si atom -12390.541195 kJ/mol
# Density = 2.074468 g / cm^3
# Si number density = 20.792000 Si / 1000 Ang^3
#
#
#
# Elastic Constant Matrix: (Units=GPa)
#
#
# Indices 1 2 3 4 5 6 
#
# 1 80.2648 28.9550 38.2311 0.0000 0.0000 2.4611
# 2 28.9550 80.2648 38.2311 0.0000 0.0000 -2.4611
# 3 38.2311 38.2311 78.5829 0.0000 0.0000 0.0000
# 4 0.0000 0.0000 0.0000 33.4287 0.0000 0.0000
# 5 0.0000 0.0000 0.0000 0.0000 33.4288 0.0000
# 6 2.4611 -2.4611 0.0000 0.0000 0.0000 41.7923
#
#
#
# Elastic Compliance Matrix: (Units=1/GPa)
#
#
# Indices 1 2 3 4 5 6 
#
# 1 0.016743 -0.002858 -0.006755 0.000000 0.000000 -0.001154
# 2 -0.002858 0.016743 -0.006755 0.000000 0.000000 0.001154
# 3 -0.006755 -0.006755 0.019298 0.000000 0.000000 0.000000
# 4 0.000000 0.000000 0.000000 0.029914 0.000000 0.000000
# 5 0.000000 0.000000 0.000000 0.000000 0.029914 0.000000
# 6 -0.001154 0.001154 0.000000 0.000000 0.000000 0.024064
#
#
# Mechanical properties :
#
#
# Convention : Reuss Voigt Hill
#
# Bulk Modulus (GPa) = 49.88116 49.99411 49.93763
# Shear Modulus (GPa) = 28.39390 30.64299 29.51844
#
# Velocity S-wave (km/s) = 3.69943 3.84316 3.77198
# Velocity P-wave (km/s) = 6.50311 6.61742 6.56051
#
# Compressibility (1/GPa) = 0.02004765
#
# Stress axis : x y z
#
# Youngs Moduli (GPa) = 59.72803 59.72802 51.81819
#
# Poissons Ratio (x) = 0.17068 0.35004
# Poissons Ratio (y) = 0.17068 0.35004
# Poissons Ratio (z) = 0.40347 0.40347
#
# Static dielectric constant tensor:
#      x y z
#    x 3.944550 0.000000 0.000000 
#    y 0.000000 3.944550 0.000000 
#    z 0.000000 0.000000 3.640680 
# 
# 
# High freq. dielectric constant tensor:
#      x y z
#    x 1.817440 0.000000 0.000000 
#    y 0.000000 1.817440 0.000000 
#    z 0.000000 0.000000 1.793520 
# 
# From -- ./inp_files/3047.got.cif
#   From: 2010.03.12/outbox.cif.g09.slc.cpg/sg88_2_cif.got.tgz:3047.got - 2010.04.08 20:20:55.
