data_PCOD8304513
_publ_section_title
;
Structure prediction by ZEFSAII (Michael W. Deem and Ramdas Pophale) SiO2 
 PCOD8304513
Probable space group: P 4 2 2
;
_chemical_formula_sum "Si O2"
_cell_formula_units_Z 48
_cell_length_a 8.867217
_cell_length_b 8.867217
_cell_length_c 31.332679
_cell_angle_alpha 90.000000
_cell_angle_beta 90.000000
_cell_angle_gamma 90.000000
_cell_volume 2463.611388
_symmetry_space_group_name_H-M "P 4 2 2"
_symmetry_group_IT_number 89
_symmetry_cell_setting 'tetragonal'
loop_
_space_group_symop_operation_xyz
x,y,z
-y,x,z
-x,-y,z
y,-x,z
x,-y,-z
-x,y,-z
y,x,-z
-y,-x,-z
loop_
_atom_site_type_symbol
_atom_site_label
_atom_site_fract_x
_atom_site_fract_y
_atom_site_fract_z
Si Si1 0.024143 0.244786 0.047776
Si Si2 0.177426 0.177426 0.500000
Si Si3 0.264514 0.430698 0.829922
Si Si4 0.345022 0.696857 0.581973
Si Si5 0.213485 0.870506 0.661349
Si Si6 0.394348 0.721698 0.732475
Si Si7 0.000000 0.500000 0.888650
O O1 0.069101 0.375457 0.080373
O O2 0.867338 0.161488 0.055912
O O3 0.000000 0.309065 0.000000
O O4 0.236507 0.267993 0.540356
O O5 0.000000 0.210039 0.500000
O O6 0.399131 0.316419 0.839881
O O7 0.221089 0.393558 0.781184
O O8 0.119912 0.409260 0.859632
O O9 0.291369 0.524914 0.583068
O O10 0.297868 0.799171 0.621502
O O11 0.312786 0.845262 0.703749
O O12 0.049792 0.795854 0.660271
O O13 0.303647 0.569046 0.721982
#
# Coordination Sequence:
#
# PCOD8304513 Si02
#       7
#     8   4   8   8   8   8   4
#     4   9  19  35  52  74 108 146 184 229 280 337
#     4  11  24  41  62  90 124 157 192 237 288 340
#     4   9  20  36  52  76 110 142 176 224 279 334
#     4  11  24  41  62  89 118 152 196 238 280 341
#     4  11  24  39  57  85 117 146 184 235 286 335
#     4   9  19  37  58  78 104 142 185 224 270 334
#     4  12  19  30  56  84 104 138 188 232 279 338
#
# _framework density 19.483594
#
# number of rings (size 3 to 8) (size 9 to 14) (size 15 to 20)
#    0.000    1.917    0.000    5.250    0.000   11.333 
#    0.000    0.000    0.000    2.000    0.000    7.000 
#    0.000    0.000    0.000    0.000    0.000    0.000 
#
# Total GULP energy -594812.541024 kJ/mol
# GULP energy per Si atom -12391.927938 kJ/mol
# Density = 1.943925 g / cm^3
# Si number density = 19.483594 Si / 1000 Ang^3
#
#
#
# Elastic Constant Matrix: (Units=GPa)
#
#
# Indices 1 2 3 4 5 6 
#
# 1 75.8633 31.6121 61.3153 0.0000 0.0000 0.0000
# 2 31.6121 75.8633 61.3153 0.0000 0.0000 0.0000
# 3 61.3153 61.3153 123.8623 0.0000 0.0000 0.0000
# 4 0.0000 0.0000 0.0000 26.2378 0.0000 0.0000
# 5 0.0000 0.0000 0.0000 0.0000 26.2378 0.0000
# 6 0.0000 0.0000 0.0000 0.0000 0.0000 28.6114
#
#
#
# Elastic Compliance Matrix: (Units=1/GPa)
#
#
# Indices 1 2 3 4 5 6 
#
# 1 0.021990 -0.000608 -0.010584 0.000000 0.000000 0.000000
# 2 -0.000608 0.021990 -0.010584 0.000000 0.000000 0.000000
# 3 -0.010584 -0.010584 0.018553 0.000000 0.000000 0.000000
# 4 0.000000 0.000000 0.000000 0.038113 0.000000 0.000000
# 5 0.000000 0.000000 0.000000 0.000000 0.038113 0.000000
# 6 0.000000 0.000000 0.000000 0.000000 0.000000 0.034951
#
#
# Mechanical properties :
#
#
# Convention : Reuss Voigt Hill
#
# Bulk Modulus (GPa) = 52.69313 64.89717 58.79515
# Shear Modulus (GPa) = 22.36241 24.30714 23.33478
#
# Velocity S-wave (km/s) = 3.39153 3.53593 3.46448
# Velocity P-wave (km/s) = 6.51462 7.07469 6.80042
#
# Compressibility (1/GPa) = 0.01897781
#
# Stress axis : x y z
#
# Youngs Moduli (GPa) = 45.47569 45.47569 53.90085
#
# Poissons Ratio (x) = 0.02767 0.57051
# Poissons Ratio (y) = 0.02767 0.57051
# Poissons Ratio (z) = 0.48133 0.48133
#
# Static dielectric constant tensor:
#      x y z
#    x 3.566790 0.000000 0.000000 
#    y 0.000000 3.566790 0.000000 
#    z 0.000000 0.000000 3.564750 
# 
# 
# High freq. dielectric constant tensor:
#      x y z
#    x 1.760500 0.000000 0.000000 
#    y 0.000000 1.760500 0.000000 
#    z 0.000000 0.000000 1.769680 
# 
# From -- ./inp_files/3005.got.cif
#   From: 2010.03.12/outbox.cif.g09.slc.cpg/sg89_2_cif.got.tgz:3005.got - 2010.04.08 20:24:03.
