data_PCOD8304488
_publ_section_title
;
Structure prediction by ZEFSAII (Michael W. Deem and Ramdas Pophale) SiO2 
 PCOD8304488
Probable space group: P 4 2 2
;
_chemical_formula_sum "Si O2"
_cell_formula_units_Z 26
_cell_length_a 8.841325
_cell_length_b 8.841325
_cell_length_c 18.277204
_cell_angle_alpha 90.000000
_cell_angle_beta 90.000000
_cell_angle_gamma 90.000000
_cell_volume 1428.711267
_symmetry_space_group_name_H-M "P 4 2 2"
_symmetry_group_IT_number 89
_symmetry_cell_setting 'tetragonal'
loop_
_space_group_symop_operation_xyz
x,y,z
-y,x,z
-x,-y,z
y,-x,z
x,-y,-z
-x,y,-z
y,x,-z
-y,-x,-z
loop_
_atom_site_type_symbol
_atom_site_label
_atom_site_fract_x
_atom_site_fract_y
_atom_site_fract_z
Si Si1 0.000000 0.500000 0.380648
Si Si2 0.757122 0.941042 0.102802
Si Si3 0.500000 0.000000 0.000000
Si Si4 0.500000 0.249352 0.500000
Si Si5 0.757824 0.041575 0.731337
O O1 0.145692 0.468055 0.429785
O O2 0.940495 0.368590 0.328765
O O3 0.612426 0.902063 0.051855
O O4 0.697722 0.937539 0.186025
O O5 0.820740 0.110145 0.086727
O O6 0.649386 0.350615 0.500000
O O7 0.828306 0.878415 0.718273
#
# Coordination Sequence:
#
# PCOD8304488 Si02
#       5
#     4   8   2   4   8
#     4  11  19  32  55  77  96 126 170 207 237 284
#     4   9  19  34  50  71  99 128 160 201 249 296
#     4  12  18  26  50  74  92 124 168 194 222 282
#     4  10  22  36  48  70 106 140 164 192 238 294
#     4   9  18  33  52  74  98 123 158 207 254 290
#
# _framework density 18.198219999999999
#
# number of rings (size 3 to 8) (size 9 to 14) (size 15 to 20)
#    0.000    2.308    0.000    5.538    0.000    1.231 
#    0.000    0.000    0.000   14.769    0.000   25.846 
#    0.000    0.000    0.000    0.000    0.000    0.000 
#
# Total GULP energy -322155.153989 kJ/mol
# GULP energy per Si atom -12390.582846 kJ/mol
# Density = 1.815680 g / cm^3
# Si number density = 18.198220 Si / 1000 Ang^3
#
#
#
# Elastic Constant Matrix: (Units=GPa)
#
#
# Indices 1 2 3 4 5 6 
#
# 1 86.5307 18.6823 46.5224 0.0000 0.0000 0.0000
# 2 18.6823 86.5311 46.5223 0.0000 0.0000 0.0000
# 3 46.5224 46.5223 115.1671 0.0000 0.0000 0.0000
# 4 0.0000 0.0000 0.0000 15.3281 0.0000 0.0000
# 5 0.0000 0.0000 0.0000 0.0000 15.3267 0.0000
# 6 0.0000 0.0000 0.0000 0.0000 0.0000 12.5480
#
#
#
# Elastic Compliance Matrix: (Units=1/GPa)
#
#
# Indices 1 2 3 4 5 6 
#
# 1 0.014763 0.000024 -0.005973 0.000000 0.000000 0.000000
# 2 0.000024 0.014763 -0.005973 0.000000 0.000000 0.000000
# 3 -0.005973 -0.005973 0.013509 0.000000 0.000000 0.000000
# 4 0.000000 0.000000 0.000000 0.065240 0.000000 0.000000
# 5 0.000000 0.000000 0.000000 0.000000 0.065246 0.000000
# 6 0.000000 0.000000 0.000000 0.000000 0.000000 0.079694
#
#
# Mechanical properties :
#
#
# Convention : Reuss Voigt Hill
#
# Bulk Modulus (GPa) = 52.11125 56.85367 54.48246
# Shear Modulus (GPa) = 17.63948 20.40735 19.02342
#
# Velocity S-wave (km/s) = 3.11673 3.35235 3.23669
# Velocity P-wave (km/s) = 6.45365 6.80393 6.63110
#
# Compressibility (1/GPa) = 0.01918971
#
# Stress axis : x y z
#
# Youngs Moduli (GPa) = 67.73754 67.73800 74.02526
#
# Poissons Ratio (x) = -0.00163 0.44217
# Poissons Ratio (y) = -0.00163 0.44217
# Poissons Ratio (z) = 0.40462 0.40461
#
# Static dielectric constant tensor:
#      x y z
#    x 3.320630 0.000000 0.000000 
#    y 0.000000 3.320630 0.000000 
#    z 0.000000 0.000000 3.616520 
# 
# 
# High freq. dielectric constant tensor:
#      x y z
#    x 1.690130 0.000000 0.000000 
#    y 0.000000 1.690130 0.000000 
#    z 0.000000 0.000000 1.731290 
# 
# From -- ./inp_files/2320.got.cif
#   From: 2010.03.12/outbox.cif.g09.slc.cpg/sg89_2_cif.got.tgz:2320.got - 2010.04.08 20:24:03.
