data_PCOD8304223
_publ_section_title
;
Structure prediction by ZEFSAII (Michael W. Deem and Ramdas Pophale) SiO2 
 PCOD8304223
Probable space group: I 41/A
;
_chemical_formula_sum "Si O2"
_cell_formula_units_Z 92
_cell_length_a 13.894013
_cell_length_b 13.894013
_cell_length_c 20.543763
_cell_angle_alpha 90.000000
_cell_angle_beta 90.000000
_cell_angle_gamma 90.000000
_cell_volume 3965.841910
_symmetry_space_group_name_H-M "I 41/A"
_symmetry_group_IT_number 88
_space_group.IT_coordinate_system_code '2'
_symmetry_cell_setting 'tetragonal'
loop_
_space_group_symop_operation_xyz
x,y,z
3/4-y,1/4+x,1/4+z
-x,1/2-y,z
1/4+y,1/4-x,1/4+z
-x,-y,-z
1/4+y,3/4-x,3/4-z
x,1/2+y,-z
3/4-y,3/4+x,3/4-z
1/2+x,1/2+y,1/2+z
1/4-y,3/4+x,3/4+z
1/2-x,-y,1/2+z
3/4+y,3/4-x,3/4+z
1/2-x,1/2-y,1/2-z
3/4+y,1/4-x,1/4-z
1/2+x,y,1/2-z
1/4-y,1/4+x,1/4-z
loop_
_atom_site_type_symbol
_atom_site_label
_atom_site_fract_x
_atom_site_fract_y
_atom_site_fract_z
Si Si1 0.914837 0.913209 0.686968
Si Si2 0.622063 0.902028 0.969835
Si Si3 0.809628 0.800439 0.944193
Si Si4 0.225063 0.309473 0.185859
Si Si5 0.702064 0.245612 0.840337
Si Si6 0.000000 0.250000 0.404894
Si Si7 0.500000 0.750000 0.125000
O O1 0.799511 0.899347 0.687640
O O2 0.962261 0.911414 0.758635
O O3 0.951334 0.827536 0.641398
O O4 0.941480 0.016622 0.656397
O O5 0.734523 0.877756 0.974926
O O6 0.574165 0.799092 0.954614
O O7 0.588668 0.978219 0.915048
O O8 0.585547 0.955910 0.034702
O O9 0.764753 0.759193 0.877338
O O10 0.904785 0.864786 0.934018
O O11 0.250000 0.250000 0.250000
O O12 0.594118 0.287930 0.837847
#
# Coordination Sequence:
#
# PCOD8304223 Si02
#       7
#    16  16  16  16  16   8   4
#     4  11  24  45  73 107 147 199 248 317 386 454
#     4  10  22  43  68 104 140 195 249 304 380 454
#     4  12  27  47  77 110 148 198 254 321 385 468
#     4  12  28  49  77 109 150 198 257 322 394 467
#     4  10  24  39  68 101 147 196 246 307 369 461
#     4  10  19  44  74  96 150 193 248 308 388 435
#     4  12  22  40  60 100 148 186 240 296 370 426
#
# _framework density 23.198101999999999
#
# number of rings (size 3 to 8) (size 9 to 14) (size 15 to 20)
#    0.000    1.043    1.739    3.652    4.870    4.522 
#    0.000    0.000    0.000    0.000    0.000    0.000 
#    0.000    0.000    0.000    0.000    0.000    0.000 
#
# Total GULP energy -570044.644893 kJ/mol
# GULP energy per Si atom -12392.274889 kJ/mol
# Density = 2.314530 g / cm^3
# Si number density = 23.198102 Si / 1000 Ang^3
#
#
#
# Elastic Constant Matrix: (Units=GPa)
#
#
# Indices 1 2 3 4 5 6 
#
# 1 112.3073 29.5490 28.3425 0.0000 0.0000 -1.3218
# 2 29.5490 112.3073 28.3425 0.0000 0.0000 1.3218
# 3 28.3425 28.3425 107.5347 0.0000 0.0000 0.0000
# 4 0.0000 0.0000 0.0000 29.8474 0.0000 0.0000
# 5 0.0000 0.0000 0.0000 0.0000 29.8474 0.0000
# 6 -1.3218 1.3218 0.0000 0.0000 0.0000 41.8908
#
#
#
# Elastic Compliance Matrix: (Units=1/GPa)
#
#
# Indices 1 2 3 4 5 6 
#
# 1 0.009987 -0.002108 -0.002077 0.000000 0.000000 0.000382
# 2 -0.002108 0.009987 -0.002077 0.000000 0.000000 -0.000382
# 3 -0.002077 -0.002077 0.010394 0.000000 0.000000 0.000000
# 4 0.000000 0.000000 0.000000 0.033504 0.000000 0.000000
# 5 0.000000 0.000000 0.000000 0.000000 0.033504 0.000000
# 6 0.000382 -0.000382 0.000000 0.000000 0.000000 0.023896
#
#
# Mechanical properties :
#
#
# Convention : Reuss Voigt Hill
#
# Bulk Modulus (GPa) = 56.03599 56.06861 56.05230
# Shear Modulus (GPa) = 35.77980 36.71148 36.24564
#
# Velocity S-wave (km/s) = 3.93155 3.98241 3.95706
# Velocity P-wave (km/s) = 6.69457 6.73558 6.71511
#
# Compressibility (1/GPa) = 0.01784567
#
# Stress axis : x y z
#
# Youngs Moduli (GPa) = 100.12622 100.12622 96.20923
#
# Poissons Ratio (x) = 0.21108 0.19980
# Poissons Ratio (y) = 0.21108 0.19980
# Poissons Ratio (z) = 0.20793 0.20793
#
# Static dielectric constant tensor:
#      x y z
#    x 4.280660 0.000000 0.000000 
#    y 0.000000 4.280660 0.000000 
#    z 0.000000 0.000000 4.149680 
# 
# 
# High freq. dielectric constant tensor:
#      x y z
#    x 1.921170 0.000000 0.000000 
#    y 0.000000 1.921170 0.000000 
#    z 0.000000 0.000000 1.912380 
# 
# From -- ./inp_files/4741.got.cif
#   From: 2010.03.12/outbox.cif.g09.slc.cpg/sg88_3_cif.got.tgz:4741.got - 2010.04.08 20:20:55.
