data_PCOD8304878
_publ_section_title
;
Structure prediction by ZEFSAII (Michael W. Deem and Ramdas Pophale) SiO2 
 PCOD8304878
Probable space group: P 41 2 2
;
_chemical_formula_sum "Si O2"
_cell_formula_units_Z 52
_cell_length_a 23.017853
_cell_length_b 23.017853
_cell_length_c 4.932288
_cell_angle_alpha 90.000000
_cell_angle_beta 90.000000
_cell_angle_gamma 90.000000
_cell_volume 2613.232506
_symmetry_space_group_name_H-M "P 41 2 2"
_symmetry_group_IT_number 91
_symmetry_cell_setting 'tetragonal'
loop_
_space_group_symop_operation_xyz
x,y,z
-y,x,1/4+z
-x,-y,1/2+z
y,-x,3/4+z
x,-y,1/2-z
-x,y,-z
y,x,3/4-z
-y,-x,1/4-z
loop_
_atom_site_type_symbol
_atom_site_label
_atom_site_fract_x
_atom_site_fract_y
_atom_site_fract_z
Si Si1 0.345918 0.441124 0.345941
Si Si2 0.769611 0.134143 0.127200
Si Si3 0.500000 0.036717 0.500000
Si Si4 0.383743 0.898882 0.150580
Si Si5 0.740619 0.938833 0.877185
Si Si6 0.355363 0.170390 0.839913
Si Si7 0.440630 0.732836 0.588754
O O1 0.379456 0.500000 0.250000
O O2 0.387456 0.387456 0.375000
O O3 0.322966 0.443897 0.649268
O O4 0.290596 0.435549 0.145547
O O5 0.828684 0.171317 0.125000
O O6 0.771609 0.079441 0.338397
O O7 0.714328 0.175707 0.192417
O O8 0.760356 0.111333 0.825662
O O9 0.553728 0.072308 0.621000
O O10 0.474582 0.000000 0.750000
O O11 0.329202 0.940623 0.071144
O O12 0.373996 0.881989 0.462406
O O13 0.382524 0.842719 0.954819
O O14 0.761725 0.000000 0.750000
O O15 0.383294 0.228901 0.958836
O O16 0.500000 0.768291 0.500000
#
# Coordination Sequence:
#
# PCOD8304878 Si02
#       7
#     8   8   4   8   8   8   8
#     4  10  21  38  55  78 103 131 170 221 282 351
#     4  10  21  36  56  85 119 147 189 241 282 331
#     4  12  24  36  52  78 110 150 198 250 290 310
#     4  10  22  35  54  78 110 148 196 241 280 333
#     4  10  20  37  58  81 113 156 192 228 285 345
#     4  10  21  37  54  81 107 151 189 228 296 334
#     4  10  21  35  56  79 106 141 184 233 278 339
#
# _framework density 19.898727999999998
#
# number of rings (size 3 to 8) (size 9 to 14) (size 15 to 20)
#    0.000    1.846    0.000    3.692    2.154    3.692 
#    0.000    2.308    0.000    0.000    0.000    0.000 
#    0.000   17.231    0.000    0.000    0.000    0.000 
#
# Total GULP energy -644331.238100 kJ/mol
# GULP energy per Si atom -12390.985348 kJ/mol
# Density = 1.985344 g / cm^3
# Si number density = 19.898728 Si / 1000 Ang^3
#
#
#
# Elastic Constant Matrix: (Units=GPa)
#
#
# Indices 1 2 3 4 5 6 
#
# 1 68.8515 41.3686 11.4697 0.0000 0.0000 0.0000
# 2 41.3686 68.8557 11.4709 0.0000 0.0000 0.0000
# 3 11.4697 11.4709 81.5372 0.0000 0.0000 0.0000
# 4 0.0000 0.0000 0.0000 15.6661 0.0000 0.0000
# 5 0.0000 0.0000 0.0000 0.0000 15.6661 0.0000
# 6 0.0000 0.0000 0.0000 0.0000 0.0000 -24.5614
#
#
#
# Elastic Compliance Matrix: (Units=1/GPa)
#
#
# Indices 1 2 3 4 5 6 
#
# 1 0.022866 -0.013519 -0.001315 0.000000 0.000000 0.000000
# 2 -0.013519 0.022864 -0.001315 0.000000 0.000000 0.000000
# 3 -0.001315 -0.001315 0.012634 0.000000 0.000000 0.000000
# 4 0.000000 0.000000 0.000000 0.063832 0.000000 0.000000
# 5 0.000000 0.000000 0.000000 0.000000 0.063832 0.000000
# 6 0.000000 0.000000 0.000000 0.000000 0.000000 -0.040714
#
#
# Mechanical properties :
#
#
# Convention : Reuss Voigt Hill
#
# Bulk Modulus (GPa) = 38.36184 38.65142 38.50663
# Shear Modulus (GPa) = 26.83852 11.68318 19.26085
#
# Velocity S-wave (km/s) = 3.67652 2.42571 3.11455
# Velocity P-wave (km/s) = 6.11088 5.22606 5.68571
#
# Compressibility (1/GPa) = 0.02606757
#
# Stress axis : x y z
#
# Youngs Moduli (GPa) = 43.73401 43.73651 79.14984
#
# Poissons Ratio (x) = 0.59126 0.10405
# Poissons Ratio (y) = 0.59122 0.10408
# Poissons Ratio (z) = 0.05749 0.05751
#
# Static dielectric constant tensor:
#      x y z
#    x 3.422670 0.000000 0.000000 
#    y 0.000000 3.422670 0.000000 
#    z 0.000000 0.000000 3.912590 
# 
# 
# High freq. dielectric constant tensor:
#      x y z
#    x 1.750520 0.000000 0.000000 
#    y 0.000000 1.750520 0.000000 
#    z 0.000000 0.000000 1.803870 
# 
# From -- ./inp_files/9005.got.cif
#   From: 2010.03.12/outbox.cif.g09.slc.cpg/sg91_5_cif.got.tgz:9005.got - 2010.04.08 20:27:58.
