data_PCOD8304012
_publ_section_title
;
Structure prediction by ZEFSAII (Michael W. Deem and Ramdas Pophale) SiO2 
 PCOD8304012
Probable space group: I 4/M
;
_chemical_formula_sum "Si O2"
_cell_formula_units_Z 96
_cell_length_a 19.436746
_cell_length_b 19.436746
_cell_length_c 12.604082
_cell_angle_alpha 90.000000
_cell_angle_beta 90.000000
_cell_angle_gamma 90.000000
_cell_volume 4761.659525
_symmetry_space_group_name_H-M "I 4/M"
_symmetry_group_IT_number 87
_symmetry_cell_setting 'tetragonal'
loop_
_space_group_symop_operation_xyz
x,y,z
-y,x,z
-x,-y,z
y,-x,z
-x,-y,-z
y,-x,-z
x,y,-z
-y,x,-z
1/2+x,1/2+y,1/2+z
1/2-y,1/2+x,1/2+z
1/2-x,1/2-y,1/2+z
1/2+y,1/2-x,1/2+z
1/2-x,1/2-y,1/2-z
1/2+y,1/2-x,1/2-z
1/2+x,1/2+y,1/2-z
1/2-y,1/2+x,1/2-z
loop_
_atom_site_type_symbol
_atom_site_label
_atom_site_fract_x
_atom_site_fract_y
_atom_site_fract_z
Si Si1 0.034629 0.675232 0.748580
Si Si2 0.172538 0.232968 0.784018
Si Si3 0.406407 0.710141 0.379037
Si Si4 0.112729 0.007964 0.758084
Si Si5 0.859719 0.407617 0.623442
Si Si6 0.222228 0.948355 0.623383
O O1 0.091912 0.725197 0.799658
O O2 0.074621 0.613536 0.693365
O O3 0.986806 0.652680 0.846537
O O4 0.987454 0.708799 0.657386
O O5 0.250000 0.250000 0.750000
O O6 0.170091 0.164412 0.856121
O O7 0.140700 0.294327 0.853159
O O8 0.125290 0.217604 0.681535
O O9 0.409272 0.734258 0.500000
O O10 0.475492 0.664298 0.355827
O O11 0.062738 0.072451 0.762972
O O12 0.158485 0.999553 0.651853
O O13 0.877685 0.402061 0.500000
O O14 0.222417 0.932843 0.500000
#
# Coordination Sequence:
#
# PCOD8304012 Si02
#       6
#    16  16  16  16  16  16
#     4  10  23  43  62  95 127 155 217 261 308 389
#     4  11  22  42  63  97 127 159 217 265 306 385
#     4  11  22  40  63  89 126 166 206 265 319 363
#     4  10  21  39  58  86 126 163 216 256 297 382
#     4  11  23  43  69  93 127 169 202 258 325 372
#     4  10  22  40  63  89 129 170 206 263 318 363
#
# _framework density 20.161038999999999
#
# number of rings (size 3 to 8) (size 9 to 14) (size 15 to 20)
#    0.000    1.500    3.333    1.500    0.000    3.000 
#    0.000    5.000    0.000    0.000    0.000    0.000 
#    0.000    0.000    0.000    0.000    0.000    0.000 
#
# Total GULP energy -594986.309169 kJ/mol
# GULP energy per Si atom -12395.548108 kJ/mol
# Density = 2.011515 g / cm^3
# Si number density = 20.161039 Si / 1000 Ang^3
#
#
#
# Elastic Constant Matrix: (Units=GPa)
#
#
# Indices 1 2 3 4 5 6 
#
# 1 89.3086 30.7942 33.1758 0.0000 0.0000 -0.9596
# 2 30.7942 89.3086 33.1758 0.0000 0.0000 0.9596
# 3 33.1758 33.1758 136.8902 0.0000 0.0000 0.0000
# 4 0.0000 0.0000 0.0000 21.3791 0.0000 0.0000
# 5 0.0000 0.0000 0.0000 0.0000 21.3791 0.0000
# 6 -0.9596 0.9596 0.0000 0.0000 0.0000 37.6616
#
#
#
# Elastic Compliance Matrix: (Units=1/GPa)
#
#
# Indices 1 2 3 4 5 6 
#
# 1 0.013359 -0.003745 -0.002330 0.000000 0.000000 0.000436
# 2 -0.003745 0.013359 -0.002330 0.000000 0.000000 -0.000436
# 3 -0.002330 -0.002330 0.008434 0.000000 0.000000 0.000000
# 4 0.000000 0.000000 0.000000 0.046775 0.000000 0.000000
# 5 0.000000 0.000000 0.000000 0.000000 0.046775 0.000000
# 6 0.000436 -0.000436 0.000000 0.000000 0.000000 0.026574
#
#
# Mechanical properties :
#
#
# Convention : Reuss Voigt Hill
#
# Bulk Modulus (GPa) = 54.52035 56.64432 55.58233
# Shear Modulus (GPa) = 28.05841 30.64140 29.34991
#
# Velocity S-wave (km/s) = 3.73462 3.90273 3.81960
# Velocity P-wave (km/s) = 6.76000 6.96171 6.86159
#
# Compressibility (1/GPa) = 0.01834177
#
# Stress axis : x y z
#
# Youngs Moduli (GPa) = 74.85757 74.85757 118.56202
#
# Poissons Ratio (x) = 0.28037 0.27623
# Poissons Ratio (y) = 0.28037 0.27623
# Poissons Ratio (z) = 0.17440 0.17440
#
# Static dielectric constant tensor:
#      x y z
#    x 3.789640 0.000000 0.000000 
#    y 0.000000 3.789640 0.000000 
#    z 0.000000 0.000000 3.367140 
# 
# 
# High freq. dielectric constant tensor:
#      x y z
#    x 1.795510 0.000000 0.000000 
#    y 0.000000 1.795510 0.000000 
#    z 0.000000 0.000000 1.769630 
# 
# From -- ./inp_files/2771.got.cif
#   From: 2010.03.12/outbox.cif.g09.slc.cpg/sg87_2_cif.got.tgz:2771.got - 2010.04.08 20:16:13.
