data_PCOD8304589
_publ_section_title
;
Structure prediction by ZEFSAII (Michael W. Deem and Ramdas Pophale) SiO2 
 PCOD8304589
Probable space group: P 4 21 2
;
_chemical_formula_sum "Si O2"
_cell_formula_units_Z 48
_cell_length_a 8.173052
_cell_length_b 8.173052
_cell_length_c 33.366609
_cell_angle_alpha 90.000000
_cell_angle_beta 90.000000
_cell_angle_gamma 90.000000
_cell_volume 2228.848740
_symmetry_space_group_name_H-M "P 4 21 2"
_symmetry_group_IT_number 90
_symmetry_cell_setting 'tetragonal'
loop_
_space_group_symop_operation_xyz
x,y,z
1/2-y,1/2+x,z
-x,-y,z
1/2+y,1/2-x,z
1/2+x,1/2-y,-z
1/2-x,1/2+y,-z
y,x,-z
-y,-x,-z
loop_
_atom_site_type_symbol
_atom_site_label
_atom_site_fract_x
_atom_site_fract_y
_atom_site_fract_z
Si Si1 0.000000 0.000000 0.819786
Si Si2 0.740624 0.429733 0.466418
Si Si3 0.418691 0.740999 0.885806
Si Si4 0.070275 0.761634 0.752649
Si Si5 0.245077 0.096864 0.038793
Si Si6 0.924422 0.757334 0.377563
Si Si7 0.000000 0.000000 0.686098
O O1 0.902814 0.130721 0.792495
O O2 0.129472 0.102192 0.846433
O O3 0.803242 0.612086 0.472092
O O4 0.604136 0.395865 0.500000
O O5 0.664460 0.404121 0.421953
O O6 0.606353 0.796994 0.886389
O O7 0.373075 0.630525 0.923760
O O8 0.199427 0.616390 0.752074
O O9 0.102212 0.875293 0.713939
O O10 0.406813 0.208199 0.039361
O O11 0.138082 0.138082 0.000000
O O12 0.800135 0.610127 0.372235
O O13 0.888800 0.886712 0.342652
#
# Coordination Sequence:
#
# PCOD8304589 Si02
#       7
#     4   8   8   8   8   8   4
#     4  11  22  40  63  86 114 154 193 230 288 357
#     4   9  19  34  51  74 105 141 183 228 272 322
#     4  11  23  39  61  90 122 156 200 252 299 348
#     4  10  22  39  59  85 116 146 181 230 285 343
#     4  11  24  41  62  90 125 167 212 255 302 353
#     4   9  19  35  53  77 110 145 183 228 276 329
#     4  11  20  34  59  84 108 144 187 226 276 337
#
# _framework density 21.535784
#
# number of rings (size 3 to 8) (size 9 to 14) (size 15 to 20)
#    0.000    1.833    0.000    5.000    0.000    6.000 
#    0.000    1.667    0.000   10.000    0.000    0.000 
#    0.000    0.000    0.000    0.000    0.000    0.000 
#
# Total GULP energy -595235.813372 kJ/mol
# GULP energy per Si atom -12400.746112 kJ/mol
# Density = 2.148677 g / cm^3
# Si number density = 21.535784 Si / 1000 Ang^3
#
#
#
# Elastic Constant Matrix: (Units=GPa)
#
#
# Indices 1 2 3 4 5 6 
#
# 1 69.3130 14.5556 44.9281 0.0000 0.0000 0.0000
# 2 14.5556 69.3123 44.9278 0.0000 0.0000 0.0000
# 3 44.9281 44.9278 180.4660 0.0000 0.0000 0.0000
# 4 0.0000 0.0000 0.0000 26.3106 0.0000 0.0000
# 5 0.0000 0.0000 0.0000 0.0000 26.3103 0.0000
# 6 0.0000 0.0000 0.0000 0.0000 0.0000 33.7968
#
#
#
# Elastic Compliance Matrix: (Units=1/GPa)
#
#
# Indices 1 2 3 4 5 6 
#
# 1 0.017261 -0.001001 -0.004048 0.000000 0.000000 0.000000
# 2 -0.001001 0.017262 -0.004048 0.000000 0.000000 0.000000
# 3 -0.004048 -0.004048 0.007557 0.000000 0.000000 0.000000
# 4 0.000000 0.000000 0.000000 0.038008 0.000000 0.000000
# 5 0.000000 0.000000 0.000000 0.000000 0.038008 0.000000
# 6 0.000000 0.000000 0.000000 0.000000 0.000000 0.029589
#
#
# Mechanical properties :
#
#
# Convention : Reuss Voigt Hill
#
# Bulk Modulus (GPa) = 41.86649 58.65712 50.26180
# Shear Modulus (GPa) = 28.76201 31.59552 30.17877
#
# Velocity S-wave (km/s) = 3.65848 3.83445 3.74750
# Velocity P-wave (km/s) = 6.10971 6.84837 6.48956
#
# Compressibility (1/GPa) = 0.02388545
#
# Stress axis : x y z
#
# Youngs Moduli (GPa) = 57.93246 57.93190 132.33054
#
# Poissons Ratio (x) = 0.05798 0.53570
# Poissons Ratio (y) = 0.05799 0.53570
# Poissons Ratio (z) = 0.23452 0.23452
#
# Static dielectric constant tensor:
#      x y z
#    x 3.760400 0.000000 0.000000 
#    y 0.000000 3.760400 0.000000 
#    z 0.000000 0.000000 4.035830 
# 
# 
# High freq. dielectric constant tensor:
#      x y z
#    x 1.841090 0.000000 0.000000 
#    y 0.000000 1.841090 0.000000 
#    z 0.000000 0.000000 1.860640 
# 
# From -- ./inp_files/3071.got.cif
#   From: 2010.03.12/outbox.cif.g09.slc.cpg/sg90_2_cif.got.tgz:3071.got - 2010.04.08 20:26:03.
