data_PCOD8304560
_publ_section_title
;
Structure prediction by ZEFSAII (Michael W. Deem and Ramdas Pophale) SiO2 
 PCOD8304560
Probable space group: P 4 21 2
;
_chemical_formula_sum "Si O2"
_cell_formula_units_Z 58
_cell_length_a 18.010194
_cell_length_b 18.010194
_cell_length_c 9.140400
_cell_angle_alpha 90.000000
_cell_angle_beta 90.000000
_cell_angle_gamma 90.000000
_cell_volume 2964.844930
_symmetry_space_group_name_H-M "P 4 21 2"
_symmetry_group_IT_number 90
_symmetry_cell_setting 'tetragonal'
loop_
_space_group_symop_operation_xyz
x,y,z
1/2-y,1/2+x,z
-x,-y,z
1/2+y,1/2-x,z
1/2+x,1/2-y,-z
1/2-x,1/2+y,-z
y,x,-z
-y,-x,-z
loop_
_atom_site_type_symbol
_atom_site_label
_atom_site_fract_x
_atom_site_fract_y
_atom_site_fract_z
Si Si1 0.258450 0.079466 0.497959
Si Si2 0.131138 0.173616 0.222428
Si Si3 0.000000 0.000000 0.500000
Si Si4 0.894645 0.211050 0.903820
Si Si5 0.882141 0.471565 0.290648
Si Si6 0.208073 0.662334 0.786455
Si Si7 0.508492 0.357724 0.306306
Si Si8 0.540448 0.222981 0.973590
O O1 0.201507 0.116380 0.612747
O O2 0.324572 0.038797 0.579458
O O3 0.292177 0.139684 0.385047
O O4 0.213938 0.016659 0.409472
O O5 0.213146 0.200827 0.176571
O O6 0.130419 0.084101 0.214311
O O7 0.074571 0.204802 0.104449
O O8 0.070652 0.994027 0.399619
O O9 0.853318 0.275425 0.813501
O O10 0.937591 0.154277 0.797523
O O11 0.836563 0.163438 0.000000
O O12 0.955452 0.255237 0.997904
O O13 0.911211 0.554193 0.307136
O O14 0.847035 0.458193 0.132668
O O15 0.198638 0.587137 0.883535
#
# Coordination Sequence:
#
# PCOD8304560 Si02
#       8
#     8   8   2   8   8   8   8   8
#     4  10  21  41  69  91 121 170 223 264 313 403
#     4  10  20  42  67  89 116 174 218 249 319 404
#     4  12  24  44  62  88 136 176 196 278 328 396
#     4  12  27  40  60 104 133 162 221 284 323 380
#     4  10  23  40  63  97 132 169 216 269 330 385
#     4  11  22  41  66  91 127 171 219 265 324 388
#     4  11  23  41  63  92 125 163 215 258 328 385
#     4  11  22  41  66  88 128 175 212 263 321 396
#
# _framework density 19.562574999999999
#
# number of rings (size 3 to 8) (size 9 to 14) (size 15 to 20)
#    0.000    1.241    4.138    3.310    3.862    1.103 
#    2.483    0.000    0.000    1.655    0.000    0.000 
#    0.000    0.000    0.000    0.000    0.000    0.000 
#
# Total GULP energy -719138.948337 kJ/mol
# GULP energy per Si atom -12398.947385 kJ/mol
# Density = 1.951805 g / cm^3
# Si number density = 19.562575 Si / 1000 Ang^3
#
#
#
# Elastic Constant Matrix: (Units=GPa)
#
#
# Indices 1 2 3 4 5 6 
#
# 1 112.3306 44.2100 37.3175 0.0000 0.0000 0.0000
# 2 44.2100 112.3293 37.3173 0.0000 0.0000 0.0000
# 3 37.3175 37.3173 94.4819 0.0000 0.0000 0.0000
# 4 0.0000 0.0000 0.0000 31.0809 0.0000 0.0000
# 5 0.0000 0.0000 0.0000 0.0000 31.0822 0.0000
# 6 0.0000 0.0000 0.0000 0.0000 0.0000 -78.7337
#
#
#
# Elastic Compliance Matrix: (Units=1/GPa)
#
#
# Indices 1 2 3 4 5 6 
#
# 1 0.011275 -0.003405 -0.003108 0.000000 0.000000 0.000000
# 2 -0.003405 0.011275 -0.003108 0.000000 0.000000 0.000000
# 3 -0.003108 -0.003108 0.013040 0.000000 0.000000 0.000000
# 4 0.000000 0.000000 0.000000 0.032174 0.000000 0.000000
# 5 0.000000 0.000000 0.000000 0.000000 0.032173 0.000000
# 6 0.000000 0.000000 0.000000 0.000000 0.000000 -0.012701
#
#
# Mechanical properties :
#
#
# Convention : Reuss Voigt Hill
#
# Bulk Modulus (GPa) = 61.17697 61.87014 61.52356
# Shear Modulus (GPa) = 44.67164 10.03904 27.35534
#
# Velocity S-wave (km/s) = 4.78381 2.26780 3.74351
# Velocity P-wave (km/s) = 7.86470 6.20908 7.08541
#
# Compressibility (1/GPa) = 0.01634602
#
# Stress axis : x y z
#
# Youngs Moduli (GPa) = 88.69156 88.69058 76.68982
#
# Poissons Ratio (x) = 0.30198 0.23839
# Poissons Ratio (y) = 0.30199 0.23839
# Poissons Ratio (z) = 0.27570 0.27569
#
# Static dielectric constant tensor:
#      x y z
#    x 3.601210 0.000000 0.000000 
#    y 0.000000 3.601210 0.000000 
#    z 0.000000 0.000000 3.702190 
# 
# 
# High freq. dielectric constant tensor:
#      x y z
#    x 1.764390 0.000000 0.000000 
#    y 0.000000 1.764390 0.000000 
#    z 0.000000 0.000000 1.775110 
# 
# From -- ./inp_files/1635.got.cif
#   From: 2010.03.12/outbox.cif.g09.slc.cpg/sg90_1_cif.got.tgz:1635.got - 2010.04.08 20:26:03.
