data_PCOD8304052
_publ_section_title
;
Structure prediction by ZEFSAII (Michael W. Deem and Ramdas Pophale) SiO2 
 PCOD8304052
Probable space group: I 4/M
;
_chemical_formula_sum "Si O2"
_cell_formula_units_Z 112
_cell_length_a 14.717719
_cell_length_b 14.717719
_cell_length_c 24.910639
_cell_angle_alpha 90.000000
_cell_angle_beta 90.000000
_cell_angle_gamma 90.000000
_cell_volume 5395.924716
_symmetry_space_group_name_H-M "I 4/M"
_symmetry_group_IT_number 87
_symmetry_cell_setting 'tetragonal'
loop_
_space_group_symop_operation_xyz
x,y,z
-y,x,z
-x,-y,z
y,-x,z
-x,-y,-z
y,-x,-z
x,y,-z
-y,x,-z
1/2+x,1/2+y,1/2+z
1/2-y,1/2+x,1/2+z
1/2-x,1/2-y,1/2+z
1/2+y,1/2-x,1/2+z
1/2-x,1/2-y,1/2-z
1/2+y,1/2-x,1/2-z
1/2+x,1/2+y,1/2-z
1/2-y,1/2+x,1/2-z
loop_
_atom_site_type_symbol
_atom_site_label
_atom_site_fract_x
_atom_site_fract_y
_atom_site_fract_z
Si Si1 0.812084 0.189189 0.096958
Si Si2 0.764373 0.619054 0.939896
Si Si3 0.937616 0.587674 0.123038
Si Si4 0.619899 0.587551 0.139810
Si Si5 0.252615 0.803685 0.696415
Si Si6 0.251823 0.506003 0.437917
Si Si7 0.871467 0.431088 0.740356
O O1 0.727125 0.219058 0.060413
O O2 0.808517 0.244256 0.153059
O O3 0.906135 0.208834 0.068046
O O4 0.805330 0.078919 0.100002
O O5 0.839272 0.565177 0.903536
O O6 0.661482 0.601259 0.919595
O O7 0.771744 0.581416 0.000000
O O8 0.916703 0.648188 0.176658
O O9 0.000000 0.500000 0.137522
O O10 0.994851 0.646676 0.080514
O O11 0.519292 0.625036 0.149607
O O12 0.681766 0.648206 0.179038
O O13 0.250000 0.750000 0.750000
O O14 0.300580 0.897462 0.714315
O O15 0.258296 0.535571 0.500000
O O16 0.876723 0.537086 0.749297
#
# Coordination Sequence:
#
# PCOD8304052 Si02
#       7
#    16  16  16  16  16  16  16
#     4  10  22  40  61  91 123 168 215 261 327 398
#     4  10  22  40  64  92 129 170 217 274 334 391
#     4  11  22  38  61  95 131 166 214 269 333 402
#     4  10  24  44  65  91 125 170 220 265 316 390
#     4  11  24  40  66  90 125 168 205 268 325 379
#     4  11  22  39  62  87 127 167 211 269 322 391
#     4  11  22  37  62  93 123 164 206 257 316 388
#
# _framework density 20.756406999999999
#
# number of rings (size 3 to 8) (size 9 to 14) (size 15 to 20)
#    0.000    1.429    1.429    6.000    4.000    3.143 
#    0.000    1.429    0.000    0.000    0.000    0.000 
#    0.000    0.000    0.000    0.000    0.000    0.000 
#
# Total GULP energy -693878.571049 kJ/mol
# GULP energy per Si atom -12390.688769 kJ/mol
# Density = 2.070916 g / cm^3
# Si number density = 20.756407 Si / 1000 Ang^3
#
#
#
# Elastic Constant Matrix: (Units=GPa)
#
#
# Indices 1 2 3 4 5 6 
#
# 1 79.6916 42.5977 33.8689 0.0000 0.0000 9.0850
# 2 42.5977 79.6916 33.8689 0.0000 0.0000 -9.0850
# 3 33.8689 33.8689 139.0186 0.0000 0.0000 0.0000
# 4 0.0000 0.0000 0.0000 29.1223 0.0000 0.0000
# 5 0.0000 0.0000 0.0000 0.0000 29.1223 0.0000
# 6 9.0850 -9.0850 0.0000 0.0000 0.0000 30.0656
#
#
#
# Elastic Compliance Matrix: (Units=1/GPa)
#
#
# Indices 1 2 3 4 5 6 
#
# 1 0.020548 -0.011095 -0.002303 0.000000 0.000000 -0.009561
# 2 -0.011095 0.020548 -0.002303 0.000000 0.000000 0.009561
# 3 -0.002303 -0.002303 0.008315 0.000000 0.000000 0.000000
# 4 0.000000 0.000000 0.000000 0.034338 0.000000 0.000000
# 5 0.000000 0.000000 0.000000 0.000000 0.034338 0.000000
# 6 -0.009561 0.009561 0.000000 0.000000 0.000000 0.039039
#
#
# Mechanical properties :
#
#
# Convention : Reuss Voigt Hill
#
# Bulk Modulus (GPa) = 55.52664 57.67475 56.60070
# Shear Modulus (GPa) = 25.70298 30.19980 27.95139
#
# Velocity S-wave (km/s) = 3.52279 3.81854 3.67364
# Velocity P-wave (km/s) = 6.58455 6.87666 6.73219
#
# Compressibility (1/GPa) = 0.01800937
#
# Stress axis : x y z
#
# Youngs Moduli (GPa) = 48.66743 48.66743 120.25805
#
# Poissons Ratio (x) = 0.53995 0.27696
# Poissons Ratio (y) = 0.53995 0.27696
# Poissons Ratio (z) = 0.11208 0.11208
#
# Static dielectric constant tensor:
#      x y z
#    x 3.676860 0.000000 0.000000 
#    y 0.000000 3.676860 0.000000 
#    z 0.000000 0.000000 3.545100 
# 
# 
# High freq. dielectric constant tensor:
#      x y z
#    x 1.809310 0.000000 0.000000 
#    y 0.000000 1.809310 0.000000 
#    z 0.000000 0.000000 1.817130 
# 
# From -- ./inp_files/5921.got.cif
#   From: 2010.03.12/outbox.cif.g09.slc.cpg/sg87_3_cif.got.tgz:5921.got - 2010.04.08 20:16:13.
