data_PCOD8304565
_publ_section_title
;
Structure prediction by ZEFSAII (Michael W. Deem and Ramdas Pophale) SiO2 
 PCOD8304565
Probable space group: P 4 21 2
;
_chemical_formula_sum "Si O2"
_cell_formula_units_Z 58
_cell_length_a 19.896750
_cell_length_b 19.896750
_cell_length_c 7.325452
_cell_angle_alpha 90.000000
_cell_angle_beta 90.000000
_cell_angle_gamma 90.000000
_cell_volume 2900.004777
_symmetry_space_group_name_H-M "P 4 21 2"
_symmetry_group_IT_number 90
_symmetry_cell_setting 'tetragonal'
loop_
_space_group_symop_operation_xyz
x,y,z
1/2-y,1/2+x,z
-x,-y,z
1/2+y,1/2-x,z
1/2+x,1/2-y,-z
1/2-x,1/2+y,-z
y,x,-z
-y,-x,-z
loop_
_atom_site_type_symbol
_atom_site_label
_atom_site_fract_x
_atom_site_fract_y
_atom_site_fract_z
Si Si1 0.094976 0.217986 0.680137
Si Si2 0.070719 0.068255 0.207741
Si Si3 0.202568 0.010569 0.679803
Si Si4 0.000000 0.000000 0.500000
Si Si5 0.470970 0.802361 0.014614
Si Si6 0.116754 0.657222 0.026603
Si Si7 0.199561 0.723455 0.720529
Si Si8 0.132318 0.741916 0.363920
O O1 0.094721 0.146033 0.777857
O O2 0.173541 0.238522 0.675535
O O3 0.063055 0.219726 0.479994
O O4 0.050896 0.268121 0.798620
O O5 0.062128 0.005957 0.353122
O O6 0.018173 0.124915 0.269317
O O7 0.050559 0.050559 0.000000
O O8 0.209432 0.932320 0.625984
O O9 0.248998 0.029057 0.851201
O O10 0.542684 0.835322 0.054965
O O11 0.420121 0.862707 0.973085
O O12 0.115799 0.679406 0.235943
O O13 0.168372 0.704976 0.915903
O O14 0.143693 0.712135 0.564863
O O15 0.220669 0.801434 0.713782
#
# Coordination Sequence:
#
# PCOD8304565 Si02
#       8
#     8   8   8   2   8   8   8   8
#     4  11  22  39  68  90 122 160 212 262 311 371
#     4  12  25  43  63  91 120 164 223 254 308 368
#     4  11  22  40  61  90 122 165 200 255 320 373
#     4  12  26  44  60  82 124 168 198 260 288 370
#     4  10  22  38  62  88 121 159 197 256 310 377
#     4  10  21  39  57  88 121 155 201 247 312 372
#     4  10  22  37  62  93 118 156 204 260 313 371
#     4  10  22  36  57  89 124 154 196 253 314 371
#
# _framework density 19.999967000000002
#
# number of rings (size 3 to 8) (size 9 to 14) (size 15 to 20)
#    0.000    1.379    2.759    2.276    5.793    1.379 
#    2.483    1.379    0.000    0.000    0.000    3.862 
#    0.000    0.000    0.000    0.000    0.000    0.000 
#
# Total GULP energy -719014.570466 kJ/mol
# GULP energy per Si atom -12396.802939 kJ/mol
# Density = 1.995445 g / cm^3
# Si number density = 19.999967 Si / 1000 Ang^3
#
#
#
# Elastic Constant Matrix: (Units=GPa)
#
#
# Indices 1 2 3 4 5 6 
#
# 1 67.6482 62.4776 11.4463 0.0000 0.0000 0.0000
# 2 62.4776 67.6482 11.4463 0.0000 0.0000 0.0000
# 3 11.4463 11.4463 95.6074 0.0000 0.0000 0.0000
# 4 0.0000 0.0000 0.0000 25.8700 0.0000 0.0000
# 5 0.0000 0.0000 0.0000 0.0000 25.8700 0.0000
# 6 0.0000 0.0000 0.0000 0.0000 0.0000 31.9870
#
#
#
# Elastic Compliance Matrix: (Units=1/GPa)
#
#
# Indices 1 2 3 4 5 6 
#
# 1 0.100626 -0.092775 -0.000940 0.000000 0.000000 0.000000
# 2 -0.092775 0.100626 -0.000940 0.000000 0.000000 0.000000
# 3 -0.000940 -0.000940 0.010684 0.000000 0.000000 0.000000
# 4 0.000000 0.000000 0.000000 0.038655 0.000000 0.000000
# 5 0.000000 0.000000 0.000000 0.000000 0.038655 0.000000
# 6 0.000000 0.000000 0.000000 0.000000 0.000000 0.031263
#
#
# Mechanical properties :
#
#
# Convention : Reuss Voigt Hill
#
# Bulk Modulus (GPa) = 44.19783 44.62713 44.41248
# Shear Modulus (GPa) = 9.66445 26.44763 18.05604
#
# Velocity S-wave (km/s) = 2.20062 3.64040 3.00793
# Velocity P-wave (km/s) = 5.34826 6.32709 5.85816
#
# Compressibility (1/GPa) = 0.02262554
#
# Stress axis : x y z
#
# Youngs Moduli (GPa) = 9.93783 9.93783 93.59371
#
# Poissons Ratio (x) = 0.92199 0.08796
# Poissons Ratio (y) = 0.92199 0.08796
# Poissons Ratio (z) = 0.00934 0.00934
#
# Static dielectric constant tensor:
#      x y z
#    x 3.618620 0.000000 0.000000 
#    y 0.000000 3.618620 0.000000 
#    z 0.000000 0.000000 3.885420 
# 
# 
# High freq. dielectric constant tensor:
#      x y z
#    x 1.774300 0.000000 0.000000 
#    y 0.000000 1.774300 0.000000 
#    z 0.000000 0.000000 1.800960 
# 
# From -- ./inp_files/1644.got.cif
#   From: 2010.03.12/outbox.cif.g09.slc.cpg/sg90_1_cif.got.tgz:1644.got - 2010.04.08 20:26:03.
