data_PCOD8304492
_publ_section_title
;
Structure prediction by ZEFSAII (Michael W. Deem and Ramdas Pophale) SiO2 
 PCOD8304492
Probable space group: P 4 2 2
;
_chemical_formula_sum "Si O2"
_cell_formula_units_Z 40
_cell_length_a 10.695250
_cell_length_b 10.695250
_cell_length_c 17.408932
_cell_angle_alpha 90.000000
_cell_angle_beta 90.000000
_cell_angle_gamma 90.000000
_cell_volume 1991.379400
_symmetry_space_group_name_H-M "P 4 2 2"
_symmetry_group_IT_number 89
_symmetry_cell_setting 'tetragonal'
loop_
_space_group_symop_operation_xyz
x,y,z
-y,x,z
-x,-y,z
y,-x,z
x,-y,-z
-x,y,-z
y,x,-z
-y,-x,-z
loop_
_atom_site_type_symbol
_atom_site_label
_atom_site_fract_x
_atom_site_fract_y
_atom_site_fract_z
Si Si1 0.028701 0.796727 0.131054
Si Si2 0.059895 0.631937 0.275166
Si Si3 0.689256 0.426251 0.210704
Si Si4 0.004501 0.795561 0.412311
Si Si5 0.375096 0.193396 0.046381
O O1 0.021653 0.740399 0.216002
O O2 0.060063 0.689791 0.068236
O O3 0.895468 0.859284 0.118133
O O4 0.209313 0.616308 0.273384
O O5 0.012051 0.673564 0.358839
O O6 0.000000 0.500000 0.251310
O O7 0.660015 0.570473 0.224933
O O8 0.737704 0.410193 0.124734
O O9 0.880264 0.874603 0.395052
O O10 0.000000 0.749193 0.500000
O O11 0.500000 0.163186 0.000000
O O12 0.283372 0.283372 0.000000
#
# Coordination Sequence:
#
# PCOD8304492 Si02
#       5
#     8   8   8   8   8
#     4  10  24  44  65  88 123 163 205 265 335 394
#     4  11  24  35  64  95 128 157 211 259 316 377
#     4  10  22  39  60  84 122 168 218 261 314 382
#     4   9  19  38  65  95 129 167 205 252 315 380
#     4  11  22  38  66  88 121 163 218 271 328 380
#
# _framework density 20.086580999999999
#
# number of rings (size 3 to 8) (size 9 to 14) (size 15 to 20)
#    0.000    1.800    2.000    1.800    8.400    3.000 
#    0.000    6.000    0.000    0.000    0.000    0.000 
#    0.000    0.000    0.000    0.000    0.000    0.000 
#
# Total GULP energy -496027.681110 kJ/mol
# GULP energy per Si atom -12400.692028 kJ/mol
# Density = 2.004086 g / cm^3
# Si number density = 20.086581 Si / 1000 Ang^3
#
#
#
# Elastic Constant Matrix: (Units=GPa)
#
#
# Indices 1 2 3 4 5 6 
#
# 1 103.0561 7.3450 53.0776 0.0000 0.0000 0.0000
# 2 7.3450 103.0561 53.0776 0.0000 0.0000 0.0000
# 3 53.0776 53.0776 101.6065 0.0000 0.0000 0.0000
# 4 0.0000 0.0000 0.0000 28.8866 0.0000 0.0000
# 5 0.0000 0.0000 0.0000 0.0000 28.8866 0.0000
# 6 0.0000 0.0000 0.0000 0.0000 0.0000 -91.6707
#
#
#
# Elastic Compliance Matrix: (Units=1/GPa)
#
#
# Indices 1 2 3 4 5 6 
#
# 1 0.014324 0.003876 -0.009507 0.000000 0.000000 0.000000
# 2 0.003876 0.014324 -0.009507 0.000000 0.000000 0.000000
# 3 -0.009507 -0.009507 0.019774 0.000000 0.000000 0.000000
# 4 0.000000 0.000000 0.000000 0.034618 0.000000 0.000000
# 5 0.000000 0.000000 0.000000 0.000000 0.034618 0.000000
# 6 0.000000 0.000000 0.000000 0.000000 0.000000 -0.010909
#
#
# Mechanical properties :
#
#
# Convention : Reuss Voigt Hill
#
# Bulk Modulus (GPa) = 55.11157 59.41322 57.26240
# Shear Modulus (GPa) = 34.94681 6.16841 20.55761
#
# Velocity S-wave (km/s) = 4.17563 1.75430 3.20261
# Velocity P-wave (km/s) = 7.12351 5.80915 6.49964
#
# Compressibility (1/GPa) = 0.01814501
#
# Stress axis : x y z
#
# Youngs Moduli (GPa) = 69.81451 69.81451 50.57026
#
# Poissons Ratio (x) = -0.27057 0.48077
# Poissons Ratio (y) = -0.27057 0.48077
# Poissons Ratio (z) = 0.66373 0.66373
#
# Static dielectric constant tensor:
#      x y z
#    x 3.782290 0.000000 0.000000 
#    y 0.000000 3.782290 0.000000 
#    z 0.000000 0.000000 3.465350 
# 
# 
# High freq. dielectric constant tensor:
#      x y z
#    x 1.790800 0.000000 0.000000 
#    y 0.000000 1.790800 0.000000 
#    z 0.000000 0.000000 1.769310 
# 
# From -- ./inp_files/2117.got.cif
#   From: 2010.03.12/outbox.cif.g09.slc.cpg/sg89_2_cif.got.tgz:2117.got - 2010.04.08 20:24:03.
