data_PCOD8304980
_publ_section_title
;
Structure prediction by ZEFSAII (Michael W. Deem and Ramdas Pophale) SiO2 
 PCOD8304980
Probable space group: P 41 2 2
;
_chemical_formula_sum "Si O2"
_cell_formula_units_Z 48
_cell_length_a 8.820260
_cell_length_b 8.820260
_cell_length_c 30.342335
_cell_angle_alpha 90.000000
_cell_angle_beta 90.000000
_cell_angle_gamma 90.000000
_cell_volume 2360.542225
_symmetry_space_group_name_H-M "P 41 2 2"
_symmetry_group_IT_number 91
_symmetry_cell_setting 'tetragonal'
loop_
_space_group_symop_operation_xyz
x,y,z
-y,x,1/4+z
-x,-y,1/2+z
y,-x,3/4+z
x,-y,1/2-z
-x,y,-z
y,x,3/4-z
-y,-x,1/4-z
loop_
_atom_site_type_symbol
_atom_site_label
_atom_site_fract_x
_atom_site_fract_y
_atom_site_fract_z
Si Si1 0.674614 0.345221 0.498026
Si Si2 0.821936 0.337136 0.002430
Si Si3 0.675469 0.816753 0.579754
Si Si4 0.835184 0.684966 0.834871
Si Si5 0.170548 0.334352 0.160528
Si Si6 0.677526 0.822762 0.416441
O O1 0.500000 0.395381 0.500000
O O2 0.772888 0.491986 0.486968
O O3 0.727594 0.269653 0.543533
O O4 0.700896 0.221506 0.460128
O O5 0.756493 0.287854 0.955693
O O6 0.769339 0.224227 0.040490
O O7 0.000000 0.330585 0.000000
O O8 0.726404 0.763520 0.627960
O O9 0.497552 0.794100 0.573791
O O10 0.717766 0.991542 0.571904
O O11 0.793308 0.793308 0.875000
O O12 0.810371 0.512005 0.850089
O O13 0.996633 0.285092 0.155378
O O14 0.721657 0.721657 0.375000
#
# Coordination Sequence:
#
# PCOD8304980 Si02
#       6
#     8   8   8   8   8   8
#     4  10  21  40  64  87 115 156 201 245 294 348
#     4  12  25  40  60  89 121 156 200 247 295 350
#     4  11  23  40  62  88 120 158 198 243 295 352
#     4  10  22  39  61  88 119 155 197 245 295 352
#     4  10  22  40  62  90 121 154 197 245 294 352
#     4  11  23  41  63  90 122 157 198 243 294 352
#
# _framework density 20.334313000000002
#
# number of rings (size 3 to 8) (size 9 to 14) (size 15 to 20)
#    0.000    1.333    0.000    5.500    0.000   12.000 
#    0.000    1.667    0.000    0.000    0.000    0.000 
#    0.000    0.000    0.000    0.000    0.000    0.000 
#
# Total GULP energy -595589.021321 kJ/mol
# GULP energy per Si atom -12408.104611 kJ/mol
# Density = 2.028803 g / cm^3
# Si number density = 20.334313 Si / 1000 Ang^3
#
#
#
# Elastic Constant Matrix: (Units=GPa)
#
#
# Indices 1 2 3 4 5 6 
#
# 1 41.9931 96.5768 24.8928 0.0000 0.0000 0.0000
# 2 96.5768 41.9931 24.8928 0.0000 0.0000 0.0000
# 3 24.8928 24.8928 96.9276 0.0000 0.0000 0.0000
# 4 0.0000 0.0000 0.0000 25.0703 0.0000 0.0000
# 5 0.0000 0.0000 0.0000 0.0000 25.0703 0.0000
# 6 0.0000 0.0000 0.0000 0.0000 0.0000 17.3821
#
#
#
# Elastic Compliance Matrix: (Units=1/GPa)
#
#
# Indices 1 2 3 4 5 6 
#
# 1 -0.005185 0.013135 -0.002042 0.000000 0.000000 0.000000
# 2 0.013135 -0.005185 -0.002042 0.000000 0.000000 0.000000
# 3 -0.002042 -0.002042 0.011366 0.000000 0.000000 0.000000
# 4 0.000000 0.000000 0.000000 0.039888 0.000000 0.000000
# 5 0.000000 0.000000 0.000000 0.000000 0.039888 0.000000
# 6 0.000000 0.000000 0.000000 0.000000 0.000000 0.057530
#
#
# Mechanical properties :
#
#
# Convention : Reuss Voigt Hill
#
# Bulk Modulus (GPa) = 52.35876 52.62650 52.49263
# Shear Modulus (GPa) = 39.50571 15.80798 27.65685
#
# Velocity S-wave (km/s) = 4.41251 2.79122 3.69196
# Velocity P-wave (km/s) = 7.19481 6.02700 6.63664
#
# Compressibility (1/GPa) = 0.01909900
#
# Stress axis : x y z
#
# Youngs Moduli (GPa) = -192.85753 -192.85753 87.98407
#
# Poissons Ratio (x) = 2.53324 0.17964
# Poissons Ratio (y) = 2.53324 0.17964
# Poissons Ratio (z) = -0.39376 -0.39376
#
# Static dielectric constant tensor:
#      x y z
#    x 3.710580 0.000000 0.000000 
#    y 0.000000 3.710580 0.000000 
#    z 0.000000 0.000000 3.770200 
# 
# 
# High freq. dielectric constant tensor:
#      x y z
#    x 1.800280 0.000000 0.000000 
#    y 0.000000 1.800280 0.000000 
#    z 0.000000 0.000000 1.808220 
# 
# From -- ./inp_files/13587.got.cif
#   From: 2010.03.12/outbox.cif.g09.slc.cpg/sg91_7_cif.got.tgz:13587.got - 2010.04.08 20:27:58.
