data_PCOD8304523
_publ_section_title
;
Structure prediction by ZEFSAII (Michael W. Deem and Ramdas Pophale) SiO2 
 PCOD8304523
Probable space group: P 4 2 2
;
_chemical_formula_sum "Si O2"
_cell_formula_units_Z 44
_cell_length_a 9.427616
_cell_length_b 9.427616
_cell_length_c 30.081489
_cell_angle_alpha 90.000000
_cell_angle_beta 90.000000
_cell_angle_gamma 90.000000
_cell_volume 2673.641041
_symmetry_space_group_name_H-M "P 4 2 2"
_symmetry_group_IT_number 89
_symmetry_cell_setting 'tetragonal'
loop_
_space_group_symop_operation_xyz
x,y,z
-y,x,z
-x,-y,z
y,-x,z
x,-y,-z
-x,y,-z
y,x,-z
-y,-x,-z
loop_
_atom_site_type_symbol
_atom_site_label
_atom_site_fract_x
_atom_site_fract_y
_atom_site_fract_z
Si Si1 0.000000 0.500000 0.839024
Si Si2 0.731254 0.509887 0.675133
Si Si3 0.005141 0.231308 0.449134
Si Si4 0.000000 0.767433 0.000000
Si Si5 0.500000 0.000000 0.613015
Si Si6 0.763447 0.994375 0.903704
Si Si7 0.268767 0.490780 0.776886
O O1 0.985684 0.359240 0.867893
O O2 0.863825 0.517158 0.808733
O O3 0.633300 0.645261 0.665343
O O4 0.783397 0.511595 0.726013
O O5 0.864182 0.519142 0.643419
O O6 0.016540 0.364140 0.417465
O O7 0.142478 0.136182 0.439303
O O8 0.000000 0.283370 0.500000
O O9 0.138624 0.861376 0.000000
O O10 0.003170 0.685168 0.952671
O O11 0.863884 0.857213 0.897846
O O12 0.366287 0.355133 0.786656
#
# Coordination Sequence:
#
# PCOD8304523 Si02
#       7
#     4   8   8   4   4   8   8
#     4  12  19  27  48  75  91 110 151 197 226 254
#     4   9  19  34  49  67  93 122 151 186 229 274
#     4   9  19  34  48  66  97 131 155 179 221 276
#     4   7  12  27  46  60  84 122 150 172 216 274
#     4  12  18  28  52  79  91 110 156 204 230 250
#     4   9  18  31  46  66  92 119 148 184 225 267
#     4   9  19  35  49  63  91 127 153 177 222 282
#
# _framework density 16.456956999999999
#
# number of rings (size 3 to 8) (size 9 to 14) (size 15 to 20)
#    0.000    2.636    0.000    5.727    0.000    0.364 
#    0.000    0.000    0.000    0.000    0.000   22.909 
#    0.000   11.636    0.000    0.000    0.000    0.000 
#
# Total GULP energy -545309.730996 kJ/mol
# GULP energy per Si atom -12393.402977 kJ/mol
# Density = 1.641950 g / cm^3
# Si number density = 16.456957 Si / 1000 Ang^3
#
#
#
# Elastic Constant Matrix: (Units=GPa)
#
#
# Indices 1 2 3 4 5 6 
#
# 1 58.6876 -2.2298 23.0218 0.0000 0.0000 0.0000
# 2 -2.2298 58.6876 23.0218 0.0000 0.0000 0.0000
# 3 23.0218 23.0218 67.0941 0.0000 0.0000 0.0000
# 4 0.0000 0.0000 0.0000 25.9458 0.0000 0.0000
# 5 0.0000 0.0000 0.0000 0.0000 25.9458 0.0000
# 6 0.0000 0.0000 0.0000 0.0000 0.0000 10.2212
#
#
#
# Elastic Compliance Matrix: (Units=1/GPa)
#
#
# Indices 1 2 3 4 5 6 
#
# 1 0.020505 0.004090 -0.008439 0.000000 0.000000 0.000000
# 2 0.004090 0.020505 -0.008439 0.000000 0.000000 0.000000
# 3 -0.008439 -0.008439 0.020696 0.000000 0.000000 0.000000
# 4 0.000000 0.000000 0.000000 0.038542 0.000000 0.000000
# 5 0.000000 0.000000 0.000000 0.000000 0.038542 0.000000
# 6 0.000000 0.000000 0.000000 0.000000 0.000000 0.097836
#
#
# Mechanical properties :
#
#
# Convention : Reuss Voigt Hill
#
# Bulk Modulus (GPa) = 27.67867 30.23296 28.95582
# Shear Modulus (GPa) = 18.23179 21.79962 20.01571
#
# Velocity S-wave (km/s) = 3.33204 3.64352 3.49126
# Velocity P-wave (km/s) = 5.62661 6.00925 5.82107
#
# Compressibility (1/GPa) = 0.03612890
#
# Stress axis : x y z
#
# Youngs Moduli (GPa) = 48.76806 48.76806 48.31897
#
# Poissons Ratio (x) = -0.19944 0.40777
# Poissons Ratio (y) = -0.19944 0.40777
# Poissons Ratio (z) = 0.41156 0.41156
#
# Static dielectric constant tensor:
#      x y z
#    x 2.972570 0.000000 0.000000 
#    y 0.000000 2.972570 0.000000 
#    z 0.000000 0.000000 3.269820 
# 
# 
# High freq. dielectric constant tensor:
#      x y z
#    x 1.626740 0.000000 0.000000 
#    y 0.000000 1.626740 0.000000 
#    z 0.000000 0.000000 1.648490 
# 
# From -- ./inp_files/2948.got.cif
#   From: 2010.03.12/outbox.cif.g09.slc.cpg/sg89_2_cif.got.tgz:2948.got - 2010.04.08 20:24:03.
