data_PCOD8304697
_publ_section_title
;
Structure prediction by ZEFSAII (Michael W. Deem and Ramdas Pophale) SiO2 
 PCOD8304697
Probable space group: P 4 21 2
;
_chemical_formula_sum "Si O2"
_cell_formula_units_Z 34
_cell_length_a 9.006432
_cell_length_b 9.006432
_cell_length_c 21.627335
_cell_angle_alpha 90.000000
_cell_angle_beta 90.000000
_cell_angle_gamma 90.000000
_cell_volume 1754.318956
_symmetry_space_group_name_H-M "P 4 21 2"
_symmetry_group_IT_number 90
_symmetry_cell_setting 'tetragonal'
loop_
_space_group_symop_operation_xyz
x,y,z
1/2-y,1/2+x,z
-x,-y,z
1/2+y,1/2-x,z
1/2+x,1/2-y,-z
1/2-x,1/2+y,-z
y,x,-z
-y,-x,-z
loop_
_atom_site_type_symbol
_atom_site_label
_atom_site_fract_x
_atom_site_fract_y
_atom_site_fract_z
Si Si1 0.436114 0.235882 0.734629
Si Si2 0.774940 0.585428 0.958263
Si Si3 0.000000 0.000000 0.500000
Si Si4 0.024807 0.739789 0.404441
Si Si5 0.272217 0.916337 0.184916
O O1 0.601396 0.178344 0.748399
O O2 0.445383 0.299157 0.664862
O O3 0.375231 0.369885 0.777025
O O4 0.811969 0.416004 0.974224
O O5 0.731596 0.601065 0.886773
O O6 0.636899 0.636899 0.000000
O O7 0.017363 0.862997 0.455454
O O8 0.159775 0.630029 0.415029
O O9 0.413690 0.812662 0.201263
#
# Coordination Sequence:
#
# PCOD8304697 Si02
#       5
#     8   8   2   8   8
#     4   9  19  35  53  74 103 137 172 213 262 315
#     4   9  19  35  52  73 104 139 176 223 275 324
#     4  12  20  32  60  84 100 140 182 208 252 312
#     4   9  20  37  53  76 110 139 170 216 261 306
#     4   9  19  35  53  75 105 139 177 224 273 319
#
# _framework density 19.380739999999999
#
# number of rings (size 3 to 8) (size 9 to 14) (size 15 to 20)
#    0.000    2.824    0.000    3.529    0.000    7.059 
#    0.000    7.059    0.000    2.824    0.000    0.000 
#    0.000    0.000    0.000    0.000    0.000    0.000 
#
# Total GULP energy -421270.564377 kJ/mol
# GULP energy per Si atom -12390.310717 kJ/mol
# Density = 1.933663 g / cm^3
# Si number density = 19.380740 Si / 1000 Ang^3
#
#
#
# Elastic Constant Matrix: (Units=GPa)
#
#
# Indices 1 2 3 4 5 6 
#
# 1 47.4830 15.1947 43.9407 0.0000 0.0000 0.0000
# 2 15.1947 47.4830 43.9407 0.0000 0.0000 0.0000
# 3 43.9407 43.9407 98.2337 0.0000 0.0000 0.0000
# 4 0.0000 0.0000 0.0000 32.8136 0.0000 0.0000
# 5 0.0000 0.0000 0.0000 0.0000 32.8136 0.0000
# 6 0.0000 0.0000 0.0000 0.0000 0.0000 28.6883
#
#
#
# Elastic Compliance Matrix: (Units=1/GPa)
#
#
# Indices 1 2 3 4 5 6 
#
# 1 0.036883 0.005912 -0.019142 0.000000 0.000000 0.000000
# 2 0.005912 0.036883 -0.019142 0.000000 0.000000 0.000000
# 3 -0.019142 -0.019142 0.027305 0.000000 0.000000 0.000000
# 4 0.000000 0.000000 0.000000 0.030475 0.000000 0.000000
# 5 0.000000 0.000000 0.000000 0.000000 0.030475 0.000000
# 6 0.000000 0.000000 0.000000 0.000000 0.000000 0.034857
#
#
# Mechanical properties :
#
#
# Convention : Reuss Voigt Hill
#
# Bulk Modulus (GPa) = 27.52969 44.37244 35.95107
# Shear Modulus (GPa) = 18.26607 24.87134 21.56871
#
# Velocity S-wave (km/s) = 3.07332 3.58621 3.33963
# Velocity P-wave (km/s) = 5.17970 6.33188 5.78455
#
# Compressibility (1/GPa) = 0.03632441
#
# Stress axis : x y z
#
# Youngs Moduli (GPa) = 27.11303 27.11303 36.62364
#
# Poissons Ratio (x) = -0.16028 0.70106
# Poissons Ratio (y) = -0.16028 0.70106
# Poissons Ratio (z) = 0.51900 0.51900
#
# Static dielectric constant tensor:
#      x y z
#    x 3.353690 0.000000 0.000000 
#    y 0.000000 3.353690 0.000000 
#    z 0.000000 0.000000 3.426810 
# 
# 
# High freq. dielectric constant tensor:
#      x y z
#    x 1.751790 0.000000 0.000000 
#    y 0.000000 1.751790 0.000000 
#    z 0.000000 0.000000 1.751270 
# 
# From -- ./inp_files/2726.got.cif
#   From: 2010.03.12/outbox.cif.g09.slc.cpg/sg90_2_cif.got.tgz:2726.got - 2010.04.08 20:26:03.
