data_PCOD8304257
_publ_section_title
;
Structure prediction by ZEFSAII (Michael W. Deem and Ramdas Pophale) SiO2 
 PCOD8304257
Probable space group: I 41/A
;
_chemical_formula_sum "Si O2"
_cell_formula_units_Z 80
_cell_length_a 11.994555
_cell_length_b 11.994555
_cell_length_c 24.923836
_cell_angle_alpha 90.000000
_cell_angle_beta 90.000000
_cell_angle_gamma 90.000000
_cell_volume 3585.776076
_symmetry_space_group_name_H-M "I 41/A"
_symmetry_group_IT_number 88
_space_group.IT_coordinate_system_code '2'
_symmetry_cell_setting 'tetragonal'
loop_
_space_group_symop_operation_xyz
x,y,z
3/4-y,1/4+x,1/4+z
-x,1/2-y,z
1/4+y,1/4-x,1/4+z
-x,-y,-z
1/4+y,3/4-x,3/4-z
x,1/2+y,-z
3/4-y,3/4+x,3/4-z
1/2+x,1/2+y,1/2+z
1/4-y,3/4+x,3/4+z
1/2-x,-y,1/2+z
3/4+y,3/4-x,3/4+z
1/2-x,1/2-y,1/2-z
3/4+y,1/4-x,1/4-z
1/2+x,y,1/2-z
1/4-y,1/4+x,1/4-z
loop_
_atom_site_type_symbol
_atom_site_label
_atom_site_fract_x
_atom_site_fract_y
_atom_site_fract_z
Si Si1 0.430503 0.639255 0.065426
Si Si2 0.621063 0.492580 0.268416
Si Si3 0.682282 0.751098 0.617143
Si Si4 0.378217 0.493361 0.906531
Si Si5 0.068310 0.638273 0.072368
O O1 0.500000 0.750000 0.076895
O O2 0.360288 0.601668 0.117838
O O3 0.516790 0.537984 0.055668
O O4 0.351613 0.659781 0.015221
O O5 0.512821 0.472411 0.305787
O O6 0.728176 0.521545 0.305997
O O7 0.646402 0.385788 0.231392
O O8 0.612039 0.639804 0.630579
O O9 0.783901 0.759595 0.659886
O O10 0.413161 0.600001 0.871592
O O11 0.000000 0.750000 0.059643
#
# Coordination Sequence:
#
# PCOD8304257 Si02
#       5
#    16  16  16  16  16
#     4  11  20  39  66 100 139 174 216 272 337 402
#     4  10  24  39  64 101 127 177 231 264 338 396
#     4  10  24  47  65  92 136 175 226 280 332 395
#     4  10  20  40  63  96 141 172 217 277 335 397
#     4  10  24  42  66  97 131 173 225 278 337 398
#
# _framework density 22.310371
#
# number of rings (size 3 to 8) (size 9 to 14) (size 15 to 20)
#    0.000    1.800    2.000    0.600    2.800   10.400 
#    0.000    0.000    0.000    0.000    0.000    0.000 
#    0.000    0.000    0.000    0.000    0.000    0.000 
#
# Total GULP energy -495825.172150 kJ/mol
# GULP energy per Si atom -12395.629304 kJ/mol
# Density = 2.225959 g / cm^3
# Si number density = 22.310371 Si / 1000 Ang^3
#
#
#
# Elastic Constant Matrix: (Units=GPa)
#
#
# Indices 1 2 3 4 5 6 
#
# 1 100.3392 43.5369 40.9829 0.0000 0.0000 0.3782
# 2 43.5369 100.3392 40.9829 0.0000 0.0000 -0.3782
# 3 40.9829 40.9829 132.5173 0.0000 0.0000 0.0000
# 4 0.0000 0.0000 0.0000 23.3841 0.0000 0.0000
# 5 0.0000 0.0000 0.0000 0.0000 23.3841 0.0000
# 6 0.3782 -0.3782 0.0000 0.0000 0.0000 39.5398
#
#
#
# Elastic Compliance Matrix: (Units=1/GPa)
#
#
# Indices 1 2 3 4 5 6 
#
# 1 0.013022 -0.004585 -0.002609 0.000000 0.000000 -0.000168
# 2 -0.004585 0.013022 -0.002609 0.000000 0.000000 0.000168
# 3 -0.002609 -0.002609 0.009160 0.000000 0.000000 0.000000
# 4 0.000000 0.000000 0.000000 0.042764 0.000000 0.000000
# 5 0.000000 0.000000 0.000000 0.000000 0.042764 0.000000
# 6 -0.000168 0.000168 0.000000 0.000000 0.000000 0.025294
#
#
# Mechanical properties :
#
#
# Convention : Reuss Voigt Hill
#
# Bulk Modulus (GPa) = 64.11518 64.91124 64.51321
# Shear Modulus (GPa) = 29.26838 31.10779 30.18809
#
# Velocity S-wave (km/s) = 3.62591 3.73811 3.68244
# Velocity P-wave (km/s) = 6.80660 6.91297 6.85999
#
# Compressibility (1/GPa) = 0.01559693
#
# Stress axis : x y z
#
# Youngs Moduli (GPa) = 76.79297 76.79297 109.16952
#
# Poissons Ratio (x) = 0.35211 0.28485
# Poissons Ratio (y) = 0.35211 0.28485
# Poissons Ratio (z) = 0.20037 0.20037
#
# Static dielectric constant tensor:
#      x y z
#    x 4.050010 0.000000 0.000000 
#    y 0.000000 4.050010 0.000000 
#    z 0.000000 0.000000 4.296750 
# 
# 
# High freq. dielectric constant tensor:
#      x y z
#    x 1.873020 0.000000 0.000000 
#    y 0.000000 1.873020 0.000000 
#    z 0.000000 0.000000 1.889640 
# 
# From -- ./inp_files/6282.got.cif
#   From: 2010.03.12/outbox.cif.g09.slc.cpg/sg88_4_cif.got.tgz:6282.got - 2010.04.08 20:20:55.
