data_PCOD8304494
_publ_section_title
;
Structure prediction by ZEFSAII (Michael W. Deem and Ramdas Pophale) SiO2 
 PCOD8304494
Probable space group: P 4 2 2
;
_chemical_formula_sum "Si O2"
_cell_formula_units_Z 40
_cell_length_a 8.458056
_cell_length_b 8.458056
_cell_length_c 26.282686
_cell_angle_alpha 90.000000
_cell_angle_beta 90.000000
_cell_angle_gamma 90.000000
_cell_volume 1880.229486
_symmetry_space_group_name_H-M "P 4 2 2"
_symmetry_group_IT_number 89
_symmetry_cell_setting 'tetragonal'
loop_
_space_group_symop_operation_xyz
x,y,z
-y,x,z
-x,-y,z
y,-x,z
x,-y,-z
-x,y,-z
y,x,-z
-y,-x,-z
loop_
_atom_site_type_symbol
_atom_site_label
_atom_site_fract_x
_atom_site_fract_y
_atom_site_fract_z
Si Si1 0.560516 0.245958 0.328348
Si Si2 0.804468 0.169863 0.057475
Si Si3 0.760372 0.899852 0.755790
Si Si4 0.362168 0.282922 0.847124
Si Si5 0.000000 0.500000 0.413235
Si Si6 0.000000 0.742722 0.500000
O O1 0.688280 0.384744 0.325857
O O2 0.612213 0.138310 0.280823
O O3 0.563749 0.145773 0.379876
O O4 0.677838 0.253999 0.093798
O O5 0.984497 0.218466 0.068033
O O6 0.772384 0.227617 0.000000
O O7 0.711403 0.858424 0.813551
O O8 0.917093 0.796395 0.745671
O O9 0.547529 0.285902 0.834337
O O10 0.037518 0.645520 0.449409
O O11 0.843618 0.843618 0.500000
#
# Coordination Sequence:
#
# PCOD8304494 Si02
#       6
#     8   8   8   8   4   4
#     4  11  23  39  61  90 124 162 205 254 310 372
#     4   9  19  37  60  85 113 148 195 251 311 379
#     4  11  24  41  62  88 118 156 205 259 316 381
#     4  11  24  39  56  83 119 157 199 251 312 378
#     4  11  22  40  64  92 128 168 210 259 316 374
#     4  10  22  40  64  94 128 168 214 262 312 372
#
# _framework density 21.273997999999999
#
# number of rings (size 3 to 8) (size 9 to 14) (size 15 to 20)
#    0.000    1.500    0.000    5.400    0.000    8.800 
#    0.000    5.000    0.000    4.800    0.000    0.000 
#    0.000    0.000    0.000    0.000    0.000    0.000 
#
# Total GULP energy -495761.337169 kJ/mol
# GULP energy per Si atom -12394.033429 kJ/mol
# Density = 2.122558 g / cm^3
# Si number density = 21.273998 Si / 1000 Ang^3
#
#
#
# Elastic Constant Matrix: (Units=GPa)
#
#
# Indices 1 2 3 4 5 6 
#
# 1 83.0559 35.1876 43.7323 0.0000 0.0000 0.0000
# 2 35.1876 83.0555 43.7322 0.0000 0.0000 0.0000
# 3 43.7323 43.7322 136.6889 0.0000 0.0000 0.0000
# 4 0.0000 0.0000 0.0000 46.2046 0.0000 0.0000
# 5 0.0000 0.0000 0.0000 0.0000 46.2046 0.0000
# 6 0.0000 0.0000 0.0000 0.0000 0.0000 31.1057
#
#
#
# Elastic Compliance Matrix: (Units=1/GPa)
#
#
# Indices 1 2 3 4 5 6 
#
# 1 0.015985 -0.004906 -0.003545 0.000000 0.000000 0.000000
# 2 -0.004906 0.015985 -0.003545 0.000000 0.000000 0.000000
# 3 -0.003545 -0.003545 0.009584 0.000000 0.000000 0.000000
# 4 0.000000 0.000000 0.000000 0.021643 0.000000 0.000000
# 5 0.000000 0.000000 0.000000 0.000000 0.021643 0.000000
# 6 0.000000 0.000000 0.000000 0.000000 0.000000 0.032148
#
#
# Mechanical properties :
#
#
# Convention : Reuss Voigt Hill
#
# Bulk Modulus (GPa) = 56.93577 60.90052 58.91815
# Shear Modulus (GPa) = 34.05232 36.71285 35.38258
#
# Velocity S-wave (km/s) = 4.00516 4.15868 4.08264
# Velocity P-wave (km/s) = 6.94331 7.19363 7.06958
#
# Compressibility (1/GPa) = 0.01756365
#
# Stress axis : x y z
#
# Youngs Moduli (GPa) = 62.55911 62.55879 104.34021
#
# Poissons Ratio (x) = 0.30690 0.36985
# Poissons Ratio (y) = 0.30690 0.36985
# Poissons Ratio (z) = 0.22175 0.22175
#
# Static dielectric constant tensor:
#      x y z
#    x 3.867240 0.000000 0.000000 
#    y 0.000000 3.867240 0.000000 
#    z 0.000000 0.000000 3.738230 
# 
# 
# High freq. dielectric constant tensor:
#      x y z
#    x 1.840750 0.000000 0.000000 
#    y 0.000000 1.840750 0.000000 
#    z 0.000000 0.000000 1.838000 
# 
# From -- ./inp_files/2843.got.cif
#   From: 2010.03.12/outbox.cif.g09.slc.cpg/sg89_2_cif.got.tgz:2843.got - 2010.04.08 20:24:03.
