data_PCOD8304910
_publ_section_title
;
Structure prediction by ZEFSAII (Michael W. Deem and Ramdas Pophale) SiO2 
 PCOD8304910
Probable space group: P 41 2 2
;
_chemical_formula_sum "Si O2"
_cell_formula_units_Z 36
_cell_length_a 13.800775
_cell_length_b 13.800775
_cell_length_c 9.607508
_cell_angle_alpha 90.000000
_cell_angle_beta 90.000000
_cell_angle_gamma 90.000000
_cell_volume 1829.859334
_symmetry_space_group_name_H-M "P 41 2 2"
_symmetry_group_IT_number 91
_symmetry_cell_setting 'tetragonal'
loop_
_space_group_symop_operation_xyz
x,y,z
-y,x,1/4+z
-x,-y,1/2+z
y,-x,3/4+z
x,-y,1/2-z
-x,y,-z
y,x,3/4-z
-y,-x,1/4-z
loop_
_atom_site_type_symbol
_atom_site_label
_atom_site_fract_x
_atom_site_fract_y
_atom_site_fract_z
Si Si1 0.101619 0.310331 0.935259
Si Si2 0.686464 0.645560 0.034115
Si Si3 0.846579 0.775993 0.155951
Si Si4 0.000000 0.101668 0.500000
Si Si5 0.577103 0.286096 0.216467
O O1 0.088198 0.271734 0.777724
O O2 0.173187 0.402629 0.934816
O O3 0.146049 0.226339 0.030182
O O4 0.000000 0.343677 0.000000
O O5 0.788866 0.692512 0.074579
O O6 0.598429 0.691389 0.121928
O O7 0.690170 0.532346 0.071014
O O8 0.663684 0.663684 0.875000
O O9 0.912732 0.829701 0.045071
O O10 0.032247 0.032247 0.375000
O O11 0.650679 0.349322 0.125000
#
# Coordination Sequence:
#
# PCOD8304910 Si02
#       5
#     8   8   8   4   8
#     4  10  20  39  67  87 121 170 210 256 321 384
#     4  11  23  40  65  93 136 167 209 265 332 385
#     4  10  22  41  61  90 129 163 204 272 322 375
#     4  12  26  38  62  96 124 166 220 272 322 380
#     4  11  22  41  66  95 127 172 215 268 320 386
#
# _framework density 19.673642999999998
#
# number of rings (size 3 to 8) (size 9 to 14) (size 15 to 20)
#    0.000    1.333    4.444    3.333    4.667    4.444 
#    2.000    0.000    4.889    0.000    0.000    0.000 
#    0.000    0.000    0.000    0.000    0.000    0.000 
#
# Total GULP energy -446547.900979 kJ/mol
# GULP energy per Si atom -12404.108361 kJ/mol
# Density = 1.962886 g / cm^3
# Si number density = 19.673643 Si / 1000 Ang^3
#
#
#
# Elastic Constant Matrix: (Units=GPa)
#
#
# Indices 1 2 3 4 5 6 
#
# 1 106.7778 34.2014 26.4012 0.0000 0.0000 0.0000
# 2 34.2014 106.7785 26.4022 0.0000 0.0000 0.0000
# 3 26.4012 26.4022 98.0206 0.0000 0.0000 0.0000
# 4 0.0000 0.0000 0.0000 26.9715 0.0000 0.0000
# 5 0.0000 0.0000 0.0000 0.0000 26.9711 0.0000
# 6 0.0000 0.0000 0.0000 0.0000 0.0000 15.4238
#
#
#
# Elastic Compliance Matrix: (Units=1/GPa)
#
#
# Indices 1 2 3 4 5 6 
#
# 1 0.010834 -0.002945 -0.002125 0.000000 0.000000 0.000000
# 2 -0.002945 0.010834 -0.002125 0.000000 0.000000 0.000000
# 3 -0.002125 -0.002125 0.011347 0.000000 0.000000 0.000000
# 4 0.000000 0.000000 0.000000 0.037076 0.000000 0.000000
# 5 0.000000 0.000000 0.000000 0.000000 0.037077 0.000000
# 6 0.000000 0.000000 0.000000 0.000000 0.000000 0.064835
#
#
# Mechanical properties :
#
#
# Convention : Reuss Voigt Hill
#
# Bulk Modulus (GPa) = 53.69080 53.95405 53.82242
# Shear Modulus (GPa) = 25.96060 28.84475 27.40267
#
# Velocity S-wave (km/s) = 3.63652 3.83320 3.73616
# Velocity P-wave (km/s) = 6.70689 6.86115 6.78446
#
# Compressibility (1/GPa) = 0.01862517
#
# Stress axis : x y z
#
# Youngs Moduli (GPa) = 92.30354 92.30363 88.13188
#
# Poissons Ratio (x) = 0.27181 0.18727
# Poissons Ratio (y) = 0.27181 0.18728
# Poissons Ratio (z) = 0.19613 0.19614
#
# Static dielectric constant tensor:
#      x y z
#    x 3.558610 0.000000 0.000000 
#    y 0.000000 3.558620 0.000000 
#    z 0.000000 0.000000 3.825550 
# 
# 
# High freq. dielectric constant tensor:
#      x y z
#    x 1.759840 0.000000 0.000000 
#    y 0.000000 1.759840 0.000000 
#    z 0.000000 0.000000 1.785270 
# 
# From -- ./inp_files/2282.got.cif
#   From: 2010.03.12/outbox.cif.g09.slc.cpg/sg91_2_cif.got.tgz:2282.got - 2010.04.08 20:27:58.
