data_PCOD8304733
_publ_section_title
;
Structure prediction by ZEFSAII (Michael W. Deem and Ramdas Pophale) SiO2 
 PCOD8304733
Probable space group: P 41 2 2
;
_chemical_formula_sum "Si O2"
_cell_formula_units_Z 48
_cell_length_a 9.358951
_cell_length_b 9.358951
_cell_length_c 30.766368
_cell_angle_alpha 90.000000
_cell_angle_beta 90.000000
_cell_angle_gamma 90.000000
_cell_volume 2694.825060
_symmetry_space_group_name_H-M "P 41 2 2"
_symmetry_group_IT_number 91
_symmetry_cell_setting 'tetragonal'
loop_
_space_group_symop_operation_xyz
x,y,z
-y,x,1/4+z
-x,-y,1/2+z
y,-x,3/4+z
x,-y,1/2-z
-x,y,-z
y,x,3/4-z
-y,-x,1/4-z
loop_
_atom_site_type_symbol
_atom_site_label
_atom_site_fract_x
_atom_site_fract_y
_atom_site_fract_z
Si Si1 0.512971 0.047539 0.664981
Si Si2 0.255933 0.750321 0.846608
Si Si3 0.529545 0.559212 0.548789
Si Si4 0.069324 0.257021 0.344101
Si Si5 0.745943 0.318843 0.530517
Si Si6 0.596230 0.743092 0.682922
O O1 0.497699 0.881307 0.675553
O O2 0.355120 0.115173 0.665138
O O3 0.590866 0.075811 0.618885
O O4 0.610867 0.106665 0.703993
O O5 0.310819 0.607188 0.822804
O O6 0.262291 0.723240 0.898053
O O7 0.093721 0.783750 0.832013
O O8 0.500000 0.611039 0.500000
O O9 0.620791 0.414324 0.550963
O O10 0.383132 0.518441 0.572719
O O11 0.134284 0.134284 0.375000
O O12 0.158282 0.269659 0.299232
O O13 0.738021 0.320041 0.478613
#
# Coordination Sequence:
#
# PCOD8304733 Si02
#       6
#     8   8   8   8   8   8
#     4   9  18  32  52  74 102 135 169 204 252 306
#     4  10  19  33  51  75 106 135 162 208 264 304
#     4   9  18  32  51  74  99 130 169 210 249 297
#     4   9  18  33  52  74 100 134 174 215 250 292
#     4   9  17  32  54  74  94 129 178 214 238 287
#     4  10  18  30  53  77  97 129 174 211 243 298
#
# _framework density 17.811916
#
# number of rings (size 3 to 8) (size 9 to 14) (size 15 to 20)
#    0.000    2.667    0.000    2.000    0.000    2.667 
#    0.000    9.167    0.000   34.000    0.000    0.000 
#    0.000    0.000    0.000    0.000    0.000    0.000 
#
# Total GULP energy -595164.795719 kJ/mol
# GULP energy per Si atom -12399.266577 kJ/mol
# Density = 1.777138 g / cm^3
# Si number density = 17.811916 Si / 1000 Ang^3
#
#
#
# Elastic Constant Matrix: (Units=GPa)
#
#
# Indices 1 2 3 4 5 6 
#
# 1 124.9360 44.4720 34.6799 0.0000 0.0000 0.0000
# 2 44.4720 124.9360 34.6799 0.0000 0.0000 0.0000
# 3 34.6799 34.6799 70.0794 0.0000 0.0000 0.0000
# 4 0.0000 0.0000 0.0000 21.3146 0.0000 0.0000
# 5 0.0000 0.0000 0.0000 0.0000 21.3146 0.0000
# 6 0.0000 0.0000 0.0000 0.0000 0.0000 18.0588
#
#
#
# Elastic Compliance Matrix: (Units=1/GPa)
#
#
# Indices 1 2 3 4 5 6 
#
# 1 0.009915 -0.002513 -0.003663 0.000000 0.000000 0.000000
# 2 -0.002513 0.009915 -0.003663 0.000000 0.000000 0.000000
# 3 -0.003663 -0.003663 0.017895 0.000000 0.000000 0.000000
# 4 0.000000 0.000000 0.000000 0.046916 0.000000 0.000000
# 5 0.000000 0.000000 0.000000 0.000000 0.046916 0.000000
# 6 0.000000 0.000000 0.000000 0.000000 0.000000 0.055375
#
#
# Mechanical properties :
#
#
# Convention : Reuss Voigt Hill
#
# Bulk Modulus (GPa) = 55.40984 60.84610 58.12797
# Shear Modulus (GPa) = 23.51533 25.87894 24.69713
#
# Velocity S-wave (km/s) = 3.63740 3.81583 3.72768
# Velocity P-wave (km/s) = 6.98690 7.32452 7.15770
#
# Compressibility (1/GPa) = 0.01804734
#
# Stress axis : x y z
#
# Youngs Moduli (GPa) = 100.85372 100.85372 55.88059
#
# Poissons Ratio (x) = 0.25340 0.20471
# Poissons Ratio (y) = 0.25340 0.20471
# Poissons Ratio (z) = 0.36947 0.36947
#
# Static dielectric constant tensor:
#      x y z
#    x 3.251260 0.000000 0.000000 
#    y 0.000000 3.251260 0.000000 
#    z 0.000000 0.000000 3.324260 
# 
# 
# High freq. dielectric constant tensor:
#      x y z
#    x 1.679390 0.000000 0.000000 
#    y 0.000000 1.679390 0.000000 
#    z 0.000000 0.000000 1.689250 
# 
# From -- ./inp_files/7949.got.cif
#   From: 2010.03.12/outbox.cif.g09.slc.cpg/sg91_4_cif.got.tgz:7949.got - 2010.04.08 20:27:58.
