data_PCOD8304764
_publ_section_title
;
Structure prediction by ZEFSAII (Michael W. Deem and Ramdas Pophale) SiO2 
 PCOD8304764
Probable space group: P 41 2 2
;
_chemical_formula_sum "Si O2"
_cell_formula_units_Z 48
_cell_length_a 8.689186
_cell_length_b 8.689186
_cell_length_c 30.390454
_cell_angle_alpha 90.000000
_cell_angle_beta 90.000000
_cell_angle_gamma 90.000000
_cell_volume 2294.538640
_symmetry_space_group_name_H-M "P 41 2 2"
_symmetry_group_IT_number 91
_symmetry_cell_setting 'tetragonal'
loop_
_space_group_symop_operation_xyz
x,y,z
-y,x,1/4+z
-x,-y,1/2+z
y,-x,3/4+z
x,-y,1/2-z
-x,y,-z
y,x,3/4-z
-y,-x,1/4-z
loop_
_atom_site_type_symbol
_atom_site_label
_atom_site_fract_x
_atom_site_fract_y
_atom_site_fract_z
Si Si1 0.767782 0.232219 0.625000
Si Si2 0.544655 0.000000 0.250000
Si Si3 0.500000 0.520336 0.500000
Si Si4 0.341039 0.939008 0.980111
Si Si5 0.458512 0.303673 0.581510
Si Si6 0.603952 0.396049 0.125000
Si Si7 0.727481 0.257843 0.211866
Si Si8 0.123780 0.752397 0.033579
O O1 0.597297 0.216814 0.605391
O O2 0.894320 0.209404 0.585845
O O3 0.651840 0.912239 0.285572
O O4 0.432721 0.881562 0.223357
O O5 0.520792 0.412732 0.542457
O O6 0.646318 0.633828 0.498277
O O7 0.240165 0.090691 0.971202
O O8 0.348078 0.832051 0.936334
O O9 0.500000 0.000046 0.000000
O O10 0.283194 0.826662 0.018704
O O11 0.369060 0.420826 0.614760
O O12 0.708902 0.342388 0.165315
O O13 0.000000 0.831036 0.000000
#
# Coordination Sequence:
#
# PCOD8304764 Si02
#       8
#     4   4   4   8   8   4   8   8
#     4  11  18  38  67  98 122 164 237 281 334 398
#     4  10  24  44  66  92 136 186 224 272 358 434
#     4  10  18  38  62  94 128 172 232 272 330 390
#     4  12  22  42  66  97 136 177 228 285 342 410
#     4  10  19  34  67  92 128 170 231 294 320 394
#     4   9  22  40  61  96 132 172 241 293 330 410
#     4  11  23  40  64  97 136 178 217 281 354 416
#     4  10  24  42  68  96 133 181 226 286 345 420
#
# _framework density 20.919239000000001
#
# number of rings (size 3 to 8) (size 9 to 14) (size 15 to 20)
#    0.500    1.000    3.333    3.000    1.167    1.333 
#    0.000    0.833    0.000    0.000    0.000    0.000 
#    0.000    0.000    0.000    0.000    0.000    0.000 
#
# Total GULP energy -594660.749632 kJ/mol
# GULP energy per Si atom -12388.765617 kJ/mol
# Density = 2.087163 g / cm^3
# Si number density = 20.919239 Si / 1000 Ang^3
#
#
#
# Elastic Constant Matrix: (Units=GPa)
#
#
# Indices 1 2 3 4 5 6 
#
# 1 100.0952 43.9502 46.5792 0.0000 0.0000 0.0000
# 2 43.9502 100.0958 46.5792 0.0000 0.0000 0.0000
# 3 46.5792 46.5792 146.2114 0.0000 0.0000 0.0000
# 4 0.0000 0.0000 0.0000 26.4950 0.0000 0.0000
# 5 0.0000 0.0000 0.0000 0.0000 26.4948 0.0000
# 6 0.0000 0.0000 0.0000 0.0000 0.0000 30.4792
#
#
#
# Elastic Compliance Matrix: (Units=1/GPa)
#
#
# Indices 1 2 3 4 5 6 
#
# 1 0.013277 -0.004534 -0.002786 0.000000 0.000000 0.000000
# 2 -0.004534 0.013277 -0.002786 0.000000 0.000000 0.000000
# 3 -0.002786 -0.002786 0.008614 0.000000 0.000000 0.000000
# 4 0.000000 0.000000 0.000000 0.037743 0.000000 0.000000
# 5 0.000000 0.000000 0.000000 0.000000 0.037743 0.000000
# 6 0.000000 0.000000 0.000000 0.000000 0.000000 0.032809
#
#
# Mechanical properties :
#
#
# Convention : Reuss Voigt Hill
#
# Bulk Modulus (GPa) = 66.84697 68.95774 67.90236
# Shear Modulus (GPa) = 29.64542 30.64673 30.14607
#
# Velocity S-wave (km/s) = 3.76857 3.83169 3.80026
# Velocity P-wave (km/s) = 7.13865 7.25335 7.19623
#
# Compressibility (1/GPa) = 0.01495954
#
# Stress axis : x y z
#
# Youngs Moduli (GPa) = 75.31615 75.31666 116.08738
#
# Poissons Ratio (x) = 0.34146 0.32337
# Poissons Ratio (y) = 0.34145 0.32336
# Poissons Ratio (z) = 0.20980 0.20980
#
# Static dielectric constant tensor:
#      x y z
#    x 3.611120 0.000000 0.000000 
#    y 0.000000 3.611120 0.000000 
#    z 0.000000 0.000000 3.936550 
# 
# 
# High freq. dielectric constant tensor:
#      x y z
#    x 1.803850 0.000000 0.000000 
#    y 0.000000 1.803850 0.000000 
#    z 0.000000 0.000000 1.814370 
# 
# From -- ./inp_files/22334.got.cif
#   From: 2010.03.12/outbox.cif.g09.slc.cpg/sg91_12_cif.got.tgz:22334.got - 2010.04.08 20:27:58.
