data_PCOD8304570
_publ_section_title
;
Structure prediction by ZEFSAII (Michael W. Deem and Ramdas Pophale) SiO2 
 PCOD8304570
Probable space group: P 4 21 2
;
_chemical_formula_sum "Si O2"
_cell_formula_units_Z 36
_cell_length_a 12.232619
_cell_length_b 12.232619
_cell_length_c 10.698742
_cell_angle_alpha 90.000000
_cell_angle_beta 90.000000
_cell_angle_gamma 90.000000
_cell_volume 1600.927310
_symmetry_space_group_name_H-M "P 4 21 2"
_symmetry_group_IT_number 90
_symmetry_cell_setting 'tetragonal'
loop_
_space_group_symop_operation_xyz
x,y,z
1/2-y,1/2+x,z
-x,-y,z
1/2+y,1/2-x,z
1/2+x,1/2-y,-z
1/2-x,1/2+y,-z
y,x,-z
-y,-x,-z
loop_
_atom_site_type_symbol
_atom_site_label
_atom_site_fract_x
_atom_site_fract_y
_atom_site_fract_z
Si Si1 0.677862 0.002792 0.137152
Si Si2 0.612208 0.441215 0.729131
Si Si3 0.115611 0.251819 0.091385
Si Si4 0.806960 0.806960 0.500000
Si Si5 0.627892 0.124269 0.670942
O O1 0.607547 0.109568 0.171194
O O2 0.792520 0.015535 0.209601
O O3 0.701672 0.987547 0.988392
O O4 0.500000 0.500000 0.690579
O O5 0.573905 0.351064 0.828785
O O6 0.670855 0.393994 0.607734
O O7 0.163607 0.340357 0.189251
O O8 0.214663 0.214663 0.000000
O O9 0.686125 0.811504 0.558753
O O10 0.501199 0.154470 0.654586
#
# Coordination Sequence:
#
# PCOD8304570 Si02
#       5
#     8   8   8   4   8
#     4  10  21  39  64  95 130 166 206 264 328 390
#     4  10  22  43  60  89 126 172 220 263 323 394
#     4   9  19  37  60  95 131 167 216 255 327 392
#     4  10  23  44  62  93 124 166 226 270 337 382
#     4  10  21  41  68  95 128 172 224 281 332 394
#
# _framework density 22.486968999999998
#
# number of rings (size 3 to 8) (size 9 to 14) (size 15 to 20)
#    0.000    2.222    0.000    1.667    0.000    7.556 
#   44.000    2.222    0.000    0.000    0.000    0.000 
#    0.000    0.000    0.000    0.000    0.000    0.000 
#
# Total GULP energy -446190.039978 kJ/mol
# GULP energy per Si atom -12394.167777 kJ/mol
# Density = 2.243579 g / cm^3
# Si number density = 22.486969 Si / 1000 Ang^3
#
#
#
# Elastic Constant Matrix: (Units=GPa)
#
#
# Indices 1 2 3 4 5 6 
#
# 1 75.9943 17.1832 27.1335 0.0000 0.0000 0.0000
# 2 17.1832 75.9943 27.1335 0.0000 0.0000 0.0000
# 3 27.1335 27.1335 117.8873 0.0000 0.0000 0.0000
# 4 0.0000 0.0000 0.0000 25.3263 0.0000 0.0000
# 5 0.0000 0.0000 0.0000 0.0000 25.3263 0.0000
# 6 0.0000 0.0000 0.0000 0.0000 0.0000 21.7431
#
#
#
# Elastic Compliance Matrix: (Units=1/GPa)
#
#
# Indices 1 2 3 4 5 6 
#
# 1 0.014699 -0.002305 -0.002853 0.000000 0.000000 0.000000
# 2 -0.002305 0.014699 -0.002853 0.000000 0.000000 0.000000
# 3 -0.002853 -0.002853 0.009796 0.000000 0.000000 0.000000
# 4 0.000000 0.000000 0.000000 0.039485 0.000000 0.000000
# 5 0.000000 0.000000 0.000000 0.000000 0.039485 0.000000
# 6 0.000000 0.000000 0.000000 0.000000 0.000000 0.045992
#
#
# Mechanical properties :
#
#
# Convention : Reuss Voigt Hill
#
# Bulk Modulus (GPa) = 43.15431 45.86403 44.50917
# Shear Modulus (GPa) = 26.61013 27.70752 27.15883
#
# Velocity S-wave (km/s) = 3.44373 3.51402 3.47905
# Velocity P-wave (km/s) = 5.91987 6.07491 5.99789
#
# Compressibility (1/GPa) = 0.02317266
#
# Stress axis : x y z
#
# Youngs Moduli (GPa) = 68.03390 68.03390 102.08466
#
# Poissons Ratio (x) = 0.15682 0.29120
# Poissons Ratio (y) = 0.15682 0.29120
# Poissons Ratio (z) = 0.19407 0.19407
#
# Static dielectric constant tensor:
#      x y z
#    x 3.937540 0.000000 0.000000 
#    y 0.000000 3.937540 0.000000 
#    z 0.000000 0.000000 4.422700 
# 
# 
# High freq. dielectric constant tensor:
#      x y z
#    x 1.877960 0.000000 0.000000 
#    y 0.000000 1.877960 0.000000 
#    z 0.000000 0.000000 1.894200 
# 
# From -- ./inp_files/1959.got.cif
#   From: 2010.03.12/outbox.cif.g09.slc.cpg/sg90_1_cif.got.tgz:1959.got - 2010.04.08 20:26:03.
