data_PCOD8304120
_publ_section_title
;
Structure prediction by ZEFSAII (Michael W. Deem and Ramdas Pophale) SiO2 
 PCOD8304120
Probable space group: I 4/M
;
_chemical_formula_sum "Si O2"
_cell_formula_units_Z 80
_cell_length_a 13.792486
_cell_length_b 13.792486
_cell_length_c 21.375754
_cell_angle_alpha 90.000000
_cell_angle_beta 90.000000
_cell_angle_gamma 90.000000
_cell_volume 4066.366758
_symmetry_space_group_name_H-M "I 4/M"
_symmetry_group_IT_number 87
_symmetry_cell_setting 'tetragonal'
loop_
_space_group_symop_operation_xyz
x,y,z
-y,x,z
-x,-y,z
y,-x,z
-x,-y,-z
y,-x,-z
x,y,-z
-y,x,-z
1/2+x,1/2+y,1/2+z
1/2-y,1/2+x,1/2+z
1/2-x,1/2-y,1/2+z
1/2+y,1/2-x,1/2+z
1/2-x,1/2-y,1/2-z
1/2+y,1/2-x,1/2-z
1/2+x,1/2+y,1/2-z
1/2-y,1/2+x,1/2-z
loop_
_atom_site_type_symbol
_atom_site_label
_atom_site_fract_x
_atom_site_fract_y
_atom_site_fract_z
Si Si1 0.095057 0.564595 0.326891
Si Si2 0.699257 0.381649 0.125586
Si Si3 0.726477 0.923929 0.428633
Si Si4 0.600420 0.383918 0.748069
Si Si5 0.313779 0.120444 0.201765
O O1 0.087150 0.627966 0.389302
O O2 0.112597 0.636457 0.269358
O O3 0.181928 0.485479 0.331497
O O4 0.000000 0.500000 0.315559
O O5 0.708637 0.482438 0.089130
O O6 0.671235 0.294722 0.078609
O O7 0.613710 0.379325 0.177210
O O8 0.802327 0.366832 0.158820
O O9 0.692919 0.932697 0.500000
O O10 0.635487 0.489352 0.727742
O O11 0.656768 0.297360 0.712662
#
# Coordination Sequence:
#
# PCOD8304120 Si02
#       5
#    16  16  16  16  16
#     4  12  21  40  63  92 126 156 200 259 320 367
#     4  12  23  42  63  90 126 167 207 259 308 369
#     4  12  27  44  62  89 126 172 215 251 299 375
#     4  11  22  36  59  94 132 160 196 247 317 381
#     4  12  22  38  65  98 124 157 205 267 327 372
#
# _framework density 19.673582
#
# number of rings (size 3 to 8) (size 9 to 14) (size 15 to 20)
#    0.000    0.200    8.000    2.400    2.800    0.800 
#    0.000    1.000    0.000    0.000    0.000    0.000 
#    0.000    1.600    0.000    0.000    0.000    0.000 
#
# Total GULP energy -495864.619596 kJ/mol
# GULP energy per Si atom -12396.615490 kJ/mol
# Density = 1.962880 g / cm^3
# Si number density = 19.673582 Si / 1000 Ang^3
#
#
#
# Elastic Constant Matrix: (Units=GPa)
#
#
# Indices 1 2 3 4 5 6 
#
# 1 88.4055 30.2758 42.4609 0.0000 0.0000 -0.8963
# 2 30.2758 88.4055 42.4609 0.0000 0.0000 0.8963
# 3 42.4609 42.4609 100.7615 0.0000 0.0000 0.0000
# 4 0.0000 0.0000 0.0000 20.3383 0.0000 0.0000
# 5 0.0000 0.0000 0.0000 0.0000 20.3383 0.0000
# 6 -0.8963 0.8963 0.0000 0.0000 0.0000 24.4698
#
#
#
# Elastic Compliance Matrix: (Units=1/GPa)
#
#
# Indices 1 2 3 4 5 6 
#
# 1 0.014643 -0.002579 -0.005084 0.000000 0.000000 0.000631
# 2 -0.002579 0.014643 -0.005084 0.000000 0.000000 -0.000631
# 3 -0.005084 -0.005084 0.014209 0.000000 0.000000 0.000000
# 4 0.000000 0.000000 0.000000 0.049168 0.000000 0.000000
# 5 0.000000 0.000000 0.000000 0.000000 0.049168 0.000000
# 6 0.000631 -0.000631 0.000000 0.000000 0.000000 0.040913
#
#
# Mechanical properties :
#
#
# Convention : Reuss Voigt Hill
#
# Bulk Modulus (GPa) = 55.55075 56.44086 55.99581
# Shear Modulus (GPa) = 23.33855 23.85426 23.59640
#
# Velocity S-wave (km/s) = 3.44799 3.48588 3.46699
# Velocity P-wave (km/s) = 6.64447 6.70468 6.67464
#
# Compressibility (1/GPa) = 0.01800156
#
# Stress axis : x y z
#
# Youngs Moduli (GPa) = 68.29259 68.29258 70.37887
#
# Poissons Ratio (x) = 0.17616 0.35777
# Poissons Ratio (y) = 0.17616 0.35777
# Poissons Ratio (z) = 0.34717 0.34717
#
# Static dielectric constant tensor:
#      x y z
#    x 3.852430 0.000000 0.000000 
#    y 0.000000 3.852430 0.000000 
#    z 0.000000 0.000000 3.314250 
# 
# 
# High freq. dielectric constant tensor:
#      x y z
#    x 1.779610 0.000000 0.000000 
#    y 0.000000 1.779610 0.000000 
#    z 0.000000 0.000000 1.722730 
# 
# From -- ./inp_files/5085.got.cif
#   From: 2010.03.12/outbox.cif.g09.slc.cpg/sg87_3_cif.got.tgz:5085.got - 2010.04.08 20:16:13.
