data_PCOD8304571
_publ_section_title
;
Structure prediction by ZEFSAII (Michael W. Deem and Ramdas Pophale) SiO2 
 PCOD8304571
Probable space group: P 4 21 2
;
_chemical_formula_sum "Si O2"
_cell_formula_units_Z 56
_cell_length_a 14.550073
_cell_length_b 14.550073
_cell_length_c 12.510075
_cell_angle_alpha 90.000000
_cell_angle_beta 90.000000
_cell_angle_gamma 90.000000
_cell_volume 2648.440728
_symmetry_space_group_name_H-M "P 4 21 2"
_symmetry_group_IT_number 90
_symmetry_cell_setting 'tetragonal'
loop_
_space_group_symop_operation_xyz
x,y,z
1/2-y,1/2+x,z
-x,-y,z
1/2+y,1/2-x,z
1/2+x,1/2-y,-z
1/2-x,1/2+y,-z
y,x,-z
-y,-x,-z
loop_
_atom_site_type_symbol
_atom_site_label
_atom_site_fract_x
_atom_site_fract_y
_atom_site_fract_z
Si Si1 0.038131 0.646461 0.964323
Si Si2 0.805947 0.074844 0.871022
Si Si3 0.155878 0.758802 0.596218
Si Si4 0.094940 0.386177 0.458742
Si Si5 0.690152 0.815134 0.736193
Si Si6 0.356700 0.624018 0.125760
Si Si7 0.544070 0.712379 0.199393
O O1 0.110487 0.565330 0.988478
O O2 0.044828 0.681409 0.841600
O O3 0.060351 0.740249 0.026942
O O4 0.735173 0.098084 0.776905
O O5 0.882644 0.155455 0.874428
O O6 0.865526 0.983956 0.850005
O O7 0.165216 0.834785 0.500000
O O8 0.162520 0.657476 0.546177
O O9 0.245975 0.750932 0.666619
O O10 0.070439 0.785713 0.674164
O O11 0.128282 0.489310 0.479013
O O12 0.104262 0.348016 0.338228
O O13 0.756306 0.846655 0.831724
O O14 0.441496 0.672237 0.185596
O O15 0.355823 0.644178 0.000000
#
# Coordination Sequence:
#
# PCOD8304571 Si02
#       7
#     8   8   8   8   8   8   8
#     4  11  25  41  61  97 138 180 231 284 338 415
#     4  11  23  41  65  90 134 179 228 279 335 416
#     4   9  22  42  64  95 129 171 226 282 345 416
#     4  10  21  39  67  97 128 166 221 284 344 408
#     4  10  23  41  66  91 130 178 221 278 346 416
#     4  12  25  41  65 101 135 181 234 283 347 427
#     4  11  25  41  69  93 141 178 229 288 353 419
#
# _framework density 21.144515999999999
#
# number of rings (size 3 to 8) (size 9 to 14) (size 15 to 20)
#    0.000    1.429    1.429    2.571    6.000    0.571 
#    0.000    2.857    0.000    6.857    0.000    0.000 
#    0.000    0.000    0.000    0.000    0.000    0.000 
#
# Total GULP energy -693796.574633 kJ/mol
# GULP energy per Si atom -12389.224547 kJ/mol
# Density = 2.109639 g / cm^3
# Si number density = 21.144516 Si / 1000 Ang^3
#
#
#
# Elastic Constant Matrix: (Units=GPa)
#
#
# Indices 1 2 3 4 5 6 
#
# 1 77.9085 10.0893 33.4500 0.0000 0.0000 0.0000
# 2 10.0893 77.9082 33.4508 0.0000 0.0000 0.0000
# 3 33.4500 33.4508 86.4063 0.0000 0.0000 0.0000
# 4 0.0000 0.0000 0.0000 29.0264 0.0000 0.0000
# 5 0.0000 0.0000 0.0000 0.0000 29.0263 0.0000
# 6 0.0000 0.0000 0.0000 0.0000 0.0000 27.8258
#
#
#
# Elastic Compliance Matrix: (Units=1/GPa)
#
#
# Indices 1 2 3 4 5 6 
#
# 1 0.015424 0.000679 -0.006234 0.000000 0.000000 0.000000
# 2 0.000679 0.015424 -0.006234 0.000000 0.000000 0.000000
# 3 -0.006234 -0.006234 0.016400 0.000000 0.000000 0.000000
# 4 0.000000 0.000000 0.000000 0.034451 0.000000 0.000000
# 5 0.000000 0.000000 0.000000 0.000000 0.034452 0.000000
# 6 0.000000 0.000000 0.000000 0.000000 0.000000 0.035938
#
#
# Mechanical properties :
#
#
# Convention : Reuss Voigt Hill
#
# Bulk Modulus (GPa) = 42.24667 44.02258 43.13462
# Shear Modulus (GPa) = 27.23939 28.19123 27.71531
#
# Velocity S-wave (km/s) = 3.59311 3.65535 3.62436
# Velocity P-wave (km/s) = 6.10224 6.21937 6.16108
#
# Compressibility (1/GPa) = 0.02367051
#
# Stress axis : x y z
#
# Youngs Moduli (GPa) = 64.83324 64.83230 60.97547
#
# Poissons Ratio (x) = -0.04403 0.38012
# Poissons Ratio (y) = -0.04403 0.38014
# Poissons Ratio (z) = 0.40417 0.40418
#
# Static dielectric constant tensor:
#      x y z
#    x 3.868110 0.000000 0.000000 
#    y 0.000000 3.868100 0.000000 
#    z 0.000000 0.000000 4.105800 
# 
# 
# High freq. dielectric constant tensor:
#      x y z
#    x 1.832490 0.000000 0.000000 
#    y 0.000000 1.832490 0.000000 
#    z 0.000000 0.000000 1.828030 
# 
# From -- ./inp_files/2260.got.cif
#   From: 2010.03.12/outbox.cif.g09.slc.cpg/sg90_2_cif.got.tgz:2260.got - 2010.04.08 20:26:03.
