data_PCOD8304465
_publ_section_title
;
Structure prediction by ZEFSAII (Michael W. Deem and Ramdas Pophale) SiO2 
 PCOD8304465
Probable space group: P 4 2 2
;
_chemical_formula_sum "Si O2"
_cell_formula_units_Z 64
_cell_length_a 20.398030
_cell_length_b 20.398030
_cell_length_c 12.165239
_cell_angle_alpha 90.000000
_cell_angle_beta 90.000000
_cell_angle_gamma 90.000000
_cell_volume 5061.708116
_symmetry_space_group_name_H-M "P 4 2 2"
_symmetry_group_IT_number 89
_symmetry_cell_setting 'tetragonal'
loop_
_space_group_symop_operation_xyz
x,y,z
-y,x,z
-x,-y,z
y,-x,z
x,-y,-z
-x,y,-z
y,x,-z
-y,-x,-z
loop_
_atom_site_type_symbol
_atom_site_label
_atom_site_fract_x
_atom_site_fract_y
_atom_site_fract_z
Si Si1 0.117666 0.873345 0.622921
Si Si2 0.257571 0.931242 0.636877
Si Si3 0.087420 0.671570 0.821078
Si Si4 0.048554 0.905113 0.838205
Si Si5 0.082094 0.731177 0.603118
Si Si6 0.689511 0.064087 0.863051
Si Si7 0.922637 0.571974 0.009718
Si Si8 0.213817 0.883757 0.037138
O O1 0.100318 0.899683 0.500000
O O2 0.187073 0.900886 0.661729
O O3 0.060251 0.892550 0.707908
O O4 0.126886 0.794736 0.621227
O O5 0.292046 0.907610 0.522939
O O6 0.304723 0.910941 0.737391
O O7 0.245876 0.008555 0.628675
O O8 0.098598 0.672326 0.689082
O O9 0.103296 0.600359 0.872641
O O10 0.130535 0.730342 0.871878
O O11 0.014140 0.686093 0.863421
O O12 0.074804 0.845769 0.911359
O O13 0.972021 0.912805 0.866651
O O14 0.624181 0.097675 0.914714
O O15 0.754775 0.080836 0.931298
O O16 0.889404 0.500000 0.000000
O O17 0.000000 0.563115 0.000000
O O18 0.186806 0.813195 0.000000
#
# Coordination Sequence:
#
# PCOD8304465 Si02
#       8
#     8   8   8   8   8   8   8   8
#     4  10  18  28  41  50  60  87 125 160 192 221
#     4   9  17  27  40  51  66  86 116 152 185 216
#     4   9  17  28  41  57  68  85 114 136 177 220
#     4  11  24  32  34  44  62  88 120 161 202 229
#     4   9  16  27  39  53  66  85 114 152 183 219
#     4   9  18  28  40  57  67  88 113 135 177 219
#     4   8  14  26  43  60  75  86 101 128 163 215
#     4  11  21  27  40  46  66  90 114 149 179 221
#
# _framework density 12.643953
#
# number of rings (size 3 to 8) (size 9 to 14) (size 15 to 20)
#    0.000    2.500    1.250    2.625    5.250    1.500 
#    0.000    1.250    0.000    0.750    0.000    5.250 
#    0.000    0.000    0.000    0.000    0.000    0.000 
#
# Total GULP energy -792949.832373 kJ/mol
# GULP energy per Si atom -12389.841131 kJ/mol
# Density = 1.261517 g / cm^3
# Si number density = 12.643953 Si / 1000 Ang^3
#
#
#
# Elastic Constant Matrix: (Units=GPa)
#
#
# Indices 1 2 3 4 5 6 
#
# 1 54.2352 16.2108 32.2487 0.0000 0.0000 0.0000
# 2 16.2108 54.2353 32.2488 0.0000 0.0000 0.0000
# 3 32.2487 32.2488 98.4206 0.0000 0.0000 0.0000
# 4 0.0000 0.0000 0.0000 11.0672 0.0000 0.0000
# 5 0.0000 0.0000 0.0000 0.0000 11.0670 0.0000
# 6 0.0000 0.0000 0.0000 0.0000 0.0000 3.3840
#
#
#
# Elastic Compliance Matrix: (Units=1/GPa)
#
#
# Indices 1 2 3 4 5 6 
#
# 1 0.023289 -0.003010 -0.006645 0.000000 0.000000 0.000000
# 2 -0.003010 0.023289 -0.006645 0.000000 0.000000 0.000000
# 3 -0.006645 -0.006645 0.014515 0.000000 0.000000 0.000000
# 4 0.000000 0.000000 0.000000 0.090357 0.000000 0.000000
# 5 0.000000 0.000000 0.000000 0.000000 0.090359 0.000000
# 6 0.000000 0.000000 0.000000 0.000000 0.000000 0.295507
#
#
# Mechanical properties :
#
#
# Convention : Reuss Voigt Hill
#
# Bulk Modulus (GPa) = 35.09510 40.92307 38.00909
# Shear Modulus (GPa) = 8.62943 13.51582 11.07263
#
# Velocity S-wave (km/s) = 2.61529 3.27304 2.96248
# Velocity P-wave (km/s) = 6.07753 6.83518 6.46746
#
# Compressibility (1/GPa) = 0.02849401
#
# Stress axis : x y z
#
# Youngs Moduli (GPa) = 42.93907 42.93911 68.89496
#
# Poissons Ratio (x) = 0.12925 0.45778
# Poissons Ratio (y) = 0.12925 0.45778
# Poissons Ratio (z) = 0.28531 0.28531
#
# Static dielectric constant tensor:
#      x y z
#    x 2.377880 0.000000 0.000000 
#    y 0.000000 2.377880 0.000000 
#    z 0.000000 0.000000 2.937750 
# 
# 
# High freq. dielectric constant tensor:
#      x y z
#    x 1.432530 0.000000 0.000000 
#    y 0.000000 1.432530 0.000000 
#    z 0.000000 0.000000 1.503310 
# 
# From -- ./inp_files/1953.got.cif
#   From: 2010.03.12/outbox.cif.g09.slc.cpg/sg89_1_cif.got.tgz:1953.got - 2010.04.08 20:24:03.
