data_PCOD8304466
_publ_section_title
;
Structure prediction by ZEFSAII (Michael W. Deem and Ramdas Pophale) SiO2 
 PCOD8304466
Probable space group: P 4 2 2
;
_chemical_formula_sum "Si O2"
_cell_formula_units_Z 56
_cell_length_a 21.422189
_cell_length_b 21.422189
_cell_length_c 9.887464
_cell_angle_alpha 90.000000
_cell_angle_beta 90.000000
_cell_angle_gamma 90.000000
_cell_volume 4537.457899
_symmetry_space_group_name_H-M "P 4 2 2"
_symmetry_group_IT_number 89
_symmetry_cell_setting 'tetragonal'
loop_
_space_group_symop_operation_xyz
x,y,z
-y,x,z
-x,-y,z
y,-x,z
x,-y,-z
-x,y,-z
y,x,-z
-y,-x,-z
loop_
_atom_site_type_symbol
_atom_site_label
_atom_site_fract_x
_atom_site_fract_y
_atom_site_fract_z
Si Si1 0.073029 0.169933 0.993180
Si Si2 0.253745 0.073174 0.245742
Si Si3 0.925795 0.253937 0.765298
Si Si4 0.611575 0.925429 0.844740
Si Si5 0.500553 0.925698 0.344124
Si Si6 0.925706 0.612573 0.845312
Si Si7 0.925686 0.821961 0.495194
O O1 0.097384 0.202474 0.858339
O O2 0.101184 0.101184 0.000000
O O3 0.098868 0.212957 0.111832
O O4 0.000000 0.160282 0.000000
O O5 0.321846 0.101333 0.211932
O O6 0.227059 0.093337 0.389589
O O7 0.259922 0.999599 0.232544
O O8 0.898433 0.323656 0.783333
O O9 0.903998 0.217668 0.633091
O O10 0.558598 0.900863 0.741916
O O11 0.612228 0.999875 0.847172
O O12 0.600996 0.901819 0.000039
O O13 0.500000 0.900110 0.500000
O O14 0.560560 0.901229 0.260277
O O15 0.500000 0.000000 0.349493
O O16 0.886824 0.886824 0.500000
O O17 0.000000 0.838631 0.500000
#
# Coordination Sequence:
#
# PCOD8304466 Si02
#       7
#     8   8   8   8   8   8   8
#     4  10  18  29  42  55  69  85 111 147 187 231
#     4   9  17  28  41  54  68  88 112 137 170 216
#     4   9  17  28  41  54  68  88 112 137 170 216
#     4   9  15  25  38  52  71  93 112 129 155 193
#     4   9  17  23  33  55  77  93 109 129 149 179
#     4   9  15  25  38  52  71  93 112 129 155 193
#     4  10  20  31  42  55  69  87 113 149 193 237
#
# _framework density 12.341711999999999
#
# number of rings (size 3 to 8) (size 9 to 14) (size 15 to 20)
#    0.000    2.714    1.429    1.286    2.000    2.000 
#    0.000    0.000    0.000    5.143    0.000    0.000 
#    0.000    0.000    0.000    0.000    0.000    0.000 
#
# Total GULP energy -693820.606849 kJ/mol
# GULP energy per Si atom -12389.653694 kJ/mol
# Density = 1.231362 g / cm^3
# Si number density = 12.341712 Si / 1000 Ang^3
#
#
#
# Elastic Constant Matrix: (Units=GPa)
#
#
# Indices 1 2 3 4 5 6 
#
# 1 41.3289 34.6505 24.5087 0.0000 0.0000 0.0000
# 2 34.6505 41.3289 24.5087 0.0000 0.0000 0.0000
# 3 24.5087 24.5087 66.5737 0.0000 0.0000 0.0000
# 4 0.0000 0.0000 0.0000 10.2701 0.0000 0.0000
# 5 0.0000 0.0000 0.0000 0.0000 10.2701 0.0000
# 6 0.0000 0.0000 0.0000 0.0000 0.0000 0.9889
#
#
#
# Elastic Compliance Matrix: (Units=1/GPa)
#
#
# Indices 1 2 3 4 5 6 
#
# 1 0.083498 -0.066237 -0.006355 0.000000 0.000000 0.000000
# 2 -0.066237 0.083498 -0.006355 0.000000 0.000000 0.000000
# 3 -0.006355 -0.006355 0.019700 0.000000 0.000000 0.000000
# 4 0.000000 0.000000 0.000000 0.097370 0.000000 0.000000
# 5 0.000000 0.000000 0.000000 0.000000 0.097370 0.000000
# 6 0.000000 0.000000 0.000000 0.000000 0.000000 1.011231
#
#
# Mechanical properties :
#
#
# Convention : Reuss Voigt Hill
#
# Bulk Modulus (GPa) = 34.71787 35.17415 34.94601
# Shear Modulus (GPa) = 3.20479 8.67672 5.94076
#
# Velocity S-wave (km/s) = 1.61318 2.65437 2.19636
# Velocity P-wave (km/s) = 5.62685 6.16087 5.89990
#
# Compressibility (1/GPa) = 0.02880361
#
# Stress axis : x y z
#
# Youngs Moduli (GPa) = 11.97627 11.97627 50.76213
#
# Poissons Ratio (x) = 0.79328 0.32257
# Poissons Ratio (y) = 0.79328 0.32257
# Poissons Ratio (z) = 0.07610 0.07610
#
# Static dielectric constant tensor:
#      x y z
#    x 2.323400 0.000000 0.000000 
#    y 0.000000 2.323400 0.000000 
#    z 0.000000 0.000000 2.885800 
# 
# 
# High freq. dielectric constant tensor:
#      x y z
#    x 1.426370 0.000000 0.000000 
#    y 0.000000 1.426370 0.000000 
#    z 0.000000 0.000000 1.493170 
# 
# From -- ./inp_files/1352.got.cif
#   From: 2010.03.12/outbox.cif.g09.slc.cpg/sg89_1_cif.got.tgz:1352.got - 2010.04.08 20:24:03.
