data_PCOD8304128
_publ_section_title
;
Structure prediction by ZEFSAII (Michael W. Deem and Ramdas Pophale) SiO2 
 PCOD8304128
Probable space group: I 4/M
;
_chemical_formula_sum "Si O2"
_cell_formula_units_Z 120
_cell_length_a 13.357190
_cell_length_b 13.357190
_cell_length_c 31.202079
_cell_angle_alpha 90.000000
_cell_angle_beta 90.000000
_cell_angle_gamma 90.000000
_cell_volume 5566.904094
_symmetry_space_group_name_H-M "I 4/M"
_symmetry_group_IT_number 87
_symmetry_cell_setting 'tetragonal'
loop_
_space_group_symop_operation_xyz
x,y,z
-y,x,z
-x,-y,z
y,-x,z
-x,-y,-z
y,-x,-z
x,y,-z
-y,x,-z
1/2+x,1/2+y,1/2+z
1/2-y,1/2+x,1/2+z
1/2-x,1/2-y,1/2+z
1/2+y,1/2-x,1/2+z
1/2-x,1/2-y,1/2-z
1/2+y,1/2-x,1/2-z
1/2+x,1/2+y,1/2-z
1/2-y,1/2+x,1/2-z
loop_
_atom_site_type_symbol
_atom_site_label
_atom_site_fract_x
_atom_site_fract_y
_atom_site_fract_z
Si Si1 0.855638 0.696020 0.106989
Si Si2 0.650624 0.079890 0.707964
Si Si3 0.645477 0.730501 0.921040
Si Si4 0.059037 0.150611 0.340626
Si Si5 0.037637 0.159186 0.048260
Si Si6 0.875235 0.891678 0.500000
Si Si7 0.063218 0.360708 0.803289
Si Si8 0.618152 0.989427 0.450998
O O1 0.749037 0.753347 0.103998
O O2 0.942615 0.752677 0.081362
O O3 0.886059 0.695216 0.156862
O O4 0.845429 0.586766 0.085701
O O5 0.750967 0.102207 0.681970
O O6 0.684668 0.094714 0.757301
O O7 0.558117 0.150748 0.693522
O O8 0.604693 0.972399 0.697658
O O9 0.566451 0.671246 0.891231
O O10 0.596632 0.832018 0.939496
O O11 0.677299 0.654987 0.958732
O O12 0.944085 0.128599 0.328124
O O13 0.927166 0.118601 0.055996
O O14 0.048202 0.201305 0.000000
O O15 0.990772 0.858680 0.500000
O O16 0.648832 0.958267 0.500000
O O17 0.500000 0.000000 0.447612
#
# Coordination Sequence:
#
# PCOD8304128 Si02
#       8
#    16  16  16  16  16   8  16  16
#     4  12  25  39  69  98 129 169 226 275 334 391
#     4   9  19  41  68  90 131 169 211 272 336 403
#     4  12  25  40  61  88 131 169 218 267 326 388
#     4  11  23  40  63  94 130 174 221 269 331 404
#     4   9  21  42  65  89 126 176 228 279 336 400
#     4  11  22  38  61  84 120 171 219 258 314 383
#     4   9  20  39  66 100 124 166 220 271 337 404
#     4  11  26  42  59  92 135 175 220 274 327 381
#
# _framework density 21.555968
#
# number of rings (size 3 to 8) (size 9 to 14) (size 15 to 20)
#    0.000    1.533    0.667    5.600    7.467    1.067 
#    0.000    7.333    0.000    1.600    0.000    0.000 
#    0.000    0.000    0.000    0.000    0.000    0.000 
#
# Total GULP energy -743865.916444 kJ/mol
# GULP energy per Si atom -12397.765274 kJ/mol
# Density = 2.150691 g / cm^3
# Si number density = 21.555968 Si / 1000 Ang^3
#
#
#
# Elastic Constant Matrix: (Units=GPa)
#
#
# Indices 1 2 3 4 5 6 
#
# 1 76.7156 12.1606 46.1911 0.0000 0.0000 -2.0066
# 2 12.1606 76.7156 46.1911 0.0000 0.0000 2.0066
# 3 46.1911 46.1911 148.6202 0.0000 0.0000 0.0000
# 4 0.0000 0.0000 0.0000 26.4729 0.0000 0.0000
# 5 0.0000 0.0000 0.0000 0.0000 26.4729 0.0000
# 6 -2.0066 2.0066 0.0000 0.0000 0.0000 21.4407
#
#
#
# Elastic Compliance Matrix: (Units=1/GPa)
#
#
# Indices 1 2 3 4 5 6 
#
# 1 0.016101 0.000520 -0.005166 0.000000 0.000000 0.001458
# 2 0.000520 0.016101 -0.005166 0.000000 0.000000 -0.001458
# 3 -0.005166 -0.005166 0.009940 0.000000 0.000000 0.000000
# 4 0.000000 0.000000 0.000000 0.037774 0.000000 0.000000
# 5 0.000000 0.000000 0.000000 0.000000 0.037774 0.000000
# 6 0.001458 -0.001458 0.000000 0.000000 0.000000 0.046913
#
#
# Mechanical properties :
#
#
# Convention : Reuss Voigt Hill
#
# Bulk Modulus (GPa) = 44.40760 56.79301 50.60031
# Shear Modulus (GPa) = 26.07777 28.04455 27.06116
#
# Velocity S-wave (km/s) = 3.48195 3.61087 3.54699
# Velocity P-wave (km/s) = 6.06721 6.61728 6.34821
#
# Compressibility (1/GPa) = 0.02251867
#
# Stress axis : x y z
#
# Youngs Moduli (GPa) = 62.10682 62.10682 100.60690
#
# Poissons Ratio (x) = -0.03229 0.51972
# Poissons Ratio (y) = -0.03229 0.51972
# Poissons Ratio (z) = 0.32084 0.32084
#
# Static dielectric constant tensor:
#      x y z
#    x 3.792430 0.000000 0.000000 
#    y 0.000000 3.792430 0.000000 
#    z 0.000000 0.000000 4.109940 
# 
# 
# High freq. dielectric constant tensor:
#      x y z
#    x 1.839100 0.000000 0.000000 
#    y 0.000000 1.839100 0.000000 
#    z 0.000000 0.000000 1.846230 
# 
# From -- ./inp_files/6744.got.cif
#   From: 2010.03.12/outbox.cif.g09.slc.cpg/sg87_4_cif.got.tgz:6744.got - 2010.04.08 20:16:13.
