data_PCOD8304740
_publ_section_title
;
Structure prediction by ZEFSAII (Michael W. Deem and Ramdas Pophale) SiO2 
 PCOD8304740
Probable space group: P 41 2 2
;
_chemical_formula_sum "Si O2"
_cell_formula_units_Z 48
_cell_length_a 12.591489
_cell_length_b 12.591489
_cell_length_c 17.266624
_cell_angle_alpha 90.000000
_cell_angle_beta 90.000000
_cell_angle_gamma 90.000000
_cell_volume 2737.547180
_symmetry_space_group_name_H-M "P 41 2 2"
_symmetry_group_IT_number 91
_symmetry_cell_setting 'tetragonal'
loop_
_space_group_symop_operation_xyz
x,y,z
-y,x,1/4+z
-x,-y,1/2+z
y,-x,3/4+z
x,-y,1/2-z
-x,y,-z
y,x,3/4-z
-y,-x,1/4-z
loop_
_atom_site_type_symbol
_atom_site_label
_atom_site_fract_x
_atom_site_fract_y
_atom_site_fract_z
Si Si1 0.500000 0.948929 0.500000
Si Si2 0.134699 0.120385 0.617762
Si Si3 0.618338 0.123603 0.408637
Si Si4 0.082344 0.365952 0.610950
Si Si5 0.000000 0.988548 0.500000
Si Si6 0.858546 0.573934 0.944605
Si Si7 0.354854 0.645147 0.125000
Si Si8 0.706691 0.500000 0.750000
O O1 0.583809 0.016777 0.451199
O O2 0.431033 0.880684 0.437970
O O3 0.260867 0.108105 0.615499
O O4 0.112649 0.244565 0.619149
O O5 0.088049 0.065962 0.694056
O O6 0.082685 0.065260 0.543223
O O7 0.549350 0.144788 0.330949
O O8 0.596799 0.220959 0.467676
O O9 0.137101 0.421201 0.537171
O O10 0.955818 0.369745 0.599403
O O11 0.757259 0.639400 0.917422
O O12 0.451387 0.630998 0.065187
#
# Coordination Sequence:
#
# PCOD8304740 Si02
#       8
#     4   8   8   8   4   8   4   4
#     4   9  18  32  50  75 100 130 174 215 254 303
#     4  11  21  36  51  73 108 139 170 211 250 304
#     4   9  18  33  52  72  99 133 170 212 259 303
#     4  10  19  31  52  77 101 132 170 216 258 296
#     4  10  24  34  48  76 104 144 178 194 250 314
#     4   9  19  32  52  79  98 126 171 215 261 302
#     4  10  18  32  52  76 104 126 164 212 256 306
#     4   9  18  30  52  79  96 128 166 205 264 309
#
# _framework density 17.533943000000001
#
# number of rings (size 3 to 8) (size 9 to 14) (size 15 to 20)
#    0.000    2.333    0.000    4.000    0.000    5.333 
#    0.000    0.000    0.000    9.000    0.000    0.000 
#    0.000    0.000    0.000    0.000    0.000    0.000 
#
# Total GULP energy -595075.499132 kJ/mol
# GULP energy per Si atom -12397.406232 kJ/mol
# Density = 1.749404 g / cm^3
# Si number density = 17.533943 Si / 1000 Ang^3
#
#
#
# Elastic Constant Matrix: (Units=GPa)
#
#
# Indices 1 2 3 4 5 6 
#
# 1 108.2472 48.9901 57.2501 0.0000 0.0000 0.0000
# 2 48.9901 108.2478 57.2504 0.0000 0.0000 0.0000
# 3 57.2501 57.2504 135.5740 0.0000 0.0000 0.0000
# 4 0.0000 0.0000 0.0000 24.7871 0.0000 0.0000
# 5 0.0000 0.0000 0.0000 0.0000 24.7876 0.0000
# 6 0.0000 0.0000 0.0000 0.0000 0.0000 7.0069
#
#
#
# Elastic Compliance Matrix: (Units=1/GPa)
#
#
# Indices 1 2 3 4 5 6 
#
# 1 0.013030 -0.003846 -0.003878 0.000000 0.000000 0.000000
# 2 -0.003846 0.013030 -0.003878 0.000000 0.000000 0.000000
# 3 -0.003878 -0.003878 0.010651 0.000000 0.000000 0.000000
# 4 0.000000 0.000000 0.000000 0.040344 0.000000 0.000000
# 5 0.000000 0.000000 0.000000 0.000000 0.040343 0.000000
# 6 0.000000 0.000000 0.000000 0.000000 0.000000 0.142717
#
#
# Mechanical properties :
#
#
# Convention : Reuss Voigt Hill
#
# Bulk Modulus (GPa) = 74.03853 75.45000 74.74426
# Shear Modulus (GPa) = 17.37193 23.88821 20.63007
#
# Velocity S-wave (km/s) = 3.15105 3.69507 3.43385
# Velocity P-wave (km/s) = 7.45361 7.83128 7.64478
#
# Compressibility (1/GPa) = 0.01350648
#
# Stress axis : x y z
#
# Youngs Moduli (GPa) = 76.74753 76.74784 93.88432
#
# Poissons Ratio (x) = 0.29516 0.36410
# Poissons Ratio (y) = 0.29516 0.36410
# Poissons Ratio (z) = 0.29764 0.29764
#
# Static dielectric constant tensor:
#      x y z
#    x 3.157470 0.000000 0.000000 
#    y 0.000000 3.157470 0.000000 
#    z 0.000000 0.000000 3.597470 
# 
# 
# High freq. dielectric constant tensor:
#      x y z
#    x 1.665170 0.000000 0.000000 
#    y 0.000000 1.665170 0.000000 
#    z 0.000000 0.000000 1.691290 
# 
# From -- ./inp_files/12011.got.cif
#   From: 2010.03.12/outbox.cif.g09.slc.cpg/sg91_7_cif.got.tgz:12011.got - 2010.04.08 20:27:58.
