data_PCOD8304808
_publ_section_title
;
Structure prediction by ZEFSAII (Michael W. Deem and Ramdas Pophale) SiO2 
 PCOD8304808
Probable space group: P 41 2 2
;
_chemical_formula_sum "Si O2"
_cell_formula_units_Z 56
_cell_length_a 11.765167
_cell_length_b 11.765167
_cell_length_c 21.505958
_cell_angle_alpha 90.000000
_cell_angle_beta 90.000000
_cell_angle_gamma 90.000000
_cell_volume 2976.836524
_symmetry_space_group_name_H-M "P 41 2 2"
_symmetry_group_IT_number 91
_symmetry_cell_setting 'tetragonal'
loop_
_space_group_symop_operation_xyz
x,y,z
-y,x,1/4+z
-x,-y,1/2+z
y,-x,3/4+z
x,-y,1/2-z
-x,y,-z
y,x,3/4-z
-y,-x,1/4-z
loop_
_atom_site_type_symbol
_atom_site_label
_atom_site_fract_x
_atom_site_fract_y
_atom_site_fract_z
Si Si1 0.148144 0.286718 0.824840
Si Si2 0.306353 0.106001 0.591500
Si Si3 0.532328 0.768737 0.763101
Si Si4 0.837306 0.540385 0.128820
Si Si5 0.911540 0.433588 0.627234
Si Si6 0.752351 0.369510 0.731219
Si Si7 0.278436 0.268370 0.699148
O O1 0.217400 0.217400 0.875000
O O2 0.162169 0.420223 0.836530
O O3 0.195123 0.254609 0.757260
O O4 0.016222 0.249123 0.829130
O O5 0.439867 0.090005 0.597099
O O6 0.287947 0.189856 0.532984
O O7 0.254801 0.160735 0.654131
O O8 0.523947 0.806758 0.692577
O O9 0.568440 0.876338 0.805042
O O10 0.622905 0.669889 0.777012
O O11 0.409489 0.722133 0.782001
O O12 0.743013 0.615617 0.162198
O O13 0.958029 0.606617 0.133911
O O14 0.826191 0.356004 0.668010
O O15 0.747933 0.500000 0.750000
#
# Coordination Sequence:
#
# PCOD8304808 Si02
#       7
#     8   8   8   8   8   8   8
#     4  11  22  38  60  87 115 153 202 243 298 354
#     4   9  20  37  59  82 115 155 200 244 284 348
#     4  11  21  36  58  90 122 153 195 244 300 356
#     4  11  21  39  59  85 121 152 199 248 292 358
#     4   9  20  35  59  84 111 159 206 239 281 343
#     4  10  19  36  56  85 121 160 194 233 297 358
#     4  11  22  38  60  90 120 157 192 244 307 355
#
# _framework density 18.811917999999999
#
# number of rings (size 3 to 8) (size 9 to 14) (size 15 to 20)
#    0.000    1.714    2.857    2.143    0.000    4.000 
#    0.000    0.000    0.000    5.143    0.000    0.000 
#    0.000    0.000    0.000    0.000    0.000    0.000 
#
# Total GULP energy -694379.424247 kJ/mol
# GULP energy per Si atom -12399.632576 kJ/mol
# Density = 1.876910 g / cm^3
# Si number density = 18.811918 Si / 1000 Ang^3
#
#
#
# Elastic Constant Matrix: (Units=GPa)
#
#
# Indices 1 2 3 4 5 6 
#
# 1 87.8743 58.3233 51.9110 0.0000 0.0000 0.0000
# 2 58.3233 87.8743 51.9110 0.0000 0.0000 0.0000
# 3 51.9110 51.9110 144.3222 0.0000 0.0000 0.0000
# 4 0.0000 0.0000 0.0000 25.0179 0.0000 0.0000
# 5 0.0000 0.0000 0.0000 0.0000 25.0179 0.0000
# 6 0.0000 0.0000 0.0000 0.0000 0.0000 8.6841
#
#
#
# Elastic Compliance Matrix: (Units=1/GPa)
#
#
# Indices 1 2 3 4 5 6 
#
# 1 0.021513 -0.012327 -0.003304 0.000000 0.000000 0.000000
# 2 -0.012327 0.021513 -0.003304 0.000000 0.000000 0.000000
# 3 -0.003304 -0.003304 0.009306 0.000000 0.000000 0.000000
# 4 0.000000 0.000000 0.000000 0.039971 0.000000 0.000000
# 5 0.000000 0.000000 0.000000 0.000000 0.039971 0.000000
# 6 0.000000 0.000000 0.000000 0.000000 0.000000 0.115153
#
#
# Mechanical properties :
#
#
# Convention : Reuss Voigt Hill
#
# Bulk Modulus (GPa) = 69.14696 71.59569 70.37133
# Shear Modulus (GPa) = 17.23430 22.27235 19.75332
#
# Velocity S-wave (km/s) = 3.03006 3.44459 3.24395
# Velocity P-wave (km/s) = 7.00560 7.34585 7.17774
#
# Compressibility (1/GPa) = 0.01446195
#
# Stress axis : x y z
#
# Youngs Moduli (GPa) = 46.48308 46.48308 107.45765
#
# Poissons Ratio (x) = 0.57298 0.35507
# Poissons Ratio (y) = 0.57298 0.35507
# Poissons Ratio (z) = 0.15359 0.15359
#
# Static dielectric constant tensor:
#      x y z
#    x 3.435910 0.000000 0.000000 
#    y 0.000000 3.435910 0.000000 
#    z 0.000000 0.000000 3.397770 
# 
# 
# High freq. dielectric constant tensor:
#      x y z
#    x 1.716530 0.000000 0.000000 
#    y 0.000000 1.716530 0.000000 
#    z 0.000000 0.000000 1.751950 
# 
# From -- ./inp_files/6393.got.cif
#   From: 2010.03.12/outbox.cif.g09.slc.cpg/sg91_4_cif.got.tgz:6393.got - 2010.04.08 20:27:58.
