data_PCOD8304379
_publ_section_title
;
Structure prediction by ZEFSAII (Michael W. Deem and Ramdas Pophale) SiO2 
 PCOD8304379
Probable space group: I 41/A
;
_chemical_formula_sum "Si O2"
_cell_formula_units_Z 80
_cell_length_a 11.789623
_cell_length_b 11.789623
_cell_length_c 29.470244
_cell_angle_alpha 90.000000
_cell_angle_beta 90.000000
_cell_angle_gamma 90.000000
_cell_volume 4096.222768
_symmetry_space_group_name_H-M "I 41/A"
_symmetry_group_IT_number 88
_space_group.IT_coordinate_system_code '2'
_symmetry_cell_setting 'tetragonal'
loop_
_space_group_symop_operation_xyz
x,y,z
3/4-y,1/4+x,1/4+z
-x,1/2-y,z
1/4+y,1/4-x,1/4+z
-x,-y,-z
1/4+y,3/4-x,3/4-z
x,1/2+y,-z
3/4-y,3/4+x,3/4-z
1/2+x,1/2+y,1/2+z
1/4-y,3/4+x,3/4+z
1/2-x,-y,1/2+z
3/4+y,3/4-x,3/4+z
1/2-x,1/2-y,1/2-z
3/4+y,1/4-x,1/4-z
1/2+x,y,1/2-z
1/4-y,1/4+x,1/4-z
loop_
_atom_site_type_symbol
_atom_site_label
_atom_site_fract_x
_atom_site_fract_y
_atom_site_fract_z
Si Si1 0.353042 0.362527 0.868807
Si Si2 0.720827 0.365088 0.724068
Si Si3 0.258257 0.030526 0.058064
Si Si4 0.505966 0.873065 0.331698
Si Si5 0.555296 0.586700 0.611930
O O1 0.481786 0.405300 0.866811
O O2 0.300064 0.381241 0.819446
O O3 0.282842 0.432659 0.905653
O O4 0.750000 0.250000 0.750000
O O5 0.736902 0.474117 0.756988
O O6 0.588527 0.363009 0.711504
O O7 0.346957 0.131525 0.064921
O O8 0.129163 0.077213 0.065588
O O9 0.500000 0.750000 0.356158
O O10 0.556577 0.963264 0.366392
O O11 0.426886 0.631184 0.604011
#
# Coordination Sequence:
#
# PCOD8304379 Si02
#       5
#    16  16  16  16  16
#     4  11  23  38  59  89 131 168 214 270 329 390
#     4  12  23  38  60  97 131 165 215 271 333 400
#     4  11  23  38  62  92 124 171 210 266 328 388
#     4  11  21  37  63  90 122 164 212 259 320 388
#     4   9  20  41  65  87 120 167 216 259 316 385
#
# _framework density 19.530187999999999
#
# number of rings (size 3 to 8) (size 9 to 14) (size 15 to 20)
#    0.000    1.200    6.000    0.000    2.800    0.000 
#    0.000    1.000    0.000    0.000    5.200    0.000 
#    0.000    0.000    0.000    0.000    0.000    0.000 
#
# Total GULP energy -495895.495937 kJ/mol
# GULP energy per Si atom -12397.387398 kJ/mol
# Density = 1.948574 g / cm^3
# Si number density = 19.530188 Si / 1000 Ang^3
#
#
#
# Elastic Constant Matrix: (Units=GPa)
#
#
# Indices 1 2 3 4 5 6 
#
# 1 114.0233 28.2404 39.3550 0.0000 0.0000 -4.4725
# 2 28.2404 114.0233 39.3550 0.0000 0.0000 4.4725
# 3 39.3550 39.3550 117.9771 0.0000 0.0000 0.0000
# 4 0.0000 0.0000 0.0000 30.8894 0.0000 0.0000
# 5 0.0000 0.0000 0.0000 0.0000 30.8894 0.0000
# 6 -4.4725 4.4725 0.0000 0.0000 0.0000 23.8408
#
#
#
# Elastic Compliance Matrix: (Units=1/GPa)
#
#
# Indices 1 2 3 4 5 6 
#
# 1 0.010255 -0.001635 -0.002876 0.000000 0.000000 0.002231
# 2 -0.001635 0.010255 -0.002876 0.000000 0.000000 -0.002231
# 3 -0.002876 -0.002876 0.010395 0.000000 0.000000 0.000000
# 4 0.000000 0.000000 0.000000 0.032374 0.000000 0.000000
# 5 0.000000 0.000000 0.000000 0.000000 0.032374 0.000000
# 6 0.002231 -0.002231 0.000000 0.000000 0.000000 0.042782
#
#
# Mechanical properties :
#
#
# Convention : Reuss Voigt Hill
#
# Bulk Modulus (GPa) = 61.98528 62.21380 62.09954
# Shear Modulus (GPa) = 31.52920 33.06213 32.29566
#
# Velocity S-wave (km/s) = 4.02230 4.11892 4.07089
# Velocity P-wave (km/s) = 7.30609 7.38546 7.34588
#
# Compressibility (1/GPa) = 0.01613286
#
# Stress axis : x y z
#
# Youngs Moduli (GPa) = 97.51314 97.51314 96.20323
#
# Poissons Ratio (x) = 0.15942 0.27663
# Poissons Ratio (y) = 0.15942 0.27663
# Poissons Ratio (z) = 0.28040 0.28040
#
# Static dielectric constant tensor:
#      x y z
#    x 3.831840 0.000000 0.000000 
#    y 0.000000 3.831840 0.000000 
#    z 0.000000 0.000000 3.414180 
# 
# 
# High freq. dielectric constant tensor:
#      x y z
#    x 1.777600 0.000000 0.000000 
#    y 0.000000 1.777600 0.000000 
#    z 0.000000 0.000000 1.724430 
# 
# From -- ./inp_files/6286.got.cif
#   From: 2010.03.12/outbox.cif.g09.slc.cpg/sg88_4_cif.got.tgz:6286.got - 2010.04.08 20:20:55.
