data_PCOD8304915
_publ_section_title
;
Structure prediction by ZEFSAII (Michael W. Deem and Ramdas Pophale) SiO2 
 PCOD8304915
Probable space group: P 41 2 2
;
_chemical_formula_sum "Si O2"
_cell_formula_units_Z 48
_cell_length_a 8.851031
_cell_length_b 8.851031
_cell_length_c 30.983848
_cell_angle_alpha 90.000000
_cell_angle_beta 90.000000
_cell_angle_gamma 90.000000
_cell_volume 2427.297883
_symmetry_space_group_name_H-M "P 41 2 2"
_symmetry_group_IT_number 91
_symmetry_cell_setting 'tetragonal'
loop_
_space_group_symop_operation_xyz
x,y,z
-y,x,1/4+z
-x,-y,1/2+z
y,-x,3/4+z
x,-y,1/2-z
-x,y,-z
y,x,3/4-z
-y,-x,1/4-z
loop_
_atom_site_type_symbol
_atom_site_label
_atom_site_fract_x
_atom_site_fract_y
_atom_site_fract_z
Si Si1 0.643612 0.821964 0.337108
Si Si2 0.081659 0.061217 0.954344
Si Si3 0.070235 0.428170 0.372916
Si Si4 0.403809 0.596192 0.125000
Si Si5 0.598206 0.554993 0.040599
Si Si6 0.389582 0.105059 0.536929
Si Si7 0.081337 0.081337 0.375000
O O1 0.717582 0.717582 0.375000
O O2 0.770174 0.923408 0.314388
O O3 0.568509 0.726913 0.298526
O O4 0.512654 0.935694 0.352593
O O5 0.252141 0.009146 0.960986
O O6 0.008040 0.956456 0.918328
O O7 0.000000 0.049596 0.000000
O O8 0.235831 0.429642 0.395239
O O9 0.093714 0.510399 0.328576
O O10 0.033135 0.252986 0.365371
O O11 0.509860 0.558908 0.085368
O O12 0.664935 0.721493 0.029620
O O13 0.500000 0.498129 0.000000
O O14 0.500000 0.047954 0.500000
#
# Coordination Sequence:
#
# PCOD8304915 Si02
#       7
#     8   8   8   4   8   8   4
#     4  12  23  42  60  92 133 172 213 273 332 395
#     4  12  25  42  62  94 133 174 219 267 334 404
#     4  10  21  39  67  90 123 166 212 266 334 385
#     4   9  20  39  64  92 120 161 212 271 320 384
#     4  10  22  40  64  92 124 167 218 265 327 391
#     4  10  20  40  64  94 128 166 217 273 323 397
#     4  11  22  43  66  96 122 169 222 271 328 398
#
# _framework density 19.775077
#
# number of rings (size 3 to 8) (size 9 to 14) (size 15 to 20)
#    0.000    1.333    3.333    2.000    0.000    4.667 
#    3.000    1.667    0.000    0.000    0.000    0.000 
#    0.000    0.000    0.000    0.000    0.000    0.000 
#
# Total GULP energy -594963.993545 kJ/mol
# GULP energy per Si atom -12395.083199 kJ/mol
# Density = 1.973007 g / cm^3
# Si number density = 19.775077 Si / 1000 Ang^3
#
#
#
# Elastic Constant Matrix: (Units=GPa)
#
#
# Indices 1 2 3 4 5 6 
#
# 1 109.7912 23.5127 15.5552 0.0000 0.0000 0.0000
# 2 23.5127 109.7881 15.5519 0.0000 0.0000 0.0000
# 3 15.5552 15.5519 67.6008 0.0000 0.0000 0.0000
# 4 0.0000 0.0000 0.0000 28.2351 0.0000 0.0000
# 5 0.0000 0.0000 0.0000 0.0000 28.2348 0.0000
# 6 0.0000 0.0000 0.0000 0.0000 0.0000 39.7748
#
#
#
# Elastic Compliance Matrix: (Units=1/GPa)
#
#
# Indices 1 2 3 4 5 6 
#
# 1 0.009759 -0.001832 -0.001824 0.000000 0.000000 0.000000
# 2 -0.001832 0.009759 -0.001824 0.000000 0.000000 0.000000
# 3 -0.001824 -0.001824 0.015632 0.000000 0.000000 0.000000
# 4 0.000000 0.000000 0.000000 0.035417 0.000000 0.000000
# 5 0.000000 0.000000 0.000000 0.000000 0.035417 0.000000
# 6 0.000000 0.000000 0.000000 0.000000 0.000000 0.025142
#
#
# Mechanical properties :
#
#
# Convention : Reuss Voigt Hill
#
# Bulk Modulus (GPa) = 41.33760 44.04665 42.69213
# Shear Modulus (GPa) = 33.30038 34.75293 34.02666
#
# Velocity S-wave (km/s) = 4.10806 4.19670 4.15261
# Velocity P-wave (km/s) = 6.59172 6.76795 6.68042
#
# Compressibility (1/GPa) = 0.02419105
#
# Stress axis : x y z
#
# Youngs Moduli (GPa) = 102.47048 102.46898 63.97127
#
# Poissons Ratio (x) = 0.18768 0.11670
# Poissons Ratio (y) = 0.18769 0.11666
# Poissons Ratio (z) = 0.18693 0.18687
#
# Static dielectric constant tensor:
#      x y z
#    x 4.007080 0.000000 0.000000 
#    y 0.000000 4.007090 0.000000 
#    z 0.000000 0.000000 3.403080 
# 
# 
# High freq. dielectric constant tensor:
#      x y z
#    x 1.778740 0.000000 0.000000 
#    y 0.000000 1.778740 0.000000 
#    z 0.000000 0.000000 1.773130 
# 
# From -- ./inp_files/18208.got.cif
#   From: 2010.03.12/outbox.cif.g09.slc.cpg/sg91_10_cif.got.tgz:18208.got - 2010.04.08 20:27:58.
