data_PCOD8304304
_publ_section_title
;
Structure prediction by ZEFSAII (Michael W. Deem and Ramdas Pophale) SiO2 
 PCOD8304304
Probable space group: I 41/A
;
_chemical_formula_sum "Si O2"
_cell_formula_units_Z 96
_cell_length_a 13.736272
_cell_length_b 13.736272
_cell_length_c 21.454349
_cell_angle_alpha 90.000000
_cell_angle_beta 90.000000
_cell_angle_gamma 90.000000
_cell_volume 4048.117455
_symmetry_space_group_name_H-M "I 41/A"
_symmetry_group_IT_number 88
_space_group.IT_coordinate_system_code '2'
_symmetry_cell_setting 'tetragonal'
loop_
_space_group_symop_operation_xyz
x,y,z
3/4-y,1/4+x,1/4+z
-x,1/2-y,z
1/4+y,1/4-x,1/4+z
-x,-y,-z
1/4+y,3/4-x,3/4-z
x,1/2+y,-z
3/4-y,3/4+x,3/4-z
1/2+x,1/2+y,1/2+z
1/4-y,3/4+x,3/4+z
1/2-x,-y,1/2+z
3/4+y,3/4-x,3/4+z
1/2-x,1/2-y,1/2-z
3/4+y,1/4-x,1/4-z
1/2+x,y,1/2-z
1/4-y,1/4+x,1/4-z
loop_
_atom_site_type_symbol
_atom_site_label
_atom_site_fract_x
_atom_site_fract_y
_atom_site_fract_z
Si Si1 0.289640 0.237482 0.929510
Si Si2 0.755643 0.415178 0.025946
Si Si3 0.000000 0.750000 0.675413
Si Si4 0.366176 0.406216 0.241002
Si Si5 0.151439 0.200345 0.827074
Si Si6 0.000000 0.250000 0.522546
Si Si7 0.085234 0.374164 0.122304
O O1 0.251845 0.324742 0.972307
O O2 0.247564 0.251010 0.858668
O O3 0.406548 0.242634 0.932262
O O4 0.250583 0.134293 0.957612
O O5 0.829030 0.506003 0.032769
O O6 0.648535 0.442893 0.048824
O O7 0.795057 0.334955 0.074087
O O8 0.920050 0.808816 0.716043
O O9 0.937205 0.675733 0.633434
O O10 0.353930 0.406245 0.315127
O O11 0.096709 0.259765 0.771763
O O12 0.117223 0.273464 0.154750
#
# Coordination Sequence:
#
# PCOD8304304 Si02
#       7
#    16  16   8  16  16   8  16
#     4  10  21  43  62  95 129 171 232 272 341 414
#     4  11  23  38  61  90 128 174 218 276 332 402
#     4   9  20  38  63  87 124 175 216 273 341 400
#     4  11  23  38  63  92 129 173 215 270 332 405
#     4   9  20  39  63  94 126 170 231 277 336 412
#     4   9  20  40  70  92 136 182 210 298 351 394
#     4  11  23  37  56  91 130 164 209 263 326 399
#
# _framework density 23.714727
#
# number of rings (size 3 to 8) (size 9 to 14) (size 15 to 20)
#    0.000    1.833    1.667    2.000    4.667    3.333 
#    0.000    6.667    0.000    0.000    0.000    0.000 
#    0.000    0.000    0.000    0.000    0.000    0.000 
#
# Total GULP energy -594809.760527 kJ/mol
# GULP energy per Si atom -12391.870011 kJ/mol
# Density = 2.366075 g / cm^3
# Si number density = 23.714727 Si / 1000 Ang^3
#
#
#
# Elastic Constant Matrix: (Units=GPa)
#
#
# Indices 1 2 3 4 5 6 
#
# 1 98.4864 32.8543 22.5634 0.0000 0.0000 -2.4226
# 2 32.8543 98.4864 22.5634 0.0000 0.0000 2.4226
# 3 22.5634 22.5634 52.1461 0.0000 0.0000 0.0000
# 4 0.0000 0.0000 0.0000 11.9920 0.0000 0.0000
# 5 0.0000 0.0000 0.0000 0.0000 11.9920 0.0000
# 6 -2.4226 2.4226 0.0000 0.0000 0.0000 34.0145
#
#
#
# Elastic Compliance Matrix: (Units=1/GPa)
#
#
# Indices 1 2 3 4 5 6 
#
# 1 0.012130 -0.003187 -0.003870 0.000000 0.000000 0.001091
# 2 -0.003187 0.012130 -0.003870 0.000000 0.000000 -0.001091
# 3 -0.003870 -0.003870 0.022526 0.000000 0.000000 0.000000
# 4 0.000000 0.000000 0.000000 0.083389 0.000000 0.000000
# 5 0.000000 0.000000 0.000000 0.000000 0.083389 0.000000
# 6 0.001091 -0.001091 0.000000 0.000000 0.000000 0.029555
#
#
# Mechanical properties :
#
#
# Convention : Reuss Voigt Hill
#
# Bulk Modulus (GPa) = 40.10675 45.00901 42.55788
# Shear Modulus (GPa) = 18.29609 23.00888 20.65249
#
# Velocity S-wave (km/s) = 2.78062 3.11824 2.95426
# Velocity P-wave (km/s) = 5.22092 5.65554 5.44257
#
# Compressibility (1/GPa) = 0.02493346
#
# Stress axis : x y z
#
# Youngs Moduli (GPa) = 82.43901 82.43901 44.39363
#
# Poissons Ratio (x) = 0.26272 0.17179
# Poissons Ratio (y) = 0.26272 0.17179
# Poissons Ratio (z) = 0.31902 0.31902
#
# Static dielectric constant tensor:
#      x y z
#    x 4.157330 0.000000 0.000000 
#    y 0.000000 4.157330 0.000000 
#    z 0.000000 0.000000 4.146750 
# 
# 
# High freq. dielectric constant tensor:
#      x y z
#    x 1.932450 0.000000 0.000000 
#    y 0.000000 1.932450 0.000000 
#    z 0.000000 0.000000 1.937530 
# 
# From -- ./inp_files/4748.got.cif
#   From: 2010.03.12/outbox.cif.g09.slc.cpg/sg88_3_cif.got.tgz:4748.got - 2010.04.08 20:20:55.
