data_PCOD8304904
_publ_section_title
;
Structure prediction by ZEFSAII (Michael W. Deem and Ramdas Pophale) SiO2 
 PCOD8304904
Probable space group: P 41 2 2
;
_chemical_formula_sum "Si O2"
_cell_formula_units_Z 56
_cell_length_a 11.218190
_cell_length_b 11.218190
_cell_length_c 22.562819
_cell_angle_alpha 90.000000
_cell_angle_beta 90.000000
_cell_angle_gamma 90.000000
_cell_volume 2839.480837
_symmetry_space_group_name_H-M "P 41 2 2"
_symmetry_group_IT_number 91
_symmetry_cell_setting 'tetragonal'
loop_
_space_group_symop_operation_xyz
x,y,z
-y,x,1/4+z
-x,-y,1/2+z
y,-x,3/4+z
x,-y,1/2-z
-x,y,-z
y,x,3/4-z
-y,-x,1/4-z
loop_
_atom_site_type_symbol
_atom_site_label
_atom_site_fract_x
_atom_site_fract_y
_atom_site_fract_z
Si Si1 0.711916 0.326670 0.239114
Si Si2 0.351716 0.526825 0.845886
Si Si3 0.082880 0.609053 0.552125
Si Si4 0.865799 0.859885 0.740685
Si Si5 0.845164 0.641143 0.076655
Si Si6 0.077926 0.221016 0.688828
Si Si7 0.812979 0.006156 0.370884
O O1 0.628734 0.375875 0.293507
O O2 0.726024 0.422632 0.185947
O O3 0.640591 0.218725 0.211108
O O4 0.843971 0.291797 0.262138
O O5 0.473626 0.473626 0.875000
O O6 0.279629 0.590903 0.898559
O O7 0.069886 0.467897 0.559597
O O8 0.000000 0.654906 0.500000
O O9 0.033288 0.677100 0.609621
O O10 0.726030 0.824419 0.731438
O O11 0.927110 0.814393 0.681906
O O12 0.937959 0.791739 0.792944
O O13 0.878018 0.000000 0.750000
O O14 0.919466 0.712932 0.126038
O O15 0.134539 0.089527 0.681495
O O16 0.885622 0.885622 0.375000
#
# Coordination Sequence:
#
# PCOD8304904 Si02
#       7
#     8   8   8   8   8   8   8
#     4  10  21  35  62  92 115 159 202 264 325 360
#     4  10  20  39  61  86 120 157 213 262 310 371
#     4  12  23  38  60  89 131 153 205 271 323 367
#     4  11  22  39  61  87 133 171 202 249 317 399
#     4  10  24  38  59  91 123 168 211 251 320 378
#     4  10  21  40  59  92 125 158 211 255 311 399
#     4  11  22  33  60  94 118 157 205 253 319 383
#
# _framework density 19.721916
#
# number of rings (size 3 to 8) (size 9 to 14) (size 15 to 20)
#    0.000    1.429    4.286    1.286    4.000    0.000 
#    0.000    0.000    3.143    3.429    0.000    0.000 
#    0.000    0.000    0.000    0.000    0.000    0.000 
#
# Total GULP energy -694036.593733 kJ/mol
# GULP energy per Si atom -12393.510602 kJ/mol
# Density = 1.967703 g / cm^3
# Si number density = 19.721916 Si / 1000 Ang^3
#
#
#
# Elastic Constant Matrix: (Units=GPa)
#
#
# Indices 1 2 3 4 5 6 
#
# 1 112.3506 32.7406 34.4145 0.0000 0.0000 0.0000
# 2 32.7406 112.3506 34.4145 0.0000 0.0000 0.0000
# 3 34.4145 34.4145 55.6811 0.0000 0.0000 0.0000
# 4 0.0000 0.0000 0.0000 32.4966 0.0000 0.0000
# 5 0.0000 0.0000 0.0000 0.0000 32.4966 0.0000
# 6 0.0000 0.0000 0.0000 0.0000 0.0000 28.7715
#
#
#
# Elastic Compliance Matrix: (Units=1/GPa)
#
#
# Indices 1 2 3 4 5 6 
#
# 1 0.011156 -0.001405 -0.006027 0.000000 0.000000 0.000000
# 2 -0.001405 0.011156 -0.006027 0.000000 0.000000 0.000000
# 3 -0.006027 -0.006027 0.025409 0.000000 0.000000 0.000000
# 4 0.000000 0.000000 0.000000 0.030772 0.000000 0.000000
# 5 0.000000 0.000000 0.000000 0.000000 0.030772 0.000000
# 6 0.000000 0.000000 0.000000 0.000000 0.000000 0.034757
#
#
# Mechanical properties :
#
#
# Convention : Reuss Voigt Hill
#
# Bulk Modulus (GPa) = 48.06688 53.72463 50.89576
# Shear Modulus (GPa) = 28.10945 30.67376 29.39161
#
# Velocity S-wave (km/s) = 3.77940 3.94802 3.86463
# Velocity P-wave (km/s) = 6.59321 6.93417 6.76584
#
# Compressibility (1/GPa) = 0.02080435
#
# Stress axis : x y z
#
# Youngs Moduli (GPa) = 89.63565 89.63565 39.35538
#
# Poissons Ratio (x) = 0.12594 0.23719
# Poissons Ratio (y) = 0.12594 0.23719
# Poissons Ratio (z) = 0.54023 0.54023
#
# Static dielectric constant tensor:
#      x y z
#    x 3.712060 0.000000 0.000000 
#    y 0.000000 3.712060 0.000000 
#    z 0.000000 0.000000 3.799540 
# 
# 
# High freq. dielectric constant tensor:
#      x y z
#    x 1.757610 0.000000 0.000000 
#    y 0.000000 1.757610 0.000000 
#    z 0.000000 0.000000 1.772920 
# 
# From -- ./inp_files/6388.got.cif
#   From: 2010.03.12/outbox.cif.g09.slc.cpg/sg91_4_cif.got.tgz:6388.got - 2010.04.08 20:27:58.
