data_PCOD8304508
_publ_section_title
;
Structure prediction by ZEFSAII (Michael W. Deem and Ramdas Pophale) SiO2 
 PCOD8304508
Probable space group: P 4 2 2
;
_chemical_formula_sum "Si O2"
_cell_formula_units_Z 48
_cell_length_a 8.840252
_cell_length_b 8.840252
_cell_length_c 31.124886
_cell_angle_alpha 90.000000
_cell_angle_beta 90.000000
_cell_angle_gamma 90.000000
_cell_volume 2432.411566
_symmetry_space_group_name_H-M "P 4 2 2"
_symmetry_group_IT_number 89
_symmetry_cell_setting 'tetragonal'
loop_
_space_group_symop_operation_xyz
x,y,z
-y,x,z
-x,-y,z
y,-x,z
x,-y,-z
-x,y,-z
y,x,-z
-y,-x,-z
loop_
_atom_site_type_symbol
_atom_site_label
_atom_site_fract_x
_atom_site_fract_y
_atom_site_fract_z
Si Si1 0.021681 0.246313 0.047746
Si Si2 0.174969 0.174969 0.500000
Si Si3 0.258007 0.428112 0.822215
Si Si4 0.343602 0.691367 0.580395
Si Si5 0.200794 0.860189 0.655621
Si Si6 0.884344 0.780474 0.754735
Si Si7 0.000000 0.500000 0.886781
O O1 0.160576 0.134662 0.054891
O O2 0.064094 0.371706 0.082341
O O3 0.000000 0.315823 0.000000
O O4 0.226570 0.257045 0.542718
O O5 0.000000 0.211386 0.500000
O O6 0.399584 0.314217 0.824446
O O7 0.173956 0.369399 0.779253
O O8 0.134104 0.419699 0.859881
O O9 0.290164 0.520951 0.575808
O O10 0.313926 0.764671 0.626760
O O11 0.249564 0.847388 0.705085
O O12 0.036629 0.793788 0.644610
O O13 0.062156 0.799256 0.766317
#
# Coordination Sequence:
#
# PCOD8304508 Si02
#       7
#     8   4   8   8   8   8   4
#     4   9  19  36  58  85 114 145 188 241 292 345
#     4  11  24  41  62  86 112 145 190 241 290 346
#     4  11  24  38  53  79 115 151 190 239 292 347
#     4  11  24  39  56  84 120 154 189 231 283 346
#     4   9  19  37  61  87 113 144 188 237 284 341
#     4   9  19  38  62  85 111 148 195 245 295 351
#     4  12  21  36  58  82 112 154 194 232 289 360
#
# _framework density 19.733504
#
# number of rings (size 3 to 8) (size 9 to 14) (size 15 to 20)
#    0.000    1.917    0.000    5.250    0.000    6.667 
#    0.000    6.667    0.000    0.000    0.000    7.000 
#    0.000    0.000    0.000    0.000    0.000    0.000 
#
# Total GULP energy -594760.526980 kJ/mol
# GULP energy per Si atom -12390.844312 kJ/mol
# Density = 1.968859 g / cm^3
# Si number density = 19.733504 Si / 1000 Ang^3
#
#
#
# Elastic Constant Matrix: (Units=GPa)
#
#
# Indices 1 2 3 4 5 6 
#
# 1 68.6752 93.0822 68.4176 0.0000 0.0000 0.0000
# 2 93.0822 68.6752 68.4176 0.0000 0.0000 0.0000
# 3 68.4176 68.4176 126.7875 0.0000 0.0000 0.0000
# 4 0.0000 0.0000 0.0000 94.4139 0.0000 0.0000
# 5 0.0000 0.0000 0.0000 0.0000 94.4139 0.0000
# 6 0.0000 0.0000 0.0000 0.0000 0.0000 34.0687
#
#
#
# Elastic Compliance Matrix: (Units=1/GPa)
#
#
# Indices 1 2 3 4 5 6 
#
# 1 -0.014799 0.026173 -0.006138 0.000000 0.000000 0.000000
# 2 0.026173 -0.014799 -0.006138 0.000000 0.000000 0.000000
# 3 -0.006138 -0.006138 0.014511 0.000000 0.000000 0.000000
# 4 0.000000 0.000000 0.000000 0.010592 0.000000 0.000000
# 5 0.000000 0.000000 0.000000 0.000000 0.010592 0.000000
# 6 0.000000 0.000000 0.000000 0.000000 0.000000 0.029352
#
#
# Mechanical properties :
#
#
# Convention : Reuss Voigt Hill
#
# Bulk Modulus (GPa) = 78.68644 80.44139 79.56392
# Shear Modulus (GPa) = 420.49024 46.86067 233.67545
#
# Velocity S-wave (km/s) = 14.61325 4.87835 10.89370
# Velocity P-wave (km/s) = 18.01917 8.51959 14.09386
#
# Compressibility (1/GPa) = 0.01270867
#
# Stress axis : x y z
#
# Youngs Moduli (GPa) = -67.57286 -67.57286 68.91115
#
# Poissons Ratio (x) = 1.76859 0.42296
# Poissons Ratio (y) = 1.76859 0.42296
# Poissons Ratio (z) = -0.41475 -0.41475
#
# Static dielectric constant tensor:
#      x y z
#    x 3.646920 0.000000 0.000000 
#    y 0.000000 3.646920 0.000000 
#    z 0.000000 0.000000 3.602190 
# 
# 
# High freq. dielectric constant tensor:
#      x y z
#    x 1.773110 0.000000 0.000000 
#    y 0.000000 1.773110 0.000000 
#    z 0.000000 0.000000 1.775860 
# 
# From -- ./inp_files/3012.got.cif
#   From: 2010.03.12/outbox.cif.g09.slc.cpg/sg89_2_cif.got.tgz:3012.got - 2010.04.08 20:24:03.
