data_PCOD8304242
_publ_section_title
;
Structure prediction by ZEFSAII (Michael W. Deem and Ramdas Pophale) SiO2 
 PCOD8304242
Probable space group: I 41/A
;
_chemical_formula_sum "Si O2"
_cell_formula_units_Z 92
_cell_length_a 14.053660
_cell_length_b 14.053660
_cell_length_c 27.566018
_cell_angle_alpha 90.000000
_cell_angle_beta 90.000000
_cell_angle_gamma 90.000000
_cell_volume 5444.436292
_symmetry_space_group_name_H-M "I 41/A"
_symmetry_group_IT_number 88
_space_group.IT_coordinate_system_code '2'
_symmetry_cell_setting 'tetragonal'
loop_
_space_group_symop_operation_xyz
x,y,z
3/4-y,1/4+x,1/4+z
-x,1/2-y,z
1/4+y,1/4-x,1/4+z
-x,-y,-z
1/4+y,3/4-x,3/4-z
x,1/2+y,-z
3/4-y,3/4+x,3/4-z
1/2+x,1/2+y,1/2+z
1/4-y,3/4+x,3/4+z
1/2-x,-y,1/2+z
3/4+y,3/4-x,3/4+z
1/2-x,1/2-y,1/2-z
3/4+y,1/4-x,1/4-z
1/2+x,y,1/2-z
1/4-y,1/4+x,1/4-z
loop_
_atom_site_type_symbol
_atom_site_label
_atom_site_fract_x
_atom_site_fract_y
_atom_site_fract_z
Si Si1 0.502007 0.355563 0.202788
Si Si2 0.492708 0.564265 0.572958
Si Si3 0.000000 0.250000 0.125000
Si Si4 0.842468 0.437921 0.234712
Si Si5 0.688634 0.599293 0.519240
Si Si6 0.706751 0.743817 0.920848
Si Si7 0.000000 0.750000 0.140449
O O1 0.500000 0.250000 0.227551
O O2 0.409147 0.412673 0.219889
O O3 0.594587 0.411921 0.220285
O O4 0.504255 0.344143 0.144325
O O5 0.456560 0.665685 0.593324
O O6 0.408769 0.541768 0.535372
O O7 0.595129 0.574203 0.549576
O O8 0.499726 0.483925 0.614252
O O9 0.749070 0.493164 0.255017
O O10 0.898266 0.499841 0.194829
O O11 0.757499 0.662311 0.552141
O O12 0.592367 0.742113 0.924630
#
# Coordination Sequence:
#
# PCOD8304242 Si02
#       7
#    16  16   4  16  16  16   8
#     4   9  18  31  48  67 103 134 148 175 233 296
#     4  12  17  29  47  75 110 130 148 181 228 298
#     4  12  16  26  44  76 112 124 148 164 228 296
#     4  11  20  31  48  74 100 130 159 189 233 288
#     4  11  20  31  48  74 100 130 159 189 233 288
#     4  11  22  32  48  68  93 130 167 206 230 277
#     4  10  20  37  48  64  93 130 161 200 250 272
#
# _framework density 16.897984000000001
#
# number of rings (size 3 to 8) (size 9 to 14) (size 15 to 20)
#    0.522    0.696    5.217    3.652    0.000    0.000 
#    0.000    0.870    0.000    0.000    0.000    0.000 
#    0.000    0.000    0.000    0.000    0.000    0.000 
#
# Total GULP energy -570219.558907 kJ/mol
# GULP energy per Si atom -12396.077368 kJ/mol
# Density = 1.685952 g / cm^3
# Si number density = 16.897984 Si / 1000 Ang^3
#
#
#
# Elastic Constant Matrix: (Units=GPa)
#
#
# Indices 1 2 3 4 5 6 
#
# 1 109.8847 26.5933 30.3108 0.0000 0.0000 -2.2923
# 2 26.5933 109.8847 30.3108 0.0000 0.0000 2.2923
# 3 30.3108 30.3108 49.8080 0.0000 0.0000 0.0000
# 4 0.0000 0.0000 0.0000 6.9643 0.0000 0.0000
# 5 0.0000 0.0000 0.0000 0.0000 6.9643 0.0000
# 6 -2.2923 2.2923 0.0000 0.0000 0.0000 7.0280
#
#
#
# Elastic Compliance Matrix: (Units=1/GPa)
#
#
# Indices 1 2 3 4 5 6 
#
# 1 0.011134 -0.001092 -0.006111 0.000000 0.000000 0.003988
# 2 -0.001092 0.011134 -0.006111 0.000000 0.000000 -0.003988
# 3 -0.006111 -0.006111 0.027515 0.000000 0.000000 0.000000
# 4 0.000000 0.000000 0.000000 0.143588 0.000000 0.000000
# 5 0.000000 0.000000 0.000000 0.000000 0.143588 0.000000
# 6 0.003988 -0.003988 0.000000 0.000000 0.000000 0.144888
#
#
# Mechanical properties :
#
#
# Convention : Reuss Voigt Hill
#
# Bulk Modulus (GPa) = 43.18827 49.33414 46.26121
# Shear Modulus (GPa) = 9.68632 16.34885 13.01758
#
# Velocity S-wave (km/s) = 2.39681 3.11385 2.77855
# Velocity P-wave (km/s) = 5.76830 6.49513 6.14247
#
# Compressibility (1/GPa) = 0.02315444
#
# Stress axis : x y z
#
# Youngs Moduli (GPa) = 89.81883 89.81883 36.34436
#
# Poissons Ratio (x) = 0.09808 0.22209
# Poissons Ratio (y) = 0.09808 0.22209
# Poissons Ratio (z) = 0.54886 0.54886
#
# Static dielectric constant tensor:
#      x y z
#    x 3.104980 0.000000 0.000000 
#    y 0.000000 3.104980 0.000000 
#    z 0.000000 0.000000 3.142460 
# 
# 
# High freq. dielectric constant tensor:
#      x y z
#    x 1.630590 0.000000 0.000000 
#    y 0.000000 1.630590 0.000000 
#    z 0.000000 0.000000 1.641300 
# 
# From -- ./inp_files/6554.got.cif
#   From: 2010.03.12/outbox.cif.g09.slc.cpg/sg88_4_cif.got.tgz:6554.got - 2010.04.08 20:20:55.
