data_PCOD8304013
_publ_section_title
;
Structure prediction by ZEFSAII (Michael W. Deem and Ramdas Pophale) SiO2 
 PCOD8304013
Probable space group: I 4/M
;
_chemical_formula_sum "Si O2"
_cell_formula_units_Z 96
_cell_length_a 23.873517
_cell_length_b 23.873517
_cell_length_c 8.648487
_cell_angle_alpha 90.000000
_cell_angle_beta 90.000000
_cell_angle_gamma 90.000000
_cell_volume 4929.160314
_symmetry_space_group_name_H-M "I 4/M"
_symmetry_group_IT_number 87
_symmetry_cell_setting 'tetragonal'
loop_
_space_group_symop_operation_xyz
x,y,z
-y,x,z
-x,-y,z
y,-x,z
-x,-y,-z
y,-x,-z
x,y,-z
-y,x,-z
1/2+x,1/2+y,1/2+z
1/2-y,1/2+x,1/2+z
1/2-x,1/2-y,1/2+z
1/2+y,1/2-x,1/2+z
1/2-x,1/2-y,1/2-z
1/2+y,1/2-x,1/2-z
1/2+x,1/2+y,1/2-z
1/2-y,1/2+x,1/2-z
loop_
_atom_site_type_symbol
_atom_site_label
_atom_site_fract_x
_atom_site_fract_y
_atom_site_fract_z
Si Si1 0.560330 0.059753 0.182548
Si Si2 0.235438 0.857017 0.824879
Si Si3 0.859783 0.936998 0.678045
Si Si4 0.640047 0.446810 0.325127
Si Si5 0.644228 0.851728 0.179164
Si Si6 0.726669 0.641653 0.318884
O O1 0.500387 0.078713 0.249927
O O2 0.606816 0.105748 0.222576
O O3 0.554973 0.054143 0.000000
O O4 0.195219 0.909808 0.808752
O O5 0.287287 0.869802 0.713577
O O6 0.201598 0.800968 0.773477
O O7 0.257476 0.850223 0.000000
O O8 0.873140 0.925529 0.500000
O O9 0.910645 0.914039 0.780613
O O10 0.801597 0.907883 0.723131
O O11 0.853515 0.002492 0.707478
O O12 0.632767 0.468667 0.500000
O O13 0.708615 0.860383 0.226475
O O14 0.633687 0.864309 0.000000
O O15 0.716054 0.630847 0.500000
#
# Coordination Sequence:
#
# PCOD8304013 Si02
#       6
#    16  16  16  16  16  16
#     4  11  23  42  64  85 113 146 183 229 281 334
#     4   9  19  36  57  82 113 150 190 233 280 329
#     4  11  22  36  57  85 113 143 188 241 284 327
#     4  10  21  39  59  79 111 153 190 228 283 342
#     4  11  22  36  59  89 117 149 189 228 272 332
#     4   9  20  38  57  80 115 155 189 226 279 337
#
# _framework density 19.475936000000001
#
# number of rings (size 3 to 8) (size 9 to 14) (size 15 to 20)
#    0.000    1.833    0.000    6.000    0.000    6.333 
#    0.000    3.333    0.000    0.000    0.000    0.000 
#    0.000    0.000    0.000    0.000    0.000    0.000 
#
# Total GULP energy -595387.678111 kJ/mol
# GULP energy per Si atom -12403.909961 kJ/mol
# Density = 1.943161 g / cm^3
# Si number density = 19.475936 Si / 1000 Ang^3
#
#
#
# Elastic Constant Matrix: (Units=GPa)
#
#
# Indices 1 2 3 4 5 6 
#
# 1 274.7171 -119.1281 69.2959 0.0000 0.0000 -29.1771
# 2 -119.1281 274.7171 69.2959 0.0000 0.0000 29.1771
# 3 69.2959 69.2959 -24.2134 0.0000 0.0000 0.0000
# 4 0.0000 0.0000 0.0000 25.9900 0.0000 0.0000
# 5 0.0000 0.0000 0.0000 0.0000 25.9900 0.0000
# 6 -29.1771 29.1771 0.0000 0.0000 0.0000 27.0042
#
#
#
# Elastic Compliance Matrix: (Units=1/GPa)
#
#
# Indices 1 2 3 4 5 6 
#
# 1 0.002417 -0.000606 0.005182 0.000000 0.000000 0.003266
# 2 -0.000606 0.002417 0.005182 0.000000 0.000000 -0.003266
# 3 0.005182 0.005182 -0.011636 0.000000 0.000000 0.000000
# 4 0.000000 0.000000 0.000000 0.038476 0.000000 0.000000
# 5 0.000000 0.000000 0.000000 0.000000 0.038476 0.000000
# 6 0.003266 -0.003266 0.000000 0.000000 0.000000 0.044090
#
#
# Mechanical properties :
#
#
# Convention : Reuss Voigt Hill
#
# Bulk Modulus (GPa) = 78.64410 62.68311 70.66360
# Shear Modulus (GPa) = 50.52509 49.51397 50.01953
#
# Velocity S-wave (km/s) = 5.09889 5.04761 5.07331
# Velocity P-wave (km/s) = 8.66791 8.13793 8.40710
#
# Compressibility (1/GPa) = 0.01271551
#
# Stress axis : x y z
#
# Youngs Moduli (GPa) = 413.74590 413.74590 -85.93906
#
# Poissons Ratio (x) = 0.25076 0.44538
# Poissons Ratio (y) = 0.25076 0.44538
# Poissons Ratio (z) = -2.14423 -2.14423
#
# Static dielectric constant tensor:
#      x y z
#    x 3.499540 0.000000 0.000000 
#    y 0.000000 3.499540 0.000000 
#    z 0.000000 0.000000 3.552170 
# 
# 
# High freq. dielectric constant tensor:
#      x y z
#    x 1.759030 0.000000 0.000000 
#    y 0.000000 1.759030 0.000000 
#    z 0.000000 0.000000 1.764930 
# 
# From -- ./inp_files/1370.got.cif
#   From: 2010.03.12/outbox.cif.g09.slc.cpg/sg87_1_cif.got.tgz:1370.got - 2010.04.08 20:16:13.
