data_PCOD8304474
_publ_section_title
;
Structure prediction by ZEFSAII (Michael W. Deem and Ramdas Pophale) SiO2 
 PCOD8304474
Probable space group: P 4 2 2
;
_chemical_formula_sum "Si O2"
_cell_formula_units_Z 64
_cell_length_a 17.398301
_cell_length_b 17.398301
_cell_length_c 12.664789
_cell_angle_alpha 90.000000
_cell_angle_beta 90.000000
_cell_angle_gamma 90.000000
_cell_volume 3833.642746
_symmetry_space_group_name_H-M "P 4 2 2"
_symmetry_group_IT_number 89
_symmetry_cell_setting 'tetragonal'
loop_
_space_group_symop_operation_xyz
x,y,z
-y,x,z
-x,-y,z
y,-x,z
x,-y,-z
-x,y,-z
y,x,-z
-y,-x,-z
loop_
_atom_site_type_symbol
_atom_site_label
_atom_site_fract_x
_atom_site_fract_y
_atom_site_fract_z
Si Si1 0.410033 0.813780 0.198848
Si Si2 0.813781 0.410034 0.198849
Si Si3 0.085143 0.410220 1.000000
Si Si4 0.089869 0.283025 0.279076
Si Si5 0.814791 0.185211 0.121208
Si Si6 0.283026 0.089868 0.279077
Si Si7 0.913475 0.207629 0.500000
Si Si8 0.686640 0.313361 0.117631
O O1 0.499999 0.816811 0.226142
O O2 0.359814 0.856945 0.286390
O O3 0.385959 0.724305 0.179754
O O4 0.384824 0.864614 0.098457
O O5 0.864616 0.384824 0.098459
O O6 0.856946 0.359815 0.286392
O O7 0.724306 0.385960 0.179755
O O8 0.072880 0.500000 0.000000
O O9 0.000000 0.370908 0.000000
O O10 0.114507 0.221719 0.188077
O O11 0.107742 0.253306 0.395158
O O12 0.000000 0.303085 0.262136
O O13 0.885494 0.221721 0.188077
O O14 0.750786 0.249213 0.111071
O O15 0.839340 0.160661 0.000000
O O16 0.253307 0.107741 0.395158
O O17 0.872403 0.127598 0.500000
O O18 0.000000 0.182605 0.500000
O O19 0.660570 0.339431 0.000000
#
# Coordination Sequence:
#
# PCOD8304474 Si02
#       8
#     8   8   8   8   8   8   8   8
#     4  10  19  31  47  71 102 135 170 212 264 321
#     4  10  19  31  47  71 102 135 170 212 264 321
#     4   9  16  25  40  66 101 136 166 199 243 305
#     4  10  20  33  52  75 101 136 174 217 262 308
#     4   9  18  31  47  72 103 136 172 209 256 309
#     4  10  20  33  52  75 101 136 174 217 262 308
#     4  10  20  37  57  77 101 136 184 226 258 298
#     4   9  16  28  45  66  96 135 176 210 245 300
#
# _framework density 16.694305
#
# number of rings (size 3 to 8) (size 9 to 14) (size 15 to 20)
#    0.000    2.375    2.500    0.750    1.750    2.125 
#    0.000    0.625    0.000    3.000    0.000    1.750 
#    0.000    0.000    0.000    1.125    0.000    0.000 
#
# Total GULP energy -792854.489032 kJ/mol
# GULP energy per Si atom -12388.351391 kJ/mol
# Density = 1.665631 g / cm^3
# Si number density = 16.694305 Si / 1000 Ang^3
#
#
#
# Elastic Constant Matrix: (Units=GPa)
#
#
# Indices 1 2 3 4 5 6 
#
# 1 73.0958 68.4161 39.0218 0.0000 0.0000 0.0000
# 2 68.4161 73.1049 39.0213 0.0000 0.0000 0.0000
# 3 39.0218 39.0213 105.2260 0.0000 0.0000 0.0000
# 4 0.0000 0.0000 0.0000 -50.8458 0.0000 0.0000
# 5 0.0000 0.0000 0.0000 0.0000 -50.8909 0.0000
# 6 0.0000 0.0000 0.0000 0.0000 0.0000 24.9294
#
#
#
# Elastic Compliance Matrix: (Units=1/GPa)
#
#
# Indices 1 2 3 4 5 6 
#
# 1 0.111190 -0.102298 -0.003298 0.000000 0.000000 0.000000
# 2 -0.102298 0.111172 -0.003290 0.000000 0.000000 0.000000
# 3 -0.003298 -0.003290 0.011947 0.000000 0.000000 0.000000
# 4 0.000000 0.000000 0.000000 -0.019667 0.000000 0.000000
# 5 0.000000 0.000000 0.000000 0.000000 -0.019650 0.000000
# 6 0.000000 0.000000 0.000000 0.000000 0.000000 0.040113
#
#
# Mechanical properties :
#
#
# Convention : Reuss Voigt Hill
#
# Bulk Modulus (GPa) = 60.47433 60.48279 60.47856
# Shear Modulus (GPa) = 10.90775 -8.36363 1.27206
#
# Velocity S-wave (km/s) = 2.55891 -2.24070 0.87386
# Velocity P-wave (km/s) = 6.71073 5.44187 6.10933
#
# Compressibility (1/GPa) = 0.01653594
#
# Stress axis : x y z
#
# Youngs Moduli (GPa) = 8.99361 8.99505 83.70651
#
# Poissons Ratio (x) = 0.92018 0.27606
# Poissons Ratio (y) = 0.92003 0.27542
# Poissons Ratio (z) = 0.02966 0.02960
#
# Static dielectric constant tensor:
#      x y z
#    x 3.192930 0.000000 0.000000 
#    y 0.000000 3.192930 0.000000 
#    z 0.000000 0.000000 3.204220 
# 
# 
# High freq. dielectric constant tensor:
#      x y z
#    x 1.632060 0.000000 0.000000 
#    y 0.000000 1.632060 0.000000 
#    z 0.000000 0.000000 1.630550 
# 
# From -- ./inp_files/1930.got.cif
#   From: 2010.03.12/outbox.cif.g09.slc.cpg/sg89_1_cif.got.tgz:1930.got - 2010.04.08 20:24:03.
