data_PCOD8304133
_publ_section_title
;
Structure prediction by ZEFSAII (Michael W. Deem and Ramdas Pophale) SiO2 
 PCOD8304133
Probable space group: I 4/M
;
_chemical_formula_sum "Si O2"
_cell_formula_units_Z 88
_cell_length_a 11.824658
_cell_length_b 11.824658
_cell_length_c 30.242128
_cell_angle_alpha 90.000000
_cell_angle_beta 90.000000
_cell_angle_gamma 90.000000
_cell_volume 4228.531056
_symmetry_space_group_name_H-M "I 4/M"
_symmetry_group_IT_number 87
_symmetry_cell_setting 'tetragonal'
loop_
_space_group_symop_operation_xyz
x,y,z
-y,x,z
-x,-y,z
y,-x,z
-x,-y,-z
y,-x,-z
x,y,-z
-y,x,-z
1/2+x,1/2+y,1/2+z
1/2-y,1/2+x,1/2+z
1/2-x,1/2-y,1/2+z
1/2+y,1/2-x,1/2+z
1/2-x,1/2-y,1/2-z
1/2+y,1/2-x,1/2-z
1/2+x,1/2+y,1/2-z
1/2-y,1/2+x,1/2-z
loop_
_atom_site_type_symbol
_atom_site_label
_atom_site_fract_x
_atom_site_fract_y
_atom_site_fract_z
Si Si1 0.196075 0.615003 0.709427
Si Si2 0.945787 0.333740 0.000000
Si Si3 0.580347 0.335946 0.931232
Si Si4 0.810676 0.646353 0.305837
Si Si5 0.500000 0.000000 0.074912
Si Si6 0.284477 0.800097 0.000000
Si Si7 0.311981 0.022909 0.642474
O O1 0.209824 0.486789 0.694622
O O2 0.299837 0.686662 0.689479
O O3 0.190459 0.626464 0.761964
O O4 0.080773 0.664473 0.689325
O O5 0.841584 0.248110 0.000000
O O6 0.937131 0.408538 0.044233
O O7 0.065214 0.268292 0.000000
O O8 0.648848 0.448416 0.943987
O O9 0.570600 0.305026 0.878737
O O10 0.640213 0.235222 0.957745
O O11 0.887968 0.684937 0.347521
O O12 0.444264 0.906353 0.106432
#
# Coordination Sequence:
#
# PCOD8304133 Si02
#       7
#    16   8  16  16   8   8  16
#     4  11  23  39  62  92 126 168 217 263 324 382
#     4  11  26  43  64  98 130 175 220 262 329 390
#     4  11  24  41  64  99 135 167 207 269 335 389
#     4  11  23  40  63  91 128 172 213 268 320 387
#     4  11  22  40  65  96 124 164 217 270 316 383
#     4  12  24  44  68  94 136 175 218 263 320 401
#     4  12  21  40  67  94 125 167 217 268 317 382
#
# _framework density 20.811011000000001
#
# number of rings (size 3 to 8) (size 9 to 14) (size 15 to 20)
#    0.000    0.727    5.455    2.727    2.545    1.273 
#    0.000    0.000    0.000    0.000    0.000    0.000 
#    0.000    0.000    0.000    0.000    0.000    0.000 
#
# Total GULP energy -545486.894795 kJ/mol
# GULP energy per Si atom -12397.429427 kJ/mol
# Density = 2.076364 g / cm^3
# Si number density = 20.811011 Si / 1000 Ang^3
#
#
#
# Elastic Constant Matrix: (Units=GPa)
#
#
# Indices 1 2 3 4 5 6 
#
# 1 118.4882 59.0512 31.1671 0.0000 0.0000 0.2299
# 2 59.0512 118.4882 31.1671 0.0000 0.0000 -0.2299
# 3 31.1671 31.1671 74.2072 0.0000 0.0000 0.0000
# 4 0.0000 0.0000 0.0000 27.0931 0.0000 0.0000
# 5 0.0000 0.0000 0.0000 0.0000 27.0931 0.0000
# 6 0.2299 -0.2299 0.0000 0.0000 0.0000 31.7900
#
#
#
# Elastic Compliance Matrix: (Units=1/GPa)
#
#
# Indices 1 2 3 4 5 6 
#
# 1 0.011716 -0.005109 -0.002775 0.000000 0.000000 -0.000122
# 2 -0.005109 0.011716 -0.002775 0.000000 0.000000 0.000122
# 3 -0.002775 -0.002775 0.015807 0.000000 0.000000 0.000000
# 4 0.000000 0.000000 0.000000 0.036910 0.000000 0.000000
# 5 0.000000 0.000000 0.000000 0.000000 0.036910 0.000000
# 6 -0.000122 0.000122 0.000000 0.000000 0.000000 0.031458
#
#
# Mechanical properties :
#
#
# Convention : Reuss Voigt Hill
#
# Bulk Modulus (GPa) = 55.80102 61.55050 58.67576
# Shear Modulus (GPa) = 29.10218 29.84845 29.47531
#
# Velocity S-wave (km/s) = 3.74358 3.79127 3.76750
# Velocity P-wave (km/s) = 6.74961 6.98607 6.86886
#
# Compressibility (1/GPa) = 0.01792082
#
# Stress axis : x y z
#
# Youngs Moduli (GPa) = 85.35226 85.35226 63.26444
#
# Poissons Ratio (x) = 0.43609 0.17555
# Poissons Ratio (y) = 0.43609 0.17555
# Poissons Ratio (z) = 0.23684 0.23684
#
# Static dielectric constant tensor:
#      x y z
#    x 3.749270 0.000000 0.000000 
#    y 0.000000 3.749270 0.000000 
#    z 0.000000 0.000000 3.801800 
# 
# 
# High freq. dielectric constant tensor:
#      x y z
#    x 1.810110 0.000000 0.000000 
#    y 0.000000 1.810110 0.000000 
#    z 0.000000 0.000000 1.820070 
# 
# From -- ./inp_files/6632.got.cif
#   From: 2010.03.12/outbox.cif.g09.slc.cpg/sg87_4_cif.got.tgz:6632.got - 2010.04.08 20:16:13.
