data_PCOD8304708
_publ_section_title
;
Structure prediction by ZEFSAII (Michael W. Deem and Ramdas Pophale) SiO2 
 PCOD8304708
Probable space group: P 41 2 2
;
_chemical_formula_sum "Si O2"
_cell_formula_units_Z 40
_cell_length_a 25.966451
_cell_length_b 25.966451
_cell_length_c 5.092661
_cell_angle_alpha 90.000000
_cell_angle_beta 90.000000
_cell_angle_gamma 90.000000
_cell_volume 3433.760176
_symmetry_space_group_name_H-M "P 41 2 2"
_symmetry_group_IT_number 91
_symmetry_cell_setting 'tetragonal'
loop_
_space_group_symop_operation_xyz
x,y,z
-y,x,1/4+z
-x,-y,1/2+z
y,-x,3/4+z
x,-y,1/2-z
-x,y,-z
y,x,3/4-z
-y,-x,1/4-z
loop_
_atom_site_type_symbol
_atom_site_label
_atom_site_fract_x
_atom_site_fract_y
_atom_site_fract_z
Si Si1 0.098575 0.817282 0.627500
Si Si2 0.938506 0.469253 0.501291
Si Si3 0.645365 0.060394 0.762056
Si Si4 0.938836 0.290478 0.990466
Si Si5 0.945411 0.863115 0.876404
O O1 0.154823 0.845178 0.625000
O O2 0.098972 0.757694 0.545455
O O3 0.057761 0.843003 0.422957
O O4 0.079728 0.821130 0.927712
O O5 0.917678 0.500000 0.250000
O O6 0.914944 0.411486 0.513502
O O7 0.000000 0.467277 0.500000
O O8 0.917332 0.500000 0.750000
O O9 0.684868 0.077839 0.535694
O O10 0.638264 0.000000 0.750000
O O11 0.667518 0.075623 0.043164
O O12 0.000000 0.275151 0.000000
O O13 0.917321 0.917321 0.875000
O O14 0.000000 0.874908 0.000000
#
# Coordination Sequence:
#
# PCOD8304708 Si02
#       5
#     8   8   8   8   8
#     4  10  20  31  43  55  67  83 103 125 156 194
#     4   9  15  23  34  47  67  91 108 123 141 164
#     4   9  17  25  35  53  69  84 107 126 146 174
#     4  10  17  26  39  52  67  83 101 130 157 181
#     4  10  19  31  43  55  67  79  96 118 147 191
#
# _framework density 11.649037
#
# number of rings (size 3 to 8) (size 9 to 14) (size 15 to 20)
#    0.000    2.400    0.000    4.200    0.000    6.400 
#    0.000    3.000    0.000    0.000    0.000    0.000 
#    0.000    0.000    0.000    0.000    0.000    0.000 
#
# Total GULP energy -495624.914950 kJ/mol
# GULP energy per Si atom -12390.622874 kJ/mol
# Density = 1.162252 g / cm^3
# Si number density = 11.649037 Si / 1000 Ang^3
#
#
#
# Elastic Constant Matrix: (Units=GPa)
#
#
# Indices 1 2 3 4 5 6 
#
# 1 55.2391 20.1342 15.3356 0.0000 0.0000 0.0000
# 2 20.1342 55.2384 15.3354 0.0000 0.0000 0.0000
# 3 15.3356 15.3354 65.4509 0.0000 0.0000 0.0000
# 4 0.0000 0.0000 0.0000 144.1570 0.0000 0.0000
# 5 0.0000 0.0000 0.0000 0.0000 144.0552 0.0000
# 6 0.0000 0.0000 0.0000 0.0000 0.0000 14.7130
#
#
#
# Elastic Compliance Matrix: (Units=1/GPa)
#
#
# Indices 1 2 3 4 5 6 
#
# 1 0.021576 -0.006910 -0.003436 0.000000 0.000000 0.000000
# 2 -0.006910 0.021576 -0.003436 0.000000 0.000000 0.000000
# 3 -0.003436 -0.003436 0.016889 0.000000 0.000000 0.000000
# 4 0.000000 0.000000 0.000000 0.006937 0.000000 0.000000
# 5 0.000000 0.000000 0.000000 0.000000 0.006942 0.000000
# 6 0.000000 0.000000 0.000000 0.000000 0.000000 0.067967
#
#
# Mechanical properties :
#
#
# Convention : Reuss Voigt Hill
#
# Bulk Modulus (GPa) = 30.79270 30.83764 30.81517
# Shear Modulus (GPa) = 27.73508 68.92658 48.33083
#
# Velocity S-wave (km/s) = 4.88473 7.70051 6.44819
# Velocity P-wave (km/s) = 7.63578 10.27587 9.05259
#
# Compressibility (1/GPa) = 0.03247523
#
# Stress axis : x y z
#
# Youngs Moduli (GPa) = 46.34815 46.34757 59.21050
#
# Poissons Ratio (x) = 0.32028 0.20346
# Poissons Ratio (y) = 0.32028 0.20346
# Poissons Ratio (z) = 0.15926 0.15926
#
# Static dielectric constant tensor:
#      x y z
#    x 2.130560 0.000000 0.000000 
#    y 0.000000 2.130650 0.000000 
#    z 0.000000 0.000000 2.601580 
# 
# 
# High freq. dielectric constant tensor:
#      x y z
#    x 1.400990 0.000000 0.000000 
#    y 0.000000 1.400990 0.000000 
#    z 0.000000 0.000000 1.468620 
# 
# From -- ./inp_files/18711.got.cif
#   From: 2010.03.12/outbox.cif.g09.slc.cpg/sg91_10_cif.got.tgz:18711.got - 2010.04.08 20:27:58.
