data_PCOD8304192
_publ_section_title
;
Structure prediction by ZEFSAII (Michael W. Deem and Ramdas Pophale) SiO2 
 PCOD8304192
Probable space group: I 41/A
;
_chemical_formula_sum "Si O2"
_cell_formula_units_Z 96
_cell_length_a 24.415000
_cell_length_b 24.415000
_cell_length_c 8.801902
_cell_angle_alpha 90.000000
_cell_angle_beta 90.000000
_cell_angle_gamma 90.000000
_cell_volume 5246.745347
_symmetry_space_group_name_H-M "I 41/A"
_symmetry_group_IT_number 88
_space_group.IT_coordinate_system_code '2'
_symmetry_cell_setting 'tetragonal'
loop_
_space_group_symop_operation_xyz
x,y,z
3/4-y,1/4+x,1/4+z
-x,1/2-y,z
1/4+y,1/4-x,1/4+z
-x,-y,-z
1/4+y,3/4-x,3/4-z
x,1/2+y,-z
3/4-y,3/4+x,3/4-z
1/2+x,1/2+y,1/2+z
1/4-y,3/4+x,3/4+z
1/2-x,-y,1/2+z
3/4+y,3/4-x,3/4+z
1/2-x,1/2-y,1/2-z
3/4+y,1/4-x,1/4-z
1/2+x,y,1/2-z
1/4-y,1/4+x,1/4-z
loop_
_atom_site_type_symbol
_atom_site_label
_atom_site_fract_x
_atom_site_fract_y
_atom_site_fract_z
Si Si1 0.243525 0.702847 0.556086
Si Si2 0.319414 0.703953 0.812426
Si Si3 0.669441 0.256259 0.655245
Si Si4 0.194174 0.353649 0.621275
Si Si5 0.804058 0.357200 0.700524
Si Si6 0.479173 0.835371 0.632538
O O1 0.289183 0.678090 0.666754
O O2 0.198660 0.733353 0.659025
O O3 0.271435 0.743002 0.428962
O O4 0.217450 0.652404 0.469174
O O5 0.382987 0.704708 0.764822
O O6 0.300000 0.670353 0.954894
O O7 0.665560 0.307867 0.771242
O O8 0.664617 0.197776 0.740387
O O9 0.621525 0.262545 0.532679
O O10 0.157035 0.405867 0.582611
O O11 0.253320 0.372548 0.687416
O O12 0.537280 0.812396 0.576501
#
# Coordination Sequence:
#
# PCOD8304192 Si02
#       6
#    16  16  16  16  16  16
#     4   9  18  34  58  80 108 137 193 242 267 330
#     4  10  18  35  58  82 105 151 189 230 284 332
#     4  10  19  37  58  80 110 150 197 237 277 341
#     4  11  22  37  61  86 114 153 193 246 292 338
#     4  11  21  39  57  86 116 150 196 242 289 349
#     4  10  22  35  50  83 125 151 179 232 297 352
#
# _framework density 18.297056999999999
#
# number of rings (size 3 to 8) (size 9 to 14) (size 15 to 20)
#    0.000    1.833    3.333    2.000    2.333    0.000 
#    0.000    1.667    0.000    2.000    0.000    0.000 
#    0.000    0.000    0.000    0.000    0.000    0.000 
#
# Total GULP energy -594752.208193 kJ/mol
# GULP energy per Si atom -12390.671004 kJ/mol
# Density = 1.825541 g / cm^3
# Si number density = 18.297057 Si / 1000 Ang^3
#
#
#
# Elastic Constant Matrix: (Units=GPa)
#
#
# Indices 1 2 3 4 5 6 
#
# 1 86.0051 46.7527 37.2610 0.0000 0.0000 1.6459
# 2 46.7527 86.0051 37.2610 0.0000 0.0000 -1.6459
# 3 37.2610 37.2610 106.3557 0.0000 0.0000 0.0000
# 4 0.0000 0.0000 0.0000 16.7128 0.0000 0.0000
# 5 0.0000 0.0000 0.0000 0.0000 16.7128 0.0000
# 6 1.6459 -1.6459 0.0000 0.0000 0.0000 24.5147
#
#
#
# Elastic Compliance Matrix: (Units=1/GPa)
#
#
# Indices 1 2 3 4 5 6 
#
# 1 0.017498 -0.008122 -0.003285 0.000000 0.000000 -0.001720
# 2 -0.008122 0.017498 -0.003285 0.000000 0.000000 0.001720
# 3 -0.003285 -0.003285 0.011704 0.000000 0.000000 0.000000
# 4 0.000000 0.000000 0.000000 0.059834 0.000000 0.000000
# 5 0.000000 0.000000 0.000000 0.000000 0.059834 0.000000
# 6 -0.001720 0.001720 0.000000 0.000000 0.000000 0.041023
#
#
# Mechanical properties :
#
#
# Convention : Reuss Voigt Hill
#
# Bulk Modulus (GPa) = 57.74609 57.87949 57.81279
# Shear Modulus (GPa) = 20.61439 22.06080 21.33760
#
# Velocity S-wave (km/s) = 3.36020 3.47609 3.41864
# Velocity P-wave (km/s) = 6.83253 6.91468 6.87373
#
# Compressibility (1/GPa) = 0.01731719
#
# Stress axis : x y z
#
# Youngs Moduli (GPa) = 57.14784 57.14784 85.43962
#
# Poissons Ratio (x) = 0.46415 0.28067
# Poissons Ratio (y) = 0.46415 0.28067
# Poissons Ratio (z) = 0.18773 0.18773
#
# Static dielectric constant tensor:
#      x y z
#    x 3.409070 0.000000 0.000000 
#    y 0.000000 3.409070 0.000000 
#    z 0.000000 0.000000 3.607040 
# 
# 
# High freq. dielectric constant tensor:
#      x y z
#    x 1.694760 0.000000 0.000000 
#    y 0.000000 1.694760 0.000000 
#    z 0.000000 0.000000 1.727750 
# 
# From -- ./inp_files/1719.got.cif
#   From: 2010.03.12/outbox.cif.g09.slc.cpg/sg88_1_cif.got.tgz:1719.got - 2010.04.08 20:20:55.
