data_PCOD8304921
_publ_section_title
;
Structure prediction by ZEFSAII (Michael W. Deem and Ramdas Pophale) SiO2 
 PCOD8304921
Probable space group: P 41 2 2
;
_chemical_formula_sum "Si O2"
_cell_formula_units_Z 48
_cell_length_a 11.902548
_cell_length_b 11.902548
_cell_length_c 17.402591
_cell_angle_alpha 90.000000
_cell_angle_beta 90.000000
_cell_angle_gamma 90.000000
_cell_volume 2465.436359
_symmetry_space_group_name_H-M "P 41 2 2"
_symmetry_group_IT_number 91
_symmetry_cell_setting 'tetragonal'
loop_
_space_group_symop_operation_xyz
x,y,z
-y,x,1/4+z
-x,-y,1/2+z
y,-x,3/4+z
x,-y,1/2-z
-x,y,-z
y,x,3/4-z
-y,-x,1/4-z
loop_
_atom_site_type_symbol
_atom_site_label
_atom_site_fract_x
_atom_site_fract_y
_atom_site_fract_z
Si Si1 0.099081 0.500000 0.250000
Si Si2 0.751969 0.673558 0.661420
Si Si3 0.590767 0.810185 0.749965
Si Si4 0.599198 0.466486 0.938212
Si Si5 0.111817 0.859480 0.876960
Si Si6 0.005692 0.378979 0.616281
Si Si7 0.998008 0.000000 0.750000
O O1 0.179661 0.432369 0.192193
O O2 0.012907 0.575097 0.201579
O O3 0.708524 0.748150 0.732886
O O4 0.641939 0.640902 0.610437
O O5 0.833130 0.756190 0.613760
O O6 0.502167 0.711059 0.765614
O O7 0.606393 0.887140 0.823845
O O8 0.557072 0.891656 0.677952
O O9 0.557981 0.557981 0.875000
O O10 0.500000 0.438579 0.000000
O O11 0.033074 0.751047 0.877053
O O12 0.092193 0.921470 0.957739
O O13 0.079549 0.938088 0.807671
#
# Coordination Sequence:
#
# PCOD8304921 Si02
#       7
#     4   8   8   8   8   8   4
#     4  12  22  38  64  98 122 168 212 270 314 386
#     4  11  22  38  62  92 127 160 219 263 313 382
#     4  10  21  40  58  90 126 161 204 264 326 373
#     4  12  23  40  63  91 126 177 218 267 318 386
#     4  10  21  40  62  93 120 161 205 263 317 389
#     4  10  22  38  63  94 127 158 205 272 329 373
#     4  10  20  40  68  88 120 158 204 260 332 372
#
# _framework density 19.469169999999998
#
# number of rings (size 3 to 8) (size 9 to 14) (size 15 to 20)
#    0.000    1.333    3.333    4.000    0.000    1.333 
#    9.000    0.000    3.667    0.000    0.000    0.000 
#    0.000    0.000    0.000    0.000    0.000    0.000 
#
# Total GULP energy -594934.799505 kJ/mol
# GULP energy per Si atom -12394.474990 kJ/mol
# Density = 1.942486 g / cm^3
# Si number density = 19.469170 Si / 1000 Ang^3
#
#
#
# Elastic Constant Matrix: (Units=GPa)
#
#
# Indices 1 2 3 4 5 6 
#
# 1 105.5855 45.2959 39.9513 0.0000 0.0000 0.0000
# 2 45.2959 105.5855 39.9513 0.0000 0.0000 0.0000
# 3 39.9513 39.9513 91.8337 0.0000 0.0000 0.0000
# 4 0.0000 0.0000 0.0000 22.3965 0.0000 0.0000
# 5 0.0000 0.0000 0.0000 0.0000 22.3965 0.0000
# 6 0.0000 0.0000 0.0000 0.0000 0.0000 -50.9564
#
#
#
# Elastic Compliance Matrix: (Units=1/GPa)
#
#
# Indices 1 2 3 4 5 6 
#
# 1 0.012599 -0.003987 -0.003746 0.000000 0.000000 0.000000
# 2 -0.003987 0.012599 -0.003746 0.000000 0.000000 0.000000
# 3 -0.003746 -0.003746 0.014149 0.000000 0.000000 0.000000
# 4 0.000000 0.000000 0.000000 0.044650 0.000000 0.000000
# 5 0.000000 0.000000 0.000000 0.000000 0.044650 0.000000
# 6 0.000000 0.000000 0.000000 0.000000 0.000000 -0.019625
#
#
# Mechanical properties :
#
#
# Convention : Reuss Voigt Hill
#
# Bulk Modulus (GPa) = 61.02533 61.48909 61.25721
# Shear Modulus (GPa) = 36.37812 10.62105 23.49959
#
# Velocity S-wave (km/s) = 4.32730 2.33820 3.47798
# Velocity P-wave (km/s) = 7.50866 6.24027 6.90366
#
# Compressibility (1/GPa) = 0.01638664
#
# Stress axis : x y z
#
# Youngs Moduli (GPa) = 79.37025 79.37025 70.67655
#
# Poissons Ratio (x) = 0.31648 0.26479
# Poissons Ratio (y) = 0.31648 0.26479
# Poissons Ratio (z) = 0.29736 0.29736
#
# Static dielectric constant tensor:
#      x y z
#    x 3.609280 0.000000 0.000000 
#    y 0.000000 3.609280 0.000000 
#    z 0.000000 0.000000 3.779020 
# 
# 
# High freq. dielectric constant tensor:
#      x y z
#    x 1.755600 0.000000 0.000000 
#    y 0.000000 1.755600 0.000000 
#    z 0.000000 0.000000 1.761440 
# 
# From -- ./inp_files/16930.got.cif
#   From: 2010.03.12/outbox.cif.g09.slc.cpg/sg91_9_cif.got.tgz:16930.got - 2010.04.08 20:27:58.
