data_PCOD8304650
_publ_section_title
;
Structure prediction by ZEFSAII (Michael W. Deem and Ramdas Pophale) SiO2 
 PCOD8304650
Probable space group: P 4 21 2
;
_chemical_formula_sum "Si O2"
_cell_formula_units_Z 48
_cell_length_a 8.473591
_cell_length_b 8.473591
_cell_length_c 30.612777
_cell_angle_alpha 90.000000
_cell_angle_beta 90.000000
_cell_angle_gamma 90.000000
_cell_volume 2198.050791
_symmetry_space_group_name_H-M "P 4 21 2"
_symmetry_group_IT_number 90
_symmetry_cell_setting 'tetragonal'
loop_
_space_group_symop_operation_xyz
x,y,z
1/2-y,1/2+x,z
-x,-y,z
1/2+y,1/2-x,z
1/2+x,1/2-y,-z
1/2-x,1/2+y,-z
y,x,-z
-y,-x,-z
loop_
_atom_site_type_symbol
_atom_site_label
_atom_site_fract_x
_atom_site_fract_y
_atom_site_fract_z
Si Si1 0.898588 0.261129 0.539249
Si Si2 0.263605 0.888993 0.040874
Si Si3 0.230794 0.383632 0.382608
Si Si4 0.614155 0.765642 0.877439
Si Si5 0.768751 0.617404 0.796303
Si Si6 0.272651 0.877004 0.716610
O O1 0.795507 0.417990 0.535487
O O2 0.855009 0.144992 0.500000
O O3 0.866661 0.178712 0.585666
O O4 0.425498 0.792850 0.039207
O O5 0.170169 0.852229 0.085002
O O6 0.156120 0.843881 0.000000
O O7 0.207254 0.568192 0.391783
O O8 0.285160 0.351852 0.332990
O O9 0.428592 0.792027 0.881906
O O10 0.644757 0.684258 0.831018
O O11 0.791005 0.432233 0.803024
O O12 0.697809 0.642092 0.748077
O O13 0.437778 0.790567 0.725780
#
# Coordination Sequence:
#
# PCOD8304650 Si02
#       6
#     8   8   8   8   8   8
#     4  11  24  39  56  81 112 145 184 230 278 331
#     4  11  24  41  62  90 122 155 194 237 282 337
#     4   9  19  37  60  85 113 145 184 230 278 331
#     4  11  24  41  62  88 116 149 193 241 288 341
#     4  11  24  39  56  83 118 153 191 236 284 336
#     4   9  19  37  60  85 113 147 188 232 278 332
#
# _framework density 21.837529
#
# number of rings (size 3 to 8) (size 9 to 14) (size 15 to 20)
#    0.000    1.667    0.000    5.000    0.000   15.333 
#    0.000    5.000    0.000    0.000    0.000    0.000 
#    0.000    0.000    0.000    0.000    0.000    0.000 
#
# Total GULP energy -595506.877625 kJ/mol
# GULP energy per Si atom -12406.393284 kJ/mol
# Density = 2.178783 g / cm^3
# Si number density = 21.837529 Si / 1000 Ang^3
#
#
#
# Elastic Constant Matrix: (Units=GPa)
#
#
# Indices 1 2 3 4 5 6 
#
# 1 13.4838 -7.0815 9.9269 0.0000 0.0000 0.0000
# 2 -7.0815 13.4840 9.9269 0.0000 0.0000 0.0000
# 3 9.9269 9.9269 117.5555 0.0000 0.0000 0.0000
# 4 0.0000 0.0000 0.0000 11.9034 0.0000 0.0000
# 5 0.0000 0.0000 0.0000 0.0000 11.9032 0.0000
# 6 0.0000 0.0000 0.0000 0.0000 0.0000 34.4560
#
#
#
# Elastic Compliance Matrix: (Units=1/GPa)
#
#
# Indices 1 2 3 4 5 6 
#
# 1 0.130114 0.081488 -0.017869 0.000000 0.000000 0.000000
# 2 0.081488 0.130112 -0.017868 0.000000 0.000000 0.000000
# 3 -0.017869 -0.017868 0.011524 0.000000 0.000000 0.000000
# 4 0.000000 0.000000 0.000000 0.084010 0.000000 0.000000
# 5 0.000000 0.000000 0.000000 0.000000 0.084011 0.000000
# 6 0.000000 0.000000 0.000000 0.000000 0.000000 0.029023
#
#
# Mechanical properties :
#
#
# Convention : Reuss Voigt Hill
#
# Bulk Modulus (GPa) = 2.75291 18.89644 10.82467
# Shear Modulus (GPa) = 10.03257 20.43591 15.23424
#
# Velocity S-wave (km/s) = 2.14573 3.06243 2.64411
# Velocity P-wave (km/s) = 2.72071 4.60181 3.78014
#
# Compressibility (1/GPa) = 0.36325252
#
# Stress axis : x y z
#
# Youngs Moduli (GPa) = 7.68555 7.68568 86.77229
#
# Poissons Ratio (x) = -0.62629 1.55050
# Poissons Ratio (y) = -0.62628 1.55049
# Poissons Ratio (z) = 0.13733 0.13733
#
# Static dielectric constant tensor:
#      x y z
#    x 3.874050 0.000000 0.000000 
#    y 0.000000 3.874050 0.000000 
#    z 0.000000 0.000000 3.917220 
# 
# 
# High freq. dielectric constant tensor:
#      x y z
#    x 1.860170 0.000000 0.000000 
#    y 0.000000 1.860170 0.000000 
#    z 0.000000 0.000000 1.869590 
# 
# From -- ./inp_files/3042.got.cif
#   From: 2010.03.12/outbox.cif.g09.slc.cpg/sg90_2_cif.got.tgz:3042.got - 2010.04.08 20:26:03.
