data_PCOD8304882
_publ_section_title
;
Structure prediction by ZEFSAII (Michael W. Deem and Ramdas Pophale) SiO2 
 PCOD8304882
Probable space group: P 41 2 2
;
_chemical_formula_sum "Si O2"
_cell_formula_units_Z 48
_cell_length_a 13.793076
_cell_length_b 13.793076
_cell_length_c 12.262958
_cell_angle_alpha 90.000000
_cell_angle_beta 90.000000
_cell_angle_gamma 90.000000
_cell_volume 2333.014829
_symmetry_space_group_name_H-M "P 41 2 2"
_symmetry_group_IT_number 91
_symmetry_cell_setting 'tetragonal'
loop_
_space_group_symop_operation_xyz
x,y,z
-y,x,1/4+z
-x,-y,1/2+z
y,-x,3/4+z
x,-y,1/2-z
-x,y,-z
y,x,3/4-z
-y,-x,1/4-z
loop_
_atom_site_type_symbol
_atom_site_label
_atom_site_fract_x
_atom_site_fract_y
_atom_site_fract_z
Si Si1 0.832638 0.479971 0.375848
Si Si2 0.043152 0.411812 0.322221
Si Si3 0.175759 0.158709 0.603468
Si Si4 0.226425 0.033781 0.970649
Si Si5 0.110537 0.324965 0.973656
Si Si6 0.780471 0.667717 0.958261
O O1 0.800898 0.500000 0.250000
O O2 0.828039 0.580814 0.441155
O O3 0.759418 0.403044 0.436594
O O4 0.941842 0.437768 0.381319
O O5 0.082316 0.500000 0.250000
O O6 0.128082 0.384824 0.404399
O O7 0.025079 0.325269 0.239036
O O8 0.082460 0.192880 0.669034
O O9 0.273536 0.163601 0.675658
O O10 0.189364 0.225868 0.498633
O O11 0.150641 0.048642 0.567463
O O12 0.246088 0.110868 0.874716
O O13 0.000000 0.354568 0.000000
O O14 0.688776 0.688776 0.875000
#
# Coordination Sequence:
#
# PCOD8304882 Si02
#       6
#     8   8   8   8   8   8
#     4  11  21  37  64  94 122 165 216 276 343 390
#     4  11  21  37  66  95 123 163 221 277 349 388
#     4  11  24  38  61  85 129 180 224 270 316 384
#     4  11  21  40  63  87 126 178 225 273 321 378
#     4  10  20  37  62  87 119 163 218 276 327 379
#     4  12  24  36  59  95 134 169 205 270 340 399
#
# _framework density 20.574237
#
# number of rings (size 3 to 8) (size 9 to 14) (size 15 to 20)
#    0.000    1.000    6.667    2.000    2.333    0.000 
#    0.000    0.000   36.667    0.000    0.000    0.000 
#    0.000   53.333    0.000    0.000    0.000    0.000 
#
# Total GULP energy -594957.284211 kJ/mol
# GULP energy per Si atom -12394.943421 kJ/mol
# Density = 2.052741 g / cm^3
# Si number density = 20.574237 Si / 1000 Ang^3
#
#
#
# Elastic Constant Matrix: (Units=GPa)
#
#
# Indices 1 2 3 4 5 6 
#
# 1 56.6941 46.8629 42.7848 0.0000 0.0000 0.0000
# 2 46.8629 56.6941 42.7848 0.0000 0.0000 0.0000
# 3 42.7848 42.7848 111.0453 0.0000 0.0000 0.0000
# 4 0.0000 0.0000 0.0000 45.2251 0.0000 0.0000
# 5 0.0000 0.0000 0.0000 0.0000 45.2251 0.0000
# 6 0.0000 0.0000 0.0000 0.0000 0.0000 25.4940
#
#
#
# Elastic Compliance Matrix: (Units=1/GPa)
#
#
# Indices 1 2 3 4 5 6 
#
# 1 0.057942 -0.043775 -0.005458 0.000000 0.000000 0.000000
# 2 -0.043775 0.057942 -0.005458 0.000000 0.000000 0.000000
# 3 -0.005458 -0.005458 0.013211 0.000000 0.000000 0.000000
# 4 0.000000 0.000000 0.000000 0.022112 0.000000 0.000000
# 5 0.000000 0.000000 0.000000 0.000000 0.022112 0.000000
# 6 0.000000 0.000000 0.000000 0.000000 0.000000 0.039225
#
#
# Mechanical properties :
#
#
# Convention : Reuss Voigt Hill
#
# Bulk Modulus (GPa) = 50.73148 54.36652 52.54900
# Shear Modulus (GPa) = 15.22081 29.32222 22.27152
#
# Velocity S-wave (km/s) = 2.72288 3.77927 3.29370
# Velocity P-wave (km/s) = 5.88190 6.74728 6.32939
#
# Compressibility (1/GPa) = 0.01971163
#
# Stress axis : x y z
#
# Youngs Moduli (GPa) = 17.25866 17.25866 75.69199
#
# Poissons Ratio (x) = 0.75550 0.41315
# Poissons Ratio (y) = 0.75550 0.41315
# Poissons Ratio (z) = 0.09420 0.09420
#
# Static dielectric constant tensor:
#      x y z
#    x 3.634720 0.000000 0.000000 
#    y 0.000000 3.634720 0.000000 
#    z 0.000000 0.000000 4.099350 
# 
# 
# High freq. dielectric constant tensor:
#      x y z
#    x 1.772370 0.000000 0.000000 
#    y 0.000000 1.772370 0.000000 
#    z 0.000000 0.000000 1.833780 
# 
# From -- ./inp_files/10780.got.cif
#   From: 2010.03.12/outbox.cif.g09.slc.cpg/sg91_6_cif.got.tgz:10780.got - 2010.04.08 20:27:58.
