data_PCOD8304710
_publ_section_title
;
Structure prediction by ZEFSAII (Michael W. Deem and Ramdas Pophale) SiO2 
 PCOD8304710
Probable space group: P 41 2 2
;
_chemical_formula_sum "Si O2"
_cell_formula_units_Z 56
_cell_length_a 16.923309
_cell_length_b 16.923309
_cell_length_c 12.577664
_cell_angle_alpha 90.000000
_cell_angle_beta 90.000000
_cell_angle_gamma 90.000000
_cell_volume 3602.222688
_symmetry_space_group_name_H-M "P 41 2 2"
_symmetry_group_IT_number 91
_symmetry_cell_setting 'tetragonal'
loop_
_space_group_symop_operation_xyz
x,y,z
-y,x,1/4+z
-x,-y,1/2+z
y,-x,3/4+z
x,-y,1/2-z
-x,y,-z
y,x,3/4-z
-y,-x,1/4-z
loop_
_atom_site_type_symbol
_atom_site_label
_atom_site_fract_x
_atom_site_fract_y
_atom_site_fract_z
Si Si1 0.553019 0.351799 0.398011
Si Si2 0.239678 0.629637 0.625701
Si Si3 0.558621 0.089365 0.731468
Si Si4 0.590294 0.886295 0.533890
Si Si5 0.819340 0.592603 0.590204
Si Si6 0.632660 0.507662 0.416513
Si Si7 0.405199 0.060210 0.490273
O O1 0.500000 0.372027 0.500000
O O2 0.586911 0.263076 0.404861
O O3 0.623746 0.416016 0.382568
O O4 0.501138 0.361031 0.293092
O O5 0.302292 0.697709 0.625000
O O6 0.182925 0.639215 0.727119
O O7 0.190508 0.642924 0.517009
O O8 0.286101 0.545367 0.628718
O O9 0.601278 0.119666 0.838622
O O10 0.491386 0.150854 0.701628
O O11 0.618551 0.086631 0.630271
O O12 0.524402 0.000000 0.750000
O O13 0.500000 0.877157 0.500000
O O14 0.623007 0.970421 0.491027
O O15 0.882414 0.632937 0.670819
O O16 0.557031 0.557031 0.375000
O O17 0.500000 0.065960 0.500000
#
# Coordination Sequence:
#
# PCOD8304710 Si02
#       7
#     8   8   8   8   8   8   8
#     4  11  20  32  47  59  74 106 148 196 244 278
#     4  10  22  33  43  64  87 123 159 197 230 264
#     4   9  16  29  47  71  88 102 133 184 243 287
#     4  10  17  28  49  67  85 112 143 183 233 286
#     4  10  19  31  44  63  90 104 136 190 234 282
#     4  10  21  35  46  56  76 111 158 206 236 264
#     4   8  16  28  48  70  88 103 130 185 241 286
#
# _framework density 15.545957
#
# number of rings (size 3 to 8) (size 9 to 14) (size 15 to 20)
#    0.000    2.286    1.429    3.857    0.000    3.429 
#    0.000    0.000    0.000    0.000    0.000    0.000 
#    0.000    0.000    0.000    0.000    0.000    0.000 
#
# Total GULP energy -693878.133049 kJ/mol
# GULP energy per Si atom -12390.680947 kJ/mol
# Density = 1.551057 g / cm^3
# Si number density = 15.545957 Si / 1000 Ang^3
#
#
#
# Elastic Constant Matrix: (Units=GPa)
#
#
# Indices 1 2 3 4 5 6 
#
# 1 73.5608 21.7904 40.3494 0.0000 0.0000 0.0000
# 2 21.7904 73.5629 40.3501 0.0000 0.0000 0.0000
# 3 40.3494 40.3501 114.5712 0.0000 0.0000 0.0000
# 4 0.0000 0.0000 0.0000 21.6730 0.0000 0.0000
# 5 0.0000 0.0000 0.0000 0.0000 21.6715 0.0000
# 6 0.0000 0.0000 0.0000 0.0000 0.0000 3.7111
#
#
#
# Elastic Compliance Matrix: (Units=1/GPa)
#
#
# Indices 1 2 3 4 5 6 
#
# 1 0.017128 -0.002188 -0.005262 0.000000 0.000000 0.000000
# 2 -0.002188 0.017128 -0.005262 0.000000 0.000000 0.000000
# 3 -0.005262 -0.005262 0.012434 0.000000 0.000000 0.000000
# 4 0.000000 0.000000 0.000000 0.046140 0.000000 0.000000
# 5 0.000000 0.000000 0.000000 0.000000 0.046144 0.000000
# 6 0.000000 0.000000 0.000000 0.000000 0.000000 0.269463
#
#
# Mechanical properties :
#
#
# Convention : Reuss Voigt Hill
#
# Bulk Modulus (GPa) = 47.01791 51.85273 49.43532
# Shear Modulus (GPa) = 11.33917 20.02478 15.68197
#
# Velocity S-wave (km/s) = 2.70366 3.59291 3.17953
# Velocity P-wave (km/s) = 6.32902 7.11610 6.73407
#
# Compressibility (1/GPa) = 0.02126849
#
# Stress axis : x y z
#
# Youngs Moduli (GPa) = 58.38254 58.38416 80.42201
#
# Poissons Ratio (x) = 0.12772 0.42317
# Poissons Ratio (y) = 0.12771 0.42316
# Poissons Ratio (z) = 0.30720 0.30720
#
# Static dielectric constant tensor:
#      x y z
#    x 2.811100 0.000000 0.000000 
#    y 0.000000 2.811110 0.000000 
#    z 0.000000 0.000000 3.072340 
# 
# 
# High freq. dielectric constant tensor:
#      x y z
#    x 1.552750 0.000000 0.000000 
#    y 0.000000 1.552750 0.000000 
#    z 0.000000 0.000000 1.628600 
# 
# From -- ./inp_files/16038.got.cif
#   From: 2010.03.12/outbox.cif.g09.slc.cpg/sg91_9_cif.got.tgz:16038.got - 2010.04.08 20:27:58.
