data_PCOD8304749
_publ_section_title
;
Structure prediction by ZEFSAII (Michael W. Deem and Ramdas Pophale) SiO2 
 PCOD8304749
Probable space group: P 41 2 2
;
_chemical_formula_sum "Si O2"
_cell_formula_units_Z 44
_cell_length_a 15.106110
_cell_length_b 15.106110
_cell_length_c 11.026878
_cell_angle_alpha 90.000000
_cell_angle_beta 90.000000
_cell_angle_gamma 90.000000
_cell_volume 2516.273566
_symmetry_space_group_name_H-M "P 41 2 2"
_symmetry_group_IT_number 91
_symmetry_cell_setting 'tetragonal'
loop_
_space_group_symop_operation_xyz
x,y,z
-y,x,1/4+z
-x,-y,1/2+z
y,-x,3/4+z
x,-y,1/2-z
-x,y,-z
y,x,3/4-z
-y,-x,1/4-z
loop_
_atom_site_type_symbol
_atom_site_label
_atom_site_fract_x
_atom_site_fract_y
_atom_site_fract_z
Si Si1 0.234309 0.033554 0.483708
Si Si2 0.307340 0.185562 0.315207
Si Si3 0.369547 0.898298 0.574478
Si Si4 0.213246 0.213246 0.875000
Si Si5 0.832339 0.135612 0.877864
Si Si6 0.549269 0.907340 0.690694
O O1 0.285382 0.109702 0.412175
O O2 0.154665 0.075994 0.560658
O O3 0.301484 0.981234 0.573758
O O4 0.186222 0.968829 0.388802
O O5 0.281748 0.281748 0.375000
O O6 0.250536 0.176506 0.193563
O O7 0.410589 0.172010 0.275834
O O8 0.317181 0.807094 0.603008
O O9 0.442851 0.905640 0.680720
O O10 0.412330 0.895608 0.442670
O O11 0.180320 0.158993 0.758876
O O12 0.579954 0.000000 0.750000
#
# Coordination Sequence:
#
# PCOD8304749 Si02
#       6
#     8   8   8   4   8   8
#     4  10  19  35  53  72  98 152 189 231 275 315
#     4  10  18  34  58  74 104 145 183 226 269 329
#     4  10  22  32  55  78 112 141 171 233 277 331
#     4  10  20  36  50  76 108 144 178 210 280 340
#     4  10  20  31  54  67 101 142 188 228 266 312
#     4  11  19  35  54  83 109 137 184 228 281 330
#
# _framework density 17.486174999999999
#
# number of rings (size 3 to 8) (size 9 to 14) (size 15 to 20)
#    0.000    1.818    5.455    0.545    2.545    2.182 
#    0.000    0.000   80.000    0.000    0.000    0.000 
#   10.909    0.000    0.000    0.000    0.000    0.000 
#
# Total GULP energy -545115.147507 kJ/mol
# GULP energy per Si atom -12388.980625 kJ/mol
# Density = 1.744638 g / cm^3
# Si number density = 17.486175 Si / 1000 Ang^3
#
#
#
# Elastic Constant Matrix: (Units=GPa)
#
#
# Indices 1 2 3 4 5 6 
#
# 1 77.0278 38.3730 25.4624 0.0000 0.0000 0.0000
# 2 38.3730 77.0278 25.4624 0.0000 0.0000 0.0000
# 3 25.4624 25.4624 67.6279 0.0000 0.0000 0.0000
# 4 0.0000 0.0000 0.0000 33.6487 0.0000 0.0000
# 5 0.0000 0.0000 0.0000 0.0000 33.6487 0.0000
# 6 0.0000 0.0000 0.0000 0.0000 0.0000 18.4851
#
#
#
# Elastic Compliance Matrix: (Units=1/GPa)
#
#
# Indices 1 2 3 4 5 6 
#
# 1 0.018131 -0.007739 -0.003913 0.000000 0.000000 0.000000
# 2 -0.007739 0.018131 -0.003913 0.000000 0.000000 0.000000
# 3 -0.003913 -0.003913 0.017733 0.000000 0.000000 0.000000
# 4 0.000000 0.000000 0.000000 0.029719 0.000000 0.000000
# 5 0.000000 0.000000 0.000000 0.000000 0.029719 0.000000
# 6 0.000000 0.000000 0.000000 0.000000 0.000000 0.054098
#
#
# Mechanical properties :
#
#
# Convention : Reuss Voigt Hill
#
# Bulk Modulus (GPa) = 43.73212 44.47545 44.10378
# Shear Modulus (GPa) = 24.23874 25.98221 25.11048
#
# Velocity S-wave (km/s) = 3.72716 3.85888 3.79360
# Velocity P-wave (km/s) = 6.60198 6.73383 6.66823
#
# Compressibility (1/GPa) = 0.02286649
#
# Stress axis : x y z
#
# Youngs Moduli (GPa) = 55.15398 55.15398 56.39163
#
# Poissons Ratio (x) = 0.42684 0.22064
# Poissons Ratio (y) = 0.42684 0.22064
# Poissons Ratio (z) = 0.21580 0.21580
#
# Static dielectric constant tensor:
#      x y z
#    x 3.354290 0.000000 0.000000 
#    y 0.000000 3.354290 0.000000 
#    z 0.000000 0.000000 3.478190 
# 
# 
# High freq. dielectric constant tensor:
#      x y z
#    x 1.648150 0.000000 0.000000 
#    y 0.000000 1.648150 0.000000 
#    z 0.000000 0.000000 1.692110 
# 
# From -- ./inp_files/20168.got.cif
#   From: 2010.03.12/outbox.cif.g09.slc.cpg/sg91_11_cif.got.tgz:20168.got - 2010.04.08 20:27:58.
