data_PCOD8304631
_publ_section_title
;
Structure prediction by ZEFSAII (Michael W. Deem and Ramdas Pophale) SiO2 
 PCOD8304631
Probable space group: P 4 21 2
;
_chemical_formula_sum "Si O2"
_cell_formula_units_Z 48
_cell_length_a 9.572421
_cell_length_b 9.572421
_cell_length_c 28.401751
_cell_angle_alpha 90.000000
_cell_angle_beta 90.000000
_cell_angle_gamma 90.000000
_cell_volume 2602.487770
_symmetry_space_group_name_H-M "P 4 21 2"
_symmetry_group_IT_number 90
_symmetry_cell_setting 'tetragonal'
loop_
_space_group_symop_operation_xyz
x,y,z
1/2-y,1/2+x,z
-x,-y,z
1/2+y,1/2-x,z
1/2+x,1/2-y,-z
1/2-x,1/2+y,-z
y,x,-z
-y,-x,-z
loop_
_atom_site_type_symbol
_atom_site_label
_atom_site_fract_x
_atom_site_fract_y
_atom_site_fract_z
Si Si1 0.409255 0.790380 0.862223
Si Si2 0.409257 0.209621 0.637777
Si Si3 0.860745 0.154279 0.269933
Si Si4 0.639255 0.345721 0.769933
Si Si5 0.103626 0.294525 0.030309
Si Si6 0.103624 0.705476 0.469691
O O1 0.571478 0.819479 0.852422
O O2 0.360721 0.666459 0.826993
O O3 0.381392 0.745161 0.915761
O O4 0.571480 0.180520 0.647578
O O5 0.360722 0.333542 0.673007
O O6 0.381394 0.254840 0.584239
O O7 0.723400 0.223400 0.250001
O O8 1.000000 0.230694 0.250000
O O9 0.859228 1.000000 0.250000
O O10 0.184579 0.439304 0.019426
O O11 0.169383 0.169383 0.000000
O O12 0.184579 0.560698 0.480575
O O13 0.169381 0.830620 0.500000
#
# Coordination Sequence:
#
# PCOD8304631 Si02
#       6
#     8   8   8   8   8   8
#     4   9  17  34  60  83 107 147 193 237 278 326
#     4   9  17  34  60  83 107 147 193 237 278 326
#     4  11  22  36  56  83 114 148 189 234 278 338
#     4  11  22  36  56  83 114 148 189 234 278 338
#     4   9  19  37  58  84 116 148 189 235 284 343
#     4   9  19  37  58  84 116 148 189 235 284 343
#
# _framework density 18.443891000000001
#
# number of rings (size 3 to 8) (size 9 to 14) (size 15 to 20)
#    0.000    2.333    3.333    2.000    0.000    1.333 
#    6.000    0.000    0.000    0.000    0.000    0.000 
#    0.000    0.000    0.000    0.000    0.000    0.000 
#
# Total GULP energy -594859.099925 kJ/mol
# GULP energy per Si atom -12392.897915 kJ/mol
# Density = 1.840191 g / cm^3
# Si number density = 18.443891 Si / 1000 Ang^3
#
#
#
# Elastic Constant Matrix: (Units=GPa)
#
#
# Indices 1 2 3 4 5 6 
#
# 1 75.8570 31.3178 54.9965 0.0000 0.0000 0.0000
# 2 31.3178 75.8561 54.9960 0.0000 0.0000 0.0000
# 3 54.9965 54.9960 144.1622 0.0000 0.0000 0.0000
# 4 0.0000 0.0000 0.0000 37.0703 0.0000 0.0000
# 5 0.0000 0.0000 0.0000 0.0000 37.0703 0.0000
# 6 0.0000 0.0000 0.0000 0.0000 0.0000 26.8274
#
#
#
# Elastic Compliance Matrix: (Units=1/GPa)
#
#
# Indices 1 2 3 4 5 6 
#
# 1 0.018893 -0.003559 -0.005850 0.000000 0.000000 0.000000
# 2 -0.003559 0.018893 -0.005850 0.000000 0.000000 0.000000
# 3 -0.005850 -0.005850 0.011400 0.000000 0.000000 0.000000
# 4 0.000000 0.000000 0.000000 0.026976 0.000000 0.000000
# 5 0.000000 0.000000 0.000000 0.000000 0.026976 0.000000
# 6 0.000000 0.000000 0.000000 0.000000 0.000000 0.037275
#
#
# Mechanical properties :
#
#
# Convention : Reuss Voigt Hill
#
# Bulk Modulus (GPa) = 53.56457 64.27732 58.92095
# Shear Modulus (GPa) = 28.22404 30.49793 29.36098
#
# Velocity S-wave (km/s) = 3.91610 4.07080 3.99420
# Velocity P-wave (km/s) = 7.03937 7.55123 7.29979
#
# Compressibility (1/GPa) = 0.01866906
#
# Stress axis : x y z
#
# Youngs Moduli (GPa) = 52.92907 52.92851 87.71983
#
# Poissons Ratio (x) = 0.18838 0.51315
# Poissons Ratio (y) = 0.18838 0.51315
# Poissons Ratio (z) = 0.30963 0.30962
#
# Static dielectric constant tensor:
#      x y z
#    x 3.758440 0.000000 0.000000 
#    y 0.000000 3.758440 0.000000 
#    z 0.000000 0.000000 3.475890 
# 
# 
# High freq. dielectric constant tensor:
#      x y z
#    x 1.697440 0.000000 0.000000 
#    y 0.000000 1.697440 0.000000 
#    z 0.000000 0.000000 1.724910 
# 
# From -- ./inp_files/3045.got.cif
#   From: 2010.03.12/outbox.cif.g09.slc.cpg/sg90_2_cif.got.tgz:3045.got - 2010.04.08 20:26:03.
