data_PCOD8304468
_publ_section_title
;
Structure prediction by ZEFSAII (Michael W. Deem and Ramdas Pophale) SiO2 
 PCOD8304468
Probable space group: P 4 2 2
;
_chemical_formula_sum "Si O2"
_cell_formula_units_Z 64
_cell_length_a 21.295966
_cell_length_b 21.295966
_cell_length_c 9.674632
_cell_angle_alpha 90.000000
_cell_angle_beta 90.000000
_cell_angle_gamma 90.000000
_cell_volume 4387.621379
_symmetry_space_group_name_H-M "P 4 2 2"
_symmetry_group_IT_number 89
_symmetry_cell_setting 'tetragonal'
loop_
_space_group_symop_operation_xyz
x,y,z
-y,x,z
-x,-y,z
y,-x,z
x,-y,-z
-x,y,-z
y,x,-z
-y,-x,-z
loop_
_atom_site_type_symbol
_atom_site_label
_atom_site_fract_x
_atom_site_fract_y
_atom_site_fract_z
Si Si1 0.070278 0.435332 0.267695
Si Si2 0.131606 0.053155 0.906097
Si Si3 0.157656 0.237405 0.404446
Si Si4 0.843521 0.234963 0.905860
Si Si5 0.053621 0.866892 0.593199
Si Si6 0.072284 0.348698 0.511876
Si Si7 0.925862 0.650660 0.023220
Si Si8 0.075139 0.428494 0.769202
O O1 0.080429 0.411455 0.421989
O O2 0.093693 0.379876 0.168472
O O3 0.106539 0.502477 0.253231
O O4 0.997912 0.443393 0.231650
O O5 0.174545 0.113365 0.888230
O O6 0.114766 0.030017 0.749099
O O7 0.070739 0.070739 0.000000
O O8 0.166160 0.000000 0.000000
O O9 0.217317 0.217317 0.500000
O O10 0.179376 0.255615 0.248198
O O11 0.111456 0.179275 0.392825
O O12 0.121204 0.295148 0.473012
O O13 0.884516 0.286824 0.986307
O O14 0.783164 0.216837 0.000000
O O15 0.072692 0.927309 0.500000
O O16 0.000000 0.833255 0.500000
O O17 0.091250 0.373186 0.662357
O O18 0.000000 0.323843 0.500000
O O19 0.902555 0.599059 0.914291
O O20 0.000000 0.666600 0.000000
#
# Coordination Sequence:
#
# PCOD8304468 Si02
#       8
#     8   8   8   8   8   8   8   8
#     4   9  16  30  43  64  94 112 136 167 208 255
#     4  10  20  34  48  63  78  97 123 161 208 256
#     4  10  21  34  46  61  82 107 139 177 212 248
#     4  10  21  34  46  61  82 107 139 177 212 248
#     4  10  20  34  48  63  78  97 123 161 208 256
#     4  10  18  30  46  66  87 114 142 171 216 264
#     4  10  18  30  46  66  87 114 142 171 216 264
#     4   9  18  26  45  68  88 114 136 167 206 261
#
# _framework density 14.58649
#
# number of rings (size 3 to 8) (size 9 to 14) (size 15 to 20)
#    0.000    2.250    1.250    2.250    1.750    4.250 
#    0.000    1.250    0.000    0.000    0.000    0.000 
#    0.000    0.000    0.000    0.000    0.000    0.000 
#
# Total GULP energy -792875.657798 kJ/mol
# GULP energy per Si atom -12388.682153 kJ/mol
# Density = 1.455329 g / cm^3
# Si number density = 14.586490 Si / 1000 Ang^3
#
#
#
# Elastic Constant Matrix: (Units=GPa)
#
#
# Indices 1 2 3 4 5 6 
#
# 1 53.8947 20.0374 21.1699 0.0000 0.0000 0.0000
# 2 20.0374 53.8937 21.1696 0.0000 0.0000 0.0000
# 3 21.1699 21.1696 78.8069 0.0000 0.0000 0.0000
# 4 0.0000 0.0000 0.0000 -495.3515 0.0000 0.0000
# 5 0.0000 0.0000 0.0000 0.0000 -495.5104 0.0000
# 6 0.0000 0.0000 0.0000 0.0000 0.0000 3.9819
#
#
#
# Elastic Compliance Matrix: (Units=1/GPa)
#
#
# Indices 1 2 3 4 5 6 
#
# 1 0.022760 -0.006775 -0.004294 0.000000 0.000000 0.000000
# 2 -0.006775 0.022761 -0.004294 0.000000 0.000000 0.000000
# 3 -0.004294 -0.004294 0.014996 0.000000 0.000000 0.000000
# 4 0.000000 0.000000 0.000000 -0.002019 0.000000 0.000000
# 5 0.000000 0.000000 0.000000 0.000000 -0.002018 0.000000
# 6 0.000000 0.000000 0.000000 0.000000 0.000000 0.251136
#
#
# Mechanical properties :
#
#
# Convention : Reuss Voigt Hill
#
# Bulk Modulus (GPa) = 33.56793 34.59434 34.08114
# Shear Modulus (GPa) = 14.35652 -189.09476 -87.36912
#
# Velocity S-wave (km/s) = 3.14065 -11.39817 -7.74773
# Velocity P-wave (km/s) = 6.01786 12.22523 7.52468
#
# Compressibility (1/GPa) = 0.02979034
#
# Stress axis : x y z
#
# Youngs Moduli (GPa) = 43.93584 43.93511 66.68334
#
# Poissons Ratio (x) = 0.29768 0.28634
# Poissons Ratio (y) = 0.29769 0.28634
# Poissons Ratio (z) = 0.18866 0.18866
#
# Static dielectric constant tensor:
#      x y z
#    x 38.550370 0.000000 0.000000 
#    y 0.000000 38.565880 0.000000 
#    z 0.000000 0.000000 3.337830 
# 
# 
# High freq. dielectric constant tensor:
#      x y z
#    x 1.516720 0.000000 0.000000 
#    y 0.000000 1.516720 0.000000 
#    z 0.000000 0.000000 1.584800 
# 
# From -- ./inp_files/1378.got.cif
#   From: 2010.03.12/outbox.cif.g09.slc.cpg/sg89_1_cif.got.tgz:1378.got - 2010.04.08 20:24:03.
