data_PCOD8304897
_publ_section_title
;
Structure prediction by ZEFSAII (Michael W. Deem and Ramdas Pophale) SiO2 
 PCOD8304897
Probable space group: P 41 2 2
;
_chemical_formula_sum "Si O2"
_cell_formula_units_Z 32
_cell_length_a 8.782685
_cell_length_b 8.782685
_cell_length_c 17.892480
_cell_angle_alpha 90.000000
_cell_angle_beta 90.000000
_cell_angle_gamma 90.000000
_cell_volume 1380.146390
_symmetry_space_group_name_H-M "P 41 2 2"
_symmetry_group_IT_number 91
_symmetry_cell_setting 'tetragonal'
loop_
_space_group_symop_operation_xyz
x,y,z
-y,x,1/4+z
-x,-y,1/2+z
y,-x,3/4+z
x,-y,1/2-z
-x,y,-z
y,x,3/4-z
-y,-x,1/4-z
loop_
_atom_site_type_symbol
_atom_site_label
_atom_site_fract_x
_atom_site_fract_y
_atom_site_fract_z
Si Si1 0.499725 0.310753 0.677420
Si Si2 0.953390 0.848039 0.082723
Si Si3 0.765206 0.551017 0.093381
Si Si4 0.990168 0.319081 0.914957
O O1 0.642114 0.357887 0.625000
O O2 0.356400 0.421736 0.659110
O O3 0.550527 0.324093 0.763883
O O4 0.449366 0.139160 0.658646
O O5 0.899406 0.676084 0.093933
O O6 0.818675 0.960878 0.108870
O O7 0.110412 0.889589 0.125000
O O8 0.000000 0.884630 0.000000
O O9 0.848204 0.391422 0.108700
O O10 0.000000 0.258458 0.000000
#
# Coordination Sequence:
#
# PCOD8304897 Si02
#       4
#     8   8   8   8
#     4  10  20  38  64  93 126 165 209 256 311 373
#     4  11  23  40  63  91 123 162 208 258 314 374
#     4  10  22  40  63  92 127 166 207 259 316 374
#     4   9  20  40  63  90 126 163 206 259 313 371
#
# _framework density 23.185945
#
# number of rings (size 3 to 8) (size 9 to 14) (size 15 to 20)
#    0.000    2.000    0.000    3.750    0.000    5.000 
#    0.000    8.750    0.000    0.000    0.000    0.000 
#    0.000    0.000    0.000    0.000    0.000    0.000 
#
# Total GULP energy -396731.168940 kJ/mol
# GULP energy per Si atom -12397.849029 kJ/mol
# Density = 2.313317 g / cm^3
# Si number density = 23.185945 Si / 1000 Ang^3
#
#
#
# Elastic Constant Matrix: (Units=GPa)
#
#
# Indices 1 2 3 4 5 6 
#
# 1 62.0307 43.1225 32.4638 0.0000 0.0000 0.0000
# 2 43.1225 62.0333 32.4649 0.0000 0.0000 0.0000
# 3 32.4638 32.4649 76.8551 0.0000 0.0000 0.0000
# 4 0.0000 0.0000 0.0000 36.9419 0.0000 0.0000
# 5 0.0000 0.0000 0.0000 0.0000 36.9426 0.0000
# 6 0.0000 0.0000 0.0000 0.0000 0.0000 32.7334
#
#
#
# Elastic Compliance Matrix: (Units=1/GPa)
#
#
# Indices 1 2 3 4 5 6 
#
# 1 0.032875 -0.020009 -0.005434 0.000000 0.000000 0.000000
# 2 -0.020009 0.032874 -0.005435 0.000000 0.000000 0.000000
# 3 -0.005434 -0.005435 0.017603 0.000000 0.000000 0.000000
# 4 0.000000 0.000000 0.000000 0.027069 0.000000 0.000000
# 5 0.000000 0.000000 0.000000 0.000000 0.027069 0.000000
# 6 0.000000 0.000000 0.000000 0.000000 0.000000 0.030550
#
#
# Mechanical properties :
#
#
# Convention : Reuss Voigt Hill
#
# Bulk Modulus (GPa) = 46.30585 46.33573 46.32079
# Shear Modulus (GPa) = 21.09755 27.51478 24.30616
#
# Velocity S-wave (km/s) = 3.01977 3.44859 3.24128
# Velocity P-wave (km/s) = 5.67218 5.99039 5.83346
#
# Compressibility (1/GPa) = 0.02159554
#
# Stress axis : x y z
#
# Youngs Moduli (GPa) = 30.41823 30.41930 56.80960
#
# Poissons Ratio (x) = 0.60866 0.30872
# Poissons Ratio (y) = 0.60864 0.30874
# Poissons Ratio (z) = 0.16530 0.16532
#
# Static dielectric constant tensor:
#      x y z
#    x 4.346240 0.000000 0.000000 
#    y 0.000000 4.346220 0.000000 
#    z 0.000000 0.000000 4.025580 
# 
# 
# High freq. dielectric constant tensor:
#      x y z
#    x 1.925950 0.000000 0.000000 
#    y 0.000000 1.925950 0.000000 
#    z 0.000000 0.000000 1.902900 
# 
# From -- ./inp_files/6018.got.cif
#   From: 2010.03.12/outbox.cif.g09.slc.cpg/sg91_4_cif.got.tgz:6018.got - 2010.04.08 20:27:58.
