data_PCOD8304063
_publ_section_title
;
Structure prediction by ZEFSAII (Michael W. Deem and Ramdas Pophale) SiO2 
 PCOD8304063
Probable space group: I 4/M
;
_chemical_formula_sum "Si O2"
_cell_formula_units_Z 96
_cell_length_a 14.319015
_cell_length_b 14.319015
_cell_length_c 21.703338
_cell_angle_alpha 90.000000
_cell_angle_beta 90.000000
_cell_angle_gamma 90.000000
_cell_volume 4449.926340
_symmetry_space_group_name_H-M "I 4/M"
_symmetry_group_IT_number 87
_symmetry_cell_setting 'tetragonal'
loop_
_space_group_symop_operation_xyz
x,y,z
-y,x,z
-x,-y,z
y,-x,z
-x,-y,-z
y,-x,-z
x,y,-z
-y,x,-z
1/2+x,1/2+y,1/2+z
1/2-y,1/2+x,1/2+z
1/2-x,1/2-y,1/2+z
1/2+y,1/2-x,1/2+z
1/2-x,1/2-y,1/2-z
1/2+y,1/2-x,1/2-z
1/2+x,1/2+y,1/2-z
1/2-y,1/2+x,1/2-z
loop_
_atom_site_type_symbol
_atom_site_label
_atom_site_fract_x
_atom_site_fract_y
_atom_site_fract_z
Si Si1 0.604259 0.817795 0.882765
Si Si2 0.584553 0.930050 0.644111
Si Si3 0.648052 0.538963 0.679955
Si Si4 0.027053 0.719350 0.930383
Si Si5 0.125694 0.922247 0.572392
Si Si6 0.199364 0.349567 0.743234
O O1 0.493960 0.839592 0.891693
O O2 0.663891 0.875250 0.932480
O O3 0.628130 0.709416 0.892442
O O4 0.630605 0.847404 0.814293
O O5 0.551174 0.848789 0.598286
O O6 0.634007 0.876545 0.700083
O O7 0.500000 0.000000 0.664702
O O8 0.565657 0.613148 0.690554
O O9 0.687699 0.542286 0.610296
O O10 0.726334 0.567170 0.730135
O O11 0.998823 0.747748 0.000000
O O12 0.140836 0.915521 0.500000
O O13 0.030360 0.874182 0.592960
O O14 0.250000 0.250000 0.750000
#
# Coordination Sequence:
#
# PCOD8304063 Si02
#       6
#    16  16  16  16  16  16
#     4  10  23  36  63  92 125 168 212 268 322 387
#     4  10  24  40  65  93 127 172 216 268 337 390
#     4  10  23  44  67  96 133 176 218 268 327 393
#     4  10  22  42  66  97 130 167 221 273 322 390
#     4   9  19  38  60  84 120 161 203 252 312 380
#     4  11  25  40  65  94 135 167 218 273 329 391
#
# _framework density 21.573391000000001
#
# number of rings (size 3 to 8) (size 9 to 14) (size 15 to 20)
#    0.000    2.000    0.000    2.000   11.667    4.333 
#    0.000    0.833    0.000    0.000    0.000    0.000 
#    0.000    0.000    0.000    0.000    0.000    0.000 
#
# Total GULP energy -595062.940593 kJ/mol
# GULP energy per Si atom -12397.144596 kJ/mol
# Density = 2.152429 g / cm^3
# Si number density = 21.573391 Si / 1000 Ang^3
#
#
#
# Elastic Constant Matrix: (Units=GPa)
#
#
# Indices 1 2 3 4 5 6 
#
# 1 89.4880 14.2290 22.7172 0.0000 0.0000 -1.3040
# 2 14.2290 89.4880 22.7172 0.0000 0.0000 1.3040
# 3 22.7172 22.7172 74.7420 0.0000 0.0000 0.0000
# 4 0.0000 0.0000 0.0000 23.2334 0.0000 0.0000
# 5 0.0000 0.0000 0.0000 0.0000 23.2334 0.0000
# 6 -1.3040 1.3040 0.0000 0.0000 0.0000 29.0508
#
#
#
# Elastic Compliance Matrix: (Units=1/GPa)
#
#
# Indices 1 2 3 4 5 6 
#
# 1 0.012215 -0.001093 -0.003381 0.000000 0.000000 0.000597
# 2 -0.001093 0.012215 -0.003381 0.000000 0.000000 -0.000597
# 3 -0.003381 -0.003381 0.015434 0.000000 0.000000 0.000000
# 4 0.000000 0.000000 0.000000 0.043041 0.000000 0.000000
# 5 0.000000 0.000000 0.000000 0.000000 0.043041 0.000000
# 6 0.000597 -0.000597 0.000000 0.000000 0.000000 0.034476
#
#
# Mechanical properties :
#
#
# Convention : Reuss Voigt Hill
#
# Bulk Modulus (GPa) = 41.39581 41.44942 41.42261
# Shear Modulus (GPa) = 27.14670 28.04049 27.59359
#
# Velocity S-wave (km/s) = 3.55116 3.60915 3.58027
# Velocity P-wave (km/s) = 6.00369 6.05168 6.02773
#
# Compressibility (1/GPa) = 0.02415703
#
# Stress axis : x y z
#
# Youngs Moduli (GPa) = 81.86425 81.86425 64.79051
#
# Poissons Ratio (x) = 0.08946 0.21903
# Poissons Ratio (y) = 0.08946 0.21903
# Poissons Ratio (z) = 0.27675 0.27675
#
# Static dielectric constant tensor:
#      x y z
#    x 4.086570 0.000000 0.000000 
#    y 0.000000 4.086570 0.000000 
#    z 0.000000 0.000000 3.580150 
# 
# 
# High freq. dielectric constant tensor:
#      x y z
#    x 1.855880 0.000000 0.000000 
#    y 0.000000 1.855880 0.000000 
#    z 0.000000 0.000000 1.827340 
# 
# From -- ./inp_files/5275.got.cif
#   From: 2010.03.12/outbox.cif.g09.slc.cpg/sg87_3_cif.got.tgz:5275.got - 2010.04.08 20:16:13.
