data_PCOD8304593
_publ_section_title
;
Structure prediction by ZEFSAII (Michael W. Deem and Ramdas Pophale) SiO2 
 PCOD8304593
Probable space group: P 4 21 2
;
_chemical_formula_sum "Si O2"
_cell_formula_units_Z 48
_cell_length_a 8.050886
_cell_length_b 8.050886
_cell_length_c 33.344294
_cell_angle_alpha 90.000000
_cell_angle_beta 90.000000
_cell_angle_gamma 90.000000
_cell_volume 2161.269281
_symmetry_space_group_name_H-M "P 4 21 2"
_symmetry_group_IT_number 90
_symmetry_cell_setting 'tetragonal'
loop_
_space_group_symop_operation_xyz
x,y,z
1/2-y,1/2+x,z
-x,-y,z
1/2+y,1/2-x,z
1/2+x,1/2-y,-z
1/2-x,1/2+y,-z
y,x,-z
-y,-x,-z
loop_
_atom_site_type_symbol
_atom_site_label
_atom_site_fract_x
_atom_site_fract_y
_atom_site_fract_z
Si Si1 0.923071 0.764134 0.037003
Si Si2 0.741533 0.406702 0.617884
Si Si3 0.000000 0.000000 0.760095
Si Si4 0.500000 0.500000 0.104807
Si Si5 0.755571 0.897302 0.539676
Si Si6 0.761955 0.918841 0.693585
Si Si7 0.236342 0.926100 0.172562
O O1 0.795926 0.612388 0.035455
O O2 0.886021 0.886021 0.000000
O O3 0.898087 0.869269 0.077608
O O4 0.790162 0.598057 0.620381
O O5 0.644859 0.373539 0.576821
O O6 0.615924 0.368513 0.653976
O O7 0.123802 0.109150 0.732579
O O8 0.894706 0.125005 0.788065
O O9 0.601743 0.628899 0.132476
O O10 0.590538 0.787114 0.541020
O O11 0.859727 0.859727 0.500000
O O12 0.609036 0.793963 0.694127
O O13 0.296255 0.116055 0.172948
#
# Coordination Sequence:
#
# PCOD8304593 Si02
#       7
#     8   8   4   4   8   8   8
#     4  11  23  39  61  90 127 171 219 272 327 385
#     4  11  24  41  62  90 123 159 201 249 302 362
#     4  11  22  40  63  88 120 156 197 248 304 367
#     4  11  21  38  61  88 124 164 213 264 319 379
#     4  11  24  41  62  90 123 161 206 253 302 358
#     4  11  23  39  61  89 120 156 198 245 301 364
#     4  10  22  39  61  89 121 159 203 253 310 373
#
# _framework density 22.20917
#
# number of rings (size 3 to 8) (size 9 to 14) (size 15 to 20)
#    0.000    1.167    0.000    6.250    0.000    6.333 
#    0.000    3.333    0.000    8.000    0.000    0.000 
#    0.000    0.000    0.000    0.000    0.000    0.000 
#
# Total GULP energy -595483.877478 kJ/mol
# GULP energy per Si atom -12405.914114 kJ/mol
# Density = 2.215862 g / cm^3
# Si number density = 22.209170 Si / 1000 Ang^3
#
#
#
# Elastic Constant Matrix: (Units=GPa)
#
#
# Indices 1 2 3 4 5 6 
#
# 1 75.4268 10.0027 42.0668 0.0000 0.0000 0.0000
# 2 10.0027 75.4268 42.0668 0.0000 0.0000 0.0000
# 3 42.0668 42.0668 189.3684 0.0000 0.0000 0.0000
# 4 0.0000 0.0000 0.0000 781.2102 0.0000 0.0000
# 5 0.0000 0.0000 0.0000 0.0000 781.2102 0.0000
# 6 0.0000 0.0000 0.0000 0.0000 0.0000 36.4201
#
#
#
# Elastic Compliance Matrix: (Units=1/GPa)
#
#
# Indices 1 2 3 4 5 6 
#
# 1 0.015134 -0.000151 -0.003328 0.000000 0.000000 0.000000
# 2 -0.000151 0.015134 -0.003328 0.000000 0.000000 0.000000
# 3 -0.003328 -0.003328 0.006760 0.000000 0.000000 0.000000
# 4 0.000000 0.000000 0.000000 0.001280 0.000000 0.000000
# 5 0.000000 0.000000 0.000000 0.000000 0.001280 0.000000
# 6 0.000000 0.000000 0.000000 0.000000 0.000000 0.027457
#
#
# Mechanical properties :
#
#
# Convention : Reuss Voigt Hill
#
# Bulk Modulus (GPa) = 42.71189 58.72161 50.71675
# Shear Modulus (GPa) = 56.51957 336.17383 196.34670
#
# Velocity S-wave (km/s) = 5.05015 12.31648 9.41275
# Velocity P-wave (km/s) = 7.29923 15.12477 11.87513
#
# Compressibility (1/GPa) = 0.02341268
#
# Stress axis : x y z
#
# Youngs Moduli (GPa) = 66.07541 66.07541 147.93978
#
# Poissons Ratio (x) = 0.00996 0.49242
# Poissons Ratio (y) = 0.00996 0.49242
# Poissons Ratio (z) = 0.21993 0.21993
#
# Static dielectric constant tensor:
#      x y z
#    x 3.961260 0.000000 0.000000 
#    y 0.000000 3.961260 0.000000 
#    z 0.000000 0.000000 4.069510 
# 
# 
# High freq. dielectric constant tensor:
#      x y z
#    x 1.880890 0.000000 0.000000 
#    y 0.000000 1.880890 0.000000 
#    z 0.000000 0.000000 1.886830 
# 
# From -- ./inp_files/3107.got.cif
#   From: 2010.03.12/outbox.cif.g09.slc.cpg/sg90_2_cif.got.tgz:3107.got - 2010.04.08 20:26:03.
