data_PCOD8304064
_publ_section_title
;
Structure prediction by ZEFSAII (Michael W. Deem and Ramdas Pophale) SiO2 
 PCOD8304064
Probable space group: I 4/M
;
_chemical_formula_sum "Si O2"
_cell_formula_units_Z 112
_cell_length_a 14.129236
_cell_length_b 14.129236
_cell_length_c 23.936023
_cell_angle_alpha 90.000000
_cell_angle_beta 90.000000
_cell_angle_gamma 90.000000
_cell_volume 4778.475370
_symmetry_space_group_name_H-M "I 4/M"
_symmetry_group_IT_number 87
_symmetry_cell_setting 'tetragonal'
loop_
_space_group_symop_operation_xyz
x,y,z
-y,x,z
-x,-y,z
y,-x,z
-x,-y,-z
y,-x,-z
x,y,-z
-y,x,-z
1/2+x,1/2+y,1/2+z
1/2-y,1/2+x,1/2+z
1/2-x,1/2-y,1/2+z
1/2+y,1/2-x,1/2+z
1/2-x,1/2-y,1/2-z
1/2+y,1/2-x,1/2-z
1/2+x,1/2+y,1/2-z
1/2-y,1/2+x,1/2-z
loop_
_atom_site_type_symbol
_atom_site_label
_atom_site_fract_x
_atom_site_fract_y
_atom_site_fract_z
Si Si1 0.378316 0.817943 0.729924
Si Si2 0.227914 0.864272 0.356966
Si Si3 0.452176 0.102285 0.669631
Si Si4 0.720783 0.675415 0.563425
Si Si5 0.989240 0.843846 0.438574
Si Si6 0.964719 0.718239 0.936240
Si Si7 0.593281 0.377087 0.767206
O O1 0.297121 0.873508 0.696233
O O2 0.475632 0.824094 0.696661
O O3 0.392433 0.857458 0.792888
O O4 0.353898 0.705208 0.731650
O O5 0.253587 0.776005 0.395876
O O6 0.236434 0.963007 0.392749
O O7 0.120738 0.856272 0.332154
O O8 0.434713 0.133032 0.605334
O O9 0.500000 0.000000 0.672312
O O10 0.753637 0.695930 0.500000
O O11 0.609267 0.695552 0.570288
O O12 0.740791 0.567270 0.579971
O O13 0.987347 0.797418 0.500000
O O14 0.085856 0.899286 0.430944
O O15 0.963307 0.679126 0.000000
O O16 0.631138 0.482034 0.754440
#
# Coordination Sequence:
#
# PCOD8304064 Si02
#       7
#    16  16  16  16  16  16  16
#     4  12  24  44  69  99 133 186 232 284 347 411
#     4  12  22  39  66  96 134 181 224 281 340 410
#     4  12  24  46  72  99 138 185 236 285 341 421
#     4  10  22  42  68 101 136 179 231 291 351 413
#     4   9  19  38  65  98 136 177 224 280 346 418
#     4  10  23  45  72 101 138 177 232 295 353 417
#     4  11  26  44  66  96 133 171 221 283 350 417
#
# _framework density 23.43844
#
# number of rings (size 3 to 8) (size 9 to 14) (size 15 to 20)
#    0.000    1.143    2.857    3.857    0.000    2.857 
#    2.571    1.429    0.000    0.000    0.000    0.000 
#    0.000    0.000    0.000    0.000    0.000    0.000 
#
# Total GULP energy -694010.795748 kJ/mol
# GULP energy per Si atom -12393.049924 kJ/mol
# Density = 2.338509 g / cm^3
# Si number density = 23.438440 Si / 1000 Ang^3
#
#
#
# Elastic Constant Matrix: (Units=GPa)
#
#
# Indices 1 2 3 4 5 6 
#
# 1 78.5786 17.2685 35.9483 0.0000 0.0000 -4.0023
# 2 17.2685 78.5786 35.9483 0.0000 0.0000 4.0023
# 3 35.9483 35.9483 125.0469 0.0000 0.0000 0.0000
# 4 0.0000 0.0000 0.0000 28.2444 0.0000 0.0000
# 5 0.0000 0.0000 0.0000 0.0000 28.2444 0.0000
# 6 -4.0023 4.0023 0.0000 0.0000 0.0000 31.6769
#
#
#
# Elastic Compliance Matrix: (Units=1/GPa)
#
#
# Indices 1 2 3 4 5 6 
#
# 1 0.014943 -0.001641 -0.003824 0.000000 0.000000 0.002095
# 2 -0.001641 0.014943 -0.003824 0.000000 0.000000 -0.002095
# 3 -0.003824 -0.003824 0.010196 0.000000 0.000000 0.000000
# 4 0.000000 0.000000 0.000000 0.035405 0.000000 0.000000
# 5 0.000000 0.000000 0.000000 0.000000 0.035405 0.000000
# 6 0.002095 -0.002095 0.000000 0.000000 0.000000 0.032098
#
#
# Mechanical properties :
#
#
# Convention : Reuss Voigt Hill
#
# Bulk Modulus (GPa) = 46.50473 51.17049 48.83761
# Shear Modulus (GPa) = 29.63208 30.50241 30.06724
#
# Velocity S-wave (km/s) = 3.55949 3.61138 3.58553
# Velocity P-wave (km/s) = 6.06445 6.26648 6.16629
#
# Compressibility (1/GPa) = 0.02150319
#
# Stress axis : x y z
#
# Youngs Moduli (GPa) = 66.92143 66.92143 98.08138
#
# Poissons Ratio (x) = 0.10983 0.37506
# Poissons Ratio (y) = 0.10983 0.37506
# Poissons Ratio (z) = 0.25590 0.25590
#
# Static dielectric constant tensor:
#      x y z
#    x 4.144700 0.000000 0.000000 
#    y 0.000000 4.144700 0.000000 
#    z 0.000000 0.000000 4.478800 
# 
# 
# High freq. dielectric constant tensor:
#      x y z
#    x 1.918690 0.000000 0.000000 
#    y 0.000000 1.918690 0.000000 
#    z 0.000000 0.000000 1.941690 
# 
# From -- ./inp_files/5864.got.cif
#   From: 2010.03.12/outbox.cif.g09.slc.cpg/sg87_3_cif.got.tgz:5864.got - 2010.04.08 20:16:13.
