data_PCOD8304517
_publ_section_title
;
Structure prediction by ZEFSAII (Michael W. Deem and Ramdas Pophale) SiO2 
 PCOD8304517
Probable space group: P 4 2 2
;
_chemical_formula_sum "Si O2"
_cell_formula_units_Z 48
_cell_length_a 8.103235
_cell_length_b 8.103235
_cell_length_c 30.044994
_cell_angle_alpha 90.000000
_cell_angle_beta 90.000000
_cell_angle_gamma 90.000000
_cell_volume 1972.826939
_symmetry_space_group_name_H-M "P 4 2 2"
_symmetry_group_IT_number 89
_symmetry_cell_setting 'tetragonal'
loop_
_space_group_symop_operation_xyz
x,y,z
-y,x,z
-x,-y,z
y,-x,z
x,-y,-z
-x,y,-z
y,x,-z
-y,-x,-z
loop_
_atom_site_type_symbol
_atom_site_label
_atom_site_fract_x
_atom_site_fract_y
_atom_site_fract_z
Si Si1 0.745397 0.090420 0.782727
Si Si2 0.758902 0.414582 0.297975
Si Si3 0.072706 0.261019 0.883572
Si Si4 0.766543 0.532062 0.550429
Si Si5 0.264748 0.071673 0.379772
Si Si6 0.475871 0.231500 0.049564
O O1 0.602088 0.154016 0.750168
O O2 0.679017 0.103449 0.833106
O O3 0.902581 0.205828 0.773405
O O4 0.705379 0.602585 0.303731
O O5 0.894931 0.363897 0.334340
O O6 0.090299 0.420479 0.915796
O O7 0.888111 0.199156 0.892769
O O8 0.637829 0.678388 0.562020
O O9 0.825658 0.500000 0.500000
O O10 0.917065 0.599492 0.580326
O O11 0.113753 0.199716 0.382595
O O12 0.644146 0.324938 0.058087
O O13 0.500000 0.157858 0.000000
#
# Coordination Sequence:
#
# PCOD8304517 Si02
#       6
#     8   8   8   8   8   8
#     4   9  19  37  60  88 124 162 201 249 304 362
#     4  11  24  39  58  90 129 167 210 256 301 357
#     4   9  19  37  61  89 120 155 199 251 305 364
#     4   9  19  39  63  89 119 154 201 254 307 365
#     4  11  24  41  63  93 128 166 210 258 308 365
#     4   9  19  37  55  77 111 150 194 245 300 358
#
# _framework density 24.330566000000001
#
# number of rings (size 3 to 8) (size 9 to 14) (size 15 to 20)
#    0.000    2.333    0.000    4.000    0.000    9.333 
#    0.000   21.667    0.000    8.000    0.000    0.000 
#    0.000    0.000    0.000    0.000    0.000    0.000 
#
# Total GULP energy -594684.328419 kJ/mol
# GULP energy per Si atom -12389.256842 kJ/mol
# Density = 2.427519 g / cm^3
# Si number density = 24.330566 Si / 1000 Ang^3
#
#
#
# Elastic Constant Matrix: (Units=GPa)
#
#
# Indices 1 2 3 4 5 6 
#
# 1 37.8810 72.8337 52.8463 0.0000 0.0000 0.0000
# 2 72.8337 37.8810 52.8463 0.0000 0.0000 0.0000
# 3 52.8463 52.8463 179.4042 0.0000 0.0000 0.0000
# 4 0.0000 0.0000 0.0000 66.4051 0.0000 0.0000
# 5 0.0000 0.0000 0.0000 0.0000 66.4051 0.0000
# 6 0.0000 0.0000 0.0000 0.0000 0.0000 55.6180
#
#
#
# Elastic Compliance Matrix: (Units=1/GPa)
#
#
# Indices 1 2 3 4 5 6 
#
# 1 -0.008022 0.020588 -0.003701 0.000000 0.000000 0.000000
# 2 0.020588 -0.008022 -0.003701 0.000000 0.000000 0.000000
# 3 -0.003701 -0.003701 0.007755 0.000000 0.000000 0.000000
# 4 0.000000 0.000000 0.000000 0.015059 0.000000 0.000000
# 5 0.000000 0.000000 0.000000 0.000000 0.015059 0.000000
# 6 0.000000 0.000000 0.000000 0.000000 0.000000 0.017980
#
#
# Mechanical properties :
#
#
# Convention : Reuss Voigt Hill
#
# Bulk Modulus (GPa) = 55.30850 68.02430 61.66640
# Shear Modulus (GPa) = 256.87090 42.79495 149.83293
#
# Velocity S-wave (km/s) = 10.28614 4.19847 7.85594
# Velocity P-wave (km/s) = 12.80056 7.17788 10.37729
#
# Compressibility (1/GPa) = 0.01808040
#
# Stress axis : x y z
#
# Youngs Moduli (GPa) = -124.65476 -124.65476 128.95506
#
# Poissons Ratio (x) = 2.56638 0.47732
# Poissons Ratio (y) = 2.56638 0.47732
# Poissons Ratio (z) = -0.46140 -0.46140
#
# Static dielectric constant tensor:
#      x y z
#    x 4.327600 0.000000 0.000000 
#    y 0.000000 4.327600 0.000000 
#    z 0.000000 0.000000 4.260990 
# 
# 
# High freq. dielectric constant tensor:
#      x y z
#    x 1.981440 0.000000 0.000000 
#    y 0.000000 1.981440 0.000000 
#    z 0.000000 0.000000 1.959090 
# 
# From -- ./inp_files/2959.got.cif
#   From: 2010.03.12/outbox.cif.g09.slc.cpg/sg89_2_cif.got.tgz:2959.got - 2010.04.08 20:24:03.
