data_PCOD8304778
_publ_section_title
;
Structure prediction by ZEFSAII (Michael W. Deem and Ramdas Pophale) SiO2 
 PCOD8304778
Probable space group: P 41 2 2
;
_chemical_formula_sum "Si O2"
_cell_formula_units_Z 56
_cell_length_a 15.922545
_cell_length_b 15.922545
_cell_length_c 11.761383
_cell_angle_alpha 90.000000
_cell_angle_beta 90.000000
_cell_angle_gamma 90.000000
_cell_volume 2981.833314
_symmetry_space_group_name_H-M "P 41 2 2"
_symmetry_group_IT_number 91
_symmetry_cell_setting 'tetragonal'
loop_
_space_group_symop_operation_xyz
x,y,z
-y,x,1/4+z
-x,-y,1/2+z
y,-x,3/4+z
x,-y,1/2-z
-x,y,-z
y,x,3/4-z
-y,-x,1/4-z
loop_
_atom_site_type_symbol
_atom_site_label
_atom_site_fract_x
_atom_site_fract_y
_atom_site_fract_z
Si Si1 0.409550 0.888131 0.545656
Si Si2 0.559933 0.612514 0.599363
Si Si3 0.306766 0.494644 0.426820
Si Si4 0.752113 0.689197 0.182336
Si Si5 0.833303 0.629034 0.540477
Si Si6 0.667573 0.789338 0.828038
Si Si7 0.077063 0.402688 0.258674
O O1 0.500000 0.853664 0.500000
O O2 0.332602 0.828148 0.514434
O O3 0.402115 0.888338 0.682624
O O4 0.394210 0.976884 0.484094
O O5 0.500000 0.577361 0.500000
O O6 0.617374 0.535068 0.647753
O O7 0.506268 0.657634 0.695309
O O8 0.623398 0.678697 0.543439
O O9 0.226048 0.553087 0.422833
O O10 0.278861 0.403255 0.382913
O O11 0.716186 0.780679 0.217536
O O12 0.791553 0.678085 0.056751
O O13 0.896345 0.645023 0.644302
O O14 0.756586 0.756586 0.875000
O O15 0.642031 0.879630 0.881430
O O16 0.103277 0.500000 0.250000
#
# Coordination Sequence:
#
# PCOD8304778 Si02
#       7
#     8   8   8   8   8   8   8
#     4  11  23  36  56  86 115 148 189 237 295 346
#     4  10  19  32  46  70  99 137 183 236 280 315
#     4  10  21  31  50  68  99 143 188 232 274 326
#     4  10  21  36  58  79 105 150 186 235 284 350
#     4  11  20  39  57  78 110 147 191 233 288 349
#     4  11  21  37  55  76 108 148 197 230 284 336
#     4  11  23  37  58  82 115 150 189 243 289 350
#
# _framework density 18.780391999999999
#
# number of rings (size 3 to 8) (size 9 to 14) (size 15 to 20)
#    0.000    1.429    2.857    4.286    0.000    4.000 
#    0.000    0.000    0.000    0.000    0.000    0.000 
#    0.000    6.857    0.000    0.000    0.000    0.000 
#
# Total GULP energy -694024.194434 kJ/mol
# GULP energy per Si atom -12393.289186 kJ/mol
# Density = 1.873765 g / cm^3
# Si number density = 18.780392 Si / 1000 Ang^3
#
#
#
# Elastic Constant Matrix: (Units=GPa)
#
#
# Indices 1 2 3 4 5 6 
#
# 1 66.8296 25.0074 12.6469 0.0000 0.0000 0.0000
# 2 25.0074 66.8296 12.6469 0.0000 0.0000 0.0000
# 3 12.6469 12.6469 63.3726 0.0000 0.0000 0.0000
# 4 0.0000 0.0000 0.0000 23.7243 0.0000 0.0000
# 5 0.0000 0.0000 0.0000 0.0000 23.7243 0.0000
# 6 0.0000 0.0000 0.0000 0.0000 0.0000 20.4839
#
#
#
# Elastic Compliance Matrix: (Units=1/GPa)
#
#
# Indices 1 2 3 4 5 6 
#
# 1 0.017716 -0.006194 -0.002299 0.000000 0.000000 0.000000
# 2 -0.006194 0.017716 -0.002299 0.000000 0.000000 0.000000
# 3 -0.002299 -0.002299 0.016697 0.000000 0.000000 0.000000
# 4 0.000000 0.000000 0.000000 0.042151 0.000000 0.000000
# 5 0.000000 0.000000 0.000000 0.000000 0.042151 0.000000
# 6 0.000000 0.000000 0.000000 0.000000 0.000000 0.048819
#
#
# Mechanical properties :
#
#
# Convention : Reuss Voigt Hill
#
# Bulk Modulus (GPa) = 32.73953 33.07049 32.90501
# Shear Modulus (GPa) = 23.03951 23.36854 23.20402
#
# Velocity S-wave (km/s) = 3.50635 3.53130 3.51885
# Velocity P-wave (km/s) = 5.81922 5.85440 5.83684
#
# Compressibility (1/GPa) = 0.03054412
#
# Stress axis : x y z
#
# Youngs Moduli (GPa) = 56.44469 56.44469 59.88935
#
# Poissons Ratio (x) = 0.34964 0.13771
# Poissons Ratio (y) = 0.34964 0.13771
# Poissons Ratio (z) = 0.12979 0.12979
#
# Static dielectric constant tensor:
#      x y z
#    x 3.351620 0.000000 0.000000 
#    y 0.000000 3.351620 0.000000 
#    z 0.000000 0.000000 3.475070 
# 
# 
# High freq. dielectric constant tensor:
#      x y z
#    x 1.703910 0.000000 0.000000 
#    y 0.000000 1.703910 0.000000 
#    z 0.000000 0.000000 1.737750 
# 
# From -- ./inp_files/3912.got.cif
#   From: 2010.03.12/outbox.cif.g09.slc.cpg/sg91_2_cif.got.tgz:3912.got - 2010.04.08 20:27:58.
