data_PCOD8304713
_publ_section_title
;
Structure prediction by ZEFSAII (Michael W. Deem and Ramdas Pophale) SiO2 
 PCOD8304713
Probable space group: P 41 2 2
;
_chemical_formula_sum "Si O2"
_cell_formula_units_Z 48
_cell_length_a 11.358596
_cell_length_b 11.358596
_cell_length_c 21.989004
_cell_angle_alpha 90.000000
_cell_angle_beta 90.000000
_cell_angle_gamma 90.000000
_cell_volume 2836.970789
_symmetry_space_group_name_H-M "P 41 2 2"
_symmetry_group_IT_number 91
_symmetry_cell_setting 'tetragonal'
loop_
_space_group_symop_operation_xyz
x,y,z
-y,x,1/4+z
-x,-y,1/2+z
y,-x,3/4+z
x,-y,1/2-z
-x,y,-z
y,x,3/4-z
-y,-x,1/4-z
loop_
_atom_site_type_symbol
_atom_site_label
_atom_site_fract_x
_atom_site_fract_y
_atom_site_fract_z
Si Si1 0.723839 0.909258 0.599839
Si Si2 0.851972 0.875837 0.720535
Si Si3 0.703823 0.826294 0.926442
Si Si4 0.754344 0.245657 0.125000
Si Si5 0.500000 0.921237 0.000000
Si Si6 0.131060 0.123473 0.983169
Si Si7 0.854158 0.530463 0.313234
O O1 0.788313 0.853840 0.657057
O O2 0.781514 0.856006 0.539325
O O3 0.586826 0.875263 0.602721
O O4 0.744183 0.049840 0.602410
O O5 0.795725 0.780813 0.765197
O O6 0.990507 0.860956 0.708797
O O7 0.822004 0.000000 0.750000
O O8 0.724266 0.724266 0.875000
O O9 0.571288 0.838321 0.953071
O O10 0.784093 0.163583 0.181478
O O11 0.619785 0.220157 0.104753
O O12 0.419863 0.014827 0.959527
O O13 0.000000 0.157379 0.000000
O O14 0.784093 0.500000 0.250000
#
# Coordination Sequence:
#
# PCOD8304713 Si02
#       7
#     8   8   8   4   4   8   8
#     4  10  18  33  46  77 116 138 182 222 275 331
#     4  10  18  28  50  80 111 144 176 217 270 335
#     4  10  17  29  53  76 103 148 178 218 268 329
#     4  12  18  34  56  76 106 152 190 212 280 340
#     4   8  18  34  48  80 112 142 180 220 282 326
#     4  10  20  28  48  80 118 143 171 224 277 341
#     4   9  18  34  53  72 108 151 178 224 269 331
#
# _framework density 16.919456
#
# number of rings (size 3 to 8) (size 9 to 14) (size 15 to 20)
#    0.500    1.667    3.333    2.000    0.000    0.000 
#    0.000    0.833    3.667    0.000    4.333    0.000 
#    0.000    0.000    0.000    0.000    0.000    0.000 
#
# Total GULP energy -594716.974806 kJ/mol
# GULP energy per Si atom -12389.936975 kJ/mol
# Density = 1.688095 g / cm^3
# Si number density = 16.919456 Si / 1000 Ang^3
#
#
#
# Elastic Constant Matrix: (Units=GPa)
#
#
# Indices 1 2 3 4 5 6 
#
# 1 75.8558 38.6150 52.7732 0.0000 0.0000 0.0000
# 2 38.6150 75.8562 52.7735 0.0000 0.0000 0.0000
# 3 52.7732 52.7735 128.3089 0.0000 0.0000 0.0000
# 4 0.0000 0.0000 0.0000 28.2753 0.0000 0.0000
# 5 0.0000 0.0000 0.0000 0.0000 28.2755 0.0000
# 6 0.0000 0.0000 0.0000 0.0000 0.0000 9.8927
#
#
#
# Elastic Compliance Matrix: (Units=1/GPa)
#
#
# Indices 1 2 3 4 5 6 
#
# 1 0.020462 -0.006390 -0.005788 0.000000 0.000000 0.000000
# 2 -0.006390 0.020462 -0.005788 0.000000 0.000000 0.000000
# 3 -0.005788 -0.005788 0.012555 0.000000 0.000000 0.000000
# 4 0.000000 0.000000 0.000000 0.035366 0.000000 0.000000
# 5 0.000000 0.000000 0.000000 0.000000 0.035366 0.000000
# 6 0.000000 0.000000 0.000000 0.000000 0.000000 0.101085
#
#
# Mechanical properties :
#
#
# Convention : Reuss Voigt Hill
#
# Bulk Modulus (GPa) = 56.98661 63.14937 60.06799
# Shear Modulus (GPa) = 18.72110 22.34600 20.53355
#
# Velocity S-wave (km/s) = 3.32999 3.63812 3.48746
# Velocity P-wave (km/s) = 6.96702 7.41974 7.19694
#
# Compressibility (1/GPa) = 0.01754798
#
# Stress axis : x y z
#
# Youngs Moduli (GPa) = 48.87010 48.87021 79.64983
#
# Poissons Ratio (x) = 0.31227 0.46102
# Poissons Ratio (y) = 0.31227 0.46102
# Poissons Ratio (z) = 0.28286 0.28287
#
# Static dielectric constant tensor:
#      x y z
#    x 2.949960 0.000000 0.000000 
#    y 0.000000 2.949960 0.000000 
#    z 0.000000 0.000000 3.245530 
# 
# 
# High freq. dielectric constant tensor:
#      x y z
#    x 1.623800 0.000000 0.000000 
#    y 0.000000 1.623800 0.000000 
#    z 0.000000 0.000000 1.660610 
# 
# From -- ./inp_files/6361.got.cif
#   From: 2010.03.12/outbox.cif.g09.slc.cpg/sg91_4_cif.got.tgz:6361.got - 2010.04.08 20:27:58.
