data_PCOD8304608
_publ_section_title
;
Structure prediction by ZEFSAII (Michael W. Deem and Ramdas Pophale) SiO2 
 PCOD8304608
Probable space group: P 4 21 2
;
_chemical_formula_sum "Si O2"
_cell_formula_units_Z 40
_cell_length_a 11.131634
_cell_length_b 11.131634
_cell_length_c 14.207555
_cell_angle_alpha 90.000000
_cell_angle_beta 90.000000
_cell_angle_gamma 90.000000
_cell_volume 1760.504677
_symmetry_space_group_name_H-M "P 4 21 2"
_symmetry_group_IT_number 90
_symmetry_cell_setting 'tetragonal'
loop_
_space_group_symop_operation_xyz
x,y,z
1/2-y,1/2+x,z
-x,-y,z
1/2+y,1/2-x,z
1/2+x,1/2-y,-z
1/2-x,1/2+y,-z
y,x,-z
-y,-x,-z
loop_
_atom_site_type_symbol
_atom_site_label
_atom_site_fract_x
_atom_site_fract_y
_atom_site_fract_z
Si Si1 0.441866 0.382224 0.812351
Si Si2 0.805525 0.452797 0.538061
Si Si3 0.686315 0.047452 0.965052
Si Si4 0.617756 0.424606 0.372873
Si Si5 0.449726 0.187883 0.184499
O O1 0.500000 0.500000 0.858550
O O2 0.420012 0.293727 0.897338
O O3 0.532017 0.336917 0.730032
O O4 0.312491 0.414479 0.764269
O O5 0.856675 0.587179 0.544050
O O6 0.729881 0.443252 0.442044
O O7 0.716062 0.421732 0.624757
O O8 0.585341 0.143809 0.940294
O O9 0.719536 0.055999 0.074006
O O10 0.500000 0.500000 0.403589
O O11 0.583273 0.143889 0.211927
#
# Coordination Sequence:
#
# PCOD8304608 Si02
#       5
#     8   8   8   8   8
#     4  11  24  40  58  98 134 174 218 272 342 390
#     4  10  22  43  75 102 123 174 225 260 326 414
#     4   9  20  39  63  93 128 177 230 281 333 386
#     4  10  24  42  64  99 139 169 209 279 339 384
#     4   9  20  41  67  91 129 180 231 277 328 390
#
# _framework density 22.720758
#
# number of rings (size 3 to 8) (size 9 to 14) (size 15 to 20)
#    0.000    2.200    0.000    3.000    8.400    3.200 
#    7.200    2.000    0.000    9.600    0.000    0.000 
#    0.000    0.000    0.000    0.000    0.000    0.000 
#
# Total GULP energy -495743.696391 kJ/mol
# GULP energy per Si atom -12393.592410 kJ/mol
# Density = 2.266904 g / cm^3
# Si number density = 22.720758 Si / 1000 Ang^3
#
#
#
# Elastic Constant Matrix: (Units=GPa)
#
#
# Indices 1 2 3 4 5 6 
#
# 1 143.4388 43.4613 14.9099 0.0000 0.0000 0.0000
# 2 43.4613 143.4388 14.9099 0.0000 0.0000 0.0000
# 3 14.9099 14.9099 46.1811 0.0000 0.0000 0.0000
# 4 0.0000 0.0000 0.0000 18.9087 0.0000 0.0000
# 5 0.0000 0.0000 0.0000 0.0000 18.9087 0.0000
# 6 0.0000 0.0000 0.0000 0.0000 0.0000 30.3693
#
#
#
# Elastic Compliance Matrix: (Units=1/GPa)
#
#
# Indices 1 2 3 4 5 6 
#
# 1 0.007822 -0.002181 -0.001821 0.000000 0.000000 0.000000
# 2 -0.002181 0.007822 -0.001821 0.000000 0.000000 0.000000
# 3 -0.001821 -0.001821 0.022830 0.000000 0.000000 0.000000
# 4 0.000000 0.000000 0.000000 0.052886 0.000000 0.000000
# 5 0.000000 0.000000 0.000000 0.000000 0.052886 0.000000
# 6 0.000000 0.000000 0.000000 0.000000 0.000000 0.032928
#
#
# Mechanical properties :
#
#
# Convention : Reuss Voigt Hill
#
# Bulk Modulus (GPa) = 37.27595 53.29122 45.28358
# Shear Modulus (GPa) = 25.28299 30.95581 28.11940
#
# Velocity S-wave (km/s) = 3.33944 3.69514 3.52178
# Velocity P-wave (km/s) = 5.59561 6.45842 6.04244
#
# Compressibility (1/GPa) = 0.02682695
#
# Stress axis : x y z
#
# Youngs Moduli (GPa) = 127.85035 127.85035 43.80223
#
# Poissons Ratio (x) = 0.27879 0.07977
# Poissons Ratio (y) = 0.27879 0.07977
# Poissons Ratio (z) = 0.23285 0.23285
#
# Static dielectric constant tensor:
#      x y z
#    x 4.221570 0.000000 0.000000 
#    y 0.000000 4.221570 0.000000 
#    z 0.000000 0.000000 3.948690 
# 
# 
# High freq. dielectric constant tensor:
#      x y z
#    x 1.905100 0.000000 0.000000 
#    y 0.000000 1.905100 0.000000 
#    z 0.000000 0.000000 1.891760 
# 
# From -- ./inp_files/2449.got.cif
#   From: 2010.03.12/outbox.cif.g09.slc.cpg/sg90_2_cif.got.tgz:2449.got - 2010.04.08 20:26:03.
