data_PCOD8304305
_publ_section_title
;
Structure prediction by ZEFSAII (Michael W. Deem and Ramdas Pophale) SiO2 
 PCOD8304305
Probable space group: I 41/A
;
_chemical_formula_sum "Si O2"
_cell_formula_units_Z 128
_cell_length_a 22.703911
_cell_length_b 22.703911
_cell_length_c 11.357644
_cell_angle_alpha 90.000000
_cell_angle_beta 90.000000
_cell_angle_gamma 90.000000
_cell_volume 5854.497207
_symmetry_space_group_name_H-M "I 41/A"
_symmetry_group_IT_number 88
_space_group.IT_coordinate_system_code '2'
_symmetry_cell_setting 'tetragonal'
loop_
_space_group_symop_operation_xyz
x,y,z
3/4-y,1/4+x,1/4+z
-x,1/2-y,z
1/4+y,1/4-x,1/4+z
-x,-y,-z
1/4+y,3/4-x,3/4-z
x,1/2+y,-z
3/4-y,3/4+x,3/4-z
1/2+x,1/2+y,1/2+z
1/4-y,3/4+x,3/4+z
1/2-x,-y,1/2+z
3/4+y,3/4-x,3/4+z
1/2-x,1/2-y,1/2-z
3/4+y,1/4-x,1/4-z
1/2+x,y,1/2-z
1/4-y,1/4+x,1/4-z
loop_
_atom_site_type_symbol
_atom_site_label
_atom_site_fract_x
_atom_site_fract_y
_atom_site_fract_z
Si Si1 0.154578 0.238981 0.168539
Si Si2 0.842353 0.971374 0.043284
Si Si3 0.111200 0.919312 0.075422
Si Si4 0.309720 0.362410 0.911215
Si Si5 0.396816 0.150975 0.247698
Si Si6 0.688640 0.813405 0.458548
Si Si7 0.353959 0.485042 0.806902
Si Si8 0.318413 0.303260 0.679033
O O1 0.190287 0.199537 0.262228
O O2 0.116362 0.195163 0.091683
O O3 0.110917 0.279048 0.246870
O O4 0.195973 0.278181 0.082331
O O5 0.774778 0.954536 0.069116
O O6 0.874124 0.981532 0.169923
O O7 0.871472 0.916680 0.973388
O O8 0.843144 0.028940 0.959780
O O9 0.100930 0.910336 0.213851
O O10 0.130448 0.853956 0.032386
O O11 0.239719 0.360905 0.934419
O O12 0.334319 0.422581 0.857780
O O13 0.323203 0.309359 0.819972
O O14 0.419589 0.129235 0.121044
O O15 0.687582 0.765586 0.352669
O O16 0.408691 0.513011 0.878755
#
# Coordination Sequence:
#
# PCOD8304305 Si02
#       8
#    16  16  16  16  16  16  16  16
#     4  11  23  46  67 104 136 180 239 304 362 408
#     4  11  24  40  68  99 145 183 223 295 353 430
#     4  12  27  40  69 111 138 176 244 300 357 415
#     4  12  25  43  65 104 142 184 235 286 355 434
#     4  10  21  43  70  97 134 182 237 282 356 429
#     4  11  25  44  72  99 143 186 239 297 351 441
#     4  11  23  42  71  97 138 192 231 272 360 432
#     4  10  23  48  66  96 139 195 234 278 363 433
#
# _framework density 21.863533
#
# number of rings (size 3 to 8) (size 9 to 14) (size 15 to 20)
#    0.000    1.000    3.750    4.125    3.500    3.250 
#    2.250    0.000    0.000    0.000    0.000    0.000 
#    0.000    0.000    0.000    0.000    0.000    0.000 
#
# Total GULP energy -793274.690650 kJ/mol
# GULP energy per Si atom -12394.917041 kJ/mol
# Density = 2.181377 g / cm^3
# Si number density = 21.863533 Si / 1000 Ang^3
#
#
#
# Elastic Constant Matrix: (Units=GPa)
#
#
# Indices 1 2 3 4 5 6 
#
# 1 99.5463 22.0182 40.7591 0.0000 0.0000 4.3218
# 2 22.0182 99.5463 40.7591 0.0000 0.0000 -4.3218
# 3 40.7591 40.7591 122.4865 0.0000 0.0000 0.0000
# 4 0.0000 0.0000 0.0000 29.7252 0.0000 0.0000
# 5 0.0000 0.0000 0.0000 0.0000 29.7252 0.0000
# 6 4.3218 -4.3218 0.0000 0.0000 0.0000 15.9857
#
#
#
# Elastic Compliance Matrix: (Units=1/GPa)
#
#
# Indices 1 2 3 4 5 6 
#
# 1 0.011944 -0.001355 -0.003524 0.000000 0.000000 -0.003596
# 2 -0.001355 0.011944 -0.003524 0.000000 0.000000 0.003596
# 3 -0.003524 -0.003524 0.010509 0.000000 0.000000 0.000000
# 4 0.000000 0.000000 0.000000 0.033642 0.000000 0.000000
# 5 0.000000 0.000000 0.000000 0.000000 0.033642 0.000000
# 6 -0.003596 0.003596 0.000000 0.000000 0.000000 0.064500
#
#
# Mechanical properties :
#
#
# Convention : Reuss Voigt Hill
#
# Bulk Modulus (GPa) = 56.84196 58.73910 57.79053
# Shear Modulus (GPa) = 26.47607 29.62339 28.04973
#
# Velocity S-wave (km/s) = 3.48367 3.68492 3.58571
# Velocity P-wave (km/s) = 6.49894 6.71040 6.60552
#
# Compressibility (1/GPa) = 0.01759264
#
# Stress axis : x y z
#
# Youngs Moduli (GPa) = 83.72278 83.72278 95.15448
#
# Poissons Ratio (x) = 0.11347 0.33529
# Poissons Ratio (y) = 0.11347 0.33529
# Poissons Ratio (z) = 0.29501 0.29501
#
# Static dielectric constant tensor:
#      x y z
#    x 3.961050 0.000000 0.000000 
#    y 0.000000 3.961050 0.000000 
#    z 0.000000 0.000000 4.232160 
# 
# 
# High freq. dielectric constant tensor:
#      x y z
#    x 1.847600 0.000000 0.000000 
#    y 0.000000 1.847600 0.000000 
#    z 0.000000 0.000000 1.870890 
# 
# From -- ./inp_files/2752.got.cif
#   From: 2010.03.12/outbox.cif.g09.slc.cpg/sg88_2_cif.got.tgz:2752.got - 2010.04.08 20:20:55.
