data_PCOD8304912
_publ_section_title
;
Structure prediction by ZEFSAII (Michael W. Deem and Ramdas Pophale) SiO2 
 PCOD8304912
Probable space group: P 41 2 2
;
_chemical_formula_sum "Si O2"
_cell_formula_units_Z 40
_cell_length_a 12.065207
_cell_length_b 12.065207
_cell_length_c 14.025788
_cell_angle_alpha 90.000000
_cell_angle_beta 90.000000
_cell_angle_gamma 90.000000
_cell_volume 2041.723018
_symmetry_space_group_name_H-M "P 41 2 2"
_symmetry_group_IT_number 91
_symmetry_cell_setting 'tetragonal'
loop_
_space_group_symop_operation_xyz
x,y,z
-y,x,1/4+z
-x,-y,1/2+z
y,-x,3/4+z
x,-y,1/2-z
-x,y,-z
y,x,3/4-z
-y,-x,1/4-z
loop_
_atom_site_type_symbol
_atom_site_label
_atom_site_fract_x
_atom_site_fract_y
_atom_site_fract_z
Si Si1 0.304682 0.304682 0.375000
Si Si2 0.187947 0.400944 0.065907
Si Si3 0.752783 0.000000 0.250000
Si Si4 0.185287 0.185287 0.875000
Si Si5 0.500000 0.249071 0.500000
Si Si6 0.870568 0.623626 0.020961
Si Si7 0.631277 0.768171 0.525926
O O1 0.409443 0.321458 0.444523
O O2 0.195272 0.303309 0.441735
O O3 0.089535 0.315568 0.058384
O O4 0.170650 0.441855 0.173310
O O5 0.311257 0.350811 0.048367
O O6 0.169838 0.497462 0.989469
O O7 0.827537 0.071160 0.180389
O O8 0.181702 0.299141 0.812958
O O9 0.844570 0.653277 0.130866
O O10 0.000000 0.639269 0.000000
O O11 0.500000 0.756335 0.500000
#
# Coordination Sequence:
#
# PCOD8304912 Si02
#       7
#     4   8   4   4   4   8   8
#     4  10  22  42  61  99 126 170 206 264 322 383
#     4  10  21  39  64  92 129 171 212 261 310 389
#     4  10  20  42  62  94 124 168 220 264 318 380
#     4  10  24  40  71  93 132 168 216 272 322 381
#     4  10  20  40  62  88 134 166 208 250 328 378
#     4  11  23  42  65  98 129 169 221 258 323 388
#     4  11  22  41  62  98 129 168 213 266 321 381
#
# _framework density 19.591294999999999
#
# number of rings (size 3 to 8) (size 9 to 14) (size 15 to 20)
#    0.000    1.600    3.000    2.400    0.000    3.200 
#    9.000    1.000    8.800    0.000    0.000    0.000 
#    0.000    0.000    0.000    0.000    0.000    0.000 
#
# Total GULP energy -495552.152569 kJ/mol
# GULP energy per Si atom -12388.803814 kJ/mol
# Density = 1.954670 g / cm^3
# Si number density = 19.591295 Si / 1000 Ang^3
#
#
#
# Elastic Constant Matrix: (Units=GPa)
#
#
# Indices 1 2 3 4 5 6 
#
# 1 129.5419 60.3382 63.5999 0.0000 0.0000 0.0000
# 2 60.3382 129.5419 63.5999 0.0000 0.0000 0.0000
# 3 63.5999 63.5999 135.1630 0.0000 0.0000 0.0000
# 4 0.0000 0.0000 0.0000 30.3996 0.0000 0.0000
# 5 0.0000 0.0000 0.0000 0.0000 30.3996 0.0000
# 6 0.0000 0.0000 0.0000 0.0000 0.0000 -13.9758
#
#
#
# Elastic Compliance Matrix: (Units=1/GPa)
#
#
# Indices 1 2 3 4 5 6 
#
# 1 0.011070 -0.003380 -0.003619 0.000000 0.000000 0.000000
# 2 -0.003380 0.011070 -0.003619 0.000000 0.000000 0.000000
# 3 -0.003619 -0.003619 0.010804 0.000000 0.000000 0.000000
# 4 0.000000 0.000000 0.000000 0.032895 0.000000 0.000000
# 5 0.000000 0.000000 0.000000 0.000000 0.032895 0.000000
# 6 0.000000 0.000000 0.000000 0.000000 0.000000 -0.071552
#
#
# Mechanical properties :
#
#
# Convention : Reuss Voigt Hill
#
# Bulk Modulus (GPa) = 85.39513 85.48033 85.43773
# Shear Modulus (GPa) = 95.56368 23.14527 59.35448
#
# Velocity S-wave (km/s) = 6.99175 3.44089 5.51018
# Velocity P-wave (km/s) = 10.43371 7.71445 9.17538
#
# Compressibility (1/GPa) = 0.01171027
#
# Stress axis : x y z
#
# Youngs Moduli (GPa) = 90.33101 90.33101 92.55769
#
# Poissons Ratio (x) = 0.30529 0.33495
# Poissons Ratio (y) = 0.30529 0.33495
# Poissons Ratio (z) = 0.32689 0.32689
#
# Static dielectric constant tensor:
#      x y z
#    x 3.679470 0.000000 0.000000 
#    y 0.000000 3.679470 0.000000 
#    z 0.000000 0.000000 4.100160 
# 
# 
# High freq. dielectric constant tensor:
#      x y z
#    x 1.751650 0.000000 0.000000 
#    y 0.000000 1.751650 0.000000 
#    z 0.000000 0.000000 1.789220 
# 
# From -- ./inp_files/11423.got.cif
#   From: 2010.03.12/outbox.cif.g09.slc.cpg/sg91_6_cif.got.tgz:11423.got - 2010.04.08 20:27:58.
