data_PCOD8304791
_publ_section_title
;
Structure prediction by ZEFSAII (Michael W. Deem and Ramdas Pophale) SiO2 
 PCOD8304791
Probable space group: P 41 2 2
;
_chemical_formula_sum "Si O2"
_cell_formula_units_Z 44
_cell_length_a 11.858047
_cell_length_b 11.858047
_cell_length_c 15.296575
_cell_angle_alpha 90.000000
_cell_angle_beta 90.000000
_cell_angle_gamma 90.000000
_cell_volume 2150.901563
_symmetry_space_group_name_H-M "P 41 2 2"
_symmetry_group_IT_number 91
_symmetry_cell_setting 'tetragonal'
loop_
_space_group_symop_operation_xyz
x,y,z
-y,x,1/4+z
-x,-y,1/2+z
y,-x,3/4+z
x,-y,1/2-z
-x,y,-z
y,x,3/4-z
-y,-x,1/4-z
loop_
_atom_site_type_symbol
_atom_site_label
_atom_site_fract_x
_atom_site_fract_y
_atom_site_fract_z
Si Si1 0.131566 0.631587 0.496899
Si Si2 0.847733 0.526638 0.844550
Si Si3 0.853494 0.209307 0.313478
Si Si4 0.076182 0.868360 0.268298
Si Si5 0.073229 0.422687 0.588597
Si Si6 0.766632 0.766632 0.875000
O O1 0.171712 0.582075 0.404163
O O2 0.204288 0.746846 0.503553
O O3 0.152120 0.533464 0.570277
O O4 0.000000 0.662726 0.500000
O O5 0.797184 0.500000 0.750000
O O6 0.784891 0.633974 0.885131
O O7 0.981582 0.551115 0.836790
O O8 0.849322 0.102685 0.379528
O O9 0.851833 0.320556 0.374823
O O10 0.964193 0.202153 0.253801
O O11 0.177528 0.820080 0.210623
O O12 0.059251 0.000000 0.250000
O O13 0.000000 0.394062 0.500000
#
# Coordination Sequence:
#
# PCOD8304791 Si02
#       6
#     8   8   8   8   8   4
#     4   9  21  36  52  77 124 156 193 241 294 348
#     4  10  19  33  54  81 112 152 198 239 276 361
#     4  12  21  35  57  85 122 161 196 243 304 361
#     4  12  21  31  51  86 127 156 185 235 305 376
#     4   9  19  37  54  77 120 161 190 244 293 346
#     4  12  20  34  54  84 122 148 192 240 302 340
#
# _framework density 20.456537999999998
#
# number of rings (size 3 to 8) (size 9 to 14) (size 15 to 20)
#    0.000    1.818    3.636    4.364    0.000    0.727 
#    0.000    0.000    0.000    0.000    0.000    3.818 
#   10.909    0.000    0.000    0.000    0.000    0.000 
#
# Total GULP energy -545272.177520 kJ/mol
# GULP energy per Si atom -12392.549489 kJ/mol
# Density = 2.040998 g / cm^3
# Si number density = 20.456538 Si / 1000 Ang^3
#
#
#
# Elastic Constant Matrix: (Units=GPa)
#
#
# Indices 1 2 3 4 5 6 
#
# 1 102.5838 43.0842 23.2188 0.0000 0.0000 0.0000
# 2 43.0842 102.5838 23.2188 0.0000 0.0000 0.0000
# 3 23.2188 23.2188 40.1940 0.0000 0.0000 0.0000
# 4 0.0000 0.0000 0.0000 20.6664 0.0000 0.0000
# 5 0.0000 0.0000 0.0000 0.0000 20.6664 0.0000
# 6 0.0000 0.0000 0.0000 0.0000 0.0000 6.7131
#
#
#
# Elastic Compliance Matrix: (Units=1/GPa)
#
#
# Indices 1 2 3 4 5 6 
#
# 1 0.012611 -0.004196 -0.004861 0.000000 0.000000 0.000000
# 2 -0.004196 0.012611 -0.004861 0.000000 0.000000 0.000000
# 3 -0.004861 -0.004861 0.030495 0.000000 0.000000 0.000000
# 4 0.000000 0.000000 0.000000 0.048388 0.000000 0.000000
# 5 0.000000 0.000000 0.000000 0.000000 0.048388 0.000000
# 6 0.000000 0.000000 0.000000 0.000000 0.000000 0.148962
#
#
# Mechanical properties :
#
#
# Convention : Reuss Voigt Hill
#
# Bulk Modulus (GPa) = 35.86671 47.15614 41.51142
# Shear Modulus (GPa) = 14.76742 19.99850 17.38296
#
# Velocity S-wave (km/s) = 2.68972 3.13007 2.91821
# Velocity P-wave (km/s) = 5.21702 6.01373 5.62949
#
# Compressibility (1/GPa) = 0.02788101
#
# Stress axis : x y z
#
# Youngs Moduli (GPa) = 79.29801 79.29801 32.79210
#
# Poissons Ratio (x) = 0.33275 0.15940
# Poissons Ratio (y) = 0.33275 0.15940
# Poissons Ratio (z) = 0.38545 0.38545
#
# Static dielectric constant tensor:
#      x y z
#    x 3.640460 0.000000 0.000000 
#    y 0.000000 3.640460 0.000000 
#    z 0.000000 0.000000 3.695920 
# 
# 
# High freq. dielectric constant tensor:
#      x y z
#    x 1.777560 0.000000 0.000000 
#    y 0.000000 1.777560 0.000000 
#    z 0.000000 0.000000 1.792290 
# 
# From -- ./inp_files/11875.got.cif
#   From: 2010.03.12/outbox.cif.g09.slc.cpg/sg91_6_cif.got.tgz:11875.got - 2010.04.08 20:27:58.
