data_PCOD8304877
_publ_section_title
;
Structure prediction by ZEFSAII (Michael W. Deem and Ramdas Pophale) SiO2 
 PCOD8304877
Probable space group: P 41 2 2
;
_chemical_formula_sum "Si O2"
_cell_formula_units_Z 36
_cell_length_a 11.917859
_cell_length_b 11.917859
_cell_length_c 12.545208
_cell_angle_alpha 90.000000
_cell_angle_beta 90.000000
_cell_angle_gamma 90.000000
_cell_volume 1781.863174
_symmetry_space_group_name_H-M "P 41 2 2"
_symmetry_group_IT_number 91
_symmetry_cell_setting 'tetragonal'
loop_
_space_group_symop_operation_xyz
x,y,z
-y,x,1/4+z
-x,-y,1/2+z
y,-x,3/4+z
x,-y,1/2-z
-x,y,-z
y,x,3/4-z
-y,-x,1/4-z
loop_
_atom_site_type_symbol
_atom_site_label
_atom_site_fract_x
_atom_site_fract_y
_atom_site_fract_z
Si Si1 0.786460 0.827604 0.716640
Si Si2 0.548546 0.281414 0.109300
Si Si3 0.724486 0.027529 0.586479
Si Si4 0.368125 0.639902 0.003878
Si Si5 0.934624 0.500000 0.250000
O O1 0.915725 0.805304 0.748098
O O2 0.718610 0.891172 0.810966
O O3 0.729783 0.707532 0.688771
O O4 0.779272 0.906625 0.612898
O O5 0.676931 0.323070 0.125000
O O6 0.481361 0.331688 0.210165
O O7 0.541784 0.145706 0.098467
O O8 0.500000 0.335871 0.000000
O O9 0.599279 0.013761 0.540887
O O10 0.337046 0.662955 0.125000
O O11 0.500000 0.660824 0.000000
#
# Coordination Sequence:
#
# PCOD8304877 Si02
#       5
#     8   8   8   8   4
#     4  10  21  38  63  90 123 163 227 275 339 389
#     4  10  20  37  55  84 129 179 202 252 322 408
#     4  10  20  40  61  91 120 171 213 284 329 397
#     4  12  22  34  56  99 127 165 214 258 326 421
#     4  10  22  36  64  84 132 166 210 266 342 394
#
# _framework density 20.203571
#
# number of rings (size 3 to 8) (size 9 to 14) (size 15 to 20)
#    0.667    0.889    4.444    2.667    1.556    0.000 
#    0.000    0.000   14.667    0.000    0.000    0.000 
#    0.000    0.000    0.000    0.000    0.000    0.000 
#
# Total GULP energy -446072.016043 kJ/mol
# GULP energy per Si atom -12390.889335 kJ/mol
# Density = 2.015759 g / cm^3
# Si number density = 20.203571 Si / 1000 Ang^3
#
#
#
# Elastic Constant Matrix: (Units=GPa)
#
#
# Indices 1 2 3 4 5 6 
#
# 1 129.7968 65.4164 26.9200 0.0000 0.0000 0.0000
# 2 65.4164 129.7973 26.9200 0.0000 0.0000 0.0000
# 3 26.9200 26.9200 43.7242 0.0000 0.0000 0.0000
# 4 0.0000 0.0000 0.0000 25.6376 0.0000 0.0000
# 5 0.0000 0.0000 0.0000 0.0000 25.6375 0.0000
# 6 0.0000 0.0000 0.0000 0.0000 0.0000 41.2808
#
#
#
# Elastic Compliance Matrix: (Units=1/GPa)
#
#
# Indices 1 2 3 4 5 6 
#
# 1 0.010852 -0.004681 -0.003799 0.000000 0.000000 0.000000
# 2 -0.004681 0.010851 -0.003799 0.000000 0.000000 0.000000
# 3 -0.003799 -0.003799 0.027548 0.000000 0.000000 0.000000
# 4 0.000000 0.000000 0.000000 0.039005 0.000000 0.000000
# 5 0.000000 0.000000 0.000000 0.000000 0.039005 0.000000
# 6 0.000000 0.000000 0.000000 0.000000 0.000000 0.024224
#
#
# Mechanical properties :
#
#
# Convention : Reuss Voigt Hill
#
# Bulk Modulus (GPa) = 40.49667 60.20345 50.35006
# Shear Modulus (GPa) = 27.13330 30.78199 28.95764
#
# Velocity S-wave (km/s) = 3.66867 3.90756 3.78999
# Velocity P-wave (km/s) = 6.16711 7.08673 6.64286
#
# Compressibility (1/GPa) = 0.02469339
#
# Stress axis : x y z
#
# Youngs Moduli (GPa) = 92.15306 92.15347 36.29971
#
# Poissons Ratio (x) = 0.43138 0.13790
# Poissons Ratio (y) = 0.43138 0.13790
# Poissons Ratio (z) = 0.35008 0.35008
#
# Static dielectric constant tensor:
#      x y z
#    x 3.704510 0.000000 0.000000 
#    y 0.000000 3.704490 0.000000 
#    z 0.000000 0.000000 3.472900 
# 
# 
# High freq. dielectric constant tensor:
#      x y z
#    x 1.783030 0.000000 0.000000 
#    y 0.000000 1.783030 0.000000 
#    z 0.000000 0.000000 1.762970 
# 
# From -- ./inp_files/20608.got.cif
#   From: 2010.03.12/outbox.cif.g09.slc.cpg/sg91_11_cif.got.tgz:20608.got - 2010.04.08 20:27:58.
