data_PCOD8304736
_publ_section_title
;
Structure prediction by ZEFSAII (Michael W. Deem and Ramdas Pophale) SiO2 
 PCOD8304736
Probable space group: P 41 2 2
;
_chemical_formula_sum "Si O2"
_cell_formula_units_Z 44
_cell_length_a 23.004566
_cell_length_b 23.004566
_cell_length_c 5.139712
_cell_angle_alpha 90.000000
_cell_angle_beta 90.000000
_cell_angle_gamma 90.000000
_cell_volume 2719.987280
_symmetry_space_group_name_H-M "P 41 2 2"
_symmetry_group_IT_number 91
_symmetry_cell_setting 'tetragonal'
loop_
_space_group_symop_operation_xyz
x,y,z
-y,x,1/4+z
-x,-y,1/2+z
y,-x,3/4+z
x,-y,1/2-z
-x,y,-z
y,x,3/4-z
-y,-x,1/4-z
loop_
_atom_site_type_symbol
_atom_site_label
_atom_site_fract_x
_atom_site_fract_y
_atom_site_fract_z
Si Si1 0.749685 0.152751 0.613004
Si Si2 0.937676 0.937676 0.875000
Si Si3 0.438144 0.341095 0.396540
Si Si4 0.201106 0.298611 0.864591
Si Si5 0.183367 0.038333 0.506333
Si Si6 0.390245 0.292730 0.891027
O O1 0.804779 0.195222 0.625000
O O2 0.702970 0.169756 0.392861
O O3 0.770284 0.088347 0.545925
O O4 0.716246 0.154930 0.888149
O O5 0.934471 0.881194 0.684403
O O6 0.933671 0.000000 0.750000
O O7 0.500000 0.364747 0.500000
O O8 0.396729 0.396729 0.375000
O O9 0.419934 0.292977 0.609195
O O10 0.436785 0.308120 0.118218
O O11 0.251562 0.251562 0.875000
O O12 0.229401 0.361838 0.810968
O O13 0.204000 0.000000 0.750000
O O14 0.179961 0.000000 0.250000
O O15 0.340550 0.340550 0.875000
#
# Coordination Sequence:
#
# PCOD8304736 Si02
#       6
#     8   4   8   8   8   8
#     4  10  18  31  44  65  84 107 142 184 232 279
#     4  10  20  34  46  60  76 112 158 200 234 266
#     4  10  19  31  46  65  95 129 169 202 228 252
#     4   9  17  28  48  65  85 106 139 188 232 277
#     4  11  22  33  46  61  84 113 147 189 236 277
#     4   9  17  30  46  67  87 116 155 196 234 271
#
# _framework density 16.176548
#
# number of rings (size 3 to 8) (size 9 to 14) (size 15 to 20)
#    0.000    2.182    0.909    3.273    0.000    6.545 
#    0.000    2.727    0.000    0.000    0.000    0.000 
#    0.000    0.000    0.000    0.000    0.000  229.091 
#
# Total GULP energy -545206.751264 kJ/mol
# GULP energy per Si atom -12391.062529 kJ/mol
# Density = 1.613973 g / cm^3
# Si number density = 16.176548 Si / 1000 Ang^3
#
#
#
# Elastic Constant Matrix: (Units=GPa)
#
#
# Indices 1 2 3 4 5 6 
#
# 1 58.3179 44.2893 33.5663 0.0000 0.0000 0.0000
# 2 44.2893 58.3182 33.5663 0.0000 0.0000 0.0000
# 3 33.5663 33.5663 119.9744 0.0000 0.0000 0.0000
# 4 0.0000 0.0000 0.0000 26.3297 0.0000 0.0000
# 5 0.0000 0.0000 0.0000 0.0000 26.3294 0.0000
# 6 0.0000 0.0000 0.0000 0.0000 0.0000 20.6031
#
#
#
# Elastic Compliance Matrix: (Units=1/GPa)
#
#
# Indices 1 2 3 4 5 6 
#
# 1 0.041606 -0.029676 -0.003338 0.000000 0.000000 0.000000
# 2 -0.029676 0.041606 -0.003338 0.000000 0.000000 0.000000
# 3 -0.003338 -0.003338 0.010203 0.000000 0.000000 0.000000
# 4 0.000000 0.000000 0.000000 0.037980 0.000000 0.000000
# 5 0.000000 0.000000 0.000000 0.000000 0.037980 0.000000
# 6 0.000000 0.000000 0.000000 0.000000 0.000000 0.048536
#
#
# Mechanical properties :
#
#
# Convention : Reuss Voigt Hill
#
# Bulk Modulus (GPa) = 48.28274 51.05046 49.66660
# Shear Modulus (GPa) = 16.80568 22.99834 19.90201
#
# Velocity S-wave (km/s) = 3.22668 3.77465 3.51137
# Velocity P-wave (km/s) = 6.61771 7.11506 6.87089
#
# Compressibility (1/GPa) = 0.02071133
#
# Stress axis : x y z
#
# Youngs Moduli (GPa) = 24.03494 24.03508 98.01311
#
# Poissons Ratio (x) = 0.71327 0.32714
# Poissons Ratio (y) = 0.71327 0.32713
# Poissons Ratio (z) = 0.08022 0.08022
#
# Static dielectric constant tensor:
#      x y z
#    x 3.022900 0.000000 0.000000 
#    y 0.000000 3.022890 0.000000 
#    z 0.000000 0.000000 3.603000 
# 
# 
# High freq. dielectric constant tensor:
#      x y z
#    x 1.588970 0.000000 0.000000 
#    y 0.000000 1.588970 0.000000 
#    z 0.000000 0.000000 1.640140 
# 
# From -- ./inp_files/18776.got.cif
#   From: 2010.03.12/outbox.cif.g09.slc.cpg/sg91_10_cif.got.tgz:18776.got - 2010.04.08 20:27:58.
