data_PCOD8304197
_publ_section_title
;
Structure prediction by ZEFSAII (Michael W. Deem and Ramdas Pophale) SiO2 
 PCOD8304197
Probable space group: I 41/A
;
_chemical_formula_sum "Si O2"
_cell_formula_units_Z 108
_cell_length_a 13.756207
_cell_length_b 13.756207
_cell_length_c 29.655052
_cell_angle_alpha 90.000000
_cell_angle_beta 90.000000
_cell_angle_gamma 90.000000
_cell_volume 5611.721306
_symmetry_space_group_name_H-M "I 41/A"
_symmetry_group_IT_number 88
_space_group.IT_coordinate_system_code '2'
_symmetry_cell_setting 'tetragonal'
loop_
_space_group_symop_operation_xyz
x,y,z
3/4-y,1/4+x,1/4+z
-x,1/2-y,z
1/4+y,1/4-x,1/4+z
-x,-y,-z
1/4+y,3/4-x,3/4-z
x,1/2+y,-z
3/4-y,3/4+x,3/4-z
1/2+x,1/2+y,1/2+z
1/4-y,3/4+x,3/4+z
1/2-x,-y,1/2+z
3/4+y,3/4-x,3/4+z
1/2-x,1/2-y,1/2-z
3/4+y,1/4-x,1/4-z
1/2+x,y,1/2-z
1/4-y,1/4+x,1/4-z
loop_
_atom_site_type_symbol
_atom_site_label
_atom_site_fract_x
_atom_site_fract_y
_atom_site_fract_z
Si Si1 0.000000 0.750000 0.375000
Si Si2 0.500000 0.750000 0.411233
Si Si3 0.155962 0.826649 0.593832
Si Si4 0.332081 0.744377 0.288173
Si Si5 0.909673 0.035155 0.789337
Si Si6 0.226999 0.540528 0.084621
Si Si7 0.061046 0.947499 0.385287
Si Si8 0.200843 0.746598 0.048707
O O1 0.005784 0.850023 0.403592
O O2 0.472761 0.837636 0.379669
O O3 0.408493 0.717746 0.441429
O O4 0.228001 0.741796 0.577577
O O5 0.218011 0.905594 0.622071
O O6 0.096732 0.863267 0.548284
O O7 0.250000 0.750000 0.250000
O O8 0.398682 0.650535 0.277318
O O9 0.288186 0.726612 0.337235
O O10 0.809211 0.985879 0.806245
O O11 0.953236 0.977130 0.747772
O O12 0.326001 0.569768 0.108715
O O13 0.201210 0.627932 0.049660
O O14 0.036639 0.969366 0.333646
#
# Coordination Sequence:
#
# PCOD8304197 Si02
#       8
#     4   8  16  16  16  16  16  16
#     4  12  20  28  54  84 124 160 196 220 302 380
#     4  10  18  44  65  80 107 181 212 238 313 382
#     4  11  20  44  65  85 127 172 210 257 311 388
#     4  11  23  36  60  91 128 166 211 255 310 379
#     4  11  25  38  60 100 120 157 217 264 316 371
#     4  10  23  41  61  88 125 163 210 251 316 380
#     4  11  21  37  54  88 127 169 199 240 317 379
#     4  11  23  39  64  85 126 159 207 267 303 375
#
# _framework density 19.245432999999998
#
# number of rings (size 3 to 8) (size 9 to 14) (size 15 to 20)
#    0.000    1.185    5.926    0.889    8.296    0.000 
#    0.000    4.444    0.000    0.000    0.000    0.000 
#    0.000    0.000    0.000    0.000    0.000    0.000 
#
# Total GULP energy -669068.084479 kJ/mol
# GULP energy per Si atom -12390.149713 kJ/mol
# Density = 1.920163 g / cm^3
# Si number density = 19.245433 Si / 1000 Ang^3
#
#
#
# Elastic Constant Matrix: (Units=GPa)
#
#
# Indices 1 2 3 4 5 6 
#
# 1 86.6038 44.7716 42.5059 0.0000 0.0000 1.2724
# 2 44.7716 86.6038 42.5059 0.0000 0.0000 -1.2724
# 3 42.5059 42.5059 98.7837 0.0000 0.0000 0.0000
# 4 0.0000 0.0000 0.0000 7.4206 0.0000 0.0000
# 5 0.0000 0.0000 0.0000 0.0000 7.4206 0.0000
# 6 1.2724 -1.2724 0.0000 0.0000 0.0000 24.9281
#
#
#
# Elastic Compliance Matrix: (Units=1/GPa)
#
#
# Indices 1 2 3 4 5 6 
#
# 1 0.017264 -0.006715 -0.004539 0.000000 0.000000 -0.001224
# 2 -0.006715 0.017264 -0.004539 0.000000 0.000000 0.001224
# 3 -0.004539 -0.004539 0.014029 0.000000 0.000000 0.000000
# 4 0.000000 0.000000 0.000000 0.134759 0.000000 0.000000
# 5 0.000000 0.000000 0.000000 0.000000 0.134759 0.000000
# 6 -0.001224 0.001224 0.000000 0.000000 0.000000 0.040240
#
#
# Mechanical properties :
#
#
# Convention : Reuss Voigt Hill
#
# Bulk Modulus (GPa) = 58.92458 59.06202 58.99330
# Shear Modulus (GPa) = 12.64028 17.43440 15.03734
#
# Velocity S-wave (km/s) = 2.56558 3.01308 2.79829
# Velocity P-wave (km/s) = 6.28173 6.54678 6.41563
#
# Compressibility (1/GPa) = 0.01697085
#
# Stress axis : x y z
#
# Youngs Moduli (GPa) = 57.92315 57.92315 71.27858
#
# Poissons Ratio (x) = 0.38897 0.32355
# Poissons Ratio (y) = 0.38897 0.32355
# Poissons Ratio (z) = 0.26292 0.26292
#
# Static dielectric constant tensor:
#      x y z
#    x 2.986220 0.000000 0.000000 
#    y 0.000000 2.986220 0.000000 
#    z 0.000000 0.000000 3.429210 
# 
# 
# High freq. dielectric constant tensor:
#      x y z
#    x 1.749280 0.000000 0.000000 
#    y 0.000000 1.749280 0.000000 
#    z 0.000000 0.000000 1.731900 
# 
# From -- ./inp_files/5909.got.cif
#   From: 2010.03.12/outbox.cif.g09.slc.cpg/sg88_3_cif.got.tgz:5909.got - 2010.04.08 20:20:55.
