data_PCOD8304196
_publ_section_title
;
Structure prediction by ZEFSAII (Michael W. Deem and Ramdas Pophale) SiO2 
 PCOD8304196
Probable space group: I 41/A
;
_chemical_formula_sum "Si O2"
_cell_formula_units_Z 120
_cell_length_a 14.354253
_cell_length_b 14.354253
_cell_length_c 28.381277
_cell_angle_alpha 90.000000
_cell_angle_beta 90.000000
_cell_angle_gamma 90.000000
_cell_volume 5847.808276
_symmetry_space_group_name_H-M "I 41/A"
_symmetry_group_IT_number 88
_space_group.IT_coordinate_system_code '2'
_symmetry_cell_setting 'tetragonal'
loop_
_space_group_symop_operation_xyz
x,y,z
3/4-y,1/4+x,1/4+z
-x,1/2-y,z
1/4+y,1/4-x,1/4+z
-x,-y,-z
1/4+y,3/4-x,3/4-z
x,1/2+y,-z
3/4-y,3/4+x,3/4-z
1/2+x,1/2+y,1/2+z
1/4-y,3/4+x,3/4+z
1/2-x,-y,1/2+z
3/4+y,3/4-x,3/4+z
1/2-x,1/2-y,1/2-z
3/4+y,1/4-x,1/4-z
1/2+x,y,1/2-z
1/4-y,1/4+x,1/4-z
loop_
_atom_site_type_symbol
_atom_site_label
_atom_site_fract_x
_atom_site_fract_y
_atom_site_fract_z
Si Si1 0.682271 0.197907 0.036898
Si Si2 0.097853 0.531568 0.405834
Si Si3 0.758468 0.375939 0.990384
Si Si4 0.580470 0.877931 0.390935
Si Si5 0.000000 0.250000 0.740986
Si Si6 0.853011 0.843932 0.322694
Si Si7 0.419632 0.632515 0.842393
Si Si8 0.809334 0.980736 0.716952
O O1 0.684367 0.166468 0.091590
O O2 0.573280 0.190038 0.021842
O O3 0.714530 0.305160 0.028689
O O4 0.756861 0.135707 0.008029
O O5 0.113247 0.623138 0.373999
O O6 0.128697 0.438169 0.378862
O O7 0.163558 0.541387 0.450480
O O8 0.988746 0.527287 0.421599
O O9 0.682100 0.431582 0.957972
O O10 0.832558 0.320011 0.958241
O O11 0.811490 0.461228 0.015450
O O12 0.476645 0.891597 0.412811
O O13 0.595286 0.768599 0.384425
O O14 0.662292 0.911743 0.425074
O O15 0.940457 0.311018 0.706250
#
# Coordination Sequence:
#
# PCOD8304196 Si02
#       8
#    16  16  16  16   8  16  16  16
#     4  11  23  42  61  95 134 167 214 264 315 397
#     4  11  21  35  57  94 133 169 203 250 309 385
#     4  10  24  42  63  95 127 161 213 271 313 383
#     4  11  24  43  67  89 122 175 216 270 329 378
#     4  10  18  37  56  90 128 178 202 242 313 392
#     4  10  20  32  58  89 134 167 200 239 307 383
#     4  10  22  42  66  91 126 165 219 268 320 381
#     4  12  25  40  64  93 125 171 217 265 324 375
#
# _framework density 20.520509000000001
#
# number of rings (size 3 to 8) (size 9 to 14) (size 15 to 20)
#    0.000    1.333    2.667    3.200    7.467    2.133 
#    0.000    0.000    0.000    0.000    0.000    0.000 
#    0.000    0.000    0.000    0.000    0.000    0.000 
#
# Total GULP energy -743595.602769 kJ/mol
# GULP energy per Si atom -12393.260046 kJ/mol
# Density = 2.047380 g / cm^3
# Si number density = 20.520509 Si / 1000 Ang^3
#
#
#
# Elastic Constant Matrix: (Units=GPa)
#
#
# Indices 1 2 3 4 5 6 
#
# 1 87.8995 22.0301 38.6006 0.0000 0.0000 -5.3615
# 2 22.0301 87.8995 38.6006 0.0000 0.0000 5.3615
# 3 38.6006 38.6006 110.4474 0.0000 0.0000 0.0000
# 4 0.0000 0.0000 0.0000 24.6932 0.0000 0.0000
# 5 0.0000 0.0000 0.0000 0.0000 24.6932 0.0000
# 6 -5.3615 5.3615 0.0000 0.0000 0.0000 16.0057
#
#
#
# Elastic Compliance Matrix: (Units=1/GPa)
#
#
# Indices 1 2 3 4 5 6 
#
# 1 0.014056 -0.002001 -0.004213 0.000000 0.000000 0.005379
# 2 -0.002001 0.014056 -0.004213 0.000000 0.000000 -0.005379
# 3 -0.004213 -0.004213 0.011999 0.000000 0.000000 0.000000
# 4 0.000000 0.000000 0.000000 0.040497 0.000000 0.000000
# 5 0.000000 0.000000 0.000000 0.000000 0.040497 0.000000
# 6 0.005379 -0.005379 0.000000 0.000000 0.000000 0.066081
#
#
# Mechanical properties :
#
#
# Convention : Reuss Voigt Hill
#
# Bulk Modulus (GPa) = 51.92904 53.85655 52.89280
# Shear Modulus (GPa) = 23.31426 25.54612 24.43019
#
# Velocity S-wave (km/s) = 3.37433 3.53215 3.45414
# Velocity P-wave (km/s) = 6.36729 6.55263 6.46062
#
# Compressibility (1/GPa) = 0.01925705
#
# Stress axis : x y z
#
# Youngs Moduli (GPa) = 71.14182 71.14182 83.33908
#
# Poissons Ratio (x) = 0.14234 0.35114
# Poissons Ratio (y) = 0.14234 0.35114
# Poissons Ratio (z) = 0.29975 0.29975
#
# Static dielectric constant tensor:
#      x y z
#    x 3.829940 0.000000 0.000000 
#    y 0.000000 3.829940 0.000000 
#    z 0.000000 0.000000 3.719710 
# 
# 
# High freq. dielectric constant tensor:
#      x y z
#    x 1.788370 0.000000 0.000000 
#    y 0.000000 1.788370 0.000000 
#    z 0.000000 0.000000 1.801000 
# 
# From -- ./inp_files/6638.got.cif
#   From: 2010.03.12/outbox.cif.g09.slc.cpg/sg88_4_cif.got.tgz:6638.got - 2010.04.08 20:20:55.
