data_PCOD8304527
_publ_section_title
;
Structure prediction by ZEFSAII (Michael W. Deem and Ramdas Pophale) SiO2 
 PCOD8304527
Probable space group: P 4 21 2
;
_chemical_formula_sum "Si O2"
_cell_formula_units_Z 40
_cell_length_a 15.178504
_cell_length_b 15.178504
_cell_length_c 8.873754
_cell_angle_alpha 90.000000
_cell_angle_beta 90.000000
_cell_angle_gamma 90.000000
_cell_volume 2044.397418
_symmetry_space_group_name_H-M "P 4 21 2"
_symmetry_group_IT_number 90
_symmetry_cell_setting 'tetragonal'
loop_
_space_group_symop_operation_xyz
x,y,z
1/2-y,1/2+x,z
-x,-y,z
1/2+y,1/2-x,z
1/2+x,1/2-y,-z
1/2-x,1/2+y,-z
y,x,-z
-y,-x,-z
loop_
_atom_site_type_symbol
_atom_site_label
_atom_site_fract_x
_atom_site_fract_y
_atom_site_fract_z
Si Si1 0.637476 0.362525 0.000000
Si Si2 0.422830 0.123419 0.051412
Si Si3 0.724721 0.824029 0.244357
Si Si4 0.491351 0.605600 0.743266
Si Si5 0.148183 0.148183 0.500000
Si Si6 0.278439 0.361416 0.145130
O O1 0.724845 0.368069 0.898175
O O2 0.550473 0.365344 0.900445
O O3 0.527125 0.119764 0.047556
O O4 0.379718 0.161998 0.208223
O O5 0.401512 0.185099 0.907861
O O6 0.760978 0.860874 0.403261
O O7 0.747975 0.721257 0.247478
O O8 0.500000 0.500000 0.726856
O O9 0.435787 0.645699 0.607239
O O10 0.582577 0.658407 0.744676
O O11 0.335109 0.335109 0.000000
#
# Coordination Sequence:
#
# PCOD8304527 Si02
#       6
#     4   8   8   8   4   8
#     4  10  17  34  62  84 123 154 198 250 324 360
#     4  10  20  35  62  93 119 151 208 272 315 356
#     4  10  20  40  56  87 119 167 203 251 315 369
#     4  11  22  38  61  95 127 161 204 259 311 373
#     4  10  25  40  58  84 133 170 200 240 324 380
#     4  10  20  36  64  92 118 155 212 260 312 372
#
# _framework density 19.565667999999999
#
# number of rings (size 3 to 8) (size 9 to 14) (size 15 to 20)
#    0.000    1.800    3.000    3.000    2.800    4.800 
#    7.200    0.000    0.000    0.000    0.000    0.000 
#    0.000    0.000    0.000    0.000    0.000    0.000 
#
# Total GULP energy -495645.470384 kJ/mol
# GULP energy per Si atom -12391.136760 kJ/mol
# Density = 1.952114 g / cm^3
# Si number density = 19.565668 Si / 1000 Ang^3
#
#
#
# Elastic Constant Matrix: (Units=GPa)
#
#
# Indices 1 2 3 4 5 6 
#
# 1 113.5675 50.5525 41.7427 0.0000 0.0000 0.0000
# 2 50.5525 113.5684 41.7394 0.0000 0.0000 0.0000
# 3 41.7427 41.7394 101.2049 0.0000 0.0000 0.0000
# 4 0.0000 0.0000 0.0000 5.2777 0.0000 0.0000
# 5 0.0000 0.0000 0.0000 0.0000 5.2771 0.0000
# 6 0.0000 0.0000 0.0000 0.0000 0.0000 36.6697
#
#
#
# Elastic Compliance Matrix: (Units=1/GPa)
#
#
# Indices 1 2 3 4 5 6 
#
# 1 0.011790 -0.004079 -0.003181 0.000000 0.000000 0.000000
# 2 -0.004079 0.011790 -0.003180 0.000000 0.000000 0.000000
# 3 -0.003181 -0.003180 0.012504 0.000000 0.000000 0.000000
# 4 0.000000 0.000000 0.000000 0.189475 0.000000 0.000000
# 5 0.000000 0.000000 0.000000 0.000000 0.189497 0.000000
# 6 0.000000 0.000000 0.000000 0.000000 0.000000 0.027271
#
#
# Mechanical properties :
#
#
# Convention : Reuss Voigt Hill
#
# Bulk Modulus (GPa) = 65.76852 66.26778 66.01815
# Shear Modulus (GPa) = 10.67749 22.39865 16.53807
#
# Velocity S-wave (km/s) = 2.33861 3.38715 2.91049
# Velocity P-wave (km/s) = 6.40151 7.01712 6.71637
#
# Compressibility (1/GPa) = 0.01520484
#
# Stress axis : x y z
#
# Youngs Moduli (GPa) = 84.81645 84.81973 79.97280
#
# Poissons Ratio (x) = 0.34600 0.25436
# Poissons Ratio (y) = 0.34598 0.25430
# Poissons Ratio (z) = 0.26977 0.26972
#
# Static dielectric constant tensor:
#      x y z
#    x 3.725270 0.000000 0.000000 
#    y 0.000000 3.725260 0.000000 
#    z 0.000000 0.000000 2.500820 
# 
# 
# High freq. dielectric constant tensor:
#      x y z
#    x 1.769730 0.000000 0.000000 
#    y 0.000000 1.769730 0.000000 
#    z 0.000000 0.000000 1.734790 
# 
# From -- ./inp_files/1341.got.cif
#   From: 2010.03.12/outbox.cif.g09.slc.cpg/sg90_1_cif.got.tgz:1341.got - 2010.04.08 20:26:03.
