data_PCOD8304894
_publ_section_title
;
Structure prediction by ZEFSAII (Michael W. Deem and Ramdas Pophale) SiO2 
 PCOD8304894
Probable space group: P 41 2 2
;
_chemical_formula_sum "Si O2"
_cell_formula_units_Z 36
_cell_length_a 8.632277
_cell_length_b 8.632277
_cell_length_c 21.946832
_cell_angle_alpha 90.000000
_cell_angle_beta 90.000000
_cell_angle_gamma 90.000000
_cell_volume 1635.394659
_symmetry_space_group_name_H-M "P 41 2 2"
_symmetry_group_IT_number 91
_symmetry_cell_setting 'tetragonal'
loop_
_space_group_symop_operation_xyz
x,y,z
-y,x,1/4+z
-x,-y,1/2+z
y,-x,3/4+z
x,-y,1/2-z
-x,y,-z
y,x,3/4-z
-y,-x,1/4-z
loop_
_atom_site_type_symbol
_atom_site_label
_atom_site_fract_x
_atom_site_fract_y
_atom_site_fract_z
Si Si1 0.325297 0.249005 0.808476
Si Si2 0.384775 0.925531 0.332003
Si Si3 0.500000 0.469323 0.500000
Si Si4 0.662177 0.925839 0.532567
Si Si5 0.228673 0.736071 0.030759
O O1 0.249561 0.249561 0.875000
O O2 0.440889 0.101913 0.806189
O O3 0.421340 0.406808 0.796609
O O4 0.193081 0.233453 0.756583
O O5 0.371008 0.857616 0.400189
O O6 0.269437 0.828910 0.289120
O O7 0.341855 0.106886 0.327598
O O8 0.613028 0.359474 0.539355
O O9 0.500000 0.960142 0.500000
O O10 0.753987 0.083536 0.544306
#
# Coordination Sequence:
#
# PCOD8304894 Si02
#       5
#     8   8   4   8   8
#     4  11  21  40  65  99 138 169 230 293 349 412
#     4  10  23  45  66  98 141 178 234 279 355 424
#     4  10  20  38  64 100 128 180 232 286 346 410
#     4  12  22  43  71 101 136 177 228 290 349 420
#     4  10  23  44  67  99 137 185 233 281 349 424
#
# _framework density 22.013031999999999
#
# number of rings (size 3 to 8) (size 9 to 14) (size 15 to 20)
#    0.000    1.333    4.444    0.667    0.000    1.778 
#   12.000   13.333    0.000    0.000    0.000    0.000 
#    0.000    0.000    0.000    0.000    0.000    0.000 
#
# Total GULP energy -446389.866905 kJ/mol
# GULP energy per Si atom -12399.718525 kJ/mol
# Density = 2.196293 g / cm^3
# Si number density = 22.013032 Si / 1000 Ang^3
#
#
#
# Elastic Constant Matrix: (Units=GPa)
#
#
# Indices 1 2 3 4 5 6 
#
# 1 108.4964 48.5906 30.0089 0.0000 0.0000 0.0000
# 2 48.5906 108.4964 30.0089 0.0000 0.0000 0.0000
# 3 30.0089 30.0089 155.8048 0.0000 0.0000 0.0000
# 4 0.0000 0.0000 0.0000 25.2672 0.0000 0.0000
# 5 0.0000 0.0000 0.0000 0.0000 25.2672 0.0000
# 6 0.0000 0.0000 0.0000 0.0000 0.0000 30.9267
#
#
#
# Elastic Compliance Matrix: (Units=1/GPa)
#
#
# Indices 1 2 3 4 5 6 
#
# 1 0.011782 -0.004911 -0.001324 0.000000 0.000000 0.000000
# 2 -0.004911 0.011782 -0.001324 0.000000 0.000000 0.000000
# 3 -0.001324 -0.001324 0.006928 0.000000 0.000000 0.000000
# 4 0.000000 0.000000 0.000000 0.039577 0.000000 0.000000
# 5 0.000000 0.000000 0.000000 0.000000 0.039577 0.000000
# 6 0.000000 0.000000 0.000000 0.000000 0.000000 0.032335
#
#
# Mechanical properties :
#
#
# Convention : Reuss Voigt Hill
#
# Bulk Modulus (GPa) = 65.03121 65.55717 65.29419
# Shear Modulus (GPa) = 30.82193 33.90483 32.36338
#
# Velocity S-wave (km/s) = 3.74594 3.92882 3.83847
# Velocity P-wave (km/s) = 6.95095 7.10116 7.02646
#
# Compressibility (1/GPa) = 0.01537723
#
# Stress axis : x y z
#
# Youngs Moduli (GPa) = 84.87369 84.87369 144.33938
#
# Poissons Ratio (x) = 0.41679 0.19103
# Poissons Ratio (y) = 0.41679 0.19103
# Poissons Ratio (z) = 0.11233 0.11233
#
# Static dielectric constant tensor:
#      x y z
#    x 3.947870 0.000000 0.000000 
#    y 0.000000 3.947870 0.000000 
#    z 0.000000 0.000000 4.067860 
# 
# 
# High freq. dielectric constant tensor:
#      x y z
#    x 1.858580 0.000000 0.000000 
#    y 0.000000 1.858580 0.000000 
#    z 0.000000 0.000000 1.871850 
# 
# From -- ./inp_files/6163.got.cif
#   From: 2010.03.12/outbox.cif.g09.slc.cpg/sg91_4_cif.got.tgz:6163.got - 2010.04.08 20:27:58.
