data_PCOD8304130
_publ_section_title
;
Structure prediction by ZEFSAII (Michael W. Deem and Ramdas Pophale) SiO2 
 PCOD8304130
Probable space group: I 4/M
;
_chemical_formula_sum "Si O2"
_cell_formula_units_Z 40
_cell_length_a 15.770799
_cell_length_b 15.770799
_cell_length_c 7.662445
_cell_angle_alpha 90.000000
_cell_angle_beta 90.000000
_cell_angle_gamma 90.000000
_cell_volume 1905.788770
_symmetry_space_group_name_H-M "I 4/M"
_symmetry_group_IT_number 87
_symmetry_cell_setting 'tetragonal'
loop_
_space_group_symop_operation_xyz
x,y,z
-y,x,z
-x,-y,z
y,-x,z
-x,-y,-z
y,-x,-z
x,y,-z
-y,x,-z
1/2+x,1/2+y,1/2+z
1/2-y,1/2+x,1/2+z
1/2-x,1/2-y,1/2+z
1/2+y,1/2-x,1/2+z
1/2-x,1/2-y,1/2-z
1/2+y,1/2-x,1/2-z
1/2+x,1/2+y,1/2-z
1/2-y,1/2+x,1/2-z
loop_
_atom_site_type_symbol
_atom_site_label
_atom_site_fract_x
_atom_site_fract_y
_atom_site_fract_z
Si Si1 0.605852 0.408719 0.500000
Si Si2 0.157699 0.219944 0.696381
Si Si3 0.949207 0.623978 0.799508
O O1 0.618718 0.508843 0.500000
O O2 0.646179 0.370942 0.325387
O O3 0.159089 0.183132 0.500000
O O4 0.250000 0.250000 0.750000
O O5 0.094222 0.299189 0.699564
O O6 0.891459 0.540347 0.786771
O O7 0.960866 0.649571 0.000000
#
# Coordination Sequence:
#
# PCOD8304130 Si02
#       3
#     8  16  16
#     4  11  28  52  74 101 143 192 237 290 350 423
#     4  12  25  44  71 104 138 180 233 291 348 415
#     4  11  22  39  62  99 139 180 223 281 357 426
#
# _framework density 20.988686000000001
#
# number of rings (size 3 to 8) (size 9 to 14) (size 15 to 20)
#    0.000    0.600    4.000    4.800    5.600    1.600 
#    0.000    2.000    0.000    0.000    0.000    0.000 
#    0.000    0.000    0.000    0.000    0.000    0.000 
#
# Total GULP energy -248137.250721 kJ/mol
# GULP energy per Si atom -12406.862536 kJ/mol
# Density = 2.094091 g / cm^3
# Si number density = 20.988686 Si / 1000 Ang^3
#
#
#
# Elastic Constant Matrix: (Units=GPa)
#
#
# Indices 1 2 3 4 5 6 
#
# 1 79.7301 56.0787 53.2812 0.0000 0.0000 4.0376
# 2 56.0787 79.7301 53.2812 0.0000 0.0000 -4.0376
# 3 53.2812 53.2812 196.1233 0.0000 0.0000 0.0000
# 4 0.0000 0.0000 0.0000 33.7815 0.0000 0.0000
# 5 0.0000 0.0000 0.0000 0.0000 33.7815 0.0000
# 6 4.0376 -4.0376 0.0000 0.0000 0.0000 31.1693
#
#
#
# Elastic Compliance Matrix: (Units=1/GPa)
#
#
# Indices 1 2 3 4 5 6 
#
# 1 0.026798 -0.017440 -0.002542 0.000000 0.000000 -0.005730
# 2 -0.017440 0.026798 -0.002542 0.000000 0.000000 0.005730
# 3 -0.002542 -0.002542 0.006480 0.000000 0.000000 0.000000
# 4 0.000000 0.000000 0.000000 0.029602 0.000000 0.000000
# 5 0.000000 0.000000 0.000000 0.000000 0.029602 0.000000
# 6 -0.005730 0.005730 0.000000 0.000000 0.000000 0.033568
#
#
# Mechanical properties :
#
#
# Convention : Reuss Voigt Hill
#
# Bulk Modulus (GPa) = 66.54639 75.65175 71.09907
# Shear Modulus (GPa) = 24.64205 32.60926 28.62566
#
# Velocity S-wave (km/s) = 3.43018 3.94592 3.69706
# Velocity P-wave (km/s) = 6.88933 7.54206 7.22307
#
# Compressibility (1/GPa) = 0.01502711
#
# Stress axis : x y z
#
# Youngs Moduli (GPa) = 37.31647 37.31647 154.31612
#
# Poissons Ratio (x) = 0.65079 0.39233
# Poissons Ratio (y) = 0.65079 0.39233
# Poissons Ratio (z) = 0.09487 0.09487
#
# Static dielectric constant tensor:
#      x y z
#    x 3.898690 0.000000 0.000000 
#    y 0.000000 3.898690 0.000000 
#    z 0.000000 0.000000 3.818790 
# 
# 
# High freq. dielectric constant tensor:
#      x y z
#    x 1.826190 0.000000 0.000000 
#    y 0.000000 1.826190 0.000000 
#    z 0.000000 0.000000 1.841400 
# 
# From -- ./inp_files/391.got.cif
#   From: 2010.03.12/outbox.cif.g09.slc.cpg/sg87_1_cif.got.tgz:391.got - 2010.04.08 20:16:13.
