data_PCOD8304978
_publ_section_title
;
Structure prediction by ZEFSAII (Michael W. Deem and Ramdas Pophale) SiO2 
 PCOD8304978
Probable space group: P 41 2 2
;
_chemical_formula_sum "Si O2"
_cell_formula_units_Z 40
_cell_length_a 11.577909
_cell_length_b 11.577909
_cell_length_c 13.715709
_cell_angle_alpha 90.000000
_cell_angle_beta 90.000000
_cell_angle_gamma 90.000000
_cell_volume 1838.563042
_symmetry_space_group_name_H-M "P 41 2 2"
_symmetry_group_IT_number 91
_symmetry_cell_setting 'tetragonal'
loop_
_space_group_symop_operation_xyz
x,y,z
-y,x,1/4+z
-x,-y,1/2+z
y,-x,3/4+z
x,-y,1/2-z
-x,y,-z
y,x,3/4-z
-y,-x,1/4-z
loop_
_atom_site_type_symbol
_atom_site_label
_atom_site_fract_x
_atom_site_fract_y
_atom_site_fract_z
Si Si1 0.292199 0.676769 0.320833
Si Si2 0.654296 0.118325 0.194587
Si Si3 0.723852 0.150020 0.984602
Si Si4 0.893914 0.272601 0.678396
Si Si5 0.229234 0.535651 0.068464
O O1 0.336192 0.766640 0.404008
O O2 0.162083 0.712136 0.286445
O O3 0.293915 0.544049 0.353262
O O4 0.372257 0.680659 0.225304
O O5 0.779608 0.165944 0.226234
O O6 0.547256 0.193704 0.230257
O O7 0.638617 0.000000 0.250000
O O8 0.642397 0.117471 0.076965
O O9 0.757470 0.029162 0.934477
O O10 0.836085 0.163916 0.625000
O O11 0.875674 0.392246 0.617699
#
# Coordination Sequence:
#
# PCOD8304978 Si02
#       5
#     8   8   8   8   8
#     4  10  22  41  66  94 127 166 214 263 320 380
#     4  10  22  40  63  93 130 172 208 258 322 380
#     4  10  21  40  62  94 131 162 212 260 314 389
#     4  10  22  41  66  94 127 166 212 263 322 385
#     4  10  22  40  67  90 129 165 215 265 319 385
#
# _framework density 21.756119999999999
#
# number of rings (size 3 to 8) (size 9 to 14) (size 15 to 20)
#    0.000    2.000    0.000    3.000    2.800    3.200 
#    7.200    0.000   83.600    0.000    0.000    0.000 
#    0.000    0.000    0.000    0.000    0.000    0.000 
#
# Total GULP energy -495745.389607 kJ/mol
# GULP energy per Si atom -12393.634740 kJ/mol
# Density = 2.170660 g / cm^3
# Si number density = 21.756120 Si / 1000 Ang^3
#
#
#
# Elastic Constant Matrix: (Units=GPa)
#
#
# Indices 1 2 3 4 5 6 
#
# 1 101.0135 21.5210 24.5304 0.0000 0.0000 0.0000
# 2 21.5210 101.0137 24.5307 0.0000 0.0000 0.0000
# 3 24.5304 24.5307 109.0918 0.0000 0.0000 0.0000
# 4 0.0000 0.0000 0.0000 30.4728 0.0000 0.0000
# 5 0.0000 0.0000 0.0000 0.0000 30.4728 0.0000
# 6 0.0000 0.0000 0.0000 0.0000 0.0000 10.6112
#
#
#
# Elastic Compliance Matrix: (Units=1/GPa)
#
#
# Indices 1 2 3 4 5 6 
#
# 1 0.010774 -0.001806 -0.002017 0.000000 0.000000 0.000000
# 2 -0.001806 0.010774 -0.002017 0.000000 0.000000 0.000000
# 3 -0.002017 -0.002017 0.010074 0.000000 0.000000 0.000000
# 4 0.000000 0.000000 0.000000 0.032816 0.000000 0.000000
# 5 0.000000 0.000000 0.000000 0.000000 0.032816 0.000000
# 6 0.000000 0.000000 0.000000 0.000000 0.000000 0.094240
#
#
# Mechanical properties :
#
#
# Convention : Reuss Voigt Hill
#
# Bulk Modulus (GPa) = 50.14109 50.25370 50.19740
# Shear Modulus (GPa) = 23.82997 30.34715 27.08856
#
# Velocity S-wave (km/s) = 3.31316 3.73886 3.53243
# Velocity P-wave (km/s) = 6.14271 6.46433 6.30557
#
# Compressibility (1/GPa) = 0.01994372
#
# Stress axis : x y z
#
# Youngs Moduli (GPa) = 92.81519 92.81529 99.27010
#
# Poissons Ratio (x) = 0.16760 0.20019
# Poissons Ratio (y) = 0.16760 0.20019
# Poissons Ratio (z) = 0.18717 0.18718
#
# Static dielectric constant tensor:
#      x y z
#    x 3.723290 0.000000 0.000000 
#    y 0.000000 3.723290 0.000000 
#    z 0.000000 0.000000 4.289120 
# 
# 
# High freq. dielectric constant tensor:
#      x y z
#    x 1.839820 0.000000 0.000000 
#    y 0.000000 1.839820 0.000000 
#    z 0.000000 0.000000 1.882410 
# 
# From -- ./inp_files/4723.got.cif
#   From: 2010.03.12/outbox.cif.g09.slc.cpg/sg91_3_cif.got.tgz:4723.got - 2010.04.08 20:27:58.
