data_PCOD8304547
_publ_section_title
;
Structure prediction by ZEFSAII (Michael W. Deem and Ramdas Pophale) SiO2 
 PCOD8304547
Probable space group: P 4 21 2
;
_chemical_formula_sum "Si O2"
_cell_formula_units_Z 64
_cell_length_a 18.118731
_cell_length_b 18.118731
_cell_length_c 9.806091
_cell_angle_alpha 90.000000
_cell_angle_beta 90.000000
_cell_angle_gamma 90.000000
_cell_volume 3219.226053
_symmetry_space_group_name_H-M "P 4 21 2"
_symmetry_group_IT_number 90
_symmetry_cell_setting 'tetragonal'
loop_
_space_group_symop_operation_xyz
x,y,z
1/2-y,1/2+x,z
-x,-y,z
1/2+y,1/2-x,z
1/2+x,1/2-y,-z
1/2-x,1/2+y,-z
y,x,-z
-y,-x,-z
loop_
_atom_site_type_symbol
_atom_site_label
_atom_site_fract_x
_atom_site_fract_y
_atom_site_fract_z
Si Si1 0.195071 0.496265 0.614772
Si Si2 0.244783 0.253430 0.297316
Si Si3 0.632564 0.343721 0.845739
Si Si4 0.998689 0.379750 0.909400
Si Si5 0.344902 0.367362 0.157129
Si Si6 0.499905 0.738505 0.928380
Si Si7 0.662033 0.845281 0.496983
Si Si8 0.337399 0.500944 0.776496
O O1 0.154213 0.498702 0.759234
O O2 0.174014 0.567129 0.522814
O O3 0.173461 0.423646 0.529246
O O4 0.281962 0.495704 0.648399
O O5 0.208259 0.196588 0.191781
O O6 0.312651 0.295396 0.228599
O O7 0.282532 0.199984 0.403948
O O8 0.183356 0.311419 0.353950
O O9 0.567585 0.284356 0.830283
O O10 0.619146 0.420687 0.761002
O O11 0.632655 0.367346 0.000000
O O12 0.072669 0.425753 0.925313
O O13 0.997892 0.324925 0.038814
O O14 0.287224 0.433650 0.169268
O O15 0.425853 0.387001 0.222698
O O16 0.350666 0.350666 0.000000
O O17 0.498167 0.702206 0.077381
#
# Coordination Sequence:
#
# PCOD8304547 Si02
#       8
#     8   8   8   8   8   8   8   8
#     4  11  19  37  60  85 114 150 199 261 301 344
#     4  11  23  38  56  87 115 155 200 245 304 372
#     4  10  20  36  59  86 119 156 199 245 303 357
#     4  10  20  33  55  88 122 156 204 252 296 345
#     4  10  20  36  59  86 119 156 199 245 303 357
#     4   9  21  32  55  88 120 158 190 232 308 355
#     4  11  24  37  60  85 114 153 202 251 308 359
#     4   9  18  34  56  86 114 148 193 254 291 342
#
# _framework density 19.880552999999999
#
# number of rings (size 3 to 8) (size 9 to 14) (size 15 to 20)
#    0.000    1.875    3.750    0.375    1.750    1.750 
#    0.000    2.500    0.000    0.000    0.000    0.000 
#    0.000    0.000    0.000    0.000    0.000    0.000 
#
# Total GULP energy -792892.518423 kJ/mol
# GULP energy per Si atom -12388.945600 kJ/mol
# Density = 1.983530 g / cm^3
# Si number density = 19.880553 Si / 1000 Ang^3
#
#
#
# Elastic Constant Matrix: (Units=GPa)
#
#
# Indices 1 2 3 4 5 6 
#
# 1 107.0355 41.5108 16.3997 0.0000 0.0000 0.0000
# 2 41.5108 107.0350 16.3994 0.0000 0.0000 0.0000
# 3 16.3997 16.3994 16.7050 0.0000 0.0000 0.0000
# 4 0.0000 0.0000 0.0000 13.2071 0.0000 0.0000
# 5 0.0000 0.0000 0.0000 0.0000 13.2071 0.0000
# 6 0.0000 0.0000 0.0000 0.0000 0.0000 40.0248
#
#
#
# Elastic Compliance Matrix: (Units=1/GPa)
#
#
# Indices 1 2 3 4 5 6 
#
# 1 0.011928 -0.003333 -0.008438 0.000000 0.000000 0.000000
# 2 -0.003333 0.011928 -0.008438 0.000000 0.000000 0.000000
# 3 -0.008438 -0.008438 0.076430 0.000000 0.000000 0.000000
# 4 0.000000 0.000000 0.000000 0.075717 0.000000 0.000000
# 5 0.000000 0.000000 0.000000 0.000000 0.075717 0.000000
# 6 0.000000 0.000000 0.000000 0.000000 0.000000 0.024985
#
#
# Mechanical properties :
#
#
# Convention : Reuss Voigt Hill
#
# Bulk Modulus (GPa) = 16.70336 42.15503 29.42919
# Shear Modulus (GPa) = 14.83335 23.71884 19.27610
#
# Velocity S-wave (km/s) = 2.73449 3.45783 3.11721
# Velocity P-wave (km/s) = 4.28836 6.09855 5.27173
#
# Compressibility (1/GPa) = 0.05986820
#
# Stress axis : x y z
#
# Youngs Moduli (GPa) = 83.83464 83.83470 13.08393
#
# Poissons Ratio (x) = 0.27944 0.11040
# Poissons Ratio (y) = 0.27944 0.11040
# Poissons Ratio (z) = 0.70740 0.70737
#
# Static dielectric constant tensor:
#      x y z
#    x 3.970130 0.000000 0.000000 
#    y 0.000000 3.970130 0.000000 
#    z 0.000000 0.000000 3.280160 
# 
# 
# High freq. dielectric constant tensor:
#      x y z
#    x 1.780190 0.000000 0.000000 
#    y 0.000000 1.780190 0.000000 
#    z 0.000000 0.000000 1.741000 
# 
# From -- ./inp_files/2343.got.cif
#   From: 2010.03.12/outbox.cif.g09.slc.cpg/sg90_2_cif.got.tgz:2343.got - 2010.04.08 20:26:03.
