data_PCOD8304125
_publ_section_title
;
Structure prediction by ZEFSAII (Michael W. Deem and Ramdas Pophale) SiO2 
 PCOD8304125
Probable space group: I 4/M
;
_chemical_formula_sum "Si O2"
_cell_formula_units_Z 72
_cell_length_a 10.948394
_cell_length_b 10.948394
_cell_length_c 27.843636
_cell_angle_alpha 90.000000
_cell_angle_beta 90.000000
_cell_angle_gamma 90.000000
_cell_volume 3337.542338
_symmetry_space_group_name_H-M "I 4/M"
_symmetry_group_IT_number 87
_symmetry_cell_setting 'tetragonal'
loop_
_space_group_symop_operation_xyz
x,y,z
-y,x,z
-x,-y,z
y,-x,z
-x,-y,-z
y,-x,-z
x,y,-z
-y,x,-z
1/2+x,1/2+y,1/2+z
1/2-y,1/2+x,1/2+z
1/2-x,1/2-y,1/2+z
1/2+y,1/2-x,1/2+z
1/2-x,1/2-y,1/2-z
1/2+y,1/2-x,1/2-z
1/2+x,1/2+y,1/2-z
1/2-y,1/2+x,1/2-z
loop_
_atom_site_type_symbol
_atom_site_label
_atom_site_fract_x
_atom_site_fract_y
_atom_site_fract_z
Si Si1 0.303410 0.447049 0.500000
Si Si2 0.025650 0.306116 0.255785
Si Si3 0.571684 0.119269 0.586737
Si Si4 0.005080 0.193855 0.842049
Si Si5 0.053788 0.193230 0.357577
O O1 0.414701 0.351856 0.500000
O O2 0.221391 0.422257 0.546229
O O3 0.126060 0.398413 0.234468
O O4 0.074806 0.246864 0.304498
O O5 0.006456 0.203641 0.215494
O O6 0.497761 0.174167 0.632503
O O7 0.707785 0.081846 0.601747
O O8 0.500000 0.000000 0.568308
O O9 0.122945 0.117473 0.858602
O O10 0.915935 0.148911 0.364441
#
# Coordination Sequence:
#
# PCOD8304125 Si02
#       5
#     8  16  16  16  16
#     4  11  27  52  82 111 138 172 222 295 361 410
#     4  11  22  37  61  97 137 187 240 292 342 403
#     4  12  26  45  74 106 139 179 228 282 353 417
#     4  11  24  40  65  99 135 183 238 293 345 401
#     4  11  26  44  65  98 143 192 235 283 344 416
#
# _framework density 21.572759000000001
#
# number of rings (size 3 to 8) (size 9 to 14) (size 15 to 20)
#    0.000    0.778    2.222    4.333    9.333    5.333 
#    0.000    0.000    0.000    1.333    0.000    0.000 
#    0.000    0.000    0.000    0.000    0.000    0.000 
#
# Total GULP energy -446630.482106 kJ/mol
# GULP energy per Si atom -12406.402281 kJ/mol
# Density = 2.152366 g / cm^3
# Si number density = 21.572759 Si / 1000 Ang^3
#
#
#
# Elastic Constant Matrix: (Units=GPa)
#
#
# Indices 1 2 3 4 5 6 
#
# 1 126.2145 56.0054 59.0110 0.0000 0.0000 -2.8865
# 2 56.0054 126.2145 59.0110 0.0000 0.0000 2.8865
# 3 59.0110 59.0110 116.4804 0.0000 0.0000 0.0000
# 4 0.0000 0.0000 0.0000 36.2483 0.0000 0.0000
# 5 0.0000 0.0000 0.0000 0.0000 36.2483 0.0000
# 6 -2.8865 2.8865 0.0000 0.0000 0.0000 23.5353
#
#
#
# Elastic Compliance Matrix: (Units=1/GPa)
#
#
# Indices 1 2 3 4 5 6 
#
# 1 0.011278 -0.003110 -0.004138 0.000000 0.000000 0.001765
# 2 -0.003110 0.011278 -0.004138 0.000000 0.000000 -0.001765
# 3 -0.004138 -0.004138 0.012778 0.000000 0.000000 0.000000
# 4 0.000000 0.000000 0.000000 0.027587 0.000000 0.000000
# 5 0.000000 0.000000 0.000000 0.000000 0.027587 0.000000
# 6 0.001765 -0.001765 0.000000 0.000000 0.000000 0.042922
#
#
# Mechanical properties :
#
#
# Convention : Reuss Voigt Hill
#
# Bulk Modulus (GPa) = 79.60651 79.66268 79.63460
# Shear Modulus (GPa) = 31.17376 32.19853 31.68614
#
# Velocity S-wave (km/s) = 3.80551 3.86755 3.83665
# Velocity P-wave (km/s) = 7.50271 7.54662 7.52470
#
# Compressibility (1/GPa) = 0.01256179
#
# Stress axis : x y z
#
# Youngs Moduli (GPa) = 88.66690 88.66690 78.25963
#
# Poissons Ratio (x) = 0.27576 0.32384
# Poissons Ratio (y) = 0.27576 0.32384
# Poissons Ratio (z) = 0.36691 0.36691
#
# Static dielectric constant tensor:
#      x y z
#    x 4.009770 0.000000 0.000000 
#    y 0.000000 4.009770 0.000000 
#    z 0.000000 0.000000 3.750910 
# 
# 
# High freq. dielectric constant tensor:
#      x y z
#    x 1.859720 0.000000 0.000000 
#    y 0.000000 1.859720 0.000000 
#    z 0.000000 0.000000 1.832090 
# 
# From -- ./inp_files/6162.got.cif
#   From: 2010.03.12/outbox.cif.g09.slc.cpg/sg87_4_cif.got.tgz:6162.got - 2010.04.08 20:16:13.
