data_PCOD8304628
_publ_section_title
;
Structure prediction by ZEFSAII (Michael W. Deem and Ramdas Pophale) SiO2 
 PCOD8304628
Probable space group: P 4 21 2
;
_chemical_formula_sum "Si O2"
_cell_formula_units_Z 28
_cell_length_a 13.244469
_cell_length_b 13.244469
_cell_length_c 7.698537
_cell_angle_alpha 90.000000
_cell_angle_beta 90.000000
_cell_angle_gamma 90.000000
_cell_volume 1350.446251
_symmetry_space_group_name_H-M "P 4 21 2"
_symmetry_group_IT_number 90
_symmetry_cell_setting 'tetragonal'
loop_
_space_group_symop_operation_xyz
x,y,z
1/2-y,1/2+x,z
-x,-y,z
1/2+y,1/2-x,z
1/2+x,1/2-y,-z
1/2-x,1/2+y,-z
y,x,-z
-y,-x,-z
loop_
_atom_site_type_symbol
_atom_site_label
_atom_site_fract_x
_atom_site_fract_y
_atom_site_fract_z
Si Si1 0.262069 0.107709 0.463516
Si Si2 0.102001 0.370230 0.172465
Si Si3 0.208404 0.791597 0.000000
Si Si4 0.780550 0.113028 0.344930
O O1 0.148764 0.148764 0.500000
O O2 0.336166 0.114073 0.628703
O O3 0.314951 0.183056 0.329452
O O4 0.254177 0.000719 0.372223
O O5 0.140484 0.483794 0.134080
O O6 0.173170 0.302718 0.050225
O O7 0.170462 0.865612 0.156637
O O8 0.855911 0.144090 0.500000
#
# Coordination Sequence:
#
# PCOD8304628 Si02
#       4
#     8   8   4   8
#     4  11  21  42  68  94 130 176 218 278 333 395
#     4  11  23  41  67  98 135 174 226 281 330 396
#     4  12  24  42  66  98 142 178 214 282 342 394
#     4  11  24  43  63  98 135 172 224 274 335 406
#
# _framework density 20.733886999999999
#
# number of rings (size 3 to 8) (size 9 to 14) (size 15 to 20)
#    0.000    0.857    8.571    0.000    4.000    1.143 
#    0.000    0.000    0.000    7.714    0.000    0.000 
#    0.000    0.000    0.000    0.000    0.000    0.000 
#
# Total GULP energy -347043.962247 kJ/mol
# GULP energy per Si atom -12394.427223 kJ/mol
# Density = 2.068670 g / cm^3
# Si number density = 20.733887 Si / 1000 Ang^3
#
#
#
# Elastic Constant Matrix: (Units=GPa)
#
#
# Indices 1 2 3 4 5 6 
#
# 1 78.0485 66.6652 36.2289 0.0000 0.0000 0.0000
# 2 66.6652 78.0615 36.2326 0.0000 0.0000 0.0000
# 3 36.2289 36.2326 132.3079 0.0000 0.0000 0.0000
# 4 0.0000 0.0000 0.0000 30.4196 0.0000 0.0000
# 5 0.0000 0.0000 0.0000 0.0000 30.4200 0.0000
# 6 0.0000 0.0000 0.0000 0.0000 0.0000 28.3943
#
#
#
# Elastic Compliance Matrix: (Units=1/GPa)
#
#
# Indices 1 2 3 4 5 6 
#
# 1 0.047907 -0.039895 -0.002193 0.000000 0.000000 0.000000
# 2 -0.039895 0.047899 -0.002193 0.000000 0.000000 0.000000
# 3 -0.002193 -0.002193 0.008759 0.000000 0.000000 0.000000
# 4 0.000000 0.000000 0.000000 0.032873 0.000000 0.000000
# 5 0.000000 0.000000 0.000000 0.000000 0.032873 0.000000
# 6 0.000000 0.000000 0.000000 0.000000 0.000000 0.035218
#
#
# Mechanical properties :
#
#
# Convention : Reuss Voigt Hill
#
# Bulk Modulus (GPa) = 62.48668 62.96348 62.72508
# Shear Modulus (GPa) = 16.69866 27.79953 22.24910
#
# Velocity S-wave (km/s) = 2.84100 3.66564 3.27934
# Velocity P-wave (km/s) = 6.40036 6.95336 6.68258
#
# Compressibility (1/GPa) = 0.01600341
#
# Stress axis : x y z
#
# Youngs Moduli (GPa) = 20.87394 20.87731 114.16714
#
# Poissons Ratio (x) = 0.83290 0.25033
# Poissons Ratio (y) = 0.83276 0.25037
# Poissons Ratio (z) = 0.04577 0.04578
#
# Static dielectric constant tensor:
#      x y z
#    x 3.797430 0.000000 0.000000 
#    y 0.000000 3.797440 0.000000 
#    z 0.000000 0.000000 3.795620 
# 
# 
# High freq. dielectric constant tensor:
#      x y z
#    x 1.805260 0.000000 0.000000 
#    y 0.000000 1.805260 0.000000 
#    z 0.000000 0.000000 1.817650 
# 
# From -- ./inp_files/982.got.cif
#   From: 2010.03.12/outbox.cif.g09.slc.cpg/sg90_1_cif.got.tgz:982.got - 2010.04.08 20:26:03.
