data_PCOD8304440
_publ_section_title
;
Structure prediction by ZEFSAII (Michael W. Deem and Ramdas Pophale) SiO2 
 PCOD8304440
Probable space group: I 41/A
;
_chemical_formula_sum "Si O2"
_cell_formula_units_Z 32
_cell_length_a 10.500174
_cell_length_b 10.500174
_cell_length_c 12.174917
_cell_angle_alpha 90.000000
_cell_angle_beta 90.000000
_cell_angle_gamma 90.000000
_cell_volume 1342.329087
_symmetry_space_group_name_H-M "I 41/A"
_symmetry_group_IT_number 88
_space_group.IT_coordinate_system_code '2'
_symmetry_cell_setting 'tetragonal'
loop_
_space_group_symop_operation_xyz
x,y,z
3/4-y,1/4+x,1/4+z
-x,1/2-y,z
1/4+y,1/4-x,1/4+z
-x,-y,-z
1/4+y,3/4-x,3/4-z
x,1/2+y,-z
3/4-y,3/4+x,3/4-z
1/2+x,1/2+y,1/2+z
1/4-y,3/4+x,3/4+z
1/2-x,-y,1/2+z
3/4+y,3/4-x,3/4+z
1/2-x,1/2-y,1/2-z
3/4+y,1/4-x,1/4-z
1/2+x,y,1/2-z
1/4-y,1/4+x,1/4-z
loop_
_atom_site_type_symbol
_atom_site_label
_atom_site_fract_x
_atom_site_fract_y
_atom_site_fract_z
Si Si1 0.169062 0.688088 0.430727
Si Si2 0.451146 0.614484 0.425346
O O1 0.161578 0.805303 0.344744
O O2 0.298763 0.610481 0.421216
O O3 0.154625 0.750141 0.551492
O O4 0.500000 0.750000 0.472980
O O5 0.500000 0.500000 0.500000
#
# Coordination Sequence:
#
# PCOD8304440 Si02
#       2
#    16  16
#     4  11  26  51  80 110 155 223 274 327 413 509
#     4  12  30  46  79 120 166 212 277 350 419 490
#
# _framework density 23.839162000000002
#
# number of rings (size 3 to 8) (size 9 to 14) (size 15 to 20)
#    0.000    0.500    5.000    1.500   14.000    0.000 
#    0.000    0.000    0.000    0.000    0.000    0.000 
#    0.000    0.000    0.000    0.000    0.000    0.000 
#
# Total GULP energy -198473.650155 kJ/mol
# GULP energy per Si atom -12404.603135 kJ/mol
# Density = 2.378490 g / cm^3
# Si number density = 23.839162 Si / 1000 Ang^3
#
#
#
# Elastic Constant Matrix: (Units=GPa)
#
#
# Indices 1 2 3 4 5 6 
#
# 1 170.7144 51.6208 57.4063 0.0000 0.0000 -11.2237
# 2 51.6208 170.7144 57.4063 0.0000 0.0000 11.2237
# 3 57.4063 57.4063 162.3312 0.0000 0.0000 0.0000
# 4 0.0000 0.0000 0.0000 42.6733 0.0000 0.0000
# 5 0.0000 0.0000 0.0000 0.0000 42.6734 0.0000
# 6 -11.2237 11.2237 0.0000 0.0000 0.0000 43.7610
#
#
#
# Elastic Compliance Matrix: (Units=1/GPa)
#
#
# Indices 1 2 3 4 5 6 
#
# 1 0.007163 -0.001660 -0.001946 0.000000 0.000000 0.002263
# 2 -0.001660 0.007163 -0.001946 0.000000 0.000000 -0.002263
# 3 -0.001946 -0.001946 0.007537 0.000000 0.000000 0.000000
# 4 0.000000 0.000000 0.000000 0.023434 0.000000 0.000000
# 5 0.000000 0.000000 0.000000 0.000000 0.023434 0.000000
# 6 0.002263 -0.002263 0.000000 0.000000 0.000000 0.024012
#
#
# Mechanical properties :
#
#
# Convention : Reuss Voigt Hill
#
# Bulk Modulus (GPa) = 92.95384 92.95856 92.95620
# Shear Modulus (GPa) = 46.54078 48.30998 47.42538
#
# Velocity S-wave (km/s) = 4.42326 4.50655 4.46510
# Velocity P-wave (km/s) = 8.07240 8.13371 8.10312
#
# Compressibility (1/GPa) = 0.01075803
#
# Stress axis : x y z
#
# Youngs Moduli (GPa) = 139.60760 139.60761 132.68694
#
# Poissons Ratio (x) = 0.23180 0.25820
# Poissons Ratio (y) = 0.23180 0.25820
# Poissons Ratio (z) = 0.27166 0.27166
#
# Static dielectric constant tensor:
#      x y z
#    x 4.183390 0.000000 0.000000 
#    y 0.000000 4.183390 0.000000 
#    z 0.000000 0.000000 4.482080 
# 
# 
# High freq. dielectric constant tensor:
#      x y z
#    x 1.945070 0.000000 0.000000 
#    y 0.000000 1.945070 0.000000 
#    z 0.000000 0.000000 1.956880 
# 
# From -- ./inp_files/1936.got.cif
#   From: 2010.03.12/outbox.cif.g09.slc.cpg/sg88_1_cif.got.tgz:1936.got - 2010.04.08 20:20:55.
