data_PCOD8304516
_publ_section_title
;
Structure prediction by ZEFSAII (Michael W. Deem and Ramdas Pophale) SiO2 
 PCOD8304516
Probable space group: P 4 2 2
;
_chemical_formula_sum "Si O2"
_cell_formula_units_Z 48
_cell_length_a 8.865883
_cell_length_b 8.865883
_cell_length_c 29.359607
_cell_angle_alpha 90.000000
_cell_angle_beta 90.000000
_cell_angle_gamma 90.000000
_cell_volume 2307.779066
_symmetry_space_group_name_H-M "P 4 2 2"
_symmetry_group_IT_number 89
_symmetry_cell_setting 'tetragonal'
loop_
_space_group_symop_operation_xyz
x,y,z
-y,x,z
-x,-y,z
y,-x,z
x,-y,-z
-x,y,-z
y,x,-z
-y,-x,-z
loop_
_atom_site_type_symbol
_atom_site_label
_atom_site_fract_x
_atom_site_fract_y
_atom_site_fract_z
Si Si1 0.339845 0.310674 0.133169
Si Si2 0.178967 0.831131 0.947617
Si Si3 0.776116 0.112449 0.619683
Si Si4 0.287714 0.367902 0.700824
Si Si5 0.341123 0.138822 0.477958
Si Si6 0.799876 0.148970 0.783862
O O1 0.517389 0.290467 0.141762
O O2 0.294068 0.268007 0.081868
O O3 0.250890 0.196084 0.165836
O O4 0.006133 0.790547 0.936519
O O5 0.209628 0.790373 0.000000
O O6 0.687268 0.168067 0.663609
O O7 0.670926 0.149430 0.576407
O O8 0.933827 0.200099 0.619648
O O9 0.452365 0.294996 0.695530
O O10 0.225647 0.318024 0.749638
O O11 0.500000 0.111847 0.500000
O O12 0.294163 0.294163 0.500000
O O13 0.242004 0.000000 0.500000
O O14 0.969639 0.207836 0.776342
#
# Coordination Sequence:
#
# PCOD8304516 Si02
#       6
#     8   8   8   8   8   8
#     4  11  24  39  58  88 127 166 207 257 314 375
#     4   9  19  37  60  87 120 161 212 266 316 371
#     4  11  24  42  67  95 126 164 210 257 302 360
#     4  11  26  44  65  95 131 165 201 250 307 368
#     4  11  24  41  64  94 126 164 206 252 305 359
#     4  11  24  43  67  95 123 157 207 259 309 368
#
# _framework density 20.799218
#
# number of rings (size 3 to 8) (size 9 to 14) (size 15 to 20)
#    0.000    1.333    1.667    3.500    2.333   11.667 
#    0.000    2.500    0.000    0.000    0.000    0.000 
#    0.000    0.000    0.000    0.000    0.000    0.000 
#
# Total GULP energy -595016.257634 kJ/mol
# GULP energy per Si atom -12396.172034 kJ/mol
# Density = 2.075188 g / cm^3
# Si number density = 20.799218 Si / 1000 Ang^3
#
#
#
# Elastic Constant Matrix: (Units=GPa)
#
#
# Indices 1 2 3 4 5 6 
#
# 1 73.7720 41.0160 33.9096 0.0000 0.0000 0.0000
# 2 41.0160 73.7721 33.9096 0.0000 0.0000 0.0000
# 3 33.9096 33.9096 120.5142 0.0000 0.0000 0.0000
# 4 0.0000 0.0000 0.0000 40.9287 0.0000 0.0000
# 5 0.0000 0.0000 0.0000 0.0000 40.9286 0.0000
# 6 0.0000 0.0000 0.0000 0.0000 0.0000 29.8322
#
#
#
# Elastic Compliance Matrix: (Units=1/GPa)
#
#
# Indices 1 2 3 4 5 6 
#
# 1 0.020489 -0.010040 -0.002940 0.000000 0.000000 0.000000
# 2 -0.010040 0.020489 -0.002940 0.000000 0.000000 0.000000
# 3 -0.002940 -0.002940 0.009952 0.000000 0.000000 0.000000
# 4 0.000000 0.000000 0.000000 0.024433 0.000000 0.000000
# 5 0.000000 0.000000 0.000000 0.000000 0.024433 0.000000
# 6 0.000000 0.000000 0.000000 0.000000 0.000000 0.033521
#
#
# Mechanical properties :
#
#
# Convention : Reuss Voigt Hill
#
# Bulk Modulus (GPa) = 52.38424 53.96982 53.17703
# Shear Modulus (GPa) = 29.15126 32.95278 31.05202
#
# Velocity S-wave (km/s) = 3.74780 3.98468 3.86805
# Velocity P-wave (km/s) = 6.63086 6.86837 6.75066
#
# Compressibility (1/GPa) = 0.01908971
#
# Stress axis : x y z
#
# Youngs Moduli (GPa) = 48.80735 48.80740 100.47970
#
# Poissons Ratio (x) = 0.49003 0.29541
# Poissons Ratio (y) = 0.49002 0.29541
# Poissons Ratio (z) = 0.14349 0.14349
#
# Static dielectric constant tensor:
#      x y z
#    x 3.783380 0.000000 0.000000 
#    y 0.000000 3.783390 0.000000 
#    z 0.000000 0.000000 3.783600 
# 
# 
# High freq. dielectric constant tensor:
#      x y z
#    x 1.819340 0.000000 0.000000 
#    y 0.000000 1.819340 0.000000 
#    z 0.000000 0.000000 1.824110 
# 
# From -- ./inp_files/2960.got.cif
#   From: 2010.03.12/outbox.cif.g09.slc.cpg/sg89_2_cif.got.tgz:2960.got - 2010.04.08 20:24:03.
