data_PCOD8304387
_publ_section_title
;
Structure prediction by ZEFSAII (Michael W. Deem and Ramdas Pophale) SiO2 
 PCOD8304387
Probable space group: I 41/A
;
_chemical_formula_sum "Si O2"
_cell_formula_units_Z 128
_cell_length_a 23.383845
_cell_length_b 23.383845
_cell_length_c 11.160767
_cell_angle_alpha 90.000000
_cell_angle_beta 90.000000
_cell_angle_gamma 90.000000
_cell_volume 6102.754349
_symmetry_space_group_name_H-M "I 41/A"
_symmetry_group_IT_number 88
_space_group.IT_coordinate_system_code '2'
_symmetry_cell_setting 'tetragonal'
loop_
_space_group_symop_operation_xyz
x,y,z
3/4-y,1/4+x,1/4+z
-x,1/2-y,z
1/4+y,1/4-x,1/4+z
-x,-y,-z
1/4+y,3/4-x,3/4-z
x,1/2+y,-z
3/4-y,3/4+x,3/4-z
1/2+x,1/2+y,1/2+z
1/4-y,3/4+x,3/4+z
1/2-x,-y,1/2+z
3/4+y,3/4-x,3/4+z
1/2-x,1/2-y,1/2-z
3/4+y,1/4-x,1/4-z
1/2+x,y,1/2-z
1/4-y,1/4+x,1/4-z
loop_
_atom_site_type_symbol
_atom_site_label
_atom_site_fract_x
_atom_site_fract_y
_atom_site_fract_z
Si Si1 0.591643 0.434683 0.620369
Si Si2 0.188814 0.597097 0.863652
Si Si3 0.395483 0.131215 0.169920
Si Si4 0.485264 0.659245 0.471023
Si Si5 0.168361 0.554229 0.252533
Si Si6 0.210362 0.899001 0.235256
Si Si7 0.009330 0.139886 0.240297
Si Si8 0.289049 0.157631 0.506945
O O1 0.602592 0.450041 0.481723
O O2 0.548607 0.381806 0.621049
O O3 0.649554 0.424994 0.696078
O O4 0.560479 0.488159 0.686285
O O5 0.251133 0.582403 0.912733
O O6 0.158170 0.544453 0.793188
O O7 0.144972 0.612821 0.967871
O O8 0.404651 0.199490 0.179964
O O9 0.361386 0.110691 0.052617
O O10 0.462033 0.110940 0.170924
O O11 0.452934 0.721024 0.462920
O O12 0.479281 0.643128 0.610705
O O13 0.132815 0.540990 0.373923
O O14 0.234756 0.560691 0.286934
O O15 0.221764 0.843713 0.150376
O O16 0.064402 0.100059 0.232101
#
# Coordination Sequence:
#
# PCOD8304387 Si02
#       8
#    16  16  16  16  16  16  16  16
#     4  11  23  39  67 100 142 175 223 279 350 414
#     4  11  22  39  64 103 139 168 217 285 346 407
#     4  12  25  42  65 106 132 178 225 286 349 403
#     4  12  22  41  69 103 139 173 223 287 352 413
#     4  12  26  43  67  97 139 182 236 276 340 415
#     4  11  24  43  67  91 134 191 231 273 334 414
#     4  12  22  42  69 103 136 176 224 284 350 416
#     4  11  23  41  66 101 137 179 228 277 349 408
#
# _framework density 20.974136000000001
#
# number of rings (size 3 to 8) (size 9 to 14) (size 15 to 20)
#    0.000    0.500    8.750    1.125    1.750    1.500 
#    0.000    1.875    0.000    0.000    3.250    0.000 
#    0.000    0.000    0.000    0.000    0.000    0.000 
#
# Total GULP energy -792910.923596 kJ/mol
# GULP energy per Si atom -12389.233181 kJ/mol
# Density = 2.092640 g / cm^3
# Si number density = 20.974136 Si / 1000 Ang^3
#
#
#
# Elastic Constant Matrix: (Units=GPa)
#
#
# Indices 1 2 3 4 5 6 
#
# 1 79.3705 26.1071 18.7838 0.0000 0.0000 4.2529
# 2 26.1071 79.3705 18.7838 0.0000 0.0000 -4.2529
# 3 18.7838 18.7838 97.6887 0.0000 0.0000 0.0000
# 4 0.0000 0.0000 0.0000 32.8082 0.0000 0.0000
# 5 0.0000 0.0000 0.0000 0.0000 32.8082 0.0000
# 6 4.2529 -4.2529 0.0000 0.0000 0.0000 22.8742
#
#
#
# Elastic Compliance Matrix: (Units=1/GPa)
#
#
# Indices 1 2 3 4 5 6 
#
# 1 0.014763 -0.004586 -0.001957 0.000000 0.000000 -0.003598
# 2 -0.004586 0.014763 -0.001957 0.000000 0.000000 0.003598
# 3 -0.001957 -0.001957 0.010989 0.000000 0.000000 0.000000
# 4 0.000000 0.000000 0.000000 0.030480 0.000000 0.000000
# 5 0.000000 0.000000 0.000000 0.000000 0.030480 0.000000
# 6 -0.003598 0.003598 0.000000 0.000000 0.000000 0.045055
#
#
# Mechanical properties :
#
#
# Convention : Reuss Voigt Hill
#
# Bulk Modulus (GPa) = 42.52312 42.64213 42.58262
# Shear Modulus (GPa) = 29.17668 30.54846 29.86257
#
# Velocity S-wave (km/s) = 3.73376 3.82053 3.77740
# Velocity P-wave (km/s) = 6.23747 6.31165 6.27467
#
# Compressibility (1/GPa) = 0.02351662
#
# Stress axis : x y z
#
# Youngs Moduli (GPa) = 67.73506 67.73506 90.99853
#
# Poissons Ratio (x) = 0.31061 0.17808
# Poissons Ratio (y) = 0.31061 0.17808
# Poissons Ratio (z) = 0.13256 0.13256
#
# Static dielectric constant tensor:
#      x y z
#    x 3.795490 0.000000 0.000000 
#    y 0.000000 3.795490 0.000000 
#    z 0.000000 0.000000 3.891540 
# 
# 
# High freq. dielectric constant tensor:
#      x y z
#    x 1.817920 0.000000 0.000000 
#    y 0.000000 1.817920 0.000000 
#    z 0.000000 0.000000 1.807640 
# 
# From -- ./inp_files/2771.got.cif
#   From: 2010.03.12/outbox.cif.g09.slc.cpg/sg88_2_cif.got.tgz:2771.got - 2010.04.08 20:20:55.
