data_PCOD8304162
_publ_section_title
;
Structure prediction by ZEFSAII (Michael W. Deem and Ramdas Pophale) SiO2 
 PCOD8304162
Probable space group: I 4/M
;
_chemical_formula_sum "Si O2"
_cell_formula_units_Z 40
_cell_length_a 11.649108
_cell_length_b 11.649108
_cell_length_c 12.332288
_cell_angle_alpha 90.000000
_cell_angle_beta 90.000000
_cell_angle_gamma 90.000000
_cell_volume 1673.512659
_symmetry_space_group_name_H-M "I 4/M"
_symmetry_group_IT_number 87
_symmetry_cell_setting 'tetragonal'
loop_
_space_group_symop_operation_xyz
x,y,z
-y,x,z
-x,-y,z
y,-x,z
-x,-y,-z
y,-x,-z
x,y,-z
-y,x,-z
1/2+x,1/2+y,1/2+z
1/2-y,1/2+x,1/2+z
1/2-x,1/2-y,1/2+z
1/2+y,1/2-x,1/2+z
1/2-x,1/2-y,1/2-z
1/2+y,1/2-x,1/2-z
1/2+x,1/2+y,1/2-z
1/2-y,1/2+x,1/2-z
loop_
_atom_site_type_symbol
_atom_site_label
_atom_site_fract_x
_atom_site_fract_y
_atom_site_fract_z
Si Si1 0.026417 0.192004 0.000000
Si Si2 0.165649 0.564161 0.281617
Si Si3 0.839360 0.097273 0.619038
O O1 0.036855 0.276647 0.102936
O O2 0.903255 0.127666 0.000000
O O3 0.137729 0.450351 0.209423
O O4 0.252718 0.641772 0.210300
O O5 0.791040 0.128047 0.500000
O O6 0.846618 0.961382 0.635730
#
# Coordination Sequence:
#
# PCOD8304162 Si02
#       3
#     8  16  16
#     4  11  26  47  70 100 136 173 222 281 332 388
#     4  11  26  42  64  94 137 174 216 268 330 392
#     4   9  19  37  62  91 122 160 213 270 318 382
#
# _framework density 23.901817999999999
#
# number of rings (size 3 to 8) (size 9 to 14) (size 15 to 20)
#    0.000    1.800    0.000    3.600    5.600   11.200 
#    0.000    0.000    0.000    0.000    0.000    0.000 
#    0.000    0.000    0.000    0.000    0.000    0.000 
#
# Total GULP energy -247826.078158 kJ/mol
# GULP energy per Si atom -12391.303908 kJ/mol
# Density = 2.384742 g / cm^3
# Si number density = 23.901818 Si / 1000 Ang^3
#
#
#
# Elastic Constant Matrix: (Units=GPa)
#
#
# Indices 1 2 3 4 5 6 
#
# 1 102.9057 -4.7249 49.8807 0.0000 0.0000 4.2987
# 2 -4.7249 102.9057 49.8807 0.0000 0.0000 -4.2987
# 3 49.8807 49.8807 133.8673 0.0000 0.0000 0.0000
# 4 0.0000 0.0000 0.0000 26.5899 0.0000 0.0000
# 5 0.0000 0.0000 0.0000 0.0000 26.5899 0.0000
# 6 4.2987 -4.2987 0.0000 0.0000 0.0000 3.1718
#
#
#
# Elastic Compliance Matrix: (Units=1/GPa)
#
#
# Indices 1 2 3 4 5 6 
#
# 1 0.013405 0.002986 -0.006108 0.000000 0.000000 -0.014121
# 2 0.002986 0.013405 -0.006108 0.000000 0.000000 0.014121
# 3 -0.006108 -0.006108 0.012022 0.000000 0.000000 0.000000
# 4 0.000000 0.000000 0.000000 0.037608 0.000000 0.000000
# 5 0.000000 0.000000 0.000000 0.000000 0.037608 0.000000
# 6 -0.014121 0.014121 0.000000 0.000000 0.000000 0.353552
#
#
# Mechanical properties :
#
#
# Convention : Reuss Voigt Hill
#
# Bulk Modulus (GPa) = 49.08289 58.86131 53.97210
# Shear Modulus (GPa) = 10.14508 27.57979 18.86244
#
# Velocity S-wave (km/s) = 2.06245 3.40056 2.81225
# Velocity P-wave (km/s) = 5.12361 6.33231 5.75976
#
# Compressibility (1/GPa) = 0.02037370
#
# Stress axis : x y z
#
# Youngs Moduli (GPa) = 74.59854 74.59854 83.18347
#
# Poissons Ratio (x) = -0.22276 0.50805
# Poissons Ratio (y) = -0.22276 0.50805
# Poissons Ratio (z) = 0.45562 0.45562
#
# Static dielectric constant tensor:
#      x y z
#    x 4.408000 0.000000 0.000000 
#    y 0.000000 4.408000 0.000000 
#    z 0.000000 0.000000 4.289280 
# 
# 
# High freq. dielectric constant tensor:
#      x y z
#    x 1.955680 0.000000 0.000000 
#    y 0.000000 1.955680 0.000000 
#    z 0.000000 0.000000 1.948710 
# 
# From -- ./inp_files/1973.got.cif
#   From: 2010.03.12/outbox.cif.g09.slc.cpg/sg87_1_cif.got.tgz:1973.got - 2010.04.08 20:16:13.
