data_PCOD8304982
_publ_section_title
;
Structure prediction by ZEFSAII (Michael W. Deem and Ramdas Pophale) SiO2 
 PCOD8304982
Probable space group: P 41 2 2
;
_chemical_formula_sum "Si O2"
_cell_formula_units_Z 32
_cell_length_a 9.976972
_cell_length_b 9.976972
_cell_length_c 16.577434
_cell_angle_alpha 90.000000
_cell_angle_beta 90.000000
_cell_angle_gamma 90.000000
_cell_volume 1650.117288
_symmetry_space_group_name_H-M "P 41 2 2"
_symmetry_group_IT_number 91
_symmetry_cell_setting 'tetragonal'
loop_
_space_group_symop_operation_xyz
x,y,z
-y,x,1/4+z
-x,-y,1/2+z
y,-x,3/4+z
x,-y,1/2-z
-x,y,-z
y,x,3/4-z
-y,-x,1/4-z
loop_
_atom_site_type_symbol
_atom_site_label
_atom_site_fract_x
_atom_site_fract_y
_atom_site_fract_z
Si Si1 0.098477 0.638152 0.782635
Si Si2 0.629211 0.752835 0.686721
Si Si3 0.641302 0.605339 0.530174
Si Si4 0.122106 0.150062 0.281316
O O1 0.033531 0.500000 0.750000
O O2 0.115402 0.619998 0.879663
O O3 0.245547 0.662429 0.741876
O O4 0.011412 0.767099 0.760618
O O5 0.644534 0.620730 0.628281
O O6 0.498884 0.749696 0.744994
O O7 0.758665 0.767334 0.741425
O O8 0.500000 0.547554 0.500000
O O9 0.149493 0.149493 0.375000
O O10 0.103317 0.000000 0.250000
#
# Coordination Sequence:
#
# PCOD8304982 Si02
#       4
#     8   8   8   8
#     4   9  22  42  66  93 127 169 213 266 320 391
#     4  10  21  40  64  94 128 165 209 267 326 379
#     4   9  19  38  65  96 129 163 208 269 326 381
#     4  12  24  46  63  89 131 173 219 266 318 381
#
# _framework density 19.392562000000002
#
# number of rings (size 3 to 8) (size 9 to 14) (size 15 to 20)
#    1.500    0.500    2.500    0.750    0.000    5.000 
#    4.500    1.250    0.000    0.000    0.000    0.000 
#    0.000    0.000    0.000    0.000    0.000    0.000 
#
# Total GULP energy -396473.849186 kJ/mol
# GULP energy per Si atom -12389.807787 kJ/mol
# Density = 1.934842 g / cm^3
# Si number density = 19.392562 Si / 1000 Ang^3
#
#
#
# Elastic Constant Matrix: (Units=GPa)
#
#
# Indices 1 2 3 4 5 6 
#
# 1 113.2037 63.3432 49.1881 0.0000 0.0000 0.0000
# 2 63.3432 113.2037 49.1881 0.0000 0.0000 0.0000
# 3 49.1881 49.1881 125.3765 0.0000 0.0000 0.0000
# 4 0.0000 0.0000 0.0000 27.2408 0.0000 0.0000
# 5 0.0000 0.0000 0.0000 0.0000 27.2408 0.0000
# 6 0.0000 0.0000 0.0000 0.0000 0.0000 11.0264
#
#
#
# Elastic Compliance Matrix: (Units=1/GPa)
#
#
# Indices 1 2 3 4 5 6 
#
# 1 0.013652 -0.006404 -0.002844 0.000000 0.000000 0.000000
# 2 -0.006404 0.013652 -0.002844 0.000000 0.000000 0.000000
# 3 -0.002844 -0.002844 0.010207 0.000000 0.000000 0.000000
# 4 0.000000 0.000000 0.000000 0.036710 0.000000 0.000000
# 5 0.000000 0.000000 0.000000 0.000000 0.036710 0.000000
# 6 0.000000 0.000000 0.000000 0.000000 0.000000 0.090691
#
#
# Mechanical properties :
#
#
# Convention : Reuss Voigt Hill
#
# Bulk Modulus (GPa) = 75.02094 75.02473 75.02284
# Shear Modulus (GPa) = 21.71564 25.77256 23.74410
#
# Velocity S-wave (km/s) = 3.34996 3.64949 3.50293
# Velocity P-wave (km/s) = 7.33024 7.51863 7.42503
#
# Compressibility (1/GPa) = 0.01332961
#
# Stress axis : x y z
#
# Youngs Moduli (GPa) = 73.24697 73.24697 97.96770
#
# Poissons Ratio (x) = 0.46904 0.27861
# Poissons Ratio (y) = 0.46904 0.27861
# Poissons Ratio (z) = 0.20831 0.20831
#
# Static dielectric constant tensor:
#      x y z
#    x 3.376990 0.000000 0.000000 
#    y 0.000000 3.376990 0.000000 
#    z 0.000000 0.000000 3.593520 
# 
# 
# High freq. dielectric constant tensor:
#      x y z
#    x 1.742110 0.000000 0.000000 
#    y 0.000000 1.742110 0.000000 
#    z 0.000000 0.000000 1.754110 
# 
# From -- ./inp_files/5974.got.cif
#   From: 2010.03.12/outbox.cif.g09.slc.cpg/sg91_3_cif.got.tgz:5974.got - 2010.04.08 20:27:58.
