data_PCOD8304667
_publ_section_title
;
Structure prediction by ZEFSAII (Michael W. Deem and Ramdas Pophale) SiO2 
 PCOD8304667
Probable space group: P 4 21 2
;
_chemical_formula_sum "Si O2"
_cell_formula_units_Z 50
_cell_length_a 8.228252
_cell_length_b 8.228252
_cell_length_c 32.338971
_cell_angle_alpha 90.000000
_cell_angle_beta 90.000000
_cell_angle_gamma 90.000000
_cell_volume 2189.481928
_symmetry_space_group_name_H-M "P 4 21 2"
_symmetry_group_IT_number 90
_symmetry_cell_setting 'tetragonal'
loop_
_space_group_symop_operation_xyz
x,y,z
1/2-y,1/2+x,z
-x,-y,z
1/2+y,1/2-x,z
1/2+x,1/2-y,-z
1/2-x,1/2+y,-z
y,x,-z
-y,-x,-z
loop_
_atom_site_type_symbol
_atom_site_label
_atom_site_fract_x
_atom_site_fract_y
_atom_site_fract_z
Si Si1 0.410442 0.252327 0.213130
Si Si2 0.066948 0.758473 0.466209
Si Si3 0.500000 0.500000 0.000000
Si Si4 0.424971 0.254620 0.306358
Si Si5 0.259961 0.425798 0.139821
Si Si6 0.933362 0.242170 0.374161
Si Si7 0.041907 0.763312 0.927159
O O1 0.596091 0.202743 0.204585
O O2 0.395804 0.319323 0.259860
O O3 0.350499 0.396993 0.183525
O O4 0.194237 0.613472 0.472626
O O5 0.102815 0.897186 0.500000
O O6 0.088168 0.832870 0.420136
O O7 0.661551 0.517816 0.972552
O O8 0.607065 0.197837 0.313684
O O9 0.392013 0.396724 0.339377
O O10 0.198439 0.609351 0.135790
O O11 0.397961 0.402019 0.104596
O O12 0.805693 0.386452 0.368053
O O13 0.182205 0.630976 0.919718
#
# Coordination Sequence:
#
# PCOD8304667 Si02
#       7
#     8   8   2   8   8   8   8
#     4   9  19  37  59  83 115 156 200 246 298 355
#     4   9  19  35  52  72 100 134 174 224 283 346
#     4  12  24  44  68  96 128 160 204 256 300 356
#     4   9  19  35  54  79 111 146 188 238 290 347
#     4  11  24  40  60  91 129 166 207 256 306 359
#     4   9  19  35  52  72 103 141 180 226 283 348
#     4  11  24  42  66  94 125 164 205 248 303 361
#
# _framework density 22.836455000000001
#
# number of rings (size 3 to 8) (size 9 to 14) (size 15 to 20)
#    0.000    2.240    0.000    4.320    0.000    6.720 
#    0.000   11.200    0.000    0.000    0.000    0.000 
#    0.000    0.000    0.000    0.000    0.000    0.000 
#
# Total GULP energy -619766.761494 kJ/mol
# GULP energy per Si atom -12395.335230 kJ/mol
# Density = 2.278448 g / cm^3
# Si number density = 22.836455 Si / 1000 Ang^3
#
#
#
# Elastic Constant Matrix: (Units=GPa)
#
#
# Indices 1 2 3 4 5 6 
#
# 1 127.6418 -45.9692 36.5799 0.0000 0.0000 0.0000
# 2 -45.9692 127.6415 36.5842 0.0000 0.0000 0.0000
# 3 36.5799 36.5842 151.1552 0.0000 0.0000 0.0000
# 4 0.0000 0.0000 0.0000 -41.3500 0.0000 0.0000
# 5 0.0000 0.0000 0.0000 0.0000 -41.3505 0.0000
# 6 0.0000 0.0000 0.0000 0.0000 0.0000 44.2118
#
#
#
# Elastic Compliance Matrix: (Units=1/GPa)
#
#
# Indices 1 2 3 4 5 6 
#
# 1 0.010697 0.004937 -0.003783 0.000000 0.000000 0.000000
# 2 0.004937 0.010697 -0.003784 0.000000 0.000000 0.000000
# 3 -0.003783 -0.003784 0.008447 0.000000 0.000000 0.000000
# 4 0.000000 0.000000 0.000000 -0.024184 0.000000 0.000000
# 5 0.000000 0.000000 0.000000 0.000000 -0.024184 0.000000
# 6 0.000000 0.000000 0.000000 0.000000 0.000000 0.022618
#
#
# Mechanical properties :
#
#
# Convention : Reuss Voigt Hill
#
# Bulk Modulus (GPa) = 40.68390 51.20313 45.94351
# Shear Modulus (GPa) = 284.97154 17.58517 151.27836
#
# Velocity S-wave (km/s) = 11.18297 2.77798 8.14789
# Velocity P-wave (km/s) = 13.58673 5.72363 10.42495
#
# Compressibility (1/GPa) = 0.02457975
#
# Stress axis : x y z
#
# Youngs Moduli (GPa) = 93.48758 93.48566 118.38412
#
# Poissons Ratio (x) = -0.46151 0.44790
# Poissons Ratio (y) = -0.46152 0.44792
# Poissons Ratio (z) = 0.35370 0.35372
#
# Static dielectric constant tensor:
#      x y z
#    x 3.988380 0.000000 0.000000 
#    y 0.000000 3.988380 0.000000 
#    z 0.000000 0.000000 4.103140 
# 
# 
# High freq. dielectric constant tensor:
#      x y z
#    x 1.905170 0.000000 0.000000 
#    y 0.000000 1.905170 0.000000 
#    z 0.000000 0.000000 1.902680 
# 
# From -- ./inp_files/3053.got.cif
#   From: 2010.03.12/outbox.cif.g09.slc.cpg/sg90_2_cif.got.tgz:3053.got - 2010.04.08 20:26:03.
