data_PCOD8304761
_publ_section_title
;
Structure prediction by ZEFSAII (Michael W. Deem and Ramdas Pophale) SiO2 
 PCOD8304761
Probable space group: P 41 2 2
;
_chemical_formula_sum "Si O2"
_cell_formula_units_Z 44
_cell_length_a 11.792173
_cell_length_b 11.792173
_cell_length_c 17.459462
_cell_angle_alpha 90.000000
_cell_angle_beta 90.000000
_cell_angle_gamma 90.000000
_cell_volume 2427.831496
_symmetry_space_group_name_H-M "P 41 2 2"
_symmetry_group_IT_number 91
_symmetry_cell_setting 'tetragonal'
loop_
_space_group_symop_operation_xyz
x,y,z
-y,x,1/4+z
-x,-y,1/2+z
y,-x,3/4+z
x,-y,1/2-z
-x,y,-z
y,x,3/4-z
-y,-x,1/4-z
loop_
_atom_site_type_symbol
_atom_site_label
_atom_site_fract_x
_atom_site_fract_y
_atom_site_fract_z
Si Si1 0.726645 0.627782 0.226750
Si Si2 0.572098 0.030146 0.928278
Si Si3 0.645003 0.012136 0.160520
Si Si4 0.383091 0.230007 0.598697
Si Si5 0.762775 0.762775 0.375000
Si Si6 0.794514 0.356906 0.676145
O O1 0.693345 0.500000 0.250000
O O2 0.857201 0.637640 0.201190
O O3 0.654383 0.668450 0.154412
O O4 0.705775 0.707343 0.299889
O O5 0.483200 0.053882 0.859389
O O6 0.662392 0.930008 0.913468
O O7 0.500000 0.981328 0.000000
O O8 0.736279 0.102805 0.127833
O O9 0.658683 0.000000 0.250000
O O10 0.670415 0.889802 0.124269
O O11 0.340201 0.251071 0.512466
O O12 0.518091 0.231922 0.604604
O O13 0.736052 0.263949 0.625000
#
# Coordination Sequence:
#
# PCOD8304761 Si02
#       6
#     8   8   8   8   4   8
#     4  11  22  36  58  86 119 150 190 251 291 348
#     4  10  18  38  59  80 111 152 195 240 284 341
#     4  11  20  35  62  86 111 154 200 237 289 365
#     4  10  21  39  56  85 118 154 198 235 294 354
#     4  12  20  34  60  92 114 148 196 246 302 340
#     4  10  20  38  62  81 113 160 194 237 288 355
#
# _framework density 18.123166999999999
#
# number of rings (size 3 to 8) (size 9 to 14) (size 15 to 20)
#    0.000    1.455    9.091    0.000    0.000    4.364 
#    4.909    0.000    2.000    0.000    0.000    0.000 
#    0.000    0.000    0.000    0.000    0.000    0.000 
#
# Total GULP energy -545528.260916 kJ/mol
# GULP energy per Si atom -12398.369566 kJ/mol
# Density = 1.808192 g / cm^3
# Si number density = 18.123167 Si / 1000 Ang^3
#
#
#
# Elastic Constant Matrix: (Units=GPa)
#
#
# Indices 1 2 3 4 5 6 
#
# 1 86.3676 47.8406 46.5723 0.0000 0.0000 0.0000
# 2 47.8406 86.3677 46.5732 0.0000 0.0000 0.0000
# 3 46.5723 46.5732 108.9995 0.0000 0.0000 0.0000
# 4 0.0000 0.0000 0.0000 30.6409 0.0000 0.0000
# 5 0.0000 0.0000 0.0000 0.0000 30.6409 0.0000
# 6 0.0000 0.0000 0.0000 0.0000 0.0000 34.3341
#
#
#
# Elastic Compliance Matrix: (Units=1/GPa)
#
#
# Indices 1 2 3 4 5 6 
#
# 1 0.018274 -0.007682 -0.004526 0.000000 0.000000 0.000000
# 2 -0.007682 0.018274 -0.004526 0.000000 0.000000 0.000000
# 3 -0.004526 -0.004526 0.013042 0.000000 0.000000 0.000000
# 4 0.000000 0.000000 0.000000 0.032636 0.000000 0.000000
# 5 0.000000 0.000000 0.000000 0.000000 0.032636 0.000000
# 6 0.000000 0.000000 0.000000 0.000000 0.000000 0.029126
#
#
# Mechanical properties :
#
#
# Convention : Reuss Voigt Hill
#
# Bulk Modulus (GPa) = 62.02283 62.63414 62.32848
# Shear Modulus (GPa) = 27.34800 28.50642 27.92721
#
# Velocity S-wave (km/s) = 3.88881 3.97032 3.92977
# Velocity P-wave (km/s) = 7.37977 7.46011 7.42005
#
# Compressibility (1/GPa) = 0.01612310
#
# Stress axis : x y z
#
# Youngs Moduli (GPa) = 54.72287 54.72237 76.67629
#
# Poissons Ratio (x) = 0.42037 0.34701
# Poissons Ratio (y) = 0.42037 0.34703
# Poissons Ratio (z) = 0.24766 0.24767
#
# Static dielectric constant tensor:
#      x y z
#    x 3.285530 0.000000 0.000000 
#    y 0.000000 3.285530 0.000000 
#    z 0.000000 0.000000 3.598550 
# 
# 
# High freq. dielectric constant tensor:
#      x y z
#    x 1.686270 0.000000 0.000000 
#    y 0.000000 1.686270 0.000000 
#    z 0.000000 0.000000 1.718480 
# 
# From -- ./inp_files/5492.got.cif
#   From: 2010.03.12/outbox.cif.g09.slc.cpg/sg91_3_cif.got.tgz:5492.got - 2010.04.08 20:27:58.
