data_PCOD8304299
_publ_section_title
;
Structure prediction by ZEFSAII (Michael W. Deem and Ramdas Pophale) SiO2 
 PCOD8304299
Probable space group: I 41/A
;
_chemical_formula_sum "Si O2"
_cell_formula_units_Z 112
_cell_length_a 17.047322
_cell_length_b 17.047322
_cell_length_c 19.071680
_cell_angle_alpha 90.000000
_cell_angle_beta 90.000000
_cell_angle_gamma 90.000000
_cell_volume 5542.443570
_symmetry_space_group_name_H-M "I 41/A"
_symmetry_group_IT_number 88
_space_group.IT_coordinate_system_code '2'
_symmetry_cell_setting 'tetragonal'
loop_
_space_group_symop_operation_xyz
x,y,z
3/4-y,1/4+x,1/4+z
-x,1/2-y,z
1/4+y,1/4-x,1/4+z
-x,-y,-z
1/4+y,3/4-x,3/4-z
x,1/2+y,-z
3/4-y,3/4+x,3/4-z
1/2+x,1/2+y,1/2+z
1/4-y,3/4+x,3/4+z
1/2-x,-y,1/2+z
3/4+y,3/4-x,3/4+z
1/2-x,1/2-y,1/2-z
3/4+y,1/4-x,1/4-z
1/2+x,y,1/2-z
1/4-y,1/4+x,1/4-z
loop_
_atom_site_type_symbol
_atom_site_label
_atom_site_fract_x
_atom_site_fract_y
_atom_site_fract_z
Si Si1 0.910258 0.251608 0.353928
Si Si2 0.653287 0.574675 0.433421
Si Si3 0.768364 0.715119 0.402971
Si Si4 0.743629 0.017079 0.437162
Si Si5 0.685367 0.853780 0.232961
Si Si6 0.109812 0.573751 0.640033
Si Si7 0.089326 0.239909 0.517968
O O1 0.858222 0.185300 0.315368
O O2 0.878720 0.337463 0.332650
O O3 0.904981 0.236867 0.436691
O O4 0.000000 0.250000 0.328185
O O5 0.716054 0.641974 0.422649
O O6 0.673258 0.538547 0.509625
O O7 0.663817 0.512070 0.369367
O O8 0.782424 0.714074 0.318703
O O9 0.724348 0.793048 0.431929
O O10 0.852093 0.701931 0.441060
O O11 0.820425 0.991433 0.480207
O O12 0.717288 0.943120 0.391249
O O13 0.678733 0.823216 0.312055
O O14 0.595687 0.872470 0.211953
O O15 0.000000 0.250000 0.544537
#
# Coordination Sequence:
#
# PCOD8304299 Si02
#       7
#    16  16  16  16  16  16  16
#     4  10  21  41  61  87 120 161 209 259 317 378
#     4  11  23  40  62  91 120 162 212 264 313 382
#     4  11  22  35  59  86 125 167 206 254 305 373
#     4  11  22  39  62  88 124 159 204 256 318 377
#     4  10  22  35  55  86 124 164 203 248 307 372
#     4  11  21  40  61  84 120 166 207 255 321 373
#     4  10  22  35  56  89 129 165 204 248 303 379
#
# _framework density 20.207692000000002
#
# number of rings (size 3 to 8) (size 9 to 14) (size 15 to 20)
#    0.000    1.429    4.286    1.286    2.000    0.571 
#    0.000    0.000    0.000    0.000    0.000    0.000 
#    0.000    0.000    0.000    0.000    0.000    0.000 
#
# Total GULP energy -694164.131782 kJ/mol
# GULP energy per Si atom -12395.788068 kJ/mol
# Density = 2.016170 g / cm^3
# Si number density = 20.207692 Si / 1000 Ang^3
#
#
#
# Elastic Constant Matrix: (Units=GPa)
#
#
# Indices 1 2 3 4 5 6 
#
# 1 85.4525 37.1119 26.9665 0.0000 0.0000 -0.6491
# 2 37.1119 85.4525 26.9665 0.0000 0.0000 0.6491
# 3 26.9665 26.9665 61.6939 0.0000 0.0000 0.0000
# 4 0.0000 0.0000 0.0000 25.3685 0.0000 0.0000
# 5 0.0000 0.0000 0.0000 0.0000 25.3685 0.0000
# 6 -0.6491 0.6491 0.0000 0.0000 0.0000 37.9209
#
#
#
# Elastic Compliance Matrix: (Units=1/GPa)
#
#
# Indices 1 2 3 4 5 6 
#
# 1 0.015399 -0.005297 -0.004416 0.000000 0.000000 0.000354
# 2 -0.005297 0.015399 -0.004416 0.000000 0.000000 -0.000354
# 3 -0.004416 -0.004416 0.020069 0.000000 0.000000 0.000000
# 4 0.000000 0.000000 0.000000 0.039419 0.000000 0.000000
# 5 0.000000 0.000000 0.000000 0.000000 0.039419 0.000000
# 6 0.000354 -0.000354 0.000000 0.000000 0.000000 0.026383
#
#
# Mechanical properties :
#
#
# Convention : Reuss Voigt Hill
#
# Bulk Modulus (GPa) = 44.22668 46.07654 45.15161
# Shear Modulus (GPa) = 26.05776 27.16852 26.61314
#
# Velocity S-wave (km/s) = 3.59485 3.67067 3.63296
# Velocity P-wave (km/s) = 6.25813 6.38875 6.32378
#
# Compressibility (1/GPa) = 0.02261078
#
# Stress axis : x y z
#
# Youngs Moduli (GPa) = 64.93915 64.93916 49.82764
#
# Poissons Ratio (x) = 0.34398 0.22002
# Poissons Ratio (y) = 0.34398 0.22002
# Poissons Ratio (z) = 0.28675 0.28675
#
# Static dielectric constant tensor:
#      x y z
#    x 3.753600 0.000000 0.000000 
#    y 0.000000 3.753600 0.000000 
#    z 0.000000 0.000000 3.426550 
# 
# 
# High freq. dielectric constant tensor:
#      x y z
#    x 1.788250 0.000000 0.000000 
#    y 0.000000 1.788250 0.000000 
#    z 0.000000 0.000000 1.762820 
# 
# From -- ./inp_files/5354.got.cif
#   From: 2010.03.12/outbox.cif.g09.slc.cpg/sg88_3_cif.got.tgz:5354.got - 2010.04.08 20:20:55.
