data_PCOD8304698
_publ_section_title
;
Structure prediction by ZEFSAII (Michael W. Deem and Ramdas Pophale) SiO2 
 PCOD8304698
Probable space group: P 4 21 2
;
_chemical_formula_sum "Si O2"
_cell_formula_units_Z 56
_cell_length_a 11.397807
_cell_length_b 11.397807
_cell_length_c 19.010948
_cell_angle_alpha 90.000000
_cell_angle_beta 90.000000
_cell_angle_gamma 90.000000
_cell_volume 2469.712339
_symmetry_space_group_name_H-M "P 4 21 2"
_symmetry_group_IT_number 90
_symmetry_cell_setting 'tetragonal'
loop_
_space_group_symop_operation_xyz
x,y,z
1/2-y,1/2+x,z
-x,-y,z
1/2+y,1/2-x,z
1/2+x,1/2-y,-z
1/2-x,1/2+y,-z
y,x,-z
-y,-x,-z
loop_
_atom_site_type_symbol
_atom_site_label
_atom_site_fract_x
_atom_site_fract_y
_atom_site_fract_z
Si Si1 0.940692 0.683162 0.627682
Si Si2 0.795276 0.884715 0.671740
Si Si3 0.714384 0.626025 0.254300
Si Si4 0.180582 0.428739 0.108969
Si Si5 0.426803 0.178990 0.041566
Si Si6 0.428327 0.181511 0.195630
Si Si7 0.940070 0.680798 0.467088
O O1 0.854734 0.573407 0.644078
O O2 0.902307 0.791957 0.677067
O O3 0.925882 0.723787 0.546941
O O4 0.677508 0.830429 0.707179
O O5 0.779601 0.906344 0.588631
O O6 0.828910 0.007064 0.708479
O O7 0.736283 0.600817 0.172917
O O8 0.610433 0.722637 0.253612
O O9 0.149774 0.564987 0.113916
O O10 0.245800 0.400053 0.033069
O O11 0.562770 0.149484 0.039974
O O12 0.403110 0.238200 0.117587
O O13 0.564322 0.149872 0.207038
O O14 0.854168 0.573072 0.453038
#
# Coordination Sequence:
#
# PCOD8304698 Si02
#       7
#     8   8   8   8   8   8   8
#     4   9  21  43  70  96 120 167 232 279 324 379
#     4  12  23  38  60  94 140 171 214 264 331 405
#     4  12  24  35  60  92 131 185 208 257 342 410
#     4   9  16  30  54  86 128 169 218 268 323 399
#     4   7  12  27  56  87 113 156 222 288 323 368
#     4   9  20  42  65  87 119 168 234 286 329 387
#     4   9  17  35  67  96 125 171 222 269 322 390
#
# _framework density 22.674707000000001
#
# number of rings (size 3 to 8) (size 9 to 14) (size 15 to 20)
#    0.000    2.429    2.857    3.000    0.000    2.000 
#    0.000    4.286    0.000    0.000    0.000    0.000 
#    0.000    0.000    0.000    0.000    1.714    0.857 
#
# Total GULP energy -693743.732388 kJ/mol
# GULP energy per Si atom -12388.280935 kJ/mol
# Density = 2.262310 g / cm^3
# Si number density = 22.674707 Si / 1000 Ang^3
#
#
#
# Elastic Constant Matrix: (Units=GPa)
#
#
# Indices 1 2 3 4 5 6 
#
# 1 87.5819 47.1633 67.9623 0.0000 0.0000 0.0000
# 2 47.1633 87.5819 67.9623 0.0000 0.0000 0.0000
# 3 67.9623 67.9623 106.0586 0.0000 0.0000 0.0000
# 4 0.0000 0.0000 0.0000 32.0056 0.0000 0.0000
# 5 0.0000 0.0000 0.0000 0.0000 32.0056 0.0000
# 6 0.0000 0.0000 0.0000 0.0000 0.0000 25.7211
#
#
#
# Elastic Compliance Matrix: (Units=1/GPa)
#
#
# Indices 1 2 3 4 5 6 
#
# 1 0.022865 -0.001876 -0.013450 0.000000 0.000000 0.000000
# 2 -0.001876 0.022865 -0.013450 0.000000 0.000000 0.000000
# 3 -0.013450 -0.013450 0.026666 0.000000 0.000000 0.000000
# 4 0.000000 0.000000 0.000000 0.031245 0.000000 0.000000
# 5 0.000000 0.000000 0.000000 0.000000 0.031245 0.000000
# 6 0.000000 0.000000 0.000000 0.000000 0.000000 0.038879
#
#
# Mechanical properties :
#
#
# Convention : Reuss Voigt Hill
#
# Bulk Modulus (GPa) = 67.36332 71.93312 69.64822
# Shear Modulus (GPa) = 21.16297 24.48876 22.82586
#
# Velocity S-wave (km/s) = 3.05836 3.28991 3.17624
# Velocity P-wave (km/s) = 6.49957 6.79883 6.65089
#
# Compressibility (1/GPa) = 0.01484487
#
# Stress axis : x y z
#
# Youngs Moduli (GPa) = 43.73525 43.73525 37.50143
#
# Poissons Ratio (x) = 0.08206 0.50438
# Poissons Ratio (y) = 0.08206 0.50438
# Poissons Ratio (z) = 0.58822 0.58822
#
# Static dielectric constant tensor:
#      x y z
#    x 3.695290 0.000000 0.000000 
#    y 0.000000 3.695290 0.000000 
#    z 0.000000 0.000000 4.794880 
# 
# 
# High freq. dielectric constant tensor:
#      x y z
#    x 1.863890 0.000000 0.000000 
#    y 0.000000 1.863890 0.000000 
#    z 0.000000 0.000000 1.933170 
# 
# From -- ./inp_files/2831.got.cif
#   From: 2010.03.12/outbox.cif.g09.slc.cpg/sg90_2_cif.got.tgz:2831.got - 2010.04.08 20:26:03.
