data_PCOD8304409
_publ_section_title
;
Structure prediction by ZEFSAII (Michael W. Deem and Ramdas Pophale) SiO2 
 PCOD8304409
Probable space group: I 41/A
;
_chemical_formula_sum "Si O2"
_cell_formula_units_Z 48
_cell_length_a 18.869249
_cell_length_b 18.869249
_cell_length_c 4.730832
_cell_angle_alpha 90.000000
_cell_angle_beta 90.000000
_cell_angle_gamma 90.000000
_cell_volume 1684.405911
_symmetry_space_group_name_H-M "I 41/A"
_symmetry_group_IT_number 88
_space_group.IT_coordinate_system_code '2'
_symmetry_cell_setting 'tetragonal'
loop_
_space_group_symop_operation_xyz
x,y,z
3/4-y,1/4+x,1/4+z
-x,1/2-y,z
1/4+y,1/4-x,1/4+z
-x,-y,-z
1/4+y,3/4-x,3/4-z
x,1/2+y,-z
3/4-y,3/4+x,3/4-z
1/2+x,1/2+y,1/2+z
1/4-y,3/4+x,3/4+z
1/2-x,-y,1/2+z
3/4+y,3/4-x,3/4+z
1/2-x,1/2-y,1/2-z
3/4+y,1/4-x,1/4-z
1/2+x,y,1/2-z
1/4-y,1/4+x,1/4-z
loop_
_atom_site_type_symbol
_atom_site_label
_atom_site_fract_x
_atom_site_fract_y
_atom_site_fract_z
Si Si1 0.903444 0.937047 0.943653
Si Si2 0.094910 0.968196 0.574997
Si Si3 0.998410 0.642609 0.293879
O O1 0.832438 0.911553 0.109631
O O2 0.964232 0.876145 0.991857
O O3 0.929963 0.005278 0.118654
O O4 0.886464 0.963237 0.625644
O O5 0.026167 0.928667 0.450665
O O6 0.055733 0.681209 0.502853
#
# Coordination Sequence:
#
# PCOD8304409 Si02
#       3
#    16  16  16
#     4  11  23  41  65  94 130 172 219 273 332 399
#     4  11  23  41  65  94 130 172 219 273 332 399
#     4   9  20  40  66  96 130 171 219 272 334 403
#
# _framework density 28.496694000000002
#
# number of rings (size 3 to 8) (size 9 to 14) (size 15 to 20)
#    0.000    1.667    0.000    4.000    0.000    2.667 
#    0.000   10.000    0.000   24.000    0.000    0.000 
#    0.000    0.000    0.000    0.000    0.000    0.000 
#
# Total GULP energy -297393.794371 kJ/mol
# GULP energy per Si atom -12391.408099 kJ/mol
# Density = 2.843183 g / cm^3
# Si number density = 28.496694 Si / 1000 Ang^3
#
#
#
# Elastic Constant Matrix: (Units=GPa)
#
#
# Indices 1 2 3 4 5 6 
#
# 1 104.5190 31.5442 19.5435 0.0000 0.0000 -8.0080
# 2 31.5442 104.5190 19.5435 0.0000 0.0000 8.0080
# 3 19.5435 19.5435 102.1005 0.0000 0.0000 0.0000
# 4 0.0000 0.0000 0.0000 28.4172 0.0000 0.0000
# 5 0.0000 0.0000 0.0000 0.0000 28.4172 0.0000
# 6 -8.0080 8.0080 0.0000 0.0000 0.0000 21.2451
#
#
#
# Elastic Compliance Matrix: (Units=1/GPa)
#
#
# Indices 1 2 3 4 5 6 
#
# 1 0.011358 -0.003581 -0.001489 0.000000 0.000000 0.005631
# 2 -0.003581 0.011358 -0.001489 0.000000 0.000000 -0.005631
# 3 -0.001489 -0.001489 0.010364 0.000000 0.000000 0.000000
# 4 0.000000 0.000000 0.000000 0.035190 0.000000 0.000000
# 5 0.000000 0.000000 0.000000 0.000000 0.035190 0.000000
# 6 0.005631 -0.005631 0.000000 0.000000 0.000000 0.051315
#
#
# Mechanical properties :
#
#
# Convention : Reuss Voigt Hill
#
# Bulk Modulus (GPa) = 50.09049 50.26678 50.17864
# Shear Modulus (GPa) = 28.64563 31.64972 30.14768
#
# Velocity S-wave (km/s) = 3.17397 3.33625 3.25612
# Velocity P-wave (km/s) = 5.57207 5.70250 5.63766
#
# Compressibility (1/GPa) = 0.01996387
#
# Stress axis : x y z
#
# Youngs Moduli (GPa) = 88.04202 88.04202 96.48624
#
# Poissons Ratio (x) = 0.31528 0.14364
# Poissons Ratio (y) = 0.31528 0.14364
# Poissons Ratio (z) = 0.13106 0.13106
#
# Static dielectric constant tensor:
#      x y z
#    x 5.362210 0.000000 0.000000 
#    y 0.000000 5.362210 0.000000 
#    z 0.000000 0.000000 4.711840 
# 
# 
# High freq. dielectric constant tensor:
#      x y z
#    x 2.165000 0.000000 0.000000 
#    y 0.000000 2.165000 0.000000 
#    z 0.000000 0.000000 2.140300 
# 
# From -- ./inp_files/336.got.cif
#   From: 2010.03.12/outbox.cif.g09.slc.cpg/sg88_1_cif.got.tgz:336.got - 2010.04.08 20:20:55.
