data_PCOD8304587
_publ_section_title
;
Structure prediction by ZEFSAII (Michael W. Deem and Ramdas Pophale) SiO2 
 PCOD8304587
Probable space group: P 4 21 2
;
_chemical_formula_sum "Si O2"
_cell_formula_units_Z 52
_cell_length_a 18.865304
_cell_length_b 18.865304
_cell_length_c 6.263544
_cell_angle_alpha 90.000000
_cell_angle_beta 90.000000
_cell_angle_gamma 90.000000
_cell_volume 2229.193399
_symmetry_space_group_name_H-M "P 4 21 2"
_symmetry_group_IT_number 90
_symmetry_cell_setting 'tetragonal'
loop_
_space_group_symop_operation_xyz
x,y,z
1/2-y,1/2+x,z
-x,-y,z
1/2+y,1/2-x,z
1/2+x,1/2-y,-z
1/2-x,1/2+y,-z
y,x,-z
-y,-x,-z
loop_
_atom_site_type_symbol
_atom_site_label
_atom_site_fract_x
_atom_site_fract_y
_atom_site_fract_z
Si Si1 0.317012 0.597383 0.324120
Si Si2 0.638230 0.203991 0.985271
Si Si3 0.041416 0.290868 0.636648
Si Si4 0.034591 0.871547 0.125401
Si Si5 0.400460 0.250496 0.167756
Si Si6 0.860731 0.139270 0.500000
Si Si7 0.447091 0.897549 0.701535
O O1 0.361080 0.638921 0.500000
O O2 0.269933 0.652009 0.177933
O O3 0.266615 0.541103 0.446125
O O4 0.366835 0.550200 0.166627
O O5 0.578532 0.153741 0.886625
O O6 0.602603 0.233673 0.200186
O O7 0.708966 0.159139 0.031926
O O8 0.065423 0.366108 0.535844
O O9 0.963109 0.298663 0.737999
O O10 0.070401 0.866366 0.354475
O O11 0.055714 0.944287 0.000000
O O12 0.061792 0.806851 0.982783
O O13 0.360135 0.288810 0.362208
O O14 0.530548 0.905064 0.730558
#
# Coordination Sequence:
#
# PCOD8304587 Si02
#       7
#     8   8   8   8   8   4   8
#     4  11  25  47  72 101 147 184 232 300 368 436
#     4  11  24  41  66 102 140 191 233 286 358 423
#     4  11  22  41  68  96 139 186 228 293 360 413
#     4  10  22  45  76 103 134 181 237 298 357 430
#     4  11  22  42  73 102 140 186 241 293 353 426
#     4  10  22  42  73 100 134 176 238 295 350 424
#     4  10  22  38  62  98 138 185 242 288 337 415
#
# _framework density 23.326823999999998
#
# number of rings (size 3 to 8) (size 9 to 14) (size 15 to 20)
#    0.000    1.385    3.077    1.846    2.154    3.077 
#   11.077    1.923    3.385    0.000    2.000    0.000 
#    0.000    0.000    0.000    0.000    0.000    0.000 
#
# Total GULP energy -644756.034413 kJ/mol
# GULP energy per Si atom -12399.154508 kJ/mol
# Density = 2.327373 g / cm^3
# Si number density = 23.326824 Si / 1000 Ang^3
#
#
#
# Elastic Constant Matrix: (Units=GPa)
#
#
# Indices 1 2 3 4 5 6 
#
# 1 73.2084 29.6601 29.9553 0.0000 0.0000 0.0000
# 2 29.6601 73.2026 29.9560 0.0000 0.0000 0.0000
# 3 29.9553 29.9560 109.0224 0.0000 0.0000 0.0000
# 4 0.0000 0.0000 0.0000 44.0208 0.0000 0.0000
# 5 0.0000 0.0000 0.0000 0.0000 44.0205 0.0000
# 6 0.0000 0.0000 0.0000 0.0000 0.0000 5.0996
#
#
#
# Elastic Compliance Matrix: (Units=1/GPa)
#
#
# Indices 1 2 3 4 5 6 
#
# 1 0.017268 -0.005696 -0.003180 0.000000 0.000000 0.000000
# 2 -0.005696 0.017270 -0.003180 0.000000 0.000000 0.000000
# 3 -0.003180 -0.003180 0.010920 0.000000 0.000000 0.000000
# 4 0.000000 0.000000 0.000000 0.022717 0.000000 0.000000
# 5 0.000000 0.000000 0.000000 0.000000 0.022717 0.000000
# 6 0.000000 0.000000 0.000000 0.000000 0.000000 0.196093
#
#
# Mechanical properties :
#
#
# Convention : Reuss Voigt Hill
#
# Bulk Modulus (GPa) = 46.84506 48.28623 47.56565
# Shear Modulus (GPa) = 15.71284 29.68564 22.69924
#
# Velocity S-wave (km/s) = 2.59819 3.57122 3.12283
# Velocity P-wave (km/s) = 5.39689 6.14407 5.78256
#
# Compressibility (1/GPa) = 0.02134697
#
# Stress axis : x y z
#
# Youngs Moduli (GPa) = 57.90981 57.90428 91.57549
#
# Poissons Ratio (x) = 0.32979 0.29118
# Poissons Ratio (y) = 0.32983 0.29124
# Poissons Ratio (z) = 0.18414 0.18415
#
# Static dielectric constant tensor:
#      x y z
#    x 4.121040 0.000000 0.000000 
#    y 0.000000 4.121050 0.000000 
#    z 0.000000 0.000000 4.469260 
# 
# 
# High freq. dielectric constant tensor:
#      x y z
#    x 1.915410 0.000000 0.000000 
#    y 0.000000 1.915410 0.000000 
#    z 0.000000 0.000000 1.940900 
# 
# From -- ./inp_files/678.got.cif
#   From: 2010.03.12/outbox.cif.g09.slc.cpg/sg90_1_cif.got.tgz:678.got - 2010.04.08 20:26:03.
