data_PCOD8304331
_publ_section_title
;
Structure prediction by ZEFSAII (Michael W. Deem and Ramdas Pophale) SiO2 
 PCOD8304331
Probable space group: I 41/A
;
_chemical_formula_sum "Si O2"
_cell_formula_units_Z 64
_cell_length_a 21.944123
_cell_length_b 21.944123
_cell_length_c 6.497967
_cell_angle_alpha 90.000000
_cell_angle_beta 90.000000
_cell_angle_gamma 90.000000
_cell_volume 3129.060493
_symmetry_space_group_name_H-M "I 41/A"
_symmetry_group_IT_number 88
_space_group.IT_coordinate_system_code '2'
_symmetry_cell_setting 'tetragonal'
loop_
_space_group_symop_operation_xyz
x,y,z
3/4-y,1/4+x,1/4+z
-x,1/2-y,z
1/4+y,1/4-x,1/4+z
-x,-y,-z
1/4+y,3/4-x,3/4-z
x,1/2+y,-z
3/4-y,3/4+x,3/4-z
1/2+x,1/2+y,1/2+z
1/4-y,3/4+x,3/4+z
1/2-x,-y,1/2+z
3/4+y,3/4-x,3/4+z
1/2-x,1/2-y,1/2-z
3/4+y,1/4-x,1/4-z
1/2+x,y,1/2-z
1/4-y,1/4+x,1/4-z
loop_
_atom_site_type_symbol
_atom_site_label
_atom_site_fract_x
_atom_site_fract_y
_atom_site_fract_z
Si Si1 0.487811 0.915019 0.292517
Si Si2 0.398016 0.113512 0.979292
Si Si3 0.208803 0.684709 0.889631
Si Si4 0.783176 0.419888 0.419333
O O1 0.433582 0.866768 0.274585
O O2 0.536202 0.893414 0.123709
O O3 0.515792 0.915628 0.523987
O O4 0.466204 0.984185 0.245811
O O5 0.345597 0.084666 0.837286
O O6 0.397390 0.080075 0.197398
O O7 0.234216 0.638530 0.717166
O O8 0.722096 0.440585 0.527072
#
# Coordination Sequence:
#
# PCOD8304331 Si02
#       4
#    16  16  16  16
#     4  10  23  39  63  91 121 166 213 264 314 378
#     4  11  23  42  63  88 127 165 215 261 315 377
#     4  10  22  42  63  89 126 168 211 257 321 381
#     4  11  25  37  62  98 128 163 203 259 323 387
#
# _framework density 20.453423000000001
#
# number of rings (size 3 to 8) (size 9 to 14) (size 15 to 20)
#    0.000    1.500    0.000    3.750    7.000    8.500 
#    0.000    0.000    0.000    0.000    0.000    0.000 
#    0.000    0.000    0.000    0.000    0.000    0.000 
#
# Total GULP energy -396934.988616 kJ/mol
# GULP energy per Si atom -12404.218394 kJ/mol
# Density = 2.040687 g / cm^3
# Si number density = 20.453423 Si / 1000 Ang^3
#
#
#
# Elastic Constant Matrix: (Units=GPa)
#
#
# Indices 1 2 3 4 5 6 
#
# 1 123.0308 64.8004 57.0253 0.0000 0.0000 11.3446
# 2 64.8004 123.0308 57.0253 0.0000 0.0000 -11.3446
# 3 57.0253 57.0253 103.2766 0.0000 0.0000 0.0000
# 4 0.0000 0.0000 0.0000 24.0933 0.0000 0.0000
# 5 0.0000 0.0000 0.0000 0.0000 24.0933 0.0000
# 6 11.3446 -11.3446 0.0000 0.0000 0.0000 45.6023
#
#
#
# Elastic Compliance Matrix: (Units=1/GPa)
#
#
# Indices 1 2 3 4 5 6 
#
# 1 0.013513 -0.005504 -0.004422 0.000000 0.000000 -0.004731
# 2 -0.005504 0.013513 -0.004422 0.000000 0.000000 0.004731
# 3 -0.004422 -0.004422 0.014566 0.000000 0.000000 0.000000
# 4 0.000000 0.000000 0.000000 0.041505 0.000000 0.000000
# 5 0.000000 0.000000 0.000000 0.000000 0.041505 0.000000
# 6 -0.004731 0.004731 0.000000 0.000000 0.000000 0.024282
#
#
# Mechanical properties :
#
#
# Convention : Reuss Voigt Hill
#
# Bulk Modulus (GPa) = 77.54722 78.56003 78.05363
# Shear Modulus (GPa) = 27.49061 30.12361 28.80711
#
# Velocity S-wave (km/s) = 3.67012 3.84186 3.75697
# Velocity P-wave (km/s) = 7.48038 7.62709 7.55409
#
# Compressibility (1/GPa) = 0.01289537
#
# Stress axis : x y z
#
# Youngs Moduli (GPa) = 74.00373 74.00373 68.65097
#
# Poissons Ratio (x) = 0.40729 0.30360
# Poissons Ratio (y) = 0.40729 0.30360
# Poissons Ratio (z) = 0.32727 0.32727
#
# Static dielectric constant tensor:
#      x y z
#    x 3.679660 0.000000 0.000000 
#    y 0.000000 3.679660 0.000000 
#    z 0.000000 0.000000 3.828500 
# 
# 
# High freq. dielectric constant tensor:
#      x y z
#    x 1.800770 0.000000 0.000000 
#    y 0.000000 1.800770 0.000000 
#    z 0.000000 0.000000 1.810060 
# 
# From -- ./inp_files/539.got.cif
#   From: 2010.03.12/outbox.cif.g09.slc.cpg/sg88_1_cif.got.tgz:539.got - 2010.04.08 20:20:55.
