data_PCOD8304385
_publ_section_title
;
Structure prediction by ZEFSAII (Michael W. Deem and Ramdas Pophale) SiO2 
 PCOD8304385
Probable space group: I 41/A
;
_chemical_formula_sum "Si O2"
_cell_formula_units_Z 96
_cell_length_a 14.752056
_cell_length_b 14.752056
_cell_length_c 19.438539
_cell_angle_alpha 90.000000
_cell_angle_beta 90.000000
_cell_angle_gamma 90.000000
_cell_volume 4230.276210
_symmetry_space_group_name_H-M "I 41/A"
_symmetry_group_IT_number 88
_space_group.IT_coordinate_system_code '2'
_symmetry_cell_setting 'tetragonal'
loop_
_space_group_symop_operation_xyz
x,y,z
3/4-y,1/4+x,1/4+z
-x,1/2-y,z
1/4+y,1/4-x,1/4+z
-x,-y,-z
1/4+y,3/4-x,3/4-z
x,1/2+y,-z
3/4-y,3/4+x,3/4-z
1/2+x,1/2+y,1/2+z
1/4-y,3/4+x,3/4+z
1/2-x,-y,1/2+z
3/4+y,3/4-x,3/4+z
1/2-x,1/2-y,1/2-z
3/4+y,1/4-x,1/4-z
1/2+x,y,1/2-z
1/4-y,1/4+x,1/4-z
loop_
_atom_site_type_symbol
_atom_site_label
_atom_site_fract_x
_atom_site_fract_y
_atom_site_fract_z
Si Si1 0.890583 0.872947 0.775372
Si Si2 0.251440 0.284021 0.827847
Si Si3 0.715428 0.017314 0.464477
Si Si4 0.217200 0.275502 0.144215
Si Si5 0.560582 0.330861 0.618825
Si Si6 0.785512 0.100332 0.597804
O O1 0.833298 0.959453 0.747770
O O2 0.816449 0.807229 0.810219
O O3 0.969598 0.905159 0.826159
O O4 0.939512 0.824103 0.712067
O O5 0.250000 0.250000 0.750000
O O6 0.155754 0.333041 0.841640
O O7 0.329104 0.357965 0.841498
O O8 0.270816 0.203706 0.880868
O O9 0.618617 0.045896 0.435003
O O10 0.742828 0.089447 0.522219
O O11 0.787735 0.016379 0.403036
O O12 0.322090 0.261044 0.122404
O O13 0.500000 0.250000 0.650161
#
# Coordination Sequence:
#
# PCOD8304385 Si02
#       6
#    16  16  16  16  16  16
#     4  11  24  42  71 103 148 181 229 292 368 444
#     4  12  27  49  73 107 144 192 253 304 370 435
#     4  11  21  46  70 100 137 192 239 288 369 433
#     4  11  25  43  73 107 145 182 235 293 367 447
#     4  11  26  47  71 104 145 184 242 298 353 430
#     4  12  25  47  76 101 145 195 248 307 364 439
#
# _framework density 22.693553000000001
#
# number of rings (size 3 to 8) (size 9 to 14) (size 15 to 20)
#    0.000    0.667    6.667    2.000    7.000    0.333 
#    6.000    0.000    0.000    0.000    0.000    0.000 
#    0.000    0.000    0.000    0.000    0.000    0.000 
#
# Total GULP energy -595380.075408 kJ/mol
# GULP energy per Si atom -12403.751571 kJ/mol
# Density = 2.264190 g / cm^3
# Si number density = 22.693553 Si / 1000 Ang^3
#
#
#
# Elastic Constant Matrix: (Units=GPa)
#
#
# Indices 1 2 3 4 5 6 
#
# 1 78.1931 12.5256 11.2764 0.0000 0.0000 -4.0575
# 2 12.5256 78.1931 11.2764 0.0000 0.0000 4.0575
# 3 11.2764 11.2764 92.0301 0.0000 0.0000 0.0000
# 4 0.0000 0.0000 0.0000 31.2893 0.0000 0.0000
# 5 0.0000 0.0000 0.0000 0.0000 31.2893 0.0000
# 6 -4.0575 4.0575 0.0000 0.0000 0.0000 33.9061
#
#
#
# Elastic Compliance Matrix: (Units=1/GPa)
#
#
# Indices 1 2 3 4 5 6 
#
# 1 0.013413 -0.002044 -0.001393 0.000000 0.000000 0.001850
# 2 -0.002044 0.013413 -0.001393 0.000000 0.000000 -0.001850
# 3 -0.001393 -0.001393 0.011207 0.000000 0.000000 0.000000
# 4 0.000000 0.000000 0.000000 0.031960 0.000000 0.000000
# 5 0.000000 0.000000 0.000000 0.000000 0.031960 0.000000
# 6 0.001850 -0.001850 0.000000 0.000000 0.000000 0.029936
#
#
# Mechanical properties :
#
#
# Convention : Reuss Voigt Hill
#
# Bulk Modulus (GPa) = 35.24369 35.39700 35.32034
# Shear Modulus (GPa) = 33.11106 33.51945 33.31526
#
# Velocity S-wave (km/s) = 3.82390 3.84741 3.83567
# Velocity P-wave (km/s) = 5.92117 5.94713 5.93417
#
# Compressibility (1/GPa) = 0.02837388
#
# Stress axis : x y z
#
# Youngs Moduli (GPa) = 74.55388 74.55389 89.22676
#
# Poissons Ratio (x) = 0.15237 0.12430
# Poissons Ratio (y) = 0.15237 0.12430
# Poissons Ratio (z) = 0.10386 0.10386
#
# Static dielectric constant tensor:
#      x y z
#    x 4.040420 0.000000 0.000000 
#    y 0.000000 4.040420 0.000000 
#    z 0.000000 0.000000 4.488500 
# 
# 
# High freq. dielectric constant tensor:
#      x y z
#    x 1.890420 0.000000 0.000000 
#    y 0.000000 1.890420 0.000000 
#    z 0.000000 0.000000 1.908480 
# 
# From -- ./inp_files/4663.got.cif
#   From: 2010.03.12/outbox.cif.g09.slc.cpg/sg88_3_cif.got.tgz:4663.got - 2010.04.08 20:20:55.
