data_PCOD8304792
_publ_section_title
;
Structure prediction by ZEFSAII (Michael W. Deem and Ramdas Pophale) SiO2 
 PCOD8304792
Probable space group: P 41 2 2
;
_chemical_formula_sum "Si O2"
_cell_formula_units_Z 48
_cell_length_a 9.202553
_cell_length_b 9.202553
_cell_length_c 30.776944
_cell_angle_alpha 90.000000
_cell_angle_beta 90.000000
_cell_angle_gamma 90.000000
_cell_volume 2606.406494
_symmetry_space_group_name_H-M "P 41 2 2"
_symmetry_group_IT_number 91
_symmetry_cell_setting 'tetragonal'
loop_
_space_group_symop_operation_xyz
x,y,z
-y,x,1/4+z
-x,-y,1/2+z
y,-x,3/4+z
x,-y,1/2-z
-x,y,-z
y,x,3/4-z
-y,-x,1/4-z
loop_
_atom_site_type_symbol
_atom_site_label
_atom_site_fract_x
_atom_site_fract_y
_atom_site_fract_z
Si Si1 0.239396 0.650047 0.669213
Si Si2 0.161058 0.095779 0.490365
Si Si3 0.163626 0.242978 0.003715
Si Si4 0.936639 0.421396 0.795468
Si Si5 0.584418 0.407561 0.293452
Si Si6 0.730892 0.340613 0.673886
O O1 0.261943 0.738058 0.625000
O O2 0.270239 0.763341 0.707364
O O3 0.345313 0.509391 0.669365
O O4 0.075038 0.592657 0.673406
O O5 0.264283 0.129071 0.532004
O O6 0.214649 0.180064 0.447872
O O7 0.000000 0.152965 0.500000
O O8 0.162638 0.924002 0.481150
O O9 0.255465 0.329260 0.039901
O O10 0.000000 0.303848 0.000000
O O11 0.981658 0.500000 0.750000
O O12 0.817642 0.507933 0.823049
O O13 0.596914 0.500000 0.250000
O O14 0.420497 0.367257 0.302935
O O15 0.709427 0.290574 0.625000
#
# Coordination Sequence:
#
# PCOD8304792 Si02
#       6
#     8   8   8   8   8   8
#     4  10  19  33  55  80 103 135 180 223 261 309
#     4   9  18  37  59  76 101 142 182 214 260 323
#     4   9  19  36  57  79 105 139 177 216 264 324
#     4   9  18  37  58  74 104 148 178 206 265 333
#     4  10  19  34  54  76 106 141 175 213 264 325
#     4  11  22  35  52  79 109 139 176 220 265 312
#
# _framework density 18.416160999999999
#
# number of rings (size 3 to 8) (size 9 to 14) (size 15 to 20)
#    0.000    2.333    0.000    5.500    0.000    2.000 
#    0.000   14.167    0.000    0.000    0.000    0.000 
#    0.000    0.000    0.000    0.000    0.000    0.000 
#
# Total GULP energy -595168.604978 kJ/mol
# GULP energy per Si atom -12399.345937 kJ/mol
# Density = 1.837425 g / cm^3
# Si number density = 18.416161 Si / 1000 Ang^3
#
#
#
# Elastic Constant Matrix: (Units=GPa)
#
#
# Indices 1 2 3 4 5 6 
#
# 1 125.1009 58.6962 38.4768 0.0000 0.0000 0.0000
# 2 58.6962 125.1011 38.4769 0.0000 0.0000 0.0000
# 3 38.4768 38.4769 59.2589 0.0000 0.0000 0.0000
# 4 0.0000 0.0000 0.0000 14.7942 0.0000 0.0000
# 5 0.0000 0.0000 0.0000 0.0000 14.7943 0.0000
# 6 0.0000 0.0000 0.0000 0.0000 0.0000 22.9470
#
#
#
# Elastic Compliance Matrix: (Units=1/GPa)
#
#
# Indices 1 2 3 4 5 6 
#
# 1 0.011266 -0.003794 -0.004852 0.000000 0.000000 0.000000
# 2 -0.003794 0.011266 -0.004852 0.000000 0.000000 0.000000
# 3 -0.004852 -0.004852 0.023175 0.000000 0.000000 0.000000
# 4 0.000000 0.000000 0.000000 0.067594 0.000000 0.000000
# 5 0.000000 0.000000 0.000000 0.000000 0.067593 0.000000
# 6 0.000000 0.000000 0.000000 0.000000 0.000000 0.043579
#
#
# Mechanical properties :
#
#
# Convention : Reuss Voigt Hill
#
# Bulk Modulus (GPa) = 53.43854 64.52899 58.98377
# Shear Modulus (GPa) = 19.40209 22.09451 20.74830
#
# Velocity S-wave (km/s) = 3.24934 3.46748 3.36018
# Velocity P-wave (km/s) = 6.56946 7.15168 6.86675
#
# Compressibility (1/GPa) = 0.01871309
#
# Stress axis : x y z
#
# Youngs Moduli (GPa) = 88.76557 88.76559 43.14907
#
# Poissons Ratio (x) = 0.33673 0.20934
# Poissons Ratio (y) = 0.33673 0.20934
# Poissons Ratio (z) = 0.43066 0.43066
#
# Static dielectric constant tensor:
#      x y z
#    x 3.615190 0.000000 0.000000 
#    y 0.000000 3.615190 0.000000 
#    z 0.000000 0.000000 3.129810 
# 
# 
# High freq. dielectric constant tensor:
#      x y z
#    x 1.722450 0.000000 0.000000 
#    y 0.000000 1.722450 0.000000 
#    z 0.000000 0.000000 1.687930 
# 
# From -- ./inp_files/22254.got.cif
#   From: 2010.03.12/outbox.cif.g09.slc.cpg/sg91_12_cif.got.tgz:22254.got - 2010.04.08 20:27:58.
