data_PCOD8304819
_publ_section_title
;
Structure prediction by ZEFSAII (Michael W. Deem and Ramdas Pophale) SiO2 
 PCOD8304819
Probable space group: P 41 2 2
;
_chemical_formula_sum "Si O2"
_cell_formula_units_Z 40
_cell_length_a 11.759568
_cell_length_b 11.759568
_cell_length_c 14.167258
_cell_angle_alpha 90.000000
_cell_angle_beta 90.000000
_cell_angle_gamma 90.000000
_cell_volume 1959.153834
_symmetry_space_group_name_H-M "P 41 2 2"
_symmetry_group_IT_number 91
_symmetry_cell_setting 'tetragonal'
loop_
_space_group_symop_operation_xyz
x,y,z
-y,x,1/4+z
-x,-y,1/2+z
y,-x,3/4+z
x,-y,1/2-z
-x,y,-z
y,x,3/4-z
-y,-x,1/4-z
loop_
_atom_site_type_symbol
_atom_site_label
_atom_site_fract_x
_atom_site_fract_y
_atom_site_fract_z
Si Si1 0.707885 0.630517 0.271601
Si Si2 0.800395 0.058779 0.345966
Si Si3 0.175287 0.347723 0.330127
Si Si4 0.936885 0.746605 0.223689
Si Si5 0.595549 0.795273 0.129799
O O1 0.689738 0.500000 0.250000
O O2 0.665787 0.665787 0.375000
O O3 0.841073 0.659645 0.260313
O O4 0.628842 0.690608 0.194816
O O5 0.881066 0.170106 0.354343
O O6 0.667363 0.093728 0.339388
O O7 0.836304 0.000000 0.250000
O O8 0.820450 0.979490 0.436307
O O9 0.242817 0.242817 0.375000
O O10 0.182903 0.461239 0.393427
O O11 0.230985 0.372596 0.228676
O O12 0.041715 0.318831 0.323552
#
# Coordination Sequence:
#
# PCOD8304819 Si02
#       5
#     8   8   8   8   8
#     4  11  25  43  69  98 132 169 220 272 330 401
#     4  10  19  37  61  88 127 170 212 264 326 379
#     4  10  22  41  67  91 133 174 220 269 326 390
#     4  10  22  40  61  94 131 170 218 268 320 390
#     4   9  22  42  60  95 127 170 219 265 332 388
#
# _framework density 20.416976999999999
#
# number of rings (size 3 to 8) (size 9 to 14) (size 15 to 20)
#    0.000    2.000    0.000    3.000    8.400    2.400 
#    0.000    8.000    0.000    0.000    0.000    0.000 
#    0.000    0.000    0.000    0.000    0.000    0.000 
#
# Total GULP energy -495933.394321 kJ/mol
# GULP energy per Si atom -12398.334858 kJ/mol
# Density = 2.037051 g / cm^3
# Si number density = 20.416977 Si / 1000 Ang^3
#
#
#
# Elastic Constant Matrix: (Units=GPa)
#
#
# Indices 1 2 3 4 5 6 
#
# 1 137.4973 72.8013 56.0229 0.0000 0.0000 0.0000
# 2 72.8013 137.4973 56.0229 0.0000 0.0000 0.0000
# 3 56.0229 56.0229 71.7433 0.0000 0.0000 0.0000
# 4 0.0000 0.0000 0.0000 35.2041 0.0000 0.0000
# 5 0.0000 0.0000 0.0000 0.0000 35.2041 0.0000
# 6 0.0000 0.0000 0.0000 0.0000 0.0000 17.2045
#
#
#
# Elastic Compliance Matrix: (Units=1/GPa)
#
#
# Indices 1 2 3 4 5 6 
#
# 1 0.011800 -0.003657 -0.006359 0.000000 0.000000 0.000000
# 2 -0.003657 0.011800 -0.006359 0.000000 0.000000 0.000000
# 3 -0.006359 -0.006359 0.023869 0.000000 0.000000 0.000000
# 4 0.000000 0.000000 0.000000 0.028406 0.000000 0.000000
# 5 0.000000 0.000000 0.000000 0.000000 0.028406 0.000000
# 6 0.000000 0.000000 0.000000 0.000000 0.000000 0.058124
#
#
# Mechanical properties :
#
#
# Convention : Reuss Voigt Hill
#
# Bulk Modulus (GPa) = 67.93229 79.60357 73.76793
# Shear Modulus (GPa) = 24.99238 28.31525 26.65382
#
# Velocity S-wave (km/s) = 3.50251 3.72808 3.61705
# Velocity P-wave (km/s) = 7.04992 7.58980 7.32484
#
# Compressibility (1/GPa) = 0.01472054
#
# Stress axis : x y z
#
# Youngs Moduli (GPa) = 84.74590 84.74590 41.89461
#
# Poissons Ratio (x) = 0.30991 0.26640
# Poissons Ratio (y) = 0.30991 0.26640
# Poissons Ratio (z) = 0.53888 0.53888
#
# Static dielectric constant tensor:
#      x y z
#    x 3.706500 0.000000 0.000000 
#    y 0.000000 3.706500 0.000000 
#    z 0.000000 0.000000 3.744660 
# 
# 
# High freq. dielectric constant tensor:
#      x y z
#    x 1.801510 0.000000 0.000000 
#    y 0.000000 1.801510 0.000000 
#    z 0.000000 0.000000 1.793760 
# 
# From -- ./inp_files/11327.got.cif
#   From: 2010.03.12/outbox.cif.g09.slc.cpg/sg91_6_cif.got.tgz:11327.got - 2010.04.08 20:27:58.
