data_PCOD8304577
_publ_section_title
;
Structure prediction by ZEFSAII (Michael W. Deem and Ramdas Pophale) SiO2 
 PCOD8304577
Probable space group: P 4 21 2
;
_chemical_formula_sum "Si O2"
_cell_formula_units_Z 40
_cell_length_a 14.298561
_cell_length_b 14.298561
_cell_length_c 8.195053
_cell_angle_alpha 90.000000
_cell_angle_beta 90.000000
_cell_angle_gamma 90.000000
_cell_volume 1675.469134
_symmetry_space_group_name_H-M "P 4 21 2"
_symmetry_group_IT_number 90
_symmetry_cell_setting 'tetragonal'
loop_
_space_group_symop_operation_xyz
x,y,z
1/2-y,1/2+x,z
-x,-y,z
1/2+y,1/2-x,z
1/2+x,1/2-y,-z
1/2-x,1/2+y,-z
y,x,-z
-y,-x,-z
loop_
_atom_site_type_symbol
_atom_site_label
_atom_site_fract_x
_atom_site_fract_y
_atom_site_fract_z
Si Si1 0.424552 0.383974 0.323514
Si Si2 0.882603 0.594099 0.320322
Si Si3 0.276764 0.408632 0.090700
Si Si4 0.578967 0.300635 0.124680
Si Si5 0.196730 0.312003 0.618400
O O1 0.431439 0.431439 0.500000
O O2 0.358152 0.449355 0.211200
O O3 0.528520 0.373913 0.249169
O O4 0.371541 0.284600 0.322674
O O5 0.869594 0.484902 0.282657
O O6 0.809090 0.637953 0.192259
O O7 0.863679 0.616997 0.508689
O O8 0.319151 0.319151 0.000000
O O9 0.248175 0.494512 0.972586
O O10 0.636748 0.223980 0.227675
O O11 0.646047 0.353954 0.000000
O O12 0.226191 0.226191 0.500000
#
# Coordination Sequence:
#
# PCOD8304577 Si02
#       5
#     8   8   8   8   8
#     4  10  21  44  72  97 144 195 235 299 359 429
#     4  11  24  44  73 107 143 184 244 308 360 432
#     4  10  23  43  69 104 152 188 237 298 372 425
#     4  11  27  42  68 113 145 186 249 303 360 437
#     4  11  23  44  75 102 135 192 253 291 359 441
#
# _framework density 23.873909999999999
#
# number of rings (size 3 to 8) (size 9 to 14) (size 15 to 20)
#    0.000    1.400    4.000    1.200    2.800    9.200 
#    0.000    1.000    0.000    2.400    0.000    0.000 
#    0.000    0.000    0.000    0.000    0.000    0.000 
#
# Total GULP energy -495811.629412 kJ/mol
# GULP energy per Si atom -12395.290735 kJ/mol
# Density = 2.381957 g / cm^3
# Si number density = 23.873910 Si / 1000 Ang^3
#
#
#
# Elastic Constant Matrix: (Units=GPa)
#
#
# Indices 1 2 3 4 5 6 
#
# 1 107.5320 32.0354 55.9112 0.0000 0.0000 0.0000
# 2 32.0354 107.5330 55.9116 0.0000 0.0000 0.0000
# 3 55.9112 55.9116 172.7268 0.0000 0.0000 0.0000
# 4 0.0000 0.0000 0.0000 51.1072 0.0000 0.0000
# 5 0.0000 0.0000 0.0000 0.0000 51.1070 0.0000
# 6 0.0000 0.0000 0.0000 0.0000 0.0000 -21.5759
#
#
#
# Elastic Compliance Matrix: (Units=1/GPa)
#
#
# Indices 1 2 3 4 5 6 
#
# 1 0.011460 -0.001786 -0.003131 0.000000 0.000000 0.000000
# 2 -0.001786 0.011460 -0.003131 0.000000 0.000000 0.000000
# 3 -0.003131 -0.003131 0.007817 0.000000 0.000000 0.000000
# 4 0.000000 0.000000 0.000000 0.019567 0.000000 0.000000
# 5 0.000000 0.000000 0.000000 0.000000 0.019567 0.000000
# 6 0.000000 0.000000 0.000000 0.000000 0.000000 -0.046348
#
#
# Mechanical properties :
#
#
# Convention : Reuss Voigt Hill
#
# Bulk Modulus (GPa) = 68.31138 75.05647 71.68393
# Shear Modulus (GPa) = 112.36329 32.38992 72.37660
#
# Velocity S-wave (km/s) = 6.86786 3.68735 5.51199
# Velocity P-wave (km/s) = 9.56899 7.04526 8.40241
#
# Compressibility (1/GPa) = 0.01463885
#
# Stress axis : x y z
#
# Youngs Moduli (GPa) = 87.26185 87.26259 127.93012
#
# Poissons Ratio (x) = 0.15584 0.40060
# Poissons Ratio (y) = 0.15583 0.40060
# Poissons Ratio (z) = 0.27325 0.27326
#
# Static dielectric constant tensor:
#      x y z
#    x 4.137260 0.000000 0.000000 
#    y 0.000000 4.137260 0.000000 
#    z 0.000000 0.000000 4.888850 
# 
# 
# High freq. dielectric constant tensor:
#      x y z
#    x 1.934590 0.000000 0.000000 
#    y 0.000000 1.934590 0.000000 
#    z 0.000000 0.000000 1.971970 
# 
# From -- ./inp_files/1271.got.cif
#   From: 2010.03.12/outbox.cif.g09.slc.cpg/sg90_1_cif.got.tgz:1271.got - 2010.04.08 20:26:03.
