data_PCOD8304071
_publ_section_title
;
Structure prediction by ZEFSAII (Michael W. Deem and Ramdas Pophale) SiO2 
 PCOD8304071
Probable space group: I 4/M
;
_chemical_formula_sum "Si O2"
_cell_formula_units_Z 88
_cell_length_a 12.089448
_cell_length_b 12.089448
_cell_length_c 31.863347
_cell_angle_alpha 90.000000
_cell_angle_beta 90.000000
_cell_angle_gamma 90.000000
_cell_volume 4656.979609
_symmetry_space_group_name_H-M "I 4/M"
_symmetry_group_IT_number 87
_symmetry_cell_setting 'tetragonal'
loop_
_space_group_symop_operation_xyz
x,y,z
-y,x,z
-x,-y,z
y,-x,z
-x,-y,-z
y,-x,-z
x,y,-z
-y,x,-z
1/2+x,1/2+y,1/2+z
1/2-y,1/2+x,1/2+z
1/2-x,1/2-y,1/2+z
1/2+y,1/2-x,1/2+z
1/2-x,1/2-y,1/2-z
1/2+y,1/2-x,1/2-z
1/2+x,1/2+y,1/2-z
1/2-y,1/2+x,1/2-z
loop_
_atom_site_type_symbol
_atom_site_label
_atom_site_fract_x
_atom_site_fract_y
_atom_site_fract_z
Si Si1 0.551757 0.673024 0.210311
Si Si2 0.770311 0.376744 0.871517
Si Si3 0.600886 0.226100 0.086939
Si Si4 0.040376 0.178093 0.194271
Si Si5 0.486523 0.123353 0.634233
Si Si6 0.834899 0.917545 0.500000
O O1 0.427527 0.634832 0.201760
O O2 0.587637 0.767862 0.177659
O O3 0.557985 0.716785 0.257809
O O4 0.689287 0.277650 0.881484
O O5 0.732070 0.479687 0.900006
O O6 0.894222 0.336990 0.882258
O O7 0.612601 0.094145 0.093848
O O8 0.621818 0.261854 0.039331
O O9 0.917738 0.130295 0.185031
O O10 0.062340 0.287113 0.166803
O O11 0.500000 0.000000 0.654738
O O12 0.951019 0.853509 0.500000
#
# Coordination Sequence:
#
# PCOD8304071 Si02
#       6
#    16  16  16  16  16   8
#     4   9  17  31  56  85 109 144 199 254 293 322
#     4  11  20  36  58  83 118 156 187 234 289 345
#     4  11  22  38  60  87 117 147 185 233 289 352
#     4   9  18  37  61  82 106 149 213 260 275 310
#     4  10  23  39  51  79 120 163 189 220 284 355
#     4  11  22  38  65  99 117 132 183 246 295 345
#
# _framework density 18.896367000000001
#
# number of rings (size 3 to 8) (size 9 to 14) (size 15 to 20)
#    0.000    1.909    3.636    2.182    0.000    0.364 
#    6.545    7.727    0.000    0.000    0.000    0.000 
#    0.000    4.364    0.000    0.000    0.000    0.000 
#
# Total GULP energy -545452.096889 kJ/mol
# GULP energy per Si atom -12396.638566 kJ/mol
# Density = 1.885336 g / cm^3
# Si number density = 18.896367 Si / 1000 Ang^3
#
#
#
# Elastic Constant Matrix: (Units=GPa)
#
#
# Indices 1 2 3 4 5 6 
#
# 1 92.0223 22.0865 38.2766 0.0000 0.0000 0.5647
# 2 22.0865 92.0223 38.2766 0.0000 0.0000 -0.5647
# 3 38.2766 38.2766 106.7424 0.0000 0.0000 0.0000
# 4 0.0000 0.0000 0.0000 24.7592 0.0000 0.0000
# 5 0.0000 0.0000 0.0000 0.0000 24.7592 0.0000
# 6 0.5647 -0.5647 0.0000 0.0000 0.0000 18.4208
#
#
#
# Elastic Compliance Matrix: (Units=1/GPa)
#
#
# Indices 1 2 3 4 5 6 
#
# 1 0.012923 -0.001383 -0.004138 0.000000 0.000000 -0.000439
# 2 -0.001383 0.012923 -0.004138 0.000000 0.000000 0.000439
# 3 -0.004138 -0.004138 0.012336 0.000000 0.000000 0.000000
# 4 0.000000 0.000000 0.000000 0.040389 0.000000 0.000000
# 5 0.000000 0.000000 0.000000 0.000000 0.040389 0.000000
# 6 -0.000439 0.000439 0.000000 0.000000 0.000000 0.054313
#
#
# Mechanical properties :
#
#
# Convention : Reuss Voigt Hill
#
# Bulk Modulus (GPa) = 53.01279 54.22961 53.62120
# Shear Modulus (GPa) = 25.14090 26.39764 25.76927
#
# Velocity S-wave (km/s) = 3.65151 3.74166 3.69686
# Velocity P-wave (km/s) = 6.77447 6.88676 6.83084
#
# Compressibility (1/GPa) = 0.01886337
#
# Stress axis : x y z
#
# Youngs Moduli (GPa) = 77.38271 77.38272 81.06345
#
# Poissons Ratio (x) = 0.10703 0.33544
# Poissons Ratio (y) = 0.10703 0.33544
# Poissons Ratio (z) = 0.32021 0.32021
#
# Static dielectric constant tensor:
#      x y z
#    x 3.448910 0.000000 0.000000 
#    y 0.000000 3.448910 0.000000 
#    z 0.000000 0.000000 3.210020 
# 
# 
# High freq. dielectric constant tensor:
#      x y z
#    x 1.734010 0.000000 0.000000 
#    y 0.000000 1.734010 0.000000 
#    z 0.000000 0.000000 1.709070 
# 
# From -- ./inp_files/6580.got.cif
#   From: 2010.03.12/outbox.cif.g09.slc.cpg/sg87_4_cif.got.tgz:6580.got - 2010.04.08 20:16:13.
