data_PCOD8304486
_publ_section_title
;
Structure prediction by ZEFSAII (Michael W. Deem and Ramdas Pophale) SiO2 
 PCOD8304486
Probable space group: P 4 2 2
;
_chemical_formula_sum "Si O2"
_cell_formula_units_Z 60
_cell_length_a 12.042683
_cell_length_b 12.042683
_cell_length_c 20.703463
_cell_angle_alpha 90.000000
_cell_angle_beta 90.000000
_cell_angle_gamma 90.000000
_cell_volume 3002.544852
_symmetry_space_group_name_H-M "P 4 2 2"
_symmetry_group_IT_number 89
_symmetry_cell_setting 'tetragonal'
loop_
_space_group_symop_operation_xyz
x,y,z
-y,x,z
-x,-y,z
y,-x,z
x,-y,-z
-x,y,-z
y,x,-z
-y,-x,-z
loop_
_atom_site_type_symbol
_atom_site_label
_atom_site_fract_x
_atom_site_fract_y
_atom_site_fract_z
Si Si1 0.679584 0.522887 0.590979
Si Si2 0.095319 0.382174 0.553282
Si Si3 0.735952 0.314464 0.198840
Si Si4 0.847005 0.093462 0.749393
Si Si5 0.000000 0.500000 0.331970
Si Si6 0.772018 0.527934 0.271771
Si Si7 0.629701 0.370941 0.928227
Si Si8 0.844241 0.912451 0.400777
O O1 0.595008 0.622999 0.572852
O O2 0.794578 0.538957 0.550172
O O3 0.704789 0.520414 0.667068
O O4 0.036039 0.397831 0.622541
O O5 0.135906 0.254296 0.554369
O O6 0.000000 0.409563 0.500000
O O7 0.850153 0.247918 0.207744
O O8 0.756417 0.443753 0.212667
O O9 0.647172 0.270879 0.250476
O O10 0.696740 0.300549 0.124955
O O11 0.819291 0.108204 0.674185
O O12 0.963939 0.150207 0.766760
O O13 0.098623 0.456858 0.287190
O O14 0.653498 0.500234 0.918672
O O15 0.667165 0.332836 0.000000
O O16 0.957560 0.851561 0.418851
#
# Coordination Sequence:
#
# PCOD8304486 Si02
#       8
#     8   8   8   8   4   8   8   8
#     4  10  21  40  65  94 124 161 198 244 313 379
#     4  11  24  42  64  87 118 158 205 255 306 372
#     4  12  21  33  59  96 126 165 202 257 299 367
#     4   9  20  37  59  88 123 161 205 253 316 378
#     4  10  25  42  56  86 119 152 192 256 312 364
#     4  11  23  34  60  93 130 156 200 250 310 369
#     4   9  18  34  54  82 127 176 213 247 292 354
#     4   9  20  38  61  87 115 149 195 254 314 367
#
# _framework density 19.983049999999999
#
# number of rings (size 3 to 8) (size 9 to 14) (size 15 to 20)
#    0.000    1.867    2.667    3.000    5.600    1.867 
#    0.000    2.000    0.000    1.600    0.000   18.667 
#    0.000    0.000    0.000    0.000    0.000    0.000 
#
# Total GULP energy -743807.346104 kJ/mol
# GULP energy per Si atom -12396.789102 kJ/mol
# Density = 1.993757 g / cm^3
# Si number density = 19.983050 Si / 1000 Ang^3
#
#
#
# Elastic Constant Matrix: (Units=GPa)
#
#
# Indices 1 2 3 4 5 6 
#
# 1 97.6549 28.7411 33.3948 0.0000 0.0000 0.0000
# 2 28.7411 97.6555 33.3949 0.0000 0.0000 0.0000
# 3 33.3948 33.3949 88.1049 0.0000 0.0000 0.0000
# 4 0.0000 0.0000 0.0000 23.7714 0.0000 0.0000
# 5 0.0000 0.0000 0.0000 0.0000 23.7713 0.0000
# 6 0.0000 0.0000 0.0000 0.0000 0.0000 29.5292
#
#
#
# Elastic Compliance Matrix: (Units=1/GPa)
#
#
# Indices 1 2 3 4 5 6 
#
# 1 0.012202 -0.002309 -0.003750 0.000000 0.000000 0.000000
# 2 -0.002309 0.012202 -0.003750 0.000000 0.000000 0.000000
# 3 -0.003750 -0.003750 0.014193 0.000000 0.000000 0.000000
# 4 0.000000 0.000000 0.000000 0.042067 0.000000 0.000000
# 5 0.000000 0.000000 0.000000 0.000000 0.042068 0.000000
# 6 0.000000 0.000000 0.000000 0.000000 0.000000 0.033865
#
#
# Mechanical properties :
#
#
# Convention : Reuss Voigt Hill
#
# Bulk Modulus (GPa) = 52.68812 52.71965 52.70389
# Shear Modulus (GPa) = 27.39127 27.94002 27.66564
#
# Velocity S-wave (km/s) = 3.70635 3.74329 3.72486
# Velocity P-wave (km/s) = 6.68877 6.71732 6.70306
#
# Compressibility (1/GPa) = 0.01897961
#
# Stress axis : x y z
#
# Youngs Moduli (GPa) = 81.95386 81.95429 70.45852
#
# Poissons Ratio (x) = 0.18922 0.26421
# Poissons Ratio (y) = 0.18922 0.26421
# Poissons Ratio (z) = 0.30731 0.30731
#
# Static dielectric constant tensor:
#      x y z
#    x 3.656260 0.000000 0.000000 
#    y 0.000000 3.656260 0.000000 
#    z 0.000000 0.000000 3.383780 
# 
# 
# High freq. dielectric constant tensor:
#      x y z
#    x 1.780630 0.000000 0.000000 
#    y 0.000000 1.780630 0.000000 
#    z 0.000000 0.000000 1.747700 
# 
# From -- ./inp_files/2661.got.cif
#   From: 2010.03.12/outbox.cif.g09.slc.cpg/sg89_2_cif.got.tgz:2661.got - 2010.04.08 20:24:03.
