data_PCOD8304460
_publ_section_title
;
Structure prediction by ZEFSAII (Michael W. Deem and Ramdas Pophale) SiO2 
 PCOD8304460
Probable space group: P 4 2 2
;
_chemical_formula_sum "Si O2"
_cell_formula_units_Z 40
_cell_length_a 15.150253
_cell_length_b 15.150253
_cell_length_c 8.566632
_cell_angle_alpha 90.000000
_cell_angle_beta 90.000000
_cell_angle_gamma 90.000000
_cell_volume 1966.300465
_symmetry_space_group_name_H-M "P 4 2 2"
_symmetry_group_IT_number 89
_symmetry_cell_setting 'tetragonal'
loop_
_space_group_symop_operation_xyz
x,y,z
-y,x,z
-x,-y,z
y,-x,z
x,-y,-z
-x,y,-z
y,x,-z
-y,-x,-z
loop_
_atom_site_type_symbol
_atom_site_label
_atom_site_fract_x
_atom_site_fract_y
_atom_site_fract_z
Si Si1 0.444583 0.927608 0.338289
Si Si2 0.736204 0.516792 0.316956
Si Si3 0.806754 0.821401 0.313122
Si Si4 0.988105 0.755670 0.330438
Si Si5 0.685810 0.665890 0.817282
O O1 0.500000 0.918698 0.500000
O O2 0.442817 0.830902 0.265117
O O3 0.500000 0.000000 0.236339
O O4 0.346451 0.964268 0.354513
O O5 0.725292 0.500000 0.500000
O O6 0.727546 0.428085 0.219700
O O7 0.665931 0.589938 0.264546
O O8 0.808952 0.808952 0.500000
O O9 0.772156 0.916724 0.249232
O O10 0.742049 0.747807 0.248390
O O11 0.906130 0.804934 0.245466
O O12 0.000000 0.799549 0.500000
O O13 0.676520 0.676520 0.000000
#
# Coordination Sequence:
#
# PCOD8304460 Si02
#       5
#     8   8   8   8   8
#     4  10  17  29  57  90 121 150 203 264 321 364
#     4  11  23  40  67  92 120 165 218 257 308 379
#     4  10  21  37  62  91 126 169 219 265 319 379
#     4  10  18  33  57  93 128 162 210 274 323 367
#     4  12  25  42  61  92 134 169 204 260 321 379
#
# _framework density 20.342770999999999
#
# number of rings (size 3 to 8) (size 9 to 14) (size 15 to 20)
#    0.000    1.400    4.000    3.600    5.600    0.800 
#    0.000    5.000    0.000    1.200    0.000    1.400 
#    0.000    0.000    0.000    0.000    0.000    0.000 
#
# Total GULP energy -495615.716001 kJ/mol
# GULP energy per Si atom -12390.392900 kJ/mol
# Density = 2.029647 g / cm^3
# Si number density = 20.342771 Si / 1000 Ang^3
#
#
#
# Elastic Constant Matrix: (Units=GPa)
#
#
# Indices 1 2 3 4 5 6 
#
# 1 154.0885 61.7838 38.6747 0.0000 0.0000 0.0000
# 2 61.7838 154.0885 38.6747 0.0000 0.0000 0.0000
# 3 38.6747 38.6747 64.4885 0.0000 0.0000 0.0000
# 4 0.0000 0.0000 0.0000 -108.2479 0.0000 0.0000
# 5 0.0000 0.0000 0.0000 0.0000 -108.2479 0.0000
# 6 0.0000 0.0000 0.0000 0.0000 0.0000 43.6301
#
#
#
# Elastic Compliance Matrix: (Units=1/GPa)
#
#
# Indices 1 2 3 4 5 6 
#
# 1 0.008367 -0.002467 -0.003538 0.000000 0.000000 0.000000
# 2 -0.002467 0.008367 -0.003538 0.000000 0.000000 0.000000
# 3 -0.003538 -0.003538 0.019751 0.000000 0.000000 0.000000
# 4 0.000000 0.000000 0.000000 -0.009238 0.000000 0.000000
# 5 0.000000 0.000000 0.000000 0.000000 -0.009238 0.000000
# 6 0.000000 0.000000 0.000000 0.000000 0.000000 0.022920
#
#
# Mechanical properties :
#
#
# Convention : Reuss Voigt Hill
#
# Bulk Modulus (GPa) = 57.47981 72.32574 64.90278
# Shear Modulus (GPa) = 75.97060 -19.00432 28.48314
#
# Velocity S-wave (km/s) = 6.11771 -3.05979 3.74593
# Velocity P-wave (km/s) = 8.84414 4.81120 7.11921
#
# Compressibility (1/GPa) = 0.01739741
#
# Stress axis : x y z
#
# Youngs Moduli (GPa) = 119.51772 119.51772 50.63096
#
# Poissons Ratio (x) = 0.29482 0.17916
# Poissons Ratio (y) = 0.29482 0.17916
# Poissons Ratio (z) = 0.42291 0.42291
#
# Static dielectric constant tensor:
#      x y z
#    x 4.185250 0.000000 0.000000 
#    y 0.000000 4.185250 0.000000 
#    z 0.000000 0.000000 3.170930 
# 
# 
# High freq. dielectric constant tensor:
#      x y z
#    x 1.814730 0.000000 0.000000 
#    y 0.000000 1.814730 0.000000 
#    z 0.000000 0.000000 1.735400 
# 
# From -- ./inp_files/1006.got.cif
#   From: 2010.03.12/outbox.cif.g09.slc.cpg/sg89_1_cif.got.tgz:1006.got - 2010.04.08 20:24:03.
