data_PCOD8304810
_publ_section_title
;
Structure prediction by ZEFSAII (Michael W. Deem and Ramdas Pophale) SiO2 
 PCOD8304810
Probable space group: P 41 2 2
;
_chemical_formula_sum "Si O2"
_cell_formula_units_Z 64
_cell_length_a 18.868500
_cell_length_b 18.868500
_cell_length_c 10.044395
_cell_angle_alpha 90.000000
_cell_angle_beta 90.000000
_cell_angle_gamma 90.000000
_cell_volume 3576.008443
_symmetry_space_group_name_H-M "P 41 2 2"
_symmetry_group_IT_number 91
_symmetry_cell_setting 'tetragonal'
loop_
_space_group_symop_operation_xyz
x,y,z
-y,x,1/4+z
-x,-y,1/2+z
y,-x,3/4+z
x,-y,1/2-z
-x,y,-z
y,x,3/4-z
-y,-x,1/4-z
loop_
_atom_site_type_symbol
_atom_site_label
_atom_site_fract_x
_atom_site_fract_y
_atom_site_fract_z
Si Si1 0.067187 0.339280 0.590949
Si Si2 0.303819 0.632967 0.008093
Si Si3 0.940827 0.352964 0.102886
Si Si4 0.800552 0.240332 0.486832
Si Si5 0.496778 0.236229 0.655802
Si Si6 0.271787 0.802305 0.737520
Si Si7 0.882603 0.499420 0.397711
Si Si8 0.669277 0.374557 0.989216
O O1 0.046439 0.326726 0.745465
O O2 0.128417 0.284034 0.547814
O O3 0.089327 0.421250 0.566020
O O4 0.000000 0.321676 0.500000
O O5 0.362324 0.637677 0.125000
O O6 0.245594 0.575386 0.040252
O O7 0.265096 0.707175 0.996181
O O8 0.343326 0.615560 0.870411
O O9 0.869175 0.318925 0.048902
O O10 0.942423 0.439264 0.105697
O O11 0.000000 0.325930 0.000000
O O12 0.804808 0.195192 0.625000
O O13 0.775929 0.186319 0.370300
O O14 0.500000 0.218634 0.500000
O O15 0.469650 0.169384 0.739122
O O16 0.451837 0.306243 0.689576
O O17 0.214104 0.785897 0.625000
O O18 0.326476 0.738116 0.747942
O O19 0.846305 0.500000 0.250000
O O20 0.624041 0.375960 0.125000
#
# Coordination Sequence:
#
# PCOD8304810 Si02
#       8
#     8   8   8   8   8   8   8   8
#     4  11  23  39  55  81 121 160 190 231 282 334
#     4  10  20  36  53  79 110 134 180 239 292 333
#     4  11  23  38  57  82 117 160 195 228 278 341
#     4  10  21  34  57  83 110 146 185 237 288 327
#     4  12  22  34  57  82 110 140 187 236 288 348
#     4  10  19  36  57  80 111 140 188 241 278 319
#     4  10  23  37  54  81 116 158 193 231 273 331
#     4  10  22  34  56  82 100 139 186 236 289 341
#
# _framework density 17.897048999999999
#
# number of rings (size 3 to 8) (size 9 to 14) (size 15 to 20)
#    0.000    1.500    5.000    0.375    3.500    1.000 
#    0.000    0.000    0.000    2.250    0.000    0.000 
#    0.000    3.000    0.000    0.000    0.000    0.000 
#
# Total GULP energy -793096.226387 kJ/mol
# GULP energy per Si atom -12392.128537 kJ/mol
# Density = 1.785631 g / cm^3
# Si number density = 17.897049 Si / 1000 Ang^3
#
#
#
# Elastic Constant Matrix: (Units=GPa)
#
#
# Indices 1 2 3 4 5 6 
#
# 1 48.2863 21.4224 40.8323 0.0000 0.0000 0.0000
# 2 21.4224 48.2866 40.8328 0.0000 0.0000 0.0000
# 3 40.8323 40.8328 170.6768 0.0000 0.0000 0.0000
# 4 0.0000 0.0000 0.0000 24.1500 0.0000 0.0000
# 5 0.0000 0.0000 0.0000 0.0000 24.1513 0.0000
# 6 0.0000 0.0000 0.0000 0.0000 0.0000 16.0072
#
#
#
# Elastic Compliance Matrix: (Units=1/GPa)
#
#
# Indices 1 2 3 4 5 6 
#
# 1 0.028578 -0.008646 -0.004768 0.000000 0.000000 0.000000
# 2 -0.008646 0.028578 -0.004768 0.000000 0.000000 0.000000
# 3 -0.004768 -0.004768 0.008141 0.000000 0.000000 0.000000
# 4 0.000000 0.000000 0.000000 0.041408 0.000000 0.000000
# 5 0.000000 0.000000 0.000000 0.000000 0.041406 0.000000
# 6 0.000000 0.000000 0.000000 0.000000 0.000000 0.062472
#
#
# Mechanical properties :
#
#
# Convention : Reuss Voigt Hill
#
# Bulk Modulus (GPa) = 34.56588 52.60272 43.58430
# Shear Modulus (GPa) = 19.48618 23.80586 21.64602
#
# Velocity S-wave (km/s) = 3.30327 3.65109 3.48152
# Velocity P-wave (km/s) = 5.82275 6.87238 6.36922
#
# Compressibility (1/GPa) = 0.02893026
#
# Stress axis : x y z
#
# Youngs Moduli (GPa) = 34.99185 34.99189 122.84084
#
# Poissons Ratio (x) = 0.30255 0.58575
# Poissons Ratio (y) = 0.30255 0.58576
# Poissons Ratio (z) = 0.16685 0.16686
#
# Static dielectric constant tensor:
#      x y z
#    x 3.074970 0.000000 0.000000 
#    y 0.000000 3.074950 0.000000 
#    z 0.000000 0.000000 3.838600 
# 
# 
# High freq. dielectric constant tensor:
#      x y z
#    x 1.660300 0.000000 0.000000 
#    y 0.000000 1.660300 0.000000 
#    z 0.000000 0.000000 1.722140 
# 
# From -- ./inp_files/15416.got.cif
#   From: 2010.03.12/outbox.cif.g09.slc.cpg/sg91_8_cif.got.tgz:15416.got - 2010.04.08 20:27:58.
