data_PCOD8304594
_publ_section_title
;
Structure prediction by ZEFSAII (Michael W. Deem and Ramdas Pophale) SiO2 
 PCOD8304594
Probable space group: P 4 21 2
;
_chemical_formula_sum "Si O2"
_cell_formula_units_Z 48
_cell_length_a 8.237865
_cell_length_b 8.237865
_cell_length_c 33.067844
_cell_angle_alpha 90.000000
_cell_angle_beta 90.000000
_cell_angle_gamma 90.000000
_cell_volume 2244.063910
_symmetry_space_group_name_H-M "P 4 21 2"
_symmetry_group_IT_number 90
_symmetry_cell_setting 'tetragonal'
loop_
_space_group_symop_operation_xyz
x,y,z
1/2-y,1/2+x,z
-x,-y,z
1/2+y,1/2-x,z
1/2+x,1/2-y,-z
1/2-x,1/2+y,-z
y,x,-z
-y,-x,-z
loop_
_atom_site_type_symbol
_atom_site_label
_atom_site_fract_x
_atom_site_fract_y
_atom_site_fract_z
Si Si1 0.264091 0.541468 0.030514
Si Si2 0.750765 0.601216 0.619152
Si Si3 0.000000 0.000000 0.759542
Si Si4 0.500000 0.500000 0.101778
Si Si5 0.756742 0.617440 0.459621
Si Si6 0.243052 0.922158 0.693437
Si Si7 0.239429 0.038352 0.173023
O O1 0.181841 0.367995 0.023159
O O2 0.337814 0.516704 0.075068
O O3 0.411728 0.588273 0.000000
O O4 0.791386 0.412249 0.623282
O O5 0.667708 0.638246 0.576515
O O6 0.618879 0.641821 0.653402
O O7 0.128750 0.900592 0.732366
O O8 0.913826 0.874816 0.789579
O O9 0.478462 0.656407 0.129643
O O10 0.786448 0.425630 0.457439
O O11 0.660601 0.660601 0.500000
O O12 0.392421 0.799380 0.694063
O O13 0.363894 0.182398 0.176792
#
# Coordination Sequence:
#
# PCOD8304594 Si02
#       7
#     8   8   4   4   8   8   8
#     4  11  23  39  61  90 127 172 223 280 338 397
#     4  11  24  41  62  90 123 160 204 253 307 369
#     4  11  22  40  63  88 120 156 197 248 304 369
#     4  11  21  38  61  88 124 164 213 266 325 389
#     4  11  24  41  62  90 123 161 207 257 310 369
#     4  11  23  39  61  89 120 156 198 246 303 367
#     4  10  22  39  61  89 121 159 203 254 313 378
#
# _framework density 21.389766000000002
#
# number of rings (size 3 to 8) (size 9 to 14) (size 15 to 20)
#    0.000    1.167    0.000    6.250    0.000    6.333 
#    0.000    3.333    0.000    8.000    0.000    0.000 
#    0.000    0.000    0.000    0.000    0.000    0.000 
#
# Total GULP energy -594955.695456 kJ/mol
# GULP energy per Si atom -12394.910322 kJ/mol
# Density = 2.134108 g / cm^3
# Si number density = 21.389766 Si / 1000 Ang^3
#
#
#
# Elastic Constant Matrix: (Units=GPa)
#
#
# Indices 1 2 3 4 5 6 
#
# 1 76.3024 28.7441 44.9853 0.0000 0.0000 0.0000
# 2 28.7441 76.3035 44.9852 0.0000 0.0000 0.0000
# 3 44.9853 44.9852 162.7181 0.0000 0.0000 0.0000
# 4 0.0000 0.0000 0.0000 87.5875 0.0000 0.0000
# 5 0.0000 0.0000 0.0000 0.0000 87.5886 0.0000
# 6 0.0000 0.0000 0.0000 0.0000 0.0000 36.0620
#
#
#
# Elastic Compliance Matrix: (Units=1/GPa)
#
#
# Indices 1 2 3 4 5 6 
#
# 1 0.016750 -0.004277 -0.003448 0.000000 0.000000 0.000000
# 2 -0.004277 0.016750 -0.003448 0.000000 0.000000 0.000000
# 3 -0.003448 -0.003448 0.008052 0.000000 0.000000 0.000000
# 4 0.000000 0.000000 0.000000 0.011417 0.000000 0.000000
# 5 0.000000 0.000000 0.000000 0.000000 0.011417 0.000000
# 6 0.000000 0.000000 0.000000 0.000000 0.000000 0.027730
#
#
# Mechanical properties :
#
#
# Convention : Reuss Voigt Hill
#
# Bulk Modulus (GPa) = 52.06989 61.41702 56.74345
# Shear Modulus (GPa) = 41.36870 55.35491 48.36181
#
# Velocity S-wave (km/s) = 4.40255 5.09267 4.76013
# Velocity P-wave (km/s) = 7.08798 7.95965 7.53643
#
# Compressibility (1/GPa) = 0.01920496
#
# Stress axis : x y z
#
# Youngs Moduli (GPa) = 59.70187 59.70291 124.18924
#
# Poissons Ratio (x) = 0.25534 0.42825
# Poissons Ratio (y) = 0.25533 0.42823
# Poissons Ratio (z) = 0.20587 0.20587
#
# Static dielectric constant tensor:
#      x y z
#    x 3.865830 0.000000 0.000000 
#    y 0.000000 3.865820 0.000000 
#    z 0.000000 0.000000 3.889220 
# 
# 
# High freq. dielectric constant tensor:
#      x y z
#    x 1.853010 0.000000 0.000000 
#    y 0.000000 1.853010 0.000000 
#    z 0.000000 0.000000 1.847770 
# 
# From -- ./inp_files/3106.got.cif
#   From: 2010.03.12/outbox.cif.g09.slc.cpg/sg90_2_cif.got.tgz:3106.got - 2010.04.08 20:26:03.
