data_PCOD8304287
_publ_section_title
;
Structure prediction by ZEFSAII (Michael W. Deem and Ramdas Pophale) SiO2 
 PCOD8304287
Probable space group: I 41/A
;
_chemical_formula_sum "Si O2"
_cell_formula_units_Z 112
_cell_length_a 13.742982
_cell_length_b 13.742982
_cell_length_c 23.157686
_cell_angle_alpha 90.000000
_cell_angle_beta 90.000000
_cell_angle_gamma 90.000000
_cell_volume 4373.781832
_symmetry_space_group_name_H-M "I 41/A"
_symmetry_group_IT_number 88
_space_group.IT_coordinate_system_code '2'
_symmetry_cell_setting 'tetragonal'
loop_
_space_group_symop_operation_xyz
x,y,z
3/4-y,1/4+x,1/4+z
-x,1/2-y,z
1/4+y,1/4-x,1/4+z
-x,-y,-z
1/4+y,3/4-x,3/4-z
x,1/2+y,-z
3/4-y,3/4+x,3/4-z
1/2+x,1/2+y,1/2+z
1/4-y,3/4+x,3/4+z
1/2-x,-y,1/2+z
3/4+y,3/4-x,3/4+z
1/2-x,1/2-y,1/2-z
3/4+y,1/4-x,1/4-z
1/2+x,y,1/2-z
1/4-y,1/4+x,1/4-z
loop_
_atom_site_type_symbol
_atom_site_label
_atom_site_fract_x
_atom_site_fract_y
_atom_site_fract_z
Si Si1 0.084456 0.687186 0.580074
Si Si2 0.325374 0.229511 0.560787
Si Si3 0.932643 0.608286 0.371350
Si Si4 0.387713 0.099317 0.463413
Si Si5 0.158920 0.456579 0.237049
Si Si6 0.109350 0.502694 0.519811
Si Si7 0.504793 0.965118 0.641499
O O1 0.023926 0.627242 0.627792
O O2 0.134130 0.615636 0.533333
O O3 0.167479 0.754441 0.608620
O O4 0.000000 0.750000 0.548488
O O5 0.216960 0.181352 0.567076
O O6 0.398033 0.177012 0.515017
O O7 0.304669 0.339367 0.542174
O O8 0.879074 0.707952 0.354368
O O9 0.873210 0.559080 0.422461
O O10 0.483642 0.076181 0.424294
O O11 0.314770 0.149885 0.417337
O O12 0.358855 0.000960 0.496210
O O13 0.203288 0.564908 0.225645
O O14 0.097277 0.428229 0.179875
O O15 0.000000 0.500000 0.500000
#
# Coordination Sequence:
#
# PCOD8304287 Si02
#       7
#    16  16  16  16  16  16  16
#     4  11  23  45  67 106 146 185 253 306 365 445
#     4  10  24  44  71 103 138 194 246 303 368 445
#     4  10  21  38  63  97 141 185 236 292 354 438
#     4  11  26  48  73 105 142 191 249 307 374 445
#     4  11  23  45  69 102 146 192 242 301 380 442
#     4  11  23  38  66 100 142 198 238 300 369 435
#     4  11  26  46  74 108 145 194 247 312 370 453
#
# _framework density 25.607129
#
# number of rings (size 3 to 8) (size 9 to 14) (size 15 to 20)
#    0.000    1.286    2.857    1.714    4.000    2.000 
#    7.714    0.000    0.000    0.000    0.000    0.000 
#    0.000    0.000    0.000    0.000    0.000    0.000 
#
# Total GULP energy -693735.747811 kJ/mol
# GULP energy per Si atom -12388.138354 kJ/mol
# Density = 2.554885 g / cm^3
# Si number density = 25.607129 Si / 1000 Ang^3
#
#
#
# Elastic Constant Matrix: (Units=GPa)
#
#
# Indices 1 2 3 4 5 6 
#
# 1 90.6064 14.0283 18.1807 0.0000 0.0000 0.8108
# 2 14.0283 90.6064 18.1807 0.0000 0.0000 -0.8108
# 3 18.1807 18.1807 53.4927 0.0000 0.0000 0.0000
# 4 0.0000 0.0000 0.0000 37.8501 0.0000 0.0000
# 5 0.0000 0.0000 0.0000 0.0000 37.8501 0.0000
# 6 0.8108 -0.8108 0.0000 0.0000 0.0000 32.9135
#
#
#
# Elastic Compliance Matrix: (Units=1/GPa)
#
#
# Indices 1 2 3 4 5 6 
#
# 1 0.011951 -0.001114 -0.003683 0.000000 0.000000 -0.000322
# 2 -0.001114 0.011951 -0.003683 0.000000 0.000000 0.000322
# 3 -0.003683 -0.003683 0.021198 0.000000 0.000000 0.000000
# 4 0.000000 0.000000 0.000000 0.026420 0.000000 0.000000
# 5 0.000000 0.000000 0.000000 0.000000 0.026420 0.000000
# 6 -0.000322 0.000322 0.000000 0.000000 0.000000 0.030399
#
#
# Mechanical properties :
#
#
# Convention : Reuss Voigt Hill
#
# Bulk Modulus (GPa) = 35.53790 37.27612 36.40701
# Shear Modulus (GPa) = 32.32487 34.01044 33.16766
#
# Velocity S-wave (km/s) = 3.55680 3.64835 3.60286
# Velocity P-wave (km/s) = 5.54761 5.68646 5.61746
#
# Compressibility (1/GPa) = 0.02813897
#
# Stress axis : x y z
#
# Youngs Moduli (GPa) = 83.67362 83.67362 47.17471
#
# Poissons Ratio (x) = 0.09323 0.17375
# Poissons Ratio (y) = 0.09323 0.17375
# Poissons Ratio (z) = 0.30819 0.30819
#
# Static dielectric constant tensor:
#      x y z
#    x 4.667880 0.000000 0.000000 
#    y 0.000000 4.667880 0.000000 
#    z 0.000000 0.000000 4.462400 
# 
# 
# High freq. dielectric constant tensor:
#      x y z
#    x 2.024150 0.000000 0.000000 
#    y 0.000000 2.024150 0.000000 
#    z 0.000000 0.000000 2.010400 
# 
# From -- ./inp_files/5858.got.cif
#   From: 2010.03.12/outbox.cif.g09.slc.cpg/sg88_3_cif.got.tgz:5858.got - 2010.04.08 20:20:55.
