data_PCOD8304481
_publ_section_title
;
Structure prediction by ZEFSAII (Michael W. Deem and Ramdas Pophale) SiO2 
 PCOD8304481
Probable space group: P 4 2 2
;
_chemical_formula_sum "Si O2"
_cell_formula_units_Z 40
_cell_length_a 15.141666
_cell_length_b 15.141666
_cell_length_c 8.521090
_cell_angle_alpha 90.000000
_cell_angle_beta 90.000000
_cell_angle_gamma 90.000000
_cell_volume 1953.630724
_symmetry_space_group_name_H-M "P 4 2 2"
_symmetry_group_IT_number 89
_symmetry_cell_setting 'tetragonal'
loop_
_space_group_symop_operation_xyz
x,y,z
-y,x,z
-x,-y,z
y,-x,z
x,-y,-z
-x,y,-z
y,x,-z
-y,-x,-z
loop_
_atom_site_type_symbol
_atom_site_label
_atom_site_fract_x
_atom_site_fract_y
_atom_site_fract_z
Si Si1 0.309125 0.325719 0.312808
Si Si2 0.756735 0.980904 0.171380
Si Si3 0.254883 0.512753 0.317299
Si Si4 0.552722 0.078065 0.835422
Si Si5 0.188542 0.836236 0.316131
O O1 0.316108 0.316108 0.500000
O O2 0.278127 0.419094 0.240734
O O3 0.408162 0.313804 0.245802
O O4 0.239255 0.254258 0.249896
O O5 0.655520 0.947989 0.151332
O O6 0.821189 0.905919 0.237583
O O7 0.767852 0.068568 0.278280
O O8 0.794454 0.000000 0.000000
O O9 0.270809 0.500000 0.500000
O O10 0.156430 0.543342 0.285582
O O11 0.500000 0.000000 0.750269
O O12 0.500000 0.096892 0.000000
O O13 0.174095 0.825906 0.500000
#
# Coordination Sequence:
#
# PCOD8304481 Si02
#       5
#     8   8   8   8   8
#     4   9  19  35  60  92 130 167 217 269 327 385
#     4  12  24  44  68  95 133 177 214 269 335 395
#     4  10  20  38  60  92 128 172 218 271 326 386
#     4  11  22  40  60  93 129 165 221 269 323 389
#     4  11  24  44  68  99 132 171 225 278 332 396
#
# _framework density 20.474698
#
# number of rings (size 3 to 8) (size 9 to 14) (size 15 to 20)
#    0.000    1.400    4.000    2.400    0.000    1.200 
#    3.600    5.000    0.000    0.000    0.000    1.400 
#    0.000    0.000    0.000    0.000    0.000    0.000 
#
# Total GULP energy -495630.283862 kJ/mol
# GULP energy per Si atom -12390.757097 kJ/mol
# Density = 2.042810 g / cm^3
# Si number density = 20.474698 Si / 1000 Ang^3
#
#
#
# Elastic Constant Matrix: (Units=GPa)
#
#
# Indices 1 2 3 4 5 6 
#
# 1 153.1288 61.9806 27.5146 0.0000 0.0000 0.0000
# 2 61.9806 153.1290 27.5149 0.0000 0.0000 0.0000
# 3 27.5146 27.5149 42.5799 0.0000 0.0000 0.0000
# 4 0.0000 0.0000 0.0000 21.6126 0.0000 0.0000
# 5 0.0000 0.0000 0.0000 0.0000 21.6125 0.0000
# 6 0.0000 0.0000 0.0000 0.0000 0.0000 40.9418
#
#
#
# Elastic Compliance Matrix: (Units=1/GPa)
#
#
# Indices 1 2 3 4 5 6 
#
# 1 0.008270 -0.002701 -0.003599 0.000000 0.000000 0.000000
# 2 -0.002701 0.008270 -0.003599 0.000000 0.000000 0.000000
# 3 -0.003599 -0.003599 0.028136 0.000000 0.000000 0.000000
# 4 0.000000 0.000000 0.000000 0.046269 0.000000 0.000000
# 5 0.000000 0.000000 0.000000 0.000000 0.046270 0.000000
# 6 0.000000 0.000000 0.000000 0.000000 0.000000 0.024425
#
#
# Mechanical properties :
#
#
# Convention : Reuss Voigt Hill
#
# Bulk Modulus (GPa) = 40.19349 64.76200 52.47774
# Shear Modulus (GPa) = 26.35302 32.28855 29.32079
#
# Velocity S-wave (km/s) = 3.59151 3.97545 3.78835
# Velocity P-wave (km/s) = 6.07224 7.26438 6.69490
#
# Compressibility (1/GPa) = 0.02487965
#
# Stress axis : x y z
#
# Youngs Moduli (GPa) = 120.91460 120.91444 35.54104
#
# Poissons Ratio (x) = 0.32657 0.12791
# Poissons Ratio (y) = 0.32657 0.12791
# Poissons Ratio (z) = 0.43516 0.43517
#
# Static dielectric constant tensor:
#      x y z
#    x 4.075030 0.000000 0.000000 
#    y 0.000000 4.075030 0.000000 
#    z 0.000000 0.000000 3.470860 
# 
# 
# High freq. dielectric constant tensor:
#      x y z
#    x 1.814210 0.000000 0.000000 
#    y 0.000000 1.814210 0.000000 
#    z 0.000000 0.000000 1.772580 
# 
# From -- ./inp_files/1040.got.cif
#   From: 2010.03.12/outbox.cif.g09.slc.cpg/sg89_1_cif.got.tgz:1040.got - 2010.04.08 20:24:03.
