data_PCOD8304164
_publ_section_title
;
Structure prediction by ZEFSAII (Michael W. Deem and Ramdas Pophale) SiO2 
 PCOD8304164
Probable space group: I 4/M
;
_chemical_formula_sum "Si O2"
_cell_formula_units_Z 56
_cell_length_a 10.683434
_cell_length_b 10.683434
_cell_length_c 23.438908
_cell_angle_alpha 90.000000
_cell_angle_beta 90.000000
_cell_angle_gamma 90.000000
_cell_volume 2675.217626
_symmetry_space_group_name_H-M "I 4/M"
_symmetry_group_IT_number 87
_symmetry_cell_setting 'tetragonal'
loop_
_space_group_symop_operation_xyz
x,y,z
-y,x,z
-x,-y,z
y,-x,z
-x,-y,-z
y,-x,-z
x,y,-z
-y,x,-z
1/2+x,1/2+y,1/2+z
1/2-y,1/2+x,1/2+z
1/2-x,1/2-y,1/2+z
1/2+y,1/2-x,1/2+z
1/2-x,1/2-y,1/2-z
1/2+y,1/2-x,1/2-z
1/2+x,1/2+y,1/2-z
1/2-y,1/2+x,1/2-z
loop_
_atom_site_type_symbol
_atom_site_label
_atom_site_fract_x
_atom_site_fract_y
_atom_site_fract_z
Si Si1 0.937286 0.623783 0.394956
Si Si2 0.297040 0.469438 0.804982
Si Si3 0.938512 0.801952 0.500000
Si Si4 0.300351 0.452944 0.324489
O O1 0.034755 0.680184 0.348087
O O2 0.909038 0.722175 0.444191
O O3 0.807934 0.583450 0.367001
O O4 0.000000 0.500000 0.421449
O O5 0.395998 0.360288 0.817310
O O6 0.249761 0.450487 0.740516
O O7 0.081702 0.844914 0.500000
O O8 0.408678 0.351994 0.335364
#
# Coordination Sequence:
#
# PCOD8304164 Si02
#       4
#    16  16   8  16
#     4  12  26  38  68 100 130 164 222 274 321 382
#     4   9  20  39  63  93 133 177 218 262 317 378
#     4  11  27  52  74  91 122 170 222 281 333 376
#     4   9  22  41  61  94 139 180 210 255 326 399
#
# _framework density 20.932876
#
# number of rings (size 3 to 8) (size 9 to 14) (size 15 to 20)
#    0.000    1.857    0.000    3.857   12.000    4.571 
#    0.000    0.000    0.000    1.714    0.000    0.000 
#    0.000    0.000    0.000    0.000    0.000    0.000 
#
# Total GULP energy -347242.568449 kJ/mol
# GULP energy per Si atom -12401.520302 kJ/mol
# Density = 2.088523 g / cm^3
# Si number density = 20.932876 Si / 1000 Ang^3
#
#
#
# Elastic Constant Matrix: (Units=GPa)
#
#
# Indices 1 2 3 4 5 6 
#
# 1 83.7374 25.1453 51.9625 0.0000 0.0000 18.5029
# 2 25.1453 83.7374 51.9625 0.0000 0.0000 -18.5029
# 3 51.9625 51.9625 123.4382 0.0000 0.0000 0.0000
# 4 0.0000 0.0000 0.0000 33.5633 0.0000 0.0000
# 5 0.0000 0.0000 0.0000 0.0000 33.5633 0.0000
# 6 18.5029 -18.5029 0.0000 0.0000 0.0000 -13.0607
#
#
#
# Elastic Compliance Matrix: (Units=1/GPa)
#
#
# Indices 1 2 3 4 5 6 
#
# 1 0.012180 0.003173 -0.006463 0.000000 0.000000 0.012761
# 2 0.003173 0.012180 -0.006463 0.000000 0.000000 -0.012761
# 3 -0.006463 -0.006463 0.013543 0.000000 0.000000 0.000000
# 4 0.000000 0.000000 0.000000 0.029794 0.000000 0.000000
# 5 0.000000 0.000000 0.000000 0.000000 0.029794 0.000000
# 6 0.012761 -0.012761 0.000000 0.000000 0.000000 -0.040409
#
#
# Mechanical properties :
#
#
# Convention : Reuss Voigt Hill
#
# Bulk Modulus (GPa) = 54.35825 61.00596 57.68211
# Shear Modulus (GPa) = 60.44402 21.60270 41.02336
#
# Velocity S-wave (km/s) = 5.37939 3.21596 4.43172
# Velocity P-wave (km/s) = 8.03791 6.55719 7.33501
#
# Compressibility (1/GPa) = 0.01839647
#
# Stress axis : x y z
#
# Youngs Moduli (GPa) = 82.10030 82.10030 73.84159
#
# Poissons Ratio (x) = -0.26048 0.47723
# Poissons Ratio (y) = -0.26048 0.47723
# Poissons Ratio (z) = 0.53061 0.53061
#
# Static dielectric constant tensor:
#      x y z
#    x 3.837930 0.000000 0.000000 
#    y 0.000000 3.837930 0.000000 
#    z 0.000000 0.000000 3.650350 
# 
# 
# High freq. dielectric constant tensor:
#      x y z
#    x 1.827100 0.000000 0.000000 
#    y 0.000000 1.827100 0.000000 
#    z 0.000000 0.000000 1.806230 
# 
# From -- ./inp_files/4902.got.cif
#   From: 2010.03.12/outbox.cif.g09.slc.cpg/sg87_3_cif.got.tgz:4902.got - 2010.04.08 20:16:13.
