data_PCOD8304445
_publ_section_title
;
Structure prediction by ZEFSAII (Michael W. Deem and Ramdas Pophale) SiO2 
 PCOD8304445
Probable space group: I 41/A
;
_chemical_formula_sum "Si O2"
_cell_formula_units_Z 84
_cell_length_a 14.781843
_cell_length_b 14.781843
_cell_length_c 20.026618
_cell_angle_alpha 90.000000
_cell_angle_beta 90.000000
_cell_angle_gamma 90.000000
_cell_volume 4375.873759
_symmetry_space_group_name_H-M "I 41/A"
_symmetry_group_IT_number 88
_space_group.IT_coordinate_system_code '2'
_symmetry_cell_setting 'tetragonal'
loop_
_space_group_symop_operation_xyz
x,y,z
3/4-y,1/4+x,1/4+z
-x,1/2-y,z
1/4+y,1/4-x,1/4+z
-x,-y,-z
1/4+y,3/4-x,3/4-z
x,1/2+y,-z
3/4-y,3/4+x,3/4-z
1/2+x,1/2+y,1/2+z
1/4-y,3/4+x,3/4+z
1/2-x,-y,1/2+z
3/4+y,3/4-x,3/4+z
1/2-x,1/2-y,1/2-z
3/4+y,1/4-x,1/4-z
1/2+x,y,1/2-z
1/4-y,1/4+x,1/4-z
loop_
_atom_site_type_symbol
_atom_site_label
_atom_site_fract_x
_atom_site_fract_y
_atom_site_fract_z
Si Si1 0.746132 0.537611 0.088982
Si Si2 0.085391 0.366639 0.870545
Si Si3 0.851149 0.798900 0.471650
Si Si4 0.500000 0.750000 0.125000
Si Si5 0.640966 0.504452 0.226255
Si Si6 0.575277 0.691960 0.442643
O O1 0.852415 0.549094 0.105747
O O2 0.724569 0.633777 0.055605
O O3 0.690457 0.518460 0.156032
O O4 0.725022 0.456518 0.038050
O O5 0.085594 0.363109 0.791317
O O6 0.121898 0.267026 0.893613
O O7 0.983141 0.380985 0.899150
O O8 0.818076 0.696021 0.479243
O O9 0.933352 0.807803 0.420602
O O10 0.609476 0.400131 0.235238
O O11 0.500000 0.750000 0.486668
#
# Coordination Sequence:
#
# PCOD8304445 Si02
#       6
#    16  16  16   4  16  16
#     4  12  24  39  65  96 133 165 225 272 328 389
#     4   9  20  41  61  89 127 172 208 272 317 387
#     4  12  22  41  60  95 136 165 215 261 328 398
#     4  12  24  36  64  92 128 172 200 254 316 408
#     4  12  24  41  66  99 128 179 214 277 330 396
#     4   8  19  40  64  86 125 168 213 265 328 380
#
# _framework density 19.196165000000001
#
# number of rings (size 3 to 8) (size 9 to 14) (size 15 to 20)
#    1.143    0.000    5.714    2.286    0.000    0.762 
#    0.000    3.810    0.000    0.000    4.952    0.000 
#    0.000    0.000    0.000    0.000    0.000    0.000 
#
# Total GULP energy -520311.545410 kJ/mol
# GULP energy per Si atom -12388.370129 kJ/mol
# Density = 1.915247 g / cm^3
# Si number density = 19.196165 Si / 1000 Ang^3
#
#
#
# Elastic Constant Matrix: (Units=GPa)
#
#
# Indices 1 2 3 4 5 6 
#
# 1 80.8322 25.0865 28.1967 0.0000 0.0000 -2.4174
# 2 25.0865 80.8322 28.1967 0.0000 0.0000 2.4174
# 3 28.1967 28.1967 86.6739 0.0000 0.0000 0.0000
# 4 0.0000 0.0000 0.0000 41.8865 0.0000 0.0000
# 5 0.0000 0.0000 0.0000 0.0000 41.8865 0.0000
# 6 -2.4174 2.4174 0.0000 0.0000 0.0000 39.4318
#
#
#
# Elastic Compliance Matrix: (Units=1/GPa)
#
#
# Indices 1 2 3 4 5 6 
#
# 1 0.014727 -0.003308 -0.003715 0.000000 0.000000 0.001106
# 2 -0.003308 0.014727 -0.003715 0.000000 0.000000 -0.001106
# 3 -0.003715 -0.003715 0.013955 0.000000 0.000000 0.000000
# 4 0.000000 0.000000 0.000000 0.023874 0.000000 0.000000
# 5 0.000000 0.000000 0.000000 0.000000 0.023874 0.000000
# 6 0.001106 -0.001106 0.000000 0.000000 0.000000 0.025496
#
#
# Mechanical properties :
#
#
# Convention : Reuss Voigt Hill
#
# Bulk Modulus (GPa) = 45.59283 45.69979 45.64631
# Shear Modulus (GPa) = 34.37893 35.76484 35.07188
#
# Velocity S-wave (km/s) = 4.23653 4.32107 4.27901
# Velocity P-wave (km/s) = 6.90894 6.98241 6.94577
#
# Compressibility (1/GPa) = 0.02193328
#
# Stress axis : x y z
#
# Youngs Moduli (GPa) = 67.90351 67.90351 71.66129
#
# Poissons Ratio (x) = 0.22460 0.26621
# Poissons Ratio (y) = 0.22460 0.26621
# Poissons Ratio (z) = 0.25225 0.25225
#
# Static dielectric constant tensor:
#      x y z
#    x 3.519190 0.000000 0.000000 
#    y 0.000000 3.519190 0.000000 
#    z 0.000000 0.000000 3.290270 
# 
# 
# High freq. dielectric constant tensor:
#      x y z
#    x 1.746250 0.000000 0.000000 
#    y 0.000000 1.746250 0.000000 
#    z 0.000000 0.000000 1.729500 
# 
# From -- ./inp_files/4599.got.cif
#   From: 2010.03.12/outbox.cif.g09.slc.cpg/sg88_3_cif.got.tgz:4599.got - 2010.04.08 20:20:55.
