data_PCOD8304234
_publ_section_title
;
Structure prediction by ZEFSAII (Michael W. Deem and Ramdas Pophale) SiO2 
 PCOD8304234
Probable space group: I 41/A
;
_chemical_formula_sum "Si O2"
_cell_formula_units_Z 72
_cell_length_a 10.731635
_cell_length_b 10.731635
_cell_length_c 27.563311
_cell_angle_alpha 90.000000
_cell_angle_beta 90.000000
_cell_angle_gamma 90.000000
_cell_volume 3174.411119
_symmetry_space_group_name_H-M "I 41/A"
_symmetry_group_IT_number 88
_space_group.IT_coordinate_system_code '2'
_symmetry_cell_setting 'tetragonal'
loop_
_space_group_symop_operation_xyz
x,y,z
3/4-y,1/4+x,1/4+z
-x,1/2-y,z
1/4+y,1/4-x,1/4+z
-x,-y,-z
1/4+y,3/4-x,3/4-z
x,1/2+y,-z
3/4-y,3/4+x,3/4-z
1/2+x,1/2+y,1/2+z
1/4-y,3/4+x,3/4+z
1/2-x,-y,1/2+z
3/4+y,3/4-x,3/4+z
1/2-x,1/2-y,1/2-z
3/4+y,1/4-x,1/4-z
1/2+x,y,1/2-z
1/4-y,1/4+x,1/4-z
loop_
_atom_site_type_symbol
_atom_site_label
_atom_site_fract_x
_atom_site_fract_y
_atom_site_fract_z
Si Si1 0.775101 0.377366 0.981437
Si Si2 0.500000 0.250000 0.277768
Si Si3 0.802262 0.222097 0.612277
Si Si4 0.705494 0.390645 0.413813
Si Si5 0.181752 0.361362 0.414333
O O1 0.725556 0.268585 0.945240
O O2 0.757145 0.504386 0.952214
O O3 0.917998 0.343625 0.994545
O O4 0.688271 0.387787 0.028470
O O5 0.576419 0.163708 0.313370
O O6 0.857305 0.352498 0.629106
O O7 0.674839 0.192405 0.642075
O O8 0.815973 0.288732 0.406226
O O9 0.671592 0.447406 0.361673
#
# Coordination Sequence:
#
# PCOD8304234 Si02
#       5
#    16   8  16  16  16
#     4  10  22  38  63  95 122 172 215 265 325 389
#     4  10  20  35  64  94 140 170 208 256 333 400
#     4  10  24  46  65  87 126 173 223 276 327 387
#     4  10  20  37  57  98 131 165 201 269 331 381
#     4  10  21  38  67  90 133 164 211 266 331 395
#
# _framework density 22.681374000000002
#
# number of rings (size 3 to 8) (size 9 to 14) (size 15 to 20)
#    0.000    2.000    0.000    3.333    6.222    3.556 
#    8.000    0.000    0.000    0.000    0.000    0.000 
#    0.000    0.000    0.000    0.000    0.000    0.000 
#
# Total GULP energy -446247.664895 kJ/mol
# GULP energy per Si atom -12395.768469 kJ/mol
# Density = 2.262975 g / cm^3
# Si number density = 22.681374 Si / 1000 Ang^3
#
#
#
# Elastic Constant Matrix: (Units=GPa)
#
#
# Indices 1 2 3 4 5 6 
#
# 1 55.6784 16.6277 14.3070 0.0000 0.0000 8.6990
# 2 16.6277 55.6784 14.3070 0.0000 0.0000 -8.6990
# 3 14.3070 14.3070 159.0174 0.0000 0.0000 0.0000
# 4 0.0000 0.0000 0.0000 11.1221 0.0000 0.0000
# 5 0.0000 0.0000 0.0000 0.0000 11.1221 0.0000
# 6 8.6990 -8.6990 0.0000 0.0000 0.0000 47.0879
#
#
#
# Elastic Compliance Matrix: (Units=1/GPa)
#
#
# Indices 1 2 3 4 5 6 
#
# 1 0.021123 -0.006782 -0.001290 0.000000 0.000000 -0.005155
# 2 -0.006782 0.021123 -0.001290 0.000000 0.000000 0.005155
# 3 -0.001290 -0.001290 0.006521 0.000000 0.000000 0.000000
# 4 0.000000 0.000000 0.000000 0.089911 0.000000 0.000000
# 5 0.000000 0.000000 0.000000 0.000000 0.089911 0.000000
# 6 -0.005155 0.005155 0.000000 0.000000 0.000000 0.023142
#
#
# Mechanical properties :
#
#
# Convention : Reuss Voigt Hill
#
# Bulk Modulus (GPa) = 33.28766 40.09530 36.69148
# Shear Modulus (GPa) = 17.82731 28.87524 23.35127
#
# Velocity S-wave (km/s) = 2.80659 3.57190 3.21212
# Velocity P-wave (km/s) = 5.02102 5.89299 5.47439
#
# Compressibility (1/GPa) = 0.03004116
#
# Stress axis : x y z
#
# Youngs Moduli (GPa) = 47.34269 47.34268 153.35562
#
# Poissons Ratio (x) = 0.32107 0.19787
# Poissons Ratio (y) = 0.32107 0.19787
# Poissons Ratio (z) = 0.06108 0.06108
#
# Static dielectric constant tensor:
#      x y z
#    x 4.224460 0.000000 0.000000 
#    y 0.000000 4.224460 0.000000 
#    z 0.000000 0.000000 4.272260 
# 
# 
# High freq. dielectric constant tensor:
#      x y z
#    x 1.888040 0.000000 0.000000 
#    y 0.000000 1.888040 0.000000 
#    z 0.000000 0.000000 1.907860 
# 
# From -- ./inp_files/5706.got.cif
#   From: 2010.03.12/outbox.cif.g09.slc.cpg/sg88_3_cif.got.tgz:5706.got - 2010.04.08 20:20:55.
