data_PCOD8304678
_publ_section_title
;
Structure prediction by ZEFSAII (Michael W. Deem and Ramdas Pophale) SiO2 
 PCOD8304678
Probable space group: P 4 21 2
;
_chemical_formula_sum "Si O2"
_cell_formula_units_Z 36
_cell_length_a 8.004358
_cell_length_b 8.004358
_cell_length_c 24.393436
_cell_angle_alpha 90.000000
_cell_angle_beta 90.000000
_cell_angle_gamma 90.000000
_cell_volume 1562.881273
_symmetry_space_group_name_H-M "P 4 21 2"
_symmetry_group_IT_number 90
_symmetry_cell_setting 'tetragonal'
loop_
_space_group_symop_operation_xyz
x,y,z
1/2-y,1/2+x,z
-x,-y,z
1/2+y,1/2-x,z
1/2+x,1/2-y,-z
1/2-x,1/2+y,-z
y,x,-z
-y,-x,-z
loop_
_atom_site_type_symbol
_atom_site_label
_atom_site_fract_x
_atom_site_fract_y
_atom_site_fract_z
Si Si1 0.235351 0.080418 0.948484
Si Si2 0.918360 0.236589 0.764671
Si Si3 0.902121 0.241066 0.553938
Si Si4 0.909331 0.238960 0.339363
Si Si5 0.500000 0.500000 0.856215
O O1 0.389197 0.206601 0.949670
O O2 0.126523 0.108047 0.893688
O O3 0.116500 0.116500 0.000000
O O4 0.792842 0.390363 0.764910
O O5 0.883862 0.126838 0.711075
O O6 0.889916 0.124091 0.818529
O O7 0.787780 0.404574 0.555294
O O8 0.865867 0.134134 0.500000
O O9 0.862784 0.123837 0.605346
O O10 0.790122 0.398835 0.336944
#
# Coordination Sequence:
#
# PCOD8304678 Si02
#       5
#     8   8   8   8   4
#     4  11  24  43  69 100 136 178 223 273 331 395
#     4  11  24  41  63  92 126 168 216 267 325 389
#     4  11  24  41  63  93 126 162 209 264 324 392
#     4  11  24  42  64  91 125 166 213 266 326 392
#     4  12  23  42  66  96 133 172 218 272 326 388
#
# _framework density 23.034381
#
# number of rings (size 3 to 8) (size 9 to 14) (size 15 to 20)
#    0.000    0.889    0.000    7.000    0.000    8.444 
#    0.000    4.444    0.000    0.000    0.000    0.000 
#    0.000    0.000    0.000    0.000    0.000    0.000 
#
# Total GULP energy -446648.873986 kJ/mol
# GULP energy per Si atom -12406.913166 kJ/mol
# Density = 2.298195 g / cm^3
# Si number density = 23.034381 Si / 1000 Ang^3
#
#
#
# Elastic Constant Matrix: (Units=GPa)
#
#
# Indices 1 2 3 4 5 6 
#
# 1 81.6314 25.3552 47.7027 0.0000 0.0000 0.0000
# 2 25.3552 81.6324 47.7029 0.0000 0.0000 0.0000
# 3 47.7027 47.7029 207.0914 0.0000 0.0000 0.0000
# 4 0.0000 0.0000 0.0000 45.8016 0.0000 0.0000
# 5 0.0000 0.0000 0.0000 0.0000 45.8020 0.0000
# 6 0.0000 0.0000 0.0000 0.0000 0.0000 40.0828
#
#
#
# Elastic Compliance Matrix: (Units=1/GPa)
#
#
# Indices 1 2 3 4 5 6 
#
# 1 0.014766 -0.003003 -0.002710 0.000000 0.000000 0.000000
# 2 -0.003003 0.014766 -0.002710 0.000000 0.000000 0.000000
# 3 -0.002710 -0.002710 0.006077 0.000000 0.000000 0.000000
# 4 0.000000 0.000000 0.000000 0.021833 0.000000 0.000000
# 5 0.000000 0.000000 0.000000 0.000000 0.021833 0.000000
# 6 0.000000 0.000000 0.000000 0.000000 0.000000 0.024948
#
#
# Mechanical properties :
#
#
# Convention : Reuss Voigt Hill
#
# Bulk Modulus (GPa) = 53.29055 67.98633 60.63844
# Shear Modulus (GPa) = 39.26990 42.97692 41.12341
#
# Velocity S-wave (km/s) = 4.13345 4.32415 4.22987
# Velocity P-wave (km/s) = 6.77982 7.38310 7.08788
#
# Compressibility (1/GPa) = 0.01876505
#
# Stress axis : x y z
#
# Youngs Moduli (GPa) = 67.72140 67.72232 164.55249
#
# Poissons Ratio (x) = 0.20337 0.44588
# Poissons Ratio (y) = 0.20337 0.44587
# Poissons Ratio (z) = 0.18350 0.18350
#
# Static dielectric constant tensor:
#      x y z
#    x 4.154140 0.000000 0.000000 
#    y 0.000000 4.154140 0.000000 
#    z 0.000000 0.000000 4.215600 
# 
# 
# High freq. dielectric constant tensor:
#      x y z
#    x 1.923000 0.000000 0.000000 
#    y 0.000000 1.923000 0.000000 
#    z 0.000000 0.000000 1.920240 
# 
# From -- ./inp_files/2743.got.cif
#   From: 2010.03.12/outbox.cif.g09.slc.cpg/sg90_2_cif.got.tgz:2743.got - 2010.04.08 20:26:03.
