data_PCOD8304361
_publ_section_title
;
Structure prediction by ZEFSAII (Michael W. Deem and Ramdas Pophale) SiO2 
 PCOD8304361
Probable space group: I 41/A
;
_chemical_formula_sum "Si O2"
_cell_formula_units_Z 52
_cell_length_a 20.641613
_cell_length_b 20.641613
_cell_length_c 5.188936
_cell_angle_alpha 90.000000
_cell_angle_beta 90.000000
_cell_angle_gamma 90.000000
_cell_volume 2210.882067
_symmetry_space_group_name_H-M "I 41/A"
_symmetry_group_IT_number 88
_space_group.IT_coordinate_system_code '2'
_symmetry_cell_setting 'tetragonal'
loop_
_space_group_symop_operation_xyz
x,y,z
3/4-y,1/4+x,1/4+z
-x,1/2-y,z
1/4+y,1/4-x,1/4+z
-x,-y,-z
1/4+y,3/4-x,3/4-z
x,1/2+y,-z
3/4-y,3/4+x,3/4-z
1/2+x,1/2+y,1/2+z
1/4-y,3/4+x,3/4+z
1/2-x,-y,1/2+z
3/4+y,3/4-x,3/4+z
1/2-x,1/2-y,1/2-z
3/4+y,1/4-x,1/4-z
1/2+x,y,1/2-z
1/4-y,1/4+x,1/4-z
loop_
_atom_site_type_symbol
_atom_site_label
_atom_site_fract_x
_atom_site_fract_y
_atom_site_fract_z
Si Si1 0.302725 0.082188 0.382837
Si Si2 0.440581 0.371310 0.583951
Si Si3 0.500000 0.250000 0.375000
Si Si4 0.956583 0.941475 0.591175
O O1 0.237479 0.076694 0.218821
O O2 0.359766 0.114571 0.207195
O O3 0.288115 0.130549 0.624769
O O4 0.453901 0.295311 0.548899
O O5 0.481039 0.412454 0.366186
O O6 0.463058 0.387137 0.871493
O O7 0.000000 0.000000 0.500000
#
# Coordination Sequence:
#
# PCOD8304361 Si02
#       4
#    16  16   4  16
#     4  10  26  43  72 107 145 190 244 306 372 443
#     4  10  27  44  72 105 148 189 250 306 368 448
#     4  12  28  50  76 110 148 206 252 310 380 450
#     4  10  24  46  74 103 146 193 247 308 374 438
#
# _framework density 23.520026999999999
#
# number of rings (size 3 to 8) (size 9 to 14) (size 15 to 20)
#    1.846    0.000    0.000    0.923    8.615    6.154 
#    0.000    0.000    0.000    0.000    0.000    0.000 
#    0.000    0.000    0.000    0.000    0.000    0.000 
#
# Total GULP energy -322100.426440 kJ/mol
# GULP energy per Si atom -12388.477940 kJ/mol
# Density = 2.346649 g / cm^3
# Si number density = 23.520027 Si / 1000 Ang^3
#
#
#
# Elastic Constant Matrix: (Units=GPa)
#
#
# Indices 1 2 3 4 5 6 
#
# 1 100.1500 60.7352 6.8643 0.0000 0.0000 18.8168
# 2 60.7352 100.1500 6.8643 0.0000 0.0000 -18.8168
# 3 6.8643 6.8643 99.6090 0.0000 0.0000 0.0000
# 4 0.0000 0.0000 0.0000 17.7611 0.0000 0.0000
# 5 0.0000 0.0000 0.0000 0.0000 17.7611 0.0000
# 6 18.8168 -18.8168 0.0000 0.0000 0.0000 49.8244
#
#
#
# Elastic Compliance Matrix: (Units=1/GPa)
#
#
# Indices 1 2 3 4 5 6 
#
# 1 0.022966 -0.016713 -0.000431 0.000000 0.000000 -0.014985
# 2 -0.016713 0.022966 -0.000431 0.000000 0.000000 0.014985
# 3 -0.000431 -0.000431 0.010099 0.000000 0.000000 0.000000
# 4 0.000000 0.000000 0.000000 0.056303 0.000000 0.000000
# 5 0.000000 0.000000 0.000000 0.000000 0.056303 0.000000
# 6 -0.014985 0.014985 0.000000 0.000000 0.000000 0.031389
#
#
# Mechanical properties :
#
#
# Convention : Reuss Voigt Hill
#
# Bulk Modulus (GPa) = 47.89290 49.87076 48.88183
# Shear Modulus (GPa) = 20.64956 32.09899 26.37427
#
# Velocity S-wave (km/s) = 2.96625 3.69826 3.35230
# Velocity P-wave (km/s) = 5.66907 6.28377 5.98432
#
# Compressibility (1/GPa) = 0.02087992
#
# Stress axis : x y z
#
# Youngs Moduli (GPa) = 43.54287 43.54287 99.02321
#
# Poissons Ratio (x) = 0.72775 0.04267
# Poissons Ratio (y) = 0.72775 0.04267
# Poissons Ratio (z) = 0.01876 0.01876
#
# Static dielectric constant tensor:
#      x y z
#    x 4.233050 0.000000 0.000000 
#    y 0.000000 4.233050 0.000000 
#    z 0.000000 0.000000 4.315290 
# 
# 
# High freq. dielectric constant tensor:
#      x y z
#    x 1.924170 0.000000 0.000000 
#    y 0.000000 1.924170 0.000000 
#    z 0.000000 0.000000 1.929480 
# 
# From -- ./inp_files/428.got.cif
#   From: 2010.03.12/outbox.cif.g09.slc.cpg/sg88_1_cif.got.tgz:428.got - 2010.04.08 20:20:55.
