data_PCOD8304638
_publ_section_title
;
Structure prediction by ZEFSAII (Michael W. Deem and Ramdas Pophale) SiO2 
 PCOD8304638
Probable space group: P 4 21 2
;
_chemical_formula_sum "Si O2"
_cell_formula_units_Z 48
_cell_length_a 8.513643
_cell_length_b 8.513643
_cell_length_c 31.354379
_cell_angle_alpha 90.000000
_cell_angle_beta 90.000000
_cell_angle_gamma 90.000000
_cell_volume 2272.631771
_symmetry_space_group_name_H-M "P 4 21 2"
_symmetry_group_IT_number 90
_symmetry_cell_setting 'tetragonal'
loop_
_space_group_symop_operation_xyz
x,y,z
1/2-y,1/2+x,z
-x,-y,z
1/2+y,1/2-x,z
1/2+x,1/2-y,-z
1/2-x,1/2+y,-z
y,x,-z
-y,-x,-z
loop_
_atom_site_type_symbol
_atom_site_label
_atom_site_fract_x
_atom_site_fract_y
_atom_site_fract_z
Si Si1 0.584259 0.757668 0.465748
Si Si2 0.755903 0.591203 0.963450
Si Si3 0.092316 0.743153 0.296061
Si Si4 0.594820 0.759757 0.369594
Si Si5 0.757907 0.599238 0.779447
Si Si6 0.760027 0.595093 0.871647
O O1 0.405692 0.803873 0.473300
O O2 0.623926 0.623926 0.500000
O O3 0.613297 0.695547 0.417771
O O4 0.801580 0.409962 0.968102
O O5 0.672358 0.626748 0.916943
O O6 0.631533 0.631533 0.000000
O O7 0.200448 0.589444 0.295588
O O8 0.123976 0.846075 0.338236
O O9 0.130294 0.849560 0.255097
O O10 0.413906 0.800725 0.361084
O O11 0.799283 0.416280 0.773786
O O12 0.675569 0.630554 0.826246
O O13 0.801243 0.414003 0.871747
#
# Coordination Sequence:
#
# PCOD8304638 Si02
#       6
#     8   8   8   8   8   8
#     4   9  19  35  54  78 107 135 165 204 247 290
#     4   9  17  30  48  70  97 128 161 198 241 288
#     4  11  24  37  48  70 105 137 162 195 244 297
#     4   9  19  37  58  77  98 129 171 212 245 283
#     4   9  17  32  56  79  94 117 160 208 248 289
#     4   7  12  26  48  71  93 119 156 201 242 282
#
# _framework density 21.120888000000001
#
# number of rings (size 3 to 8) (size 9 to 14) (size 15 to 20)
#    0.000    3.000    0.000    4.000    0.000    6.000 
#    0.000    6.667    0.000    8.000    0.000    0.000 
#    0.000    0.000    0.000    0.000    0.000    0.000 
#
# Total GULP energy -594739.469515 kJ/mol
# GULP energy per Si atom -12390.405615 kJ/mol
# Density = 2.107282 g / cm^3
# Si number density = 21.120888 Si / 1000 Ang^3
#
#
#
# Elastic Constant Matrix: (Units=GPa)
#
#
# Indices 1 2 3 4 5 6 
#
# 1 16.1413 -6.5988 9.6895 0.0000 0.0000 0.0000
# 2 -6.5988 16.1413 9.6895 0.0000 0.0000 0.0000
# 3 9.6895 9.6895 148.8073 0.0000 0.0000 0.0000
# 4 0.0000 0.0000 0.0000 -11.5235 0.0000 0.0000
# 5 0.0000 0.0000 0.0000 0.0000 -11.5235 0.0000
# 6 0.0000 0.0000 0.0000 0.0000 0.0000 30.5609
#
#
#
# Elastic Compliance Matrix: (Units=1/GPa)
#
#
# Indices 1 2 3 4 5 6 
#
# 1 0.082370 0.038395 -0.007864 0.000000 0.000000 0.000000
# 2 0.038395 0.082370 -0.007864 0.000000 0.000000 0.000000
# 3 -0.007864 -0.007864 0.007744 0.000000 0.000000 0.000000
# 4 0.000000 0.000000 0.000000 -0.086779 0.000000 0.000000
# 5 0.000000 0.000000 0.000000 0.000000 -0.086779 0.000000
# 6 0.000000 0.000000 0.000000 0.000000 0.000000 0.032721
#
#
# Mechanical properties :
#
#
# Convention : Reuss Voigt Hill
#
# Bulk Modulus (GPa) = 4.59098 22.96115 13.77606
# Shear Modulus (GPa) = 84.86480 12.72345 48.79413
#
# Velocity S-wave (km/s) = 6.34569 2.45707 4.81170
# Velocity P-wave (km/s) = 7.47454 4.35253 6.11609
#
# Compressibility (1/GPa) = 0.21781849
#
# Stress axis : x y z
#
# Youngs Moduli (GPa) = 12.14039 12.14039 129.12963
#
# Poissons Ratio (x) = -0.46612 1.01541
# Poissons Ratio (y) = -0.46612 1.01541
# Poissons Ratio (z) = 0.09547 0.09547
#
# Static dielectric constant tensor:
#      x y z
#    x 3.439400 0.000000 0.000000 
#    y 0.000000 3.439400 0.000000 
#    z 0.000000 0.000000 4.299050 
# 
# 
# High freq. dielectric constant tensor:
#      x y z
#    x 1.799600 0.000000 0.000000 
#    y 0.000000 1.799600 0.000000 
#    z 0.000000 0.000000 1.851800 
# 
# From -- ./inp_files/3039.got.cif
#   From: 2010.03.12/outbox.cif.g09.slc.cpg/sg90_2_cif.got.tgz:3039.got - 2010.04.08 20:26:03.
