data_PCOD8304729
_publ_section_title
;
Structure prediction by ZEFSAII (Michael W. Deem and Ramdas Pophale) SiO2 
 PCOD8304729
Probable space group: P 41 2 2
;
_chemical_formula_sum "Si O2"
_cell_formula_units_Z 56
_cell_length_a 20.602436
_cell_length_b 20.602436
_cell_length_c 9.611529
_cell_angle_alpha 90.000000
_cell_angle_beta 90.000000
_cell_angle_gamma 90.000000
_cell_volume 4079.713147
_symmetry_space_group_name_H-M "P 41 2 2"
_symmetry_group_IT_number 91
_symmetry_cell_setting 'tetragonal'
loop_
_space_group_symop_operation_xyz
x,y,z
-y,x,1/4+z
-x,-y,1/2+z
y,-x,3/4+z
x,-y,1/2-z
-x,y,-z
y,x,3/4-z
-y,-x,1/4-z
loop_
_atom_site_type_symbol
_atom_site_label
_atom_site_fract_x
_atom_site_fract_y
_atom_site_fract_z
Si Si1 0.076819 0.560281 0.340362
Si Si2 0.188157 0.123121 0.493558
Si Si3 0.076796 0.322690 0.346498
Si Si4 0.105928 0.006495 0.400924
Si Si5 0.923730 0.315933 0.338168
Si Si6 0.172671 0.118305 0.009825
Si Si7 0.077694 0.438120 0.840138
O O1 0.102013 0.500000 0.250000
O O2 0.104152 0.620225 0.250559
O O3 0.104122 0.559164 0.499773
O O4 0.999507 0.561507 0.346332
O O5 0.174928 0.174928 0.375000
O O6 0.260191 0.098068 0.488147
O O7 0.138630 0.062821 0.489863
O O8 0.175187 0.162870 0.630998
O O9 0.105116 0.323793 0.504755
O O10 0.999906 0.324710 0.352352
O O11 0.030121 0.030121 0.375000
O O12 0.141187 0.000000 0.250000
O O13 0.118044 0.938753 0.478952
O O14 0.908958 0.245734 0.270887
O O15 0.896588 0.372603 0.236565
O O16 0.159532 0.159532 0.875000
O O17 0.102403 0.500000 0.750000
#
# Coordination Sequence:
#
# PCOD8304729 Si02
#       7
#     8   8   8   8   8   8   8
#     4   9  17  28  44  68  87 105 130 155 189 252
#     4  11  20  35  51  58  78 107 137 176 217 272
#     4  10  18  30  51  62  78 108 138 162 212 261
#     4  11  20  36  50  56  72  99 136 176 227 272
#     4  10  19  32  48  63  82 109 132 167 216 262
#     4  12  25  36  46  65  82 102 141 184 225 275
#     4   9  17  29  44  66  92 107 124 157 199 246
#
# _framework density 13.726456000000001
#
# number of rings (size 3 to 8) (size 9 to 14) (size 15 to 20)
#    0.000    1.714    5.714    0.857    2.000    4.571 
#    0.000    0.000    0.000    0.000    0.000    0.000 
#    0.000    0.000    0.000    0.000    0.000    0.000 
#
# Total GULP energy -693758.286377 kJ/mol
# GULP energy per Si atom -12388.540828 kJ/mol
# Density = 1.369521 g / cm^3
# Si number density = 13.726456 Si / 1000 Ang^3
#
#
#
# Elastic Constant Matrix: (Units=GPa)
#
#
# Indices 1 2 3 4 5 6 
#
# 1 42.1941 10.1826 30.3583 0.0000 0.0000 0.0000
# 2 10.1826 42.1941 30.3583 0.0000 0.0000 0.0000
# 3 30.3583 30.3583 114.3288 0.0000 0.0000 0.0000
# 4 0.0000 0.0000 0.0000 18.9894 0.0000 0.0000
# 5 0.0000 0.0000 0.0000 0.0000 18.9894 0.0000
# 6 0.0000 0.0000 0.0000 0.0000 0.0000 4.7228
#
#
#
# Elastic Compliance Matrix: (Units=1/GPa)
#
#
# Indices 1 2 3 4 5 6 
#
# 1 0.029411 -0.001828 -0.007324 0.000000 0.000000 0.000000
# 2 -0.001828 0.029411 -0.007324 0.000000 0.000000 0.000000
# 3 -0.007324 -0.007324 0.012636 0.000000 0.000000 0.000000
# 4 0.000000 0.000000 0.000000 0.052661 0.000000 0.000000
# 5 0.000000 0.000000 0.000000 0.000000 0.052661 0.000000
# 6 0.000000 0.000000 0.000000 0.000000 0.000000 0.211738
#
#
# Mechanical properties :
#
#
# Convention : Reuss Voigt Hill
#
# Bulk Modulus (GPa) = 25.97045 37.83506 31.90275
# Shear Modulus (GPa) = 11.51264 17.06154 14.28709
#
# Velocity S-wave (km/s) = 2.89921 3.52940 3.22971
# Velocity P-wave (km/s) = 5.49256 6.65074 6.09920
#
# Compressibility (1/GPa) = 0.03850530
#
# Stress axis : x y z
#
# Youngs Moduli (GPa) = 34.00110 34.00110 79.13652
#
# Poissons Ratio (x) = 0.06215 0.57962
# Poissons Ratio (y) = 0.06215 0.57962
# Poissons Ratio (z) = 0.24903 0.24903
#
# Static dielectric constant tensor:
#      x y z
#    x 2.550900 0.000000 0.000000 
#    y 0.000000 2.550900 0.000000 
#    z 0.000000 0.000000 3.007250 
# 
# 
# High freq. dielectric constant tensor:
#      x y z
#    x 1.483240 0.000000 0.000000 
#    y 0.000000 1.483240 0.000000 
#    z 0.000000 0.000000 1.545620 
# 
# From -- ./inp_files/15382.got.cif
#   From: 2010.03.12/outbox.cif.g09.slc.cpg/sg91_8_cif.got.tgz:15382.got - 2010.04.08 20:27:58.
