data_PCOD8304994
_publ_section_title
;
Structure prediction by ZEFSAII (Michael W. Deem and Ramdas Pophale) SiO2 
 PCOD8304994
Probable space group: P 41 2 2
;
_chemical_formula_sum "Si O2"
_cell_formula_units_Z 60
_cell_length_a 17.791647
_cell_length_b 17.791647
_cell_length_c 9.484959
_cell_angle_alpha 90.000000
_cell_angle_beta 90.000000
_cell_angle_gamma 90.000000
_cell_volume 3002.394559
_symmetry_space_group_name_H-M "P 41 2 2"
_symmetry_group_IT_number 91
_symmetry_cell_setting 'tetragonal'
loop_
_space_group_symop_operation_xyz
x,y,z
-y,x,1/4+z
-x,-y,1/2+z
y,-x,3/4+z
x,-y,1/2-z
-x,y,-z
y,x,3/4-z
-y,-x,1/4-z
loop_
_atom_site_type_symbol
_atom_site_label
_atom_site_fract_x
_atom_site_fract_y
_atom_site_fract_z
Si Si1 0.285472 0.773898 0.979050
Si Si2 0.835856 0.118189 0.335837
Si Si3 0.010013 0.661288 0.845229
Si Si4 0.032227 0.192881 0.803078
Si Si5 0.573319 0.136651 0.587332
Si Si6 0.500000 0.420249 0.000000
Si Si7 0.311344 0.363796 0.724825
Si Si8 0.429390 0.155050 0.089492
O O1 0.225322 0.823197 0.893284
O O2 0.311921 0.699869 0.895161
O O3 0.247562 0.752439 0.125000
O O4 0.358783 0.821165 0.012917
O O5 0.803775 0.084668 0.190299
O O6 0.915942 0.160070 0.321377
O O7 0.854416 0.045011 0.431780
O O8 0.951995 0.592097 0.832260
O O9 0.998617 0.724864 0.729008
O O10 0.094456 0.635191 0.822452
O O11 0.000000 0.697617 0.000000
O O12 0.500000 0.154232 0.500000
O O13 0.554991 0.166137 0.744365
O O14 0.526293 0.473708 0.125000
O O15 0.430002 0.370885 0.057497
O O16 0.230633 0.401824 0.733000
O O17 0.326487 0.326487 0.875000
O O18 0.500000 0.126138 0.000000
#
# Coordination Sequence:
#
# PCOD8304994 Si02
#       8
#     8   8   8   8   8   4   8   8
#     4  12  25  44  66  99 138 174 227 283 344 411
#     4  10  23  39  69  97 133 180 228 281 336 405
#     4  10  22  41  64  94 131 176 215 272 334 400
#     4  10  21  41  66  95 135 173 231 277 331 403
#     4  11  25  43  64  97 136 172 228 278 337 409
#     4  10  24  48  68  96 134 174 226 278 340 416
#     4  11  25  42  70 101 131 173 225 281 335 410
#     4  11  23  42  65  94 135 172 218 272 337 401
#
# _framework density 19.984048000000001
#
# number of rings (size 3 to 8) (size 9 to 14) (size 15 to 20)
#    0.000    1.333    3.333    1.200    7.467    0.533 
#    1.200    0.000   23.467    0.000    0.000    0.000 
#    0.000    0.000    0.000    0.000    0.000    0.000 
#
# Total GULP energy -743910.883882 kJ/mol
# GULP energy per Si atom -12398.514731 kJ/mol
# Density = 1.993856 g / cm^3
# Si number density = 19.984048 Si / 1000 Ang^3
#
#
#
# Elastic Constant Matrix: (Units=GPa)
#
#
# Indices 1 2 3 4 5 6 
#
# 1 126.3980 51.4631 58.5862 0.0000 0.0000 0.0000
# 2 51.4631 126.3970 58.5853 0.0000 0.0000 0.0000
# 3 58.5862 58.5853 81.9291 0.0000 0.0000 0.0000
# 4 0.0000 0.0000 0.0000 37.5511 0.0000 0.0000
# 5 0.0000 0.0000 0.0000 0.0000 37.5509 0.0000
# 6 0.0000 0.0000 0.0000 0.0000 0.0000 10.8849
#
#
#
# Elastic Compliance Matrix: (Units=1/GPa)
#
#
# Indices 1 2 3 4 5 6 
#
# 1 0.011987 -0.001358 -0.007601 0.000000 0.000000 0.000000
# 2 -0.001358 0.011987 -0.007601 0.000000 0.000000 0.000000
# 3 -0.007601 -0.007601 0.023077 0.000000 0.000000 0.000000
# 4 0.000000 0.000000 0.000000 0.026630 0.000000 0.000000
# 5 0.000000 0.000000 0.000000 0.000000 0.026630 0.000000
# 6 0.000000 0.000000 0.000000 0.000000 0.000000 0.091871
#
#
# Mechanical properties :
#
#
# Convention : Reuss Voigt Hill
#
# Bulk Modulus (GPa) = 71.77947 74.66593 73.22270
# Shear Modulus (GPa) = 21.74413 28.27002 25.00708
#
# Velocity S-wave (km/s) = 3.30218 3.76524 3.54128
# Velocity P-wave (km/s) = 7.10883 7.50643 7.31034
#
# Compressibility (1/GPa) = 0.01393156
#
# Stress axis : x y z
#
# Youngs Moduli (GPa) = 83.42029 83.42049 43.33384
#
# Poissons Ratio (x) = 0.11325 0.32939
# Poissons Ratio (y) = 0.11325 0.32939
# Poissons Ratio (z) = 0.63410 0.63409
#
# Static dielectric constant tensor:
#      x y z
#    x 3.738250 0.000000 0.000000 
#    y 0.000000 3.738260 0.000000 
#    z 0.000000 0.000000 4.768110 
# 
# 
# High freq. dielectric constant tensor:
#      x y z
#    x 1.789090 0.000000 0.000000 
#    y 0.000000 1.789090 0.000000 
#    z 0.000000 0.000000 1.781800 
# 
# From -- ./inp_files/10067.got.cif
#   From: 2010.03.12/outbox.cif.g09.slc.cpg/sg91_6_cif.got.tgz:10067.got - 2010.04.08 20:27:58.
