data_PCOD8304625
_publ_section_title
;
Structure prediction by ZEFSAII (Michael W. Deem and Ramdas Pophale) SiO2 
 PCOD8304625
Probable space group: P 4 21 2
;
_chemical_formula_sum "Si O2"
_cell_formula_units_Z 56
_cell_length_a 14.113960
_cell_length_b 14.113960
_cell_length_c 13.751606
_cell_angle_alpha 90.000000
_cell_angle_beta 90.000000
_cell_angle_gamma 90.000000
_cell_volume 2739.373091
_symmetry_space_group_name_H-M "P 4 21 2"
_symmetry_group_IT_number 90
_symmetry_cell_setting 'tetragonal'
loop_
_space_group_symop_operation_xyz
x,y,z
1/2-y,1/2+x,z
-x,-y,z
1/2+y,1/2-x,z
1/2+x,1/2-y,-z
1/2-x,1/2+y,-z
y,x,-z
-y,-x,-z
loop_
_atom_site_type_symbol
_atom_site_label
_atom_site_fract_x
_atom_site_fract_y
_atom_site_fract_z
Si Si1 0.217037 0.326604 0.929115
Si Si2 0.920975 0.368719 0.103908
Si Si3 0.845190 0.506242 0.622170
Si Si4 0.653846 0.000212 0.602173
Si Si5 0.873194 0.880535 0.109328
Si Si6 0.290458 0.461308 0.232612
Si Si7 0.555697 0.687428 0.230818
O O1 0.173518 0.226712 0.896083
O O2 0.240488 0.385294 0.834416
O O3 0.306832 0.306832 0.000000
O O4 0.146677 0.393433 0.991406
O O5 0.872649 0.467556 0.129282
O O6 0.890062 0.282148 0.174614
O O7 0.902992 0.410625 0.646829
O O8 0.815266 0.503617 0.509831
O O9 0.747554 0.510598 0.681613
O O10 0.592759 0.093187 0.626116
O O11 0.746344 0.996937 0.668917
O O12 0.952843 0.817293 0.160764
O O13 0.862985 0.975890 0.168558
O O14 0.906105 0.906105 0.000000
O O15 0.378447 0.397877 0.268297
#
# Coordination Sequence:
#
# PCOD8304625 Si02
#       7
#     8   8   8   8   8   8   8
#     4  11  21  39  59  87 121 164 217 270 315 378
#     4  11  22  37  59  88 121 161 214 277 325 366
#     4   9  20  43  69  95 126 160 209 276 338 392
#     4   9  20  40  69  97 124 160 206 272 344 391
#     4  11  26  42  61  87 131 177 220 262 323 387
#     4  12  24  38  61  91 131 171 217 261 322 402
#     4  12  24  38  62  91 125 171 217 256 321 390
#
# _framework density 20.442632
#
# number of rings (size 3 to 8) (size 9 to 14) (size 15 to 20)
#    0.000    1.286    1.429    6.429    2.000    2.286 
#    0.000    2.143    0.000    1.714    0.000    0.000 
#    0.000    0.000    0.000    0.000    0.000    0.000 
#
# Total GULP energy -694324.140611 kJ/mol
# GULP energy per Si atom -12398.645368 kJ/mol
# Density = 2.039610 g / cm^3
# Si number density = 20.442632 Si / 1000 Ang^3
#
#
#
# Elastic Constant Matrix: (Units=GPa)
#
#
# Indices 1 2 3 4 5 6 
#
# 1 60.8930 58.5321 47.3700 0.0000 0.0000 0.0000
# 2 58.5321 60.8930 47.3700 0.0000 0.0000 0.0000
# 3 47.3700 47.3700 110.8517 0.0000 0.0000 0.0000
# 4 0.0000 0.0000 0.0000 34.9377 0.0000 0.0000
# 5 0.0000 0.0000 0.0000 0.0000 34.9377 0.0000
# 6 0.0000 0.0000 0.0000 0.0000 0.0000 26.4802
#
#
#
# Elastic Compliance Matrix: (Units=1/GPa)
#
#
# Indices 1 2 3 4 5 6 
#
# 1 0.218118 -0.205451 -0.005413 0.000000 0.000000 0.000000
# 2 -0.205451 0.218118 -0.005413 0.000000 0.000000 0.000000
# 3 -0.005413 -0.005413 0.013648 0.000000 0.000000 0.000000
# 4 0.000000 0.000000 0.000000 0.028622 0.000000 0.000000
# 5 0.000000 0.000000 0.000000 0.000000 0.028622 0.000000
# 6 0.000000 0.000000 0.000000 0.000000 0.000000 0.037764
#
#
# Mechanical properties :
#
#
# Convention : Reuss Voigt Hill
#
# Bulk Modulus (GPa) = 57.70348 59.90911 58.80630
# Shear Modulus (GPa) = 5.08531 24.56215 14.82373
#
# Velocity S-wave (km/s) = 1.57892 3.47005 2.69576
# Velocity P-wave (km/s) = 5.62248 6.73978 6.20632
#
# Compressibility (1/GPa) = 0.01732998
#
# Stress axis : x y z
#
# Youngs Moduli (GPa) = 4.58467 4.58467 73.27310
#
# Poissons Ratio (x) = 0.94192 0.39665
# Poissons Ratio (y) = 0.94192 0.39665
# Poissons Ratio (z) = 0.02482 0.02482
#
# Static dielectric constant tensor:
#      x y z
#    x 3.736460 0.000000 0.000000 
#    y 0.000000 3.736460 0.000000 
#    z 0.000000 0.000000 3.744090 
# 
# 
# High freq. dielectric constant tensor:
#      x y z
#    x 1.798870 0.000000 0.000000 
#    y 0.000000 1.798870 0.000000 
#    z 0.000000 0.000000 1.794260 
# 
# From -- ./inp_files/2239.got.cif
#   From: 2010.03.12/outbox.cif.g09.slc.cpg/sg90_2_cif.got.tgz:2239.got - 2010.04.08 20:26:03.
