data_PCOD8304919
_publ_section_title
;
Structure prediction by ZEFSAII (Michael W. Deem and Ramdas Pophale) SiO2 
 PCOD8304919
Probable space group: P 41 2 2
;
_chemical_formula_sum "Si O2"
_cell_formula_units_Z 40
_cell_length_a 8.951482
_cell_length_b 8.951482
_cell_length_c 22.347403
_cell_angle_alpha 90.000000
_cell_angle_beta 90.000000
_cell_angle_gamma 90.000000
_cell_volume 1790.675725
_symmetry_space_group_name_H-M "P 41 2 2"
_symmetry_group_IT_number 91
_symmetry_cell_setting 'tetragonal'
loop_
_space_group_symop_operation_xyz
x,y,z
-y,x,1/4+z
-x,-y,1/2+z
y,-x,3/4+z
x,-y,1/2-z
-x,y,-z
y,x,3/4-z
-y,-x,1/4-z
loop_
_atom_site_type_symbol
_atom_site_label
_atom_site_fract_x
_atom_site_fract_y
_atom_site_fract_z
Si Si1 0.717005 0.500000 0.750000
Si Si2 0.994073 0.441784 0.067221
Si Si3 0.500000 0.786739 0.500000
Si Si4 0.541012 0.655444 0.316991
Si Si5 0.363399 0.963987 0.078133
Si Si6 0.101138 0.046056 0.680726
O O1 0.617022 0.386175 0.788120
O O2 0.820035 0.613596 0.787000
O O3 0.823848 0.444613 0.088697
O O4 0.080139 0.561170 0.108517
O O5 0.071185 0.279330 0.072843
O O6 0.000000 0.502077 0.000000
O O7 0.366283 0.678965 0.521238
O O8 0.555330 0.889170 0.553573
O O9 0.551327 0.551327 0.375000
O O10 0.190796 0.003877 0.084846
O O11 0.060240 0.000000 0.750000
O O12 0.066701 0.933300 0.625000
#
# Coordination Sequence:
#
# PCOD8304919 Si02
#       6
#     4   8   4   8   8   8
#     4  10  28  42  70 106 150 184 236 300 366 428
#     4  11  25  43  73 103 139 188 243 294 359 439
#     4  10  20  40  66  98 132 176 238 286 360 412
#     4  11  22  42  70 103 138 187 242 301 352 431
#     4  11  25  43  69 101 144 187 230 299 362 429
#     4  11  27  46  70 103 142 190 241 297 365 442
#
# _framework density 22.337938000000001
#
# number of rings (size 3 to 8) (size 9 to 14) (size 15 to 20)
#    0.000    1.200    2.000    3.000    8.400    6.400 
#    0.000    0.000    0.000    0.000    0.000    0.000 
#    0.000    0.000    0.000    0.000    0.000    0.000 
#
# Total GULP energy -495856.844836 kJ/mol
# GULP energy per Si atom -12396.421121 kJ/mol
# Density = 2.228710 g / cm^3
# Si number density = 22.337938 Si / 1000 Ang^3
#
#
#
# Elastic Constant Matrix: (Units=GPa)
#
#
# Indices 1 2 3 4 5 6 
#
# 1 106.6311 31.3679 43.5277 0.0000 0.0000 0.0000
# 2 31.3679 106.6316 43.5279 0.0000 0.0000 0.0000
# 3 43.5277 43.5279 167.4986 0.0000 0.0000 0.0000
# 4 0.0000 0.0000 0.0000 30.2439 0.0000 0.0000
# 5 0.0000 0.0000 0.0000 0.0000 30.2438 0.0000
# 6 0.0000 0.0000 0.0000 0.0000 0.0000 23.5640
#
#
#
# Elastic Compliance Matrix: (Units=1/GPa)
#
#
# Indices 1 2 3 4 5 6 
#
# 1 0.010977 -0.002310 -0.002252 0.000000 0.000000 0.000000
# 2 -0.002310 0.010977 -0.002252 0.000000 0.000000 0.000000
# 3 -0.002252 -0.002252 0.007141 0.000000 0.000000 0.000000
# 4 0.000000 0.000000 0.000000 0.033065 0.000000 0.000000
# 5 0.000000 0.000000 0.000000 0.000000 0.033065 0.000000
# 6 0.000000 0.000000 0.000000 0.000000 0.000000 0.042438
#
#
# Mechanical properties :
#
#
# Convention : Reuss Voigt Hill
#
# Bulk Modulus (GPa) = 64.65807 68.62315 66.64061
# Shear Modulus (GPa) = 31.95997 34.29953 33.12975
#
# Velocity S-wave (km/s) = 3.78663 3.92278 3.85530
# Velocity P-wave (km/s) = 6.93731 7.16273 7.05092
#
# Compressibility (1/GPa) = 0.01546597
#
# Stress axis : x y z
#
# Youngs Moduli (GPa) = 91.09953 91.09989 140.03949
#
# Poissons Ratio (x) = 0.21041 0.31542
# Poissons Ratio (y) = 0.21041 0.31542
# Poissons Ratio (z) = 0.20519 0.20519
#
# Static dielectric constant tensor:
#      x y z
#    x 3.973940 0.000000 0.000000 
#    y 0.000000 3.973940 0.000000 
#    z 0.000000 0.000000 4.417110 
# 
# 
# High freq. dielectric constant tensor:
#      x y z
#    x 1.874410 0.000000 0.000000 
#    y 0.000000 1.874410 0.000000 
#    z 0.000000 0.000000 1.899810 
# 
# From -- ./inp_files/6842.got.cif
#   From: 2010.03.12/outbox.cif.g09.slc.cpg/sg91_4_cif.got.tgz:6842.got - 2010.04.08 20:27:58.
