data_PCOD8304452
_publ_section_title
;
Structure prediction by ZEFSAII (Michael W. Deem and Ramdas Pophale) SiO2 
 PCOD8304452
Probable space group: I 41/A
;
_chemical_formula_sum "Si O2"
_cell_formula_units_Z 72
_cell_length_a 16.819025
_cell_length_b 16.819025
_cell_length_c 11.141712
_cell_angle_alpha 90.000000
_cell_angle_beta 90.000000
_cell_angle_gamma 90.000000
_cell_volume 3151.763056
_symmetry_space_group_name_H-M "I 41/A"
_symmetry_group_IT_number 88
_space_group.IT_coordinate_system_code '2'
_symmetry_cell_setting 'tetragonal'
loop_
_space_group_symop_operation_xyz
x,y,z
3/4-y,1/4+x,1/4+z
-x,1/2-y,z
1/4+y,1/4-x,1/4+z
-x,-y,-z
1/4+y,3/4-x,3/4-z
x,1/2+y,-z
3/4-y,3/4+x,3/4-z
1/2+x,1/2+y,1/2+z
1/4-y,3/4+x,3/4+z
1/2-x,-y,1/2+z
3/4+y,3/4-x,3/4+z
1/2-x,1/2-y,1/2-z
3/4+y,1/4-x,1/4-z
1/2+x,y,1/2-z
1/4-y,1/4+x,1/4-z
loop_
_atom_site_type_symbol
_atom_site_label
_atom_site_fract_x
_atom_site_fract_y
_atom_site_fract_z
Si Si1 0.000000 0.750000 0.661110
Si Si2 0.129874 0.838369 0.517340
Si Si3 0.223610 0.839906 0.749513
Si Si4 0.542058 0.966279 0.114998
Si Si5 0.605493 0.112542 0.262870
O O1 0.952336 0.688438 0.578435
O O2 0.938928 0.803209 0.740199
O O3 0.192163 0.865775 0.618818
O O4 0.161139 0.765160 0.441459
O O5 0.116310 0.912739 0.428297
O O6 0.250000 0.750000 0.750000
O O7 0.303512 0.887610 0.782330
O O8 0.152913 0.854492 0.844320
O O9 0.565939 0.039156 0.197274
O O10 0.500000 0.000000 0.000000
#
# Coordination Sequence:
#
# PCOD8304452 Si02
#       5
#     8  16  16  16  16
#     4  12  24  48  82 108 144 199 259 318 362 458
#     4  12  27  49  76 113 151 197 252 318 379 448
#     4  12  28  48  74 111 156 195 258 314 376 456
#     4  12  27  48  78 112 153 198 251 310 385 454
#     4  12  28  49  75 116 153 205 256 312 385 457
#
# _framework density 22.844356000000001
#
# number of rings (size 3 to 8) (size 9 to 14) (size 15 to 20)
#    0.000    0.000    6.667    1.333    9.333    2.667 
#    0.000    0.000    0.000    0.000    0.000    0.000 
#    0.000    0.000    0.000    0.000    0.000    0.000 
#
# Total GULP energy -446566.282553 kJ/mol
# GULP energy per Si atom -12404.618960 kJ/mol
# Density = 2.279236 g / cm^3
# Si number density = 22.844356 Si / 1000 Ang^3
#
#
#
# Elastic Constant Matrix: (Units=GPa)
#
#
# Indices 1 2 3 4 5 6 
#
# 1 101.1276 28.0551 32.5507 0.0000 0.0000 8.8498
# 2 28.0551 101.1276 32.5507 0.0000 0.0000 -8.8498
# 3 32.5507 32.5507 124.9320 0.0000 0.0000 0.0000
# 4 0.0000 0.0000 0.0000 44.8725 0.0000 0.0000
# 5 0.0000 0.0000 0.0000 0.0000 44.8725 0.0000
# 6 8.8498 -8.8498 0.0000 0.0000 0.0000 37.5572
#
#
#
# Elastic Compliance Matrix: (Units=1/GPa)
#
#
# Indices 1 2 3 4 5 6 
#
# 1 0.011712 -0.002801 -0.002322 0.000000 0.000000 -0.003420
# 2 -0.002801 0.011712 -0.002322 0.000000 0.000000 0.003420
# 3 -0.002322 -0.002322 0.009214 0.000000 0.000000 0.000000
# 4 0.000000 0.000000 0.000000 0.022285 0.000000 0.000000
# 5 0.000000 0.000000 0.000000 0.000000 0.022285 0.000000
# 6 -0.003420 0.003420 0.000000 0.000000 0.000000 0.028238
#
#
# Mechanical properties :
#
#
# Convention : Reuss Voigt Hill
#
# Bulk Modulus (GPa) = 56.34036 57.05556 56.69796
# Shear Modulus (GPa) = 39.60307 41.06249 40.33278
#
# Velocity S-wave (km/s) = 4.16817 4.24428 4.20640
# Velocity P-wave (km/s) = 6.91962 7.00347 6.96167
#
# Compressibility (1/GPa) = 0.01774927
#
# Stress axis : x y z
#
# Youngs Moduli (GPa) = 85.38105 85.38105 108.52814
#
# Poissons Ratio (x) = 0.23917 0.25197
# Poissons Ratio (y) = 0.23917 0.25197
# Poissons Ratio (z) = 0.19823 0.19823
#
# Static dielectric constant tensor:
#      x y z
#    x 3.233490 0.000000 0.000000 
#    y 0.000000 3.233490 0.000000 
#    z 0.000000 0.000000 4.427690 
# 
# 
# High freq. dielectric constant tensor:
#      x y z
#    x 1.908090 0.000000 0.000000 
#    y 0.000000 1.908090 0.000000 
#    z 0.000000 0.000000 1.916520 
# 
# From -- ./inp_files/2444.got.cif
#   From: 2010.03.12/outbox.cif.g09.slc.cpg/sg88_2_cif.got.tgz:2444.got - 2010.04.08 20:20:55.
