data_PCOD8304645
_publ_section_title
;
Structure prediction by ZEFSAII (Michael W. Deem and Ramdas Pophale) SiO2 
 PCOD8304645
Probable space group: P 4 21 2
;
_chemical_formula_sum "Si O2"
_cell_formula_units_Z 48
_cell_length_a 8.588020
_cell_length_b 8.588020
_cell_length_c 31.278370
_cell_angle_alpha 90.000000
_cell_angle_beta 90.000000
_cell_angle_gamma 90.000000
_cell_volume 2306.907638
_symmetry_space_group_name_H-M "P 4 21 2"
_symmetry_group_IT_number 90
_symmetry_cell_setting 'tetragonal'
loop_
_space_group_symop_operation_xyz
x,y,z
1/2-y,1/2+x,z
-x,-y,z
1/2+y,1/2-x,z
1/2+x,1/2-y,-z
1/2-x,1/2+y,-z
y,x,-z
-y,-x,-z
loop_
_atom_site_type_symbol
_atom_site_label
_atom_site_fract_x
_atom_site_fract_y
_atom_site_fract_z
Si Si1 0.256626 0.912187 0.535748
Si Si2 0.240680 0.412525 0.371985
Si Si3 0.763365 0.593037 0.789957
Si Si4 0.913760 0.256888 0.280050
Si Si5 0.103263 0.736461 0.038531
Si Si6 0.605167 0.767157 0.113047
O O1 0.408555 0.804293 0.530647
O O2 0.130359 0.869642 0.500000
O O3 0.173572 0.881323 0.582515
O O4 0.194452 0.590824 0.371878
O O5 0.327988 0.381529 0.326584
O O6 0.802020 0.414147 0.781520
O O7 0.625906 0.637478 0.757605
O O8 0.707434 0.623318 0.838395
O O9 0.804699 0.407616 0.275656
O O10 0.202420 0.578868 0.035787
O O11 0.133383 0.827444 0.082732
O O12 0.151061 0.848940 0.000000
O O13 0.424222 0.798574 0.103828
#
# Coordination Sequence:
#
# PCOD8304645 Si02
#       6
#     8   8   8   8   8   8
#     4   9  17  30  48  68  91 121 157 196 240 291
#     4   7  12  26  46  65  88 121 158 195 237 285
#     4   9  19  35  52  72 102 137 167 198 242 293
#     4   9  17  30  50  74  96 121 160 207 246 284
#     4  11  24  39  56  81 110 137 168 207 249 293
#     4   9  19  37  58  77 100 134 174 209 242 287
#
# _framework density 20.807072999999999
#
# number of rings (size 3 to 8) (size 9 to 14) (size 15 to 20)
#    0.000    3.000    0.000    4.000    0.000    6.000 
#    0.000    6.667    0.000    8.000    0.000    0.000 
#    0.000    0.000    0.000    0.000    0.000    0.000 
#
# Total GULP energy -594738.964386 kJ/mol
# GULP energy per Si atom -12390.395091 kJ/mol
# Density = 2.075971 g / cm^3
# Si number density = 20.807073 Si / 1000 Ang^3
#
#
#
# Elastic Constant Matrix: (Units=GPa)
#
#
# Indices 1 2 3 4 5 6 
#
# 1 14.5516 -5.5506 10.6567 0.0000 0.0000 0.0000
# 2 -5.5506 14.5504 10.6559 0.0000 0.0000 0.0000
# 3 10.6567 10.6559 136.9314 0.0000 0.0000 0.0000
# 4 0.0000 0.0000 0.0000 -8.3041 0.0000 0.0000
# 5 0.0000 0.0000 0.0000 0.0000 -8.3035 0.0000
# 6 0.0000 0.0000 0.0000 0.0000 0.0000 24.7742
#
#
#
# Elastic Compliance Matrix: (Units=1/GPa)
#
#
# Indices 1 2 3 4 5 6 
#
# 1 0.092973 0.043230 -0.010600 0.000000 0.000000 0.000000
# 2 0.043230 0.092981 -0.010600 0.000000 0.000000 0.000000
# 3 -0.010600 -0.010600 0.008953 0.000000 0.000000 0.000000
# 4 0.000000 0.000000 0.000000 -0.120422 0.000000 0.000000
# 5 0.000000 0.000000 0.000000 0.000000 -0.120431 0.000000
# 6 0.000000 0.000000 0.000000 0.000000 0.000000 0.040365
#
#
# Mechanical properties :
#
#
# Convention : Reuss Voigt Hill
#
# Bulk Modulus (GPa) = 4.18469 21.95080 13.06775
# Shear Modulus (GPa) = 166.59207 11.65142 89.12174
#
# Velocity S-wave (km/s) = 8.95762 2.36894 6.55175
# Velocity P-wave (km/s) = 10.44034 4.24913 7.97044
#
# Compressibility (1/GPa) = 0.23896642
#
# Stress axis : x y z
#
# Youngs Moduli (GPa) = 10.75581 10.75492 111.69767
#
# Poissons Ratio (x) = -0.46493 1.18396
# Poissons Ratio (y) = -0.46497 1.18400
# Poissons Ratio (z) = 0.11401 0.11400
#
# Static dielectric constant tensor:
#      x y z
#    x 3.411250 0.000000 0.000000 
#    y 0.000000 3.411260 0.000000 
#    z 0.000000 0.000000 4.215280 
# 
# 
# High freq. dielectric constant tensor:
#      x y z
#    x 1.787880 0.000000 0.000000 
#    y 0.000000 1.787880 0.000000 
#    z 0.000000 0.000000 1.837190 
# 
# From -- ./inp_files/3032.got.cif
#   From: 2010.03.12/outbox.cif.g09.slc.cpg/sg90_2_cif.got.tgz:3032.got - 2010.04.08 20:26:03.
