data_PCOD8304231
_publ_section_title
;
Structure prediction by ZEFSAII (Michael W. Deem and Ramdas Pophale) SiO2 
 PCOD8304231
Probable space group: I 41/A
;
_chemical_formula_sum "Si O2"
_cell_formula_units_Z 96
_cell_length_a 21.556977
_cell_length_b 21.556977
_cell_length_c 11.414670
_cell_angle_alpha 90.000000
_cell_angle_beta 90.000000
_cell_angle_gamma 90.000000
_cell_volume 5304.434331
_symmetry_space_group_name_H-M "I 41/A"
_symmetry_group_IT_number 88
_space_group.IT_coordinate_system_code '2'
_symmetry_cell_setting 'tetragonal'
loop_
_space_group_symop_operation_xyz
x,y,z
3/4-y,1/4+x,1/4+z
-x,1/2-y,z
1/4+y,1/4-x,1/4+z
-x,-y,-z
1/4+y,3/4-x,3/4-z
x,1/2+y,-z
3/4-y,3/4+x,3/4-z
1/2+x,1/2+y,1/2+z
1/4-y,3/4+x,3/4+z
1/2-x,-y,1/2+z
3/4+y,3/4-x,3/4+z
1/2-x,1/2-y,1/2-z
3/4+y,1/4-x,1/4-z
1/2+x,y,1/2-z
1/4-y,1/4+x,1/4-z
loop_
_atom_site_type_symbol
_atom_site_label
_atom_site_fract_x
_atom_site_fract_y
_atom_site_fract_z
Si Si1 0.192637 0.588886 0.941873
Si Si2 0.662638 0.757191 0.170617
Si Si3 0.185299 0.966832 0.441466
Si Si4 0.345032 0.040994 0.568776
Si Si5 0.217371 0.670941 0.143442
Si Si6 0.367115 0.854305 0.029957
O O1 0.142337 0.533025 0.938945
O O2 0.187440 0.613888 0.810239
O O3 0.259312 0.561680 0.982033
O O4 0.179150 0.646491 0.029445
O O5 0.725859 0.783741 0.114311
O O6 0.670512 0.709325 0.277066
O O7 0.633396 0.718523 0.063518
O O8 0.620574 0.810529 0.227052
O O9 0.139326 0.996581 0.539210
O O10 0.146964 0.913189 0.378989
O O11 0.201888 0.020973 0.348495
O O12 0.387108 0.079523 0.658583
#
# Coordination Sequence:
#
# PCOD8304231 Si02
#       6
#    16  16  16  16  16  16
#     4  12  19  28  52  87 127 160 182 229 308 376
#     4  10  22  38  63  77 119 159 209 264 281 360
#     4  11  17  32  54  84 125 150 189 230 294 369
#     4  12  20  29  53  91 125 153 183 243 302 381
#     4  10  20  35  53  84 120 165 186 240 311 351
#     4  11  22  38  58  88 111 159 210 246 303 342
#
# _framework density 18.098067
#
# number of rings (size 3 to 8) (size 9 to 14) (size 15 to 20)
#    0.000    1.000    8.333    0.000    0.000    0.333 
#    0.000    0.833    0.000    2.000    0.000    0.000 
#    0.000    0.000    0.000    0.000    0.000    0.000 
#
# Total GULP energy -594674.804469 kJ/mol
# GULP energy per Si atom -12389.058426 kJ/mol
# Density = 1.805687 g / cm^3
# Si number density = 18.098067 Si / 1000 Ang^3
#
#
#
# Elastic Constant Matrix: (Units=GPa)
#
#
# Indices 1 2 3 4 5 6 
#
# 1 74.0104 20.4787 39.7416 0.0000 0.0000 -3.2332
# 2 20.4787 74.0104 39.7416 0.0000 0.0000 3.2332
# 3 39.7416 39.7416 124.9517 0.0000 0.0000 0.0000
# 4 0.0000 0.0000 0.0000 27.2088 0.0000 0.0000
# 5 0.0000 0.0000 0.0000 0.0000 27.2088 0.0000
# 6 -3.2332 3.2332 0.0000 0.0000 0.0000 16.6448
#
#
#
# Elastic Compliance Matrix: (Units=1/GPa)
#
#
# Indices 1 2 3 4 5 6 
#
# 1 0.016789 -0.002340 -0.004596 0.000000 0.000000 0.003716
# 2 -0.002340 0.016789 -0.004596 0.000000 0.000000 -0.003716
# 3 -0.004596 -0.004596 0.010926 0.000000 0.000000 0.000000
# 4 0.000000 0.000000 0.000000 0.036753 0.000000 0.000000
# 5 0.000000 0.000000 0.000000 0.000000 0.036753 0.000000
# 6 0.003716 -0.003716 0.000000 0.000000 0.000000 0.061522
#
#
# Mechanical properties :
#
#
# Convention : Reuss Voigt Hill
#
# Bulk Modulus (GPa) = 46.63737 52.54405 49.59071
# Shear Modulus (GPa) = 23.83872 25.74652 24.79262
#
# Velocity S-wave (km/s) = 3.63326 3.77584 3.70524
# Velocity P-wave (km/s) = 6.58984 6.93580 6.76503
#
# Compressibility (1/GPa) = 0.02144203
#
# Stress axis : x y z
#
# Youngs Moduli (GPa) = 59.56217 59.56217 91.52145
#
# Poissons Ratio (x) = 0.13939 0.42059
# Poissons Ratio (y) = 0.13939 0.42059
# Poissons Ratio (z) = 0.27372 0.27372
#
# Static dielectric constant tensor:
#      x y z
#    x 3.292720 0.000000 0.000000 
#    y 0.000000 3.292720 0.000000 
#    z 0.000000 0.000000 3.579890 
# 
# 
# High freq. dielectric constant tensor:
#      x y z
#    x 1.675850 0.000000 0.000000 
#    y 0.000000 1.675850 0.000000 
#    z 0.000000 0.000000 1.706450 
# 
# From -- ./inp_files/2632.got.cif
#   From: 2010.03.12/outbox.cif.g09.slc.cpg/sg88_2_cif.got.tgz:2632.got - 2010.04.08 20:20:55.
