data_PCOD8304489
_publ_section_title
;
Structure prediction by ZEFSAII (Michael W. Deem and Ramdas Pophale) SiO2 
 PCOD8304489
Probable space group: P 4 2 2
;
_chemical_formula_sum "Si O2"
_cell_formula_units_Z 48
_cell_length_a 8.710768
_cell_length_b 8.710768
_cell_length_c 30.753670
_cell_angle_alpha 90.000000
_cell_angle_beta 90.000000
_cell_angle_gamma 90.000000
_cell_volume 2333.510954
_symmetry_space_group_name_H-M "P 4 2 2"
_symmetry_group_IT_number 89
_symmetry_cell_setting 'tetragonal'
loop_
_space_group_symop_operation_xyz
x,y,z
-y,x,z
-x,-y,z
y,-x,z
x,-y,-z
-x,y,-z
y,x,-z
-y,-x,-z
loop_
_atom_site_type_symbol
_atom_site_label
_atom_site_fract_x
_atom_site_fract_y
_atom_site_fract_z
Si Si1 0.755835 0.065448 0.762616
Si Si2 0.740051 0.428070 0.399702
Si Si3 0.000000 0.500000 0.071929
Si Si4 0.047658 0.754235 0.139961
Si Si5 0.500000 0.247077 0.000000
Si Si6 0.242007 0.964237 0.550569
Si Si7 0.737989 0.574989 0.700984
O O1 0.687492 0.072356 0.811492
O O2 0.620633 0.113612 0.729576
O O3 0.894535 0.184345 0.754438
O O4 0.687565 0.600463 0.411415
O O5 0.897032 0.396233 0.427193
O O6 0.783061 0.411664 0.349337
O O7 0.933377 0.368942 0.102725
O O8 0.855161 0.536145 0.042030
O O9 0.880289 0.823057 0.133430
O O10 0.651585 0.348416 0.000000
O O11 0.124002 0.829625 0.566037
O O12 0.268434 0.000000 0.500000
O O13 0.597846 0.689102 0.712193
#
# Coordination Sequence:
#
# PCOD8304489 Si02
#       7
#     8   8   4   8   4   8   8
#     4   9  19  34  51  76 111 147 183 226 272 316
#     4   9  19  37  59  83 111 142 178 220 265 317
#     4  11  20  34  60  82 102 148 194 224 277 340
#     4   9  19  35  53  77 110 144 184 234 277 320
#     4  10  22  38  54  80 116 144 178 234 288 334
#     4   9  19  37  55  77 109 140 172 216 268 321
#     4   9  19  35  54  79 112 146 181 223 268 319
#
# _framework density 20.569863000000002
#
# number of rings (size 3 to 8) (size 9 to 14) (size 15 to 20)
#    0.000    2.750    0.000    3.500    0.000    5.333 
#    0.000   13.333    0.000   10.000    0.000    0.000 
#    0.000    0.000    0.000    0.000    0.000    0.000 
#
# Total GULP energy -594653.199629 kJ/mol
# GULP energy per Si atom -12388.608326 kJ/mol
# Density = 2.052305 g / cm^3
# Si number density = 20.569863 Si / 1000 Ang^3
#
#
#
# Elastic Constant Matrix: (Units=GPa)
#
#
# Indices 1 2 3 4 5 6 
#
# 1 63.1983 41.2734 57.3863 0.0000 0.0000 0.0000
# 2 41.2734 63.1986 57.3862 0.0000 0.0000 0.0000
# 3 57.3863 57.3862 106.0774 0.0000 0.0000 0.0000
# 4 0.0000 0.0000 0.0000 38.9000 0.0000 0.0000
# 5 0.0000 0.0000 0.0000 0.0000 38.8970 0.0000
# 6 0.0000 0.0000 0.0000 0.0000 0.0000 39.7824
#
#
#
# Elastic Compliance Matrix: (Units=1/GPa)
#
#
# Indices 1 2 3 4 5 6 
#
# 1 0.034603 -0.011007 -0.012765 0.000000 0.000000 0.000000
# 2 -0.011007 0.034602 -0.012764 0.000000 0.000000 0.000000
# 3 -0.012765 -0.012764 0.023238 0.000000 0.000000 0.000000
# 4 0.000000 0.000000 0.000000 0.025707 0.000000 0.000000
# 5 0.000000 0.000000 0.000000 0.000000 0.025709 0.000000
# 6 0.000000 0.000000 0.000000 0.000000 0.000000 0.025137
#
#
# Mechanical properties :
#
#
# Convention : Reuss Voigt Hill
#
# Bulk Modulus (GPa) = 51.62671 60.50733 56.06702
# Shear Modulus (GPa) = 20.11865 28.61111 24.36488
#
# Velocity S-wave (km/s) = 3.13080 3.73356 3.44538
# Velocity P-wave (km/s) = 6.18239 6.93291 6.56838
#
# Compressibility (1/GPa) = 0.01936982
#
# Stress axis : x y z
#
# Youngs Moduli (GPa) = 28.89944 28.89973 43.03303
#
# Poissons Ratio (x) = 0.31811 0.54930
# Poissons Ratio (y) = 0.31811 0.54929
# Poissons Ratio (z) = 0.36889 0.36889
#
# Static dielectric constant tensor:
#      x y z
#    x 3.653840 0.000000 0.000000 
#    y 0.000000 3.653830 0.000000 
#    z 0.000000 0.000000 3.626260 
# 
# 
# High freq. dielectric constant tensor:
#      x y z
#    x 1.805570 0.000000 0.000000 
#    y 0.000000 1.805570 0.000000 
#    z 0.000000 0.000000 1.797270 
# 
# From -- ./inp_files/3000.got.cif
#   From: 2010.03.12/outbox.cif.g09.slc.cpg/sg89_2_cif.got.tgz:3000.got - 2010.04.08 20:24:03.
