data_PCOD8304116
_publ_section_title
;
Structure prediction by ZEFSAII (Michael W. Deem and Ramdas Pophale) SiO2 
 PCOD8304116
Probable space group: I 4/M
;
_chemical_formula_sum "Si O2"
_cell_formula_units_Z 96
_cell_length_a 16.982512
_cell_length_b 16.982512
_cell_length_c 17.428747
_cell_angle_alpha 90.000000
_cell_angle_beta 90.000000
_cell_angle_gamma 90.000000
_cell_volume 5026.550220
_symmetry_space_group_name_H-M "I 4/M"
_symmetry_group_IT_number 87
_symmetry_cell_setting 'tetragonal'
loop_
_space_group_symop_operation_xyz
x,y,z
-y,x,z
-x,-y,z
y,-x,z
-x,-y,-z
y,-x,-z
x,y,-z
-y,x,-z
1/2+x,1/2+y,1/2+z
1/2-y,1/2+x,1/2+z
1/2-x,1/2-y,1/2+z
1/2+y,1/2-x,1/2+z
1/2-x,1/2-y,1/2-z
1/2+y,1/2-x,1/2-z
1/2+x,1/2+y,1/2-z
1/2-y,1/2+x,1/2-z
loop_
_atom_site_type_symbol
_atom_site_label
_atom_site_fract_x
_atom_site_fract_y
_atom_site_fract_z
Si Si1 0.496310 0.375185 0.408894
Si Si2 0.715437 0.589396 0.912186
Si Si3 0.495531 0.803127 0.587915
Si Si4 0.092907 0.619754 0.655498
Si Si5 0.625453 0.087187 0.328685
Si Si6 0.911357 0.784368 0.587747
O O1 0.575855 0.419554 0.379981
O O2 0.494820 0.373854 0.500000
O O3 0.493420 0.285389 0.378149
O O4 0.787810 0.607225 0.855758
O O5 0.643830 0.644185 0.887005
O O6 0.685949 0.500326 0.901875
O O7 0.741707 0.604747 0.000000
O O8 0.467646 0.799509 0.500000
O O9 0.575488 0.853697 0.592812
O O10 0.430847 0.846645 0.638162
O O11 0.123319 0.590306 0.737321
O O12 0.000294 0.599722 0.643742
O O13 0.712372 0.107742 0.356725
O O14 0.895696 0.758029 0.500000
#
# Coordination Sequence:
#
# PCOD8304116 Si02
#       6
#    16  16  16  16  16  16
#     4   8  16  34  58  84 115 145 178 230 287 333
#     4   9  19  36  58  84 113 146 188 237 284 334
#     4  11  22  34  58  89 111 147 195 235 280 339
#     4  11  22  37  56  79 114 154 189 234 288 342
#     4  11  22  37  56  79 114 154 189 234 288 342
#     4   9  19  36  58  84 113 146 188 237 284 334
#
# _framework density 19.098586000000001
#
# number of rings (size 3 to 8) (size 9 to 14) (size 15 to 20)
#    0.000    2.167    1.667    2.000    0.000    5.000 
#    0.000    5.000    0.000    0.000    0.000    0.000 
#    0.000    0.000    0.000    0.000    0.000    0.000 
#
# Total GULP energy -595181.399122 kJ/mol
# GULP energy per Si atom -12399.612482 kJ/mol
# Density = 1.905512 g / cm^3
# Si number density = 19.098586 Si / 1000 Ang^3
#
#
#
# Elastic Constant Matrix: (Units=GPa)
#
#
# Indices 1 2 3 4 5 6 
#
# 1 136.3581 78.3076 23.5417 0.0000 0.0000 1.7125
# 2 78.3076 136.3581 23.5417 0.0000 0.0000 -1.7125
# 3 23.5417 23.5417 35.2454 0.0000 0.0000 0.0000
# 4 0.0000 0.0000 0.0000 14.7770 0.0000 0.0000
# 5 0.0000 0.0000 0.0000 0.0000 14.7770 0.0000
# 6 1.7125 -1.7125 0.0000 0.0000 0.0000 7.6900
#
#
#
# Elastic Compliance Matrix: (Units=1/GPa)
#
#
# Indices 1 2 3 4 5 6 
#
# 1 0.011457 -0.005999 -0.003646 0.000000 0.000000 -0.003887
# 2 -0.005999 0.011457 -0.003646 0.000000 0.000000 0.003887
# 3 -0.003646 -0.003646 0.033243 0.000000 0.000000 0.000000
# 4 0.000000 0.000000 0.000000 0.067673 0.000000 0.000000
# 5 0.000000 0.000000 0.000000 0.000000 0.067673 0.000000
# 6 -0.003887 0.003887 0.000000 0.000000 0.000000 0.131770
#
#
# Mechanical properties :
#
#
# Convention : Reuss Voigt Hill
#
# Bulk Modulus (GPa) = 33.81103 62.08265 47.94684
# Shear Modulus (GPa) = 13.90008 19.62018 16.76013
#
# Velocity S-wave (km/s) = 2.70072 3.20865 2.96558
# Velocity P-wave (km/s) = 5.24090 6.80472 6.07335
#
# Compressibility (1/GPa) = 0.02957615
#
# Stress axis : x y z
#
# Youngs Moduli (GPa) = 87.28391 87.28391 30.08192
#
# Poissons Ratio (x) = 0.52360 0.10967
# Poissons Ratio (y) = 0.52360 0.10967
# Poissons Ratio (z) = 0.31820 0.31820
#
# Static dielectric constant tensor:
#      x y z
#    x 3.626020 0.000000 0.000000 
#    y 0.000000 3.626020 0.000000 
#    z 0.000000 0.000000 3.285670 
# 
# 
# High freq. dielectric constant tensor:
#      x y z
#    x 1.746720 0.000000 0.000000 
#    y 0.000000 1.746720 0.000000 
#    z 0.000000 0.000000 1.721310 
# 
# From -- ./inp_files/4410.got.cif
#   From: 2010.03.12/outbox.cif.g09.slc.cpg/sg87_3_cif.got.tgz:4410.got - 2010.04.08 20:16:13.
