data_PCOD8304438
_publ_section_title
;
Structure prediction by ZEFSAII (Michael W. Deem and Ramdas Pophale) SiO2 
 PCOD8304438
Probable space group: I 41/A
;
_chemical_formula_sum "Si O2"
_cell_formula_units_Z 56
_cell_length_a 10.843242
_cell_length_b 10.843242
_cell_length_c 20.000016
_cell_angle_alpha 90.000000
_cell_angle_beta 90.000000
_cell_angle_gamma 90.000000
_cell_volume 2351.519823
_symmetry_space_group_name_H-M "I 41/A"
_symmetry_group_IT_number 88
_space_group.IT_coordinate_system_code '2'
_symmetry_cell_setting 'tetragonal'
loop_
_space_group_symop_operation_xyz
x,y,z
3/4-y,1/4+x,1/4+z
-x,1/2-y,z
1/4+y,1/4-x,1/4+z
-x,-y,-z
1/4+y,3/4-x,3/4-z
x,1/2+y,-z
3/4-y,3/4+x,3/4-z
1/2+x,1/2+y,1/2+z
1/4-y,3/4+x,3/4+z
1/2-x,-y,1/2+z
3/4+y,3/4-x,3/4+z
1/2-x,1/2-y,1/2-z
3/4+y,1/4-x,1/4-z
1/2+x,y,1/2-z
1/4-y,1/4+x,1/4-z
loop_
_atom_site_type_symbol
_atom_site_label
_atom_site_fract_x
_atom_site_fract_y
_atom_site_fract_z
Si Si1 0.373006 0.866896 0.589023
Si Si2 0.131207 0.013293 0.371839
Si Si3 0.201966 0.818199 0.477855
Si Si4 0.000000 0.250000 0.829689
O O1 0.516104 0.904799 0.601491
O O2 0.339272 0.819873 0.513437
O O3 0.284742 0.983318 0.594183
O O4 0.054350 0.138882 0.377086
O O5 0.156706 0.941200 0.440456
O O6 0.051233 0.934162 0.319371
O O7 0.110326 0.807118 0.538804
#
# Coordination Sequence:
#
# PCOD8304438 Si02
#       4
#    16  16  16   8
#     4  11  26  49  70 111 151 200 250 305 376 451
#     4  12  26  47  75 113 142 205 247 312 382 439
#     4  12  25  47  78 104 159 189 254 315 372 459
#     4  12  24  47  68 110 143 192 252 300 378 452
#
# _framework density 23.814384
#
# number of rings (size 3 to 8) (size 9 to 14) (size 15 to 20)
#    0.000    0.286    2.857    6.000    0.000    3.429 
#    0.000    0.000    0.000    0.000    0.000    0.000 
#    0.000    0.000    0.000    0.000    0.000    0.000 
#
# Total GULP energy -346959.903114 kJ/mol
# GULP energy per Si atom -12391.425111 kJ/mol
# Density = 2.376018 g / cm^3
# Si number density = 23.814384 Si / 1000 Ang^3
#
#
#
# Elastic Constant Matrix: (Units=GPa)
#
#
# Indices 1 2 3 4 5 6 
#
# 1 130.3937 -6.8722 31.9352 0.0000 0.0000 34.4083
# 2 -6.8722 130.3937 31.9352 0.0000 0.0000 -34.4083
# 3 31.9352 31.9352 96.1707 0.0000 0.0000 0.0000
# 4 0.0000 0.0000 0.0000 -4.9713 0.0000 0.0000
# 5 0.0000 0.0000 0.0000 0.0000 -4.9713 0.0000
# 6 34.4083 -34.4083 0.0000 0.0000 0.0000 56.3228
#
#
#
# Elastic Compliance Matrix: (Units=1/GPa)
#
#
# Indices 1 2 3 4 5 6 
#
# 1 0.010138 -0.000364 -0.003246 0.000000 0.000000 -0.006415
# 2 -0.000364 0.010138 -0.003246 0.000000 0.000000 0.006415
# 3 -0.003246 -0.003246 0.012554 0.000000 0.000000 0.000000
# 4 0.000000 0.000000 0.000000 -0.201153 0.000000 0.000000
# 5 0.000000 0.000000 0.000000 0.000000 -0.201153 0.000000
# 6 -0.006415 0.006415 0.000000 0.000000 0.000000 0.025593
#
#
# Mechanical properties :
#
#
# Convention : Reuss Voigt Hill
#
# Bulk Modulus (GPa) = 52.30345 52.32828 52.31586
# Shear Modulus (GPa) = -15.44158 29.27336 6.91589
#
# Velocity S-wave (km/s) = -2.54916 3.50984 1.70598
# Velocity P-wave (km/s) = 3.65327 6.20052 5.08885
#
# Compressibility (1/GPa) = 0.01911920
#
# Stress axis : x y z
#
# Youngs Moduli (GPa) = 98.64148 98.64148 79.65771
#
# Poissons Ratio (x) = 0.03588 0.25854
# Poissons Ratio (y) = 0.03588 0.25854
# Poissons Ratio (z) = 0.32015 0.32015
#
# Static dielectric constant tensor:
#      x y z
#    x 4.612780 0.000000 0.000000 
#    y 0.000000 4.612780 0.000000 
#    z 0.000000 0.000000 4.597040 
# 
# 
# High freq. dielectric constant tensor:
#      x y z
#    x 1.956110 0.000000 0.000000 
#    y 0.000000 1.956110 0.000000 
#    z 0.000000 0.000000 1.934910 
# 
# From -- ./inp_files/4315.got.cif
#   From: 2010.03.12/outbox.cif.g09.slc.cpg/sg88_3_cif.got.tgz:4315.got - 2010.04.08 20:20:55.
