data_PCOD8304627
_publ_section_title
;
Structure prediction by ZEFSAII (Michael W. Deem and Ramdas Pophale) SiO2 
 PCOD8304627
Probable space group: P 4 21 2
;
_chemical_formula_sum "Si O2"
_cell_formula_units_Z 32
_cell_length_a 11.588563
_cell_length_b 11.588563
_cell_length_c 11.099531
_cell_angle_alpha 90.000000
_cell_angle_beta 90.000000
_cell_angle_gamma 90.000000
_cell_volume 1490.609211
_symmetry_space_group_name_H-M "P 4 21 2"
_symmetry_group_IT_number 90
_symmetry_cell_setting 'tetragonal'
loop_
_space_group_symop_operation_xyz
x,y,z
1/2-y,1/2+x,z
-x,-y,z
1/2+y,1/2-x,z
1/2+x,1/2-y,-z
1/2-x,1/2+y,-z
y,x,-z
-y,-x,-z
loop_
_atom_site_type_symbol
_atom_site_label
_atom_site_fract_x
_atom_site_fract_y
_atom_site_fract_z
Si Si1 0.321033 0.288730 0.638939
Si Si2 0.827171 0.581958 0.827349
Si Si3 0.338389 0.586260 0.366171
Si Si4 0.500000 0.500000 0.810493
Si Si5 0.634334 0.634334 0.000000
O O1 0.300282 0.300282 0.500000
O O2 0.252650 0.385400 0.713814
O O3 0.268074 0.164903 0.675763
O O4 0.457026 0.293903 0.657056
O O5 0.847956 0.445728 0.821317
O O6 0.764929 0.615369 0.953799
O O7 0.386170 0.613831 0.500000
O O8 0.446906 0.601111 0.274836
O O9 0.549720 0.604821 0.889524
#
# Coordination Sequence:
#
# PCOD8304627 Si02
#       5
#     8   8   8   4   4
#     4  11  25  42  69 105 135 185 228 292 349 428
#     4  11  26  49  71 100 143 185 233 296 360 418
#     4  11  24  43  71 102 144 183 238 287 362 426
#     4  11  21  42  68 100 135 181 230 292 338 431
#     4  11  24  42  72  97 126 186 240 283 342 418
#
# _framework density 21.467734
#
# number of rings (size 3 to 8) (size 9 to 14) (size 15 to 20)
#    0.000    1.000    2.500    3.375    7.000    4.500 
#    0.000    0.000    0.000    0.000    0.000    0.000 
#    0.000    0.000    0.000    0.000    0.000    0.000 
#
# Total GULP energy -396609.738996 kJ/mol
# GULP energy per Si atom -12394.054344 kJ/mol
# Density = 2.141887 g / cm^3
# Si number density = 21.467734 Si / 1000 Ang^3
#
#
#
# Elastic Constant Matrix: (Units=GPa)
#
#
# Indices 1 2 3 4 5 6 
#
# 1 161.6539 75.6140 61.8232 0.0000 0.0000 0.0000
# 2 75.6140 161.6561 61.8246 0.0000 0.0000 0.0000
# 3 61.8232 61.8246 130.9934 0.0000 0.0000 0.0000
# 4 0.0000 0.0000 0.0000 32.7739 0.0000 0.0000
# 5 0.0000 0.0000 0.0000 0.0000 32.7765 0.0000
# 6 0.0000 0.0000 0.0000 0.0000 0.0000 38.1583
#
#
#
# Elastic Compliance Matrix: (Units=1/GPa)
#
#
# Indices 1 2 3 4 5 6 
#
# 1 0.008606 -0.003017 -0.002638 0.000000 0.000000 0.000000
# 2 -0.003017 0.008606 -0.002638 0.000000 0.000000 0.000000
# 3 -0.002638 -0.002638 0.010124 0.000000 0.000000 0.000000
# 4 0.000000 0.000000 0.000000 0.030512 0.000000 0.000000
# 5 0.000000 0.000000 0.000000 0.000000 0.030510 0.000000
# 6 0.000000 0.000000 0.000000 0.000000 0.000000 0.026207
#
#
# Mechanical properties :
#
#
# Convention : Reuss Voigt Hill
#
# Bulk Modulus (GPa) = 93.01582 94.75856 93.88719
# Shear Modulus (GPa) = 37.11056 37.74451 37.42754
#
# Velocity S-wave (km/s) = 4.16223 4.19764 4.17997
# Velocity P-wave (km/s) = 8.15605 8.22978 8.19300
#
# Compressibility (1/GPa) = 0.01075086
#
# Stress axis : x y z
#
# Youngs Moduli (GPa) = 116.19959 116.20032 98.77510
#
# Poissons Ratio (x) = 0.35052 0.26056
# Poissons Ratio (y) = 0.35052 0.26057
# Poissons Ratio (z) = 0.30652 0.30654
#
# Static dielectric constant tensor:
#      x y z
#    x 4.264770 0.000000 0.000000 
#    y 0.000000 4.264890 0.000000 
#    z 0.000000 0.000000 5.728130 
# 
# 
# High freq. dielectric constant tensor:
#      x y z
#    x 1.849200 0.000000 0.000000 
#    y 0.000000 1.849200 0.000000 
#    z 0.000000 0.000000 1.853650 
# 
# From -- ./inp_files/1902.got.cif
#   From: 2010.03.12/outbox.cif.g09.slc.cpg/sg90_1_cif.got.tgz:1902.got - 2010.04.08 20:26:03.
