data_PCOD8304345
_publ_section_title
;
Structure prediction by ZEFSAII (Michael W. Deem and Ramdas Pophale) SiO2 
 PCOD8304345
Probable space group: I 41/A
;
_chemical_formula_sum "Si O2"
_cell_formula_units_Z 80
_cell_length_a 15.849509
_cell_length_b 15.849509
_cell_length_c 15.498886
_cell_angle_alpha 90.000000
_cell_angle_beta 90.000000
_cell_angle_gamma 90.000000
_cell_volume 3893.427656
_symmetry_space_group_name_H-M "I 41/A"
_symmetry_group_IT_number 88
_space_group.IT_coordinate_system_code '2'
_symmetry_cell_setting 'tetragonal'
loop_
_space_group_symop_operation_xyz
x,y,z
3/4-y,1/4+x,1/4+z
-x,1/2-y,z
1/4+y,1/4-x,1/4+z
-x,-y,-z
1/4+y,3/4-x,3/4-z
x,1/2+y,-z
3/4-y,3/4+x,3/4-z
1/2+x,1/2+y,1/2+z
1/4-y,3/4+x,3/4+z
1/2-x,-y,1/2+z
3/4+y,3/4-x,3/4+z
1/2-x,1/2-y,1/2-z
3/4+y,1/4-x,1/4-z
1/2+x,y,1/2-z
1/4-y,1/4+x,1/4-z
loop_
_atom_site_type_symbol
_atom_site_label
_atom_site_fract_x
_atom_site_fract_y
_atom_site_fract_z
Si Si1 0.338838 0.992177 0.992540
Si Si2 0.762410 0.348563 0.928353
Si Si3 0.233230 0.336864 0.941216
Si Si4 0.845069 0.343212 0.210543
Si Si5 0.099181 0.091368 0.033273
O O1 0.396548 0.003877 0.075878
O O2 0.282842 0.908481 0.005658
O O3 0.283867 0.076313 0.979307
O O4 0.397861 0.979482 0.910599
O O5 0.727046 0.256333 0.956674
O O6 0.860985 0.355844 0.954122
O O7 0.138295 0.335959 0.978635
O O8 0.756711 0.353047 0.259696
O O9 0.843897 0.389811 0.117856
O O10 0.871099 0.246037 0.199106
#
# Coordination Sequence:
#
# PCOD8304345 Si02
#       5
#    16  16  16  16  16
#     4  10  23  42  61  90 126 160 219 268 314 384
#     4  11  22  39  64  89 122 169 212 263 325 383
#     4  11  22  39  64  89 122 169 212 263 325 383
#     4  11  23  39  60  91 130 168 211 267 328 393
#     4  11  23  39  60  91 130 168 211 267 328 393
#
# _framework density 20.547449
#
# number of rings (size 3 to 8) (size 9 to 14) (size 15 to 20)
#    0.000    1.200    2.000    4.200    0.000    7.600 
#    0.000    0.000    0.000   19.200    0.000    0.000 
#    0.000    0.000    0.000    0.000    0.000    0.000 
#
# Total GULP energy -495885.844440 kJ/mol
# GULP energy per Si atom -12397.146111 kJ/mol
# Density = 2.050068 g / cm^3
# Si number density = 20.547449 Si / 1000 Ang^3
#
#
#
# Elastic Constant Matrix: (Units=GPa)
#
#
# Indices 1 2 3 4 5 6 
#
# 1 110.3455 27.5015 29.7222 0.0000 0.0000 0.7513
# 2 27.5015 110.3455 29.7222 0.0000 0.0000 -0.7513
# 3 29.7222 29.7222 65.7515 0.0000 0.0000 0.0000
# 4 0.0000 0.0000 0.0000 23.7099 0.0000 0.0000
# 5 0.0000 0.0000 0.0000 0.0000 23.7099 0.0000
# 6 0.7513 -0.7513 0.0000 0.0000 0.0000 15.4820
#
#
#
# Elastic Compliance Matrix: (Units=1/GPa)
#
#
# Indices 1 2 3 4 5 6 
#
# 1 0.010546 -0.001535 -0.004073 0.000000 0.000000 -0.000586
# 2 -0.001535 0.010546 -0.004073 0.000000 0.000000 0.000586
# 3 -0.004073 -0.004073 0.018891 0.000000 0.000000 0.000000
# 4 0.000000 0.000000 0.000000 0.042177 0.000000 0.000000
# 5 0.000000 0.000000 0.000000 0.000000 0.042177 0.000000
# 6 -0.000586 0.000586 0.000000 0.000000 0.000000 0.064648
#
#
# Mechanical properties :
#
#
# Convention : Reuss Voigt Hill
#
# Bulk Modulus (GPa) = 48.49640 51.14824 49.82232
# Shear Modulus (GPa) = 23.23184 25.88013 24.55598
#
# Velocity S-wave (km/s) = 3.36615 3.55284 3.46075
# Velocity P-wave (km/s) = 6.22586 6.46351 6.34580
#
# Compressibility (1/GPa) = 0.02062009
#
# Stress axis : x y z
#
# Youngs Moduli (GPa) = 94.82050 94.82050 52.93425
#
# Poissons Ratio (x) = 0.14558 0.21562
# Poissons Ratio (y) = 0.14558 0.21562
# Poissons Ratio (z) = 0.38623 0.38623
#
# Static dielectric constant tensor:
#      x y z
#    x 3.737690 0.000000 0.000000 
#    y 0.000000 3.737690 0.000000 
#    z 0.000000 0.000000 3.859370 
# 
# 
# High freq. dielectric constant tensor:
#      x y z
#    x 1.796950 0.000000 0.000000 
#    y 0.000000 1.796950 0.000000 
#    z 0.000000 0.000000 1.819830 
# 
# From -- ./inp_files/3155.got.cif
#   From: 2010.03.12/outbox.cif.g09.slc.cpg/sg88_2_cif.got.tgz:3155.got - 2010.04.08 20:20:55.
