data_PCOD8304123
_publ_section_title
;
Structure prediction by ZEFSAII (Michael W. Deem and Ramdas Pophale) SiO2 
 PCOD8304123
Probable space group: I 4/M
;
_chemical_formula_sum "Si O2"
_cell_formula_units_Z 88
_cell_length_a 13.499025
_cell_length_b 13.499025
_cell_length_c 22.734445
_cell_angle_alpha 90.000000
_cell_angle_beta 90.000000
_cell_angle_gamma 90.000000
_cell_volume 4142.754139
_symmetry_space_group_name_H-M "I 4/M"
_symmetry_group_IT_number 87
_symmetry_cell_setting 'tetragonal'
loop_
_space_group_symop_operation_xyz
x,y,z
-y,x,z
-x,-y,z
y,-x,z
-x,-y,-z
y,-x,-z
x,y,-z
-y,x,-z
1/2+x,1/2+y,1/2+z
1/2-y,1/2+x,1/2+z
1/2-x,1/2-y,1/2+z
1/2+y,1/2-x,1/2+z
1/2-x,1/2-y,1/2-z
1/2+y,1/2-x,1/2-z
1/2+x,1/2+y,1/2-z
1/2-y,1/2+x,1/2-z
loop_
_atom_site_type_symbol
_atom_site_label
_atom_site_fract_x
_atom_site_fract_y
_atom_site_fract_z
Si Si1 0.725138 0.882995 0.434185
Si Si2 0.522868 0.337505 0.500000
Si Si3 0.237702 0.898639 0.606148
Si Si4 0.749299 0.908694 0.886196
Si Si5 0.078967 0.143446 0.267689
Si Si6 0.251026 0.887070 0.843218
O O1 0.676282 0.867895 0.500000
O O2 0.828883 0.825095 0.437133
O O3 0.662554 0.844743 0.376862
O O4 0.745262 0.998038 0.425365
O O5 0.611142 0.416781 0.500000
O O6 0.532107 0.261750 0.446559
O O7 0.344125 0.849456 0.617378
O O8 0.176821 0.905746 0.665946
O O9 0.849718 0.846202 0.877616
O O10 0.737012 0.995272 0.839200
O O11 0.133420 0.226821 0.226034
O O12 0.961486 0.132593 0.256096
#
# Coordination Sequence:
#
# PCOD8304123 Si02
#       6
#    16   8  16  16  16  16
#     4  11  26  45  67 100 135 180 234 283 344 412
#     4  11  22  36  64  95 137 172 220 279 331 410
#     4  11  25  44  67  95 133 179 228 284 339 397
#     4  11  24  38  62  98 132 174 214 266 339 400
#     4  11  22  42  71 102 133 171 230 286 347 412
#     4  11  24  41  65  99 135 172 218 275 340 409
#
# _framework density 21.241907999999999
#
# number of rings (size 3 to 8) (size 9 to 14) (size 15 to 20)
#    0.000    1.000    5.455    0.545    7.636    5.818 
#    0.000    1.818    0.000    2.182    0.000    0.000 
#    0.000    0.000    0.000    0.000    0.000    0.000 
#
# Total GULP energy -545120.632996 kJ/mol
# GULP energy per Si atom -12389.105295 kJ/mol
# Density = 2.119356 g / cm^3
# Si number density = 21.241908 Si / 1000 Ang^3
#
#
#
# Elastic Constant Matrix: (Units=GPa)
#
#
# Indices 1 2 3 4 5 6 
#
# 1 71.8427 40.1682 3.0006 0.0000 0.0000 8.1951
# 2 40.1682 71.8427 3.0006 0.0000 0.0000 -8.1951
# 3 3.0006 3.0006 103.7041 0.0000 0.0000 0.0000
# 4 0.0000 0.0000 0.0000 33.2273 0.0000 0.0000
# 5 0.0000 0.0000 0.0000 0.0000 33.2273 0.0000
# 6 8.1951 -8.1951 0.0000 0.0000 0.0000 9.9320
#
#
#
# Elastic Compliance Matrix: (Units=1/GPa)
#
#
# Indices 1 2 3 4 5 6 
#
# 1 0.032018 -0.023077 -0.000259 0.000000 0.000000 -0.045460
# 2 -0.023077 0.032018 -0.000259 0.000000 0.000000 0.045460
# 3 -0.000259 -0.000259 0.009658 0.000000 0.000000 0.000000
# 4 0.000000 0.000000 0.000000 0.030096 0.000000 0.000000
# 5 0.000000 0.000000 0.000000 0.000000 0.030096 0.000000
# 6 -0.045460 0.045460 0.000000 0.000000 0.000000 0.175705
#
#
# Mechanical properties :
#
#
# Convention : Reuss Voigt Hill
#
# Bulk Modulus (GPa) = 37.72725 37.74760 37.73743
# Shear Modulus (GPa) = 13.67560 28.69199 21.18380
#
# Velocity S-wave (km/s) = 2.54008 3.67921 3.16138
# Velocity P-wave (km/s) = 5.13829 5.98813 5.57941
#
# Compressibility (1/GPa) = 0.02650604
#
# Stress axis : x y z
#
# Youngs Moduli (GPa) = 31.23210 31.23210 103.54338
#
# Poissons Ratio (x) = 0.72074 0.02679
# Poissons Ratio (y) = 0.72074 0.02679
# Poissons Ratio (z) = 0.00808 0.00808
#
# Static dielectric constant tensor:
#      x y z
#    x 3.816880 0.000000 0.000000 
#    y 0.000000 3.816880 0.000000 
#    z 0.000000 0.000000 3.942730 
# 
# 
# High freq. dielectric constant tensor:
#      x y z
#    x 1.823800 0.000000 0.000000 
#    y 0.000000 1.823800 0.000000 
#    z 0.000000 0.000000 1.844920 
# 
# From -- ./inp_files/5208.got.cif
#   From: 2010.03.12/outbox.cif.g09.slc.cpg/sg87_3_cif.got.tgz:5208.got - 2010.04.08 20:16:13.
