data_PCOD8304850
_publ_section_title
;
Structure prediction by ZEFSAII (Michael W. Deem and Ramdas Pophale) SiO2 
 PCOD8304850
Probable space group: P 41 2 2
;
_chemical_formula_sum "Si O2"
_cell_formula_units_Z 52
_cell_length_a 17.472603
_cell_length_b 17.472603
_cell_length_c 9.061774
_cell_angle_alpha 90.000000
_cell_angle_beta 90.000000
_cell_angle_gamma 90.000000
_cell_volume 2766.485799
_symmetry_space_group_name_H-M "P 41 2 2"
_symmetry_group_IT_number 91
_symmetry_cell_setting 'tetragonal'
loop_
_space_group_symop_operation_xyz
x,y,z
-y,x,1/4+z
-x,-y,1/2+z
y,-x,3/4+z
x,-y,1/2-z
-x,y,-z
y,x,3/4-z
-y,-x,1/4-z
loop_
_atom_site_type_symbol
_atom_site_label
_atom_site_fract_x
_atom_site_fract_y
_atom_site_fract_z
Si Si1 0.380456 0.839555 0.231257
Si Si2 0.248837 0.751164 0.125000
Si Si3 0.194072 0.119490 0.575761
Si Si4 0.654440 0.126113 0.046098
Si Si5 0.934545 0.065456 0.625000
Si Si6 0.337972 0.045144 0.488430
Si Si7 0.818417 0.181584 0.125000
Si Si8 0.465352 0.916116 0.794181
O O1 0.339813 0.766115 0.151762
O O2 0.377471 0.826617 0.406686
O O3 0.468590 0.852786 0.185141
O O4 0.331374 0.913215 0.170823
O O5 0.204135 0.785853 0.265861
O O6 0.144265 0.065832 0.467443
O O7 0.272746 0.073977 0.601275
O O8 0.152012 0.133557 0.732943
O O9 0.727955 0.168357 0.111068
O O10 0.590649 0.117241 0.170153
O O11 0.673721 0.044439 0.974346
O O12 0.000000 0.061223 0.500000
O O13 0.420209 0.070439 0.553932
O O14 0.499878 0.000000 0.750000
#
# Coordination Sequence:
#
# PCOD8304850 Si02
#       8
#     8   4   8   8   4   8   4   8
#     4  11  20  34  57  76 114 151 189 235 286 350
#     4   9  20  36  52  81 102 150 201 230 276 343
#     4  10  22  40  61  77 108 147 194 244 301 363
#     4  11  22  35  54  82 111 149 193 242 294 357
#     4  11  28  49  62  84 108 142 205 274 322 355
#     4  10  21  36  56  82 110 146 192 242 297 360
#     4  12  22  37  56  83 112 152 198 244 292 354
#     4  10  20  35  52  85 116 146 187 237 299 359
#
# _framework density 18.796409000000001
#
# number of rings (size 3 to 8) (size 9 to 14) (size 15 to 20)
#    0.000    1.538    3.077    2.308    2.154    3.077 
#    0.000    0.000    0.000    0.000    0.000    0.000 
#    0.000    0.000    0.000   48.462    0.000    2.462 
#
# Total GULP energy -644385.344997 kJ/mol
# GULP energy per Si atom -12392.025865 kJ/mol
# Density = 1.875363 g / cm^3
# Si number density = 18.796409 Si / 1000 Ang^3
#
#
#
# Elastic Constant Matrix: (Units=GPa)
#
#
# Indices 1 2 3 4 5 6 
#
# 1 77.7676 54.8596 19.9580 0.0000 0.0000 0.0000
# 2 54.8596 77.7684 19.9582 0.0000 0.0000 0.0000
# 3 19.9580 19.9582 94.5824 0.0000 0.0000 0.0000
# 4 0.0000 0.0000 0.0000 20.0082 0.0000 0.0000
# 5 0.0000 0.0000 0.0000 0.0000 20.0084 0.0000
# 6 0.0000 0.0000 0.0000 0.0000 0.0000 33.6623
#
#
#
# Elastic Compliance Matrix: (Units=1/GPa)
#
#
# Indices 1 2 3 4 5 6 
#
# 1 0.025852 -0.017800 -0.001699 0.000000 0.000000 0.000000
# 2 -0.017800 0.025852 -0.001699 0.000000 0.000000 0.000000
# 3 -0.001699 -0.001699 0.011290 0.000000 0.000000 0.000000
# 4 0.000000 0.000000 0.000000 0.049980 0.000000 0.000000
# 5 0.000000 0.000000 0.000000 0.000000 0.049979 0.000000
# 6 0.000000 0.000000 0.000000 0.000000 0.000000 0.029707
#
#
# Mechanical properties :
#
#
# Convention : Reuss Voigt Hill
#
# Bulk Modulus (GPa) = 48.55175 48.85221 48.70198
# Shear Modulus (GPa) = 20.66795 25.09196 22.87996
#
# Velocity S-wave (km/s) = 3.31957 3.65764 3.49270
# Velocity P-wave (km/s) = 6.37018 6.62453 6.49860
#
# Compressibility (1/GPa) = 0.02059658
#
# Stress axis : x y z
#
# Youngs Moduli (GPa) = 38.68204 38.68246 88.57574
#
# Poissons Ratio (x) = 0.68856 0.15048
# Poissons Ratio (y) = 0.68856 0.15048
# Poissons Ratio (z) = 0.06572 0.06572
#
# Static dielectric constant tensor:
#      x y z
#    x 3.295460 0.000000 0.000000 
#    y 0.000000 3.295460 0.000000 
#    z 0.000000 0.000000 3.654250 
# 
# 
# High freq. dielectric constant tensor:
#      x y z
#    x 1.699830 0.000000 0.000000 
#    y 0.000000 1.699830 0.000000 
#    z 0.000000 0.000000 1.755950 
# 
# From -- ./inp_files/19691.got.cif
#   From: 2010.03.12/outbox.cif.g09.slc.cpg/sg91_10_cif.got.tgz:19691.got - 2010.04.08 20:27:58.
