data_PCOD8304330
_publ_section_title
;
Structure prediction by ZEFSAII (Michael W. Deem and Ramdas Pophale) SiO2 
 PCOD8304330
Probable space group: I 41/A
;
_chemical_formula_sum "Si O2"
_cell_formula_units_Z 56
_cell_length_a 17.581655
_cell_length_b 17.581655
_cell_length_c 7.105071
_cell_angle_alpha 90.000000
_cell_angle_beta 90.000000
_cell_angle_gamma 90.000000
_cell_volume 2196.281127
_symmetry_space_group_name_H-M "I 41/A"
_symmetry_group_IT_number 88
_space_group.IT_coordinate_system_code '2'
_symmetry_cell_setting 'tetragonal'
loop_
_space_group_symop_operation_xyz
x,y,z
3/4-y,1/4+x,1/4+z
-x,1/2-y,z
1/4+y,1/4-x,1/4+z
-x,-y,-z
1/4+y,3/4-x,3/4-z
x,1/2+y,-z
3/4-y,3/4+x,3/4-z
1/2+x,1/2+y,1/2+z
1/4-y,3/4+x,3/4+z
1/2-x,-y,1/2+z
3/4+y,3/4-x,3/4+z
1/2-x,1/2-y,1/2-z
3/4+y,1/4-x,1/4-z
1/2+x,y,1/2-z
1/4-y,1/4+x,1/4-z
loop_
_atom_site_type_symbol
_atom_site_label
_atom_site_fract_x
_atom_site_fract_y
_atom_site_fract_z
Si Si1 0.000000 0.250000 0.625000
Si Si2 0.134262 0.163787 0.477461
Si Si3 0.873393 0.357922 0.051319
Si Si4 0.500000 0.250000 0.375000
Si Si5 0.433099 0.457606 0.752576
O O1 0.059763 0.216619 0.477098
O O2 0.143932 0.128150 0.271283
O O3 0.200129 0.225186 0.534534
O O4 0.122588 0.095753 0.623423
O O5 0.928235 0.285838 0.010472
O O6 0.793643 0.338793 0.950891
O O7 0.912272 0.433515 0.963121
#
# Coordination Sequence:
#
# PCOD8304330 Si02
#       5
#     4  16  16   4  16
#     4   8  18  36  66 114 132 190 250 292 362 418
#     4  10  22  41  73 103 149 190 240 308 354 441
#     4  12  26  48  72 112 141 199 242 312 357 447
#     4  12  26  44  86  94 144 198 254 292 370 438
#     4  11  27  45  73 111 148 188 256 291 382 422
#
# _framework density 25.497647000000001
#
# number of rings (size 3 to 8) (size 9 to 14) (size 15 to 20)
#    0.000    1.143    2.857    1.714    8.000    3.429 
#    5.143    0.000    0.000    0.000    0.000    0.000 
#    0.000    0.000    0.000    0.000    0.000    0.000 
#
# Total GULP energy -347058.116354 kJ/mol
# GULP energy per Si atom -12394.932727 kJ/mol
# Density = 2.543961 g / cm^3
# Si number density = 25.497647 Si / 1000 Ang^3
#
#
#
# Elastic Constant Matrix: (Units=GPa)
#
#
# Indices 1 2 3 4 5 6 
#
# 1 139.4408 34.4778 8.2775 0.0000 0.0000 -1.2299
# 2 34.4778 139.4408 8.2775 0.0000 0.0000 1.2299
# 3 8.2775 8.2775 85.2075 0.0000 0.0000 0.0000
# 4 0.0000 0.0000 0.0000 25.0107 0.0000 0.0000
# 5 0.0000 0.0000 0.0000 0.0000 25.0107 0.0000
# 6 -1.2299 1.2299 0.0000 0.0000 0.0000 14.0874
#
#
#
# Elastic Compliance Matrix: (Units=1/GPa)
#
#
# Indices 1 2 3 4 5 6 
#
# 1 0.007675 -0.001872 -0.000564 0.000000 0.000000 0.000834
# 2 -0.001872 0.007675 -0.000564 0.000000 0.000000 -0.000834
# 3 -0.000564 -0.000564 0.011846 0.000000 0.000000 0.000000
# 4 0.000000 0.000000 0.000000 0.039983 0.000000 0.000000
# 5 0.000000 0.000000 0.000000 0.000000 0.039983 0.000000
# 6 0.000834 -0.000834 0.000000 0.000000 0.000000 0.071131
#
#
# Mechanical properties :
#
#
# Convention : Reuss Voigt Hill
#
# Bulk Modulus (GPa) = 47.17550 51.79495 49.48522
# Shear Modulus (GPa) = 26.12919 33.69218 29.91069
#
# Velocity S-wave (km/s) = 3.20467 3.63903 3.42874
# Velocity P-wave (km/s) = 5.67762 6.16558 5.92662
#
# Compressibility (1/GPa) = 0.02119744
#
# Stress axis : x y z
#
# Youngs Moduli (GPa) = 130.29164 130.29164 84.41954
#
# Poissons Ratio (x) = 0.24385 0.04759
# Poissons Ratio (y) = 0.24385 0.04759
# Poissons Ratio (z) = 0.07346 0.07346
#
# Static dielectric constant tensor:
#      x y z
#    x 4.456040 0.000000 0.000000 
#    y 0.000000 4.456040 0.000000 
#    z 0.000000 0.000000 4.405190 
# 
# 
# High freq. dielectric constant tensor:
#      x y z
#    x 2.004640 0.000000 0.000000 
#    y 0.000000 2.004640 0.000000 
#    z 0.000000 0.000000 2.029310 
# 
# From -- ./inp_files/1240.got.cif
#   From: 2010.03.12/outbox.cif.g09.slc.cpg/sg88_1_cif.got.tgz:1240.got - 2010.04.08 20:20:55.
