data_PCOD8304334
_publ_section_title
;
Structure prediction by ZEFSAII (Michael W. Deem and Ramdas Pophale) SiO2 
 PCOD8304334
Probable space group: I 41/A
;
_chemical_formula_sum "Si O2"
_cell_formula_units_Z 68
_cell_length_a 11.776168
_cell_length_b 11.776168
_cell_length_c 23.623963
_cell_angle_alpha 90.000000
_cell_angle_beta 90.000000
_cell_angle_gamma 90.000000
_cell_volume 3276.127077
_symmetry_space_group_name_H-M "I 41/A"
_symmetry_group_IT_number 88
_space_group.IT_coordinate_system_code '2'
_symmetry_cell_setting 'tetragonal'
loop_
_space_group_symop_operation_xyz
x,y,z
3/4-y,1/4+x,1/4+z
-x,1/2-y,z
1/4+y,1/4-x,1/4+z
-x,-y,-z
1/4+y,3/4-x,3/4-z
x,1/2+y,-z
3/4-y,3/4+x,3/4-z
1/2+x,1/2+y,1/2+z
1/4-y,3/4+x,3/4+z
1/2-x,-y,1/2+z
3/4+y,3/4-x,3/4+z
1/2-x,1/2-y,1/2-z
3/4+y,1/4-x,1/4-z
1/2+x,y,1/2-z
1/4-y,1/4+x,1/4-z
loop_
_atom_site_type_symbol
_atom_site_label
_atom_site_fract_x
_atom_site_fract_y
_atom_site_fract_z
Si Si1 0.000000 0.750000 0.875000
Si Si2 0.663400 0.530291 0.863061
Si Si3 0.620880 0.751847 0.927610
Si Si4 0.871716 0.082055 0.209845
Si Si5 0.312339 0.338570 0.584439
O O1 0.069392 0.833650 0.834524
O O2 0.663159 0.627558 0.910461
O O3 0.743669 0.562362 0.810349
O O4 0.538813 0.511709 0.836551
O O5 0.710089 0.419306 0.895111
O O6 0.500000 0.750000 0.961078
O O7 0.714602 0.809523 0.966152
O O8 0.599911 0.827184 0.872368
O O9 0.873855 0.120149 0.274829
#
# Coordination Sequence:
#
# PCOD8304334 Si02
#       5
#     4  16  16  16  16
#     4  12  24  36  64 108 136 156 216 256 316 410
#     4  10  22  43  58  92 130 155 222 255 300 401
#     4   9  20  41  58  88 127 159 208 259 304 388
#     4  11  23  39  64  96 127 166 206 265 324 373
#     4  10  24  40  66  88 124 176 203 267 329 357
#
# _framework density 20.756216999999999
#
# number of rings (size 3 to 8) (size 9 to 14) (size 15 to 20)
#    0.000    1.882    2.353    0.000    8.235    1.412 
#    4.235    3.529    0.000    0.000    0.000    0.000 
#    0.000    0.000    0.000    0.000    0.000    0.000 
#
# Total GULP energy -421479.167587 kJ/mol
# GULP energy per Si atom -12396.446105 kJ/mol
# Density = 2.070898 g / cm^3
# Si number density = 20.756217 Si / 1000 Ang^3
#
#
#
# Elastic Constant Matrix: (Units=GPa)
#
#
# Indices 1 2 3 4 5 6 
#
# 1 106.5235 44.0108 8.8008 0.0000 0.0000 5.4558
# 2 44.0108 106.5235 8.8008 0.0000 0.0000 -5.4558
# 3 8.8008 8.8008 64.0640 0.0000 0.0000 0.0000
# 4 0.0000 0.0000 0.0000 15.8604 0.0000 0.0000
# 5 0.0000 0.0000 0.0000 0.0000 15.8604 0.0000
# 6 5.4558 -5.4558 0.0000 0.0000 0.0000 36.2533
#
#
#
# Elastic Compliance Matrix: (Units=1/GPa)
#
#
# Indices 1 2 3 4 5 6 
#
# 1 0.011590 -0.004838 -0.000927 0.000000 0.000000 -0.002472
# 2 -0.004838 0.011590 -0.000927 0.000000 0.000000 0.002472
# 3 -0.000927 -0.000927 0.015864 0.000000 0.000000 0.000000
# 4 0.000000 0.000000 0.000000 0.063050 0.000000 0.000000
# 5 0.000000 0.000000 0.000000 0.000000 0.063050 0.000000
# 6 -0.002472 0.002472 0.000000 0.000000 0.000000 0.028328
#
#
# Mechanical properties :
#
#
# Convention : Reuss Voigt Hill
#
# Bulk Modulus (GPa) = 38.97542 44.48176 41.72859
# Shear Modulus (GPa) = 23.21145 27.96140 25.58643
#
# Velocity S-wave (km/s) = 3.34771 3.67431 3.51481
# Velocity P-wave (km/s) = 5.81045 6.28314 6.05141
#
# Compressibility (1/GPa) = 0.02565720
#
# Stress axis : x y z
#
# Youngs Moduli (GPa) = 86.28221 86.28221 63.03490
#
# Poissons Ratio (x) = 0.41747 0.05846
# Poissons Ratio (y) = 0.41747 0.05846
# Poissons Ratio (z) = 0.08003 0.08003
#
# Static dielectric constant tensor:
#      x y z
#    x 4.206040 0.000000 0.000000 
#    y 0.000000 4.206040 0.000000 
#    z 0.000000 0.000000 3.434230 
# 
# 
# High freq. dielectric constant tensor:
#      x y z
#    x 1.824240 0.000000 0.000000 
#    y 0.000000 1.824240 0.000000 
#    z 0.000000 0.000000 1.793540 
# 
# From -- ./inp_files/5685.got.cif
#   From: 2010.03.12/outbox.cif.g09.slc.cpg/sg88_3_cif.got.tgz:5685.got - 2010.04.08 20:20:55.
