data_PCOD8304067
_publ_section_title
;
Structure prediction by ZEFSAII (Michael W. Deem and Ramdas Pophale) SiO2 
 PCOD8304067
Probable space group: I 4/M
;
_chemical_formula_sum "Si O2"
_cell_formula_units_Z 88
_cell_length_a 14.776995
_cell_length_b 14.776995
_cell_length_c 20.038482
_cell_angle_alpha 90.000000
_cell_angle_beta 90.000000
_cell_angle_gamma 90.000000
_cell_volume 4375.594538
_symmetry_space_group_name_H-M "I 4/M"
_symmetry_group_IT_number 87
_symmetry_cell_setting 'tetragonal'
loop_
_space_group_symop_operation_xyz
x,y,z
-y,x,z
-x,-y,z
y,-x,z
-x,-y,-z
y,-x,-z
x,y,-z
-y,x,-z
1/2+x,1/2+y,1/2+z
1/2-y,1/2+x,1/2+z
1/2-x,1/2-y,1/2+z
1/2+y,1/2-x,1/2+z
1/2-x,1/2-y,1/2-z
1/2+y,1/2-x,1/2-z
1/2+x,1/2+y,1/2-z
1/2-y,1/2+x,1/2-z
loop_
_atom_site_type_symbol
_atom_site_label
_atom_site_fract_x
_atom_site_fract_y
_atom_site_fract_z
Si Si1 0.247251 0.624717 0.383909
Si Si2 0.486091 0.270075 0.124818
Si Si3 0.377177 0.584004 0.500000
Si Si4 0.193477 0.173290 0.575300
Si Si5 0.544760 0.643649 0.734598
Si Si6 0.912630 0.553945 0.077308
O O1 0.330267 0.620568 0.434212
O O2 0.219511 0.730929 0.376733
O O3 0.278807 0.577440 0.315872
O O4 0.160475 0.569796 0.411279
O O5 0.400708 0.273496 0.075145
O O6 0.570644 0.328976 0.098590
O O7 0.448213 0.308767 0.194016
O O8 0.519673 0.166608 0.126311
O O9 0.375463 0.476536 0.500000
O O10 0.233422 0.172405 0.500000
O O11 0.441289 0.612014 0.724892
O O12 0.000000 0.500000 0.100044
O O13 0.888055 0.535371 0.000000
#
# Coordination Sequence:
#
# PCOD8304067 Si02
#       6
#    16  16   8  16  16  16
#     4  11  22  42  63  91 131 168 217 269 319 393
#     4  11  22  41  64  95 132 167 217 269 323 395
#     4  11  22  38  63  96 124 161 221 276 326 376
#     4  11  22  41  67  99 130 169 217 275 330 386
#     4  11  24  44  64  91 132 175 215 265 334 392
#     4  10  22  44  66  92 130 170 213 270 328 385
#
# _framework density 20.111553000000001
#
# number of rings (size 3 to 8) (size 9 to 14) (size 15 to 20)
#    0.000    1.182    3.636    3.818    0.000    5.455 
#    6.545    0.909    0.000    0.000    0.000    0.000 
#    0.000    0.000    0.000    0.000    0.000    0.000 
#
# Total GULP energy -545557.294420 kJ/mol
# GULP energy per Si atom -12399.029419 kJ/mol
# Density = 2.006578 g / cm^3
# Si number density = 20.111553 Si / 1000 Ang^3
#
#
#
# Elastic Constant Matrix: (Units=GPa)
#
#
# Indices 1 2 3 4 5 6 
#
# 1 101.9379 57.3248 32.1661 0.0000 0.0000 -13.4919
# 2 57.3248 101.9379 32.1661 0.0000 0.0000 13.4919
# 3 32.1661 32.1661 96.6041 0.0000 0.0000 0.0000
# 4 0.0000 0.0000 0.0000 34.0152 0.0000 0.0000
# 5 0.0000 0.0000 0.0000 0.0000 34.0152 0.0000
# 6 -13.4919 13.4919 0.0000 0.0000 0.0000 34.4902
#
#
#
# Elastic Compliance Matrix: (Units=1/GPa)
#
#
# Indices 1 2 3 4 5 6 
#
# 1 0.018308 -0.011054 -0.002416 0.000000 0.000000 0.011486
# 2 -0.011054 0.018308 -0.002416 0.000000 0.000000 -0.011486
# 3 -0.002416 -0.002416 0.011960 0.000000 0.000000 0.000000
# 4 0.000000 0.000000 0.000000 0.029399 0.000000 0.000000
# 5 0.000000 0.000000 0.000000 0.000000 0.029399 0.000000
# 6 0.011486 -0.011486 0.000000 0.000000 0.000000 0.037980
#
#
# Mechanical properties :
#
#
# Convention : Reuss Voigt Hill
#
# Bulk Modulus (GPa) = 59.49834 60.42155 59.95994
# Shear Modulus (GPa) = 27.36335 32.42563 29.89449
#
# Velocity S-wave (km/s) = 3.69260 4.01969 3.85961
# Velocity P-wave (km/s) = 6.91584 7.18695 7.05270
#
# Compressibility (1/GPa) = 0.01680719
#
# Stress axis : x y z
#
# Youngs Moduli (GPa) = 54.61981 54.61981 83.61098
#
# Poissons Ratio (x) = 0.60375 0.20197
# Poissons Ratio (y) = 0.60375 0.20197
# Poissons Ratio (z) = 0.13194 0.13194
#
# Static dielectric constant tensor:
#      x y z
#    x 3.685850 0.000000 0.000000 
#    y 0.000000 3.685850 0.000000 
#    z 0.000000 0.000000 3.559500 
# 
# 
# High freq. dielectric constant tensor:
#      x y z
#    x 1.792150 0.000000 0.000000 
#    y 0.000000 1.792150 0.000000 
#    z 0.000000 0.000000 1.773450 
# 
# From -- ./inp_files/5181.got.cif
#   From: 2010.03.12/outbox.cif.g09.slc.cpg/sg87_3_cif.got.tgz:5181.got - 2010.04.08 20:16:13.
