data_PCOD8304940
_publ_section_title
;
Structure prediction by ZEFSAII (Michael W. Deem and Ramdas Pophale) SiO2 
 PCOD8304940
Probable space group: P 41 2 2
;
_chemical_formula_sum "Si O2"
_cell_formula_units_Z 36
_cell_length_a 12.918626
_cell_length_b 12.918626
_cell_length_c 10.320056
_cell_angle_alpha 90.000000
_cell_angle_beta 90.000000
_cell_angle_gamma 90.000000
_cell_volume 1722.323410
_symmetry_space_group_name_H-M "P 41 2 2"
_symmetry_group_IT_number 91
_symmetry_cell_setting 'tetragonal'
loop_
_space_group_symop_operation_xyz
x,y,z
-y,x,1/4+z
-x,-y,1/2+z
y,-x,3/4+z
x,-y,1/2-z
-x,y,-z
y,x,3/4-z
-y,-x,1/4-z
loop_
_atom_site_type_symbol
_atom_site_label
_atom_site_fract_x
_atom_site_fract_y
_atom_site_fract_z
Si Si1 0.956922 0.611057 0.735389
Si Si2 0.728528 0.000000 0.250000
Si Si3 0.202182 0.202182 0.875000
Si Si4 0.098823 0.000000 0.250000
Si Si5 0.188117 0.608239 0.789980
Si Si6 0.722399 0.147427 0.710506
O O1 0.899679 0.500000 0.750000
O O2 0.926634 0.662967 0.598850
O O3 0.939133 0.681048 0.861388
O O4 0.078662 0.594022 0.720484
O O5 0.795084 0.082780 0.170173
O O6 0.234778 0.285419 0.765552
O O7 0.174386 0.099116 0.220349
O O8 0.027023 0.027023 0.375000
O O9 0.248138 0.500000 0.750000
O O10 0.179782 0.629090 0.944057
O O11 0.752240 0.247761 0.625000
#
# Coordination Sequence:
#
# PCOD8304940 Si02
#       6
#     8   4   4   4   8   8
#     4  10  21  34  62  86 120 159 215 264 328 375
#     4  10  22  39  59  92 130 168 207 271 302 394
#     4  10  22  40  62  92 128 162 214 254 322 370
#     4  10  22  41  59  82 126 184 227 261 316 384
#     4  10  21  38  63  89 122 163 211 270 316 371
#     4  11  21  39  59  85 126 166 209 271 322 387
#
# _framework density 20.901997000000001
#
# number of rings (size 3 to 8) (size 9 to 14) (size 15 to 20)
#    0.000    1.778    2.222    1.333    9.333    0.000 
#    2.000    4.444   19.556    0.000    2.889    0.000 
#    0.000    0.000    0.000    0.000    0.000    0.000 
#
# Total GULP energy -445999.568507 kJ/mol
# GULP energy per Si atom -12388.876903 kJ/mol
# Density = 2.085442 g / cm^3
# Si number density = 20.901997 Si / 1000 Ang^3
#
#
#
# Elastic Constant Matrix: (Units=GPa)
#
#
# Indices 1 2 3 4 5 6 
#
# 1 89.4193 24.8261 42.7290 0.0000 0.0000 0.0000
# 2 24.8261 89.4184 42.7289 0.0000 0.0000 0.0000
# 3 42.7290 42.7289 141.5579 0.0000 0.0000 0.0000
# 4 0.0000 0.0000 0.0000 33.0523 0.0000 0.0000
# 5 0.0000 0.0000 0.0000 0.0000 33.0526 0.0000
# 6 0.0000 0.0000 0.0000 0.0000 0.0000 6.1265
#
#
#
# Elastic Compliance Matrix: (Units=1/GPa)
#
#
# Indices 1 2 3 4 5 6 
#
# 1 0.013394 -0.002088 -0.003413 0.000000 0.000000 0.000000
# 2 -0.002088 0.013394 -0.003413 0.000000 0.000000 0.000000
# 3 -0.003413 -0.003413 0.009124 0.000000 0.000000 0.000000
# 4 0.000000 0.000000 0.000000 0.030255 0.000000 0.000000
# 5 0.000000 0.000000 0.000000 0.000000 0.030255 0.000000
# 6 0.000000 0.000000 0.000000 0.000000 0.000000 0.163225
#
#
# Mechanical properties :
#
#
# Convention : Reuss Voigt Hill
#
# Bulk Modulus (GPa) = 55.29269 60.10707 57.69988
# Shear Modulus (GPa) = 17.63657 28.45372 23.04515
#
# Velocity S-wave (km/s) = 2.90793 3.69357 3.32404
# Velocity P-wave (km/s) = 6.14699 6.85631 6.51132
#
# Compressibility (1/GPa) = 0.01808557
#
# Stress axis : x y z
#
# Youngs Moduli (GPa) = 74.66221 74.66128 109.59572
#
# Poissons Ratio (x) = 0.15588 0.37401
# Poissons Ratio (y) = 0.15589 0.37401
# Poissons Ratio (z) = 0.25479 0.25479
#
# Static dielectric constant tensor:
#      x y z
#    x 3.802690 0.000000 0.000000 
#    y 0.000000 3.802690 0.000000 
#    z 0.000000 0.000000 3.990570 
# 
# 
# High freq. dielectric constant tensor:
#      x y z
#    x 1.786700 0.000000 0.000000 
#    y 0.000000 1.786700 0.000000 
#    z 0.000000 0.000000 1.832650 
# 
# From -- ./inp_files/9646.got.cif
#   From: 2010.03.12/outbox.cif.g09.slc.cpg/sg91_5_cif.got.tgz:9646.got - 2010.04.08 20:27:58.
