data_PCOD8304871
_publ_section_title
;
Structure prediction by ZEFSAII (Michael W. Deem and Ramdas Pophale) SiO2 
 PCOD8304871
Probable space group: P 41 2 2
;
_chemical_formula_sum "Si O2"
_cell_formula_units_Z 36
_cell_length_a 11.684203
_cell_length_b 11.684203
_cell_length_c 14.360904
_cell_angle_alpha 90.000000
_cell_angle_beta 90.000000
_cell_angle_gamma 90.000000
_cell_volume 1960.559227
_symmetry_space_group_name_H-M "P 41 2 2"
_symmetry_group_IT_number 91
_symmetry_cell_setting 'tetragonal'
loop_
_space_group_symop_operation_xyz
x,y,z
-y,x,1/4+z
-x,-y,1/2+z
y,-x,3/4+z
x,-y,1/2-z
-x,y,-z
y,x,3/4-z
-y,-x,1/4-z
loop_
_atom_site_type_symbol
_atom_site_label
_atom_site_fract_x
_atom_site_fract_y
_atom_site_fract_z
Si Si1 0.716543 0.553575 0.433873
Si Si2 0.866571 0.299513 0.173556
Si Si3 0.817974 0.100397 0.437574
Si Si4 0.686462 0.289691 0.902515
Si Si5 0.061983 0.938018 0.125000
O O1 0.621122 0.621122 0.375000
O O2 0.841784 0.592829 0.395238
O O3 0.704553 0.589526 0.542636
O O4 0.699458 0.419567 0.418298
O O5 0.811488 0.188513 0.125000
O O6 0.811983 0.329788 0.273377
O O7 0.999318 0.274590 0.185196
O O8 0.740691 0.207980 0.412815
O O9 0.876394 0.118475 0.537379
O O10 0.924792 0.082491 0.367294
#
# Coordination Sequence:
#
# PCOD8304871 Si02
#       5
#     8   8   8   8   4
#     4   9  19  35  62  85 108 143 191 260 293 332
#     4   9  17  30  55  88 114 143 195 246 283 335
#     4  11  19  34  56  85 119 157 195 233 291 356
#     4  10  20  36  61  85 113 147 197 242 293 350
#     4  10  22  32  54  84 130 160 184 230 292 368
#
# _framework density 18.362107999999999
#
# number of rings (size 3 to 8) (size 9 to 14) (size 15 to 20)
#    0.000    2.667    3.333    2.667    0.000    3.556 
#    0.000    4.444    7.333    0.000    0.000    0.000 
#    0.000    0.000    0.000    0.000    0.000    0.000 
#
# Total GULP energy -446147.528294 kJ/mol
# GULP energy per Si atom -12392.986897 kJ/mol
# Density = 1.832031 g / cm^3
# Si number density = 18.362108 Si / 1000 Ang^3
#
#
#
# Elastic Constant Matrix: (Units=GPa)
#
#
# Indices 1 2 3 4 5 6 
#
# 1 111.8999 53.4373 43.6620 0.0000 0.0000 0.0000
# 2 53.4373 111.9016 43.6615 0.0000 0.0000 0.0000
# 3 43.6620 43.6615 79.8974 0.0000 0.0000 0.0000
# 4 0.0000 0.0000 0.0000 23.0578 0.0000 0.0000
# 5 0.0000 0.0000 0.0000 0.0000 23.0576 0.0000
# 6 0.0000 0.0000 0.0000 0.0000 0.0000 10.9920
#
#
#
# Elastic Compliance Matrix: (Units=1/GPa)
#
#
# Indices 1 2 3 4 5 6 
#
# 1 0.012804 -0.004301 -0.004646 0.000000 0.000000 0.000000
# 2 -0.004301 0.012803 -0.004646 0.000000 0.000000 0.000000
# 3 -0.004646 -0.004646 0.017594 0.000000 0.000000 0.000000
# 4 0.000000 0.000000 0.000000 0.043369 0.000000 0.000000
# 5 0.000000 0.000000 0.000000 0.000000 0.043370 0.000000
# 6 0.000000 0.000000 0.000000 0.000000 0.000000 0.090976
#
#
# Mechanical properties :
#
#
# Convention : Reuss Voigt Hill
#
# Bulk Modulus (GPa) = 62.44694 65.02449 63.73572
# Shear Modulus (GPa) = 19.72850 22.28401 21.00626
#
# Velocity S-wave (km/s) = 3.28138 3.48744 3.38598
# Velocity P-wave (km/s) = 6.95982 7.19065 7.07618
#
# Compressibility (1/GPa) = 0.01601359
#
# Stress axis : x y z
#
# Youngs Moduli (GPa) = 78.10331 78.10526 56.83744
#
# Poissons Ratio (x) = 0.33596 0.26408
# Poissons Ratio (y) = 0.33595 0.26407
# Poissons Ratio (z) = 0.36289 0.36288
#
# Static dielectric constant tensor:
#      x y z
#    x 3.231110 0.000000 0.000000 
#    y 0.000000 3.231100 0.000000 
#    z 0.000000 0.000000 3.313420 
# 
# 
# High freq. dielectric constant tensor:
#      x y z
#    x 1.692890 0.000000 0.000000 
#    y 0.000000 1.692890 0.000000 
#    z 0.000000 0.000000 1.703850 
# 
# From -- ./inp_files/11797.got.cif
#   From: 2010.03.12/outbox.cif.g09.slc.cpg/sg91_6_cif.got.tgz:11797.got - 2010.04.08 20:27:58.
