data_PCOD8304056
_publ_section_title
;
Structure prediction by ZEFSAII (Michael W. Deem and Ramdas Pophale) SiO2 
 PCOD8304056
Probable space group: I 4/M
;
_chemical_formula_sum "Si O2"
_cell_formula_units_Z 88
_cell_length_a 14.951467
_cell_length_b 14.951467
_cell_length_c 17.868988
_cell_angle_alpha 90.000000
_cell_angle_beta 90.000000
_cell_angle_gamma 90.000000
_cell_volume 3994.547322
_symmetry_space_group_name_H-M "I 4/M"
_symmetry_group_IT_number 87
_symmetry_cell_setting 'tetragonal'
loop_
_space_group_symop_operation_xyz
x,y,z
-y,x,z
-x,-y,z
y,-x,z
-x,-y,-z
y,-x,-z
x,y,-z
-y,x,-z
1/2+x,1/2+y,1/2+z
1/2-y,1/2+x,1/2+z
1/2-x,1/2-y,1/2+z
1/2+y,1/2-x,1/2+z
1/2-x,1/2-y,1/2-z
1/2+y,1/2-x,1/2-z
1/2+x,1/2+y,1/2-z
1/2-y,1/2+x,1/2-z
loop_
_atom_site_type_symbol
_atom_site_label
_atom_site_fract_x
_atom_site_fract_y
_atom_site_fract_z
Si Si1 0.675074 0.056458 0.840663
Si Si2 0.062086 0.692304 0.587342
Si Si3 0.443426 0.364858 0.000000
Si Si4 0.057189 0.131034 0.796670
Si Si5 0.137849 0.612484 0.177835
Si Si6 0.824124 0.144119 0.646012
O O1 0.631168 0.109107 0.909912
O O2 0.779249 0.084339 0.839895
O O3 0.625482 0.086904 0.764550
O O4 0.662675 0.950103 0.851520
O O5 0.043755 0.717707 0.500000
O O6 0.108332 0.774473 0.632245
O O7 0.974836 0.658141 0.629252
O O8 0.547045 0.384256 0.000000
O O9 0.419005 0.309029 0.073531
O O10 0.074234 0.141005 0.707939
O O11 0.954020 0.115930 0.819437
O O12 0.224339 0.678550 0.168623
#
# Coordination Sequence:
#
# PCOD8304056 Si02
#       6
#    16  16   8  16  16  16
#     4  11  24  42  70  96 133 180 234 285 339 403
#     4  12  26  43  66 103 141 180 230 287 347 420
#     4  11  20  34  58  88 132 176 207 256 336 416
#     4  10  22  40  66  99 129 168 226 283 336 408
#     4  11  24  42  69  97 134 182 228 279 343 408
#     4  11  23  38  63  94 136 174 221 272 342 414
#
# _framework density 22.03003
#
# number of rings (size 3 to 8) (size 9 to 14) (size 15 to 20)
#    0.000    1.000    2.727    4.909    3.818    4.364 
#    0.000    0.000    0.000    0.000    0.000    1.273 
#    0.000    0.000    0.000    0.000    0.000    0.000 
#
# Total GULP energy -545457.720994 kJ/mol
# GULP energy per Si atom -12396.766386 kJ/mol
# Density = 2.197989 g / cm^3
# Si number density = 22.030030 Si / 1000 Ang^3
#
#
#
# Elastic Constant Matrix: (Units=GPa)
#
#
# Indices 1 2 3 4 5 6 
#
# 1 78.3691 15.5986 10.4492 0.0000 0.0000 -0.7076
# 2 15.5986 78.3691 10.4492 0.0000 0.0000 0.7076
# 3 10.4492 10.4492 53.2048 0.0000 0.0000 0.0000
# 4 0.0000 0.0000 0.0000 30.0327 0.0000 0.0000
# 5 0.0000 0.0000 0.0000 0.0000 30.0327 0.0000
# 6 -0.7076 0.7076 0.0000 0.0000 0.0000 28.1535
#
#
#
# Elastic Compliance Matrix: (Units=1/GPa)
#
#
# Indices 1 2 3 4 5 6 
#
# 1 0.013534 -0.002406 -0.002185 0.000000 0.000000 0.000401
# 2 -0.002406 0.013534 -0.002185 0.000000 0.000000 -0.000401
# 3 -0.002185 -0.002185 0.019654 0.000000 0.000000 0.000000
# 4 0.000000 0.000000 0.000000 0.033297 0.000000 0.000000
# 5 0.000000 0.000000 0.000000 0.000000 0.033297 0.000000
# 6 0.000401 -0.000401 0.000000 0.000000 0.000000 0.035540
#
#
# Mechanical properties :
#
#
# Convention : Reuss Voigt Hill
#
# Bulk Modulus (GPa) = 30.14976 31.43746 30.79361
# Shear Modulus (GPa) = 28.82417 29.20685 29.01551
#
# Velocity S-wave (km/s) = 3.62111 3.64507 3.63311
# Velocity P-wave (km/s) = 5.58558 5.65832 5.62207
#
# Compressibility (1/GPa) = 0.03316776
#
# Stress axis : x y z
#
# Youngs Moduli (GPa) = 73.88776 73.88777 50.88092
#
# Poissons Ratio (x) = 0.17778 0.11120
# Poissons Ratio (y) = 0.17778 0.11120
# Poissons Ratio (z) = 0.16148 0.16148
#
# Static dielectric constant tensor:
#      x y z
#    x 4.175390 0.000000 0.000000 
#    y 0.000000 4.175390 0.000000 
#    z 0.000000 0.000000 3.870520 
# 
# 
# High freq. dielectric constant tensor:
#      x y z
#    x 1.880720 0.000000 0.000000 
#    y 0.000000 1.880720 0.000000 
#    z 0.000000 0.000000 1.830340 
# 
# From -- ./inp_files/5206.got.cif
#   From: 2010.03.12/outbox.cif.g09.slc.cpg/sg87_3_cif.got.tgz:5206.got - 2010.04.08 20:16:13.
