data_PCOD8304250
_publ_section_title
;
Structure prediction by ZEFSAII (Michael W. Deem and Ramdas Pophale) SiO2 
 PCOD8304250
Probable space group: I 41/A
;
_chemical_formula_sum "Si O2"
_cell_formula_units_Z 104
_cell_length_a 18.429660
_cell_length_b 18.429660
_cell_length_c 15.962740
_cell_angle_alpha 90.000000
_cell_angle_beta 90.000000
_cell_angle_gamma 90.000000
_cell_volume 5421.782436
_symmetry_space_group_name_H-M "I 41/A"
_symmetry_group_IT_number 88
_space_group.IT_coordinate_system_code '2'
_symmetry_cell_setting 'tetragonal'
loop_
_space_group_symop_operation_xyz
x,y,z
3/4-y,1/4+x,1/4+z
-x,1/2-y,z
1/4+y,1/4-x,1/4+z
-x,-y,-z
1/4+y,3/4-x,3/4-z
x,1/2+y,-z
3/4-y,3/4+x,3/4-z
1/2+x,1/2+y,1/2+z
1/4-y,3/4+x,3/4+z
1/2-x,-y,1/2+z
3/4+y,3/4-x,3/4+z
1/2-x,1/2-y,1/2-z
3/4+y,1/4-x,1/4-z
1/2+x,y,1/2-z
1/4-y,1/4+x,1/4-z
loop_
_atom_site_type_symbol
_atom_site_label
_atom_site_fract_x
_atom_site_fract_y
_atom_site_fract_z
Si Si1 0.000000 0.750000 0.375000
Si Si2 0.532439 0.528240 0.875741
Si Si3 0.000000 0.750000 0.875000
Si Si4 0.618136 0.431110 0.377407
Si Si5 0.024900 0.602302 0.802411
Si Si6 0.716011 0.461567 0.226072
Si Si7 0.043829 0.102850 0.546411
Si Si8 0.823021 0.548037 0.339541
O O1 0.006833 0.679550 0.433535
O O2 0.514468 0.569641 0.789819
O O3 0.481478 0.457881 0.886788
O O4 0.615512 0.502753 0.879069
O O5 0.518460 0.582882 0.952699
O O6 0.997226 0.684742 0.808461
O O7 0.530841 0.437637 0.366964
O O8 0.650325 0.358392 0.420112
O O9 0.653821 0.433124 0.286095
O O10 0.641230 0.500937 0.430396
O O11 0.782527 0.502595 0.269038
O O12 0.678629 0.515996 0.160616
O O13 0.130736 0.109693 0.550222
#
# Coordination Sequence:
#
# PCOD8304250 Si02
#       8
#     4  16   4  16  16  16  16  16
#     4  12  24  42  60  88 120 150 204 244 288 342
#     4  11  22  38  60  84 117 158 195 237 297 347
#     4   8  20  38  64  84 124 158 188 240 300 346
#     4  10  21  37  59  86 117 153 194 245 292 347
#     4  10  20  39  60  86 118 156 194 239 295 352
#     4  10  21  35  60  88 114 149 196 244 292 343
#     4  11  24  39  59  86 119 156 197 244 291 349
#     4  11  19  37  59  84 115 151 193 242 289 348
#
# _framework density 19.181884
#
# number of rings (size 3 to 8) (size 9 to 14) (size 15 to 20)
#    0.000    1.538    4.615    0.923    0.000    1.231 
#    0.000    0.000    0.000    0.000    0.000    0.000 
#    0.000    0.000    0.000    0.000    0.000    0.000 
#
# Total GULP energy -644692.080993 kJ/mol
# GULP energy per Si atom -12397.924634 kJ/mol
# Density = 1.913823 g / cm^3
# Si number density = 19.181884 Si / 1000 Ang^3
#
#
#
# Elastic Constant Matrix: (Units=GPa)
#
#
# Indices 1 2 3 4 5 6 
#
# 1 59.4370 21.5747 23.1177 0.0000 0.0000 -0.2525
# 2 21.5747 59.4370 23.1177 0.0000 0.0000 0.2525
# 3 23.1177 23.1177 88.8382 0.0000 0.0000 0.0000
# 4 0.0000 0.0000 0.0000 22.1870 0.0000 0.0000
# 5 0.0000 0.0000 0.0000 0.0000 22.1870 0.0000
# 6 -0.2525 0.2525 0.0000 0.0000 0.0000 24.0300
#
#
#
# Elastic Compliance Matrix: (Units=1/GPa)
#
#
# Indices 1 2 3 4 5 6 
#
# 1 0.020456 -0.005959 -0.003772 0.000000 0.000000 0.000278
# 2 -0.005959 0.020456 -0.003772 0.000000 0.000000 -0.000278
# 3 -0.003772 -0.003772 0.013220 0.000000 0.000000 0.000000
# 4 0.000000 0.000000 0.000000 0.045071 0.000000 0.000000
# 5 0.000000 0.000000 0.000000 0.000000 0.045071 0.000000
# 6 0.000278 -0.000278 0.000000 0.000000 0.000000 0.041620
#
#
# Mechanical properties :
#
#
# Convention : Reuss Voigt Hill
#
# Bulk Modulus (GPa) = 36.86787 38.14806 37.50797
# Shear Modulus (GPa) = 22.52815 23.00760 22.76787
#
# Velocity S-wave (km/s) = 3.43074 3.46706 3.44895
# Velocity P-wave (km/s) = 5.91229 5.99650 5.95455
#
# Compressibility (1/GPa) = 0.02712389
#
# Stress axis : x y z
#
# Youngs Moduli (GPa) = 48.88530 48.88530 75.64433
#
# Poissons Ratio (x) = 0.29131 0.28536
# Poissons Ratio (y) = 0.29131 0.28536
# Poissons Ratio (z) = 0.18442 0.18442
#
# Static dielectric constant tensor:
#      x y z
#    x 3.522090 0.000000 0.000000 
#    y 0.000000 3.522090 0.000000 
#    z 0.000000 0.000000 3.438980 
# 
# 
# High freq. dielectric constant tensor:
#      x y z
#    x 1.748930 0.000000 0.000000 
#    y 0.000000 1.748930 0.000000 
#    z 0.000000 0.000000 1.741830 
# 
# From -- ./inp_files/3991.got.cif
#   From: 2010.03.12/outbox.cif.g09.slc.cpg/sg88_2_cif.got.tgz:3991.got - 2010.04.08 20:20:55.
