data_PCOD8304646
_publ_section_title
;
Structure prediction by ZEFSAII (Michael W. Deem and Ramdas Pophale) SiO2 
 PCOD8304646
Probable space group: P 4 21 2
;
_chemical_formula_sum "Si O2"
_cell_formula_units_Z 40
_cell_length_a 8.793845
_cell_length_b 8.793845
_cell_length_c 25.251434
_cell_angle_alpha 90.000000
_cell_angle_beta 90.000000
_cell_angle_gamma 90.000000
_cell_volume 1952.736568
_symmetry_space_group_name_H-M "P 4 21 2"
_symmetry_group_IT_number 90
_symmetry_cell_setting 'tetragonal'
loop_
_space_group_symop_operation_xyz
x,y,z
1/2-y,1/2+x,z
-x,-y,z
1/2+y,1/2-x,z
1/2+x,1/2-y,-z
1/2-x,1/2+y,-z
y,x,-z
-y,-x,-z
loop_
_atom_site_type_symbol
_atom_site_label
_atom_site_fract_x
_atom_site_fract_y
_atom_site_fract_z
Si Si1 0.911481 0.267808 0.840047
Si Si2 0.387681 0.222466 0.637987
Si Si3 0.728168 0.096385 0.758723
Si Si4 0.912477 0.266646 0.959647
Si Si5 0.114186 0.725223 0.547496
O O1 0.807325 0.414263 0.830238
O O2 0.863476 0.140175 0.798232
O O3 0.888349 0.207077 0.899793
O O4 0.565493 0.199829 0.625744
O O5 0.371724 0.277804 0.698430
O O6 0.313146 0.352166 0.602088
O O7 0.578983 0.195343 0.769940
O O8 0.807928 0.413222 0.969821
O O9 0.866025 0.133975 0.000000
O O10 0.201817 0.565700 0.544177
O O11 0.167473 0.832528 0.500000
#
# Coordination Sequence:
#
# PCOD8304646 Si02
#       5
#     8   8   8   8   8
#     4   9  19  35  52  72 102 137 171 210 256 306
#     4   9  19  37  58  79 106 139 174 213 256 303
#     4   9  19  35  54  78 107 137 171 212 256 302
#     4   9  19  35  52  72 100 133 169 211 259 308
#     4  11  24  39  56  81 110 139 174 215 258 305
#
# _framework density 20.484072000000001
#
# number of rings (size 3 to 8) (size 9 to 14) (size 15 to 20)
#    0.000    2.600    0.000    3.600    0.000    8.800 
#    0.000   12.000    0.000    0.000    0.000    0.000 
#    0.000    0.000    0.000    0.000    0.000    0.000 
#
# Total GULP energy -496043.345803 kJ/mol
# GULP energy per Si atom -12401.083645 kJ/mol
# Density = 2.043745 g / cm^3
# Si number density = 20.484072 Si / 1000 Ang^3
#
#
#
# Elastic Constant Matrix: (Units=GPa)
#
#
# Indices 1 2 3 4 5 6 
#
# 1 17.4502 -6.2582 12.3429 0.0000 0.0000 0.0000
# 2 -6.2582 17.4491 12.3425 0.0000 0.0000 0.0000
# 3 12.3429 12.3425 88.1942 0.0000 0.0000 0.0000
# 4 0.0000 0.0000 0.0000 6.7697 0.0000 0.0000
# 5 0.0000 0.0000 0.0000 0.0000 6.7701 0.0000
# 6 0.0000 0.0000 0.0000 0.0000 0.0000 90.0281
#
#
#
# Elastic Compliance Matrix: (Units=1/GPa)
#
#
# Indices 1 2 3 4 5 6 
#
# 1 0.085715 0.043537 -0.018089 0.000000 0.000000 0.000000
# 2 0.043537 0.085720 -0.018089 0.000000 0.000000 0.000000
# 3 -0.018089 -0.018089 0.016402 0.000000 0.000000 0.000000
# 4 0.000000 0.000000 0.000000 0.147716 0.000000 0.000000
# 5 0.000000 0.000000 0.000000 0.000000 0.147708 0.000000
# 6 0.000000 0.000000 0.000000 0.000000 0.000000 0.011108
#
#
# Mechanical properties :
#
#
# Convention : Reuss Voigt Hill
#
# Bulk Modulus (GPa) = 4.93696 17.77196 11.35446
# Shear Modulus (GPa) = 9.13798 27.69135 18.41466
#
# Velocity S-wave (km/s) = 2.11440 3.68074 3.00154
# Velocity P-wave (km/s) = 2.89419 5.17287 4.19135
#
# Compressibility (1/GPa) = 0.20255388
#
# Stress axis : x y z
#
# Youngs Moduli (GPa) = 11.66663 11.66595 60.96936
#
# Poissons Ratio (x) = -0.50790 1.10286
# Poissons Ratio (y) = -0.50793 1.10289
# Poissons Ratio (z) = 0.21103 0.21103
#
# Static dielectric constant tensor:
#      x y z
#    x 3.527990 0.000000 0.000000 
#    y 0.000000 3.527990 0.000000 
#    z 0.000000 0.000000 3.688740 
# 
# 
# High freq. dielectric constant tensor:
#      x y z
#    x 1.794070 0.000000 0.000000 
#    y 0.000000 1.794070 0.000000 
#    z 0.000000 0.000000 1.806150 
# 
# From -- ./inp_files/2878.got.cif
#   From: 2010.03.12/outbox.cif.g09.slc.cpg/sg90_2_cif.got.tgz:2878.got - 2010.04.08 20:26:03.
