data_PCOD8304573
_publ_section_title
;
Structure prediction by ZEFSAII (Michael W. Deem and Ramdas Pophale) SiO2 
 PCOD8304573
Probable space group: P 4 21 2
;
_chemical_formula_sum "Si O2"
_cell_formula_units_Z 48
_cell_length_a 13.813892
_cell_length_b 13.813892
_cell_length_c 12.303687
_cell_angle_alpha 90.000000
_cell_angle_beta 90.000000
_cell_angle_gamma 90.000000
_cell_volume 2347.833997
_symmetry_space_group_name_H-M "P 4 21 2"
_symmetry_group_IT_number 90
_symmetry_cell_setting 'tetragonal'
loop_
_space_group_symop_operation_xyz
x,y,z
1/2-y,1/2+x,z
-x,-y,z
1/2+y,1/2-x,z
1/2+x,1/2-y,-z
1/2-x,1/2+y,-z
y,x,-z
-y,-x,-z
loop_
_atom_site_type_symbol
_atom_site_label
_atom_site_fract_x
_atom_site_fract_y
_atom_site_fract_z
Si Si1 0.766122 0.085930 0.113526
Si Si2 0.720563 0.300062 0.626942
Si Si3 0.030507 0.236176 0.110126
Si Si4 0.094761 0.622094 0.715022
Si Si5 0.055054 0.095676 0.759837
Si Si6 0.288552 0.839251 0.819074
O O1 0.656029 0.100672 0.158518
O O2 0.810994 0.192997 0.111812
O O3 0.828364 0.023044 0.197960
O O4 0.766966 0.028713 0.001614
O O5 0.710617 0.289384 0.500000
O O6 0.835480 0.311221 0.644317
O O7 0.650581 0.387155 0.664391
O O8 0.694686 0.206247 0.699705
O O9 0.063755 0.128273 0.143741
O O10 0.123205 0.306210 0.102668
O O11 0.955309 0.283233 0.197167
O O12 0.133321 0.516517 0.685939
O O13 0.000000 0.000000 0.714831
#
# Coordination Sequence:
#
# PCOD8304573 Si02
#       6
#     8   8   8   8   8   8
#     4  11  22  39  67  95 135 176 212 268 333 397
#     4  10  23  46  67  93 131 172 220 284 338 382
#     4  11  24  39  66  94 138 176 216 266 342 398
#     4  10  21  40  65  98 132 164 219 274 325 404
#     4  11  22  40  64  99 130 166 223 276 321 403
#     4  10  24  42  60  95 132 169 226 275 318 412
#
# _framework density 20.444375000000001
#
# number of rings (size 3 to 8) (size 9 to 14) (size 15 to 20)
#    0.000    1.500    3.333    1.000    2.333    4.000 
#    6.000    0.000    0.000    0.000    0.000    0.000 
#    0.000    0.000    0.000    0.000    0.000    0.000 
#
# Total GULP energy -594672.414648 kJ/mol
# GULP energy per Si atom -12389.008639 kJ/mol
# Density = 2.039784 g / cm^3
# Si number density = 20.444375 Si / 1000 Ang^3
#
#
#
# Elastic Constant Matrix: (Units=GPa)
#
#
# Indices 1 2 3 4 5 6 
#
# 1 121.2828 50.0293 43.7271 0.0000 0.0000 0.0000
# 2 50.0293 121.2832 43.7273 0.0000 0.0000 0.0000
# 3 43.7271 43.7273 131.7632 0.0000 0.0000 0.0000
# 4 0.0000 0.0000 0.0000 19.3278 0.0000 0.0000
# 5 0.0000 0.0000 0.0000 0.0000 19.3280 0.0000
# 6 0.0000 0.0000 0.0000 0.0000 0.0000 23.2454
#
#
#
# Elastic Compliance Matrix: (Units=1/GPa)
#
#
# Indices 1 2 3 4 5 6 
#
# 1 0.010531 -0.003503 -0.002332 0.000000 0.000000 0.000000
# 2 -0.003503 0.010531 -0.002332 0.000000 0.000000 0.000000
# 3 -0.002332 -0.002332 0.009137 0.000000 0.000000 0.000000
# 4 0.000000 0.000000 0.000000 0.051739 0.000000 0.000000
# 5 0.000000 0.000000 0.000000 0.000000 0.051738 0.000000
# 6 0.000000 0.000000 0.000000 0.000000 0.000000 0.043019
#
#
# Mechanical properties :
#
#
# Convention : Reuss Voigt Hill
#
# Bulk Modulus (GPa) = 72.12916 72.14408 72.13662
# Shear Modulus (GPa) = 25.29682 28.16993 26.73337
#
# Velocity S-wave (km/s) = 3.52141 3.71601 3.62002
# Velocity P-wave (km/s) = 7.20355 7.33323 7.26868
#
# Compressibility (1/GPa) = 0.01386402
#
# Stress axis : x y z
#
# Youngs Moduli (GPa) = 94.95628 94.95652 109.44058
#
# Poissons Ratio (x) = 0.33265 0.25525
# Poissons Ratio (y) = 0.33265 0.25525
# Poissons Ratio (z) = 0.22147 0.22147
#
# Static dielectric constant tensor:
#      x y z
#    x 4.132230 0.000000 0.000000 
#    y 0.000000 4.132230 0.000000 
#    z 0.000000 0.000000 3.287730 
# 
# 
# High freq. dielectric constant tensor:
#      x y z
#    x 1.816020 0.000000 0.000000 
#    y 0.000000 1.816020 0.000000 
#    z 0.000000 0.000000 1.757220 
# 
# From -- ./inp_files/2119.got.cif
#   From: 2010.03.12/outbox.cif.g09.slc.cpg/sg90_2_cif.got.tgz:2119.got - 2010.04.08 20:26:03.
