data_PCOD8304444
_publ_section_title
;
Structure prediction by ZEFSAII (Michael W. Deem and Ramdas Pophale) SiO2 
 PCOD8304444
Probable space group: I 41/A
;
_chemical_formula_sum "Si O2"
_cell_formula_units_Z 56
_cell_length_a 14.890209
_cell_length_b 14.890209
_cell_length_c 10.153795
_cell_angle_alpha 90.000000
_cell_angle_beta 90.000000
_cell_angle_gamma 90.000000
_cell_volume 2251.282410
_symmetry_space_group_name_H-M "I 41/A"
_symmetry_group_IT_number 88
_space_group.IT_coordinate_system_code '2'
_symmetry_cell_setting 'tetragonal'
loop_
_space_group_symop_operation_xyz
x,y,z
3/4-y,1/4+x,1/4+z
-x,1/2-y,z
1/4+y,1/4-x,1/4+z
-x,-y,-z
1/4+y,3/4-x,3/4-z
x,1/2+y,-z
3/4-y,3/4+x,3/4-z
1/2+x,1/2+y,1/2+z
1/4-y,3/4+x,3/4+z
1/2-x,-y,1/2+z
3/4+y,3/4-x,3/4+z
1/2-x,1/2-y,1/2-z
3/4+y,1/4-x,1/4-z
1/2+x,y,1/2-z
1/4-y,1/4+x,1/4-z
loop_
_atom_site_type_symbol
_atom_site_label
_atom_site_fract_x
_atom_site_fract_y
_atom_site_fract_z
Si Si1 0.500000 0.250000 0.375000
Si Si2 0.000000 0.750000 0.375000
Si Si3 0.511903 0.922352 0.281436
Si Si4 0.914370 0.398196 0.273222
Si Si5 0.251228 0.579521 0.895154
O O1 0.414477 0.244709 0.471215
O O2 0.088029 0.777426 0.454283
O O3 0.600189 0.890777 0.361163
O O4 0.427595 0.952881 0.370992
O O5 0.542063 0.005445 0.186454
O O6 0.851094 0.415384 0.149465
O O7 0.299337 0.504783 0.799775
#
# Coordination Sequence:
#
# PCOD8304444 Si02
#       5
#     4   4  16  16  16
#     4  12  22  40  76 118 152 196 266 344 388 486
#     4  12  34  52  76 114 172 224 262 350 420 480
#     4  12  29  50  77 116 161 215 275 338 415 488
#     4  12  24  46  77 114 159 206 275 335 405 485
#     4  12  27  48  80 122 161 212 272 334 412 489
#
# _framework density 24.874713
#
# number of rings (size 3 to 8) (size 9 to 14) (size 15 to 20)
#    0.000    0.000    5.714    3.429    8.000    1.143 
#    0.000    0.000    0.000    0.000    0.000    0.000 
#    0.000    0.000    0.000    0.000    0.000    0.000 
#
# Total GULP energy -347052.961092 kJ/mol
# GULP energy per Si atom -12394.748610 kJ/mol
# Density = 2.481810 g / cm^3
# Si number density = 24.874713 Si / 1000 Ang^3
#
#
#
# Elastic Constant Matrix: (Units=GPa)
#
#
# Indices 1 2 3 4 5 6 
#
# 1 129.7829 18.7736 30.6583 0.0000 0.0000 -17.0524
# 2 18.7736 129.7829 30.6583 0.0000 0.0000 17.0524
# 3 30.6583 30.6583 76.8451 0.0000 0.0000 0.0000
# 4 0.0000 0.0000 0.0000 23.4542 0.0000 0.0000
# 5 0.0000 0.0000 0.0000 0.0000 23.4542 0.0000
# 6 -17.0524 17.0524 0.0000 0.0000 0.0000 51.1548
#
#
#
# Elastic Compliance Matrix: (Units=1/GPa)
#
#
# Indices 1 2 3 4 5 6 
#
# 1 0.009047 -0.000989 -0.003215 0.000000 0.000000 0.003346
# 2 -0.000989 0.009047 -0.003215 0.000000 0.000000 -0.003346
# 3 -0.003215 -0.003215 0.015579 0.000000 0.000000 0.000000
# 4 0.000000 0.000000 0.000000 0.042636 0.000000 0.000000
# 5 0.000000 0.000000 0.000000 0.000000 0.042636 0.000000
# 6 0.003346 -0.003346 0.000000 0.000000 0.000000 0.021779
#
#
# Mechanical properties :
#
#
# Convention : Reuss Voigt Hill
#
# Bulk Modulus (GPa) = 53.09163 55.17680 54.13422
# Shear Modulus (GPa) = 30.89459 36.70069 33.79764
#
# Velocity S-wave (km/s) = 3.52804 3.84529 3.69007
# Velocity P-wave (km/s) = 6.16328 6.47650 6.32183
#
# Compressibility (1/GPa) = 0.01883536
#
# Stress axis : x y z
#
# Youngs Moduli (GPa) = 110.53065 110.53065 64.19089
#
# Poissons Ratio (x) = 0.10930 0.20637
# Poissons Ratio (y) = 0.10930 0.20637
# Poissons Ratio (z) = 0.35536 0.35536
#
# Static dielectric constant tensor:
#      x y z
#    x 4.648530 0.000000 0.000000 
#    y 0.000000 4.648530 0.000000 
#    z 0.000000 0.000000 4.099210 
# 
# 
# High freq. dielectric constant tensor:
#      x y z
#    x 2.005800 0.000000 0.000000 
#    y 0.000000 2.005800 0.000000 
#    z 0.000000 0.000000 1.953810 
# 
# From -- ./inp_files/1319.got.cif
#   From: 2010.03.12/outbox.cif.g09.slc.cpg/sg88_1_cif.got.tgz:1319.got - 2010.04.08 20:20:55.
