data_PCOD8304843
_publ_section_title
;
Structure prediction by ZEFSAII (Michael W. Deem and Ramdas Pophale) SiO2 
 PCOD8304843
Probable space group: P 41 2 2
;
_chemical_formula_sum "Si O2"
_cell_formula_units_Z 48
_cell_length_a 9.169448
_cell_length_b 9.169448
_cell_length_c 30.627938
_cell_angle_alpha 90.000000
_cell_angle_beta 90.000000
_cell_angle_gamma 90.000000
_cell_volume 2575.159558
_symmetry_space_group_name_H-M "P 41 2 2"
_symmetry_group_IT_number 91
_symmetry_cell_setting 'tetragonal'
loop_
_space_group_symop_operation_xyz
x,y,z
-y,x,1/4+z
-x,-y,1/2+z
y,-x,3/4+z
x,-y,1/2-z
-x,y,-z
y,x,3/4-z
-y,-x,1/4-z
loop_
_atom_site_type_symbol
_atom_site_label
_atom_site_fract_x
_atom_site_fract_y
_atom_site_fract_z
Si Si1 0.207063 0.152024 0.165913
Si Si2 0.718470 0.159034 0.322585
Si Si3 0.881078 0.665826 0.247962
Si Si4 0.401966 0.088451 0.294483
Si Si5 0.783026 0.330950 0.749477
Si Si6 0.875568 0.866873 0.326854
O O1 0.220688 0.230951 0.119338
O O2 0.241461 0.274786 0.201572
O O3 0.045143 0.088568 0.172035
O O4 0.315097 0.015112 0.171666
O O5 0.771098 0.271656 0.287005
O O6 0.545006 0.140500 0.320061
O O7 0.788386 0.005140 0.309729
O O8 0.838255 0.500000 0.250000
O O9 0.846634 0.732268 0.295265
O O10 0.049305 0.688467 0.234508
O O11 0.310805 0.234648 0.284082
O O12 0.436991 0.000000 0.250000
O O13 0.734752 0.500000 0.750000
O O14 0.820573 0.820573 0.375000
#
# Coordination Sequence:
#
# PCOD8304843 Si02
#       6
#     8   8   8   8   8   8
#     4   9  20  36  54  79 107 138 181 226 268 321
#     4  11  21  34  55  82 109 140 181 226 270 324
#     4  10  20  34  54  81 111 141 176 222 274 324
#     4  10  20  35  56  79 110 148 179 218 274 330
#     4   9  19  37  58  79 107 144 182 222 269 326
#     4   9  18  34  55  78 103 137 181 226 266 315
#
# _framework density 18.639621000000002
#
# number of rings (size 3 to 8) (size 9 to 14) (size 15 to 20)
#    0.000    2.333    0.000    2.500    0.000    8.667 
#    0.000    2.500    0.000    0.000    0.000    0.000 
#    0.000    0.000    0.000    0.000    0.000    0.000 
#
# Total GULP energy -595216.780628 kJ/mol
# GULP energy per Si atom -12400.349596 kJ/mol
# Density = 1.859720 g / cm^3
# Si number density = 18.639621 Si / 1000 Ang^3
#
#
#
# Elastic Constant Matrix: (Units=GPa)
#
#
# Indices 1 2 3 4 5 6 
#
# 1 125.3164 75.9205 69.4391 0.0000 0.0000 0.0000
# 2 75.9205 125.3164 69.4391 0.0000 0.0000 0.0000
# 3 69.4391 69.4391 115.4645 0.0000 0.0000 0.0000
# 4 0.0000 0.0000 0.0000 22.6615 0.0000 0.0000
# 5 0.0000 0.0000 0.0000 0.0000 22.6615 0.0000
# 6 0.0000 0.0000 0.0000 0.0000 0.0000 10.1692
#
#
#
# Elastic Compliance Matrix: (Units=1/GPa)
#
#
# Indices 1 2 3 4 5 6 
#
# 1 0.014370 -0.005875 -0.005109 0.000000 0.000000 0.000000
# 2 -0.005875 0.014370 -0.005109 0.000000 0.000000 0.000000
# 3 -0.005109 -0.005109 0.014805 0.000000 0.000000 0.000000
# 4 0.000000 0.000000 0.000000 0.044128 0.000000 0.000000
# 5 0.000000 0.000000 0.000000 0.000000 0.044128 0.000000
# 6 0.000000 0.000000 0.000000 0.000000 0.000000 0.098336
#
#
# Mechanical properties :
#
#
# Convention : Reuss Voigt Hill
#
# Bulk Modulus (GPa) = 88.02659 88.41053 88.21856
# Shear Modulus (GPa) = 18.78939 21.18502 19.98720
#
# Velocity S-wave (km/s) = 3.17840 3.37495 3.27815
# Velocity P-wave (km/s) = 7.79729 7.91969 7.85873
#
# Compressibility (1/GPa) = 0.01136020
#
# Stress axis : x y z
#
# Youngs Moduli (GPa) = 69.59058 69.59058 67.54292
#
# Poissons Ratio (x) = 0.40883 0.34506
# Poissons Ratio (y) = 0.40883 0.34506
# Poissons Ratio (z) = 0.35552 0.35552
#
# Static dielectric constant tensor:
#      x y z
#    x 3.402700 0.000000 0.000000 
#    y 0.000000 3.402700 0.000000 
#    z 0.000000 0.000000 3.668860 
# 
# 
# High freq. dielectric constant tensor:
#      x y z
#    x 1.720000 0.000000 0.000000 
#    y 0.000000 1.720000 0.000000 
#    z 0.000000 0.000000 1.724980 
# 
# From -- ./inp_files/7928.got.cif
#   From: 2010.03.12/outbox.cif.g09.slc.cpg/sg91_4_cif.got.tgz:7928.got - 2010.04.08 20:27:58.
