data_PCOD8304752
_publ_section_title
;
Structure prediction by ZEFSAII (Michael W. Deem and Ramdas Pophale) SiO2 
 PCOD8304752
Probable space group: P 41 2 2
;
_chemical_formula_sum "Si O2"
_cell_formula_units_Z 40
_cell_length_a 8.325601
_cell_length_b 8.325601
_cell_length_c 26.545199
_cell_angle_alpha 90.000000
_cell_angle_beta 90.000000
_cell_angle_gamma 90.000000
_cell_volume 1839.997246
_symmetry_space_group_name_H-M "P 41 2 2"
_symmetry_group_IT_number 91
_symmetry_cell_setting 'tetragonal'
loop_
_space_group_symop_operation_xyz
x,y,z
-y,x,1/4+z
-x,-y,1/2+z
y,-x,3/4+z
x,-y,1/2-z
-x,y,-z
y,x,3/4-z
-y,-x,1/4-z
loop_
_atom_site_type_symbol
_atom_site_label
_atom_site_fract_x
_atom_site_fract_y
_atom_site_fract_z
Si Si1 0.000000 0.386007 0.000000
Si Si2 0.172492 0.946387 0.974344
Si Si3 0.406294 0.269967 0.228481
Si Si4 0.579571 0.523448 0.572786
Si Si5 0.019387 0.980614 0.625000
Si Si6 0.834172 0.767736 0.190555
O O1 0.892495 0.501742 0.035028
O O2 0.087122 0.275605 0.040424
O O3 0.266075 0.780300 0.963286
O O4 0.145273 0.040564 0.921373
O O5 0.000000 0.908550 0.000000
O O6 0.283277 0.054187 0.011656
O O7 0.425064 0.293705 0.288944
O O8 0.511011 0.405164 0.201623
O O9 0.570982 0.429019 0.625000
O O10 0.625835 0.714320 0.578053
O O11 0.050664 0.162870 0.645912
#
# Coordination Sequence:
#
# PCOD8304752 Si02
#       6
#     4   8   8   8   4   8
#     4  10  18  38  60  86 124 170 204 266 338 378
#     4  10  19  37  62  97 122 166 220 275 323 386
#     4  10  21  39  64  86 131 173 209 275 330 392
#     4  10  22  42  60  91 132 174 217 265 339 408
#     4  10  18  34  66  94 128 162 218 280 322 392
#     4  10  20  38  62  91 130 165 220 276 324 394
#
# _framework density 21.739165
#
# number of rings (size 3 to 8) (size 9 to 14) (size 15 to 20)
#    0.000    2.000    4.000    1.200    0.000    0.000 
#    9.000   10.000    0.000    0.000    0.000    0.000 
#    0.000    0.000    0.000    0.000    0.000    0.000 
#
# Total GULP energy -495553.829728 kJ/mol
# GULP energy per Si atom -12388.845743 kJ/mol
# Density = 2.168969 g / cm^3
# Si number density = 21.739165 Si / 1000 Ang^3
#
#
#
# Elastic Constant Matrix: (Units=GPa)
#
#
# Indices 1 2 3 4 5 6 
#
# 1 103.5087 52.9964 26.7353 0.0000 0.0000 0.0000
# 2 52.9964 103.5094 26.7356 0.0000 0.0000 0.0000
# 3 26.7353 26.7356 114.1524 0.0000 0.0000 0.0000
# 4 0.0000 0.0000 0.0000 16.8989 0.0000 0.0000
# 5 0.0000 0.0000 0.0000 0.0000 16.8986 0.0000
# 6 0.0000 0.0000 0.0000 0.0000 0.0000 46.9775
#
#
#
# Elastic Compliance Matrix: (Units=1/GPa)
#
#
# Indices 1 2 3 4 5 6 
#
# 1 0.013371 -0.006426 -0.001627 0.000000 0.000000 0.000000
# 2 -0.006426 0.013371 -0.001627 0.000000 0.000000 0.000000
# 3 -0.001627 -0.001627 0.009522 0.000000 0.000000 0.000000
# 4 0.000000 0.000000 0.000000 0.059175 0.000000 0.000000
# 5 0.000000 0.000000 0.000000 0.000000 0.059177 0.000000
# 6 0.000000 0.000000 0.000000 0.000000 0.000000 0.021287
#
#
# Mechanical properties :
#
#
# Convention : Reuss Voigt Hill
#
# Bulk Modulus (GPa) = 59.14996 59.34502 59.24749
# Shear Modulus (GPa) = 24.88839 30.46855 27.67847
#
# Velocity S-wave (km/s) = 3.38725 3.74779 3.57207
# Velocity P-wave (km/s) = 6.52426 6.78866 6.65777
#
# Compressibility (1/GPa) = 0.01690618
#
# Stress axis : x y z
#
# Youngs Moduli (GPa) = 74.78759 74.78801 105.01809
#
# Poissons Ratio (x) = 0.48058 0.17083
# Poissons Ratio (y) = 0.48057 0.17083
# Poissons Ratio (z) = 0.12165 0.12166
#
# Static dielectric constant tensor:
#      x y z
#    x 3.945170 0.000000 0.000000 
#    y 0.000000 3.945160 0.000000 
#    z 0.000000 0.000000 4.265580 
# 
# 
# High freq. dielectric constant tensor:
#      x y z
#    x 1.838610 0.000000 0.000000 
#    y 0.000000 1.838610 0.000000 
#    z 0.000000 0.000000 1.851790 
# 
# From -- ./inp_files/7777.got.cif
#   From: 2010.03.12/outbox.cif.g09.slc.cpg/sg91_4_cif.got.tgz:7777.got - 2010.04.08 20:27:58.
