data_PCOD8304794
_publ_section_title
;
Structure prediction by ZEFSAII (Michael W. Deem and Ramdas Pophale) SiO2 
 PCOD8304794
Probable space group: P 41 2 2
;
_chemical_formula_sum "Si O2"
_cell_formula_units_Z 48
_cell_length_a 9.500970
_cell_length_b 9.500970
_cell_length_c 28.670453
_cell_angle_alpha 90.000000
_cell_angle_beta 90.000000
_cell_angle_gamma 90.000000
_cell_volume 2588.036807
_symmetry_space_group_name_H-M "P 41 2 2"
_symmetry_group_IT_number 91
_symmetry_cell_setting 'tetragonal'
loop_
_space_group_symop_operation_xyz
x,y,z
-y,x,1/4+z
-x,-y,1/2+z
y,-x,3/4+z
x,-y,1/2-z
-x,y,-z
y,x,3/4-z
-y,-x,1/4-z
loop_
_atom_site_type_symbol
_atom_site_label
_atom_site_fract_x
_atom_site_fract_y
_atom_site_fract_z
Si Si1 0.767744 0.316521 0.344819
Si Si2 0.774837 0.143004 0.005743
Si Si3 0.627575 0.000000 0.250000
Si Si4 0.467174 0.099221 0.654767
Si Si5 0.164081 0.372735 0.849915
Si Si6 0.974072 0.226843 0.598624
Si Si7 0.904372 0.000000 0.750000
O O1 0.838823 0.296714 0.294416
O O2 0.612927 0.248136 0.348431
O O3 0.750675 0.481518 0.355472
O O4 0.867181 0.242979 0.382961
O O5 0.656587 0.139469 0.045387
O O6 0.861992 0.998931 0.007043
O O7 0.873371 0.274822 0.017500
O O8 0.528749 0.044919 0.292244
O O9 0.630196 0.113659 0.640101
O O10 0.383921 0.989281 0.622708
O O11 0.248602 0.248602 0.875000
O O12 0.902544 0.097457 0.625000
O O13 0.978878 0.196435 0.543983
#
# Coordination Sequence:
#
# PCOD8304794 Si02
#       7
#     8   8   4   8   8   8   4
#     4  10  22  38  57  83 115 151 185 230 279 336
#     4  10  19  33  57  85 110 141 183 233 281 325
#     4   9  17  32  54  82 106 138 182 228 280 322
#     4  10  21  36  56  81 115 147 187 232 277 338
#     4  11  21  35  58  86 112 145 189 233 279 334
#     4  11  22  38  58  85 113 150 189 227 284 331
#     4  11  21  34  62  88 112 142 188 240 274 334
#
# _framework density 18.546876000000001
#
# number of rings (size 3 to 8) (size 9 to 14) (size 15 to 20)
#    0.000    1.667    3.333    2.000    0.000    2.000 
#    0.000    0.000    0.000    0.000    4.333    0.000 
#    0.000    0.000    0.000    0.000    0.000    0.000 
#
# Total GULP energy -595331.026275 kJ/mol
# GULP energy per Si atom -12402.729714 kJ/mol
# Density = 1.850466 g / cm^3
# Si number density = 18.546876 Si / 1000 Ang^3
#
#
#
# Elastic Constant Matrix: (Units=GPa)
#
#
# Indices 1 2 3 4 5 6 
#
# 1 43.3466 21.1780 14.6560 0.0000 0.0000 0.0000
# 2 21.1780 43.3479 14.6564 0.0000 0.0000 0.0000
# 3 14.6560 14.6564 88.6339 0.0000 0.0000 0.0000
# 4 0.0000 0.0000 0.0000 15.0698 0.0000 0.0000
# 5 0.0000 0.0000 0.0000 0.0000 15.0703 0.0000
# 6 0.0000 0.0000 0.0000 0.0000 0.0000 25.1426
#
#
#
# Elastic Compliance Matrix: (Units=1/GPa)
#
#
# Indices 1 2 3 4 5 6 
#
# 1 0.030932 -0.014175 -0.002771 0.000000 0.000000 0.000000
# 2 -0.014175 0.030932 -0.002771 0.000000 0.000000 0.000000
# 3 -0.002771 -0.002771 0.012199 0.000000 0.000000 0.000000
# 4 0.000000 0.000000 0.000000 0.066358 0.000000 0.000000
# 5 0.000000 0.000000 0.000000 0.000000 0.066356 0.000000
# 6 0.000000 0.000000 0.000000 0.000000 0.000000 0.039773
#
#
# Mechanical properties :
#
#
# Convention : Reuss Voigt Hill
#
# Bulk Modulus (GPa) = 28.87791 30.70102 29.78947
# Shear Modulus (GPa) = 16.80524 19.37909 18.09216
#
# Velocity S-wave (km/s) = 3.01341 3.23595 3.12666
# Velocity P-wave (km/s) = 5.26417 5.52730 5.39734
#
# Compressibility (1/GPa) = 0.03462855
#
# Stress axis : x y z
#
# Youngs Moduli (GPa) = 32.32850 32.32947 81.97592
#
# Poissons Ratio (x) = 0.45829 0.22714
# Poissons Ratio (y) = 0.45827 0.22714
# Poissons Ratio (z) = 0.08957 0.08958
#
# Static dielectric constant tensor:
#      x y z
#    x 3.258410 0.000000 0.000000 
#    y 0.000000 3.258410 0.000000 
#    z 0.000000 0.000000 3.516690 
# 
# 
# High freq. dielectric constant tensor:
#      x y z
#    x 1.711330 0.000000 0.000000 
#    y 0.000000 1.711330 0.000000 
#    z 0.000000 0.000000 1.732440 
# 
# From -- ./inp_files/8023.got.cif
#   From: 2010.03.12/outbox.cif.g09.slc.cpg/sg91_5_cif.got.tgz:8023.got - 2010.04.08 20:27:58.
