data_PCOD8304546
_publ_section_title
;
Structure prediction by ZEFSAII (Michael W. Deem and Ramdas Pophale) SiO2 
 PCOD8304546
Probable space group: P 4 21 2
;
_chemical_formula_sum "Si O2"
_cell_formula_units_Z 60
_cell_length_a 11.969116
_cell_length_b 11.969116
_cell_length_c 22.166126
_cell_angle_alpha 90.000000
_cell_angle_beta 90.000000
_cell_angle_gamma 90.000000
_cell_volume 3175.513399
_symmetry_space_group_name_H-M "P 4 21 2"
_symmetry_group_IT_number 90
_symmetry_cell_setting 'tetragonal'
loop_
_space_group_symop_operation_xyz
x,y,z
1/2-y,1/2+x,z
-x,-y,z
1/2+y,1/2-x,z
1/2+x,1/2-y,-z
1/2-x,1/2+y,-z
y,x,-z
-y,-x,-z
loop_
_atom_site_type_symbol
_atom_site_label
_atom_site_fract_x
_atom_site_fract_y
_atom_site_fract_z
Si Si1 0.611526 0.360199 0.796536
Si Si2 0.750680 0.750680 0.500000
Si Si3 0.901675 0.657690 0.595346
Si Si4 0.270251 0.765215 0.899069
Si Si5 0.251850 0.246184 0.302459
Si Si6 0.631922 0.876971 0.009203
Si Si7 0.390848 0.352663 0.200700
Si Si8 0.342038 0.899535 0.597667
O O1 0.638489 0.290127 0.855911
O O2 0.648438 0.296409 0.736456
O O3 0.481556 0.372786 0.787005
O O4 0.674100 0.478312 0.805375
O O5 0.858978 0.742902 0.543372
O O6 0.641529 0.761324 0.543024
O O7 0.847254 0.534655 0.589152
O O8 0.859480 0.706342 0.658630
O O9 0.213914 0.678554 0.943643
O O10 0.172763 0.823063 0.860726
O O11 0.339852 0.850488 0.939989
O O12 0.350334 0.281627 0.257714
O O13 0.213355 0.354229 0.340900
O O14 0.505586 0.844168 0.021474
O O15 0.466668 0.846918 0.593899
#
# Coordination Sequence:
#
# PCOD8304546 Si02
#       8
#     8   4   8   8   8   8   8   8
#     4  10  20  34  52  75 104 136 168 205 251 302
#     4  10  20  32  52  76 100 128 164 204 244 288
#     4  10  20  35  55  77 102 134 170 207 249 297
#     4  10  20  34  52  74 100 134 172 208 252 308
#     4  10  20  34  54  78 104 132 168 210 250 294
#     4  10  20  34  52  74 100 130 168 216 262 300
#     4  10  20  34  52  75 104 136 168 205 251 302
#     4  10  20  35  55  77 102 134 170 207 249 297
#
# _framework density 18.894582
#
# number of rings (size 3 to 8) (size 9 to 14) (size 15 to 20)
#    0.000    2.000    0.000    4.000    0.000    1.067 
#    0.000    0.000    0.000   49.600    0.000    0.000 
#    0.000    0.000    0.000    0.000    0.000    0.000 
#
# Total GULP energy -743765.213594 kJ/mol
# GULP energy per Si atom -12396.086893 kJ/mol
# Density = 1.885158 g / cm^3
# Si number density = 18.894582 Si / 1000 Ang^3
#
#
#
# Elastic Constant Matrix: (Units=GPa)
#
#
# Indices 1 2 3 4 5 6 
#
# 1 67.0756 -0.0828 16.1915 0.0000 0.0000 0.0000
# 2 -0.0828 67.0756 16.1915 0.0000 0.0000 0.0000
# 3 16.1915 16.1915 97.4378 0.0000 0.0000 0.0000
# 4 0.0000 0.0000 0.0000 16.8038 0.0000 0.0000
# 5 0.0000 0.0000 0.0000 0.0000 16.8038 0.0000
# 6 0.0000 0.0000 0.0000 0.0000 0.0000 31.4406
#
#
#
# Elastic Compliance Matrix: (Units=1/GPa)
#
#
# Indices 1 2 3 4 5 6 
#
# 1 0.015560 0.000670 -0.002697 0.000000 0.000000 0.000000
# 2 0.000670 0.015560 -0.002697 0.000000 0.000000 0.000000
# 3 -0.002697 -0.002697 0.011159 0.000000 0.000000 0.000000
# 4 0.000000 0.000000 0.000000 0.059510 0.000000 0.000000
# 5 0.000000 0.000000 0.000000 0.000000 0.059510 0.000000
# 6 0.000000 0.000000 0.000000 0.000000 0.000000 0.031806
#
#
# Mechanical properties :
#
#
# Convention : Reuss Voigt Hill
#
# Bulk Modulus (GPa) = 30.45777 32.90993 31.68385
# Shear Modulus (GPa) = 23.41932 26.29556 24.85744
#
# Velocity S-wave (km/s) = 3.52443 3.73459 3.63104
# Velocity P-wave (km/s) = 5.71988 6.00431 5.86382
#
# Compressibility (1/GPa) = 0.03283234
#
# Stress axis : x y z
#
# Youngs Moduli (GPa) = 64.26555 64.26555 89.61117
#
# Poissons Ratio (x) = -0.04308 0.24169
# Poissons Ratio (y) = -0.04308 0.24169
# Poissons Ratio (z) = 0.17333 0.17333
#
# Static dielectric constant tensor:
#      x y z
#    x 3.469390 0.000000 0.000000 
#    y 0.000000 3.469390 0.000000 
#    z 0.000000 0.000000 3.643360 
# 
# 
# High freq. dielectric constant tensor:
#      x y z
#    x 1.732580 0.000000 0.000000 
#    y 0.000000 1.732580 0.000000 
#    z 0.000000 0.000000 1.751900 
# 
# From -- ./inp_files/2848.got.cif
#   From: 2010.03.12/outbox.cif.g09.slc.cpg/sg90_2_cif.got.tgz:2848.got - 2010.04.08 20:26:03.
