data_PCOD8304984
_publ_section_title
;
Structure prediction by ZEFSAII (Michael W. Deem and Ramdas Pophale) SiO2 
 PCOD8304984
Probable space group: P 41 2 2
;
_chemical_formula_sum "Si O2"
_cell_formula_units_Z 40
_cell_length_a 8.988299
_cell_length_b 8.988299
_cell_length_c 22.620663
_cell_angle_alpha 90.000000
_cell_angle_beta 90.000000
_cell_angle_gamma 90.000000
_cell_volume 1827.512481
_symmetry_space_group_name_H-M "P 41 2 2"
_symmetry_group_IT_number 91
_symmetry_cell_setting 'tetragonal'
loop_
_space_group_symop_operation_xyz
x,y,z
-y,x,1/4+z
-x,-y,1/2+z
y,-x,3/4+z
x,-y,1/2-z
-x,y,-z
y,x,3/4-z
-y,-x,1/4-z
loop_
_atom_site_type_symbol
_atom_site_label
_atom_site_fract_x
_atom_site_fract_y
_atom_site_fract_z
Si Si1 0.500000 0.383962 0.000000
Si Si2 0.768332 0.191799 0.969962
Si Si3 0.985825 0.253686 0.612035
Si Si4 0.455097 0.455097 0.375000
Si Si5 0.825272 0.000655 0.425054
Si Si6 0.562574 0.123977 0.360904
O O1 0.360432 0.276729 0.996206
O O2 0.508194 0.474310 0.062220
O O3 0.873247 0.316923 0.941349
O O4 0.711014 0.077475 0.921163
O O5 0.855960 0.092016 0.016456
O O6 0.829958 0.170043 0.625000
O O7 0.960347 0.417944 0.585523
O O8 0.088339 0.157950 0.567820
O O9 0.500567 0.283109 0.383115
O O10 0.905924 0.905924 0.375000
O O11 0.649591 0.035266 0.413436
#
# Coordination Sequence:
#
# PCOD8304984 Si02
#       6
#     4   8   8   4   8   8
#     4  10  22  40  68  98 142 172 230 290 356 414
#     4  10  22  41  65  98 133 175 223 288 341 419
#     4  10  21  40  67  91 133 176 220 277 343 414
#     4  10  22  40  68 106 136 176 234 298 344 418
#     4  10  23  41  65  95 137 176 224 274 345 418
#     4  10  21  42  68  95 134 177 231 280 340 412
#
# _framework density 21.887677
#
# number of rings (size 3 to 8) (size 9 to 14) (size 15 to 20)
#    0.000    2.000    1.000    1.200    1.400    8.800 
#    0.000    2.000    4.400    0.000    0.000    0.000 
#    0.000    0.000    0.000    0.000    0.000    0.000 
#
# Total GULP energy -495539.550693 kJ/mol
# GULP energy per Si atom -12388.488767 kJ/mol
# Density = 2.183786 g / cm^3
# Si number density = 21.887677 Si / 1000 Ang^3
#
#
#
# Elastic Constant Matrix: (Units=GPa)
#
#
# Indices 1 2 3 4 5 6 
#
# 1 138.9385 62.6781 50.7320 0.0000 0.0000 0.0000
# 2 62.6781 138.9380 50.7319 0.0000 0.0000 0.0000
# 3 50.7320 50.7319 125.0354 0.0000 0.0000 0.0000
# 4 0.0000 0.0000 0.0000 18.3030 0.0000 0.0000
# 5 0.0000 0.0000 0.0000 0.0000 18.3024 0.0000
# 6 0.0000 0.0000 0.0000 0.0000 0.0000 22.6779
#
#
#
# Elastic Compliance Matrix: (Units=1/GPa)
#
#
# Indices 1 2 3 4 5 6 
#
# 1 0.009673 -0.003440 -0.002529 0.000000 0.000000 0.000000
# 2 -0.003440 0.009673 -0.002529 0.000000 0.000000 0.000000
# 3 -0.002529 -0.002529 0.010050 0.000000 0.000000 0.000000
# 4 0.000000 0.000000 0.000000 0.054636 0.000000 0.000000
# 5 0.000000 0.000000 0.000000 0.000000 0.054638 0.000000
# 6 0.000000 0.000000 0.000000 0.000000 0.000000 0.044096
#
#
# Mechanical properties :
#
#
# Convention : Reuss Voigt Hill
#
# Bulk Modulus (GPa) = 80.64710 81.24399 80.94554
# Shear Modulus (GPa) = 24.52259 27.77464 26.14861
#
# Velocity S-wave (km/s) = 3.35084 3.56611 3.46015
# Velocity P-wave (km/s) = 7.20394 7.35904 7.28190
#
# Compressibility (1/GPa) = 0.01239970
#
# Stress axis : x y z
#
# Youngs Moduli (GPa) = 103.38313 103.38273 99.50444
#
# Poissons Ratio (x) = 0.35566 0.25163
# Poissons Ratio (y) = 0.35566 0.25163
# Poissons Ratio (z) = 0.26143 0.26143
#
# Static dielectric constant tensor:
#      x y z
#    x 4.277730 0.000000 0.000000 
#    y 0.000000 4.277740 0.000000 
#    z 0.000000 0.000000 2.353850 
# 
# 
# High freq. dielectric constant tensor:
#      x y z
#    x 1.872790 0.000000 0.000000 
#    y 0.000000 1.872790 0.000000 
#    z 0.000000 0.000000 1.841110 
# 
# From -- ./inp_files/6814.got.cif
#   From: 2010.03.12/outbox.cif.g09.slc.cpg/sg91_4_cif.got.tgz:6814.got - 2010.04.08 20:27:58.
