data_PCOD8304813
_publ_section_title
;
Structure prediction by ZEFSAII (Michael W. Deem and Ramdas Pophale) SiO2 
 PCOD8304813
Probable space group: P 41 2 2
;
_chemical_formula_sum "Si O2"
_cell_formula_units_Z 56
_cell_length_a 11.977067
_cell_length_b 11.977067
_cell_length_c 20.014159
_cell_angle_alpha 90.000000
_cell_angle_beta 90.000000
_cell_angle_gamma 90.000000
_cell_volume 2871.033789
_symmetry_space_group_name_H-M "P 41 2 2"
_symmetry_group_IT_number 91
_symmetry_cell_setting 'tetragonal'
loop_
_space_group_symop_operation_xyz
x,y,z
-y,x,1/4+z
-x,-y,1/2+z
y,-x,3/4+z
x,-y,1/2-z
-x,y,-z
y,x,3/4-z
-y,-x,1/4-z
loop_
_atom_site_type_symbol
_atom_site_label
_atom_site_fract_x
_atom_site_fract_y
_atom_site_fract_z
Si Si1 0.273772 0.139503 0.928560
Si Si2 0.276896 0.111961 0.571165
Si Si3 0.514385 0.783033 0.770198
Si Si4 0.850766 0.524932 0.131713
Si Si5 0.904659 0.475041 0.652213
Si Si6 0.756908 0.283168 0.696800
Si Si7 0.274838 0.278562 0.691926
O O1 0.206349 0.206349 0.875000
O O2 0.403921 0.156386 0.914268
O O3 0.228694 0.012539 0.923975
O O4 0.245992 0.188669 0.000659
O O5 0.408800 0.097956 0.558420
O O6 0.222764 0.176552 0.507257
O O7 0.255364 0.181783 0.637756
O O8 0.516713 0.838374 0.697758
O O9 0.508975 0.882741 0.823393
O O10 0.625491 0.708474 0.784233
O O11 0.401594 0.710584 0.780525
O O12 0.752171 0.601164 0.160382
O O13 0.970615 0.577881 0.153758
O O14 0.807864 0.405535 0.687778
O O15 0.777775 0.222226 0.625000
#
# Coordination Sequence:
#
# PCOD8304813 Si02
#       7
#     8   8   8   8   8   8   8
#     4  11  23  40  64  89 121 156 207 258 302 363
#     4  10  21  38  62  87 115 163 205 257 299 352
#     4  10  20  36  59  91 126 159 195 251 310 367
#     4  11  20  39  62  89 123 159 202 254 301 362
#     4   9  20  34  62  89 113 158 215 252 291 352
#     4  10  19  36  58  88 122 153 196 248 303 358
#     4  11  22  38  63  93 123 159 204 246 312 373
#
# _framework density 19.50517
#
# number of rings (size 3 to 8) (size 9 to 14) (size 15 to 20)
#    0.000    1.714    2.857    2.143    0.000    2.857 
#    0.000    6.429    0.000   12.000    0.000    0.000 
#    0.000    0.000    0.000    0.000    0.000    0.000 
#
# Total GULP energy -694109.046773 kJ/mol
# GULP energy per Si atom -12394.804407 kJ/mol
# Density = 1.946078 g / cm^3
# Si number density = 19.505170 Si / 1000 Ang^3
#
#
#
# Elastic Constant Matrix: (Units=GPa)
#
#
# Indices 1 2 3 4 5 6 
#
# 1 124.3343 33.2057 35.5048 0.0000 0.0000 0.0000
# 2 33.2057 124.3346 35.5049 0.0000 0.0000 0.0000
# 3 35.5048 35.5049 114.9161 0.0000 0.0000 0.0000
# 4 0.0000 0.0000 0.0000 27.8180 0.0000 0.0000
# 5 0.0000 0.0000 0.0000 0.0000 27.8180 0.0000
# 6 0.0000 0.0000 0.0000 0.0000 0.0000 15.2869
#
#
#
# Elastic Compliance Matrix: (Units=1/GPa)
#
#
# Indices 1 2 3 4 5 6 
#
# 1 0.009174 -0.001799 -0.002278 0.000000 0.000000 0.000000
# 2 -0.001799 0.009174 -0.002278 0.000000 0.000000 0.000000
# 3 -0.002278 -0.002278 0.010110 0.000000 0.000000 0.000000
# 4 0.000000 0.000000 0.000000 0.035948 0.000000 0.000000
# 5 0.000000 0.000000 0.000000 0.000000 0.035948 0.000000
# 6 0.000000 0.000000 0.000000 0.000000 0.000000 0.065415
#
#
# Mechanical properties :
#
#
# Convention : Reuss Voigt Hill
#
# Bulk Modulus (GPa) = 63.51141 63.55732 63.53436
# Shear Modulus (GPa) = 27.21378 31.47589 29.34483
#
# Velocity S-wave (km/s) = 3.73930 4.02147 3.88295
# Velocity P-wave (km/s) = 7.16067 7.36333 7.26270
#
# Compressibility (1/GPa) = 0.01574520
#
# Stress axis : x y z
#
# Youngs Moduli (GPa) = 109.00314 109.00335 98.91261
#
# Poissons Ratio (x) = 0.19615 0.22537
# Poissons Ratio (y) = 0.19615 0.22537
# Poissons Ratio (z) = 0.24836 0.24836
#
# Static dielectric constant tensor:
#      x y z
#    x 3.534360 0.000000 0.000000 
#    y 0.000000 3.534360 0.000000 
#    z 0.000000 0.000000 3.821590 
# 
# 
# High freq. dielectric constant tensor:
#      x y z
#    x 1.742700 0.000000 0.000000 
#    y 0.000000 1.742700 0.000000 
#    z 0.000000 0.000000 1.791250 
# 
# From -- ./inp_files/6392.got.cif
#   From: 2010.03.12/outbox.cif.g09.slc.cpg/sg91_4_cif.got.tgz:6392.got - 2010.04.08 20:27:58.
