data_PCOD8304485
_publ_section_title
;
Structure prediction by ZEFSAII (Michael W. Deem and Ramdas Pophale) SiO2 
 PCOD8304485
Probable space group: P 4 2 2
;
_chemical_formula_sum "Si O2"
_cell_formula_units_Z 60
_cell_length_a 11.977179
_cell_length_b 11.977179
_cell_length_c 20.108207
_cell_angle_alpha 90.000000
_cell_angle_beta 90.000000
_cell_angle_gamma 90.000000
_cell_volume 2884.578935
_symmetry_space_group_name_H-M "P 4 2 2"
_symmetry_group_IT_number 89
_symmetry_cell_setting 'tetragonal'
loop_
_space_group_symop_operation_xyz
x,y,z
-y,x,z
-x,-y,z
y,-x,z
x,-y,-z
-x,y,-z
y,x,-z
-y,-x,-z
loop_
_atom_site_type_symbol
_atom_site_label
_atom_site_fract_x
_atom_site_fract_y
_atom_site_fract_z
Si Si1 0.159531 0.613024 0.825189
Si Si2 0.320337 0.485806 0.077892
Si Si3 0.615750 0.634150 0.398855
Si Si4 0.958390 0.824767 0.199329
Si Si5 0.201748 0.801680 0.425801
Si Si6 0.370090 0.621445 0.757829
Si Si7 0.500000 0.000000 0.273328
Si Si8 0.271759 0.995770 0.341241
O O1 0.199837 0.540613 0.888825
O O2 0.070765 0.711597 0.842343
O O3 0.263854 0.681814 0.790970
O O4 0.106786 0.527062 0.772296
O O5 0.399112 0.381037 0.099397
O O6 0.300540 0.500000 0.000000
O O7 0.488686 0.654728 0.421599
O O8 0.687081 0.729937 0.433135
O O9 0.630971 0.638486 0.320096
O O10 0.955298 0.799172 0.277901
O O11 0.081474 0.867279 0.180372
O O12 0.163279 0.836722 0.500000
O O13 0.282066 0.894426 0.393457
O O14 0.095698 0.790117 0.378284
O O15 0.344466 0.492844 0.782635
O O16 0.604289 0.966607 0.319609
#
# Coordination Sequence:
#
# PCOD8304485 Si02
#       8
#     8   8   8   8   8   8   4   8
#     4  11  21  34  59  92 125 160 207 254 306 363
#     4   9  19  37  61  93 138 183 213 238 280 357
#     4   9  20  38  59  85 118 153 193 244 317 393
#     4  10  21  39  60  86 116 157 202 263 328 372
#     4  12  26  42  63  86 111 158 209 255 312 394
#     4   9  18  30  52  84 115 150 188 237 300 369
#     4  10  26  40  60  96 124 152 194 270 334 370
#     4  11  24  44  63  86 118 154 202 259 323 382
#
# _framework density 20.800262
#
# number of rings (size 3 to 8) (size 9 to 14) (size 15 to 20)
#    0.000    1.867    1.333    4.000    5.600    5.067 
#    0.000    2.333    0.000    0.000    0.000    0.000 
#    0.000    8.533    0.000    0.000    0.000    0.000 
#
# Total GULP energy -743737.268548 kJ/mol
# GULP energy per Si atom -12395.621142 kJ/mol
# Density = 2.075292 g / cm^3
# Si number density = 20.800262 Si / 1000 Ang^3
#
#
#
# Elastic Constant Matrix: (Units=GPa)
#
#
# Indices 1 2 3 4 5 6 
#
# 1 88.5251 31.9640 30.6295 0.0000 0.0000 0.0000
# 2 31.9640 88.5250 30.6295 0.0000 0.0000 0.0000
# 3 30.6295 30.6295 62.2419 0.0000 0.0000 0.0000
# 4 0.0000 0.0000 0.0000 16.3600 0.0000 0.0000
# 5 0.0000 0.0000 0.0000 0.0000 16.3600 0.0000
# 6 0.0000 0.0000 0.0000 0.0000 0.0000 31.8870
#
#
#
# Elastic Compliance Matrix: (Units=1/GPa)
#
#
# Indices 1 2 3 4 5 6 
#
# 1 0.014374 -0.003306 -0.005447 0.000000 0.000000 0.000000
# 2 -0.003306 0.014374 -0.005447 0.000000 0.000000 0.000000
# 3 -0.005447 -0.005447 0.021427 0.000000 0.000000 0.000000
# 4 0.000000 0.000000 0.000000 0.061125 0.000000 0.000000
# 5 0.000000 0.000000 0.000000 0.000000 0.061125 0.000000
# 6 0.000000 0.000000 0.000000 0.000000 0.000000 0.031361
#
#
# Mechanical properties :
#
#
# Convention : Reuss Voigt Hill
#
# Bulk Modulus (GPa) = 45.92004 47.30421 46.61213
# Shear Modulus (GPa) = 20.88164 22.65933 21.77049
#
# Velocity S-wave (km/s) = 3.17189 3.30415 3.23870
# Velocity P-wave (km/s) = 5.96147 6.11131 6.03685
#
# Compressibility (1/GPa) = 0.02177698
#
# Stress axis : x y z
#
# Youngs Moduli (GPa) = 69.56795 69.56782 46.66928
#
# Poissons Ratio (x) = 0.22996 0.25421
# Poissons Ratio (y) = 0.22996 0.25421
# Poissons Ratio (z) = 0.37894 0.37894
#
# Static dielectric constant tensor:
#      x y z
#    x 3.790530 0.000000 0.000000 
#    y 0.000000 3.790530 0.000000 
#    z 0.000000 0.000000 3.590350 
# 
# 
# High freq. dielectric constant tensor:
#      x y z
#    x 1.808820 0.000000 0.000000 
#    y 0.000000 1.808820 0.000000 
#    z 0.000000 0.000000 1.796370 
# 
# From -- ./inp_files/2646.got.cif
#   From: 2010.03.12/outbox.cif.g09.slc.cpg/sg89_2_cif.got.tgz:2646.got - 2010.04.08 20:24:03.
