data_PCOD8304958
_publ_section_title
;
Structure prediction by ZEFSAII (Michael W. Deem and Ramdas Pophale) SiO2 
 PCOD8304958
Probable space group: P 41 2 2
;
_chemical_formula_sum "Si O2"
_cell_formula_units_Z 48
_cell_length_a 13.812258
_cell_length_b 13.812258
_cell_length_c 12.244964
_cell_angle_alpha 90.000000
_cell_angle_beta 90.000000
_cell_angle_gamma 90.000000
_cell_volume 2336.075510
_symmetry_space_group_name_H-M "P 41 2 2"
_symmetry_group_IT_number 91
_symmetry_cell_setting 'tetragonal'
loop_
_space_group_symop_operation_xyz
x,y,z
-y,x,1/4+z
-x,-y,1/2+z
y,-x,3/4+z
x,-y,1/2-z
-x,y,-z
y,x,3/4-z
-y,-x,1/4-z
loop_
_atom_site_type_symbol
_atom_site_label
_atom_site_fract_x
_atom_site_fract_y
_atom_site_fract_z
Si Si1 0.384650 0.069972 0.512489
Si Si2 0.401006 0.864089 0.566855
Si Si3 0.233127 0.096055 0.320732
Si Si4 0.795877 0.430993 0.946320
Si Si5 0.634876 0.254582 0.715530
Si Si6 0.605469 0.321797 0.952335
O O1 0.500000 0.059430 0.500000
O O2 0.320366 0.089148 0.406903
O O3 0.365534 0.154964 0.601347
O O4 0.344553 0.964895 0.551078
O O5 0.500000 0.863239 0.500000
O O6 0.418368 0.857407 0.694965
O O7 0.346905 0.770079 0.516950
O O8 0.131248 0.131248 0.375000
O O9 0.276672 0.183302 0.247278
O O10 0.214466 0.000000 0.250000
O O11 0.802048 0.543918 0.910800
O O12 0.683328 0.406499 0.966407
O O13 0.668934 0.331067 0.625000
O O14 0.592553 0.303815 0.823672
O O15 0.500000 0.352036 0.000000
#
# Coordination Sequence:
#
# PCOD8304958 Si02
#       6
#     8   8   8   8   8   8
#     4  11  23  36  64  99 128 168 222 283 348 400
#     4  10  21  38  59  88 120 170 221 278 344 411
#     4  11  24  43  71 101 137 179 224 281 349 417
#     4  12  22  39  61  89 133 170 232 287 332 408
#     4  11  23  39  59  91 129 173 224 288 343 401
#     4  11  23  40  60  85 128 184 231 270 342 418
#
# _framework density 20.547283
#
# number of rings (size 3 to 8) (size 9 to 14) (size 15 to 20)
#    0.000    1.000    5.000    4.000    2.333    0.000 
#    3.000    0.000    0.000    6.000    0.000    0.000 
#    0.000    0.000    0.000    0.000    0.000    0.000 
#
# Total GULP energy -594765.944794 kJ/mol
# GULP energy per Si atom -12390.957183 kJ/mol
# Density = 2.050052 g / cm^3
# Si number density = 20.547283 Si / 1000 Ang^3
#
#
#
# Elastic Constant Matrix: (Units=GPa)
#
#
# Indices 1 2 3 4 5 6 
#
# 1 96.8593 36.7227 37.4806 0.0000 0.0000 0.0000
# 2 36.7227 96.8583 37.4807 0.0000 0.0000 0.0000
# 3 37.4806 37.4807 121.0833 0.0000 0.0000 0.0000
# 4 0.0000 0.0000 0.0000 35.9508 0.0000 0.0000
# 5 0.0000 0.0000 0.0000 0.0000 35.9508 0.0000
# 6 0.0000 0.0000 0.0000 0.0000 0.0000 19.3567
#
#
#
# Elastic Compliance Matrix: (Units=1/GPa)
#
#
# Indices 1 2 3 4 5 6 
#
# 1 0.012844 -0.003785 -0.002804 0.000000 0.000000 0.000000
# 2 -0.003785 0.012844 -0.002804 0.000000 0.000000 0.000000
# 3 -0.002804 -0.002804 0.009995 0.000000 0.000000 0.000000
# 4 0.000000 0.000000 0.000000 0.027816 0.000000 0.000000
# 5 0.000000 0.000000 0.000000 0.000000 0.027816 0.000000
# 6 0.000000 0.000000 0.000000 0.000000 0.000000 0.051662
#
#
# Mechanical properties :
#
#
# Convention : Reuss Voigt Hill
#
# Bulk Modulus (GPa) = 59.18237 59.79654 59.48945
# Shear Modulus (GPa) = 29.86928 31.79278 30.83103
#
# Velocity S-wave (km/s) = 3.81686 3.93784 3.87782
# Velocity P-wave (km/s) = 6.94911 7.05978 7.00466
#
# Compressibility (1/GPa) = 0.01689692
#
# Stress axis : x y z
#
# Youngs Moduli (GPa) = 77.85554 77.85461 100.05046
#
# Poissons Ratio (x) = 0.29465 0.28058
# Poissons Ratio (y) = 0.29465 0.28059
# Poissons Ratio (z) = 0.21834 0.21834
#
# Static dielectric constant tensor:
#      x y z
#    x 3.886580 0.000000 0.000000 
#    y 0.000000 3.886580 0.000000 
#    z 0.000000 0.000000 3.670080 
# 
# 
# High freq. dielectric constant tensor:
#      x y z
#    x 1.789440 0.000000 0.000000 
#    y 0.000000 1.789440 0.000000 
#    z 0.000000 0.000000 1.814370 
# 
# From -- ./inp_files/3814.got.cif
#   From: 2010.03.12/outbox.cif.g09.slc.cpg/sg91_2_cif.got.tgz:3814.got - 2010.04.08 20:27:58.
