data_PCOD8304230
_publ_section_title
;
Structure prediction by ZEFSAII (Michael W. Deem and Ramdas Pophale) SiO2 
 PCOD8304230
Probable space group: I 41/A
;
_chemical_formula_sum "Si O2"
_cell_formula_units_Z 64
_cell_length_a 19.943021
_cell_length_b 19.943021
_cell_length_c 9.357425
_cell_angle_alpha 90.000000
_cell_angle_beta 90.000000
_cell_angle_gamma 90.000000
_cell_volume 3721.673311
_symmetry_space_group_name_H-M "I 41/A"
_symmetry_group_IT_number 88
_space_group.IT_coordinate_system_code '2'
_symmetry_cell_setting 'tetragonal'
loop_
_space_group_symop_operation_xyz
x,y,z
3/4-y,1/4+x,1/4+z
-x,1/2-y,z
1/4+y,1/4-x,1/4+z
-x,-y,-z
1/4+y,3/4-x,3/4-z
x,1/2+y,-z
3/4-y,3/4+x,3/4-z
1/2+x,1/2+y,1/2+z
1/4-y,3/4+x,3/4+z
1/2-x,-y,1/2+z
3/4+y,3/4-x,3/4+z
1/2-x,1/2-y,1/2-z
3/4+y,1/4-x,1/4-z
1/2+x,y,1/2-z
1/4-y,1/4+x,1/4-z
loop_
_atom_site_type_symbol
_atom_site_label
_atom_site_fract_x
_atom_site_fract_y
_atom_site_fract_z
Si Si1 0.027996 0.352736 0.583561
Si Si2 0.449386 0.101304 0.232841
Si Si3 0.217842 0.240911 0.461483
Si Si4 0.558748 0.586066 0.557620
O O1 0.079926 0.298375 0.642980
O O2 0.039139 0.362645 0.416815
O O3 0.041857 0.422708 0.665288
O O4 0.506300 0.127496 0.343429
O O5 0.376364 0.121554 0.296004
O O6 0.454819 0.020260 0.220448
O O7 0.169756 0.278313 0.350692
O O8 0.261463 0.182873 0.378643
#
# Coordination Sequence:
#
# PCOD8304230 Si02
#       4
#    16  16  16  16
#     4  11  22  33  55  86 116 139 179 229 284 329
#     4  10  20  34  57  78 114 143 177 226 275 326
#     4   9  20  37  51  81 110 142 178 227 272 332
#     4   9  20  34  57  80 105 142 185 218 273 325
#
# _framework density 17.196565
#
# number of rings (size 3 to 8) (size 9 to 14) (size 15 to 20)
#    1.500    0.750    2.500    0.750    3.500    0.500 
#    0.000    0.000    0.000    3.000    0.000    0.000 
#    0.000    0.000    0.000    0.000    0.000    0.000 
#
# Total GULP energy -396429.171690 kJ/mol
# GULP energy per Si atom -12388.411615 kJ/mol
# Density = 1.715742 g / cm^3
# Si number density = 17.196565 Si / 1000 Ang^3
#
#
#
# Elastic Constant Matrix: (Units=GPa)
#
#
# Indices 1 2 3 4 5 6 
#
# 1 70.5505 26.4698 41.6251 0.0000 0.0000 3.6424
# 2 26.4698 70.5505 41.6251 0.0000 0.0000 -3.6424
# 3 41.6251 41.6251 77.3912 0.0000 0.0000 0.0000
# 4 0.0000 0.0000 0.0000 15.8200 0.0000 0.0000
# 5 0.0000 0.0000 0.0000 0.0000 15.8200 0.0000
# 6 3.6424 -3.6424 0.0000 0.0000 0.0000 16.6091
#
#
#
# Elastic Compliance Matrix: (Units=1/GPa)
#
#
# Indices 1 2 3 4 5 6 
#
# 1 0.021340 -0.002199 -0.010295 0.000000 0.000000 -0.005162
# 2 -0.002199 0.021340 -0.010295 0.000000 0.000000 0.005162
# 3 -0.010295 -0.010295 0.023996 0.000000 0.000000 0.000000
# 4 0.000000 0.000000 0.000000 0.063211 0.000000 0.000000
# 5 0.000000 0.000000 0.000000 0.000000 0.063211 0.000000
# 6 -0.005162 0.005162 0.000000 0.000000 0.000000 0.062472
#
#
# Mechanical properties :
#
#
# Convention : Reuss Voigt Hill
#
# Bulk Modulus (GPa) = 47.39871 48.65913 48.02892
# Shear Modulus (GPa) = 16.22425 16.90128 16.56277
#
# Velocity S-wave (km/s) = 3.07491 3.13841 3.10682
# Velocity P-wave (km/s) = 6.34267 6.44128 6.39217
#
# Compressibility (1/GPa) = 0.02109762
#
# Stress axis : x y z
#
# Youngs Moduli (GPa) = 46.86063 46.86063 41.67406
#
# Poissons Ratio (x) = 0.10304 0.42903
# Poissons Ratio (y) = 0.10304 0.42903
# Poissons Ratio (z) = 0.48243 0.48243
#
# Static dielectric constant tensor:
#      x y z
#    x 2.980810 0.000000 0.000000 
#    y 0.000000 2.980810 0.000000 
#    z 0.000000 0.000000 3.272090 
# 
# 
# High freq. dielectric constant tensor:
#      x y z
#    x 1.638410 0.000000 0.000000 
#    y 0.000000 1.638410 0.000000 
#    z 0.000000 0.000000 1.682020 
# 
# From -- ./inp_files/1477.got.cif
#   From: 2010.03.12/outbox.cif.g09.slc.cpg/sg88_1_cif.got.tgz:1477.got - 2010.04.08 20:20:55.
