data_PCOD8304873
_publ_section_title
;
Structure prediction by ZEFSAII (Michael W. Deem and Ramdas Pophale) SiO2 
 PCOD8304873
Probable space group: P 41 2 2
;
_chemical_formula_sum "Si O2"
_cell_formula_units_Z 48
_cell_length_a 14.471475
_cell_length_b 14.471475
_cell_length_c 11.717544
_cell_angle_alpha 90.000000
_cell_angle_beta 90.000000
_cell_angle_gamma 90.000000
_cell_volume 2453.930115
_symmetry_space_group_name_H-M "P 41 2 2"
_symmetry_group_IT_number 91
_symmetry_cell_setting 'tetragonal'
loop_
_space_group_symop_operation_xyz
x,y,z
-y,x,1/4+z
-x,-y,1/2+z
y,-x,3/4+z
x,-y,1/2-z
-x,y,-z
y,x,3/4-z
-y,-x,1/4-z
loop_
_atom_site_type_symbol
_atom_site_label
_atom_site_fract_x
_atom_site_fract_y
_atom_site_fract_z
Si Si1 0.804201 0.363290 0.928303
Si Si2 0.579829 0.061656 0.851300
Si Si3 0.614751 0.999124 0.089566
Si Si4 0.359564 0.609813 0.254142
Si Si5 0.250350 0.512288 0.887225
Si Si6 0.909536 0.788415 0.455118
O O1 0.728742 0.361180 0.828720
O O2 0.893988 0.411085 0.871589
O O3 0.769053 0.417459 0.041815
O O4 0.833700 0.257322 0.959580
O O5 0.469092 0.060137 0.864823
O O6 0.592239 0.172307 0.837264
O O7 0.619114 0.000000 0.750000
O O8 0.630401 0.014080 0.956416
O O9 0.705320 0.037582 0.144910
O O10 0.371928 0.500000 0.250000
O O11 0.350776 0.649225 0.125000
O O12 0.449390 0.652781 0.315758
O O13 0.255833 0.500000 0.750000
O O14 0.857733 0.857733 0.375000
O O15 0.000000 0.844948 0.500000
#
# Coordination Sequence:
#
# PCOD8304873 Si02
#       6
#     8   8   8   8   8   8
#     4  11  23  41  65  91 127 168 210 268 324 381
#     4  11  19  32  61  96 129 156 200 260 327 383
#     4  10  20  36  61  94 129 157 200 253 327 390
#     4  12  29  47  61  84 124 179 232 265 319 385
#     4  12  24  41  65  92 121 164 219 276 316 378
#     4  10  21  40  65  96 126 161 204 256 320 386
#
# _framework density 19.560459999999999
#
# number of rings (size 3 to 8) (size 9 to 14) (size 15 to 20)
#    0.000    1.000    6.667    0.500    9.333    0.667 
#    0.000    0.000    0.000    5.000    0.000    0.000 
#    0.000    0.000    0.000    0.000    0.000    0.000 
#
# Total GULP energy -594644.695284 kJ/mol
# GULP energy per Si atom -12388.431152 kJ/mol
# Density = 1.951594 g / cm^3
# Si number density = 19.560460 Si / 1000 Ang^3
#
#
#
# Elastic Constant Matrix: (Units=GPa)
#
#
# Indices 1 2 3 4 5 6 
#
# 1 79.8053 39.7997 38.0619 0.0000 0.0000 0.0000
# 2 39.7997 79.8049 38.0617 0.0000 0.0000 0.0000
# 3 38.0619 38.0617 149.6284 0.0000 0.0000 0.0000
# 4 0.0000 0.0000 0.0000 28.5995 0.0000 0.0000
# 5 0.0000 0.0000 0.0000 0.0000 28.5996 0.0000
# 6 0.0000 0.0000 0.0000 0.0000 0.0000 244.2496
#
#
#
# Elastic Compliance Matrix: (Units=1/GPa)
#
#
# Indices 1 2 3 4 5 6 
#
# 1 0.017486 -0.007510 -0.002538 0.000000 0.000000 0.000000
# 2 -0.007510 0.017486 -0.002538 0.000000 0.000000 0.000000
# 3 -0.002538 -0.002538 0.007974 0.000000 0.000000 0.000000
# 4 0.000000 0.000000 0.000000 0.034966 0.000000 0.000000
# 5 0.000000 0.000000 0.000000 0.000000 0.034966 0.000000
# 6 0.000000 0.000000 0.000000 0.000000 0.000000 0.004094
#
#
# Mechanical properties :
#
#
# Convention : Reuss Voigt Hill
#
# Bulk Modulus (GPa) = 56.25681 60.12058 58.18870
# Shear Modulus (GPa) = 33.76810 73.17742 53.47276
#
# Velocity S-wave (km/s) = 4.15944 6.12308 5.23417
# Velocity P-wave (km/s) = 7.20353 8.98844 8.14502
#
# Compressibility (1/GPa) = 0.01777563
#
# Stress axis : x y z
#
# Youngs Moduli (GPa) = 57.18768 57.18748 125.40369
#
# Poissons Ratio (x) = 0.42950 0.31823
# Poissons Ratio (y) = 0.42950 0.31823
# Poissons Ratio (z) = 0.14512 0.14512
#
# Static dielectric constant tensor:
#      x y z
#    x 3.710910 0.000000 0.000000 
#    y 0.000000 3.710910 0.000000 
#    z 0.000000 0.000000 4.013260 
# 
# 
# High freq. dielectric constant tensor:
#      x y z
#    x 1.746840 0.000000 0.000000 
#    y 0.000000 1.746840 0.000000 
#    z 0.000000 0.000000 1.778140 
# 
# From -- ./inp_files/3823.got.cif
#   From: 2010.03.12/outbox.cif.g09.slc.cpg/sg91_2_cif.got.tgz:3823.got - 2010.04.08 20:27:58.
