data_PCOD8304496
_publ_section_title
;
Structure prediction by ZEFSAII (Michael W. Deem and Ramdas Pophale) SiO2 
 PCOD8304496
Probable space group: P 4 2 2
;
_chemical_formula_sum "Si O2"
_cell_formula_units_Z 40
_cell_length_a 14.538424
_cell_length_b 14.538424
_cell_length_c 9.491484
_cell_angle_alpha 90.000000
_cell_angle_beta 90.000000
_cell_angle_gamma 90.000000
_cell_volume 2006.174847
_symmetry_space_group_name_H-M "P 4 2 2"
_symmetry_group_IT_number 89
_symmetry_cell_setting 'tetragonal'
loop_
_space_group_symop_operation_xyz
x,y,z
-y,x,z
-x,-y,z
y,-x,z
x,-y,-z
-x,y,-z
y,x,-z
-y,-x,-z
loop_
_atom_site_type_symbol
_atom_site_label
_atom_site_fract_x
_atom_site_fract_y
_atom_site_fract_z
Si Si1 0.601677 0.746846 0.672563
Si Si2 0.244867 0.393297 0.647816
Si Si3 0.892108 0.592720 0.088192
Si Si4 0.009849 0.850016 0.337534
Si Si5 0.669547 0.070814 0.818594
O O1 0.671033 0.664988 0.710522
O O2 0.495463 0.717894 0.676566
O O3 0.626193 0.779056 0.514995
O O4 0.618016 0.823942 0.787507
O O5 0.148146 0.371350 0.718278
O O6 0.992815 0.590306 0.161443
O O7 0.867831 0.500000 0.000000
O O8 0.887198 0.678924 0.976929
O O9 0.096452 0.915607 0.304378
O O10 0.000000 0.819187 0.500000
O O11 0.023977 0.762050 0.238844
#
# Coordination Sequence:
#
# PCOD8304496 Si02
#       5
#     8   8   8   8   8
#     4  10  23  43  65  96 130 165 213 277 320 391
#     4  10  23  41  68  97 125 166 221 265 330 381
#     4  11  24  44  60  87 136 168 206 259 324 383
#     4   9  21  41  63  91 129 168 212 266 319 379
#     4  11  23  38  63  94 122 170 212 259 315 386
#
# _framework density 19.938442999999999
#
# number of rings (size 3 to 8) (size 9 to 14) (size 15 to 20)
#    0.000    1.800    2.000    1.800    5.600    2.800 
#    3.600    4.000    0.000    4.800    0.000    0.000 
#    0.000    0.000    0.000    0.000    0.000    0.000 
#
# Total GULP energy -495546.200392 kJ/mol
# GULP energy per Si atom -12388.655010 kJ/mol
# Density = 1.989306 g / cm^3
# Si number density = 19.938443 Si / 1000 Ang^3
#
#
#
# Elastic Constant Matrix: (Units=GPa)
#
#
# Indices 1 2 3 4 5 6 
#
# 1 111.8282 49.6234 67.4357 0.0000 0.0000 0.0000
# 2 49.6234 111.8282 67.4357 0.0000 0.0000 0.0000
# 3 67.4357 67.4357 110.3329 0.0000 0.0000 0.0000
# 4 0.0000 0.0000 0.0000 28.5142 0.0000 0.0000
# 5 0.0000 0.0000 0.0000 0.0000 28.5142 0.0000
# 6 0.0000 0.0000 0.0000 0.0000 0.0000 29.9969
#
#
#
# Elastic Compliance Matrix: (Units=1/GPa)
#
#
# Indices 1 2 3 4 5 6 
#
# 1 0.014366 -0.001710 -0.007735 0.000000 0.000000 0.000000
# 2 -0.001710 0.014366 -0.007735 0.000000 0.000000 0.000000
# 3 -0.007735 -0.007735 0.018519 0.000000 0.000000 0.000000
# 4 0.000000 0.000000 0.000000 0.035070 0.000000 0.000000
# 5 0.000000 0.000000 0.000000 0.000000 0.035070 0.000000
# 6 0.000000 0.000000 0.000000 0.000000 0.000000 0.033337
#
#
# Mechanical properties :
#
#
# Convention : Reuss Voigt Hill
#
# Bulk Modulus (GPa) = 77.58227 78.10878 77.84552
# Shear Modulus (GPa) = 26.40134 27.37137 26.88636
#
# Velocity S-wave (km/s) = 3.64282 3.70914 3.67613
# Velocity P-wave (km/s) = 7.52921 7.58971 7.55952
#
# Compressibility (1/GPa) = 0.01288954
#
# Stress axis : x y z
#
# Youngs Moduli (GPa) = 69.61048 69.61048 53.99922
#
# Poissons Ratio (x) = 0.11905 0.41768
# Poissons Ratio (y) = 0.11905 0.41768
# Poissons Ratio (z) = 0.53844 0.53844
#
# Static dielectric constant tensor:
#      x y z
#    x 3.651230 0.000000 0.000000 
#    y 0.000000 3.651230 0.000000 
#    z 0.000000 0.000000 3.888020 
# 
# 
# High freq. dielectric constant tensor:
#      x y z
#    x 1.775140 0.000000 0.000000 
#    y 0.000000 1.775140 0.000000 
#    z 0.000000 0.000000 1.787750 
# 
# From -- ./inp_files/1043.got.cif
#   From: 2010.03.12/outbox.cif.g09.slc.cpg/sg89_1_cif.got.tgz:1043.got - 2010.04.08 20:24:03.
