data_PCOD8304382
_publ_section_title
;
Structure prediction by ZEFSAII (Michael W. Deem and Ramdas Pophale) SiO2 
 PCOD8304382
Probable space group: I 41/A
;
_chemical_formula_sum "Si O2"
_cell_formula_units_Z 108
_cell_length_a 13.387377
_cell_length_b 13.387377
_cell_length_c 28.474212
_cell_angle_alpha 90.000000
_cell_angle_beta 90.000000
_cell_angle_gamma 90.000000
_cell_volume 5103.201320
_symmetry_space_group_name_H-M "I 41/A"
_symmetry_group_IT_number 88
_space_group.IT_coordinate_system_code '2'
_symmetry_cell_setting 'tetragonal'
loop_
_space_group_symop_operation_xyz
x,y,z
3/4-y,1/4+x,1/4+z
-x,1/2-y,z
1/4+y,1/4-x,1/4+z
-x,-y,-z
1/4+y,3/4-x,3/4-z
x,1/2+y,-z
3/4-y,3/4+x,3/4-z
1/2+x,1/2+y,1/2+z
1/4-y,3/4+x,3/4+z
1/2-x,-y,1/2+z
3/4+y,3/4-x,3/4+z
1/2-x,1/2-y,1/2-z
3/4+y,1/4-x,1/4-z
1/2+x,y,1/2-z
1/4-y,1/4+x,1/4-z
loop_
_atom_site_type_symbol
_atom_site_label
_atom_site_fract_x
_atom_site_fract_y
_atom_site_fract_z
Si Si1 0.389487 0.787651 0.516382
Si Si2 0.686954 0.663100 0.967983
Si Si3 0.770486 0.017291 0.855801
Si Si4 0.840604 0.325680 0.912013
Si Si5 0.324176 0.329046 0.925208
Si Si6 0.370551 0.171546 0.356784
Si Si7 0.000000 0.250000 0.412030
Si Si8 0.500000 0.750000 0.125000
O O1 0.500000 0.750000 0.529727
O O2 0.297918 0.713852 0.530435
O O3 0.394176 0.820849 0.462467
O O4 0.382470 0.879629 0.552769
O O5 0.685460 0.552139 0.944294
O O6 0.598382 0.729902 0.944163
O O7 0.661099 0.638781 0.021449
O O8 0.737002 0.092297 0.895498
O O9 0.690955 0.928204 0.850581
O O10 0.879655 0.981043 0.872131
O O11 0.731855 0.276389 0.918799
O O12 0.905242 0.272368 0.871625
O O13 0.436479 0.324214 0.906848
O O14 0.372134 0.289915 0.362922
#
# Coordination Sequence:
#
# PCOD8304382 Si02
#       8
#    16  16  16  16  16  16   8   4
#     4  11  21  43  65  99 138 178 228 274 345 428
#     4  11  25  43  69 103 137 182 232 290 346 428
#     4  12  24  43  65 102 135 176 229 283 343 413
#     4  11  25  41  68  98 135 178 216 291 345 411
#     4  11  25  45  69  97 134 175 234 282 352 409
#     4  11  21  39  63  93 136 180 216 264 332 409
#     4  12  23  48  68  99 141 180 232 291 360 402
#     4  12  22  52  68  92 128 188 224 302 348 408
#
# _framework density 21.163186
#
# number of rings (size 3 to 8) (size 9 to 14) (size 15 to 20)
#    0.000    0.741    6.667    1.333    2.074    0.000 
#    0.000    2.963    0.000    0.000    0.000    0.000 
#    0.000    0.000    0.000    0.000    0.000    0.000 
#
# Total GULP energy -669121.475087 kJ/mol
# GULP energy per Si atom -12391.138428 kJ/mol
# Density = 2.111502 g / cm^3
# Si number density = 21.163186 Si / 1000 Ang^3
#
#
#
# Elastic Constant Matrix: (Units=GPa)
#
#
# Indices 1 2 3 4 5 6 
#
# 1 77.8654 29.8903 43.5520 0.0000 0.0000 2.3892
# 2 29.8903 77.8654 43.5520 0.0000 0.0000 -2.3892
# 3 43.5520 43.5520 169.1782 0.0000 0.0000 0.0000
# 4 0.0000 0.0000 0.0000 12.7625 0.0000 0.0000
# 5 0.0000 0.0000 0.0000 0.0000 12.7625 0.0000
# 6 2.3892 -2.3892 0.0000 0.0000 0.0000 38.1248
#
#
#
# Elastic Compliance Matrix: (Units=1/GPa)
#
#
# Indices 1 2 3 4 5 6 
#
# 1 0.016347 -0.004628 -0.003017 0.000000 0.000000 -0.001314
# 2 -0.004628 0.016347 -0.003017 0.000000 0.000000 0.001314
# 3 -0.003017 -0.003017 0.007464 0.000000 0.000000 0.000000
# 4 0.000000 0.000000 0.000000 0.078355 0.000000 0.000000
# 5 0.000000 0.000000 0.000000 0.000000 0.078355 0.000000
# 6 -0.001314 0.001314 0.000000 0.000000 0.000000 0.026394
#
#
# Mechanical properties :
#
#
# Convention : Reuss Voigt Hill
#
# Bulk Modulus (GPa) = 53.09358 62.09971 57.59665
# Shear Modulus (GPa) = 19.93118 26.59095 23.26107
#
# Velocity S-wave (km/s) = 3.07218 3.54852 3.31891
# Velocity P-wave (km/s) = 6.14220 6.79679 6.47776
#
# Compressibility (1/GPa) = 0.01883467
#
# Stress axis : x y z
#
# Youngs Moduli (GPa) = 61.17343 61.17343 133.97311
#
# Poissons Ratio (x) = 0.28312 0.40417
# Poissons Ratio (y) = 0.28312 0.40417
# Poissons Ratio (z) = 0.18455 0.18455
#
# Static dielectric constant tensor:
#      x y z
#    x 2.422440 0.000000 0.000000 
#    y 0.000000 2.422440 0.000000 
#    z 0.000000 0.000000 4.218400 
# 
# 
# High freq. dielectric constant tensor:
#      x y z
#    x 1.823130 0.000000 0.000000 
#    y 0.000000 1.823130 0.000000 
#    z 0.000000 0.000000 1.852020 
# 
# From -- ./inp_files/5913.got.cif
#   From: 2010.03.12/outbox.cif.g09.slc.cpg/sg88_3_cif.got.tgz:5913.got - 2010.04.08 20:20:55.
