data_PCOD8304126
_publ_section_title
;
Structure prediction by ZEFSAII (Michael W. Deem and Ramdas Pophale) SiO2 
 PCOD8304126
Probable space group: I 4/M
;
_chemical_formula_sum "Si O2"
_cell_formula_units_Z 96
_cell_length_a 23.655079
_cell_length_b 23.655079
_cell_length_c 9.108009
_cell_angle_alpha 90.000000
_cell_angle_beta 90.000000
_cell_angle_gamma 90.000000
_cell_volume 5096.502677
_symmetry_space_group_name_H-M "I 4/M"
_symmetry_group_IT_number 87
_symmetry_cell_setting 'tetragonal'
loop_
_space_group_symop_operation_xyz
x,y,z
-y,x,z
-x,-y,z
y,-x,z
-x,-y,-z
y,-x,-z
x,y,-z
-y,x,-z
1/2+x,1/2+y,1/2+z
1/2-y,1/2+x,1/2+z
1/2-x,1/2-y,1/2+z
1/2+y,1/2-x,1/2+z
1/2-x,1/2-y,1/2-z
1/2+y,1/2-x,1/2-z
1/2+x,1/2+y,1/2-z
1/2-y,1/2+x,1/2-z
loop_
_atom_site_type_symbol
_atom_site_label
_atom_site_fract_x
_atom_site_fract_y
_atom_site_fract_z
Si Si1 0.518075 0.918442 0.322721
Si Si2 0.683764 0.302723 0.161261
Si Si3 0.317352 0.927661 0.674037
Si Si4 0.482892 0.410867 0.328075
Si Si5 0.682496 0.198514 0.660655
Si Si6 0.926816 0.811853 0.326656
O O1 0.517698 0.924955 0.500000
O O2 0.457684 0.934698 0.253950
O O3 0.530696 0.854519 0.273729
O O4 0.655815 0.250234 0.247485
O O5 0.750573 0.294469 0.150059
O O6 0.671989 0.364040 0.234856
O O7 0.656555 0.300895 0.000000
O O8 0.328943 0.935191 0.500000
O O9 0.331790 0.863385 0.724946
O O10 0.252572 0.942199 0.712344
O O11 0.543994 0.434874 0.282408
O O12 0.480364 0.399356 0.500000
O O13 0.473370 0.352227 0.244557
O O14 0.655350 0.203444 0.500000
O O15 0.926408 0.819934 0.500000
#
# Coordination Sequence:
#
# PCOD8304126 Si02
#       6
#    16  16  16  16  16  16
#     4  11  22  38  60  82 104 135 175 215 257 305
#     4   8  14  25  41  65  98 132 166 203 245 297
#     4   9  18  34  53  77 110 140 170 213 261 307
#     4   9  19  36  55  74  99 133 174 219 263 309
#     4   8  14  25  43  66  95 133 170 203 242 292
#     4   9  18  32  52  78 107 137 169 213 265 311
#
# _framework density 18.836447
#
# number of rings (size 3 to 8) (size 9 to 14) (size 15 to 20)
#    0.000    3.000    0.000    4.500    0.000    2.667 
#    0.000    5.833    0.000    4.000    0.000    0.000 
#    0.000    0.000    0.000    0.000    0.000    0.000 
#
# Total GULP energy -594843.236611 kJ/mol
# GULP energy per Si atom -12392.567429 kJ/mol
# Density = 1.879357 g / cm^3
# Si number density = 18.836447 Si / 1000 Ang^3
#
#
#
# Elastic Constant Matrix: (Units=GPa)
#
#
# Indices 1 2 3 4 5 6 
#
# 1 76.1563 42.8611 39.0937 0.0000 0.0000 0.6732
# 2 42.8611 76.1563 39.0937 0.0000 0.0000 -0.6732
# 3 39.0937 39.0937 77.1181 0.0000 0.0000 0.0000
# 4 0.0000 0.0000 0.0000 28.7803 0.0000 0.0000
# 5 0.0000 0.0000 0.0000 0.0000 28.7803 0.0000
# 6 0.6732 -0.6732 0.0000 0.0000 0.0000 22.7276
#
#
#
# Elastic Compliance Matrix: (Units=1/GPa)
#
#
# Indices 1 2 3 4 5 6 
#
# 1 0.021334 -0.008737 -0.006386 0.000000 0.000000 -0.000891
# 2 -0.008737 0.021334 -0.006386 0.000000 0.000000 0.000891
# 3 -0.006386 -0.006386 0.019442 0.000000 0.000000 0.000000
# 4 0.000000 0.000000 0.000000 0.034746 0.000000 0.000000
# 5 0.000000 0.000000 0.000000 0.000000 0.034746 0.000000
# 6 -0.000891 0.000891 0.000000 0.000000 0.000000 0.044052
#
#
# Mechanical properties :
#
#
# Convention : Reuss Voigt Hill
#
# Bulk Modulus (GPa) = 52.37700 52.39196 52.38448
# Shear Modulus (GPa) = 22.21878 23.28311 22.75094
#
# Velocity S-wave (km/s) = 3.43820 3.51959 3.47913
# Velocity P-wave (km/s) = 6.60517 6.66267 6.63398
#
# Compressibility (1/GPa) = 0.01909235
#
# Stress axis : x y z
#
# Youngs Moduli (GPa) = 46.87381 46.87381 51.43581
#
# Poissons Ratio (x) = 0.40951 0.32847
# Poissons Ratio (y) = 0.40951 0.32847
# Poissons Ratio (z) = 0.29934 0.29934
#
# Static dielectric constant tensor:
#      x y z
#    x 3.368350 0.000000 0.000000 
#    y 0.000000 3.368350 0.000000 
#    z 0.000000 0.000000 3.491160 
# 
# 
# High freq. dielectric constant tensor:
#      x y z
#    x 1.715820 0.000000 0.000000 
#    y 0.000000 1.715820 0.000000 
#    z 0.000000 0.000000 1.721220 
# 
# From -- ./inp_files/1444.got.cif
#   From: 2010.03.12/outbox.cif.g09.slc.cpg/sg87_1_cif.got.tgz:1444.got - 2010.04.08 20:16:13.
