data_PCOD8304455
_publ_section_title
;
Structure prediction by ZEFSAII (Michael W. Deem and Ramdas Pophale) SiO2 
 PCOD8304455
Probable space group: I 41/A
;
_chemical_formula_sum "Si O2"
_cell_formula_units_Z 64
_cell_length_a 19.583788
_cell_length_b 19.583788
_cell_length_c 8.051310
_cell_angle_alpha 90.000000
_cell_angle_beta 90.000000
_cell_angle_gamma 90.000000
_cell_volume 3087.876674
_symmetry_space_group_name_H-M "I 41/A"
_symmetry_group_IT_number 88
_space_group.IT_coordinate_system_code '2'
_symmetry_cell_setting 'tetragonal'
loop_
_space_group_symop_operation_xyz
x,y,z
3/4-y,1/4+x,1/4+z
-x,1/2-y,z
1/4+y,1/4-x,1/4+z
-x,-y,-z
1/4+y,3/4-x,3/4-z
x,1/2+y,-z
3/4-y,3/4+x,3/4-z
1/2+x,1/2+y,1/2+z
1/4-y,3/4+x,3/4+z
1/2-x,-y,1/2+z
3/4+y,3/4-x,3/4+z
1/2-x,1/2-y,1/2-z
3/4+y,1/4-x,1/4-z
1/2+x,y,1/2-z
1/4-y,1/4+x,1/4-z
loop_
_atom_site_type_symbol
_atom_site_label
_atom_site_fract_x
_atom_site_fract_y
_atom_site_fract_z
Si Si1 0.057153 0.446341 0.816767
Si Si2 0.099403 0.701480 0.842903
Si Si3 0.299831 0.437321 0.870067
Si Si4 0.756747 0.832693 0.913673
O O1 0.107210 0.440693 0.658884
O O2 0.983393 0.471131 0.753573
O O3 0.051498 0.371136 0.899047
O O4 0.082082 0.500424 0.961261
O O5 0.090909 0.780836 0.888113
O O6 0.161344 0.669693 0.955472
O O7 0.224568 0.445868 0.796208
O O8 0.352091 0.468765 0.737521
#
# Coordination Sequence:
#
# PCOD8304455 Si02
#       4
#    16  16  16  16
#     4   9  22  41  63  91 128 160 213 259 315 374
#     4   9  19  37  68  92 117 168 214 248 308 389
#     4  12  26  39  63  96 125 166 213 263 317 376
#     4   9  22  41  67  86 130 168 200 263 320 373
#
# _framework density 20.726216000000001
#
# number of rings (size 3 to 8) (size 9 to 14) (size 15 to 20)
#    1.500    0.750    0.000    1.500    7.000    1.000 
#    0.000    0.000    0.000    0.000    0.000    0.000 
#    0.000    0.000    0.000    0.000    0.000    0.000 
#
# Total GULP energy -396490.146352 kJ/mol
# GULP energy per Si atom -12390.317074 kJ/mol
# Density = 2.067904 g / cm^3
# Si number density = 20.726216 Si / 1000 Ang^3
#
#
#
# Elastic Constant Matrix: (Units=GPa)
#
#
# Indices 1 2 3 4 5 6 
#
# 1 62.6349 13.2359 1.4412 0.0000 0.0000 -6.9588
# 2 13.2359 62.6349 1.4412 0.0000 0.0000 6.9588
# 3 1.4412 1.4412 28.3098 0.0000 0.0000 0.0000
# 4 0.0000 0.0000 0.0000 32.5467 0.0000 0.0000
# 5 0.0000 0.0000 0.0000 0.0000 32.5467 0.0000
# 6 -6.9588 6.9588 0.0000 0.0000 0.0000 33.8384
#
#
#
# Elastic Compliance Matrix: (Units=1/GPa)
#
#
# Indices 1 2 3 4 5 6 
#
# 1 0.017347 -0.004141 -0.000672 0.000000 0.000000 0.004419
# 2 -0.004141 0.017347 -0.000672 0.000000 0.000000 -0.004419
# 3 -0.000672 -0.000672 0.035392 0.000000 0.000000 0.000000
# 4 0.000000 0.000000 0.000000 0.030725 0.000000 0.000000
# 5 0.000000 0.000000 0.000000 0.000000 0.030725 0.000000
# 6 0.004419 -0.004419 0.000000 0.000000 0.000000 0.031370
#
#
# Mechanical properties :
#
#
# Convention : Reuss Voigt Hill
#
# Bulk Modulus (GPa) = 16.91636 20.64627 18.78131
# Shear Modulus (GPa) = 25.82878 28.95043 27.38961
#
# Velocity S-wave (km/s) = 3.53397 3.74144 3.63918
# Velocity P-wave (km/s) = 4.98312 5.35234 5.17102
#
# Compressibility (1/GPa) = 0.05911438
#
# Stress axis : x y z
#
# Youngs Moduli (GPa) = 57.64656 57.64656 28.25508
#
# Poissons Ratio (x) = 0.23873 0.01900
# Poissons Ratio (y) = 0.23873 0.01900
# Poissons Ratio (z) = 0.03876 0.03876
#
# Static dielectric constant tensor:
#      x y z
#    x 3.653860 0.000000 0.000000 
#    y 0.000000 3.653860 0.000000 
#    z 0.000000 0.000000 3.272650 
# 
# 
# High freq. dielectric constant tensor:
#      x y z
#    x 1.814420 0.000000 0.000000 
#    y 0.000000 1.814420 0.000000 
#    z 0.000000 0.000000 1.773090 
# 
# From -- ./inp_files/1437.got.cif
#   From: 2010.03.12/outbox.cif.g09.slc.cpg/sg88_1_cif.got.tgz:1437.got - 2010.04.08 20:20:55.
