data_PCOD8304692
_publ_section_title
;
Structure prediction by ZEFSAII (Michael W. Deem and Ramdas Pophale) SiO2 
 PCOD8304692
Probable space group: P 4 21 2
;
_chemical_formula_sum "Si O2"
_cell_formula_units_Z 40
_cell_length_a 14.865139
_cell_length_b 14.865139
_cell_length_c 8.462663
_cell_angle_alpha 90.000000
_cell_angle_beta 90.000000
_cell_angle_gamma 90.000000
_cell_volume 1870.014594
_symmetry_space_group_name_H-M "P 4 21 2"
_symmetry_group_IT_number 90
_symmetry_cell_setting 'tetragonal'
loop_
_space_group_symop_operation_xyz
x,y,z
1/2-y,1/2+x,z
-x,-y,z
1/2+y,1/2-x,z
1/2+x,1/2-y,-z
1/2-x,1/2+y,-z
y,x,-z
-y,-x,-z
loop_
_atom_site_type_symbol
_atom_site_label
_atom_site_fract_x
_atom_site_fract_y
_atom_site_fract_z
Si Si1 0.667146 0.193581 0.939960
Si Si2 0.588296 0.448339 0.820110
Si Si3 0.729692 0.371335 0.374022
Si Si4 0.724659 0.012817 0.111427
Si Si5 0.856946 0.484162 0.558686
O O1 0.669141 0.196473 0.748537
O O2 0.720707 0.279294 0.000000
O O3 0.708433 0.104782 0.017218
O O4 0.563850 0.207573 0.983970
O O5 0.500000 0.500000 0.758495
O O6 0.600477 0.361498 0.712370
O O7 0.675215 0.513664 0.813724
O O8 0.579835 0.420166 0.000000
O O9 0.707361 0.292640 0.500000
O O10 0.766310 0.460944 0.462877
O O11 0.656583 0.992867 0.253705
O O12 0.901327 0.578075 0.510108
#
# Coordination Sequence:
#
# PCOD8304692 Si02
#       5
#     8   8   8   8   8
#     4  12  26  44  74 105 139 193 248 295 357 440
#     4  11  24  45  72 101 140 187 246 299 353 434
#     4  12  24  46  69 102 150 184 226 310 367 426
#     4  12  23  47  73 100 142 189 244 295 353 431
#     4  11  25  45  68 101 143 188 230 291 366 434
#
# _framework density 21.390205999999999
#
# number of rings (size 3 to 8) (size 9 to 14) (size 15 to 20)
#    0.000    0.400    8.000    0.000    5.600    0.800 
#    0.000    0.000    0.000    0.000    0.000    0.000 
#    0.000    0.000    0.000    0.000    0.000    0.000 
#
# Total GULP energy -495906.366441 kJ/mol
# GULP energy per Si atom -12397.659161 kJ/mol
# Density = 2.134152 g / cm^3
# Si number density = 21.390206 Si / 1000 Ang^3
#
#
#
# Elastic Constant Matrix: (Units=GPa)
#
#
# Indices 1 2 3 4 5 6 
#
# 1 91.1492 59.5824 46.5954 0.0000 0.0000 0.0000
# 2 59.5824 91.1475 46.5986 0.0000 0.0000 0.0000
# 3 46.5954 46.5986 133.5605 0.0000 0.0000 0.0000
# 4 0.0000 0.0000 0.0000 40.1917 0.0000 0.0000
# 5 0.0000 0.0000 0.0000 0.0000 40.1912 0.0000
# 6 0.0000 0.0000 0.0000 0.0000 0.0000 37.8314
#
#
#
# Elastic Compliance Matrix: (Units=1/GPa)
#
#
# Indices 1 2 3 4 5 6 
#
# 1 0.020069 -0.011610 -0.002951 0.000000 0.000000 0.000000
# 2 -0.011610 0.020070 -0.002952 0.000000 0.000000 0.000000
# 3 -0.002951 -0.002952 0.009546 0.000000 0.000000 0.000000
# 4 0.000000 0.000000 0.000000 0.024881 0.000000 0.000000
# 5 0.000000 0.000000 0.000000 0.000000 0.024881 0.000000
# 6 0.000000 0.000000 0.000000 0.000000 0.000000 0.026433
#
#
# Mechanical properties :
#
#
# Convention : Reuss Voigt Hill
#
# Bulk Modulus (GPa) = 68.21422 69.04558 68.62990
# Shear Modulus (GPa) = 30.15822 34.51492 32.33657
#
# Velocity S-wave (km/s) = 3.75895 4.02130 3.89234
# Velocity P-wave (km/s) = 7.12736 7.34236 7.23566
#
# Compressibility (1/GPa) = 0.01465970
#
# Stress axis : x y z
#
# Youngs Moduli (GPa) = 49.82842 49.82581 104.75045
#
# Poissons Ratio (x) = 0.57850 0.30908
# Poissons Ratio (y) = 0.57853 0.30920
# Poissons Ratio (z) = 0.14703 0.14707
#
# Static dielectric constant tensor:
#      x y z
#    x 3.985970 0.000000 0.000000 
#    y 0.000000 3.985970 0.000000 
#    z 0.000000 0.000000 4.084640 
# 
# 
# High freq. dielectric constant tensor:
#      x y z
#    x 1.839460 0.000000 0.000000 
#    y 0.000000 1.839460 0.000000 
#    z 0.000000 0.000000 1.847810 
# 
# From -- ./inp_files/1265.got.cif
#   From: 2010.03.12/outbox.cif.g09.slc.cpg/sg90_1_cif.got.tgz:1265.got - 2010.04.08 20:26:03.
