data_PCOD8304855
_publ_section_title
;
Structure prediction by ZEFSAII (Michael W. Deem and Ramdas Pophale) SiO2 
 PCOD8304855
Probable space group: P 41 2 2
;
_chemical_formula_sum "Si O2"
_cell_formula_units_Z 48
_cell_length_a 12.537599
_cell_length_b 12.537599
_cell_length_c 17.401269
_cell_angle_alpha 90.000000
_cell_angle_beta 90.000000
_cell_angle_gamma 90.000000
_cell_volume 2735.329639
_symmetry_space_group_name_H-M "P 41 2 2"
_symmetry_group_IT_number 91
_symmetry_cell_setting 'tetragonal'
loop_
_space_group_symop_operation_xyz
x,y,z
-y,x,1/4+z
-x,-y,1/2+z
y,-x,3/4+z
x,-y,1/2-z
-x,y,-z
y,x,3/4-z
-y,-x,1/4-z
loop_
_atom_site_type_symbol
_atom_site_label
_atom_site_fract_x
_atom_site_fract_y
_atom_site_fract_z
Si Si1 0.119622 0.897367 0.209777
Si Si2 0.770989 0.934174 0.468359
Si Si3 0.582336 0.999723 0.568201
Si Si4 0.799999 0.337436 0.581745
Si Si5 0.511589 0.113966 0.787038
Si Si6 0.725456 0.901596 0.300718
O O1 0.074737 0.925264 0.125000
O O2 0.219091 0.818260 0.202734
O O3 0.024226 0.858934 0.265018
O O4 0.169530 0.000000 0.250000
O O5 0.719037 0.952702 0.385492
O O6 0.813920 0.814218 0.464806
O O7 0.685441 0.942550 0.534900
O O8 0.500000 0.029210 0.500000
O O9 0.618961 0.109018 0.610105
O O10 0.538200 0.905944 0.623531
O O11 0.684224 0.315777 0.625000
O O12 0.796491 0.417773 0.508205
O O13 0.388723 0.149378 0.778500
O O14 0.533890 0.000000 0.750000
O O15 0.757759 0.000000 0.250000
#
# Coordination Sequence:
#
# PCOD8304855 Si02
#       6
#     8   8   8   8   8   8
#     4  11  22  33  49  77 113 151 178 216 275 337
#     4  11  22  34  53  79 113 144 187 227 273 340
#     4  11  19  35  55  81 108 145 189 234 279 334
#     4  10  20  36  54  79 110 143 188 235 280 335
#     4   9  19  34  55  73 108 149 184 229 273 328
#     4  10  22  36  50  79 114 152 186 222 274 333
#
# _framework density 17.548159999999999
#
# number of rings (size 3 to 8) (size 9 to 14) (size 15 to 20)
#    0.000    1.667    5.000    2.000    4.667    0.000 
#    0.000    0.000    0.000    0.000    0.000    3.500 
#    0.000    0.000    0.000    0.000    0.000    0.000 
#
# Total GULP energy -594660.764448 kJ/mol
# GULP energy per Si atom -12388.765926 kJ/mol
# Density = 1.750822 g / cm^3
# Si number density = 17.548160 Si / 1000 Ang^3
#
#
#
# Elastic Constant Matrix: (Units=GPa)
#
#
# Indices 1 2 3 4 5 6 
#
# 1 63.1714 12.9094 26.3920 0.0000 0.0000 0.0000
# 2 12.9094 63.1711 26.3919 0.0000 0.0000 0.0000
# 3 26.3920 26.3919 92.6141 0.0000 0.0000 0.0000
# 4 0.0000 0.0000 0.0000 26.7036 0.0000 0.0000
# 5 0.0000 0.0000 0.0000 0.0000 26.7038 0.0000
# 6 0.0000 0.0000 0.0000 0.0000 0.0000 22.4581
#
#
#
# Elastic Compliance Matrix: (Units=1/GPa)
#
#
# Indices 1 2 3 4 5 6 
#
# 1 0.018139 -0.001756 -0.004669 0.000000 0.000000 0.000000
# 2 -0.001756 0.018139 -0.004669 0.000000 0.000000 0.000000
# 3 -0.004669 -0.004669 0.013458 0.000000 0.000000 0.000000
# 4 0.000000 0.000000 0.000000 0.037448 0.000000 0.000000
# 5 0.000000 0.000000 0.000000 0.000000 0.037448 0.000000
# 6 0.000000 0.000000 0.000000 0.000000 0.000000 0.044527
#
#
# Mechanical properties :
#
#
# Convention : Reuss Voigt Hill
#
# Bulk Modulus (GPa) = 36.29787 38.92701 37.61244
# Shear Modulus (GPa) = 24.93382 25.39066 25.16224
#
# Velocity S-wave (km/s) = 3.77354 3.80796 3.79079
# Velocity P-wave (km/s) = 6.30205 6.44711 6.37499
#
# Compressibility (1/GPa) = 0.02754982
#
# Stress axis : x y z
#
# Youngs Moduli (GPa) = 55.12882 55.12848 74.30362
#
# Poissons Ratio (x) = 0.09683 0.34689
# Poissons Ratio (y) = 0.09683 0.34690
# Poissons Ratio (z) = 0.25737 0.25737
#
# Static dielectric constant tensor:
#      x y z
#    x 4.097370 0.000000 0.000000 
#    y 0.000000 4.097420 0.000000 
#    z 0.000000 0.000000 3.857190 
# 
# 
# High freq. dielectric constant tensor:
#      x y z
#    x 1.654310 0.000000 0.000000 
#    y 0.000000 1.654320 0.000000 
#    z 0.000000 0.000000 1.700520 
# 
# From -- ./inp_files/16904.got.cif
#   From: 2010.03.12/outbox.cif.g09.slc.cpg/sg91_9_cif.got.tgz:16904.got - 2010.04.08 20:27:58.
