data_PCOD8304319
_publ_section_title
;
Structure prediction by ZEFSAII (Michael W. Deem and Ramdas Pophale) SiO2 
 PCOD8304319
Probable space group: I 41/A
;
_chemical_formula_sum "Si O2"
_cell_formula_units_Z 96
_cell_length_a 17.695477
_cell_length_b 17.695477
_cell_length_c 15.677968
_cell_angle_alpha 90.000000
_cell_angle_beta 90.000000
_cell_angle_gamma 90.000000
_cell_volume 4909.240650
_symmetry_space_group_name_H-M "I 41/A"
_symmetry_group_IT_number 88
_space_group.IT_coordinate_system_code '2'
_symmetry_cell_setting 'tetragonal'
loop_
_space_group_symop_operation_xyz
x,y,z
3/4-y,1/4+x,1/4+z
-x,1/2-y,z
1/4+y,1/4-x,1/4+z
-x,-y,-z
1/4+y,3/4-x,3/4-z
x,1/2+y,-z
3/4-y,3/4+x,3/4-z
1/2+x,1/2+y,1/2+z
1/4-y,3/4+x,3/4+z
1/2-x,-y,1/2+z
3/4+y,3/4-x,3/4+z
1/2-x,1/2-y,1/2-z
3/4+y,1/4-x,1/4-z
1/2+x,y,1/2-z
1/4-y,1/4+x,1/4-z
loop_
_atom_site_type_symbol
_atom_site_label
_atom_site_fract_x
_atom_site_fract_y
_atom_site_fract_z
Si Si1 0.058402 0.388951 0.046913
Si Si2 0.019119 0.164143 0.344169
Si Si3 0.252334 0.564628 0.780573
Si Si4 0.893664 0.860986 0.974635
Si Si5 0.924406 0.959089 0.528812
Si Si6 0.208308 0.062032 0.595429
O O1 0.105080 0.466491 0.054283
O O2 0.059171 0.353365 0.141159
O O3 0.973197 0.405239 0.018430
O O4 0.093306 0.331034 0.979529
O O5 0.941540 0.128903 0.307248
O O6 0.000000 0.250000 0.372360
O O7 0.050903 0.117242 0.423547
O O8 0.324723 0.579680 0.719795
O O9 0.284368 0.519906 0.861543
O O10 0.187390 0.516962 0.733036
O O11 0.875347 0.931901 0.446406
O O12 0.878649 0.019111 0.588736
O O13 0.000000 0.000000 0.500000
#
# Coordination Sequence:
#
# PCOD8304319 Si02
#       6
#    16  16  16  16  16  16
#     4  11  20  34  56  87 124 155 189 240 300 363
#     4  10  22  39  61  90 126 163 198 250 313 369
#     4  11  20  38  57  88 120 150 205 246 301 367
#     4  11  21  34  57  88 121 159 192 239 304 368
#     4  11  23  46  65  92 125 165 217 265 316 376
#     4  10  23  39  67  87 118 165 202 266 316 354
#
# _framework density 19.554957999999999
#
# number of rings (size 3 to 8) (size 9 to 14) (size 15 to 20)
#    0.000    1.333    5.000    1.500    0.000    0.000 
#    3.000    0.000    0.000    0.000    0.000    0.000 
#    0.000    0.000    0.000    0.000    0.000    0.000 
#
# Total GULP energy -594914.215682 kJ/mol
# GULP energy per Si atom -12394.046160 kJ/mol
# Density = 1.951045 g / cm^3
# Si number density = 19.554958 Si / 1000 Ang^3
#
#
#
# Elastic Constant Matrix: (Units=GPa)
#
#
# Indices 1 2 3 4 5 6 
#
# 1 96.8137 58.1867 44.6110 0.0000 0.0000 7.3076
# 2 58.1867 96.8137 44.6110 0.0000 0.0000 -7.3076
# 3 44.6110 44.6110 87.7638 0.0000 0.0000 0.0000
# 4 0.0000 0.0000 0.0000 35.9762 0.0000 0.0000
# 5 0.0000 0.0000 0.0000 0.0000 35.9762 0.0000
# 6 7.3076 -7.3076 0.0000 0.0000 0.0000 33.0772
#
#
#
# Elastic Compliance Matrix: (Units=1/GPa)
#
#
# Indices 1 2 3 4 5 6 
#
# 1 0.018685 -0.009565 -0.004636 0.000000 0.000000 -0.006241
# 2 -0.009565 0.018685 -0.004636 0.000000 0.000000 0.006241
# 3 -0.004636 -0.004636 0.016107 0.000000 0.000000 0.000000
# 4 0.000000 0.000000 0.000000 0.027796 0.000000 0.000000
# 5 0.000000 0.000000 0.000000 0.000000 0.027796 0.000000
# 6 -0.006241 0.006241 0.000000 0.000000 0.000000 0.032990
#
#
# Mechanical properties :
#
#
# Convention : Reuss Voigt Hill
#
# Bulk Modulus (GPa) = 63.27518 64.02319 63.64919
# Shear Modulus (GPa) = 27.02693 29.93809 28.48251
#
# Velocity S-wave (km/s) = 3.72169 3.91701 3.82060
# Velocity P-wave (km/s) = 7.13413 7.29853 7.21680
#
# Compressibility (1/GPa) = 0.01580398
#
# Stress axis : x y z
#
# Youngs Moduli (GPa) = 53.51867 53.51867 62.08459
#
# Poissons Ratio (x) = 0.51191 0.28781
# Poissons Ratio (y) = 0.51191 0.28781
# Poissons Ratio (z) = 0.24810 0.24810
#
# Static dielectric constant tensor:
#      x y z
#    x 3.494520 0.000000 0.000000 
#    y 0.000000 3.494520 0.000000 
#    z 0.000000 0.000000 3.493020 
# 
# 
# High freq. dielectric constant tensor:
#      x y z
#    x 1.759920 0.000000 0.000000 
#    y 0.000000 1.759920 0.000000 
#    z 0.000000 0.000000 1.755520 
# 
# From -- ./inp_files/3923.got.cif
#   From: 2010.03.12/outbox.cif.g09.slc.cpg/sg88_2_cif.got.tgz:3923.got - 2010.04.08 20:20:55.
