data_PCOD8304754
_publ_section_title
;
Structure prediction by ZEFSAII (Michael W. Deem and Ramdas Pophale) SiO2 
 PCOD8304754
Probable space group: P 41 2 2
;
_chemical_formula_sum "Si O2"
_cell_formula_units_Z 40
_cell_length_a 9.301345
_cell_length_b 9.301345
_cell_length_c 23.249509
_cell_angle_alpha 90.000000
_cell_angle_beta 90.000000
_cell_angle_gamma 90.000000
_cell_volume 2011.431708
_symmetry_space_group_name_H-M "P 41 2 2"
_symmetry_group_IT_number 91
_symmetry_cell_setting 'tetragonal'
loop_
_space_group_symop_operation_xyz
x,y,z
-y,x,1/4+z
-x,-y,1/2+z
y,-x,3/4+z
x,-y,1/2-z
-x,y,-z
y,x,3/4-z
-y,-x,1/4-z
loop_
_atom_site_type_symbol
_atom_site_label
_atom_site_fract_x
_atom_site_fract_y
_atom_site_fract_z
Si Si1 0.601985 0.141520 0.279967
Si Si2 0.177764 0.255233 0.556753
Si Si3 0.563831 0.251995 0.161936
Si Si4 0.997252 0.762400 0.379284
Si Si5 0.849460 0.693586 0.926827
O O1 0.629406 0.254444 0.227739
O O2 0.478282 0.185320 0.325507
O O3 0.530027 0.000000 0.250000
O O4 0.749840 0.094958 0.312037
O O5 0.255747 0.392081 0.585887
O O6 0.203744 0.251951 0.488827
O O7 0.014938 0.262202 0.579094
O O8 0.250424 0.107063 0.576819
O O9 0.609085 0.390916 0.125000
O O10 0.628182 0.112702 0.128539
O O11 0.913221 0.913221 0.375000
O O12 0.763424 0.763424 0.875000
#
# Coordination Sequence:
#
# PCOD8304754 Si02
#       5
#     8   8   8   8   8
#     4   9  16  37  60  76 114 161 191 231 298 356
#     4  10  19  37  57  85 120 150 192 245 295 349
#     4   9  18  37  62  81 111 159 193 228 291 356
#     4  10  19  34  59  86 111 148 200 243 286 351
#     4  10  18  35  58  81 113 160 188 230 307 354
#
# _framework density 19.886330999999998
#
# number of rings (size 3 to 8) (size 9 to 14) (size 15 to 20)
#    0.000    2.400    6.000    0.600    0.000    0.000 
#   32.400    3.000    0.000    4.800    0.000    0.000 
#    0.000    0.000    0.000    0.000    0.000    0.000 
#
# Total GULP energy -495542.445854 kJ/mol
# GULP energy per Si atom -12388.561146 kJ/mol
# Density = 1.984107 g / cm^3
# Si number density = 19.886331 Si / 1000 Ang^3
#
#
#
# Elastic Constant Matrix: (Units=GPa)
#
#
# Indices 1 2 3 4 5 6 
#
# 1 77.6493 43.1634 65.3034 0.0000 0.0000 0.0000
# 2 43.1634 77.6489 65.3033 0.0000 0.0000 0.0000
# 3 65.3034 65.3033 122.3357 0.0000 0.0000 0.0000
# 4 0.0000 0.0000 0.0000 35.9013 0.0000 0.0000
# 5 0.0000 0.0000 0.0000 0.0000 35.9016 0.0000
# 6 0.0000 0.0000 0.0000 0.0000 0.0000 18.4231
#
#
#
# Elastic Compliance Matrix: (Units=1/GPa)
#
#
# Indices 1 2 3 4 5 6 
#
# 1 0.024285 -0.004713 -0.010447 0.000000 0.000000 0.000000
# 2 -0.004713 0.024285 -0.010448 0.000000 0.000000 0.000000
# 3 -0.010447 -0.010448 0.019328 0.000000 0.000000 0.000000
# 4 0.000000 0.000000 0.000000 0.027854 0.000000 0.000000
# 5 0.000000 0.000000 0.000000 0.000000 0.027854 0.000000
# 6 0.000000 0.000000 0.000000 0.000000 0.000000 0.054280
#
#
# Mechanical properties :
#
#
# Convention : Reuss Voigt Hill
#
# Bulk Modulus (GPa) = 59.94624 69.46380 64.70502
# Shear Modulus (GPa) = 21.30729 24.96945 23.13837
#
# Velocity S-wave (km/s) = 3.27686 3.54730 3.41476
# Velocity P-wave (km/s) = 6.67285 7.19611 6.93942
#
# Compressibility (1/GPa) = 0.01668161
#
# Stress axis : x y z
#
# Youngs Moduli (GPa) = 41.17837 41.17810 51.73817
#
# Poissons Ratio (x) = 0.19407 0.54053
# Poissons Ratio (y) = 0.19407 0.54054
# Poissons Ratio (z) = 0.43021 0.43021
#
# Static dielectric constant tensor:
#      x y z
#    x 3.444590 0.000000 0.000000 
#    y 0.000000 3.444590 0.000000 
#    z 0.000000 0.000000 3.720480 
# 
# 
# High freq. dielectric constant tensor:
#      x y z
#    x 1.755340 0.000000 0.000000 
#    y 0.000000 1.755340 0.000000 
#    z 0.000000 0.000000 1.772520 
# 
# From -- ./inp_files/12717.got.cif
#   From: 2010.03.12/outbox.cif.g09.slc.cpg/sg91_7_cif.got.tgz:12717.got - 2010.04.08 20:27:58.
