data_PCOD8304290
_publ_section_title
;
Structure prediction by ZEFSAII (Michael W. Deem and Ramdas Pophale) SiO2 
 PCOD8304290
Probable space group: I 41/A
;
_chemical_formula_sum "Si O2"
_cell_formula_units_Z 52
_cell_length_a 17.391796
_cell_length_b 17.391796
_cell_length_c 7.569868
_cell_angle_alpha 90.000000
_cell_angle_beta 90.000000
_cell_angle_gamma 90.000000
_cell_volume 2289.692554
_symmetry_space_group_name_H-M "I 41/A"
_symmetry_group_IT_number 88
_space_group.IT_coordinate_system_code '2'
_symmetry_cell_setting 'tetragonal'
loop_
_space_group_symop_operation_xyz
x,y,z
3/4-y,1/4+x,1/4+z
-x,1/2-y,z
1/4+y,1/4-x,1/4+z
-x,-y,-z
1/4+y,3/4-x,3/4-z
x,1/2+y,-z
3/4-y,3/4+x,3/4-z
1/2+x,1/2+y,1/2+z
1/4-y,3/4+x,3/4+z
1/2-x,-y,1/2+z
3/4+y,3/4-x,3/4+z
1/2-x,1/2-y,1/2-z
3/4+y,1/4-x,1/4-z
1/2+x,y,1/2-z
1/4-y,1/4+x,1/4-z
loop_
_atom_site_type_symbol
_atom_site_label
_atom_site_fract_x
_atom_site_fract_y
_atom_site_fract_z
Si Si1 0.459200 0.466545 0.329856
Si Si2 0.000000 0.750000 0.875000
Si Si3 0.342888 0.547837 0.102204
Si Si4 0.402039 0.134067 0.210687
O O1 0.500000 0.500000 0.500000
O O2 0.421462 0.531755 0.208297
O O3 0.527628 0.425010 0.224033
O O4 0.385129 0.413025 0.384444
O O5 0.934769 0.720493 0.738960
O O6 0.274035 0.570134 0.230512
O O7 0.360356 0.621288 0.976760
#
# Coordination Sequence:
#
# PCOD8304290 Si02
#       4
#    16   4  16  16
#     4  11  22  41  63  88 123 160 200 252 303 359
#     4   8  20  40  64  86 124 162 204 256 304 354
#     4  12  24  40  62  92 124 161 203 249 301 362
#     4  10  21  39  62  90 120 161 204 248 303 357
#
# _framework density 22.710471999999999
#
# number of rings (size 3 to 8) (size 9 to 14) (size 15 to 20)
#    0.000    1.231    0.000    6.462    0.000    0.000 
#    0.000    3.077    0.000    0.000    0.000    0.000 
#    0.000    0.000    0.000    0.000    0.000    0.000 
#
# Total GULP energy -322115.758810 kJ/mol
# GULP energy per Si atom -12389.067647 kJ/mol
# Density = 2.265878 g / cm^3
# Si number density = 22.710472 Si / 1000 Ang^3
#
#
#
# Elastic Constant Matrix: (Units=GPa)
#
#
# Indices 1 2 3 4 5 6 
#
# 1 76.8292 28.6307 45.7034 0.0000 0.0000 3.0247
# 2 28.6307 76.8292 45.7034 0.0000 0.0000 -3.0247
# 3 45.7034 45.7034 116.8954 0.0000 0.0000 0.0000
# 4 0.0000 0.0000 0.0000 53.8461 0.0000 0.0000
# 5 0.0000 0.0000 0.0000 0.0000 53.8461 0.0000
# 6 3.0247 -3.0247 0.0000 0.0000 0.0000 23.9801
#
#
#
# Elastic Compliance Matrix: (Units=1/GPa)
#
#
# Indices 1 2 3 4 5 6 
#
# 1 0.017712 -0.003369 -0.005608 0.000000 0.000000 -0.002659
# 2 -0.003369 0.017712 -0.005608 0.000000 0.000000 0.002659
# 3 -0.005608 -0.005608 0.012940 0.000000 0.000000 0.000000
# 4 0.000000 0.000000 0.000000 0.018571 0.000000 0.000000
# 5 0.000000 0.000000 0.000000 0.000000 0.018571 0.000000
# 6 -0.002659 0.002659 0.000000 0.000000 0.000000 0.042372
#
#
# Mechanical properties :
#
#
# Convention : Reuss Voigt Hill
#
# Bulk Modulus (GPa) = 52.09874 56.73653 54.41764
# Shear Modulus (GPa) = 30.59120 36.36890 33.48005
#
# Velocity S-wave (km/s) = 3.67414 4.00611 3.84371
# Velocity P-wave (km/s) = 6.40229 6.81435 6.61153
#
# Compressibility (1/GPa) = 0.01919432
#
# Stress axis : x y z
#
# Youngs Moduli (GPa) = 56.45901 56.45901 77.28222
#
# Poissons Ratio (x) = 0.19023 0.43337
# Poissons Ratio (y) = 0.19023 0.43337
# Poissons Ratio (z) = 0.31660 0.31660
#
# Static dielectric constant tensor:
#      x y z
#    x 4.280250 0.000000 0.000000 
#    y 0.000000 4.280250 0.000000 
#    z 0.000000 0.000000 4.045750 
# 
# 
# High freq. dielectric constant tensor:
#      x y z
#    x 1.903660 0.000000 0.000000 
#    y 0.000000 1.903660 0.000000 
#    z 0.000000 0.000000 1.886480 
# 
# From -- ./inp_files/386.got.cif
#   From: 2010.03.12/outbox.cif.g09.slc.cpg/sg88_1_cif.got.tgz:386.got - 2010.04.08 20:20:55.
