data_PCOD8304267
_publ_section_title
;
Structure prediction by ZEFSAII (Michael W. Deem and Ramdas Pophale) SiO2 
 PCOD8304267
Probable space group: I 41/A
;
_chemical_formula_sum "Si O2"
_cell_formula_units_Z 104
_cell_length_a 18.324590
_cell_length_b 18.324590
_cell_length_c 16.893820
_cell_angle_alpha 90.000000
_cell_angle_beta 90.000000
_cell_angle_gamma 90.000000
_cell_volume 5672.785932
_symmetry_space_group_name_H-M "I 41/A"
_symmetry_group_IT_number 88
_space_group.IT_coordinate_system_code '2'
_symmetry_cell_setting 'tetragonal'
loop_
_space_group_symop_operation_xyz
x,y,z
3/4-y,1/4+x,1/4+z
-x,1/2-y,z
1/4+y,1/4-x,1/4+z
-x,-y,-z
1/4+y,3/4-x,3/4-z
x,1/2+y,-z
3/4-y,3/4+x,3/4-z
1/2+x,1/2+y,1/2+z
1/4-y,3/4+x,3/4+z
1/2-x,-y,1/2+z
3/4+y,3/4-x,3/4+z
1/2-x,1/2-y,1/2-z
3/4+y,1/4-x,1/4-z
1/2+x,y,1/2-z
1/4-y,1/4+x,1/4-z
loop_
_atom_site_type_symbol
_atom_site_label
_atom_site_fract_x
_atom_site_fract_y
_atom_site_fract_z
Si Si1 0.729216 0.303276 0.352810
Si Si2 0.249239 0.055984 0.765057
Si Si3 0.785980 0.878236 0.072170
Si Si4 0.976371 0.909145 0.737731
Si Si5 0.835764 0.436171 0.351540
Si Si6 0.500000 0.250000 0.212797
Si Si7 0.846800 0.200557 0.307786
O O1 0.689815 0.312163 0.435433
O O2 0.774318 0.375911 0.336580
O O3 0.784387 0.235933 0.361032
O O4 0.669419 0.285199 0.285345
O O5 0.237494 0.114951 0.835510
O O6 0.286051 0.095489 0.690900
O O7 0.173915 0.016501 0.736940
O O8 0.310428 0.000404 0.794538
O O9 0.791903 0.794568 0.042311
O O10 0.865695 0.912220 0.072086
O O11 0.915895 0.907139 0.669436
O O12 0.997079 0.825871 0.761506
O O13 0.575832 0.262869 0.164444
#
# Coordination Sequence:
#
# PCOD8304267 Si02
#       7
#    16  16  16  16  16   8  16
#     4  11  21  35  54  81 113 153 188 231 284 341
#     4  10  21  37  61  82 111 145 197 238 289 338
#     4  10  21  37  56  85 110 148 187 243 283 340
#     4  11  23  37  57  82 118 151 191 235 286 344
#     4  11  20  37  58  83 110 149 191 243 281 339
#     4  10  22  37  50  82 116 153 184 220 280 345
#     4  10  21  35  55  80 117 151 187 231 284 341
#
# _framework density 18.333144000000001
#
# number of rings (size 3 to 8) (size 9 to 14) (size 15 to 20)
#    0.000    1.538    4.615    0.923    0.000    3.692 
#    0.000    0.000    0.000    0.000    0.000    0.000 
#    0.000    0.000    0.000    0.000    0.000    0.000 
#
# Total GULP energy -644313.711037 kJ/mol
# GULP energy per Si atom -12390.648289 kJ/mol
# Density = 1.829142 g / cm^3
# Si number density = 18.333144 Si / 1000 Ang^3
#
#
#
# Elastic Constant Matrix: (Units=GPa)
#
#
# Indices 1 2 3 4 5 6 
#
# 1 72.1885 19.1959 24.3446 0.0000 0.0000 4.3542
# 2 19.1959 72.1885 24.3446 0.0000 0.0000 -4.3542
# 3 24.3446 24.3446 86.7601 0.0000 0.0000 0.0000
# 4 0.0000 0.0000 0.0000 18.1043 0.0000 0.0000
# 5 0.0000 0.0000 0.0000 0.0000 18.1043 0.0000
# 6 4.3542 -4.3542 0.0000 0.0000 0.0000 27.0939
#
#
#
# Elastic Compliance Matrix: (Units=1/GPa)
#
#
# Indices 1 2 3 4 5 6 
#
# 1 0.016124 -0.003258 -0.003610 0.000000 0.000000 -0.003115
# 2 -0.003258 0.016124 -0.003610 0.000000 0.000000 0.003115
# 3 -0.003610 -0.003610 0.013552 0.000000 0.000000 0.000000
# 4 0.000000 0.000000 0.000000 0.055235 0.000000 0.000000
# 5 0.000000 0.000000 0.000000 0.000000 0.055235 0.000000
# 6 -0.003115 0.003115 0.000000 0.000000 0.000000 0.037910
#
#
# Mechanical properties :
#
#
# Convention : Reuss Voigt Hill
#
# Bulk Modulus (GPa) = 40.25164 40.76750 40.50957
# Shear Modulus (GPa) = 22.37939 23.54397 22.96168
#
# Velocity S-wave (km/s) = 3.49765 3.58750 3.54286
# Velocity P-wave (km/s) = 6.18989 6.28057 6.23540
#
# Compressibility (1/GPa) = 0.02484371
#
# Stress axis : x y z
#
# Youngs Moduli (GPa) = 62.01790 62.01790 73.78943
#
# Poissons Ratio (x) = 0.20206 0.26640
# Poissons Ratio (y) = 0.20206 0.26640
# Poissons Ratio (z) = 0.22390 0.22390
#
# Static dielectric constant tensor:
#      x y z
#    x 3.406480 0.000000 0.000000 
#    y 0.000000 3.406480 0.000000 
#    z 0.000000 0.000000 3.228930 
# 
# 
# High freq. dielectric constant tensor:
#      x y z
#    x 1.714650 0.000000 0.000000 
#    y 0.000000 1.714650 0.000000 
#    z 0.000000 0.000000 1.691750 
# 
# From -- ./inp_files/3965.got.cif
#   From: 2010.03.12/outbox.cif.g09.slc.cpg/sg88_2_cif.got.tgz:3965.got - 2010.04.08 20:20:55.
