data_PCOD8304051
_publ_section_title
;
Structure prediction by ZEFSAII (Michael W. Deem and Ramdas Pophale) SiO2 
 PCOD8304051
Probable space group: I 4/M
;
_chemical_formula_sum "Si O2"
_cell_formula_units_Z 120
_cell_length_a 26.379505
_cell_length_b 26.379505
_cell_length_c 8.356189
_cell_angle_alpha 90.000000
_cell_angle_beta 90.000000
_cell_angle_gamma 90.000000
_cell_volume 5814.890462
_symmetry_space_group_name_H-M "I 4/M"
_symmetry_group_IT_number 87
_symmetry_cell_setting 'tetragonal'
loop_
_space_group_symop_operation_xyz
x,y,z
-y,x,z
-x,-y,z
y,-x,z
-x,-y,-z
y,-x,-z
x,y,-z
-y,x,-z
1/2+x,1/2+y,1/2+z
1/2-y,1/2+x,1/2+z
1/2-x,1/2-y,1/2+z
1/2+y,1/2-x,1/2+z
1/2-x,1/2-y,1/2-z
1/2+y,1/2-x,1/2-z
1/2+x,1/2+y,1/2-z
1/2-y,1/2+x,1/2-z
loop_
_atom_site_type_symbol
_atom_site_label
_atom_site_fract_x
_atom_site_fract_y
_atom_site_fract_z
Si Si1 0.253493 0.395965 0.185078
Si Si2 0.217772 0.995516 0.816396
Si Si3 0.770912 0.395370 0.691317
Si Si4 0.436399 0.552237 0.000000
Si Si5 0.880073 0.065757 0.824182
Si Si6 0.434894 0.039612 0.815408
Si Si7 0.379613 0.858517 0.190530
Si Si8 0.831589 0.819779 0.176001
O O1 0.274924 0.450033 0.237883
O O2 0.198469 0.383771 0.259881
O O3 0.290955 0.349267 0.217913
O O4 0.245021 0.399724 0.000000
O O5 0.253518 0.950781 0.742084
O O6 0.159239 0.979976 0.792892
O O7 0.232134 0.002205 0.000000
O O8 0.766080 0.396061 0.500000
O O9 0.827272 0.383526 0.752084
O O10 0.733980 0.349603 0.753064
O O11 0.429001 0.492977 0.000000
O O12 0.414980 0.572560 0.831554
O O13 0.851771 0.117997 0.842589
O O14 0.907427 0.056009 0.000000
O O15 0.487669 0.068377 0.784233
O O16 0.388245 0.073862 0.765315
O O17 0.430471 0.025044 0.000000
O O18 0.382061 0.861350 0.000000
O O19 0.807295 0.811811 0.000000
#
# Coordination Sequence:
#
# PCOD8304051 Si02
#       8
#    16  16  16   8  16  16  16  16
#     4  11  24  35  54  91 127 153 192 249 302 352
#     4   9  19  37  60  86 110 150 207 249 297 359
#     4   8  17  38  63  81 111 158 200 242 297 356
#     4  11  26  40  56  86 122 162 202 250 309 377
#     4   9  21  39  62  88 115 156 205 255 312 367
#     4  11  23  41  65  91 120 160 204 247 298 357
#     4  10  22  40  59  89 127 161 196 244 298 352
#     4   9  19  38  61  85 111 152 206 249 296 362
#
# _framework density 20.636673999999999
#
# number of rings (size 3 to 8) (size 9 to 14) (size 15 to 20)
#    0.000    2.333    0.000    3.600    5.600    2.133 
#    0.000    1.333    0.000    0.000    0.000    0.000 
#    0.000    0.000    0.000    0.000    0.000    0.000 
#
# Total GULP energy -743573.488283 kJ/mol
# GULP energy per Si atom -12392.891471 kJ/mol
# Density = 2.058970 g / cm^3
# Si number density = 20.636674 Si / 1000 Ang^3
#
#
#
# Elastic Constant Matrix: (Units=GPa)
#
#
# Indices 1 2 3 4 5 6 
#
# 1 53.8493 5.3063 6.7591 0.0000 0.0000 -5.7785
# 2 5.3063 53.8493 6.7591 0.0000 0.0000 5.7785
# 3 6.7591 6.7591 59.2848 0.0000 0.0000 0.0000
# 4 0.0000 0.0000 0.0000 40.7137 0.0000 0.0000
# 5 0.0000 0.0000 0.0000 0.0000 40.7137 0.0000
# 6 -5.7785 5.7785 0.0000 0.0000 0.0000 31.6662
#
#
#
# Elastic Compliance Matrix: (Units=1/GPa)
#
#
# Indices 1 2 3 4 5 6 
#
# 1 0.019446 -0.002090 -0.001979 0.000000 0.000000 0.003930
# 2 -0.002090 0.019446 -0.001979 0.000000 0.000000 -0.003930
# 3 -0.001979 -0.001979 0.017319 0.000000 0.000000 0.000000
# 4 0.000000 0.000000 0.000000 0.024562 0.000000 0.000000
# 5 0.000000 0.000000 0.000000 0.000000 0.024562 0.000000
# 6 0.003930 -0.003930 0.000000 0.000000 0.000000 0.033014
#
#
# Mechanical properties :
#
#
# Convention : Reuss Voigt Hill
#
# Bulk Modulus (GPa) = 22.66695 22.73692 22.70194
# Shear Modulus (GPa) = 30.27567 32.49598 31.38583
#
# Velocity S-wave (km/s) = 3.83440 3.97252 3.90407
# Velocity P-wave (km/s) = 5.53274 5.66417 5.59884
#
# Compressibility (1/GPa) = 0.04411709
#
# Stress axis : x y z
#
# Youngs Moduli (GPa) = 51.42355 51.42355 57.74022
#
# Poissons Ratio (x) = 0.10745 0.11426
# Poissons Ratio (y) = 0.10745 0.11426
# Poissons Ratio (z) = 0.10176 0.10176
#
# Static dielectric constant tensor:
#      x y z
#    x 3.899250 0.000000 0.000000 
#    y 0.000000 3.899250 0.000000 
#    z 0.000000 0.000000 2.022370 
# 
# 
# High freq. dielectric constant tensor:
#      x y z
#    x 1.807480 0.000000 0.000000 
#    y 0.000000 1.807480 0.000000 
#    z 0.000000 0.000000 1.792650 
# 
# From -- ./inp_files/1702.got.cif
#   From: 2010.03.12/outbox.cif.g09.slc.cpg/sg87_1_cif.got.tgz:1702.got - 2010.04.08 20:16:13.
