data_PCOD8304530
_publ_section_title
;
Structure prediction by ZEFSAII (Michael W. Deem and Ramdas Pophale) SiO2 
 PCOD8304530
Probable space group: P 4 21 2
;
_chemical_formula_sum "Si O2"
_cell_formula_units_Z 36
_cell_length_a 14.521830
_cell_length_b 14.521830
_cell_length_c 10.284825
_cell_angle_alpha 90.000000
_cell_angle_beta 90.000000
_cell_angle_gamma 90.000000
_cell_volume 2168.900372
_symmetry_space_group_name_H-M "P 4 21 2"
_symmetry_group_IT_number 90
_symmetry_cell_setting 'tetragonal'
loop_
_space_group_symop_operation_xyz
x,y,z
1/2-y,1/2+x,z
-x,-y,z
1/2+y,1/2-x,z
1/2+x,1/2-y,-z
1/2-x,1/2+y,-z
y,x,-z
-y,-x,-z
loop_
_atom_site_type_symbol
_atom_site_label
_atom_site_fract_x
_atom_site_fract_y
_atom_site_fract_z
Si Si1 0.474476 0.147308 0.518239
Si Si2 0.837628 0.089343 0.133335
Si Si3 0.970541 0.353220 0.782533
Si Si4 0.500000 0.500000 0.747568
Si Si5 0.834900 0.081396 0.626774
O O1 0.573771 0.104772 0.549796
O O2 0.467695 0.176646 0.367967
O O3 0.462759 0.234873 0.610841
O O4 0.735026 0.048524 0.127738
O O5 0.848469 0.164157 0.250175
O O6 0.908810 0.004581 0.161164
O O7 0.859749 0.140252 0.000000
O O8 0.893407 0.429115 0.814824
O O9 0.500907 0.408722 0.655737
O O10 0.861459 0.138542 0.500000
#
# Coordination Sequence:
#
# PCOD8304530 Si02
#       5
#     8   8   8   4   8
#     4   9  17  33  55  82 116 146 180 227 278 329
#     4  10  20  36  55  78 112 144 182 228 275 327
#     4   9  18  35  58  80 110 148 185 223 270 339
#     4   8  20  32  52  74 114 140 170 228 278 316
#     4  10  18  33  52  81 110 138 184 229 275 324
#
# _framework density 16.598272999999999
#
# number of rings (size 3 to 8) (size 9 to 14) (size 15 to 20)
#    1.333    1.333    2.222    2.000    0.000    0.000 
#    4.000    6.667    0.000    2.667    0.000    0.000 
#    0.000    0.000    0.000    0.000    0.000    0.000 
#
# Total GULP energy -446071.451659 kJ/mol
# GULP energy per Si atom -12390.873657 kJ/mol
# Density = 1.656049 g / cm^3
# Si number density = 16.598273 Si / 1000 Ang^3
#
#
#
# Elastic Constant Matrix: (Units=GPa)
#
#
# Indices 1 2 3 4 5 6 
#
# 1 119.1448 58.0236 44.6517 0.0000 0.0000 0.0000
# 2 58.0236 119.1447 44.6513 0.0000 0.0000 0.0000
# 3 44.6517 44.6513 95.9332 0.0000 0.0000 0.0000
# 4 0.0000 0.0000 0.0000 20.6957 0.0000 0.0000
# 5 0.0000 0.0000 0.0000 0.0000 20.6954 0.0000
# 6 0.0000 0.0000 0.0000 0.0000 0.0000 18.1151
#
#
#
# Elastic Compliance Matrix: (Units=1/GPa)
#
#
# Indices 1 2 3 4 5 6 
#
# 1 0.011868 -0.004493 -0.003432 0.000000 0.000000 0.000000
# 2 -0.004493 0.011868 -0.003432 0.000000 0.000000 0.000000
# 3 -0.003432 -0.003432 0.013619 0.000000 0.000000 0.000000
# 4 0.000000 0.000000 0.000000 0.048319 0.000000 0.000000
# 5 0.000000 0.000000 0.000000 0.000000 0.048320 0.000000
# 6 0.000000 0.000000 0.000000 0.000000 0.000000 0.055202
#
#
# Mechanical properties :
#
#
# Convention : Reuss Voigt Hill
#
# Bulk Modulus (GPa) = 68.31330 69.87511 69.09421
# Shear Modulus (GPa) = 23.06362 24.36099 23.71231
#
# Velocity S-wave (km/s) = 3.73167 3.83519 3.78378
# Velocity P-wave (km/s) = 7.73391 7.86135 7.79789
#
# Compressibility (1/GPa) = 0.01463844
#
# Stress axis : x y z
#
# Youngs Moduli (GPa) = 84.26215 84.26237 73.42626
#
# Poissons Ratio (x) = 0.37861 0.25203
# Poissons Ratio (y) = 0.37861 0.25203
# Poissons Ratio (z) = 0.28923 0.28922
#
# Static dielectric constant tensor:
#      x y z
#    x 2.963700 0.000000 0.000000 
#    y 0.000000 2.963710 0.000000 
#    z 0.000000 0.000000 2.908090 
# 
# 
# High freq. dielectric constant tensor:
#      x y z
#    x 1.628530 0.000000 0.000000 
#    y 0.000000 1.628530 0.000000 
#    z 0.000000 0.000000 1.622910 
# 
# From -- ./inp_files/1172.got.cif
#   From: 2010.03.12/outbox.cif.g09.slc.cpg/sg90_1_cif.got.tgz:1172.got - 2010.04.08 20:26:03.
