data_PCOD8304653
_publ_section_title
;
Structure prediction by ZEFSAII (Michael W. Deem and Ramdas Pophale) SiO2 
 PCOD8304653
Probable space group: P 4 21 2
;
_chemical_formula_sum "Si O2"
_cell_formula_units_Z 48
_cell_length_a 8.595584
_cell_length_b 8.595584
_cell_length_c 30.563559
_cell_angle_alpha 90.000000
_cell_angle_beta 90.000000
_cell_angle_gamma 90.000000
_cell_volume 2258.159958
_symmetry_space_group_name_H-M "P 4 21 2"
_symmetry_group_IT_number 90
_symmetry_cell_setting 'tetragonal'
loop_
_space_group_symop_operation_xyz
x,y,z
1/2-y,1/2+x,z
-x,-y,z
1/2+y,1/2-x,z
1/2+x,1/2-y,-z
1/2-x,1/2+y,-z
y,x,-z
-y,-x,-z
loop_
_atom_site_type_symbol
_atom_site_label
_atom_site_fract_x
_atom_site_fract_y
_atom_site_fract_z
Si Si1 0.391064 0.230841 0.800793
Si Si2 0.737210 0.090823 0.701738
Si Si3 0.241332 0.419149 0.632487
Si Si4 0.742548 0.079821 0.465809
Si Si5 0.383506 0.230824 0.959001
Si Si6 0.731614 0.112601 0.122037
O O1 0.572346 0.202530 0.810098
O O2 0.375369 0.292644 0.751207
O O3 0.318176 0.361266 0.831883
O O4 0.587418 0.196876 0.693268
O O5 0.874569 0.129370 0.667986
O O6 0.193336 0.595573 0.639951
O O7 0.307367 0.396816 0.583393
O O8 0.596589 0.192644 0.473641
O O9 0.877684 0.122317 0.500000
O O10 0.567715 0.206184 0.960180
O O11 0.344960 0.327144 0.915655
O O12 0.334386 0.334386 0.000000
O O13 0.570464 0.205020 0.117966
#
# Coordination Sequence:
#
# PCOD8304653 Si02
#       6
#     8   8   8   8   8   8
#     4   9  19  37  58  79 106 141 180 221 266 316
#     4   9  19  35  54  78 107 137 173 218 264 312
#     4   9  19  35  52  72 102 137 171 210 258 312
#     4   9  19  35  52  72 100 133 169 211 259 310
#     4  11  24  41  62  88 116 147 185 227 270 318
#     4  11  24  39  56  83 116 147 183 225 268 318
#
# _framework density 21.256243000000001
#
# number of rings (size 3 to 8) (size 9 to 14) (size 15 to 20)
#    0.000    2.333    0.000    4.000    0.000   10.667 
#    0.000   10.000    0.000    0.000    0.000    0.000 
#    0.000    0.000    0.000    0.000    0.000    0.000 
#
# Total GULP energy -595284.560148 kJ/mol
# GULP energy per Si atom -12401.761670 kJ/mol
# Density = 2.120786 g / cm^3
# Si number density = 21.256243 Si / 1000 Ang^3
#
#
#
# Elastic Constant Matrix: (Units=GPa)
#
#
# Indices 1 2 3 4 5 6 
#
# 1 16.9677 -4.0673 13.4617 0.0000 0.0000 0.0000
# 2 -4.0673 16.9690 13.4630 0.0000 0.0000 0.0000
# 3 13.4617 13.4630 109.1854 0.0000 0.0000 0.0000
# 4 0.0000 0.0000 0.0000 -0.2186 0.0000 0.0000
# 5 0.0000 0.0000 0.0000 0.0000 -0.2188 0.0000
# 6 0.0000 0.0000 0.0000 0.0000 0.0000 41.4150
#
#
#
# Elastic Compliance Matrix: (Units=1/GPa)
#
#
# Indices 1 2 3 4 5 6 
#
# 1 0.075957 0.028416 -0.012869 0.000000 0.000000 0.000000
# 2 0.028416 0.075952 -0.012869 0.000000 0.000000 0.000000
# 3 -0.012869 -0.012869 0.012332 0.000000 0.000000 0.000000
# 4 0.000000 0.000000 0.000000 -4.574662 0.000000 0.000000
# 5 0.000000 0.000000 0.000000 0.000000 -4.570248 0.000000
# 6 0.000000 0.000000 0.000000 0.000000 0.000000 0.024146
#
#
# Mechanical properties :
#
#
# Convention : Reuss Voigt Hill
#
# Bulk Modulus (GPa) = 5.89627 20.98186 13.43907
# Shear Modulus (GPa) = -0.56146 16.21316 7.82585
#
# Velocity S-wave (km/s) = -0.51450 2.76479 1.92085
# Velocity P-wave (km/s) = 1.55787 4.48156 3.35495
#
# Compressibility (1/GPa) = 0.16959877
#
# Stress axis : x y z
#
# Youngs Moduli (GPa) = 13.16533 13.16620 81.08917
#
# Poissons Ratio (x) = -0.37413 1.04352
# Poissons Ratio (y) = -0.37411 1.04351
# Poissons Ratio (z) = 0.16942 0.16943
#
# Static dielectric constant tensor:
#      x y z
#    x 3.688710 0.000000 0.000000 
#    y 0.000000 3.688700 0.000000 
#    z 0.000000 0.000000 3.956100 
# 
# 
# High freq. dielectric constant tensor:
#      x y z
#    x 1.830020 0.000000 0.000000 
#    y 0.000000 1.830020 0.000000 
#    z 0.000000 0.000000 1.841160 
# 
# From -- ./inp_files/3031.got.cif
#   From: 2010.03.12/outbox.cif.g09.slc.cpg/sg90_2_cif.got.tgz:3031.got - 2010.04.08 20:26:03.
