data_PCOD8304269
_publ_section_title
;
Structure prediction by ZEFSAII (Michael W. Deem and Ramdas Pophale) SiO2 
 PCOD8304269
Probable space group: I 41/A
;
_chemical_formula_sum "Si O2"
_cell_formula_units_Z 84
_cell_length_a 19.553483
_cell_length_b 19.553483
_cell_length_c 11.636684
_cell_angle_alpha 90.000000
_cell_angle_beta 90.000000
_cell_angle_gamma 90.000000
_cell_volume 4449.154603
_symmetry_space_group_name_H-M "I 41/A"
_symmetry_group_IT_number 88
_space_group.IT_coordinate_system_code '2'
_symmetry_cell_setting 'tetragonal'
loop_
_space_group_symop_operation_xyz
x,y,z
3/4-y,1/4+x,1/4+z
-x,1/2-y,z
1/4+y,1/4-x,1/4+z
-x,-y,-z
1/4+y,3/4-x,3/4-z
x,1/2+y,-z
3/4-y,3/4+x,3/4-z
1/2+x,1/2+y,1/2+z
1/4-y,3/4+x,3/4+z
1/2-x,-y,1/2+z
3/4+y,3/4-x,3/4+z
1/2-x,1/2-y,1/2-z
3/4+y,1/4-x,1/4-z
1/2+x,y,1/2-z
1/4-y,1/4+x,1/4-z
loop_
_atom_site_type_symbol
_atom_site_label
_atom_site_fract_x
_atom_site_fract_y
_atom_site_fract_z
Si Si1 0.826515 0.076464 0.622165
Si Si2 0.675019 0.946823 0.371951
Si Si3 0.065690 0.966942 0.561444
Si Si4 0.500000 0.250000 0.375000
Si Si5 0.885763 0.917034 0.845342
Si Si6 0.137798 0.716915 0.967901
O O1 0.858434 0.077096 0.751175
O O2 0.888002 0.076680 0.528743
O O3 0.774431 0.140918 0.617470
O O4 0.786046 0.005277 0.601101
O O5 0.667636 0.886021 0.462024
O O6 0.639106 0.016206 0.414240
O O7 0.036691 0.912959 0.652098
O O8 0.000000 0.000000 0.500000
O O9 0.556347 0.225054 0.465450
O O10 0.846473 0.853058 0.900997
O O11 0.967961 0.918674 0.849774
#
# Coordination Sequence:
#
# PCOD8304269 Si02
#       6
#    16  16  16   4  16  16
#     4   9  20  35  58  84 116 153 188 237 298 354
#     4   9  18  35  57  79 114 147 184 237 299 344
#     4  11  22  38  59  87 120 155 195 247 301 361
#     4   8  20  44  52  80 114 160 192 240 300 346
#     4  10  21  35  56  82 110 150 190 243 293 348
#     4  10  21  36  59  80 113 149 194 240 296 345
#
# _framework density 18.879991
#
# number of rings (size 3 to 8) (size 9 to 14) (size 15 to 20)
#    0.000    2.286    0.000    3.429    8.000    0.762 
#    0.000   11.429    0.000    0.000    0.000    0.000 
#    0.000    0.000    0.000    0.000    0.000    0.000 
#
# Total GULP energy -520384.105722 kJ/mol
# GULP energy per Si atom -12390.097755 kJ/mol
# Density = 1.883702 g / cm^3
# Si number density = 18.879991 Si / 1000 Ang^3
#
#
#
# Elastic Constant Matrix: (Units=GPa)
#
#
# Indices 1 2 3 4 5 6 
#
# 1 86.2854 33.8831 27.5049 0.0000 0.0000 5.9305
# 2 33.8831 86.2854 27.5049 0.0000 0.0000 -5.9305
# 3 27.5049 27.5049 78.0276 0.0000 0.0000 0.0000
# 4 0.0000 0.0000 0.0000 33.0444 0.0000 0.0000
# 5 0.0000 0.0000 0.0000 0.0000 33.0444 0.0000
# 6 5.9305 -5.9305 0.0000 0.0000 0.0000 22.7144
#
#
#
# Elastic Compliance Matrix: (Units=1/GPa)
#
#
# Indices 1 2 3 4 5 6 
#
# 1 0.015102 -0.005179 -0.003498 0.000000 0.000000 -0.005295
# 2 -0.005179 0.015102 -0.003498 0.000000 0.000000 0.005295
# 3 -0.003498 -0.003498 0.015282 0.000000 0.000000 0.000000
# 4 0.000000 0.000000 0.000000 0.030262 0.000000 0.000000
# 5 0.000000 0.000000 0.000000 0.000000 0.030262 0.000000
# 6 -0.005295 0.005295 0.000000 0.000000 0.000000 0.046790
#
#
# Mechanical properties :
#
#
# Convention : Reuss Voigt Hill
#
# Bulk Modulus (GPa) = 47.31183 47.59825 47.45504
# Shear Modulus (GPa) = 27.14486 28.54100 27.84293
#
# Velocity S-wave (km/s) = 3.79589 3.89228 3.84439
# Velocity P-wave (km/s) = 6.65773 6.74281 6.70041
#
# Compressibility (1/GPa) = 0.02113636
#
# Stress axis : x y z
#
# Youngs Moduli (GPa) = 66.21512 66.21512 65.43662
#
# Poissons Ratio (x) = 0.34296 0.22889
# Poissons Ratio (y) = 0.34296 0.22889
# Poissons Ratio (z) = 0.23161 0.23161
#
# Static dielectric constant tensor:
#      x y z
#    x 3.512590 0.000000 0.000000 
#    y 0.000000 3.512590 0.000000 
#    z 0.000000 0.000000 3.492560 
# 
# 
# High freq. dielectric constant tensor:
#      x y z
#    x 1.728860 0.000000 0.000000 
#    y 0.000000 1.728860 0.000000 
#    z 0.000000 0.000000 1.729560 
# 
# From -- ./inp_files/2576.got.cif
#   From: 2010.03.12/outbox.cif.g09.slc.cpg/sg88_2_cif.got.tgz:2576.got - 2010.04.08 20:20:55.
