data_PCOD8304156
_publ_section_title
;
Structure prediction by ZEFSAII (Michael W. Deem and Ramdas Pophale) SiO2 
 PCOD8304156
Probable space group: I 4/M
;
_chemical_formula_sum "Si O2"
_cell_formula_units_Z 112
_cell_length_a 15.526965
_cell_length_b 15.526965
_cell_length_c 25.369425
_cell_angle_alpha 90.000000
_cell_angle_beta 90.000000
_cell_angle_gamma 90.000000
_cell_volume 6116.229486
_symmetry_space_group_name_H-M "I 4/M"
_symmetry_group_IT_number 87
_symmetry_cell_setting 'tetragonal'
loop_
_space_group_symop_operation_xyz
x,y,z
-y,x,z
-x,-y,z
y,-x,z
-x,-y,-z
y,-x,-z
x,y,-z
-y,x,-z
1/2+x,1/2+y,1/2+z
1/2-y,1/2+x,1/2+z
1/2-x,1/2-y,1/2+z
1/2+y,1/2-x,1/2+z
1/2-x,1/2-y,1/2-z
1/2+y,1/2-x,1/2-z
1/2+x,1/2+y,1/2-z
1/2-y,1/2+x,1/2-z
loop_
_atom_site_type_symbol
_atom_site_label
_atom_site_fract_x
_atom_site_fract_y
_atom_site_fract_z
Si Si1 0.592694 0.105721 0.560422
Si Si2 0.214086 0.344525 0.652965
Si Si3 0.055153 0.871697 0.188765
Si Si4 0.844518 0.285913 0.347036
Si Si5 0.371700 0.444840 0.811235
Si Si6 0.592693 0.105722 0.939578
Si Si7 0.104874 0.403646 0.250000
O O1 0.612973 0.128577 0.500000
O O2 0.648660 0.168854 0.596390
O O3 0.492141 0.118958 0.572859
O O4 0.619056 0.007866 0.572802
O O5 0.292302 0.412391 0.654230
O O6 0.250009 0.250007 0.661828
O O7 0.144817 0.362479 0.698023
O O8 0.066359 0.848048 0.250000
O O9 0.955758 0.888616 0.175084
O O10 0.912373 0.207688 0.345773
O O11 0.851339 0.331144 0.403611
O O12 0.862488 0.355177 0.301979
O O13 0.455764 0.388614 0.824916
O O14 0.613073 0.128490 0.000000
O O15 0.120656 0.505131 0.250002
#
# Coordination Sequence:
#
# PCOD8304156 Si02
#       7
#    16  16  16  16  16  16  16
#     4   9  20  41  64  83 109 149 192 236 290 343
#     4  12  24  33  59  89 117 147 187 239 284 337
#     4   9  20  37  55  76 113 163 197 222 266 333
#     4  12  24  33  59  89 117 147 187 239 284 337
#     4   9  20  37  55  76 113 163 197 222 266 333
#     4   9  20  41  64  83 109 149 192 236 290 343
#     4  11  25  40  56  83 124 158 186 233 293 340
#
# _framework density 18.311935999999999
#
# number of rings (size 3 to 8) (size 9 to 14) (size 15 to 20)
#    0.000    1.857    1.429    3.857    8.000    2.857 
#    0.000    0.000    0.000    0.000    0.000    2.000 
#    0.000    0.000    0.000    0.000    0.000    0.000 
#
# Total GULP energy -694650.546370 kJ/mol
# GULP energy per Si atom -12404.474042 kJ/mol
# Density = 1.827026 g / cm^3
# Si number density = 18.311936 Si / 1000 Ang^3
#
#
#
# Elastic Constant Matrix: (Units=GPa)
#
#
# Indices 1 2 3 4 5 6 
#
# 1 85.9651 45.2343 51.7113 0.0000 0.0000 3.8859
# 2 45.2343 85.9651 51.7113 0.0000 0.0000 -3.8859
# 3 51.7113 51.7113 97.9712 0.0000 0.0000 0.0000
# 4 0.0000 0.0000 0.0000 -1.8879 0.0000 0.0000
# 5 0.0000 0.0000 0.0000 0.0000 -1.8879 0.0000
# 6 3.8859 -3.8859 0.0000 0.0000 0.0000 30.3006
#
#
#
# Elastic Compliance Matrix: (Units=1/GPa)
#
#
# Indices 1 2 3 4 5 6 
#
# 1 0.019110 -0.006057 -0.006890 0.000000 0.000000 -0.003228
# 2 -0.006057 0.019110 -0.006890 0.000000 0.000000 0.003228
# 3 -0.006890 -0.006890 0.017480 0.000000 0.000000 0.000000
# 4 0.000000 0.000000 0.000000 -0.529690 0.000000 0.000000
# 5 0.000000 0.000000 0.000000 0.000000 -0.529690 0.000000
# 6 -0.003228 0.003228 0.000000 0.000000 0.000000 0.033830
#
#
# Mechanical properties :
#
#
# Convention : Reuss Voigt Hill
#
# Bulk Modulus (GPa) = 62.39280 63.02389 62.70835
# Shear Modulus (GPa) = -5.40638 13.38794 3.99078
#
# Velocity S-wave (km/s) = -1.72011 2.70683 1.47786
# Velocity P-wave (km/s) = 5.49555 6.65288 6.10172
#
# Compressibility (1/GPa) = 0.01602749
#
# Stress axis : x y z
#
# Youngs Moduli (GPa) = 52.32821 52.32821 57.20797
#
# Poissons Ratio (x) = 0.31696 0.39414
# Poissons Ratio (y) = 0.31696 0.39414
# Poissons Ratio (z) = 0.36052 0.36052
#
# Static dielectric constant tensor:
#      x y z
#    x 3.397950 0.000000 0.000000 
#    y 0.000000 3.397950 0.000000 
#    z 0.000000 0.000000 3.185810 
# 
# 
# High freq. dielectric constant tensor:
#      x y z
#    x 1.716280 0.000000 0.000000 
#    y 0.000000 1.716280 0.000000 
#    z 0.000000 0.000000 1.690960 
# 
# From -- ./inp_files/5863.got.cif
#   From: 2010.03.12/outbox.cif.g09.slc.cpg/sg87_3_cif.got.tgz:5863.got - 2010.04.08 20:16:13.
