data_PCOD8304451
_publ_section_title
;
Structure prediction by ZEFSAII (Michael W. Deem and Ramdas Pophale) SiO2 
 PCOD8304451
Probable space group: I 41/A
;
_chemical_formula_sum "Si O2"
_cell_formula_units_Z 52
_cell_length_a 18.514435
_cell_length_b 18.514435
_cell_length_c 6.579085
_cell_angle_alpha 90.000000
_cell_angle_beta 90.000000
_cell_angle_gamma 90.000000
_cell_volume 2255.207069
_symmetry_space_group_name_H-M "I 41/A"
_symmetry_group_IT_number 88
_space_group.IT_coordinate_system_code '2'
_symmetry_cell_setting 'tetragonal'
loop_
_space_group_symop_operation_xyz
x,y,z
3/4-y,1/4+x,1/4+z
-x,1/2-y,z
1/4+y,1/4-x,1/4+z
-x,-y,-z
1/4+y,3/4-x,3/4-z
x,1/2+y,-z
3/4-y,3/4+x,3/4-z
1/2+x,1/2+y,1/2+z
1/4-y,3/4+x,3/4+z
1/2-x,-y,1/2+z
3/4+y,3/4-x,3/4+z
1/2-x,1/2-y,1/2-z
3/4+y,1/4-x,1/4-z
1/2+x,y,1/2-z
1/4-y,1/4+x,1/4-z
loop_
_atom_site_type_symbol
_atom_site_label
_atom_site_fract_x
_atom_site_fract_y
_atom_site_fract_z
Si Si1 0.540827 0.425611 0.495304
Si Si2 0.000000 0.750000 0.375000
Si Si3 0.906617 0.156177 0.379693
Si Si4 0.184533 0.580727 0.439927
O O1 0.500000 0.500000 0.500000
O O2 0.482076 0.363499 0.528186
O O3 0.578248 0.407646 0.280541
O O4 0.599519 0.429963 0.670279
O O5 0.020272 0.823374 0.498101
O O6 0.840577 0.127602 0.520008
O O7 0.172210 0.511120 0.577205
#
# Coordination Sequence:
#
# PCOD8304451 Si02
#       4
#    16   4  16  16
#     4  12  27  46  79 109 153 202 260 319 387 467
#     4  12  24  46  76 112 158 192 256 326 388 456
#     4  12  26  48  74 114 151 201 254 319 388 461
#     4  12  30  49  76 111 155 204 258 323 395 469
#
# _framework density 23.057749999999999
#
# number of rings (size 3 to 8) (size 9 to 14) (size 15 to 20)
#    0.000    0.000    3.077    5.538   12.923    2.462 
#    0.000    0.000    0.000    0.000    0.000    0.000 
#    0.000    0.000    0.000    0.000    0.000    0.000 
#
# Total GULP energy -322441.020279 kJ/mol
# GULP energy per Si atom -12401.577703 kJ/mol
# Density = 2.300527 g / cm^3
# Si number density = 23.057750 Si / 1000 Ang^3
#
#
#
# Elastic Constant Matrix: (Units=GPa)
#
#
# Indices 1 2 3 4 5 6 
#
# 1 66.0726 93.4110 59.2883 0.0000 0.0000 6.1576
# 2 93.4110 66.0726 59.2883 0.0000 0.0000 -6.1576
# 3 59.2883 59.2883 139.7556 0.0000 0.0000 0.0000
# 4 0.0000 0.0000 0.0000 42.1473 0.0000 0.0000
# 5 0.0000 0.0000 0.0000 0.0000 42.1473 0.0000
# 6 6.1576 -6.1576 0.0000 0.0000 0.0000 46.9801
#
#
#
# Elastic Compliance Matrix: (Units=1/GPa)
#
#
# Indices 1 2 3 4 5 6 
#
# 1 -0.012690 0.021849 -0.003886 0.000000 0.000000 0.004527
# 2 0.021849 -0.012690 -0.003886 0.000000 0.000000 -0.004527
# 3 -0.003886 -0.003886 0.010452 0.000000 0.000000 0.000000
# 4 0.000000 0.000000 0.000000 0.023726 0.000000 0.000000
# 5 0.000000 0.000000 0.000000 0.000000 0.023726 0.000000
# 6 0.004527 -0.004527 0.000000 0.000000 0.000000 0.020099
#
#
# Mechanical properties :
#
#
# Convention : Reuss Voigt Hill
#
# Bulk Modulus (GPa) = 75.59652 77.31957 76.45805
# Shear Modulus (GPa) = 173.15030 30.24916 101.69973
#
# Velocity S-wave (km/s) = 8.67509 3.62593 6.64848
# Velocity P-wave (km/s) = 11.54122 7.15092 9.60040
#
# Compressibility (1/GPa) = 0.01322812
#
# Stress axis : x y z
#
# Youngs Moduli (GPa) = -78.80166 -78.80166 95.67451
#
# Poissons Ratio (x) = 1.72176 0.37175
# Poissons Ratio (y) = 1.72176 0.37175
# Poissons Ratio (z) = -0.30619 -0.30619
#
# Static dielectric constant tensor:
#      x y z
#    x 4.189120 0.000000 0.000000 
#    y 0.000000 4.189120 0.000000 
#    z 0.000000 0.000000 4.592400 
# 
# 
# High freq. dielectric constant tensor:
#      x y z
#    x 1.921000 0.000000 0.000000 
#    y 0.000000 1.921000 0.000000 
#    z 0.000000 0.000000 1.927910 
# 
# From -- ./inp_files/392.got.cif
#   From: 2010.03.12/outbox.cif.g09.slc.cpg/sg88_1_cif.got.tgz:392.got - 2010.04.08 20:20:55.
