data_PCOD8304545
_publ_section_title
;
Structure prediction by ZEFSAII (Michael W. Deem and Ramdas Pophale) SiO2 
 PCOD8304545
Probable space group: P 4 21 2
;
_chemical_formula_sum "Si O2"
_cell_formula_units_Z 40
_cell_length_a 13.968678
_cell_length_b 13.968678
_cell_length_c 9.316875
_cell_angle_alpha 90.000000
_cell_angle_beta 90.000000
_cell_angle_gamma 90.000000
_cell_volume 1817.945592
_symmetry_space_group_name_H-M "P 4 21 2"
_symmetry_group_IT_number 90
_symmetry_cell_setting 'tetragonal'
loop_
_space_group_symop_operation_xyz
x,y,z
1/2-y,1/2+x,z
-x,-y,z
1/2+y,1/2-x,z
1/2+x,1/2-y,-z
1/2-x,1/2+y,-z
y,x,-z
-y,-x,-z
loop_
_atom_site_type_symbol
_atom_site_label
_atom_site_fract_x
_atom_site_fract_y
_atom_site_fract_z
Si Si1 0.446948 0.267686 0.054286
Si Si2 0.770789 0.087057 0.566690
Si Si3 0.959598 0.105664 0.185457
Si Si4 0.086784 0.632896 0.181740
Si Si5 0.498790 0.157840 0.321817
O O1 0.387152 0.345632 0.146482
O O2 0.509299 0.206666 0.166209
O O3 0.510770 0.328791 0.937503
O O4 0.382126 0.193571 0.959610
O O5 0.817225 0.182776 0.500000
O O6 0.850326 0.027723 0.657084
O O7 0.684025 0.119229 0.670864
O O8 0.737218 0.011883 0.445389
O O9 0.000000 0.000000 0.180937
O O10 0.131325 0.528809 0.177659
O O11 0.593687 0.096103 0.339284
#
# Coordination Sequence:
#
# PCOD8304545 Si02
#       5
#     8   8   8   8   8
#     4  10  19  37  65  92 122 162 213 270 308 383
#     4  11  22  41  63  88 129 174 214 270 319 376
#     4  10  22  42  67  87 131 183 212 252 337 391
#     4  10  21  39  67  94 125 174 216 258 326 395
#     4  11  23  41  66  97 133 174 218 270 333 389
#
# _framework density 22.002858
#
# number of rings (size 3 to 8) (size 9 to 14) (size 15 to 20)
#    0.000    1.600    2.000    3.600    0.000    3.600 
#    0.000    8.000   30.800    0.000    0.000    0.000 
#    0.000    0.000    0.000    0.000    0.000    0.000 
#
# Total GULP energy -495605.632052 kJ/mol
# GULP energy per Si atom -12390.140801 kJ/mol
# Density = 2.195278 g / cm^3
# Si number density = 22.002858 Si / 1000 Ang^3
#
#
#
# Elastic Constant Matrix: (Units=GPa)
#
#
# Indices 1 2 3 4 5 6 
#
# 1 110.4861 30.1876 50.7203 0.0000 0.0000 0.0000
# 2 30.1876 110.4857 50.7197 0.0000 0.0000 0.0000
# 3 50.7203 50.7197 162.0805 0.0000 0.0000 0.0000
# 4 0.0000 0.0000 0.0000 31.4530 0.0000 0.0000
# 5 0.0000 0.0000 0.0000 0.0000 31.4531 0.0000
# 6 0.0000 0.0000 0.0000 0.0000 0.0000 27.3702
#
#
#
# Elastic Compliance Matrix: (Units=1/GPa)
#
#
# Indices 1 2 3 4 5 6 
#
# 1 0.010817 -0.001637 -0.002873 0.000000 0.000000 0.000000
# 2 -0.001637 0.010817 -0.002873 0.000000 0.000000 0.000000
# 3 -0.002873 -0.002873 0.007968 0.000000 0.000000 0.000000
# 4 0.000000 0.000000 0.000000 0.031793 0.000000 0.000000
# 5 0.000000 0.000000 0.000000 0.000000 0.031793 0.000000
# 6 0.000000 0.000000 0.000000 0.000000 0.000000 0.036536
#
#
# Mechanical properties :
#
#
# Convention : Reuss Voigt Hill
#
# Bulk Modulus (GPa) = 67.39872 71.81196 69.60534
# Shear Modulus (GPa) = 33.45948 34.81692 34.13820
#
# Velocity S-wave (km/s) = 3.90383 3.98223 3.94323
# Velocity P-wave (km/s) = 7.14270 7.33844 7.24123
#
# Compressibility (1/GPa) = 0.01483708
#
# Stress axis : x y z
#
# Youngs Moduli (GPa) = 92.44801 92.44801 125.50622
#
# Poissons Ratio (x) = 0.15131 0.36055
# Poissons Ratio (y) = 0.15131 0.36055
# Poissons Ratio (z) = 0.26558 0.26558
#
# Static dielectric constant tensor:
#      x y z
#    x 3.811020 0.000000 0.000000 
#    y 0.000000 3.811020 0.000000 
#    z 0.000000 0.000000 4.376170 
# 
# 
# High freq. dielectric constant tensor:
#      x y z
#    x 1.842290 0.000000 0.000000 
#    y 0.000000 1.842290 0.000000 
#    z 0.000000 0.000000 1.896340 
# 
# From -- ./inp_files/1276.got.cif
#   From: 2010.03.12/outbox.cif.g09.slc.cpg/sg90_1_cif.got.tgz:1276.got - 2010.04.08 20:26:03.
