data_PCOD8304898
_publ_section_title
;
Structure prediction by ZEFSAII (Michael W. Deem and Ramdas Pophale) SiO2 
 PCOD8304898
Probable space group: P 41 2 2
;
_chemical_formula_sum "Si O2"
_cell_formula_units_Z 48
_cell_length_a 11.189508
_cell_length_b 11.189508
_cell_length_c 18.317698
_cell_angle_alpha 90.000000
_cell_angle_beta 90.000000
_cell_angle_gamma 90.000000
_cell_volume 2293.469014
_symmetry_space_group_name_H-M "P 41 2 2"
_symmetry_group_IT_number 91
_symmetry_cell_setting 'tetragonal'
loop_
_space_group_symop_operation_xyz
x,y,z
-y,x,1/4+z
-x,-y,1/2+z
y,-x,3/4+z
x,-y,1/2-z
-x,y,-z
y,x,3/4-z
-y,-x,1/4-z
loop_
_atom_site_type_symbol
_atom_site_label
_atom_site_fract_x
_atom_site_fract_y
_atom_site_fract_z
Si Si1 0.553517 0.500000 0.750000
Si Si2 0.164550 0.328980 0.829441
Si Si3 0.189175 0.948429 0.981451
Si Si4 0.349413 0.661317 0.786697
Si Si5 0.720531 0.304899 0.442532
Si Si6 0.965578 0.965578 0.875000
Si Si7 0.520858 0.127048 0.215294
O O1 0.462808 0.574381 0.802671
O O2 0.640127 0.590279 0.708513
O O3 0.218143 0.218143 0.875000
O O4 0.265783 0.389653 0.778365
O O5 0.120975 0.435898 0.881488
O O6 0.056490 0.280911 0.779958
O O7 0.264840 0.826504 0.975236
O O8 0.090538 0.953254 0.917466
O O9 0.137361 0.955609 0.063594
O O10 0.268075 0.689422 0.855796
O O11 0.392590 0.790289 0.761272
O O12 0.827103 0.385546 0.473759
O O13 0.528903 0.000000 0.250000
#
# Coordination Sequence:
#
# PCOD8304898 Si02
#       7
#     4   8   8   8   8   4   8
#     4  10  22  42  62  94 122 172 212 260 328 382
#     4  10  20  38  66  97 119 152 217 279 326 366
#     4  11  22  42  63  97 126 171 212 263 320 396
#     4  10  20  39  65  89 120 158 212 273 317 370
#     4  11  23  40  63  88 130 174 211 254 317 397
#     4  10  24  40  64  90 134 170 210 252 334 394
#     4  10  22  37  58  90 123 161 205 265 318 377
#
# _framework density 20.928992999999998
#
# number of rings (size 3 to 8) (size 9 to 14) (size 15 to 20)
#    0.000    1.667    0.833    3.500    2.333    4.000 
#    6.000    4.167    0.000    0.000    0.000    0.000 
#    0.000    0.000    0.000    0.000    0.000    0.000 
#
# Total GULP energy -595102.062367 kJ/mol
# GULP energy per Si atom -12397.959633 kJ/mol
# Density = 2.088136 g / cm^3
# Si number density = 20.928993 Si / 1000 Ang^3
#
#
#
# Elastic Constant Matrix: (Units=GPa)
#
#
# Indices 1 2 3 4 5 6 
#
# 1 108.6657 55.3903 36.7113 0.0000 0.0000 0.0000
# 2 55.3903 108.6657 36.7113 0.0000 0.0000 0.0000
# 3 36.7113 36.7113 95.3336 0.0000 0.0000 0.0000
# 4 0.0000 0.0000 0.0000 22.5449 0.0000 0.0000
# 5 0.0000 0.0000 0.0000 0.0000 22.5449 0.0000
# 6 0.0000 0.0000 0.0000 0.0000 0.0000 70.0498
#
#
#
# Elastic Compliance Matrix: (Units=1/GPa)
#
#
# Indices 1 2 3 4 5 6 
#
# 1 0.013068 -0.005703 -0.002836 0.000000 0.000000 0.000000
# 2 -0.005703 0.013068 -0.002836 0.000000 0.000000 0.000000
# 3 -0.002836 -0.002836 0.012674 0.000000 0.000000 0.000000
# 4 0.000000 0.000000 0.000000 0.044356 0.000000 0.000000
# 5 0.000000 0.000000 0.000000 0.000000 0.044356 0.000000
# 6 0.000000 0.000000 0.000000 0.000000 0.000000 0.014276
#
#
# Mechanical properties :
#
#
# Convention : Reuss Voigt Hill
#
# Bulk Modulus (GPa) = 62.27024 63.36566 62.81795
# Shear Modulus (GPa) = 29.42921 35.28470 32.35695
#
# Velocity S-wave (km/s) = 3.75393 4.11046 3.93623
# Velocity P-wave (km/s) = 6.97187 7.27118 7.12310
#
# Compressibility (1/GPa) = 0.01605904
#
# Stress axis : x y z
#
# Youngs Moduli (GPa) = 76.52530 76.52530 78.90357
#
# Poissons Ratio (x) = 0.43641 0.22377
# Poissons Ratio (y) = 0.43641 0.22377
# Poissons Ratio (z) = 0.21703 0.21703
#
# Static dielectric constant tensor:
#      x y z
#    x 3.762090 0.000000 0.000000 
#    y 0.000000 3.762090 0.000000 
#    z 0.000000 0.000000 3.769770 
# 
# 
# High freq. dielectric constant tensor:
#      x y z
#    x 1.821800 0.000000 0.000000 
#    y 0.000000 1.821800 0.000000 
#    z 0.000000 0.000000 1.818920 
# 
# From -- ./inp_files/5620.got.cif
#   From: 2010.03.12/outbox.cif.g09.slc.cpg/sg91_3_cif.got.tgz:5620.got - 2010.04.08 20:27:58.
