data_PCOD8304848
_publ_section_title
;
Structure prediction by ZEFSAII (Michael W. Deem and Ramdas Pophale) SiO2 
 PCOD8304848
Probable space group: P 41 2 2
;
_chemical_formula_sum "Si O2"
_cell_formula_units_Z 40
_cell_length_a 11.919247
_cell_length_b 11.919247
_cell_length_c 13.677552
_cell_angle_alpha 90.000000
_cell_angle_beta 90.000000
_cell_angle_gamma 90.000000
_cell_volume 1943.148599
_symmetry_space_group_name_H-M "P 41 2 2"
_symmetry_group_IT_number 91
_symmetry_cell_setting 'tetragonal'
loop_
_space_group_symop_operation_xyz
x,y,z
-y,x,1/4+z
-x,-y,1/2+z
y,-x,3/4+z
x,-y,1/2-z
-x,y,-z
y,x,3/4-z
-y,-x,1/4-z
loop_
_atom_site_type_symbol
_atom_site_label
_atom_site_fract_x
_atom_site_fract_y
_atom_site_fract_z
Si Si1 0.866425 0.128617 0.514870
Si Si2 0.906543 0.238203 0.188598
Si Si3 0.886149 0.583499 0.471291
Si Si4 0.250576 0.268393 0.102842
Si Si5 0.489695 0.322001 0.110245
O O1 0.836619 0.163382 0.625000
O O2 0.810983 0.219299 0.443378
O O3 0.000000 0.118616 0.500000
O O4 0.804563 0.011394 0.499160
O O5 0.867408 0.132593 0.125000
O O6 0.932828 0.337599 0.114399
O O7 0.810069 0.282650 0.260961
O O8 0.850252 0.651653 0.568713
O O9 0.779418 0.515057 0.434408
O O10 0.000000 0.512713 0.500000
O O11 0.358132 0.346749 0.129904
O O12 0.568342 0.431659 0.125000
O O13 0.500000 0.279346 0.000000
#
# Coordination Sequence:
#
# PCOD8304848 Si02
#       5
#     8   8   8   8   8
#     4  12  23  36  59  93 145 194 220 263 339 424
#     4  10  20  34  59  96 134 171 221 270 321 409
#     4  11  21  39  69 101 128 170 215 284 335 395
#     4  11  23  40  65  96 133 168 231 283 332 394
#     4  12  23  44  72 100 127 175 236 284 335 391
#
# _framework density 20.585145000000001
#
# number of rings (size 3 to 8) (size 9 to 14) (size 15 to 20)
#    0.000    0.800    8.000    1.200    0.000    0.800 
#    0.000    1.000    0.000    0.000    0.000    0.000 
#    0.000    0.000    0.000    0.000    0.000    0.000 
#
# Total GULP energy -495613.479721 kJ/mol
# GULP energy per Si atom -12390.336993 kJ/mol
# Density = 2.053829 g / cm^3
# Si number density = 20.585145 Si / 1000 Ang^3
#
#
#
# Elastic Constant Matrix: (Units=GPa)
#
#
# Indices 1 2 3 4 5 6 
#
# 1 165.4101 -26.5825 29.1678 0.0000 0.0000 0.0000
# 2 -26.5825 165.4053 29.1713 0.0000 0.0000 0.0000
# 3 29.1678 29.1713 103.2853 0.0000 0.0000 0.0000
# 4 0.0000 0.0000 0.0000 23.2375 0.0000 0.0000
# 5 0.0000 0.0000 0.0000 0.0000 23.2372 0.0000
# 6 0.0000 0.0000 0.0000 0.0000 0.0000 18.2814
#
#
#
# Elastic Compliance Matrix: (Units=1/GPa)
#
#
# Indices 1 2 3 4 5 6 
#
# 1 0.006691 0.001482 -0.002308 0.000000 0.000000 0.000000
# 2 0.001482 0.006691 -0.002308 0.000000 0.000000 0.000000
# 3 -0.002308 -0.002308 0.010986 0.000000 0.000000 0.000000
# 4 0.000000 0.000000 0.000000 0.043034 0.000000 0.000000
# 5 0.000000 0.000000 0.000000 0.000000 0.043034 0.000000
# 6 0.000000 0.000000 0.000000 0.000000 0.000000 0.054701
#
#
# Mechanical properties :
#
#
# Convention : Reuss Voigt Hill
#
# Bulk Modulus (GPa) = 55.25102 55.29045 55.27073
# Shear Modulus (GPa) = 28.17886 39.77416 33.97651
#
# Velocity S-wave (km/s) = 3.70387 4.40042 4.06709
# Velocity P-wave (km/s) = 6.72235 7.26196 6.99736
#
# Compressibility (1/GPa) = 0.01809921
#
# Stress axis : x y z
#
# Youngs Moduli (GPa) = 149.45859 149.45214 91.02727
#
# Poissons Ratio (x) = -0.22154 0.21011
# Poissons Ratio (y) = -0.22155 0.21013
# Poissons Ratio (z) = 0.34497 0.34500
#
# Static dielectric constant tensor:
#      x y z
#    x 3.793960 0.000000 0.000000 
#    y 0.000000 3.794000 0.000000 
#    z 0.000000 0.000000 3.921920 
# 
# 
# High freq. dielectric constant tensor:
#      x y z
#    x 1.792110 0.000000 0.000000 
#    y 0.000000 1.792110 0.000000 
#    z 0.000000 0.000000 1.810860 
# 
# From -- ./inp_files/11325.got.cif
#   From: 2010.03.12/outbox.cif.g09.slc.cpg/sg91_6_cif.got.tgz:11325.got - 2010.04.08 20:27:58.
