data_PCOD8304634
_publ_section_title
;
Structure prediction by ZEFSAII (Michael W. Deem and Ramdas Pophale) SiO2 
 PCOD8304634
Probable space group: P 4 21 2
;
_chemical_formula_sum "Si O2"
_cell_formula_units_Z 40
_cell_length_a 14.076516
_cell_length_b 14.076516
_cell_length_c 8.580680
_cell_angle_alpha 90.000000
_cell_angle_beta 90.000000
_cell_angle_gamma 90.000000
_cell_volume 1700.247178
_symmetry_space_group_name_H-M "P 4 21 2"
_symmetry_group_IT_number 90
_symmetry_cell_setting 'tetragonal'
loop_
_space_group_symop_operation_xyz
x,y,z
1/2-y,1/2+x,z
-x,-y,z
1/2+y,1/2-x,z
1/2+x,1/2-y,-z
1/2-x,1/2+y,-z
y,x,-z
-y,-x,-z
loop_
_atom_site_type_symbol
_atom_site_label
_atom_site_fract_x
_atom_site_fract_y
_atom_site_fract_z
Si Si1 0.070631 0.225123 0.539076
Si Si2 0.102219 0.385916 0.725444
Si Si3 0.750142 0.539117 0.224426
Si Si4 0.854585 0.698247 0.049114
Si Si5 0.409788 0.444753 0.681497
O O1 0.133312 0.133312 0.500000
O O2 0.142954 0.306359 0.605669
O O3 0.007886 0.263570 0.394908
O O4 0.004062 0.188858 0.685303
O O5 0.131559 0.491043 0.684690
O O6 0.126538 0.368196 0.902758
O O7 0.824640 0.623193 0.185042
O O8 0.751658 0.452148 0.101674
O O9 0.650342 0.595816 0.215711
O O10 0.776771 0.776771 0.000000
O O11 0.500000 0.500000 0.750431
O O12 0.423342 0.423342 0.500000
#
# Coordination Sequence:
#
# PCOD8304634 Si02
#       5
#     8   8   8   8   8
#     4  11  22  45  77 110 145 182 242 319 373 439
#     4  11  26  49  71  99 146 198 239 305 378 441
#     4  11  25  44  73 106 142 199 246 306 366 455
#     4  12  27  48  70 105 148 196 253 302 377 452
#     4   9  17  39  66 102 141 175 219 297 379 417
#
# _framework density 23.525991999999999
#
# number of rings (size 3 to 8) (size 9 to 14) (size 15 to 20)
#    0.000    1.200    6.000    1.200    5.600    0.400 
#    0.000    0.000    0.000    0.000    0.000    0.000 
#    0.000    0.000    0.000    0.000    0.000    0.000 
#
# Total GULP energy -495561.294310 kJ/mol
# GULP energy per Si atom -12389.032358 kJ/mol
# Density = 2.347245 g / cm^3
# Si number density = 23.525992 Si / 1000 Ang^3
#
#
#
# Elastic Constant Matrix: (Units=GPa)
#
#
# Indices 1 2 3 4 5 6 
#
# 1 90.8565 13.0892 13.9049 0.0000 0.0000 0.0000
# 2 13.0892 90.8565 13.9049 0.0000 0.0000 0.0000
# 3 13.9049 13.9049 60.3157 0.0000 0.0000 0.0000
# 4 0.0000 0.0000 0.0000 30.6667 0.0000 0.0000
# 5 0.0000 0.0000 0.0000 0.0000 30.6667 0.0000
# 6 0.0000 0.0000 0.0000 0.0000 0.0000 23.1655
#
#
#
# Elastic Compliance Matrix: (Units=1/GPa)
#
#
# Indices 1 2 3 4 5 6 
#
# 1 0.011556 -0.001303 -0.002364 0.000000 0.000000 0.000000
# 2 -0.001303 0.011556 -0.002364 0.000000 0.000000 0.000000
# 3 -0.002364 -0.002364 0.017669 0.000000 0.000000 0.000000
# 4 0.000000 0.000000 0.000000 0.032609 0.000000 0.000000
# 5 0.000000 0.000000 0.000000 0.000000 0.032609 0.000000
# 6 0.000000 0.000000 0.000000 0.000000 0.000000 0.043168
#
#
# Mechanical properties :
#
#
# Convention : Reuss Voigt Hill
#
# Bulk Modulus (GPa) = 34.81861 35.98074 35.39968
# Shear Modulus (GPa) = 29.27404 30.30844 29.79124
#
# Velocity S-wave (km/s) = 3.53133 3.59318 3.56239
# Velocity P-wave (km/s) = 5.60885 5.70454 5.65690
#
# Compressibility (1/GPa) = 0.02872027
#
# Stress axis : x y z
#
# Youngs Moduli (GPa) = 86.53638 86.53638 56.59549
#
# Poissons Ratio (x) = 0.11276 0.13377
# Poissons Ratio (y) = 0.11276 0.13377
# Poissons Ratio (z) = 0.20454 0.20454
#
# Static dielectric constant tensor:
#      x y z
#    x 4.503160 0.000000 0.000000 
#    y 0.000000 4.503160 0.000000 
#    z 0.000000 0.000000 3.944360 
# 
# 
# High freq. dielectric constant tensor:
#      x y z
#    x 1.941040 0.000000 0.000000 
#    y 0.000000 1.941040 0.000000 
#    z 0.000000 0.000000 1.912410 
# 
# From -- ./inp_files/1301.got.cif
#   From: 2010.03.12/outbox.cif.g09.slc.cpg/sg90_1_cif.got.tgz:1301.got - 2010.04.08 20:26:03.
