data_PCOD8304572
_publ_section_title
;
Structure prediction by ZEFSAII (Michael W. Deem and Ramdas Pophale) SiO2 
 PCOD8304572
Probable space group: P 4 21 2
;
_chemical_formula_sum "Si O2"
_cell_formula_units_Z 40
_cell_length_a 18.108087
_cell_length_b 18.108087
_cell_length_c 5.071187
_cell_angle_alpha 90.000000
_cell_angle_beta 90.000000
_cell_angle_gamma 90.000000
_cell_volume 1662.856492
_symmetry_space_group_name_H-M "P 4 21 2"
_symmetry_group_IT_number 90
_symmetry_cell_setting 'tetragonal'
loop_
_space_group_symop_operation_xyz
x,y,z
1/2-y,1/2+x,z
-x,-y,z
1/2+y,1/2-x,z
1/2+x,1/2-y,-z
1/2-x,1/2+y,-z
y,x,-z
-y,-x,-z
loop_
_atom_site_type_symbol
_atom_site_label
_atom_site_fract_x
_atom_site_fract_y
_atom_site_fract_z
Si Si1 0.115612 0.687349 0.456352
Si Si2 0.620390 0.019749 0.146112
Si Si3 0.522011 0.276409 0.967558
Si Si4 0.164021 0.952787 0.477065
Si Si5 0.672625 0.209335 0.040342
O O1 0.037247 0.648885 0.552231
O O2 0.110229 0.775516 0.463633
O O3 0.143053 0.660829 0.170428
O O4 0.177058 0.664559 0.669055
O O5 0.559791 0.083932 0.096509
O O6 0.695326 0.020062 0.962941
O O7 0.486649 0.328131 0.188958
O O8 0.515096 0.321119 0.696090
O O9 0.608454 0.269079 0.014744
O O10 0.083018 0.916983 0.500000
O O11 0.751286 0.248715 0.000000
#
# Coordination Sequence:
#
# PCOD8304572 Si02
#       5
#     8   8   8   8   8
#     4  11  23  40  63  93 127 167 224 260 318 385
#     4  10  21  40  62  94 139 182 212 254 315 397
#     4  11  24  41  63  95 129 169 222 261 322 398
#     4  11  23  41  66  93 126 166 212 274 328 380
#     4  12  24  42  66  92 129 169 221 279 323 369
#
# _framework density 24.054991000000001
#
# number of rings (size 3 to 8) (size 9 to 14) (size 15 to 20)
#    0.000    1.000    2.000    6.000    2.800    0.000 
#    0.000    0.000    0.000    3.600    0.000    0.000 
#    0.000    0.000    0.000    0.000    0.000    0.000 
#
# Total GULP energy -495754.131018 kJ/mol
# GULP energy per Si atom -12393.853275 kJ/mol
# Density = 2.400024 g / cm^3
# Si number density = 24.054991 Si / 1000 Ang^3
#
#
#
# Elastic Constant Matrix: (Units=GPa)
#
#
# Indices 1 2 3 4 5 6 
#
# 1 43.5575 8.0730 8.2340 0.0000 0.0000 0.0000
# 2 8.0730 43.5615 8.2317 0.0000 0.0000 0.0000
# 3 8.2340 8.2317 53.5360 0.0000 0.0000 0.0000
# 4 0.0000 0.0000 0.0000 21.1647 0.0000 0.0000
# 5 0.0000 0.0000 0.0000 0.0000 21.1649 0.0000
# 6 0.0000 0.0000 0.0000 0.0000 0.0000 41.9249
#
#
#
# Elastic Compliance Matrix: (Units=1/GPa)
#
#
# Indices 1 2 3 4 5 6 
#
# 1 0.024274 -0.003907 -0.003133 0.000000 0.000000 0.000000
# 2 -0.003907 0.024272 -0.003131 0.000000 0.000000 0.000000
# 3 -0.003133 -0.003131 0.019642 0.000000 0.000000 0.000000
# 4 0.000000 0.000000 0.000000 0.047249 0.000000 0.000000
# 5 0.000000 0.000000 0.000000 0.000000 0.047248 0.000000
# 6 0.000000 0.000000 0.000000 0.000000 0.000000 0.023852
#
#
# Mechanical properties :
#
#
# Convention : Reuss Voigt Hill
#
# Bulk Modulus (GPa) = 20.89986 21.08140 20.99063
# Shear Modulus (GPa) = 22.43887 24.59198 23.51543
#
# Velocity S-wave (km/s) = 3.05752 3.20085 3.13000
# Velocity P-wave (km/s) = 4.60128 4.73745 4.66986
#
# Compressibility (1/GPa) = 0.04784720
#
# Stress axis : x y z
#
# Youngs Moduli (GPa) = 41.19557 41.20019 50.91055
#
# Poissons Ratio (x) = 0.16095 0.15949
# Poissons Ratio (y) = 0.16094 0.15941
# Poissons Ratio (z) = 0.12906 0.12901
#
# Static dielectric constant tensor:
#      x y z
#    x 4.243350 0.000000 0.000000 
#    y 0.000000 4.243350 0.000000 
#    z 0.000000 0.000000 4.397980 
# 
# 
# High freq. dielectric constant tensor:
#      x y z
#    x 1.943180 0.000000 0.000000 
#    y 0.000000 1.943180 0.000000 
#    z 0.000000 0.000000 1.958480 
# 
# From -- ./inp_files/447.got.cif
#   From: 2010.03.12/outbox.cif.g09.slc.cpg/sg90_1_cif.got.tgz:447.got - 2010.04.08 20:26:03.
