data_PCOD8304412
_publ_section_title
;
Structure prediction by ZEFSAII (Michael W. Deem and Ramdas Pophale) SiO2 
 PCOD8304412
Probable space group: I 41/A
;
_chemical_formula_sum "Si O2"
_cell_formula_units_Z 72
_cell_length_a 12.790303
_cell_length_b 12.790303
_cell_length_c 17.653994
_cell_angle_alpha 90.000000
_cell_angle_beta 90.000000
_cell_angle_gamma 90.000000
_cell_volume 2888.049553
_symmetry_space_group_name_H-M "I 41/A"
_symmetry_group_IT_number 88
_space_group.IT_coordinate_system_code '2'
_symmetry_cell_setting 'tetragonal'
loop_
_space_group_symop_operation_xyz
x,y,z
3/4-y,1/4+x,1/4+z
-x,1/2-y,z
1/4+y,1/4-x,1/4+z
-x,-y,-z
1/4+y,3/4-x,3/4-z
x,1/2+y,-z
3/4-y,3/4+x,3/4-z
1/2+x,1/2+y,1/2+z
1/4-y,3/4+x,3/4+z
1/2-x,-y,1/2+z
3/4+y,3/4-x,3/4+z
1/2-x,1/2-y,1/2-z
3/4+y,1/4-x,1/4-z
1/2+x,y,1/2-z
1/4-y,1/4+x,1/4-z
loop_
_atom_site_type_symbol
_atom_site_label
_atom_site_fract_x
_atom_site_fract_y
_atom_site_fract_z
Si Si1 0.302612 0.001914 0.527857
Si Si2 0.029185 0.091698 0.131836
Si Si3 0.000000 0.250000 0.808782
Si Si4 0.875469 0.566653 0.629989
Si Si5 0.976364 0.539011 0.267374
O O1 0.400652 0.987307 0.583385
O O2 0.189000 0.958428 0.554501
O O3 0.337982 0.957282 0.446828
O O4 0.280789 0.123994 0.524685
O O5 0.104046 0.184673 0.164987
O O6 0.968935 0.023535 0.196559
O O7 0.087621 0.202766 0.863562
O O8 0.045322 0.340549 0.753522
O O9 0.949959 0.470508 0.658425
#
# Coordination Sequence:
#
# PCOD8304412 Si02
#       5
#    16  16   8  16  16
#     4  12  26  47  75 110 155 203 259 330 397 469
#     4  11  23  42  69 113 150 194 250 313 393 464
#     4  12  28  50  77 117 154 210 268 318 402 472
#     4  12  26  49  74 113 157 205 260 330 389 470
#     4  12  27  47  77 109 150 209 255 320 391 464
#
# _framework density 24.930318
#
# number of rings (size 3 to 8) (size 9 to 14) (size 15 to 20)
#    0.000    0.222    6.667    1.333    3.111    3.556 
#    0.000    0.000    0.000    0.000    0.000    0.000 
#    0.000    0.000    0.000    0.000    0.000    0.000 
#
# Total GULP energy -446219.256345 kJ/mol
# GULP energy per Si atom -12394.979343 kJ/mol
# Density = 2.487358 g / cm^3
# Si number density = 24.930318 Si / 1000 Ang^3
#
#
#
# Elastic Constant Matrix: (Units=GPa)
#
#
# Indices 1 2 3 4 5 6 
#
# 1 88.2179 10.6481 14.0209 0.0000 0.0000 4.3383
# 2 10.6481 88.2180 14.0209 0.0000 0.0000 -4.3383
# 3 14.0209 14.0209 59.4198 0.0000 0.0000 0.0000
# 4 0.0000 0.0000 0.0000 28.4309 0.0000 0.0000
# 5 0.0000 0.0000 0.0000 0.0000 28.4309 0.0000
# 6 4.3383 -4.3383 0.0000 0.0000 0.0000 38.7921
#
#
#
# Elastic Compliance Matrix: (Units=1/GPa)
#
#
# Indices 1 2 3 4 5 6 
#
# 1 0.011948 -0.001107 -0.002558 0.000000 0.000000 -0.001460
# 2 -0.001107 0.011948 -0.002558 0.000000 0.000000 0.001460
# 3 -0.002558 -0.002558 0.018037 0.000000 0.000000 0.000000
# 4 0.000000 0.000000 0.000000 0.035173 0.000000 0.000000
# 5 0.000000 0.000000 0.000000 0.000000 0.035173 0.000000
# 6 -0.001460 0.001460 0.000000 0.000000 0.000000 0.026105
#
#
# Mechanical properties :
#
#
# Convention : Reuss Voigt Hill
#
# Bulk Modulus (GPa) = 33.91511 34.80394 34.35953
# Shear Modulus (GPa) = 31.12210 32.27515 31.69862
#
# Velocity S-wave (km/s) = 3.53705 3.60198 3.56966
# Velocity P-wave (km/s) = 5.50586 5.59373 5.54997
#
# Compressibility (1/GPa) = 0.02948538
#
# Stress axis : x y z
#
# Youngs Moduli (GPa) = 83.69910 83.69910 55.44297
#
# Poissons Ratio (x) = 0.09268 0.14182
# Poissons Ratio (y) = 0.09268 0.14182
# Poissons Ratio (z) = 0.21409 0.21409
#
# Static dielectric constant tensor:
#      x y z
#    x 4.703940 0.000000 0.000000 
#    y 0.000000 4.703940 0.000000 
#    z 0.000000 0.000000 4.407380 
# 
# 
# High freq. dielectric constant tensor:
#      x y z
#    x 2.012280 0.000000 0.000000 
#    y 0.000000 2.012280 0.000000 
#    z 0.000000 0.000000 1.967190 
# 
# From -- ./inp_files/3809.got.cif
#   From: 2010.03.12/outbox.cif.g09.slc.cpg/sg88_2_cif.got.tgz:3809.got - 2010.04.08 20:20:55.
