data_PCOD8304025
_publ_section_title
;
Structure prediction by ZEFSAII (Michael W. Deem and Ramdas Pophale) SiO2 
 PCOD8304025
Probable space group: I 4/M
;
_chemical_formula_sum "Si O2"
_cell_formula_units_Z 96
_cell_length_a 13.628151
_cell_length_b 13.628151
_cell_length_c 22.927676
_cell_angle_alpha 90.000000
_cell_angle_beta 90.000000
_cell_angle_gamma 90.000000
_cell_volume 4258.277009
_symmetry_space_group_name_H-M "I 4/M"
_symmetry_group_IT_number 87
_symmetry_cell_setting 'tetragonal'
loop_
_space_group_symop_operation_xyz
x,y,z
-y,x,z
-x,-y,z
y,-x,z
-x,-y,-z
y,-x,-z
x,y,-z
-y,x,-z
1/2+x,1/2+y,1/2+z
1/2-y,1/2+x,1/2+z
1/2-x,1/2-y,1/2+z
1/2+y,1/2-x,1/2+z
1/2-x,1/2-y,1/2-z
1/2+y,1/2-x,1/2-z
1/2+x,1/2+y,1/2-z
1/2-y,1/2+x,1/2-z
loop_
_atom_site_type_symbol
_atom_site_label
_atom_site_fract_x
_atom_site_fract_y
_atom_site_fract_z
Si Si1 0.750804 0.138976 0.730115
Si Si2 0.910343 0.294576 0.564080
Si Si3 0.654961 0.465279 0.671477
Si Si4 0.385297 0.389361 0.871920
Si Si5 0.282532 0.985008 0.065094
Si Si6 0.595560 0.062828 0.640656
O O1 0.750000 0.250000 0.750000
O O2 0.755545 0.064175 0.785366
O O3 0.851735 0.130361 0.693555
O O4 0.651302 0.111526 0.695527
O O5 0.954737 0.272437 0.500000
O O6 0.845965 0.200291 0.586603
O O7 0.835795 0.382604 0.559117
O O8 0.996758 0.323453 0.608608
O O9 0.615892 0.573110 0.684904
O O10 0.686604 0.465273 0.603963
O O11 0.496361 0.364304 0.885784
O O12 0.351933 0.064650 0.096106
O O13 0.253724 0.022670 0.000000
O O14 0.500000 0.000000 0.660747
#
# Coordination Sequence:
#
# PCOD8304025 Si02
#       6
#    16  16  16  16  16  16
#     4  12  24  43  70 100 139 180 232 289 349 423
#     4  10  21  41  68 100 136 179 231 284 347 420
#     4  11  25  45  68  98 138 185 231 282 349 422
#     4  11  23  41  65  94 136 184 225 274 345 414
#     4  10  22  44  72 101 135 178 235 296 354 413
#     4  10  22  44  69  99 136 180 231 292 358 415
#
# _framework density 22.544329000000001
#
# number of rings (size 3 to 8) (size 9 to 14) (size 15 to 20)
#    0.000    1.333    1.667    3.500    0.000    4.667 
#    6.000    3.333    0.000    0.000    0.000    0.000 
#    0.000    0.000    0.000    0.000    0.000    0.000 
#
# Total GULP energy -594896.861643 kJ/mol
# GULP energy per Si atom -12393.684618 kJ/mol
# Density = 2.249302 g / cm^3
# Si number density = 22.544329 Si / 1000 Ang^3
#
#
#
# Elastic Constant Matrix: (Units=GPa)
#
#
# Indices 1 2 3 4 5 6 
#
# 1 107.2231 16.8399 53.3001 0.0000 0.0000 -5.4018
# 2 16.8399 107.2231 53.3001 0.0000 0.0000 5.4018
# 3 53.3001 53.3001 151.3571 0.0000 0.0000 0.0000
# 4 0.0000 0.0000 0.0000 27.8077 0.0000 0.0000
# 5 0.0000 0.0000 0.0000 0.0000 27.8077 0.0000
# 6 -5.4018 5.4018 0.0000 0.0000 0.0000 12.9400
#
#
#
# Elastic Compliance Matrix: (Units=1/GPa)
#
#
# Indices 1 2 3 4 5 6 
#
# 1 0.011601 -0.000044 -0.004070 0.000000 0.000000 0.004861
# 2 -0.000044 0.011601 -0.004070 0.000000 0.000000 -0.004861
# 3 -0.004070 -0.004070 0.009473 0.000000 0.000000 0.000000
# 4 0.000000 0.000000 0.000000 0.035961 0.000000 0.000000
# 5 0.000000 0.000000 0.000000 0.000000 0.035961 0.000000
# 6 0.004861 -0.004861 0.000000 0.000000 0.000000 0.081338
#
#
# Mechanical properties :
#
#
# Convention : Reuss Voigt Hill
#
# Bulk Modulus (GPa) = 61.31757 68.07593 64.69675
# Shear Modulus (GPa) = 24.06851 29.86862 26.96857
#
# Velocity S-wave (km/s) = 3.27097 3.64384 3.46243
# Velocity P-wave (km/s) = 6.44386 6.92571 6.68913
#
# Compressibility (1/GPa) = 0.01630854
#
# Stress axis : x y z
#
# Youngs Moduli (GPa) = 86.19733 86.19733 105.55931
#
# Poissons Ratio (x) = 0.00377 0.42962
# Poissons Ratio (y) = 0.00377 0.42962
# Poissons Ratio (z) = 0.35082 0.35082
#
# Static dielectric constant tensor:
#      x y z
#    x 4.166690 0.000000 0.000000 
#    y 0.000000 4.166690 0.000000 
#    z 0.000000 0.000000 4.171410 
# 
# 
# High freq. dielectric constant tensor:
#      x y z
#    x 1.892550 0.000000 0.000000 
#    y 0.000000 1.892550 0.000000 
#    z 0.000000 0.000000 1.889510 
# 
# From -- ./inp_files/5289.got.cif
#   From: 2010.03.12/outbox.cif.g09.slc.cpg/sg87_3_cif.got.tgz:5289.got - 2010.04.08 20:16:13.
