data_PCOD8304862
_publ_section_title
;
Structure prediction by ZEFSAII (Michael W. Deem and Ramdas Pophale) SiO2 
 PCOD8304862
Probable space group: P 41 2 2
;
_chemical_formula_sum "Si O2"
_cell_formula_units_Z 48
_cell_length_a 8.837146
_cell_length_b 8.837146
_cell_length_c 31.197119
_cell_angle_alpha 90.000000
_cell_angle_beta 90.000000
_cell_angle_gamma 90.000000
_cell_volume 2436.343670
_symmetry_space_group_name_H-M "P 41 2 2"
_symmetry_group_IT_number 91
_symmetry_cell_setting 'tetragonal'
loop_
_space_group_symop_operation_xyz
x,y,z
-y,x,1/4+z
-x,-y,1/2+z
y,-x,3/4+z
x,-y,1/2-z
-x,y,-z
y,x,3/4-z
-y,-x,1/4-z
loop_
_atom_site_type_symbol
_atom_site_label
_atom_site_fract_x
_atom_site_fract_y
_atom_site_fract_z
Si Si1 0.077575 0.429421 0.792588
Si Si2 0.404664 0.571738 0.792178
Si Si3 0.930237 0.082055 0.044368
Si Si4 0.070637 0.929364 0.125000
Si Si5 0.589914 0.067689 0.294089
Si Si6 0.422297 0.075222 0.378031
Si Si7 0.575541 0.575541 0.875000
O O1 0.996987 0.500000 0.750000
O O2 0.239120 0.505811 0.796205
O O3 0.090770 0.249472 0.789030
O O4 0.990843 0.473434 0.835172
O O5 0.483853 0.500000 0.750000
O O6 0.398894 0.752373 0.789370
O O7 0.494733 0.510844 0.833071
O O8 0.998314 0.246442 0.054257
O O9 0.972867 0.972922 0.083557
O O10 0.000000 0.017671 0.000000
O O11 0.038162 0.753682 0.135097
O O12 0.476146 0.015554 0.331618
O O13 0.524186 0.000000 0.250000
O O14 0.458295 0.250200 0.380464
#
# Coordination Sequence:
#
# PCOD8304862 Si02
#       7
#     8   8   8   4   8   8   4
#     4  11  22  37  58  84 112 146 187 231 280 332
#     4  10  20  36  57  83 111 144 184 228 277 328
#     4  11  22  38  59  85 115 149 190 233 281 335
#     4  11  22  39  58  82 116 151 190 233 282 336
#     4  10  20  37  58  83 114 146 187 232 278 332
#     4  10  22  39  57  81 114 149 187 231 279 333
#     4   9  22  39  56  80 112 147 184 229 276 330
#
# _framework density 19.701654999999999
#
# number of rings (size 3 to 8) (size 9 to 14) (size 15 to 20)
#    0.000    1.667    0.000    7.000    0.000    6.000 
#    0.000    3.333    0.000    0.000    0.000    0.000 
#    0.000    0.000    0.000    0.000    0.000    0.000 
#
# Total GULP energy -595198.959990 kJ/mol
# GULP energy per Si atom -12399.978333 kJ/mol
# Density = 1.965681 g / cm^3
# Si number density = 19.701655 Si / 1000 Ang^3
#
#
#
# Elastic Constant Matrix: (Units=GPa)
#
#
# Indices 1 2 3 4 5 6 
#
# 1 66.7784 34.4451 55.4909 0.0000 0.0000 0.0000
# 2 34.4451 66.7789 55.4915 0.0000 0.0000 0.0000
# 3 55.4909 55.4915 180.8034 0.0000 0.0000 0.0000
# 4 0.0000 0.0000 0.0000 37.8158 0.0000 0.0000
# 5 0.0000 0.0000 0.0000 0.0000 37.8157 0.0000
# 6 0.0000 0.0000 0.0000 0.0000 0.0000 9.9443
#
#
#
# Elastic Compliance Matrix: (Units=1/GPa)
#
#
# Indices 1 2 3 4 5 6 
#
# 1 0.022909 -0.008019 -0.004570 0.000000 0.000000 0.000000
# 2 -0.008019 0.022909 -0.004570 0.000000 0.000000 0.000000
# 3 -0.004570 -0.004570 0.008336 0.000000 0.000000 0.000000
# 4 0.000000 0.000000 0.000000 0.026444 0.000000 0.000000
# 5 0.000000 0.000000 0.000000 0.000000 0.026444 0.000000
# 6 0.000000 0.000000 0.000000 0.000000 0.000000 0.100561
#
#
# Mechanical properties :
#
#
# Convention : Reuss Voigt Hill
#
# Bulk Modulus (GPa) = 50.41418 67.24617 58.83017
# Shear Modulus (GPa) = 20.11823 28.37737 24.24780
#
# Velocity S-wave (km/s) = 3.19900 3.79932 3.51201
# Velocity P-wave (km/s) = 6.26811 7.31114 6.80962
#
# Compressibility (1/GPa) = 0.01983569
#
# Stress axis : x y z
#
# Youngs Moduli (GPa) = 43.65176 43.65188 119.96257
#
# Poissons Ratio (x) = 0.35005 0.54820
# Poissons Ratio (y) = 0.35005 0.54821
# Poissons Ratio (z) = 0.19948 0.19948
#
# Static dielectric constant tensor:
#      x y z
#    x 3.505000 0.000000 0.000000 
#    y 0.000000 3.505000 0.000000 
#    z 0.000000 0.000000 4.264310 
# 
# 
# High freq. dielectric constant tensor:
#      x y z
#    x 1.766070 0.000000 0.000000 
#    y 0.000000 1.766070 0.000000 
#    z 0.000000 0.000000 1.792500 
# 
# From -- ./inp_files/22311.got.cif
#   From: 2010.03.12/outbox.cif.g09.slc.cpg/sg91_12_cif.got.tgz:22311.got - 2010.04.08 20:27:58.
