data_PCOD8304804
_publ_section_title
;
Structure prediction by ZEFSAII (Michael W. Deem and Ramdas Pophale) SiO2 
 PCOD8304804
Probable space group: P 41 2 2
;
_chemical_formula_sum "Si O2"
_cell_formula_units_Z 64
_cell_length_a 17.951966
_cell_length_b 17.951966
_cell_length_c 11.658786
_cell_angle_alpha 90.000000
_cell_angle_beta 90.000000
_cell_angle_gamma 90.000000
_cell_volume 3757.312911
_symmetry_space_group_name_H-M "P 41 2 2"
_symmetry_group_IT_number 91
_symmetry_cell_setting 'tetragonal'
loop_
_space_group_symop_operation_xyz
x,y,z
-y,x,1/4+z
-x,-y,1/2+z
y,-x,3/4+z
x,-y,1/2-z
-x,y,-z
y,x,3/4-z
-y,-x,1/4-z
loop_
_atom_site_type_symbol
_atom_site_label
_atom_site_fract_x
_atom_site_fract_y
_atom_site_fract_z
Si Si1 0.279715 0.843677 0.117046
Si Si2 0.367266 0.080157 0.191331
Si Si3 0.085628 0.531482 0.526286
Si Si4 0.158582 0.036695 0.371696
Si Si5 0.125418 0.646288 0.358232
Si Si6 0.854275 0.236872 0.039163
Si Si7 0.913167 0.905976 0.502363
Si Si8 0.662255 0.048993 0.067955
O O1 0.232207 0.767794 0.125000
O O2 0.317249 0.860184 0.239416
O O3 0.226798 0.913744 0.084200
O O4 0.342734 0.836863 0.017061
O O5 0.450264 0.116033 0.187808
O O6 0.365411 0.000000 0.250000
O O7 0.333271 0.068339 0.066008
O O8 0.129779 0.562708 0.412787
O O9 0.091257 0.589634 0.631093
O O10 0.000000 0.518658 0.500000
O O11 0.083692 0.083692 0.375000
O O12 0.176619 0.000000 0.250000
O O13 0.141071 0.970162 0.456822
O O14 0.168700 0.699206 0.448910
O O15 0.037916 0.662389 0.346138
O O16 0.786148 0.213853 0.125000
O O17 0.888296 0.174091 0.948221
O O18 0.920375 0.264387 0.121545
O O19 0.887835 0.887835 0.375000
O O20 0.000000 0.928599 0.500000
#
# Coordination Sequence:
#
# PCOD8304804 Si02
#       8
#     8   8   8   8   8   8   8   8
#     4  11  26  35  49  70 101 138 164 205 259 319
#     4  11  20  34  56  77  98 126 165 205 265 316
#     4   8  18  34  56  80  93 120 157 215 266 307
#     4  11  24  37  47  60  85 119 168 222 268 301
#     4  10  20  37  51  68 102 123 165 214 263 311
#     4  10  23  31  50  67  90 131 167 210 256 308
#     4  11  22  32  47  61  75 112 168 217 263 298
#     4  10  19  35  52  74 101 121 161 219 266 307
#
# _framework density 17.033449999999998
#
# number of rings (size 3 to 8) (size 9 to 14) (size 15 to 20)
#    0.000    1.750    1.250    4.125   10.500    0.500 
#    0.000    0.000    0.000    0.000    0.000    0.000 
#    0.000    0.000    0.000    0.000    0.000   20.000 
#
# Total GULP energy -792839.830462 kJ/mol
# GULP energy per Si atom -12388.122351 kJ/mol
# Density = 1.699468 g / cm^3
# Si number density = 17.033450 Si / 1000 Ang^3
#
#
#
# Elastic Constant Matrix: (Units=GPa)
#
#
# Indices 1 2 3 4 5 6 
#
# 1 57.2689 14.2820 10.5735 0.0000 0.0000 0.0000
# 2 14.2820 57.2695 10.5739 0.0000 0.0000 0.0000
# 3 10.5735 10.5739 79.8333 0.0000 0.0000 0.0000
# 4 0.0000 0.0000 0.0000 21.3389 0.0000 0.0000
# 5 0.0000 0.0000 0.0000 0.0000 21.3389 0.0000
# 6 0.0000 0.0000 0.0000 0.0000 0.0000 10.8018
#
#
#
# Elastic Compliance Matrix: (Units=1/GPa)
#
#
# Indices 1 2 3 4 5 6 
#
# 1 0.018904 -0.004359 -0.001926 0.000000 0.000000 0.000000
# 2 -0.004359 0.018904 -0.001927 0.000000 0.000000 0.000000
# 3 -0.001926 -0.001927 0.013036 0.000000 0.000000 0.000000
# 4 0.000000 0.000000 0.000000 0.046863 0.000000 0.000000
# 5 0.000000 0.000000 0.000000 0.000000 0.046863 0.000000
# 6 0.000000 0.000000 0.000000 0.000000 0.000000 0.092577
#
#
# Mechanical properties :
#
#
# Convention : Reuss Voigt Hill
#
# Bulk Modulus (GPa) = 29.05185 29.47007 29.26096
# Shear Modulus (GPa) = 18.86478 21.29208 20.07843
#
# Velocity S-wave (km/s) = 3.33154 3.53939 3.43704
# Velocity P-wave (km/s) = 5.64727 5.83454 5.74167
#
# Compressibility (1/GPa) = 0.03442121
#
# Stress axis : x y z
#
# Youngs Moduli (GPa) = 52.89849 52.89892 76.70821
#
# Poissons Ratio (x) = 0.23057 0.14777
# Poissons Ratio (y) = 0.23057 0.14778
# Poissons Ratio (z) = 0.10191 0.10191
#
# Static dielectric constant tensor:
#      x y z
#    x 3.220170 0.000000 0.000000 
#    y 0.000000 3.220150 0.000000 
#    z 0.000000 0.000000 3.434310 
# 
# 
# High freq. dielectric constant tensor:
#      x y z
#    x 1.623120 0.000000 0.000000 
#    y 0.000000 1.623120 0.000000 
#    z 0.000000 0.000000 1.674220 
# 
# From -- ./inp_files/20428.got.cif
#   From: 2010.03.12/outbox.cif.g09.slc.cpg/sg91_11_cif.got.tgz:20428.got - 2010.04.08 20:27:58.
