data_PCOD8304917
_publ_section_title
;
Structure prediction by ZEFSAII (Michael W. Deem and Ramdas Pophale) SiO2 
 PCOD8304917
Probable space group: P 41 2 2
;
_chemical_formula_sum "Si O2"
_cell_formula_units_Z 48
_cell_length_a 8.635005
_cell_length_b 8.635005
_cell_length_c 28.358608
_cell_angle_alpha 90.000000
_cell_angle_beta 90.000000
_cell_angle_gamma 90.000000
_cell_volume 2114.511718
_symmetry_space_group_name_H-M "P 41 2 2"
_symmetry_group_IT_number 91
_symmetry_cell_setting 'tetragonal'
loop_
_space_group_symop_operation_xyz
x,y,z
-y,x,1/4+z
-x,-y,1/2+z
y,-x,3/4+z
x,-y,1/2-z
-x,y,-z
y,x,3/4-z
-y,-x,1/4-z
loop_
_atom_site_type_symbol
_atom_site_label
_atom_site_fract_x
_atom_site_fract_y
_atom_site_fract_z
Si Si1 0.853776 0.375426 0.418192
Si Si2 0.676147 0.692189 0.320066
Si Si3 0.570186 0.181272 0.634214
Si Si4 0.650080 0.705576 0.569360
Si Si5 0.177867 0.100392 0.994091
Si Si6 0.162566 0.614511 0.287995
O O1 0.774709 0.518714 0.444845
O O2 0.820714 0.358302 0.363093
O O3 0.778926 0.237235 0.447877
O O4 0.039445 0.388193 0.419270
O O5 0.670795 0.670795 0.375000
O O6 0.689769 0.521636 0.296388
O O7 0.814355 0.808292 0.306317
O O8 0.731314 0.268687 0.625000
O O9 0.463348 0.298584 0.663270
O O10 0.483005 0.126579 0.585852
O O11 0.776913 0.772836 0.533461
O O12 0.318126 0.978130 0.993292
O O13 0.000000 0.040026 0.000000
O O14 0.248678 0.500000 0.250000
#
# Coordination Sequence:
#
# PCOD8304917 Si02
#       6
#     8   8   8   8   8   8
#     4  10  22  39  63  93 126 165 214 272 330 393
#     4  10  20  40  65  90 122 167 214 259 315 390
#     4  11  23  43  69  99 134 177 230 286 348 421
#     4  10  21  41  65  91 127 176 222 262 329 413
#     4  12  25  40  63  95 128 165 216 276 334 398
#     4  11  24  43  65  94 134 178 219 273 346 417
#
# _framework density 22.700278999999998
#
# number of rings (size 3 to 8) (size 9 to 14) (size 15 to 20)
#    0.000    1.333    0.000    8.000    0.000    6.667 
#    0.000    2.500    0.000    0.000    0.000    0.000 
#    0.000    0.000    0.000    0.000    0.000    0.000 
#
# Total GULP energy -594654.283312 kJ/mol
# GULP energy per Si atom -12388.630902 kJ/mol
# Density = 2.264861 g / cm^3
# Si number density = 22.700279 Si / 1000 Ang^3
#
#
#
# Elastic Constant Matrix: (Units=GPa)
#
#
# Indices 1 2 3 4 5 6 
#
# 1 111.8137 40.8939 34.2316 0.0000 0.0000 0.0000
# 2 40.8939 111.8147 34.2317 0.0000 0.0000 0.0000
# 3 34.2316 34.2317 42.0486 0.0000 0.0000 0.0000
# 4 0.0000 0.0000 0.0000 26.3418 0.0000 0.0000
# 5 0.0000 0.0000 0.0000 0.0000 26.3417 0.0000
# 6 0.0000 0.0000 0.0000 0.0000 0.0000 33.4053
#
#
#
# Elastic Compliance Matrix: (Units=1/GPa)
#
#
# Indices 1 2 3 4 5 6 
#
# 1 0.012206 -0.001894 -0.008395 0.000000 0.000000 0.000000
# 2 -0.001894 0.012206 -0.008395 0.000000 0.000000 0.000000
# 3 -0.008395 -0.008395 0.037451 0.000000 0.000000 0.000000
# 4 0.000000 0.000000 0.000000 0.037963 0.000000 0.000000
# 5 0.000000 0.000000 0.000000 0.000000 0.037963 0.000000
# 6 0.000000 0.000000 0.000000 0.000000 0.000000 0.029935
#
#
# Mechanical properties :
#
#
# Convention : Reuss Voigt Hill
#
# Bulk Modulus (GPa) = 40.82500 53.82126 47.32313
# Shear Modulus (GPa) = 23.44581 27.63908 25.54245
#
# Velocity S-wave (km/s) = 3.21727 3.49315 3.35805
# Velocity P-wave (km/s) = 5.64132 6.32696 5.99395
#
# Compressibility (1/GPa) = 0.02449479
#
# Stress axis : x y z
#
# Youngs Moduli (GPa) = 81.92463 81.92540 26.70158
#
# Poissons Ratio (x) = 0.15517 0.22416
# Poissons Ratio (y) = 0.15517 0.22416
# Poissons Ratio (z) = 0.68777 0.68777
#
# Static dielectric constant tensor:
#      x y z
#    x 4.151840 0.000000 0.000000 
#    y 0.000000 4.151840 0.000000 
#    z 0.000000 0.000000 3.949700 
# 
# 
# High freq. dielectric constant tensor:
#      x y z
#    x 1.895440 0.000000 0.000000 
#    y 0.000000 1.895440 0.000000 
#    z 0.000000 0.000000 1.891230 
# 
# From -- ./inp_files/7958.got.cif
#   From: 2010.03.12/outbox.cif.g09.slc.cpg/sg91_4_cif.got.tgz:7958.got - 2010.04.08 20:27:58.
