data_PCOD8304909
_publ_section_title
;
Structure prediction by ZEFSAII (Michael W. Deem and Ramdas Pophale) SiO2 
 PCOD8304909
Probable space group: P 41 2 2
;
_chemical_formula_sum "Si O2"
_cell_formula_units_Z 40
_cell_length_a 9.355620
_cell_length_b 9.355620
_cell_length_c 21.161062
_cell_angle_alpha 90.000000
_cell_angle_beta 90.000000
_cell_angle_gamma 90.000000
_cell_volume 1852.177512
_symmetry_space_group_name_H-M "P 41 2 2"
_symmetry_group_IT_number 91
_symmetry_cell_setting 'tetragonal'
loop_
_space_group_symop_operation_xyz
x,y,z
-y,x,1/4+z
-x,-y,1/2+z
y,-x,3/4+z
x,-y,1/2-z
-x,y,-z
y,x,3/4-z
-y,-x,1/4-z
loop_
_atom_site_type_symbol
_atom_site_label
_atom_site_fract_x
_atom_site_fract_y
_atom_site_fract_z
Si Si1 0.427954 0.000000 0.750000
Si Si2 0.182973 0.385810 0.664660
Si Si3 0.331954 0.075508 0.497466
Si Si4 0.930105 0.306917 0.129657
Si Si5 0.373286 0.255928 0.221854
Si Si6 0.500000 0.577327 0.500000
O O1 0.327471 0.005860 0.688163
O O2 0.529231 0.863391 0.753540
O O3 0.143333 0.549171 0.652903
O O4 0.214206 0.313178 0.597470
O O5 0.324552 0.393672 0.707968
O O6 0.051908 0.296943 0.697420
O O7 0.500000 0.089530 0.500000
O O8 0.274375 0.235354 0.481568
O O9 0.263634 0.041236 0.565941
O O10 0.812724 0.187277 0.125000
O O11 0.470836 0.396721 0.211202
#
# Coordination Sequence:
#
# PCOD8304909 Si02
#       6
#     4   8   8   8   8   4
#     4  10  24  40  62  98 140 162 226 288 338 388
#     4  10  21  38  63  94 137 171 221 280 329 402
#     4  10  21  41  61  92 139 173 212 271 345 405
#     4  10  20  39  65  91 128 176 222 274 327 392
#     4  11  24  40  63 101 134 175 216 280 340 406
#     4  12  20  38  70 100 130 164 236 280 332 394
#
# _framework density 21.596205000000001
#
# number of rings (size 3 to 8) (size 9 to 14) (size 15 to 20)
#    0.000    1.600    4.000    3.000    2.800    0.000 
#    0.000   12.000    0.000    0.000    0.000    0.000 
#    0.000    0.000    0.000    0.000    0.000    0.000 
#
# Total GULP energy -495695.063219 kJ/mol
# GULP energy per Si atom -12392.376580 kJ/mol
# Density = 2.154705 g / cm^3
# Si number density = 21.596205 Si / 1000 Ang^3
#
#
#
# Elastic Constant Matrix: (Units=GPa)
#
#
# Indices 1 2 3 4 5 6 
#
# 1 85.8332 28.0710 44.2907 0.0000 0.0000 0.0000
# 2 28.0710 85.8296 44.2905 0.0000 0.0000 0.0000
# 3 44.2907 44.2905 130.9536 0.0000 0.0000 0.0000
# 4 0.0000 0.0000 0.0000 26.4855 0.0000 0.0000
# 5 0.0000 0.0000 0.0000 0.0000 26.4883 0.0000
# 6 0.0000 0.0000 0.0000 0.0000 0.0000 77.3707
#
#
#
# Elastic Compliance Matrix: (Units=1/GPa)
#
#
# Indices 1 2 3 4 5 6 
#
# 1 0.014613 -0.002700 -0.004029 0.000000 0.000000 0.000000
# 2 -0.002700 0.014613 -0.004029 0.000000 0.000000 0.000000
# 3 -0.004029 -0.004029 0.010362 0.000000 0.000000 0.000000
# 4 0.000000 0.000000 0.000000 0.037756 0.000000 0.000000
# 5 0.000000 0.000000 0.000000 0.000000 0.037753 0.000000
# 6 0.000000 0.000000 0.000000 0.000000 0.000000 0.012925
#
#
# Mechanical properties :
#
#
# Convention : Reuss Voigt Hill
#
# Bulk Modulus (GPa) = 55.33738 59.54676 57.44207
# Shear Modulus (GPa) = 32.14166 38.46654 35.30410
#
# Velocity S-wave (km/s) = 3.86204 4.22497 4.04757
# Velocity P-wave (km/s) = 6.75029 7.17169 6.96418
#
# Compressibility (1/GPa) = 0.01807097
#
# Stress axis : x y z
#
# Youngs Moduli (GPa) = 68.43451 68.43112 96.50906
#
# Poissons Ratio (x) = 0.18476 0.38884
# Poissons Ratio (y) = 0.18477 0.38886
# Poissons Ratio (z) = 0.27572 0.27573
#
# Static dielectric constant tensor:
#      x y z
#    x 4.493800 0.000000 0.000000 
#    y 0.000000 4.494110 0.000000 
#    z 0.000000 0.000000 4.327620 
# 
# 
# High freq. dielectric constant tensor:
#      x y z
#    x 1.839690 0.000000 0.000000 
#    y 0.000000 1.839690 0.000000 
#    z 0.000000 0.000000 1.842780 
# 
# From -- ./inp_files/6805.got.cif
#   From: 2010.03.12/outbox.cif.g09.slc.cpg/sg91_4_cif.got.tgz:6805.got - 2010.04.08 20:27:58.
