data_PCOD8304478
_publ_section_title
;
Structure prediction by ZEFSAII (Michael W. Deem and Ramdas Pophale) SiO2 
 PCOD8304478
Probable space group: P 4 2 2
;
_chemical_formula_sum "Si O2"
_cell_formula_units_Z 64
_cell_length_a 18.324086
_cell_length_b 18.324086
_cell_length_c 13.125321
_cell_angle_alpha 90.000000
_cell_angle_beta 90.000000
_cell_angle_gamma 90.000000
_cell_volume 4407.116959
_symmetry_space_group_name_H-M "P 4 2 2"
_symmetry_group_IT_number 89
_symmetry_cell_setting 'tetragonal'
loop_
_space_group_symop_operation_xyz
x,y,z
-y,x,z
-x,-y,z
y,-x,z
x,-y,-z
-x,y,-z
y,x,-z
-y,-x,-z
loop_
_atom_site_type_symbol
_atom_site_label
_atom_site_fract_x
_atom_site_fract_y
_atom_site_fract_z
Si Si1 0.644055 0.913171 0.494330
Si Si2 0.912642 0.422211 0.283556
Si Si3 0.947907 0.105617 0.278931
Si Si4 0.308343 0.910750 0.887689
Si Si5 0.919536 0.700727 0.122381
Si Si6 0.193685 0.919351 0.541136
Si Si7 0.414750 0.085744 0.709952
Si Si8 0.147959 0.844118 0.115346
O O1 0.603654 0.881872 0.393845
O O2 0.727527 0.886982 0.484883
O O3 0.610058 0.882442 0.599560
O O4 0.640262 0.000000 0.500000
O O5 0.886298 0.374467 0.186527
O O6 0.884287 0.504437 0.264917
O O7 0.999046 0.417713 0.292446
O O8 0.920414 0.177862 0.338086
O O9 0.924634 0.120259 0.163419
O O10 0.032071 0.095841 0.306079
O O11 0.242826 0.854379 0.865673
O O12 0.285097 0.994132 0.863199
O O13 0.328518 0.903613 0.007833
O O14 0.889303 0.640224 0.201096
O O15 0.877556 0.775168 0.152822
O O16 0.131445 0.868556 0.500000
O O17 0.183141 0.000000 0.500000
O O18 0.136076 0.863925 0.000000
#
# Coordination Sequence:
#
# PCOD8304478 Si02
#       8
#     8   8   8   8   8   8   8   8
#     4   9  18  28  42  61  78 102 130 163 209 257
#     4   9  16  29  45  61  83 100 128 166 211 259
#     4  11  22  31  42  56  73 104 146 189 228 258
#     4   9  17  30  44  61  79 108 138 174 214 252
#     4   9  18  29  44  61  81 104 141 175 213 254
#     4  11  21  32  44  57  80 109 142 184 219 254
#     4   9  17  28  44  63  81 102 125 169 212 253
#     4  10  20  32  45  58  80 109 139 179 219 259
#
# _framework density 14.521965
#
# number of rings (size 3 to 8) (size 9 to 14) (size 15 to 20)
#    0.000    2.375    1.250    1.875    1.750    5.625 
#    0.000    3.125    0.000    0.000    0.000    0.000 
#    0.000    0.000    0.000    0.000    0.000    0.625 
#
# Total GULP energy -792972.790422 kJ/mol
# GULP energy per Si atom -12390.199850 kJ/mol
# Density = 1.448891 g / cm^3
# Si number density = 14.521965 Si / 1000 Ang^3
#
#
#
# Elastic Constant Matrix: (Units=GPa)
#
#
# Indices 1 2 3 4 5 6 
#
# 1 53.0920 38.0788 37.4924 0.0000 0.0000 0.0000
# 2 38.0788 53.0903 37.4924 0.0000 0.0000 0.0000
# 3 37.4924 37.4924 99.9019 0.0000 0.0000 0.0000
# 4 0.0000 0.0000 0.0000 28.3780 0.0000 0.0000
# 5 0.0000 0.0000 0.0000 0.0000 28.3682 0.0000
# 6 0.0000 0.0000 0.0000 0.0000 0.0000 3.0572
#
#
#
# Elastic Compliance Matrix: (Units=1/GPa)
#
#
# Indices 1 2 3 4 5 6 
#
# 1 0.041238 -0.025373 -0.005954 0.000000 0.000000 0.000000
# 2 -0.025373 0.041240 -0.005955 0.000000 0.000000 0.000000
# 3 -0.005954 -0.005955 0.014479 0.000000 0.000000 0.000000
# 4 0.000000 0.000000 0.000000 0.035239 0.000000 0.000000
# 5 0.000000 0.000000 0.000000 0.000000 0.035251 0.000000
# 6 0.000000 0.000000 0.000000 0.000000 0.000000 0.327102
#
#
# Mechanical properties :
#
#
# Convention : Reuss Voigt Hill
#
# Bulk Modulus (GPa) = 44.65608 48.02349 46.33979
# Shear Modulus (GPa) = 8.67189 18.16205 13.41697
#
# Velocity S-wave (km/s) = 2.44633 3.54030 3.04288
# Velocity P-wave (km/s) = 6.22871 7.06067 6.65770
#
# Compressibility (1/GPa) = 0.02239337
#
# Stress axis : x y z
#
# Youngs Moduli (GPa) = 24.24949 24.24849 69.06548
#
# Poissons Ratio (x) = 0.61526 0.41121
# Poissons Ratio (y) = 0.61528 0.41126
# Poissons Ratio (z) = 0.14438 0.14439
#
# Static dielectric constant tensor:
#      x y z
#    x 2.642160 0.000000 0.000000 
#    y 0.000000 2.642210 0.000000 
#    z 0.000000 0.000000 3.038620 
# 
# 
# High freq. dielectric constant tensor:
#      x y z
#    x 1.516750 0.000000 0.000000 
#    y 0.000000 1.516750 0.000000 
#    z 0.000000 0.000000 1.577560 
# 
# From -- ./inp_files/1941.got.cif
#   From: 2010.03.12/outbox.cif.g09.slc.cpg/sg89_1_cif.got.tgz:1941.got - 2010.04.08 20:24:03.
