data_PCOD8304552
_publ_section_title
;
Structure prediction by ZEFSAII (Michael W. Deem and Ramdas Pophale) SiO2 
 PCOD8304552
Probable space group: P 4 21 2
;
_chemical_formula_sum "Si O2"
_cell_formula_units_Z 38
_cell_length_a 8.520286
_cell_length_b 8.520286
_cell_length_c 25.847182
_cell_angle_alpha 90.000000
_cell_angle_beta 90.000000
_cell_angle_gamma 90.000000
_cell_volume 1876.383247
_symmetry_space_group_name_H-M "P 4 21 2"
_symmetry_group_IT_number 90
_symmetry_cell_setting 'tetragonal'
loop_
_space_group_symop_operation_xyz
x,y,z
1/2-y,1/2+x,z
-x,-y,z
1/2+y,1/2-x,z
1/2+x,1/2-y,-z
1/2-x,1/2+y,-z
y,x,-z
-y,-x,-z
loop_
_atom_site_type_symbol
_atom_site_label
_atom_site_fract_x
_atom_site_fract_y
_atom_site_fract_z
Si Si1 0.082478 0.254999 0.842438
Si Si2 0.976314 0.244489 0.588699
Si Si3 0.423756 0.756025 0.039692
Si Si4 0.500000 0.500000 0.325157
Si Si5 0.000000 0.000000 0.500000
Si Si6 0.560907 0.253748 0.759981
O O1 0.195140 0.403593 0.830760
O O2 0.098967 0.198296 0.901542
O O3 0.131912 0.105953 0.807662
O O4 0.140719 0.330808 0.591000
O O5 0.941101 0.138581 0.638348
O O6 0.987999 0.152846 0.535162
O O7 0.600249 0.807128 0.029063
O O8 0.383129 0.616872 0.000000
O O9 0.356815 0.570453 0.291787
O O10 0.385624 0.187183 0.762251
#
# Coordination Sequence:
#
# PCOD8304552 Si02
#       6
#     8   8   8   4   2   8
#     4   9  19  37  58  78 105 145 188 230 284 352
#     4  10  21  37  59  87 117 153 196 234 274 330
#     4   9  19  35  54  78 108 141 179 223 273 334
#     4  11  22  39  58  80 113 152 189 234 284 336
#     4  10  20  36  60  88 124 156 186 236 286 320
#     4  11  23  37  55  81 111 143 184 237 292 342
#
# _framework density 20.251726000000001
#
# number of rings (size 3 to 8) (size 9 to 14) (size 15 to 20)
#    0.000    2.105    0.000    4.421    0.000    2.105 
#    0.000    8.421    0.000   10.105    0.000    0.000 
#    0.000    0.000    0.000    0.000    0.000    0.000 
#
# Total GULP energy -471119.170648 kJ/mol
# GULP energy per Si atom -12397.872912 kJ/mol
# Density = 2.020563 g / cm^3
# Si number density = 20.251726 Si / 1000 Ang^3
#
#
#
# Elastic Constant Matrix: (Units=GPa)
#
#
# Indices 1 2 3 4 5 6 
#
# 1 83.9267 39.2804 58.1030 0.0000 0.0000 0.0000
# 2 39.2804 83.9321 58.1061 0.0000 0.0000 0.0000
# 3 58.1030 58.1061 146.3227 0.0000 0.0000 0.0000
# 4 0.0000 0.0000 0.0000 81.8575 0.0000 0.0000
# 5 0.0000 0.0000 0.0000 0.0000 81.8563 0.0000
# 6 0.0000 0.0000 0.0000 0.0000 0.0000 -28.1798
#
#
#
# Elastic Compliance Matrix: (Units=1/GPa)
#
#
# Indices 1 2 3 4 5 6 
#
# 1 0.017687 -0.004710 -0.005153 0.000000 0.000000 0.000000
# 2 -0.004710 0.017686 -0.005153 0.000000 0.000000 0.000000
# 3 -0.005153 -0.005153 0.010927 0.000000 0.000000 0.000000
# 4 0.000000 0.000000 0.000000 0.012216 0.000000 0.000000
# 5 0.000000 0.000000 0.000000 0.000000 0.012217 0.000000
# 6 0.000000 0.000000 0.000000 0.000000 0.000000 -0.035486
#
#
# Mechanical properties :
#
#
# Convention : Reuss Voigt Hill
#
# Bulk Modulus (GPa) = 61.47131 69.46228 65.46680
# Shear Modulus (GPa) = 70.72035 37.68627 54.20331
#
# Velocity S-wave (km/s) = 5.91578 4.31849 5.17908
# Velocity P-wave (km/s) = 8.77961 7.69673 8.25594
#
# Compressibility (1/GPa) = 0.01626775
#
# Stress axis : x y z
#
# Youngs Moduli (GPa) = 56.53859 56.54132 91.51964
#
# Poissons Ratio (x) = 0.26632 0.47158
# Poissons Ratio (y) = 0.26631 0.47160
# Poissons Ratio (z) = 0.29133 0.29135
#
# Static dielectric constant tensor:
#      x y z
#    x 3.575550 0.000000 0.000000 
#    y 0.000000 3.575550 0.000000 
#    z 0.000000 0.000000 3.652590 
# 
# 
# High freq. dielectric constant tensor:
#      x y z
#    x 1.796860 0.000000 0.000000 
#    y 0.000000 1.796860 0.000000 
#    z 0.000000 0.000000 1.795090 
# 
# From -- ./inp_files/2912.got.cif
#   From: 2010.03.12/outbox.cif.g09.slc.cpg/sg90_2_cif.got.tgz:2912.got - 2010.04.08 20:26:03.
