data_PCOD8304479
_publ_section_title
;
Structure prediction by ZEFSAII (Michael W. Deem and Ramdas Pophale) SiO2 
 PCOD8304479
Probable space group: P 4 2 2
;
_chemical_formula_sum "Si O2"
_cell_formula_units_Z 60
_cell_length_a 11.501282
_cell_length_b 11.501282
_cell_length_c 22.367671
_cell_angle_alpha 90.000000
_cell_angle_beta 90.000000
_cell_angle_gamma 90.000000
_cell_volume 2958.784060
_symmetry_space_group_name_H-M "P 4 2 2"
_symmetry_group_IT_number 89
_symmetry_cell_setting 'tetragonal'
loop_
_space_group_symop_operation_xyz
x,y,z
-y,x,z
-x,-y,z
y,-x,z
x,-y,-z
-x,y,-z
y,x,-z
-y,-x,-z
loop_
_atom_site_type_symbol
_atom_site_label
_atom_site_fract_x
_atom_site_fract_y
_atom_site_fract_z
Si Si1 0.895796 0.157058 0.289583
Si Si2 0.591625 0.671619 0.094933
Si Si3 0.405304 0.667469 0.300414
Si Si4 0.093025 0.171299 0.102914
Si Si5 0.738142 0.744013 0.801896
Si Si6 0.624196 0.134554 0.505249
Si Si7 0.237128 0.241800 0.397562
Si Si8 0.755250 0.244751 0.000000
O O1 0.844621 0.255575 0.245321
O O2 0.859834 0.179198 0.358003
O O3 0.031393 0.158659 0.275878
O O4 0.453694 0.656740 0.091722
O O5 0.629461 0.736238 0.156023
O O6 0.637964 0.751623 0.040424
O O7 0.342420 0.542801 0.301194
O O8 0.376740 0.739276 0.239688
O O9 0.355319 0.732787 0.358274
O O10 0.139125 0.250351 0.157841
O O11 0.130683 0.238439 0.042367
O O12 0.954656 0.157026 0.105468
O O13 0.500000 0.198640 0.500000
O O14 0.715196 0.160381 0.452716
O O15 0.656880 0.175695 0.571637
O O16 0.605927 0.000000 0.500000
#
# Coordination Sequence:
#
# PCOD8304479 Si02
#       8
#     8   8   8   8   8   8   8   4
#     4  10  20  35  55  77 102 135 175 217 260 307
#     4  10  20  36  58  80 104 139 179 215 256 308
#     4  10  20  35  55  77 102 135 175 217 260 307
#     4  10  20  36  58  80 104 139 179 215 256 308
#     4  10  20  32  54  80 104 130 170 216 260 306
#     4  10  20  34  52  76 108 142 172 210 266 320
#     4  10  20  34  54  78 104 136 178 220 256 306
#     4  10  20  32  56  84 108 132 172 220 256 296
#
# _framework density 20.278601999999999
#
# number of rings (size 3 to 8) (size 9 to 14) (size 15 to 20)
#    0.000    2.000    0.000    4.000    0.000    3.200 
#    0.000    0.000    0.000   92.800    0.000    0.000 
#    0.000    0.000    0.000    0.000    0.000    0.000 
#
# Total GULP energy -743319.142438 kJ/mol
# GULP energy per Si atom -12388.652374 kJ/mol
# Density = 2.023245 g / cm^3
# Si number density = 20.278602 Si / 1000 Ang^3
#
#
#
# Elastic Constant Matrix: (Units=GPa)
#
#
# Indices 1 2 3 4 5 6 
#
# 1 53.4513 40.0726 22.3800 0.0000 0.0000 0.0000
# 2 40.0726 53.4514 22.3800 0.0000 0.0000 0.0000
# 3 22.3800 22.3800 120.9140 0.0000 0.0000 0.0000
# 4 0.0000 0.0000 0.0000 28.6999 0.0000 0.0000
# 5 0.0000 0.0000 0.0000 0.0000 28.7000 0.0000
# 6 0.0000 0.0000 0.0000 0.0000 0.0000 64.3954
#
#
#
# Elastic Compliance Matrix: (Units=1/GPa)
#
#
# Indices 1 2 3 4 5 6 
#
# 1 0.043239 -0.031507 -0.002171 0.000000 0.000000 0.000000
# 2 -0.031507 0.043239 -0.002171 0.000000 0.000000 0.000000
# 3 -0.002171 -0.002171 0.009074 0.000000 0.000000 0.000000
# 4 0.000000 0.000000 0.000000 0.034843 0.000000 0.000000
# 5 0.000000 0.000000 0.000000 0.000000 0.034843 0.000000
# 6 0.000000 0.000000 0.000000 0.000000 0.000000 0.015529
#
#
# Mechanical properties :
#
#
# Convention : Reuss Voigt Hill
#
# Bulk Modulus (GPa) = 41.92548 44.16465 43.04507
# Shear Modulus (GPa) = 19.19998 33.89134 26.54566
#
# Velocity S-wave (km/s) = 3.08037 4.09257 3.62200
# Velocity P-wave (km/s) = 5.77678 6.64518 6.22614
#
# Compressibility (1/GPa) = 0.02385184
#
# Stress axis : x y z
#
# Youngs Moduli (GPa) = 23.12749 23.12751 110.20308
#
# Poissons Ratio (x) = 0.72868 0.23930
# Poissons Ratio (y) = 0.72868 0.23930
# Poissons Ratio (z) = 0.05022 0.05022
#
# Static dielectric constant tensor:
#      x y z
#    x 3.604860 0.000000 0.000000 
#    y 0.000000 3.604860 0.000000 
#    z 0.000000 0.000000 4.005920 
# 
# 
# High freq. dielectric constant tensor:
#      x y z
#    x 1.775940 0.000000 0.000000 
#    y 0.000000 1.775940 0.000000 
#    z 0.000000 0.000000 1.818720 
# 
# From -- ./inp_files/2651.got.cif
#   From: 2010.03.12/outbox.cif.g09.slc.cpg/sg89_2_cif.got.tgz:2651.got - 2010.04.08 20:24:03.
