data_PCOD8304907
_publ_section_title
;
Structure prediction by ZEFSAII (Michael W. Deem and Ramdas Pophale) SiO2 
 PCOD8304907
Probable space group: P 41 2 2
;
_chemical_formula_sum "Si O2"
_cell_formula_units_Z 48
_cell_length_a 8.750484
_cell_length_b 8.750484
_cell_length_c 31.297548
_cell_angle_alpha 90.000000
_cell_angle_beta 90.000000
_cell_angle_gamma 90.000000
_cell_volume 2396.483616
_symmetry_space_group_name_H-M "P 41 2 2"
_symmetry_group_IT_number 91
_symmetry_cell_setting 'tetragonal'
loop_
_space_group_symop_operation_xyz
x,y,z
-y,x,1/4+z
-x,-y,1/2+z
y,-x,3/4+z
x,-y,1/2-z
-x,y,-z
y,x,3/4-z
-y,-x,1/4-z
loop_
_atom_site_type_symbol
_atom_site_label
_atom_site_fract_x
_atom_site_fract_y
_atom_site_fract_z
Si Si1 0.794182 0.690809 0.575236
Si Si2 0.399799 0.585558 0.041013
Si Si3 0.622078 0.301619 0.839324
Si Si4 0.179377 0.215726 0.508709
Si Si5 0.301956 0.846773 0.662950
Si Si6 0.179392 0.875163 0.504806
O O1 0.714895 0.541384 0.557263
O O2 0.725500 0.739228 0.620311
O O3 0.754060 0.822273 0.540784
O O4 0.974625 0.662755 0.580837
O O5 0.517050 0.629962 0.078927
O O6 0.287643 0.725643 0.029606
O O7 0.500000 0.532231 0.000000
O O8 0.682836 0.202985 0.800230
O O9 0.451498 0.247919 0.849573
O O10 0.000000 0.225909 0.500000
O O11 0.237636 0.043732 0.516481
O O12 0.178468 0.821533 0.625000
O O13 0.238236 0.773796 0.706929
O O14 0.000000 0.878371 0.500000
#
# Coordination Sequence:
#
# PCOD8304907 Si02
#       6
#     8   8   8   8   8   8
#     4  11  22  38  60  86 117 155 194 238 293 350
#     4  10  21  37  57  83 117 155 193 236 286 346
#     4  11  23  38  57  87 121 151 192 241 289 345
#     4  10  20  39  62  84 113 152 195 240 288 340
#     4  11  22  39  61  85 116 155 196 240 291 347
#     4   9  20  37  59  85 113 148 192 239 288 342
#
# _framework density 20.029349
#
# number of rings (size 3 to 8) (size 9 to 14) (size 15 to 20)
#    0.000    1.667    0.000    5.500    0.000    2.667 
#    0.000   10.833    0.000    0.000    0.000    0.000 
#    0.000    0.000    0.000    0.000    0.000    0.000 
#
# Total GULP energy -595175.972559 kJ/mol
# GULP energy per Si atom -12399.499428 kJ/mol
# Density = 1.998376 g / cm^3
# Si number density = 20.029349 Si / 1000 Ang^3
#
#
#
# Elastic Constant Matrix: (Units=GPa)
#
#
# Indices 1 2 3 4 5 6 
#
# 1 108.2362 39.8256 37.2692 0.0000 0.0000 0.0000
# 2 39.8256 108.2357 37.2691 0.0000 0.0000 0.0000
# 3 37.2692 37.2691 90.3236 0.0000 0.0000 0.0000
# 4 0.0000 0.0000 0.0000 31.3128 0.0000 0.0000
# 5 0.0000 0.0000 0.0000 0.0000 31.3129 0.0000
# 6 0.0000 0.0000 0.0000 0.0000 0.0000 24.8265
#
#
#
# Elastic Compliance Matrix: (Units=1/GPa)
#
#
# Indices 1 2 3 4 5 6 
#
# 1 0.011571 -0.003046 -0.003517 0.000000 0.000000 0.000000
# 2 -0.003046 0.011571 -0.003517 0.000000 0.000000 0.000000
# 3 -0.003517 -0.003517 0.013974 0.000000 0.000000 0.000000
# 4 0.000000 0.000000 0.000000 0.031936 0.000000 0.000000
# 5 0.000000 0.000000 0.000000 0.000000 0.031936 0.000000
# 6 0.000000 0.000000 0.000000 0.000000 0.000000 0.040279
#
#
# Mechanical properties :
#
#
# Convention : Reuss Voigt Hill
#
# Bulk Modulus (GPa) = 58.98427 59.50257 59.24342
# Shear Modulus (GPa) = 29.92551 30.31921 30.12236
#
# Velocity S-wave (km/s) = 3.86953 3.89490 3.88224
# Velocity P-wave (km/s) = 7.03400 7.07101 7.05253
#
# Compressibility (1/GPa) = 0.01695367
#
# Stress axis : x y z
#
# Youngs Moduli (GPa) = 86.42158 86.42124 71.56126
#
# Poissons Ratio (x) = 0.26328 0.25171
# Poissons Ratio (y) = 0.26328 0.25171
# Poissons Ratio (z) = 0.30398 0.30398
#
# Static dielectric constant tensor:
#      x y z
#    x 3.762370 0.000000 0.000000 
#    y 0.000000 3.762370 0.000000 
#    z 0.000000 0.000000 3.941640 
# 
# 
# High freq. dielectric constant tensor:
#      x y z
#    x 1.782390 0.000000 0.000000 
#    y 0.000000 1.782390 0.000000 
#    z 0.000000 0.000000 1.791150 
# 
# From -- ./inp_files/7948.got.cif
#   From: 2010.03.12/outbox.cif.g09.slc.cpg/sg91_4_cif.got.tgz:7948.got - 2010.04.08 20:27:58.
