data_PCOD8304154
_publ_section_title
;
Structure prediction by ZEFSAII (Michael W. Deem and Ramdas Pophale) SiO2 
 PCOD8304154
Probable space group: I 4/M
;
_chemical_formula_sum "Si O2"
_cell_formula_units_Z 88
_cell_length_a 11.209318
_cell_length_b 11.209318
_cell_length_c 31.105280
_cell_angle_alpha 90.000000
_cell_angle_beta 90.000000
_cell_angle_gamma 90.000000
_cell_volume 3908.341417
_symmetry_space_group_name_H-M "I 4/M"
_symmetry_group_IT_number 87
_symmetry_cell_setting 'tetragonal'
loop_
_space_group_symop_operation_xyz
x,y,z
-y,x,z
-x,-y,z
y,-x,z
-x,-y,-z
y,-x,-z
x,y,-z
-y,x,-z
1/2+x,1/2+y,1/2+z
1/2-y,1/2+x,1/2+z
1/2-x,1/2-y,1/2+z
1/2+y,1/2-x,1/2+z
1/2-x,1/2-y,1/2-z
1/2+y,1/2-x,1/2-z
1/2+x,1/2+y,1/2-z
1/2-y,1/2+x,1/2-z
loop_
_atom_site_type_symbol
_atom_site_label
_atom_site_fract_x
_atom_site_fract_y
_atom_site_fract_z
Si Si1 0.639332 0.977582 0.802258
Si Si2 0.862544 0.283150 0.590577
Si Si3 0.513369 0.312097 0.769955
Si Si4 0.089204 0.823459 0.500000
Si Si5 0.435193 0.313036 0.365614
Si Si6 0.737230 0.079785 0.643803
O O1 0.682142 0.969170 0.752364
O O2 0.660524 0.856476 0.829512
O O3 0.500000 0.000000 0.804966
O O4 0.725121 0.078437 0.823930
O O5 0.871712 0.252703 0.540839
O O6 0.768388 0.392509 0.594315
O O7 0.823939 0.166793 0.617809
O O8 0.991299 0.323880 0.609069
O O9 0.624599 0.391411 0.754458
O O10 0.506611 0.302704 0.821450
O O11 0.948163 0.842241 0.500000
O O12 0.572465 0.351004 0.366484
#
# Coordination Sequence:
#
# PCOD8304154 Si02
#       6
#    16  16  16   8  16  16
#     4  12  26  42  66 102 140 192 250 308 362 431
#     4  12  24  46  73 111 151 192 246 310 382 456
#     4  11  26  44  65  97 143 199 248 306 362 432
#     4  11  24  42  76 117 156 198 241 307 389 472
#     4  11  24  46  75 104 142 197 246 304 376 443
#     4  12  25  41  70 104 151 193 249 306 375 446
#
# _framework density 22.515946
#
# number of rings (size 3 to 8) (size 9 to 14) (size 15 to 20)
#    0.000    0.455    7.273    1.091    2.545    2.545 
#    0.000    0.909    0.000    3.273    0.000    0.000 
#    0.000    0.000    0.000    0.000    0.000    0.000 
#
# Total GULP energy -545331.998064 kJ/mol
# GULP energy per Si atom -12393.909047 kJ/mol
# Density = 2.246470 g / cm^3
# Si number density = 22.515946 Si / 1000 Ang^3
#
#
#
# Elastic Constant Matrix: (Units=GPa)
#
#
# Indices 1 2 3 4 5 6 
#
# 1 107.5670 40.2360 49.6780 0.0000 0.0000 6.7867
# 2 40.2360 107.5670 49.6780 0.0000 0.0000 -6.7867
# 3 49.6780 49.6780 161.6902 0.0000 0.0000 0.0000
# 4 0.0000 0.0000 0.0000 35.9041 0.0000 0.0000
# 5 0.0000 0.0000 0.0000 0.0000 35.9041 0.0000
# 6 6.7867 -6.7867 0.0000 0.0000 0.0000 34.4473
#
#
#
# Elastic Compliance Matrix: (Units=1/GPa)
#
#
# Indices 1 2 3 4 5 6 
#
# 1 0.011997 -0.003470 -0.002620 0.000000 0.000000 -0.003047
# 2 -0.003470 0.011997 -0.002620 0.000000 0.000000 0.003047
# 3 -0.002620 -0.002620 0.007794 0.000000 0.000000 0.000000
# 4 0.000000 0.000000 0.000000 0.027852 0.000000 0.000000
# 5 0.000000 0.000000 0.000000 0.000000 0.027852 0.000000
# 6 -0.003047 0.003047 0.000000 0.000000 0.000000 0.030230
#
#
# Mechanical properties :
#
#
# Convention : Reuss Voigt Hill
#
# Bulk Modulus (GPa) = 69.59443 72.88981 71.24212
# Shear Modulus (GPa) = 35.73209 37.06661 36.39935
#
# Velocity S-wave (km/s) = 3.98800 4.06179 4.02506
# Velocity P-wave (km/s) = 7.22368 7.37837 7.30143
#
# Compressibility (1/GPa) = 0.01436897
#
# Stress axis : x y z
#
# Youngs Moduli (GPa) = 83.35726 83.35726 128.29571
#
# Poissons Ratio (x) = 0.28923 0.33611
# Poissons Ratio (y) = 0.28923 0.33611
# Poissons Ratio (z) = 0.21838 0.21838
#
# Static dielectric constant tensor:
#      x y z
#    x 4.203440 0.000000 0.000000 
#    y 0.000000 4.203440 0.000000 
#    z 0.000000 0.000000 3.882000 
# 
# 
# High freq. dielectric constant tensor:
#      x y z
#    x 1.897780 0.000000 0.000000 
#    y 0.000000 1.897780 0.000000 
#    z 0.000000 0.000000 1.859480 
# 
# From -- ./inp_files/6586.got.cif
#   From: 2010.03.12/outbox.cif.g09.slc.cpg/sg87_4_cif.got.tgz:6586.got - 2010.04.08 20:16:13.
