data_PCOD8304048
_publ_section_title
;
Structure prediction by ZEFSAII (Michael W. Deem and Ramdas Pophale) SiO2 
 PCOD8304048
Probable space group: I 4/M
;
_chemical_formula_sum "Si O2"
_cell_formula_units_Z 88
_cell_length_a 14.486083
_cell_length_b 14.486083
_cell_length_c 21.335810
_cell_angle_alpha 90.000000
_cell_angle_beta 90.000000
_cell_angle_gamma 90.000000
_cell_volume 4477.247201
_symmetry_space_group_name_H-M "I 4/M"
_symmetry_group_IT_number 87
_symmetry_cell_setting 'tetragonal'
loop_
_space_group_symop_operation_xyz
x,y,z
-y,x,z
-x,-y,z
y,-x,z
-x,-y,-z
y,-x,-z
x,y,-z
-y,x,-z
1/2+x,1/2+y,1/2+z
1/2-y,1/2+x,1/2+z
1/2-x,1/2-y,1/2+z
1/2+y,1/2-x,1/2+z
1/2-x,1/2-y,1/2-z
1/2+y,1/2-x,1/2-z
1/2+x,1/2+y,1/2-z
1/2-y,1/2+x,1/2-z
loop_
_atom_site_type_symbol
_atom_site_label
_atom_site_fract_x
_atom_site_fract_y
_atom_site_fract_z
Si Si1 0.250455 0.371201 0.382435
Si Si2 0.364135 0.436866 0.729624
Si Si3 0.638548 0.558807 0.125896
Si Si4 0.994718 0.606366 0.926366
Si Si5 0.635818 0.564509 0.500000
Si Si6 0.206791 0.324512 0.927178
O O1 0.283653 0.397048 0.313234
O O2 0.150679 0.418249 0.390316
O O3 0.313536 0.413460 0.436147
O O4 0.250430 0.260587 0.388123
O O5 0.456130 0.379846 0.714152
O O6 0.335014 0.426417 0.801670
O O7 0.547900 0.619005 0.110245
O O8 0.724731 0.589461 0.083522
O O9 0.896497 0.649380 0.904584
O O10 0.000000 0.500000 0.908216
O O11 0.008058 0.622339 0.000000
O O12 0.543751 0.622743 0.500000
O O13 0.205189 0.297358 0.000000
#
# Coordination Sequence:
#
# PCOD8304048 Si02
#       6
#    16  16  16  16   8  16
#     4  12  21  35  58  86 120 153 199 242 291 366
#     4   9  18  35  60  88 117 152 190 240 305 364
#     4   9  21  41  62  86 116 148 201 261 303 349
#     4  10  22  39  57  82 123 165 197 242 303 362
#     4  11  20  30  51  84 122 147 179 242 298 346
#     4  11  23  37  61  88 116 158 208 247 299 365
#
# _framework density 19.654933
#
# number of rings (size 3 to 8) (size 9 to 14) (size 15 to 20)
#    0.000    1.727    1.818    4.364    2.545    2.909 
#    0.000    0.909    0.000    0.000    0.000    0.000 
#    0.000    0.000    0.000    0.000    0.000    0.000 
#
# Total GULP energy -545681.872681 kJ/mol
# GULP energy per Si atom -12401.860743 kJ/mol
# Density = 1.961020 g / cm^3
# Si number density = 19.654933 Si / 1000 Ang^3
#
#
#
# Elastic Constant Matrix: (Units=GPa)
#
#
# Indices 1 2 3 4 5 6 
#
# 1 101.7205 44.3166 14.9835 0.0000 0.0000 3.9031
# 2 44.3166 101.7205 14.9835 0.0000 0.0000 -3.9031
# 3 14.9835 14.9835 27.9154 0.0000 0.0000 0.0000
# 4 0.0000 0.0000 0.0000 31.4677 0.0000 0.0000
# 5 0.0000 0.0000 0.0000 0.0000 31.4677 0.0000
# 6 3.9031 -3.9031 0.0000 0.0000 0.0000 33.8953
#
#
#
# Elastic Compliance Matrix: (Units=1/GPa)
#
#
# Indices 1 2 3 4 5 6 
#
# 1 0.012696 -0.005001 -0.004130 0.000000 0.000000 -0.002038
# 2 -0.005001 0.012696 -0.004130 0.000000 0.000000 0.002038
# 3 -0.004130 -0.004130 0.040256 0.000000 0.000000 0.000000
# 4 0.000000 0.000000 0.000000 0.031779 0.000000 0.000000
# 5 0.000000 0.000000 0.000000 0.000000 0.031779 0.000000
# 6 -0.002038 0.002038 0.000000 0.000000 0.000000 0.029972
#
#
# Mechanical properties :
#
#
# Convention : Reuss Voigt Hill
#
# Bulk Modulus (GPa) = 25.55887 42.21372 33.88629
# Shear Modulus (GPa) = 25.15800 29.83764 27.49782
#
# Velocity S-wave (km/s) = 3.58157 3.90047 3.74442
# Velocity P-wave (km/s) = 5.48958 6.46599 5.99769
#
# Compressibility (1/GPa) = 0.03912537
#
# Stress axis : x y z
#
# Youngs Moduli (GPa) = 78.76292 78.76292 24.84072
#
# Poissons Ratio (x) = 0.39391 0.10260
# Poissons Ratio (y) = 0.39391 0.10260
# Poissons Ratio (z) = 0.32532 0.32532
#
# Static dielectric constant tensor:
#      x y z
#    x 3.608260 0.000000 0.000000 
#    y 0.000000 3.608260 0.000000 
#    z 0.000000 0.000000 3.341860 
# 
# 
# High freq. dielectric constant tensor:
#      x y z
#    x 1.767410 0.000000 0.000000 
#    y 0.000000 1.767410 0.000000 
#    z 0.000000 0.000000 1.748780 
# 
# From -- ./inp_files/5775.got.cif
#   From: 2010.03.12/outbox.cif.g09.slc.cpg/sg87_3_cif.got.tgz:5775.got - 2010.04.08 20:16:13.
