data_PCOD8304414
_publ_section_title
;
Structure prediction by ZEFSAII (Michael W. Deem and Ramdas Pophale) SiO2 
 PCOD8304414
Probable space group: I 41/A
;
_chemical_formula_sum "Si O2"
_cell_formula_units_Z 88
_cell_length_a 11.098635
_cell_length_b 11.098635
_cell_length_c 32.435141
_cell_angle_alpha 90.000000
_cell_angle_beta 90.000000
_cell_angle_gamma 90.000000
_cell_volume 3995.350901
_symmetry_space_group_name_H-M "I 41/A"
_symmetry_group_IT_number 88
_space_group.IT_coordinate_system_code '2'
_symmetry_cell_setting 'tetragonal'
loop_
_space_group_symop_operation_xyz
x,y,z
3/4-y,1/4+x,1/4+z
-x,1/2-y,z
1/4+y,1/4-x,1/4+z
-x,-y,-z
1/4+y,3/4-x,3/4-z
x,1/2+y,-z
3/4-y,3/4+x,3/4-z
1/2+x,1/2+y,1/2+z
1/4-y,3/4+x,3/4+z
1/2-x,-y,1/2+z
3/4+y,3/4-x,3/4+z
1/2-x,1/2-y,1/2-z
3/4+y,1/4-x,1/4-z
1/2+x,y,1/2-z
1/4-y,1/4+x,1/4-z
loop_
_atom_site_type_symbol
_atom_site_label
_atom_site_fract_x
_atom_site_fract_y
_atom_site_fract_z
Si Si1 0.618295 0.039010 0.786086
Si Si2 0.647821 0.881019 0.326324
Si Si3 0.994771 0.944896 0.368116
Si Si4 0.500000 0.750000 0.990430
Si Si5 0.440203 0.926131 0.613242
Si Si6 0.064475 0.116824 0.020366
O O1 0.749478 0.035556 0.806608
O O2 0.522977 0.004915 0.822001
O O3 0.590959 0.173898 0.769205
O O4 0.608027 0.941030 0.750978
O O5 0.698993 0.760647 0.348496
O O6 0.565588 0.846479 0.288132
O O7 0.576073 0.949310 0.362551
O O8 0.117474 0.868708 0.367541
O O9 0.579924 0.890884 0.612672
O O10 0.401315 0.928986 0.565791
O O11 0.000000 0.250000 0.020176
O O12 0.000000 0.000000 0.000000
#
# Coordination Sequence:
#
# PCOD8304414 Si02
#       6
#    16  16  16   8  16  16
#     4  11  25  43  71  99 146 180 240 302 377 429
#     4  11  25  42  66 104 131 187 234 293 362 454
#     4   9  20  42  66  94 137 183 225 284 368 438
#     4  12  26  42  71 106 142 178 246 310 381 430
#     4  11  23  45  69  90 140 186 235 288 367 431
#     4  12  28  47  75 108 145 197 250 308 370 445
#
# _framework density 22.025601999999999
#
# number of rings (size 3 to 8) (size 9 to 14) (size 15 to 20)
#    0.000    1.091    1.818    4.909    5.091    7.273 
#    0.000    0.000    0.000    0.000    0.000    0.000 
#    0.000    0.000    0.000    0.000    0.000    0.000 
#
# Total GULP energy -545462.975446 kJ/mol
# GULP energy per Si atom -12396.885806 kJ/mol
# Density = 2.197547 g / cm^3
# Si number density = 22.025602 Si / 1000 Ang^3
#
#
#
# Elastic Constant Matrix: (Units=GPa)
#
#
# Indices 1 2 3 4 5 6 
#
# 1 72.5792 9.2852 18.3900 0.0000 0.0000 4.6448
# 2 9.2852 72.5792 18.3900 0.0000 0.0000 -4.6448
# 3 18.3900 18.3900 124.6946 0.0000 0.0000 0.0000
# 4 0.0000 0.0000 0.0000 43.3830 0.0000 0.0000
# 5 0.0000 0.0000 0.0000 0.0000 43.3830 0.0000
# 6 4.6448 -4.6448 0.0000 0.0000 0.0000 17.8126
#
#
#
# Elastic Compliance Matrix: (Units=1/GPa)
#
#
# Indices 1 2 3 4 5 6 
#
# 1 0.014755 -0.001673 -0.001929 0.000000 0.000000 -0.004284
# 2 -0.001673 0.014755 -0.001929 0.000000 0.000000 0.004284
# 3 -0.001929 -0.001929 0.008589 0.000000 0.000000 0.000000
# 4 0.000000 0.000000 0.000000 0.023051 0.000000 0.000000
# 5 0.000000 0.000000 0.000000 0.000000 0.023051 0.000000
# 6 -0.004284 0.004284 0.000000 0.000000 0.000000 0.058374
#
#
# Mechanical properties :
#
#
# Convention : Reuss Voigt Hill
#
# Bulk Modulus (GPa) = 36.98837 40.22037 38.60437
# Shear Modulus (GPa) = 30.74103 35.83490 33.28797
#
# Velocity S-wave (km/s) = 3.73995 4.03794 3.89180
# Velocity P-wave (km/s) = 5.95647 6.32774 6.14491
#
# Compressibility (1/GPa) = 0.02703553
#
# Stress axis : x y z
#
# Youngs Moduli (GPa) = 67.77331 67.77331 116.43239
#
# Poissons Ratio (x) = 0.11338 0.22464
# Poissons Ratio (y) = 0.11338 0.22464
# Poissons Ratio (z) = 0.13076 0.13076
#
# Static dielectric constant tensor:
#      x y z
#    x 3.998970 0.000000 0.000000 
#    y 0.000000 3.998970 0.000000 
#    z 0.000000 0.000000 4.244200 
# 
# 
# High freq. dielectric constant tensor:
#      x y z
#    x 1.860470 0.000000 0.000000 
#    y 0.000000 1.860470 0.000000 
#    z 0.000000 0.000000 1.890110 
# 
# From -- ./inp_files/6448.got.cif
#   From: 2010.03.12/outbox.cif.g09.slc.cpg/sg88_4_cif.got.tgz:6448.got - 2010.04.08 20:20:55.
