data_PCOD8304119
_publ_section_title
;
Structure prediction by ZEFSAII (Michael W. Deem and Ramdas Pophale) SiO2 
 PCOD8304119
Probable space group: I 4/M
;
_chemical_formula_sum "Si O2"
_cell_formula_units_Z 112
_cell_length_a 14.979340
_cell_length_b 14.979340
_cell_length_c 24.892671
_cell_angle_alpha 90.000000
_cell_angle_beta 90.000000
_cell_angle_gamma 90.000000
_cell_volume 5585.433123
_symmetry_space_group_name_H-M "I 4/M"
_symmetry_group_IT_number 87
_symmetry_cell_setting 'tetragonal'
loop_
_space_group_symop_operation_xyz
x,y,z
-y,x,z
-x,-y,z
y,-x,z
-x,-y,-z
y,-x,-z
x,y,-z
-y,x,-z
1/2+x,1/2+y,1/2+z
1/2-y,1/2+x,1/2+z
1/2-x,1/2-y,1/2+z
1/2+y,1/2-x,1/2+z
1/2-x,1/2-y,1/2-z
1/2+y,1/2-x,1/2-z
1/2+x,1/2+y,1/2-z
1/2-y,1/2+x,1/2-z
loop_
_atom_site_type_symbol
_atom_site_label
_atom_site_fract_x
_atom_site_fract_y
_atom_site_fract_z
Si Si1 0.090334 0.116045 0.559606
Si Si2 0.154529 0.177126 0.330670
Si Si3 0.973207 0.857994 0.062180
Si Si4 0.960887 0.713568 0.850588
Si Si5 0.132041 0.627043 0.807715
Si Si6 0.922605 0.332408 0.688888
Si Si7 0.363628 0.545471 0.266301
O O1 0.117569 0.151139 0.500000
O O2 0.136396 0.174711 0.605639
O O3 0.984746 0.122830 0.566638
O O4 0.185189 0.277559 0.315312
O O5 0.229158 0.105922 0.313075
O O6 0.063708 0.155497 0.296856
O O7 0.955306 0.768637 0.094828
O O8 0.069655 0.897964 0.077166
O O9 0.968411 0.833068 0.000000
O O10 0.887836 0.635226 0.854191
O O11 0.933365 0.774985 0.799670
O O12 0.058326 0.670180 0.846204
O O13 0.095325 0.627902 0.747591
O O14 0.154395 0.525982 0.825798
O O15 0.388993 0.444634 0.281548
#
# Coordination Sequence:
#
# PCOD8304119 Si02
#       7
#    16  16  16  16  16  16  16
#     4   9  18  35  60  87 118 156 195 243 311 380
#     4  12  23  38  60  90 121 160 213 268 313 379
#     4   9  20  41  69  99 133 172 214 271 340 393
#     4  12  24  37  64  90 126 168 215 260 308 391
#     4  12  24  42  60  87 128 169 210 253 319 386
#     4  12  25  40  62  87 125 174 213 253 316 391
#     4  11  22  35  56  90 125 155 191 257 331 374
#
# _framework density 20.052161000000002
#
# number of rings (size 3 to 8) (size 9 to 14) (size 15 to 20)
#    0.000    1.000    2.857    6.000    4.000    2.286 
#    0.000    1.429    0.000    3.429    0.000    0.000 
#    0.000    0.000    0.000    0.000    0.000    0.000 
#
# Total GULP energy -694450.462238 kJ/mol
# GULP energy per Si atom -12400.901111 kJ/mol
# Density = 2.000652 g / cm^3
# Si number density = 20.052161 Si / 1000 Ang^3
#
#
#
# Elastic Constant Matrix: (Units=GPa)
#
#
# Indices 1 2 3 4 5 6 
#
# 1 80.7758 28.3583 32.0617 0.0000 0.0000 2.8354
# 2 28.3583 80.7758 32.0617 0.0000 0.0000 -2.8354
# 3 32.0617 32.0617 96.6085 0.0000 0.0000 0.0000
# 4 0.0000 0.0000 0.0000 26.0166 0.0000 0.0000
# 5 0.0000 0.0000 0.0000 0.0000 26.0166 0.0000
# 6 2.8354 -2.8354 0.0000 0.0000 0.0000 31.8679
#
#
#
# Elastic Compliance Matrix: (Units=1/GPa)
#
#
# Indices 1 2 3 4 5 6 
#
# 1 0.015323 -0.003940 -0.003778 0.000000 0.000000 -0.001714
# 2 -0.003940 0.015323 -0.003778 0.000000 0.000000 0.001714
# 3 -0.003778 -0.003778 0.012858 0.000000 0.000000 0.000000
# 4 0.000000 0.000000 0.000000 0.038437 0.000000 0.000000
# 5 0.000000 0.000000 0.000000 0.000000 0.038437 0.000000
# 6 -0.001714 0.001714 0.000000 0.000000 0.000000 0.031685
#
#
# Mechanical properties :
#
#
# Convention : Reuss Voigt Hill
#
# Bulk Modulus (GPa) = 48.74877 49.23591 48.99234
# Shear Modulus (GPa) = 27.48900 27.82546 27.65723
#
# Velocity S-wave (km/s) = 3.70655 3.72916 3.71787
# Velocity P-wave (km/s) = 6.53313 6.56882 6.55100
#
# Compressibility (1/GPa) = 0.02051334
#
# Stress axis : x y z
#
# Youngs Moduli (GPa) = 65.26221 65.26221 77.77017
#
# Poissons Ratio (x) = 0.25715 0.29378
# Poissons Ratio (y) = 0.25715 0.29378
# Poissons Ratio (z) = 0.24653 0.24653
#
# Static dielectric constant tensor:
#      x y z
#    x 3.721760 0.000000 0.000000 
#    y 0.000000 3.721760 0.000000 
#    z 0.000000 0.000000 3.439090 
# 
# 
# High freq. dielectric constant tensor:
#      x y z
#    x 1.784460 0.000000 0.000000 
#    y 0.000000 1.784460 0.000000 
#    z 0.000000 0.000000 1.758800 
# 
# From -- ./inp_files/5893.got.cif
#   From: 2010.03.12/outbox.cif.g09.slc.cpg/sg87_3_cif.got.tgz:5893.got - 2010.04.08 20:16:13.
