data_PCOD8304774
_publ_section_title
;
Structure prediction by ZEFSAII (Michael W. Deem and Ramdas Pophale) SiO2 
 PCOD8304774
Probable space group: P 41 2 2
;
_chemical_formula_sum "Si O2"
_cell_formula_units_Z 52
_cell_length_a 17.142890
_cell_length_b 17.142890
_cell_length_c 10.258773
_cell_angle_alpha 90.000000
_cell_angle_beta 90.000000
_cell_angle_gamma 90.000000
_cell_volume 3014.834643
_symmetry_space_group_name_H-M "P 41 2 2"
_symmetry_group_IT_number 91
_symmetry_cell_setting 'tetragonal'
loop_
_space_group_symop_operation_xyz
x,y,z
-y,x,1/4+z
-x,-y,1/2+z
y,-x,3/4+z
x,-y,1/2-z
-x,y,-z
y,x,3/4-z
-y,-x,1/4-z
loop_
_atom_site_type_symbol
_atom_site_label
_atom_site_fract_x
_atom_site_fract_y
_atom_site_fract_z
Si Si1 0.934356 0.503680 0.101464
Si Si2 0.358127 0.173780 0.506738
Si Si3 0.283311 0.283311 0.875000
Si Si4 0.769631 0.727235 0.106560
Si Si5 0.917359 0.330615 0.522958
Si Si6 0.301014 0.596906 0.048639
Si Si7 0.777823 0.560156 0.493499
O O1 0.966222 0.500000 0.250000
O O2 0.915547 0.591795 0.063267
O O3 0.850929 0.459313 0.099216
O O4 0.000000 0.469738 0.000000
O O5 0.273294 0.193098 0.565422
O O6 0.351787 0.091883 0.427887
O O7 0.379903 0.232841 0.394272
O O8 0.423487 0.179267 0.618185
O O9 0.218197 0.272016 0.762766
O O10 0.272238 0.368111 0.939545
O O11 0.850970 0.726672 0.030663
O O12 0.711636 0.653663 0.075585
O O13 0.000000 0.288089 0.500000
O O14 0.383441 0.616560 0.125000
O O15 0.288439 0.507283 0.007297
#
# Coordination Sequence:
#
# PCOD8304774 Si02
#       7
#     8   8   4   8   8   8   8
#     4  11  24  33  49  73 107 139 167 215 260 311
#     4   9  18  31  52  76  93 138 168 211 250 319
#     4  10  22  32  50  72  90 144 174 212 266 310
#     4   9  17  34  48  72  98 133 176 206 257 306
#     4  10  19  31  52  75 107 129 168 209 262 302
#     4   9  17  29  50  72  90 122 171 224 262 298
#     4  11  20  33  53  72 102 128 185 213 267 316
#
# _framework density 17.248044
#
# number of rings (size 3 to 8) (size 9 to 14) (size 15 to 20)
#    0.000    2.154    3.077    2.769    4.308    0.000 
#    0.000    0.000    0.000    0.000   74.000    0.000 
#    0.000    0.000   20.923    0.000    0.000    0.308 
#
# Total GULP energy -644212.125494 kJ/mol
# GULP energy per Si atom -12388.694721 kJ/mol
# Density = 1.720879 g / cm^3
# Si number density = 17.248044 Si / 1000 Ang^3
#
#
#
# Elastic Constant Matrix: (Units=GPa)
#
#
# Indices 1 2 3 4 5 6 
#
# 1 63.0924 20.4655 21.6711 0.0000 0.0000 0.0000
# 2 20.4655 63.0927 21.6709 0.0000 0.0000 0.0000
# 3 21.6711 21.6709 120.6679 0.0000 0.0000 0.0000
# 4 0.0000 0.0000 0.0000 18.7600 0.0000 0.0000
# 5 0.0000 0.0000 0.0000 0.0000 18.7599 0.0000
# 6 0.0000 0.0000 0.0000 0.0000 0.0000 10.6696
#
#
#
# Elastic Compliance Matrix: (Units=1/GPa)
#
#
# Indices 1 2 3 4 5 6 
#
# 1 0.018328 -0.005131 -0.002370 0.000000 0.000000 0.000000
# 2 -0.005131 0.018328 -0.002370 0.000000 0.000000 0.000000
# 3 -0.002370 -0.002370 0.009139 0.000000 0.000000 0.000000
# 4 0.000000 0.000000 0.000000 0.053305 0.000000 0.000000
# 5 0.000000 0.000000 0.000000 0.000000 0.053305 0.000000
# 6 0.000000 0.000000 0.000000 0.000000 0.000000 0.093724
#
#
# Mechanical properties :
#
#
# Convention : Reuss Voigt Hill
#
# Bulk Modulus (GPa) = 38.38427 41.60756 39.99591
# Shear Modulus (GPa) = 18.21125 21.84094 20.02609
#
# Velocity S-wave (km/s) = 3.25290 3.56235 3.41114
# Velocity P-wave (km/s) = 6.03416 6.41061 6.22523
#
# Compressibility (1/GPa) = 0.02605234
#
# Stress axis : x y z
#
# Youngs Moduli (GPa) = 54.56056 54.56085 109.42704
#
# Poissons Ratio (x) = 0.27996 0.25936
# Poissons Ratio (y) = 0.27996 0.25935
# Poissons Ratio (z) = 0.12932 0.12931
#
# Static dielectric constant tensor:
#      x y z
#    x 3.354490 0.000000 0.000000 
#    y 0.000000 3.354480 0.000000 
#    z 0.000000 0.000000 3.715840 
# 
# 
# High freq. dielectric constant tensor:
#      x y z
#    x 1.634460 0.000000 0.000000 
#    y 0.000000 1.634460 0.000000 
#    z 0.000000 0.000000 1.683860 
# 
# From -- ./inp_files/19660.got.cif
#   From: 2010.03.12/outbox.cif.g09.slc.cpg/sg91_10_cif.got.tgz:19660.got - 2010.04.08 20:27:58.
