data_PCOD8304160
_publ_section_title
;
Structure prediction by ZEFSAII (Michael W. Deem and Ramdas Pophale) SiO2 
 PCOD8304160
Probable space group: I 4/M
;
_chemical_formula_sum "Si O2"
_cell_formula_units_Z 48
_cell_length_a 15.124828
_cell_length_b 15.124828
_cell_length_c 10.332888
_cell_angle_alpha 90.000000
_cell_angle_beta 90.000000
_cell_angle_gamma 90.000000
_cell_volume 2363.755820
_symmetry_space_group_name_H-M "I 4/M"
_symmetry_group_IT_number 87
_symmetry_cell_setting 'tetragonal'
loop_
_space_group_symop_operation_xyz
x,y,z
-y,x,z
-x,-y,z
y,-x,z
-x,-y,-z
y,-x,-z
x,y,-z
-y,x,-z
1/2+x,1/2+y,1/2+z
1/2-y,1/2+x,1/2+z
1/2-x,1/2-y,1/2+z
1/2+y,1/2-x,1/2+z
1/2-x,1/2-y,1/2-z
1/2+y,1/2-x,1/2-z
1/2+x,1/2+y,1/2-z
1/2-y,1/2+x,1/2-z
loop_
_atom_site_type_symbol
_atom_site_label
_atom_site_fract_x
_atom_site_fract_y
_atom_site_fract_z
Si Si1 0.448308 0.634240 0.149769
Si Si2 0.401330 0.893083 0.000000
Si Si3 0.707456 0.845473 0.747260
Si Si4 0.895781 0.602150 0.500000
O O1 0.387406 0.549690 0.180932
O O2 0.418565 0.715068 0.239387
O O3 0.435937 0.661057 0.000000
O O4 0.352288 0.857662 0.126195
O O5 0.503650 0.863523 0.000000
O O6 0.392338 0.997542 0.000000
O O7 0.750000 0.750000 0.750000
O O8 0.651446 0.858962 0.875323
#
# Coordination Sequence:
#
# PCOD8304160 Si02
#       4
#    16   8  16   8
#     4   9  20  39  64  93 128 174 216 260 321 388
#     4  11  25  48  68  89 134 178 216 269 319 388
#     4  12  25  40  69  99 128 165 222 270 322 380
#     4  11  27  44  66  99 130 176 214 265 333 380
#
# _framework density 20.306666
#
# number of rings (size 3 to 8) (size 9 to 14) (size 15 to 20)
#    0.000    1.333    1.667    4.000    9.333    2.667 
#    0.000    0.000    0.000    2.000    0.000    0.000 
#    0.000    0.000    0.000    0.000    0.000    0.000 
#
# Total GULP energy -297741.769712 kJ/mol
# GULP energy per Si atom -12405.907071 kJ/mol
# Density = 2.026045 g / cm^3
# Si number density = 20.306666 Si / 1000 Ang^3
#
#
#
# Elastic Constant Matrix: (Units=GPa)
#
#
# Indices 1 2 3 4 5 6 
#
# 1 96.7289 38.7645 56.5994 0.0000 0.0000 8.8360
# 2 38.7645 96.7289 56.5994 0.0000 0.0000 -8.8360
# 3 56.5994 56.5994 159.5582 0.0000 0.0000 0.0000
# 4 0.0000 0.0000 0.0000 41.2770 0.0000 0.0000
# 5 0.0000 0.0000 0.0000 0.0000 41.2770 0.0000
# 6 8.8360 -8.8360 0.0000 0.0000 0.0000 39.4516
#
#
#
# Elastic Compliance Matrix: (Units=1/GPa)
#
#
# Indices 1 2 3 4 5 6 
#
# 1 0.014503 -0.004014 -0.003721 0.000000 0.000000 -0.004147
# 2 -0.004014 0.014503 -0.003721 0.000000 0.000000 0.004147
# 3 -0.003721 -0.003721 0.008907 0.000000 0.000000 0.000000
# 4 0.000000 0.000000 0.000000 0.024227 0.000000 0.000000
# 5 0.000000 0.000000 0.000000 0.000000 0.024227 0.000000
# 6 -0.004147 0.004147 0.000000 0.000000 0.000000 0.027205
#
#
# Mechanical properties :
#
#
# Convention : Reuss Voigt Hill
#
# Bulk Modulus (GPa) = 66.65768 72.99361 69.82565
# Shear Modulus (GPa) = 35.34037 37.80464 36.57251
#
# Velocity S-wave (km/s) = 4.17626 4.31941 4.24843
# Velocity P-wave (km/s) = 7.49344 7.80385 7.65022
#
# Compressibility (1/GPa) = 0.01500202
#
# Stress axis : x y z
#
# Youngs Moduli (GPa) = 68.95305 68.95305 112.27186
#
# Poissons Ratio (x) = 0.27676 0.41773
# Poissons Ratio (y) = 0.27676 0.41773
# Poissons Ratio (z) = 0.25655 0.25655
#
# Static dielectric constant tensor:
#      x y z
#    x 3.859900 0.000000 0.000000 
#    y 0.000000 3.859900 0.000000 
#    z 0.000000 0.000000 3.624770 
# 
# 
# High freq. dielectric constant tensor:
#      x y z
#    x 1.810650 0.000000 0.000000 
#    y 0.000000 1.810650 0.000000 
#    z 0.000000 0.000000 1.781760 
# 
# From -- ./inp_files/2109.got.cif
#   From: 2010.03.12/outbox.cif.g09.slc.cpg/sg87_2_cif.got.tgz:2109.got - 2010.04.08 20:16:13.
