data_PCOD8304014
_publ_section_title
;
Structure prediction by ZEFSAII (Michael W. Deem and Ramdas Pophale) SiO2 
 PCOD8304014
Probable space group: I 4/M
;
_chemical_formula_sum "Si O2"
_cell_formula_units_Z 112
_cell_length_a 13.723806
_cell_length_b 13.723806
_cell_length_c 30.270697
_cell_angle_alpha 90.000000
_cell_angle_beta 90.000000
_cell_angle_gamma 90.000000
_cell_volume 5701.269379
_symmetry_space_group_name_H-M "I 4/M"
_symmetry_group_IT_number 87
_symmetry_cell_setting 'tetragonal'
loop_
_space_group_symop_operation_xyz
x,y,z
-y,x,z
-x,-y,z
y,-x,z
-x,-y,-z
y,-x,-z
x,y,-z
-y,x,-z
1/2+x,1/2+y,1/2+z
1/2-y,1/2+x,1/2+z
1/2-x,1/2-y,1/2+z
1/2+y,1/2-x,1/2+z
1/2-x,1/2-y,1/2-z
1/2+y,1/2-x,1/2-z
1/2+x,1/2+y,1/2-z
1/2-y,1/2+x,1/2-z
loop_
_atom_site_type_symbol
_atom_site_label
_atom_site_fract_x
_atom_site_fract_y
_atom_site_fract_z
Si Si1 0.216245 0.715038 0.050345
Si Si2 0.236167 0.457493 0.661825
Si Si3 0.101048 0.877772 0.587522
Si Si4 0.982359 0.341267 0.746979
Si Si5 0.416858 0.776154 0.845923
Si Si6 0.592302 0.062423 0.602548
Si Si7 0.714804 0.351068 0.370563
O O1 0.329605 0.684045 0.055218
O O2 0.139850 0.631436 0.065111
O O3 0.202605 0.812614 0.079419
O O4 0.194563 0.742218 0.000000
O O5 0.232932 0.492372 0.712426
O O6 0.126756 0.448499 0.642838
O O7 0.301306 0.532714 0.632349
O O8 0.291253 0.355525 0.661254
O O9 0.112107 0.834102 0.637665
O O10 0.987180 0.865608 0.578431
O O11 0.896673 0.416211 0.759443
O O12 0.958032 0.277664 0.703593
O O13 0.495242 0.820542 0.879932
O O14 0.321398 0.841449 0.849189
O O15 0.500000 0.000000 0.583747
#
# Coordination Sequence:
#
# PCOD8304014 Si02
#       7
#    16  16  16  16  16  16  16
#     4  10  23  41  63  95 124 156 208 259 307 378
#     4  11  22  40  59  90 123 166 207 253 314 360
#     4  10  21  39  59  82 123 173 203 236 304 376
#     4  11  20  33  61  95 122 156 209 254 297 368
#     4  11  20  37  59  90 124 162 205 254 308 358
#     4  11  19  37  65  89 127 155 199 260 322 360
#     4  10  23  40  62  84 122 166 203 253 318 363
#
# _framework density 19.644746999999999
#
# number of rings (size 3 to 8) (size 9 to 14) (size 15 to 20)
#    0.000    1.429    5.714    0.000    0.000    1.714 
#    2.571    3.571    0.000    0.000    0.000    4.000 
#    0.000    0.000    0.000    0.000    0.000    0.000 
#
# Total GULP energy -694085.511557 kJ/mol
# GULP energy per Si atom -12394.384135 kJ/mol
# Density = 1.960004 g / cm^3
# Si number density = 19.644747 Si / 1000 Ang^3
#
#
#
# Elastic Constant Matrix: (Units=GPa)
#
#
# Indices 1 2 3 4 5 6 
#
# 1 67.6593 19.5394 37.5014 0.0000 0.0000 5.0114
# 2 19.5394 67.6593 37.5014 0.0000 0.0000 -5.0114
# 3 37.5014 37.5014 126.8719 0.0000 0.0000 0.0000
# 4 0.0000 0.0000 0.0000 17.9759 0.0000 0.0000
# 5 0.0000 0.0000 0.0000 0.0000 17.9759 0.0000
# 6 5.0114 -5.0114 0.0000 0.0000 0.0000 24.4237
#
#
#
# Elastic Compliance Matrix: (Units=1/GPa)
#
#
# Indices 1 2 3 4 5 6 
#
# 1 0.018544 -0.003166 -0.004545 0.000000 0.000000 -0.004454
# 2 -0.003166 0.018544 -0.004545 0.000000 0.000000 0.004454
# 3 -0.004545 -0.004545 0.010569 0.000000 0.000000 0.000000
# 4 0.000000 0.000000 0.000000 0.055630 0.000000 0.000000
# 5 0.000000 0.000000 0.000000 0.000000 0.055630 0.000000
# 6 -0.004454 0.004454 0.000000 0.000000 0.000000 0.042772
#
#
# Mechanical properties :
#
#
# Convention : Reuss Voigt Hill
#
# Bulk Modulus (GPa) = 43.20983 50.14165 46.67574
# Shear Modulus (GPa) = 21.37524 23.25165 22.31345
#
# Velocity S-wave (km/s) = 3.30220 3.44409 3.37389
# Velocity P-wave (km/s) = 6.04837 6.43392 6.24412
#
# Compressibility (1/GPa) = 0.02314288
#
# Stress axis : x y z
#
# Youngs Moduli (GPa) = 53.92723 53.92724 94.61553
#
# Poissons Ratio (x) = 0.17072 0.43007
# Poissons Ratio (y) = 0.17072 0.43007
# Poissons Ratio (z) = 0.24512 0.24512
#
# Static dielectric constant tensor:
#      x y z
#    x 3.638180 0.000000 0.000000 
#    y 0.000000 3.638180 0.000000 
#    z 0.000000 0.000000 3.258720 
# 
# 
# High freq. dielectric constant tensor:
#      x y z
#    x 1.764670 0.000000 0.000000 
#    y 0.000000 1.764670 0.000000 
#    z 0.000000 0.000000 1.739250 
# 
# From -- ./inp_files/6712.got.cif
#   From: 2010.03.12/outbox.cif.g09.slc.cpg/sg87_4_cif.got.tgz:6712.got - 2010.04.08 20:16:13.
