data_PCOD8304221
_publ_section_title
;
Structure prediction by ZEFSAII (Michael W. Deem and Ramdas Pophale) SiO2 
 PCOD8304221
Probable space group: I 41/A
;
_chemical_formula_sum "Si O2"
_cell_formula_units_Z 92
_cell_length_a 13.800999
_cell_length_b 13.800999
_cell_length_c 23.898788
_cell_angle_alpha 90.000000
_cell_angle_beta 90.000000
_cell_angle_gamma 90.000000
_cell_volume 4551.944158
_symmetry_space_group_name_H-M "I 41/A"
_symmetry_group_IT_number 88
_space_group.IT_coordinate_system_code '2'
_symmetry_cell_setting 'tetragonal'
loop_
_space_group_symop_operation_xyz
x,y,z
3/4-y,1/4+x,1/4+z
-x,1/2-y,z
1/4+y,1/4-x,1/4+z
-x,-y,-z
1/4+y,3/4-x,3/4-z
x,1/2+y,-z
3/4-y,3/4+x,3/4-z
1/2+x,1/2+y,1/2+z
1/4-y,3/4+x,3/4+z
1/2-x,-y,1/2+z
3/4+y,3/4-x,3/4+z
1/2-x,1/2-y,1/2-z
3/4+y,1/4-x,1/4-z
1/2+x,y,1/2-z
1/4-y,1/4+x,1/4-z
loop_
_atom_site_type_symbol
_atom_site_label
_atom_site_fract_x
_atom_site_fract_y
_atom_site_fract_z
Si Si1 0.937393 0.923645 0.573623
Si Si2 0.967386 0.607209 0.014176
Si Si3 0.000000 0.250000 0.625000
Si Si4 0.660304 0.336598 0.802623
Si Si5 0.573807 0.146175 0.407695
Si Si6 0.707974 0.548522 0.830078
Si Si7 0.000000 0.750000 0.107306
O O1 0.910063 0.884008 0.512667
O O2 0.840615 0.941413 0.609224
O O3 0.002183 0.844137 0.604206
O O4 0.996175 0.022936 0.568435
O O5 0.852162 0.603145 0.030060
O O6 0.015503 0.653911 0.069483
O O7 0.000000 0.500000 0.000000
O O8 0.004829 0.668028 0.961459
O O9 0.075014 0.189602 0.586689
O O10 0.716467 0.435641 0.816596
O O11 0.496353 0.120762 0.358100
O O12 0.653744 0.064024 0.416225
#
# Coordination Sequence:
#
# PCOD8304221 Si02
#       7
#    16  16   4  16  16  16   8
#     4  10  23  41  61  92 122 165 214 268 313 386
#     4   9  20  38  59  92 127 164 203 257 312 387
#     4  12  22  44  68  92 128 174 212 272 334 364
#     4  11  23  42  65  92 126 162 222 269 324 376
#     4  10  21  38  63  96 134 169 208 253 317 399
#     4  10  22  40  65  93 127 167 211 267 322 380
#     4  10  19  40  63  85 130 163 204 252 328 380
#
# _framework density 20.211144999999998
#
# number of rings (size 3 to 8) (size 9 to 14) (size 15 to 20)
#    0.000    1.913    1.739    1.565    2.435    4.174 
#    3.130    0.000    0.000    0.000    0.000    0.000 
#    0.000    0.000    0.000    0.000    0.000    0.000 
#
# Total GULP energy -569919.533338 kJ/mol
# GULP energy per Si atom -12389.555073 kJ/mol
# Density = 2.016514 g / cm^3
# Si number density = 20.211145 Si / 1000 Ang^3
#
#
#
# Elastic Constant Matrix: (Units=GPa)
#
#
# Indices 1 2 3 4 5 6 
#
# 1 95.2128 26.4330 42.1313 0.0000 0.0000 -0.7535
# 2 26.4330 95.2128 42.1313 0.0000 0.0000 0.7535
# 3 42.1313 42.1313 136.1714 0.0000 0.0000 0.0000
# 4 0.0000 0.0000 0.0000 29.6307 0.0000 0.0000
# 5 0.0000 0.0000 0.0000 0.0000 29.6307 0.0000
# 6 -0.7535 0.7535 0.0000 0.0000 0.0000 37.0587
#
#
#
# Elastic Compliance Matrix: (Units=1/GPa)
#
#
# Indices 1 2 3 4 5 6 
#
# 1 0.012504 -0.002041 -0.003237 0.000000 0.000000 0.000296
# 2 -0.002041 0.012504 -0.003237 0.000000 0.000000 -0.000296
# 3 -0.003237 -0.003237 0.009347 0.000000 0.000000 0.000000
# 4 0.000000 0.000000 0.000000 0.033749 0.000000 0.000000
# 5 0.000000 0.000000 0.000000 0.000000 0.033749 0.000000
# 6 0.000296 -0.000296 0.000000 0.000000 0.000000 0.026996
#
#
# Mechanical properties :
#
#
# Convention : Reuss Voigt Hill
#
# Bulk Modulus (GPa) = 57.72371 60.88757 59.30564
# Shear Modulus (GPa) = 32.96946 33.65745 33.31346
#
# Velocity S-wave (km/s) = 4.04326 4.08523 4.06430
# Velocity P-wave (km/s) = 7.10067 7.24177 7.17157
#
# Compressibility (1/GPa) = 0.01732390
#
# Stress axis : x y z
#
# Youngs Moduli (GPa) = 79.97244 79.97244 106.98750
#
# Poissons Ratio (x) = 0.16325 0.34634
# Poissons Ratio (y) = 0.16325 0.34634
# Poissons Ratio (z) = 0.25889 0.25889
#
# Static dielectric constant tensor:
#      x y z
#    x 3.560050 0.000000 0.000000 
#    y 0.000000 3.560050 0.000000 
#    z 0.000000 0.000000 4.144240 
# 
# 
# High freq. dielectric constant tensor:
#      x y z
#    x 1.784040 0.000000 0.000000 
#    y 0.000000 1.784040 0.000000 
#    z 0.000000 0.000000 1.803050 
# 
# From -- ./inp_files/4755.got.cif
#   From: 2010.03.12/outbox.cif.g09.slc.cpg/sg88_3_cif.got.tgz:4755.got - 2010.04.08 20:20:55.
