data_PCOD8304236
_publ_section_title
;
Structure prediction by ZEFSAII (Michael W. Deem and Ramdas Pophale) SiO2 
 PCOD8304236
Probable space group: I 41/A
;
_chemical_formula_sum "Si O2"
_cell_formula_units_Z 96
_cell_length_a 21.076038
_cell_length_b 21.076038
_cell_length_c 11.289774
_cell_angle_alpha 90.000000
_cell_angle_beta 90.000000
_cell_angle_gamma 90.000000
_cell_volume 5014.910586
_symmetry_space_group_name_H-M "I 41/A"
_symmetry_group_IT_number 88
_space_group.IT_coordinate_system_code '2'
_symmetry_cell_setting 'tetragonal'
loop_
_space_group_symop_operation_xyz
x,y,z
3/4-y,1/4+x,1/4+z
-x,1/2-y,z
1/4+y,1/4-x,1/4+z
-x,-y,-z
1/4+y,3/4-x,3/4-z
x,1/2+y,-z
3/4-y,3/4+x,3/4-z
1/2+x,1/2+y,1/2+z
1/4-y,3/4+x,3/4+z
1/2-x,-y,1/2+z
3/4+y,3/4-x,3/4+z
1/2-x,1/2-y,1/2-z
3/4+y,1/4-x,1/4-z
1/2+x,y,1/2-z
1/4-y,1/4+x,1/4-z
loop_
_atom_site_type_symbol
_atom_site_label
_atom_site_fract_x
_atom_site_fract_y
_atom_site_fract_z
Si Si1 0.101729 0.759395 0.360841
Si Si2 0.467326 0.100733 0.135653
Si Si3 0.716994 0.319417 0.986442
Si Si4 0.756797 0.956930 0.037692
Si Si5 0.165500 0.853422 0.715112
Si Si6 0.967432 0.844861 0.846704
O O1 0.065047 0.699037 0.416368
O O2 0.143103 0.740777 0.247229
O O3 0.153233 0.783527 0.452584
O O4 0.401318 0.137838 0.146927
O O5 0.521514 0.134304 0.212810
O O6 0.462901 0.027962 0.177872
O O7 0.713761 0.393919 0.952698
O O8 0.716200 0.317257 0.130553
O O9 0.828327 0.941926 0.000082
O O10 0.751107 0.985508 0.172102
O O11 0.153871 0.813294 0.833571
O O12 0.921342 0.784476 0.841697
#
# Coordination Sequence:
#
# PCOD8304236 Si02
#       6
#    16  16  16  16  16  16
#     4  11  23  36  58  85 114 149 191 239 293 348
#     4  10  20  36  55  83 112 149 192 231 289 347
#     4  10  20  37  59  78 115 152 188 237 290 354
#     4   9  19  38  61  82 112 158 200 242 296 353
#     4   9  18  36  58  80 114 153 189 232 300 351
#     4   9  19  32  55  83 116 147 186 240 288 346
#
# _framework density 19.142913
#
# number of rings (size 3 to 8) (size 9 to 14) (size 15 to 20)
#    0.000    2.333    1.667    0.500    2.333    2.000 
#    3.000    0.000    0.000    0.000    0.000    0.000 
#    0.000    0.000    0.000    0.000    0.000    0.000 
#
# Total GULP energy -594833.730339 kJ/mol
# GULP energy per Si atom -12392.369382 kJ/mol
# Density = 1.909934 g / cm^3
# Si number density = 19.142913 Si / 1000 Ang^3
#
#
#
# Elastic Constant Matrix: (Units=GPa)
#
#
# Indices 1 2 3 4 5 6 
#
# 1 54.3668 20.6768 15.9794 0.0000 0.0000 1.0494
# 2 20.6768 54.3668 15.9794 0.0000 0.0000 -1.0494
# 3 15.9794 15.9794 63.2819 0.0000 0.0000 0.0000
# 4 0.0000 0.0000 0.0000 30.4640 0.0000 0.0000
# 5 0.0000 0.0000 0.0000 0.0000 30.4640 0.0000
# 6 1.0494 -1.0494 0.0000 0.0000 0.0000 30.9940
#
#
#
# Elastic Compliance Matrix: (Units=1/GPa)
#
#
# Indices 1 2 3 4 5 6 
#
# 1 0.022338 -0.007407 -0.003770 0.000000 0.000000 -0.001007
# 2 -0.007407 0.022338 -0.003770 0.000000 0.000000 0.001007
# 3 -0.003770 -0.003770 0.017706 0.000000 0.000000 0.000000
# 4 0.000000 0.000000 0.000000 0.032826 0.000000 0.000000
# 5 0.000000 0.000000 0.000000 0.000000 0.032826 0.000000
# 6 -0.001007 0.001007 0.000000 0.000000 0.000000 0.032332
#
#
# Mechanical properties :
#
#
# Convention : Reuss Voigt Hill
#
# Bulk Modulus (GPa) = 30.78091 30.80962 30.79526
# Shear Modulus (GPa) = 24.86438 26.34306 25.60372
#
# Velocity S-wave (km/s) = 3.60791 3.71364 3.66116
# Velocity P-wave (km/s) = 5.78537 5.87517 5.83044
#
# Compressibility (1/GPa) = 0.03248767
#
# Stress axis : x y z
#
# Youngs Moduli (GPa) = 44.76635 44.76635 56.47675
#
# Poissons Ratio (x) = 0.33158 0.21293
# Poissons Ratio (y) = 0.33158 0.21293
# Poissons Ratio (z) = 0.16878 0.16878
#
# Static dielectric constant tensor:
#      x y z
#    x 3.489400 0.000000 0.000000 
#    y 0.000000 3.489400 0.000000 
#    z 0.000000 0.000000 3.426160 
# 
# 
# High freq. dielectric constant tensor:
#      x y z
#    x 1.737520 0.000000 0.000000 
#    y 0.000000 1.737520 0.000000 
#    z 0.000000 0.000000 1.741740 
# 
# From -- ./inp_files/1712.got.cif
#   From: 2010.03.12/outbox.cif.g09.slc.cpg/sg88_1_cif.got.tgz:1712.got - 2010.04.08 20:20:55.
