data_PCOD8304679
_publ_section_title
;
Structure prediction by ZEFSAII (Michael W. Deem and Ramdas Pophale) SiO2 
 PCOD8304679
Probable space group: P 4 21 2
;
_chemical_formula_sum "Si O2"
_cell_formula_units_Z 36
_cell_length_a 8.040294
_cell_length_b 8.040294
_cell_length_c 23.927410
_cell_angle_alpha 90.000000
_cell_angle_beta 90.000000
_cell_angle_gamma 90.000000
_cell_volume 1546.819186
_symmetry_space_group_name_H-M "P 4 21 2"
_symmetry_group_IT_number 90
_symmetry_cell_setting 'tetragonal'
loop_
_space_group_symop_operation_xyz
x,y,z
1/2-y,1/2+x,z
-x,-y,z
1/2+y,1/2-x,z
1/2+x,1/2-y,-z
1/2-x,1/2+y,-z
y,x,-z
-y,-x,-z
loop_
_atom_site_type_symbol
_atom_site_label
_atom_site_fract_x
_atom_site_fract_y
_atom_site_fract_z
Si Si1 0.231724 0.960248 0.957000
Si Si2 0.959030 0.232375 0.755881
Si Si3 0.901124 0.241387 0.555372
Si Si4 0.922718 0.235108 0.337302
Si Si5 0.500000 0.500000 0.856388
O O1 0.363155 0.814803 0.967834
O O2 0.163618 0.981564 0.894288
O O3 0.081124 0.918877 0.000000
O O4 0.814403 0.365156 0.744637
O O5 0.898446 0.090223 0.713220
O O6 0.981440 0.163246 0.818404
O O7 0.788460 0.405766 0.557791
O O8 0.862361 0.137640 0.500000
O O9 0.862563 0.117145 0.606011
O O10 0.796575 0.389198 0.334115
#
# Coordination Sequence:
#
# PCOD8304679 Si02
#       5
#     8   8   8   8   4
#     4  11  24  43  70 104 144 189 235 285 342 406
#     4  11  24  41  63  92 127 171 223 279 340 408
#     4  11  24  41  63  94 130 170 220 278 343 418
#     4  11  24  42  65  94 129 171 221 279 346 421
#     4  12  23  42  66  96 135 178 228 284 340 404
#
# _framework density 23.273568000000001
#
# number of rings (size 3 to 8) (size 9 to 14) (size 15 to 20)
#    0.000    0.889    0.000    7.000    0.000    8.444 
#    0.000    4.444    0.000    0.000    0.000    0.000 
#    0.000    0.000    0.000    0.000    0.000    0.000 
#
# Total GULP energy -446126.512270 kJ/mol
# GULP energy per Si atom -12392.403119 kJ/mol
# Density = 2.322060 g / cm^3
# Si number density = 23.273568 Si / 1000 Ang^3
#
#
#
# Elastic Constant Matrix: (Units=GPa)
#
#
# Indices 1 2 3 4 5 6 
#
# 1 82.2534 56.5871 43.1281 0.0000 0.0000 0.0000
# 2 56.5871 82.2522 43.1286 0.0000 0.0000 0.0000
# 3 43.1281 43.1286 165.0066 0.0000 0.0000 0.0000
# 4 0.0000 0.0000 0.0000 70.7983 0.0000 0.0000
# 5 0.0000 0.0000 0.0000 0.0000 70.7989 0.0000
# 6 0.0000 0.0000 0.0000 0.0000 0.0000 43.3615
#
#
#
# Elastic Compliance Matrix: (Units=1/GPa)
#
#
# Indices 1 2 3 4 5 6 
#
# 1 0.023780 -0.015182 -0.002247 0.000000 0.000000 0.000000
# 2 -0.015182 0.023781 -0.002248 0.000000 0.000000 0.000000
# 3 -0.002247 -0.002248 0.007235 0.000000 0.000000 0.000000
# 4 0.000000 0.000000 0.000000 0.014125 0.000000 0.000000
# 5 0.000000 0.000000 0.000000 0.000000 0.014125 0.000000
# 6 0.000000 0.000000 0.000000 0.000000 0.000000 0.023062
#
#
# Mechanical properties :
#
#
# Convention : Reuss Voigt Hill
#
# Bulk Modulus (GPa) = 64.75471 68.35554 66.55512
# Shear Modulus (GPa) = 33.19854 49.43629 41.31741
#
# Velocity S-wave (km/s) = 3.78093 4.61384 4.21799
# Velocity P-wave (km/s) = 6.85159 7.60379 7.23747
#
# Compressibility (1/GPa) = 0.01544289
#
# Stress axis : x y z
#
# Youngs Moduli (GPa) = 42.05135 42.05053 138.21239
#
# Poissons Ratio (x) = 0.63840 0.31062
# Poissons Ratio (y) = 0.63842 0.31065
# Poissons Ratio (z) = 0.09451 0.09451
#
# Static dielectric constant tensor:
#      x y z
#    x 4.336400 0.000000 0.000000 
#    y 0.000000 4.336410 0.000000 
#    z 0.000000 0.000000 4.074970 
# 
# 
# High freq. dielectric constant tensor:
#      x y z
#    x 1.946320 0.000000 0.000000 
#    y 0.000000 1.946320 0.000000 
#    z 0.000000 0.000000 1.917080 
# 
# From -- ./inp_files/2742.got.cif
#   From: 2010.03.12/outbox.cif.g09.slc.cpg/sg90_2_cif.got.tgz:2742.got - 2010.04.08 20:26:03.
