data_PCOD8304298
_publ_section_title
;
Structure prediction by ZEFSAII (Michael W. Deem and Ramdas Pophale) SiO2 
 PCOD8304298
Probable space group: I 41/A
;
_chemical_formula_sum "Si O2"
_cell_formula_units_Z 108
_cell_length_a 14.733011
_cell_length_b 14.733011
_cell_length_c 24.252732
_cell_angle_alpha 90.000000
_cell_angle_beta 90.000000
_cell_angle_gamma 90.000000
_cell_volume 5264.337131
_symmetry_space_group_name_H-M "I 41/A"
_symmetry_group_IT_number 88
_space_group.IT_coordinate_system_code '2'
_symmetry_cell_setting 'tetragonal'
loop_
_space_group_symop_operation_xyz
x,y,z
3/4-y,1/4+x,1/4+z
-x,1/2-y,z
1/4+y,1/4-x,1/4+z
-x,-y,-z
1/4+y,3/4-x,3/4-z
x,1/2+y,-z
3/4-y,3/4+x,3/4-z
1/2+x,1/2+y,1/2+z
1/4-y,3/4+x,3/4+z
1/2-x,-y,1/2+z
3/4+y,3/4-x,3/4+z
1/2-x,1/2-y,1/2-z
3/4+y,1/4-x,1/4-z
1/2+x,y,1/2-z
1/4-y,1/4+x,1/4-z
loop_
_atom_site_type_symbol
_atom_site_label
_atom_site_fract_x
_atom_site_fract_y
_atom_site_fract_z
Si Si1 0.901407 0.552686 0.614915
Si Si2 0.447016 0.341802 0.054435
Si Si3 0.863550 0.367171 0.558115
Si Si4 0.977609 0.461536 0.840213
Si Si5 0.000000 0.750000 0.375000
Si Si6 0.493480 0.375266 0.404519
Si Si7 0.499431 0.051207 0.222196
Si Si8 0.000000 0.750000 0.749563
O O1 0.861777 0.459232 0.592258
O O2 0.829660 0.629205 0.599872
O O3 0.997694 0.582862 0.588363
O O4 0.914870 0.537424 0.680414
O O5 0.500000 0.250000 0.038681
O O6 0.360686 0.308590 0.089311
O O7 0.414808 0.389748 0.998634
O O8 0.916400 0.286382 0.588947
O O9 0.760485 0.334020 0.547609
O O10 0.000673 0.517626 0.895742
O O11 0.972294 0.522331 0.784418
O O12 0.590512 0.332551 0.388049
O O13 0.473118 0.340919 0.466061
O O14 0.524133 0.158882 0.215642
#
# Coordination Sequence:
#
# PCOD8304298 Si02
#       8
#    16  16  16  16   4  16  16   8
#     4  11  24  41  60  94 131 166 215 274 321 381
#     4   9  20  38  64  88 123 170 209 262 331 386
#     4  11  22  41  64  91 125 168 220 269 323 393
#     4  10  21  41  63  94 130 168 213 265 325 385
#     4  12  20  40  70  88 118 172 224 256 336 386
#     4   9  16  37  64  89 119 167 201 246 312 380
#     4  11  23  42  65  96 127 170 216 267 325 394
#     4  10  21  40  73  92 129 172 220 259 326 398
#
# _framework density 20.515402000000002
#
# number of rings (size 3 to 8) (size 9 to 14) (size 15 to 20)
#    0.000    1.926    5.185    0.444    3.111    0.000 
#    8.000    0.741    0.000    0.000    0.000    0.000 
#    0.000    0.000    0.000    0.000    0.000    0.000 
#
# Total GULP energy -669248.646589 kJ/mol
# GULP energy per Si atom -12393.493455 kJ/mol
# Density = 2.046871 g / cm^3
# Si number density = 20.515402 Si / 1000 Ang^3
#
#
#
# Elastic Constant Matrix: (Units=GPa)
#
#
# Indices 1 2 3 4 5 6 
#
# 1 114.0998 35.8731 33.8454 0.0000 0.0000 -0.6749
# 2 35.8731 114.0998 33.8454 0.0000 0.0000 0.6749
# 3 33.8454 33.8454 67.1956 0.0000 0.0000 0.0000
# 4 0.0000 0.0000 0.0000 21.4566 0.0000 0.0000
# 5 0.0000 0.0000 0.0000 0.0000 21.4566 0.0000
# 6 -0.6749 0.6749 0.0000 0.0000 0.0000 15.6993
#
#
#
# Elastic Compliance Matrix: (Units=1/GPa)
#
#
# Indices 1 2 3 4 5 6 
#
# 1 0.010711 -0.002082 -0.004347 0.000000 0.000000 0.000550
# 2 -0.002082 0.010711 -0.004347 0.000000 0.000000 -0.000550
# 3 -0.004347 -0.004347 0.019261 0.000000 0.000000 0.000000
# 4 0.000000 0.000000 0.000000 0.046606 0.000000 0.000000
# 5 0.000000 0.000000 0.000000 0.000000 0.046606 0.000000
# 6 0.000550 -0.000550 0.000000 0.000000 0.000000 0.063745
#
#
# Mechanical properties :
#
#
# Convention : Reuss Voigt Hill
#
# Bulk Modulus (GPa) = 52.26447 55.83585 54.05016
# Shear Modulus (GPa) = 22.16638 24.51124 23.33881
#
# Velocity S-wave (km/s) = 3.29062 3.46030 3.37653
# Velocity P-wave (km/s) = 6.32208 6.57575 6.45016
#
# Compressibility (1/GPa) = 0.01913346
#
# Stress axis : x y z
#
# Youngs Moduli (GPa) = 93.35931 93.35931 51.91934
#
# Poissons Ratio (x) = 0.19433 0.22568
# Poissons Ratio (y) = 0.19433 0.22568
# Poissons Ratio (z) = 0.40580 0.40580
#
# Static dielectric constant tensor:
#      x y z
#    x 3.650080 0.000000 0.000000 
#    y 0.000000 3.650080 0.000000 
#    z 0.000000 0.000000 3.777060 
# 
# 
# High freq. dielectric constant tensor:
#      x y z
#    x 1.794110 0.000000 0.000000 
#    y 0.000000 1.794110 0.000000 
#    z 0.000000 0.000000 1.800310 
# 
# From -- ./inp_files/5385.got.cif
#   From: 2010.03.12/outbox.cif.g09.slc.cpg/sg88_3_cif.got.tgz:5385.got - 2010.04.08 20:20:55.
