data_PCOD8304670
_publ_section_title
;
Structure prediction by ZEFSAII (Michael W. Deem and Ramdas Pophale) SiO2 
 PCOD8304670
Probable space group: P 4 21 2
;
_chemical_formula_sum "Si O2"
_cell_formula_units_Z 38
_cell_length_a 8.144669
_cell_length_b 8.144669
_cell_length_c 25.981122
_cell_angle_alpha 90.000000
_cell_angle_beta 90.000000
_cell_angle_gamma 90.000000
_cell_volume 1723.474177
_symmetry_space_group_name_H-M "P 4 21 2"
_symmetry_group_IT_number 90
_symmetry_cell_setting 'tetragonal'
loop_
_space_group_symop_operation_xyz
x,y,z
1/2-y,1/2+x,z
-x,-y,z
1/2+y,1/2-x,z
1/2+x,1/2-y,-z
1/2-x,1/2+y,-z
y,x,-z
-y,-x,-z
loop_
_atom_site_type_symbol
_atom_site_label
_atom_site_fract_x
_atom_site_fract_y
_atom_site_fract_z
Si Si1 0.760145 0.072641 0.828105
Si Si2 0.083390 0.755871 0.288225
Si Si3 0.000000 0.000000 0.366830
Si Si4 0.583024 0.261227 0.548390
Si Si5 0.234714 0.966104 0.091879
Si Si6 0.500000 0.500000 0.000000
O O1 0.611093 0.198128 0.838360
O O2 0.823129 0.099655 0.769846
O O3 0.915346 0.098072 0.866014
O O4 0.202657 0.604441 0.298055
O O5 0.123620 0.898398 0.329389
O O6 0.108253 0.124408 0.401573
O O7 0.393733 0.204049 0.548436
O O8 0.623684 0.376317 0.500000
O O9 0.361546 0.819186 0.100343
O O10 0.160839 0.983912 0.035001
#
# Coordination Sequence:
#
# PCOD8304670 Si02
#       6
#     8   8   4   8   8   2
#     4   9  19  38  64  92 124 166 212 255 308 378
#     4   9  20  38  60  90 128 171 216 257 306 376
#     4  12  21  33  60  92 125 165 210 262 316 364
#     4  11  24  43  66  92 126 170 223 278 334 399
#     4  11  24  40  61  89 119 156 205 261 318 375
#     4  12  24  42  60  80 118 164 204 252 314 388
#
# _framework density 22.048490000000001
#
# number of rings (size 3 to 8) (size 9 to 14) (size 15 to 20)
#    0.000    1.684    0.000    6.000    0.000    5.895 
#    0.000    2.105    0.000    5.684    0.000    0.000 
#    0.000    0.000    0.000    0.000    0.000    0.000 
#
# Total GULP energy -470967.870586 kJ/mol
# GULP energy per Si atom -12393.891331 kJ/mol
# Density = 2.199831 g / cm^3
# Si number density = 22.048490 Si / 1000 Ang^3
#
#
#
# Elastic Constant Matrix: (Units=GPa)
#
#
# Indices 1 2 3 4 5 6 
#
# 1 109.2816 49.5234 68.4063 0.0000 0.0000 0.0000
# 2 49.5234 109.2817 68.4062 0.0000 0.0000 0.0000
# 3 68.4063 68.4062 178.4486 0.0000 0.0000 0.0000
# 4 0.0000 0.0000 0.0000 26.4462 0.0000 0.0000
# 5 0.0000 0.0000 0.0000 0.0000 26.4461 0.0000
# 6 0.0000 0.0000 0.0000 0.0000 0.0000 32.7896
#
#
#
# Elastic Compliance Matrix: (Units=1/GPa)
#
#
# Indices 1 2 3 4 5 6 
#
# 1 0.013068 -0.003666 -0.003604 0.000000 0.000000 0.000000
# 2 -0.003666 0.013068 -0.003604 0.000000 0.000000 0.000000
# 3 -0.003604 -0.003604 0.008367 0.000000 0.000000 0.000000
# 4 0.000000 0.000000 0.000000 0.037813 0.000000 0.000000
# 5 0.000000 0.000000 0.000000 0.000000 0.037813 0.000000
# 6 0.000000 0.000000 0.000000 0.000000 0.000000 0.030498
#
#
# Mechanical properties :
#
#
# Convention : Reuss Voigt Hill
#
# Bulk Modulus (GPa) = 78.40354 85.52042 81.96198
# Shear Modulus (GPa) = 30.00724 31.18143 30.59433
#
# Velocity S-wave (km/s) = 3.69313 3.76469 3.72908
# Velocity P-wave (km/s) = 7.33637 7.60058 7.46965
#
# Compressibility (1/GPa) = 0.01275453
#
# Stress axis : x y z
#
# Youngs Moduli (GPa) = 76.52225 76.52236 119.51573
#
# Poissons Ratio (x) = 0.28053 0.43076
# Poissons Ratio (y) = 0.28053 0.43075
# Poissons Ratio (z) = 0.27580 0.27580
#
# Static dielectric constant tensor:
#      x y z
#    x 3.936010 0.000000 0.000000 
#    y 0.000000 3.936010 0.000000 
#    z 0.000000 0.000000 4.086640 
# 
# 
# High freq. dielectric constant tensor:
#      x y z
#    x 1.865360 0.000000 0.000000 
#    y 0.000000 1.865360 0.000000 
#    z 0.000000 0.000000 1.879360 
# 
# From -- ./inp_files/2904.got.cif
#   From: 2010.03.12/outbox.cif.g09.slc.cpg/sg90_2_cif.got.tgz:2904.got - 2010.04.08 20:26:03.
