data_PCOD8304179
_publ_section_title
;
Structure prediction by ZEFSAII (Michael W. Deem and Ramdas Pophale) SiO2 
 PCOD8304179
Probable space group: I 41/A
;
_chemical_formula_sum "Si O2"
_cell_formula_units_Z 112
_cell_length_a 20.364533
_cell_length_b 20.364533
_cell_length_c 17.310365
_cell_angle_alpha 90.000000
_cell_angle_beta 90.000000
_cell_angle_gamma 90.000000
_cell_volume 7178.854247
_symmetry_space_group_name_H-M "I 41/A"
_symmetry_group_IT_number 88
_space_group.IT_coordinate_system_code '2'
_symmetry_cell_setting 'tetragonal'
loop_
_space_group_symop_operation_xyz
x,y,z
3/4-y,1/4+x,1/4+z
-x,1/2-y,z
1/4+y,1/4-x,1/4+z
-x,-y,-z
1/4+y,3/4-x,3/4-z
x,1/2+y,-z
3/4-y,3/4+x,3/4-z
1/2+x,1/2+y,1/2+z
1/4-y,3/4+x,3/4+z
1/2-x,-y,1/2+z
3/4+y,3/4-x,3/4+z
1/2-x,1/2-y,1/2-z
3/4+y,1/4-x,1/4-z
1/2+x,y,1/2-z
1/4-y,1/4+x,1/4-z
loop_
_atom_site_type_symbol
_atom_site_label
_atom_site_fract_x
_atom_site_fract_y
_atom_site_fract_z
Si Si1 0.212273 0.592127 0.546724
Si Si2 0.780184 0.177176 0.808026
Si Si3 0.635271 0.843978 0.066635
Si Si4 0.171897 0.189532 0.809635
Si Si5 0.221615 0.009993 0.062433
Si Si6 0.668949 0.194256 0.932838
Si Si7 0.843607 0.026870 0.328346
O O1 0.145865 0.554262 0.566819
O O2 0.248169 0.590737 0.630322
O O3 0.257757 0.554954 0.484843
O O4 0.194511 0.664174 0.514401
O O5 0.838698 0.231483 0.817077
O O6 0.745813 0.181483 0.724325
O O7 0.727620 0.193884 0.872995
O O8 0.598887 0.858712 0.148201
O O9 0.644889 0.767408 0.053062
O O10 0.702188 0.884229 0.066904
O O11 0.590424 0.866584 0.994988
O O12 0.175466 0.152494 0.892592
O O13 0.284948 0.032136 0.110601
O O14 0.198746 0.067955 0.004934
#
# Coordination Sequence:
#
# PCOD8304179 Si02
#       7
#    16  16  16  16  16  16  16
#     4  11  18  32  44  71  92 127 157 198 240 289
#     4  10  18  30  46  66  93 134 154 191 234 291
#     4  11  21  31  43  70  93 136 160 190 225 285
#     4  10  18  29  46  63  95 125 163 186 234 276
#     4  10  18  26  49  69  92 111 156 201 246 276
#     4  11  21  32  46  63 104 128 166 194 232 284
#     4  11  16  30  46  71  91 115 155 205 232 289
#
# _framework density 15.601375000000001
#
# number of rings (size 3 to 8) (size 9 to 14) (size 15 to 20)
#    0.000    1.429    7.143    1.714    4.000    0.286 
#    0.000    0.000    0.000    0.857    0.000    0.000 
#    0.000    0.000    0.000    0.000    0.000    0.000 
#
# Total GULP energy -694064.944101 kJ/mol
# GULP energy per Si atom -12394.016859 kJ/mol
# Density = 1.556587 g / cm^3
# Si number density = 15.601375 Si / 1000 Ang^3
#
#
#
# Elastic Constant Matrix: (Units=GPa)
#
#
# Indices 1 2 3 4 5 6 
#
# 1 55.1061 17.5170 38.0584 0.0000 0.0000 5.8725
# 2 17.5170 55.1061 38.0584 0.0000 0.0000 -5.8725
# 3 38.0584 38.0584 99.0392 0.0000 0.0000 0.0000
# 4 0.0000 0.0000 0.0000 19.9002 0.0000 0.0000
# 5 0.0000 0.0000 0.0000 0.0000 19.9002 0.0000
# 6 5.8725 -5.8725 0.0000 0.0000 0.0000 16.9478
#
#
#
# Elastic Compliance Matrix: (Units=1/GPa)
#
#
# Indices 1 2 3 4 5 6 
#
# 1 0.026445 -0.003389 -0.008860 0.000000 0.000000 -0.010338
# 2 -0.003389 0.026445 -0.008860 0.000000 0.000000 0.010338
# 3 -0.008860 -0.008860 0.016906 0.000000 0.000000 0.000000
# 4 0.000000 0.000000 0.000000 0.050251 0.000000 0.000000
# 5 0.000000 0.000000 0.000000 0.000000 0.050251 0.000000
# 6 -0.010338 0.010338 0.000000 0.000000 0.000000 0.066169
#
#
# Mechanical properties :
#
#
# Convention : Reuss Voigt Hill
#
# Bulk Modulus (GPa) = 36.26004 44.05766 40.15885
# Shear Modulus (GPa) = 17.36864 19.05750 18.21307
#
# Velocity S-wave (km/s) = 3.34020 3.49883 3.42043
# Velocity P-wave (km/s) = 6.17802 6.68007 6.43394
#
# Compressibility (1/GPa) = 0.02757856
#
# Stress axis : x y z
#
# Youngs Moduli (GPa) = 37.81494 37.81494 59.14997
#
# Poissons Ratio (x) = 0.12815 0.52405
# Poissons Ratio (y) = 0.12815 0.52405
# Poissons Ratio (z) = 0.33503 0.33503
#
# Static dielectric constant tensor:
#      x y z
#    x 2.881650 0.000000 0.000000 
#    y 0.000000 2.881650 0.000000 
#    z 0.000000 0.000000 3.128180 
# 
# 
# High freq. dielectric constant tensor:
#      x y z
#    x 1.574710 0.000000 0.000000 
#    y 0.000000 1.574710 0.000000 
#    z 0.000000 0.000000 1.591050 
# 
# From -- ./inp_files/4064.got.cif
#   From: 2010.03.12/outbox.cif.g09.slc.cpg/sg88_3_cif.got.tgz:4064.got - 2010.04.08 20:20:55.
