data_PCOD8304272
_publ_section_title
;
Structure prediction by ZEFSAII (Michael W. Deem and Ramdas Pophale) SiO2 
 PCOD8304272
Probable space group: I 41/A
;
_chemical_formula_sum "Si O2"
_cell_formula_units_Z 112
_cell_length_a 14.316208
_cell_length_b 14.316208
_cell_length_c 28.681465
_cell_angle_alpha 90.000000
_cell_angle_beta 90.000000
_cell_angle_gamma 90.000000
_cell_volume 5878.375571
_symmetry_space_group_name_H-M "I 41/A"
_symmetry_group_IT_number 88
_space_group.IT_coordinate_system_code '2'
_symmetry_cell_setting 'tetragonal'
loop_
_space_group_symop_operation_xyz
x,y,z
3/4-y,1/4+x,1/4+z
-x,1/2-y,z
1/4+y,1/4-x,1/4+z
-x,-y,-z
1/4+y,3/4-x,3/4-z
x,1/2+y,-z
3/4-y,3/4+x,3/4-z
1/2+x,1/2+y,1/2+z
1/4-y,3/4+x,3/4+z
1/2-x,-y,1/2+z
3/4+y,3/4-x,3/4+z
1/2-x,1/2-y,1/2-z
3/4+y,1/4-x,1/4-z
1/2+x,y,1/2-z
1/4-y,1/4+x,1/4-z
loop_
_atom_site_type_symbol
_atom_site_label
_atom_site_fract_x
_atom_site_fract_y
_atom_site_fract_z
Si Si1 0.705798 0.447013 0.111969
Si Si2 0.391813 0.766550 0.820334
Si Si3 0.680650 0.098979 0.540457
Si Si4 0.796045 0.555193 0.033091
Si Si5 0.052728 0.376176 0.144751
Si Si6 0.729125 0.264088 0.482282
Si Si7 0.032493 0.149612 0.828578
O O1 0.684692 0.488197 0.163646
O O2 0.733612 0.534103 0.078963
O O3 0.789025 0.371195 0.116754
O O4 0.612539 0.392392 0.093277
O O5 0.500000 0.750000 0.807310
O O6 0.334818 0.677352 0.802954
O O7 0.346243 0.853874 0.795508
O O8 0.378871 0.780433 0.875773
O O9 0.707271 0.205649 0.529063
O O10 0.700913 0.042817 0.493432
O O11 0.753264 0.629453 0.997367
O O12 0.113535 0.279742 0.144353
O O13 0.002166 0.395478 0.194650
O O14 0.828092 0.234851 0.462373
O O15 0.000000 0.250000 0.809339
#
# Coordination Sequence:
#
# PCOD8304272 Si02
#       7
#    16  16  16  16  16  16  16
#     4  10  23  38  59  89 119 164 209 259 318 365
#     4  10  21  36  58  89 123 167 201 241 307 366
#     4  11  22  38  57  86 128 160 206 254 301 381
#     4  12  23  38  61  89 126 163 211 257 306 377
#     4  10  21  36  55  85 129 164 201 242 298 371
#     4  11  23  39  62  92 119 162 211 257 312 374
#     4   9  20  41  64  83 119 157 204 257 314 375
#
# _framework density 19.052883000000001
#
# number of rings (size 3 to 8) (size 9 to 14) (size 15 to 20)
#    0.000    1.571    4.286    1.286    8.000    3.429 
#    0.000    0.714    3.143    0.000    0.000    0.000 
#    0.000    0.000    0.000    0.000    0.000    0.000 
#
# Total GULP energy -694069.004762 kJ/mol
# GULP energy per Si atom -12394.089371 kJ/mol
# Density = 1.900952 g / cm^3
# Si number density = 19.052883 Si / 1000 Ang^3
#
#
#
# Elastic Constant Matrix: (Units=GPa)
#
#
# Indices 1 2 3 4 5 6 
#
# 1 69.3949 14.6848 29.6969 0.0000 0.0000 5.1167
# 2 14.6848 69.3949 29.6969 0.0000 0.0000 -5.1167
# 3 29.6969 29.6969 96.7824 0.0000 0.0000 0.0000
# 4 0.0000 0.0000 0.0000 27.0266 0.0000 0.0000
# 5 0.0000 0.0000 0.0000 0.0000 27.0266 0.0000
# 6 5.1167 -5.1167 0.0000 0.0000 0.0000 21.9701
#
#
#
# Elastic Compliance Matrix: (Units=1/GPa)
#
#
# Indices 1 2 3 4 5 6 
#
# 1 0.017148 -0.001963 -0.004659 0.000000 0.000000 -0.004451
# 2 -0.001963 0.017148 -0.004659 0.000000 0.000000 0.004451
# 3 -0.004659 -0.004659 0.013192 0.000000 0.000000 0.000000
# 4 0.000000 0.000000 0.000000 0.037001 0.000000 0.000000
# 5 0.000000 0.000000 0.000000 0.000000 0.037001 0.000000
# 6 -0.004451 0.004451 0.000000 0.000000 0.000000 0.047590
#
#
# Mechanical properties :
#
#
# Convention : Reuss Voigt Hill
#
# Bulk Modulus (GPa) = 40.12178 42.63660 41.37919
# Shear Modulus (GPa) = 25.00631 25.97087 25.48859
#
# Velocity S-wave (km/s) = 3.62673 3.69602 3.66154
# Velocity P-wave (km/s) = 6.21622 6.37500 6.29611
#
# Compressibility (1/GPa) = 0.02492412
#
# Stress axis : x y z
#
# Youngs Moduli (GPa) = 58.31663 58.31663 75.80447
#
# Poissons Ratio (x) = 0.11447 0.35320
# Poissons Ratio (y) = 0.11447 0.35320
# Poissons Ratio (z) = 0.27172 0.27172
#
# Static dielectric constant tensor:
#      x y z
#    x 3.480920 0.000000 0.000000 
#    y 0.000000 3.480920 0.000000 
#    z 0.000000 0.000000 3.585170 
# 
# 
# High freq. dielectric constant tensor:
#      x y z
#    x 1.721830 0.000000 0.000000 
#    y 0.000000 1.721830 0.000000 
#    z 0.000000 0.000000 1.743470 
# 
# From -- ./inp_files/6577.got.cif
#   From: 2010.03.12/outbox.cif.g09.slc.cpg/sg88_4_cif.got.tgz:6577.got - 2010.04.08 20:20:55.
