data_PCOD8304689
_publ_section_title
;
Structure prediction by ZEFSAII (Michael W. Deem and Ramdas Pophale) SiO2 
 PCOD8304689
Probable space group: P 4 21 2
;
_chemical_formula_sum "Si O2"
_cell_formula_units_Z 28
_cell_length_a 8.132457
_cell_length_b 8.132457
_cell_length_c 19.290063
_cell_angle_alpha 90.000000
_cell_angle_beta 90.000000
_cell_angle_gamma 90.000000
_cell_volume 1275.784135
_symmetry_space_group_name_H-M "P 4 21 2"
_symmetry_group_IT_number 90
_symmetry_cell_setting 'tetragonal'
loop_
_space_group_symop_operation_xyz
x,y,z
1/2-y,1/2+x,z
-x,-y,z
1/2+y,1/2-x,z
1/2+x,1/2-y,-z
1/2-x,1/2+y,-z
y,x,-z
-y,-x,-z
loop_
_atom_site_type_symbol
_atom_site_label
_atom_site_fract_x
_atom_site_fract_y
_atom_site_fract_z
Si Si1 0.257919 0.416876 0.213022
Si Si2 0.572536 0.740839 0.941383
Si Si3 0.761404 0.916408 0.565385
Si Si4 0.500000 0.500000 0.679533
O O1 0.202548 0.605196 0.224442
O O2 0.332939 0.398821 0.135647
O O3 0.396728 0.377253 0.270252
O O4 0.388948 0.801261 0.951308
O O5 0.604768 0.604768 0.000000
O O6 0.606074 0.795476 0.565619
O O7 0.876043 0.876043 0.500000
O O8 0.876277 0.890664 0.632663
#
# Coordination Sequence:
#
# PCOD8304689 Si02
#       4
#     8   8   8   4
#     4   9  20  38  57  82 118 160 207 257 310 374
#     4   9  19  35  55  80 112 152 202 257 310 367
#     4  11  24  43  67  95 128 166 212 263 313 374
#     4  12  21  34  61  90 118 158 204 250 309 368
#
# _framework density 21.947285000000001
#
# number of rings (size 3 to 8) (size 9 to 14) (size 15 to 20)
#    0.000    2.000    0.000    5.571    0.000    7.429 
#    0.000    0.000    0.000    7.714    0.000    0.000 
#    0.000    0.000    0.000    0.000    0.000    0.000 
#
# Total GULP energy -347102.454363 kJ/mol
# GULP energy per Si atom -12396.516227 kJ/mol
# Density = 2.189733 g / cm^3
# Si number density = 21.947285 Si / 1000 Ang^3
#
#
#
# Elastic Constant Matrix: (Units=GPa)
#
#
# Indices 1 2 3 4 5 6 
#
# 1 106.9850 31.8177 72.1695 0.0000 0.0000 0.0000
# 2 31.8177 106.9850 72.1695 0.0000 0.0000 0.0000
# 3 72.1695 72.1695 207.2548 0.0000 0.0000 0.0000
# 4 0.0000 0.0000 0.0000 47.5879 0.0000 0.0000
# 5 0.0000 0.0000 0.0000 0.0000 47.5879 0.0000
# 6 0.0000 0.0000 0.0000 0.0000 0.0000 30.7732
#
#
#
# Elastic Compliance Matrix: (Units=1/GPa)
#
#
# Indices 1 2 3 4 5 6 
#
# 1 0.012299 -0.001005 -0.003933 0.000000 0.000000 0.000000
# 2 -0.001005 0.012299 -0.003933 0.000000 0.000000 0.000000
# 3 -0.003933 -0.003933 0.007564 0.000000 0.000000 0.000000
# 4 0.000000 0.000000 0.000000 0.021014 0.000000 0.000000
# 5 0.000000 0.000000 0.000000 0.000000 0.021014 0.000000
# 6 0.000000 0.000000 0.000000 0.000000 0.000000 0.032496
#
#
# Mechanical properties :
#
#
# Convention : Reuss Voigt Hill
#
# Bulk Modulus (GPa) = 69.34342 85.94868 77.64605
# Shear Modulus (GPa) = 38.68988 41.52767 40.10878
#
# Velocity S-wave (km/s) = 4.20319 4.35461 4.27957
# Velocity P-wave (km/s) = 7.43100 8.03305 7.73789
#
# Compressibility (1/GPa) = 0.01442098
#
# Stress axis : x y z
#
# Youngs Moduli (GPa) = 81.30809 81.30809 132.20669
#
# Poissons Ratio (x) = 0.08169 0.51994
# Poissons Ratio (y) = 0.08169 0.51994
# Poissons Ratio (z) = 0.31977 0.31977
#
# Static dielectric constant tensor:
#      x y z
#    x 3.822960 0.000000 0.000000 
#    y 0.000000 3.822960 0.000000 
#    z 0.000000 0.000000 4.286720 
# 
# 
# High freq. dielectric constant tensor:
#      x y z
#    x 1.847570 0.000000 0.000000 
#    y 0.000000 1.847570 0.000000 
#    z 0.000000 0.000000 1.885900 
# 
# From -- ./inp_files/2595.got.cif
#   From: 2010.03.12/outbox.cif.g09.slc.cpg/sg90_2_cif.got.tgz:2595.got - 2010.04.08 20:26:03.
