data_PCOD8304150
_publ_section_title
;
Structure prediction by ZEFSAII (Michael W. Deem and Ramdas Pophale) SiO2 
 PCOD8304150
Probable space group: I 4/M
;
_chemical_formula_sum "Si O2"
_cell_formula_units_Z 56
_cell_length_a 17.879970
_cell_length_b 17.879970
_cell_length_c 7.936906
_cell_angle_alpha 90.000000
_cell_angle_beta 90.000000
_cell_angle_gamma 90.000000
_cell_volume 2537.375887
_symmetry_space_group_name_H-M "I 4/M"
_symmetry_group_IT_number 87
_symmetry_cell_setting 'tetragonal'
loop_
_space_group_symop_operation_xyz
x,y,z
-y,x,z
-x,-y,z
y,-x,z
-x,-y,-z
y,-x,-z
x,y,-z
-y,x,-z
1/2+x,1/2+y,1/2+z
1/2-y,1/2+x,1/2+z
1/2-x,1/2-y,1/2+z
1/2+y,1/2-x,1/2+z
1/2-x,1/2-y,1/2-z
1/2+y,1/2-x,1/2-z
1/2+x,1/2+y,1/2-z
1/2-y,1/2+x,1/2-z
loop_
_atom_site_type_symbol
_atom_site_label
_atom_site_fract_x
_atom_site_fract_y
_atom_site_fract_z
Si Si1 0.152845 0.160797 0.687726
Si Si2 0.293878 0.070751 0.196472
Si Si3 0.809465 0.399741 0.300392
Si Si4 0.930055 0.900749 0.000000
O O1 0.122962 0.142323 0.500000
O O2 0.231142 0.118781 0.707842
O O3 0.157125 0.250659 0.710856
O O4 0.092766 0.138510 0.827964
O O5 0.373592 0.108491 0.239795
O O6 0.296479 0.985192 0.260071
O O7 0.275386 0.073590 0.000000
O O8 0.801726 0.393305 0.500000
O O9 0.018065 0.895725 0.000000
#
# Coordination Sequence:
#
# PCOD8304150 Si02
#       4
#    16  16  16   8
#     4  12  24  42  70  98 133 176 227 275 334 398
#     4  11  24  43  67  97 136 178 224 282 339 398
#     4  11  24  43  67  97 136 178 224 282 339 398
#     4  11  24  42  64  96 136 174 220 275 334 402
#
# _framework density 22.070046000000001
#
# number of rings (size 3 to 8) (size 9 to 14) (size 15 to 20)
#    0.000    0.714    2.857    4.286    0.000    8.571 
#    0.000    4.286    0.000    0.000    0.000    0.000 
#    0.000    0.000    0.000    0.000    0.000    0.000 
#
# Total GULP energy -347230.175101 kJ/mol
# GULP energy per Si atom -12401.077682 kJ/mol
# Density = 2.201981 g / cm^3
# Si number density = 22.070046 Si / 1000 Ang^3
#
#
#
# Elastic Constant Matrix: (Units=GPa)
#
#
# Indices 1 2 3 4 5 6 
#
# 1 91.1496 38.0296 22.1950 0.0000 0.0000 1.2424
# 2 38.0296 91.1496 22.1950 0.0000 0.0000 -1.2424
# 3 22.1950 22.1950 142.9169 0.0000 0.0000 0.0000
# 4 0.0000 0.0000 0.0000 6.4589 0.0000 0.0000
# 5 0.0000 0.0000 0.0000 0.0000 6.4589 0.0000
# 6 1.2424 -1.2424 0.0000 0.0000 0.0000 40.1024
#
#
#
# Elastic Compliance Matrix: (Units=1/GPa)
#
#
# Indices 1 2 3 4 5 6 
#
# 1 0.013515 -0.005338 -0.001270 0.000000 0.000000 -0.000584
# 2 -0.005338 0.013515 -0.001270 0.000000 0.000000 0.000584
# 3 -0.001270 -0.001270 0.007392 0.000000 0.000000 0.000000
# 4 0.000000 0.000000 0.000000 0.154825 0.000000 0.000000
# 5 0.000000 0.000000 0.000000 0.000000 0.154825 0.000000
# 6 -0.000584 0.000584 0.000000 0.000000 0.000000 0.024972
#
#
# Mechanical properties :
#
#
# Convention : Reuss Voigt Hill
#
# Bulk Modulus (GPa) = 53.57110 54.45061 54.01085
# Shear Modulus (GPa) = 12.78703 26.79047 19.78875
#
# Velocity S-wave (km/s) = 2.40965 3.48786 2.99763
# Velocity P-wave (km/s) = 5.66284 6.39887 6.04207
#
# Compressibility (1/GPa) = 0.01866678
#
# Stress axis : x y z
#
# Youngs Moduli (GPa) = 73.99125 73.99125 135.29004
#
# Poissons Ratio (x) = 0.39493 0.17182
# Poissons Ratio (y) = 0.39493 0.17182
# Poissons Ratio (z) = 0.09397 0.09397
#
# Static dielectric constant tensor:
#      x y z
#    x 4.104720 0.000000 0.000000 
#    y 0.000000 4.104720 0.000000 
#    z 0.000000 0.000000 4.020540 
# 
# 
# High freq. dielectric constant tensor:
#      x y z
#    x 1.871090 0.000000 0.000000 
#    y 0.000000 1.871090 0.000000 
#    z 0.000000 0.000000 1.876930 
# 
# From -- ./inp_files/719.got.cif
#   From: 2010.03.12/outbox.cif.g09.slc.cpg/sg87_1_cif.got.tgz:719.got - 2010.04.08 20:16:13.
