data_PCOD8304500
_publ_section_title
;
Structure prediction by ZEFSAII (Michael W. Deem and Ramdas Pophale) SiO2 
 PCOD8304500
Probable space group: P 4 2 2
;
_chemical_formula_sum "Si O2"
_cell_formula_units_Z 40
_cell_length_a 9.469914
_cell_length_b 9.469914
_cell_length_c 23.934162
_cell_angle_alpha 90.000000
_cell_angle_beta 90.000000
_cell_angle_gamma 90.000000
_cell_volume 2146.398204
_symmetry_space_group_name_H-M "P 4 2 2"
_symmetry_group_IT_number 89
_symmetry_cell_setting 'tetragonal'
loop_
_space_group_symop_operation_xyz
x,y,z
-y,x,z
-x,-y,z
y,-x,z
x,-y,-z
-x,y,-z
y,x,-z
-y,-x,-z
loop_
_atom_site_type_symbol
_atom_site_label
_atom_site_fract_x
_atom_site_fract_y
_atom_site_fract_z
Si Si1 0.815233 0.146854 0.348487
Si Si2 0.353848 0.146142 0.974361
Si Si3 0.668539 0.654769 0.434638
Si Si4 0.308103 0.630343 0.739177
Si Si5 0.603189 0.293065 0.133646
O O1 0.749507 0.214294 0.404377
O O2 0.722112 0.199508 0.296488
O O3 0.977656 0.196182 0.346944
O O4 0.350348 0.163085 0.906681
O O5 0.500000 0.191255 0.000000
O O6 0.250456 0.250456 0.000000
O O7 0.304930 0.000000 0.000000
O O8 0.508419 0.695989 0.417711
O O9 0.683845 0.683845 0.500000
O O10 0.307795 0.463383 0.725924
O O11 0.254802 0.641864 0.802877
O O12 0.685530 0.437796 0.121565
#
# Coordination Sequence:
#
# PCOD8304500 Si02
#       5
#     8   8   8   8   8
#     4  11  24  39  53  79 121 161 196 230 278 341
#     4  11  22  36  56  83 114 147 185 227 280 343
#     4   9  19  37  62  90 117 147 190 243 292 337
#     4   9  19  37  61  86 109 139 188 244 292 340
#     4   9  17  34  60  86 109 139 182 236 290 334
#
# _framework density 18.635870000000001
#
# number of rings (size 3 to 8) (size 9 to 14) (size 15 to 20)
#    0.000    2.200    2.000    3.000    0.000    6.000 
#    3.600    3.000    0.000    0.000    0.000    0.000 
#    0.000    0.000    0.000    0.000    0.000    0.000 
#
# Total GULP energy -495534.729814 kJ/mol
# GULP energy per Si atom -12388.368245 kJ/mol
# Density = 1.859345 g / cm^3
# Si number density = 18.635870 Si / 1000 Ang^3
#
#
#
# Elastic Constant Matrix: (Units=GPa)
#
#
# Indices 1 2 3 4 5 6 
#
# 1 147.8169 28.9102 61.0443 0.0000 0.0000 0.0000
# 2 28.9102 147.8169 61.0443 0.0000 0.0000 0.0000
# 3 61.0443 61.0443 133.0806 0.0000 0.0000 0.0000
# 4 0.0000 0.0000 0.0000 28.3756 0.0000 0.0000
# 5 0.0000 0.0000 0.0000 0.0000 28.3756 0.0000
# 6 0.0000 0.0000 0.0000 0.0000 0.0000 33.9583
#
#
#
# Elastic Compliance Matrix: (Units=1/GPa)
#
#
# Indices 1 2 3 4 5 6 
#
# 1 0.008347 -0.000063 -0.003800 0.000000 0.000000 0.000000
# 2 -0.000063 0.008347 -0.003800 0.000000 0.000000 0.000000
# 3 -0.003800 -0.003800 0.011000 0.000000 0.000000 0.000000
# 4 0.000000 0.000000 0.000000 0.035242 0.000000 0.000000
# 5 0.000000 0.000000 0.000000 0.000000 0.035242 0.000000
# 6 0.000000 0.000000 0.000000 0.000000 0.000000 0.029448
#
#
# Mechanical properties :
#
#
# Convention : Reuss Voigt Hill
#
# Bulk Modulus (GPa) = 80.85174 81.19024 81.02099
# Shear Modulus (GPa) = 33.99696 36.65626 35.32661
#
# Velocity S-wave (km/s) = 4.27579 4.43987 4.35860
# Velocity P-wave (km/s) = 8.23746 8.36328 8.30061
#
# Compressibility (1/GPa) = 0.01236832
#
# Stress axis : x y z
#
# Youngs Moduli (GPa) = 119.80889 119.80889 90.90929
#
# Poissons Ratio (x) = 0.00759 0.34542
# Poissons Ratio (y) = 0.00759 0.34542
# Poissons Ratio (z) = 0.45522 0.45522
#
# Static dielectric constant tensor:
#      x y z
#    x 3.349000 0.000000 0.000000 
#    y 0.000000 3.349000 0.000000 
#    z 0.000000 0.000000 3.545350 
# 
# 
# High freq. dielectric constant tensor:
#      x y z
#    x 1.713090 0.000000 0.000000 
#    y 0.000000 1.713090 0.000000 
#    z 0.000000 0.000000 1.737990 
# 
# From -- ./inp_files/2681.got.cif
#   From: 2010.03.12/outbox.cif.g09.slc.cpg/sg89_2_cif.got.tgz:2681.got - 2010.04.08 20:24:03.
