data_PCOD8304925
_publ_section_title
;
Structure prediction by ZEFSAII (Michael W. Deem and Ramdas Pophale) SiO2 
 PCOD8304925
Probable space group: P 41 2 2
;
_chemical_formula_sum "Si O2"
_cell_formula_units_Z 40
_cell_length_a 8.728813
_cell_length_b 8.728813
_cell_length_c 25.436937
_cell_angle_alpha 90.000000
_cell_angle_beta 90.000000
_cell_angle_gamma 90.000000
_cell_volume 1938.095591
_symmetry_space_group_name_H-M "P 41 2 2"
_symmetry_group_IT_number 91
_symmetry_cell_setting 'tetragonal'
loop_
_space_group_symop_operation_xyz
x,y,z
-y,x,1/4+z
-x,-y,1/2+z
y,-x,3/4+z
x,-y,1/2-z
-x,y,-z
y,x,3/4-z
-y,-x,1/4-z
loop_
_atom_site_type_symbol
_atom_site_label
_atom_site_fract_x
_atom_site_fract_y
_atom_site_fract_z
Si Si1 0.051932 0.780420 0.294147
Si Si2 0.085708 0.378249 0.102933
Si Si3 0.000000 0.807200 0.500000
Si Si4 0.500000 0.771755 0.000000
Si Si5 0.602337 0.604318 0.655946
Si Si6 0.926994 0.636915 0.055110
O O1 0.996499 0.700044 0.348079
O O2 0.126662 0.653465 0.255578
O O3 0.178620 0.911428 0.309311
O O4 0.910265 0.853907 0.264434
O O5 0.266527 0.363198 0.112845
O O6 0.043457 0.295480 0.049197
O O7 0.034884 0.557735 0.099386
O O8 0.480275 0.665996 0.051900
O O9 0.454438 0.545563 0.625000
O O10 0.560597 0.758419 0.687886
O O11 0.000000 0.589202 0.000000
#
# Coordination Sequence:
#
# PCOD8304925 Si02
#       6
#     8   8   4   4   8   8
#     4  10  23  40  63  90 123 162 216 250 309 380
#     4  10  23  39  60  92 121 161 204 252 313 371
#     4  12  22  38  64  90 128 166 198 258 316 378
#     4   8  20  40  58  86 124 154 204 260 298 362
#     4  10  24  39  64  94 121 161 213 260 308 379
#     4  10  20  42  62  84 123 164 193 251 317 366
#
# _framework density 20.638819000000002
#
# number of rings (size 3 to 8) (size 9 to 14) (size 15 to 20)
#    0.000    2.400    2.000    0.600    5.600    8.000 
#    0.000    0.000    0.000    0.000    0.000    0.000 
#    0.000    0.000    0.000    0.000    0.000    0.000 
#
# Total GULP energy -495729.775130 kJ/mol
# GULP energy per Si atom -12393.244378 kJ/mol
# Density = 2.059184 g / cm^3
# Si number density = 20.638819 Si / 1000 Ang^3
#
#
#
# Elastic Constant Matrix: (Units=GPa)
#
#
# Indices 1 2 3 4 5 6 
#
# 1 76.2202 34.9542 39.3369 0.0000 0.0000 0.0000
# 2 34.9542 76.2194 39.3367 0.0000 0.0000 0.0000
# 3 39.3369 39.3367 121.8264 0.0000 0.0000 0.0000
# 4 0.0000 0.0000 0.0000 34.1802 0.0000 0.0000
# 5 0.0000 0.0000 0.0000 0.0000 34.1805 0.0000
# 6 0.0000 0.0000 0.0000 0.0000 0.0000 25.2393
#
#
#
# Elastic Compliance Matrix: (Units=1/GPa)
#
#
# Indices 1 2 3 4 5 6 
#
# 1 0.017946 -0.006287 -0.003765 0.000000 0.000000 0.000000
# 2 -0.006287 0.017946 -0.003765 0.000000 0.000000 0.000000
# 3 -0.003765 -0.003765 0.010640 0.000000 0.000000 0.000000
# 4 0.000000 0.000000 0.000000 0.029257 0.000000 0.000000
# 5 0.000000 0.000000 0.000000 0.000000 0.029256 0.000000
# 6 0.000000 0.000000 0.000000 0.000000 0.000000 0.039621
#
#
# Mechanical properties :
#
#
# Convention : Reuss Voigt Hill
#
# Bulk Modulus (GPa) = 52.91260 55.72461 54.31861
# Shear Modulus (GPa) = 27.99584 29.42922 28.71253
#
# Velocity S-wave (km/s) = 3.68702 3.78023 3.73391
# Velocity P-wave (km/s) = 6.61956 6.79058 6.70562
#
# Compressibility (1/GPa) = 0.01889909
#
# Stress axis : x y z
#
# Youngs Moduli (GPa) = 55.72264 55.72211 93.98921
#
# Poissons Ratio (x) = 0.35033 0.35383
# Poissons Ratio (y) = 0.35034 0.35383
# Poissons Ratio (z) = 0.20977 0.20977
#
# Static dielectric constant tensor:
#      x y z
#    x 3.713910 0.000000 0.000000 
#    y 0.000000 3.713910 0.000000 
#    z 0.000000 0.000000 3.805670 
# 
# 
# High freq. dielectric constant tensor:
#      x y z
#    x 1.798420 0.000000 0.000000 
#    y 0.000000 1.798420 0.000000 
#    z 0.000000 0.000000 1.811670 
# 
# From -- ./inp_files/17814.got.cif
#   From: 2010.03.12/outbox.cif.g09.slc.cpg/sg91_9_cif.got.tgz:17814.got - 2010.04.08 20:27:58.
