data_PCOD8304932
_publ_section_title
;
Structure prediction by ZEFSAII (Michael W. Deem and Ramdas Pophale) SiO2 
 PCOD8304932
Probable space group: P 41 2 2
;
_chemical_formula_sum "Si O2"
_cell_formula_units_Z 36
_cell_length_a 15.158200
_cell_length_b 15.158200
_cell_length_c 7.768170
_cell_angle_alpha 90.000000
_cell_angle_beta 90.000000
_cell_angle_gamma 90.000000
_cell_volume 1784.900401
_symmetry_space_group_name_H-M "P 41 2 2"
_symmetry_group_IT_number 91
_symmetry_cell_setting 'tetragonal'
loop_
_space_group_symop_operation_xyz
x,y,z
-y,x,1/4+z
-x,-y,1/2+z
y,-x,3/4+z
x,-y,1/2-z
-x,y,-z
y,x,3/4-z
-y,-x,1/4-z
loop_
_atom_site_type_symbol
_atom_site_label
_atom_site_fract_x
_atom_site_fract_y
_atom_site_fract_z
Si Si1 0.825092 0.428923 0.398277
Si Si2 0.500000 0.249590 0.500000
Si Si3 0.687122 0.714396 0.069349
Si Si4 0.338286 0.000000 0.250000
Si Si5 0.115843 0.228135 0.243207
Si Si6 0.885870 0.000000 0.250000
O O1 0.817810 0.500000 0.250000
O O2 0.808161 0.464863 0.591059
O O3 0.750169 0.357232 0.338219
O O4 0.924512 0.393625 0.402104
O O5 0.418362 0.307566 0.579041
O O6 0.709480 0.816027 0.117518
O O7 0.716036 0.716036 0.875000
O O8 0.282728 0.044271 0.400803
O O9 0.162692 0.162692 0.375000
O O10 0.068913 0.173903 0.097542
O O11 0.947885 0.947885 0.375000
#
# Coordination Sequence:
#
# PCOD8304932 Si02
#       6
#     8   4   8   4   8   4
#     4  11  25  41  67 102 135 172 226 284 344 418
#     4  10  20  44  70  94 132 178 220 272 352 406
#     4   9  19  42  67  89 128 179 210 278 343 409
#     4  12  22  41  67 100 132 180 226 280 352 420
#     4  11  21  42  65  86 130 180 223 275 347 406
#     4  12  26  39  59  94 128 178 240 292 342 408
#
# _framework density 20.169191000000001
#
# number of rings (size 3 to 8) (size 9 to 14) (size 15 to 20)
#    0.000    1.333    6.667    2.000    1.556    2.667 
#    0.000    0.000   22.000    0.000    0.000    0.000 
#    0.000    0.000    0.000    0.000    0.000    0.000 
#
# Total GULP energy -445986.708977 kJ/mol
# GULP energy per Si atom -12388.519694 kJ/mol
# Density = 2.012329 g / cm^3
# Si number density = 20.169191 Si / 1000 Ang^3
#
#
#
# Elastic Constant Matrix: (Units=GPa)
#
#
# Indices 1 2 3 4 5 6 
#
# 1 161.1794 91.0507 46.2502 0.0000 0.0000 0.0000
# 2 91.0507 161.1794 46.2502 0.0000 0.0000 0.0000
# 3 46.2502 46.2502 76.7624 0.0000 0.0000 0.0000
# 4 0.0000 0.0000 0.0000 39.4282 0.0000 0.0000
# 5 0.0000 0.0000 0.0000 0.0000 39.4282 0.0000
# 6 0.0000 0.0000 0.0000 0.0000 0.0000 37.6929
#
#
#
# Elastic Compliance Matrix: (Units=1/GPa)
#
#
# Indices 1 2 3 4 5 6 
#
# 1 0.009674 -0.004585 -0.003066 0.000000 0.000000 0.000000
# 2 -0.004585 0.009674 -0.003066 0.000000 0.000000 0.000000
# 3 -0.003066 -0.003066 0.016722 0.000000 0.000000 0.000000
# 4 0.000000 0.000000 0.000000 0.025363 0.000000 0.000000
# 5 0.000000 0.000000 0.000000 0.000000 0.025363 0.000000
# 6 0.000000 0.000000 0.000000 0.000000 0.000000 0.026530
#
#
# Mechanical properties :
#
#
# Convention : Reuss Voigt Hill
#
# Bulk Modulus (GPa) = 68.32773 85.13594 76.73184
# Shear Modulus (GPa) = 35.80639 37.68120 36.74379
#
# Velocity S-wave (km/s) = 4.21800 4.32702 4.27286
# Velocity P-wave (km/s) = 7.59427 8.20163 7.90378
#
# Compressibility (1/GPa) = 0.01463535
#
# Stress axis : x y z
#
# Youngs Moduli (GPa) = 103.36652 103.36652 59.80099
#
# Poissons Ratio (x) = 0.47395 0.18337
# Poissons Ratio (y) = 0.47395 0.18337
# Poissons Ratio (z) = 0.31695 0.31695
#
# Static dielectric constant tensor:
#      x y z
#    x 4.619390 0.000000 0.000000 
#    y 0.000000 4.619390 0.000000 
#    z 0.000000 0.000000 3.498830 
# 
# 
# High freq. dielectric constant tensor:
#      x y z
#    x 1.796780 0.000000 0.000000 
#    y 0.000000 1.796780 0.000000 
#    z 0.000000 0.000000 1.775210 
# 
# From -- ./inp_files/14954.got.cif
#   From: 2010.03.12/outbox.cif.g09.slc.cpg/sg91_8_cif.got.tgz:14954.got - 2010.04.08 20:27:58.
