data_PCOD8304219
_publ_section_title
;
Structure prediction by ZEFSAII (Michael W. Deem and Ramdas Pophale) SiO2 
 PCOD8304219
Probable space group: I 41/A
;
_chemical_formula_sum "Si O2"
_cell_formula_units_Z 100
_cell_length_a 13.973048
_cell_length_b 13.973048
_cell_length_c 25.368318
_cell_angle_alpha 90.000000
_cell_angle_beta 90.000000
_cell_angle_gamma 90.000000
_cell_volume 4953.064402
_symmetry_space_group_name_H-M "I 41/A"
_symmetry_group_IT_number 88
_space_group.IT_coordinate_system_code '2'
_symmetry_cell_setting 'tetragonal'
loop_
_space_group_symop_operation_xyz
x,y,z
3/4-y,1/4+x,1/4+z
-x,1/2-y,z
1/4+y,1/4-x,1/4+z
-x,-y,-z
1/4+y,3/4-x,3/4-z
x,1/2+y,-z
3/4-y,3/4+x,3/4-z
1/2+x,1/2+y,1/2+z
1/4-y,3/4+x,3/4+z
1/2-x,-y,1/2+z
3/4+y,3/4-x,3/4+z
1/2-x,1/2-y,1/2-z
3/4+y,1/4-x,1/4-z
1/2+x,y,1/2-z
1/4-y,1/4+x,1/4-z
loop_
_atom_site_type_symbol
_atom_site_label
_atom_site_fract_x
_atom_site_fract_y
_atom_site_fract_z
Si Si1 0.500000 0.750000 0.949180
Si Si2 0.106084 0.890553 0.121463
Si Si3 0.000000 0.250000 0.992098
Si Si4 0.565001 0.056573 0.234125
Si Si5 0.697173 0.794553 0.800420
Si Si6 0.755234 0.984684 0.552057
Si Si7 0.075969 0.114758 0.715838
Si Si8 0.000000 0.750000 0.375000
O O1 0.432808 0.817520 0.914745
O O2 0.439146 0.679479 0.986304
O O3 0.152058 0.831594 0.073866
O O4 0.023270 0.963554 0.101119
O O5 0.185423 0.959726 0.144939
O O6 0.902141 0.210526 0.021249
O O7 0.955026 0.333315 0.956713
O O8 0.659104 0.002748 0.254553
O O9 0.481672 0.979843 0.231760
O O10 0.750000 0.750000 0.750000
O O11 0.724947 0.901158 0.814622
O O12 0.833188 0.064293 0.537862
O O13 0.038808 0.162896 0.661372
#
# Coordination Sequence:
#
# PCOD8304219 Si02
#       8
#     8  16   8  16  16  16  16   4
#     4  11  25  45  68 102 134 183 228 293 349 416
#     4  11  24  42  64 101 136 178 232 277 345 413
#     4  10  19  38  71  83 130 178 223 265 337 394
#     4  11  22  43  64  99 136 177 228 279 342 409
#     4  11  22  43  66  94 133 182 226 278 338 409
#     4  12  24  42  69 102 131 183 233 285 340 415
#     4  11  24  45  71 100 143 177 233 285 348 408
#     4  10  24  48  66 104 136 188 230 282 348 410
#
# _framework density 20.189522
#
# number of rings (size 3 to 8) (size 9 to 14) (size 15 to 20)
#    0.000    0.960    6.400    2.880    0.000    1.920 
#    5.760    0.000    0.000    0.000    0.000    0.000 
#    0.000    0.000    0.000    0.000    0.000    0.000 
#
# Total GULP energy -619607.724477 kJ/mol
# GULP energy per Si atom -12392.154490 kJ/mol
# Density = 2.014357 g / cm^3
# Si number density = 20.189522 Si / 1000 Ang^3
#
#
#
# Elastic Constant Matrix: (Units=GPa)
#
#
# Indices 1 2 3 4 5 6 
#
# 1 118.5996 50.7903 42.5745 0.0000 0.0000 -0.0688
# 2 50.7903 118.5996 42.5745 0.0000 0.0000 0.0688
# 3 42.5745 42.5745 88.3766 0.0000 0.0000 0.0000
# 4 0.0000 0.0000 0.0000 33.2089 0.0000 0.0000
# 5 0.0000 0.0000 0.0000 0.0000 33.2089 0.0000
# 6 -0.0688 0.0688 0.0000 0.0000 0.0000 46.5427
#
#
#
# Elastic Compliance Matrix: (Units=1/GPa)
#
#
# Indices 1 2 3 4 5 6 
#
# 1 0.011269 -0.003479 -0.003753 0.000000 0.000000 0.000022
# 2 -0.003479 0.011269 -0.003753 0.000000 0.000000 -0.000022
# 3 -0.003753 -0.003753 0.014931 0.000000 0.000000 0.000000
# 4 0.000000 0.000000 0.000000 0.030112 0.000000 0.000000
# 5 0.000000 0.000000 0.000000 0.000000 0.030112 0.000000
# 6 0.000022 -0.000022 0.000000 0.000000 0.000000 0.021486
#
#
# Mechanical properties :
#
#
# Convention : Reuss Voigt Hill
#
# Bulk Modulus (GPa) = 64.51656 66.38379 65.45018
# Shear Modulus (GPa) = 34.17317 35.23452 34.70385
#
# Velocity S-wave (km/s) = 4.11861 4.18208 4.15046
# Velocity P-wave (km/s) = 7.39203 7.50143 7.44693
#
# Compressibility (1/GPa) = 0.01549990
#
# Stress axis : x y z
#
# Youngs Moduli (GPa) = 88.74195 88.74195 66.97525
#
# Poissons Ratio (x) = 0.30870 0.25134
# Poissons Ratio (y) = 0.30870 0.25134
# Poissons Ratio (z) = 0.33302 0.33302
#
# Static dielectric constant tensor:
#      x y z
#    x 4.139900 0.000000 0.000000 
#    y 0.000000 4.139900 0.000000 
#    z 0.000000 0.000000 3.584830 
# 
# 
# High freq. dielectric constant tensor:
#      x y z
#    x 1.807180 0.000000 0.000000 
#    y 0.000000 1.807180 0.000000 
#    z 0.000000 0.000000 1.764600 
# 
# From -- ./inp_files/5311.got.cif
#   From: 2010.03.12/outbox.cif.g09.slc.cpg/sg88_3_cif.got.tgz:5311.got - 2010.04.08 20:20:55.
