data_PCOD8304555
_publ_section_title
;
Structure prediction by ZEFSAII (Michael W. Deem and Ramdas Pophale) SiO2 
 PCOD8304555
Probable space group: P 4 21 2
;
_chemical_formula_sum "Si O2"
_cell_formula_units_Z 60
_cell_length_a 11.967357
_cell_length_b 11.967357
_cell_length_c 20.118825
_cell_angle_alpha 90.000000
_cell_angle_beta 90.000000
_cell_angle_gamma 90.000000
_cell_volume 2881.370507
_symmetry_space_group_name_H-M "P 4 21 2"
_symmetry_group_IT_number 90
_symmetry_cell_setting 'tetragonal'
loop_
_space_group_symop_operation_xyz
x,y,z
1/2-y,1/2+x,z
-x,-y,z
1/2+y,1/2-x,z
1/2+x,1/2-y,-z
1/2-x,1/2+y,-z
y,x,-z
-y,-x,-z
loop_
_atom_site_type_symbol
_atom_site_label
_atom_site_fract_x
_atom_site_fract_y
_atom_site_fract_z
Si Si1 0.781025 0.781025 0.500000
Si Si2 0.304504 0.600913 0.204868
Si Si3 0.445616 0.823594 0.408162
Si Si4 0.606845 0.853174 0.596253
Si Si5 0.743178 0.631899 0.265254
Si Si6 0.717032 0.499154 0.729188
Si Si7 0.890926 0.926509 0.072768
Si Si8 0.009944 0.677427 0.867489
O O1 0.772732 0.898166 0.457963
O O2 0.676716 0.769061 0.550347
O O3 0.250447 0.485071 0.226991
O O4 0.224197 0.706987 0.215837
O O5 0.418593 0.617415 0.246518
O O6 0.327477 0.599501 0.126241
O O7 0.572355 0.861557 0.421637
O O8 0.440288 0.778953 0.332832
O O9 0.476322 0.845622 0.580004
O O10 0.627867 0.825078 0.672392
O O11 0.618616 0.663401 0.289159
O O12 0.805591 0.513594 0.788184
O O13 0.791610 0.012048 0.091333
O O14 0.872936 0.872936 0.000000
O O15 0.000000 0.000000 0.074772
O O16 0.895330 0.615986 0.887783
#
# Coordination Sequence:
#
# PCOD8304555 Si02
#       8
#     4   8   8   8   8   8   8   8
#     4  12  24  40  62  90 122 168 222 266 328 400
#     4  11  23  40  65 100 135 173 221 276 331 398
#     4  11  23  40  63  92 124 163 213 269 326 391
#     4  11  24  44  68  92 129 177 222 275 336 410
#     4  12  23  41  69 100 134 172 222 276 338 403
#     4  11  21  38  66 100 128 163 210 276 337 382
#     4  10  22  42  62  92 134 184 224 265 330 399
#     4  10  20  38  64  96 130 164 212 271 330 390
#
# _framework density 20.823425
#
# number of rings (size 3 to 8) (size 9 to 14) (size 15 to 20)
#    0.000    1.067    1.333    7.600    0.000    2.400 
#    4.800    0.000    0.000    1.600    0.000    0.000 
#    0.000    0.000    0.000    0.000    0.000    0.000 
#
# Total GULP energy -744084.410631 kJ/mol
# GULP energy per Si atom -12401.406844 kJ/mol
# Density = 2.077603 g / cm^3
# Si number density = 20.823425 Si / 1000 Ang^3
#
#
#
# Elastic Constant Matrix: (Units=GPa)
#
#
# Indices 1 2 3 4 5 6 
#
# 1 97.8002 44.6257 44.2000 0.0000 0.0000 0.0000
# 2 44.6257 97.8002 44.2000 0.0000 0.0000 0.0000
# 3 44.2000 44.2000 127.8344 0.0000 0.0000 0.0000
# 4 0.0000 0.0000 0.0000 26.2617 0.0000 0.0000
# 5 0.0000 0.0000 0.0000 0.0000 26.2617 0.0000
# 6 0.0000 0.0000 0.0000 0.0000 0.0000 31.2824
#
#
#
# Elastic Compliance Matrix: (Units=1/GPa)
#
#
# Indices 1 2 3 4 5 6 
#
# 1 0.013873 -0.004933 -0.003091 0.000000 0.000000 0.000000
# 2 -0.004933 0.013873 -0.003091 0.000000 0.000000 0.000000
# 3 -0.003091 -0.003091 0.009960 0.000000 0.000000 0.000000
# 4 0.000000 0.000000 0.000000 0.038078 0.000000 0.000000
# 5 0.000000 0.000000 0.000000 0.000000 0.038078 0.000000
# 6 0.000000 0.000000 0.000000 0.000000 0.000000 0.031967
#
#
# Mechanical properties :
#
#
# Convention : Reuss Voigt Hill
#
# Bulk Modulus (GPa) = 64.61812 65.49847 65.05830
# Shear Modulus (GPa) = 28.86537 29.45510 29.16024
#
# Velocity S-wave (km/s) = 3.72721 3.76509 3.74619
# Velocity P-wave (km/s) = 7.04426 7.10096 7.07267
#
# Compressibility (1/GPa) = 0.01547553
#
# Stress axis : x y z
#
# Youngs Moduli (GPa) = 72.08322 72.08322 100.40058
#
# Poissons Ratio (x) = 0.35560 0.31034
# Poissons Ratio (y) = 0.35560 0.31034
# Poissons Ratio (z) = 0.22281 0.22281
#
# Static dielectric constant tensor:
#      x y z
#    x 3.778270 0.000000 0.000000 
#    y 0.000000 3.778270 0.000000 
#    z 0.000000 0.000000 3.910640 
# 
# 
# High freq. dielectric constant tensor:
#      x y z
#    x 1.814980 0.000000 0.000000 
#    y 0.000000 1.814980 0.000000 
#    z 0.000000 0.000000 1.813780 
# 
# From -- ./inp_files/2865.got.cif
#   From: 2010.03.12/outbox.cif.g09.slc.cpg/sg90_2_cif.got.tgz:2865.got - 2010.04.08 20:26:03.
