data_PCOD8304951
_publ_section_title
;
Structure prediction by ZEFSAII (Michael W. Deem and Ramdas Pophale) SiO2 
 PCOD8304951
Probable space group: P 41 2 2
;
_chemical_formula_sum "Si O2"
_cell_formula_units_Z 60
_cell_length_a 17.317573
_cell_length_b 17.317573
_cell_length_c 10.551051
_cell_angle_alpha 90.000000
_cell_angle_beta 90.000000
_cell_angle_gamma 90.000000
_cell_volume 3164.242623
_symmetry_space_group_name_H-M "P 41 2 2"
_symmetry_group_IT_number 91
_symmetry_cell_setting 'tetragonal'
loop_
_space_group_symop_operation_xyz
x,y,z
-y,x,1/4+z
-x,-y,1/2+z
y,-x,3/4+z
x,-y,1/2-z
-x,y,-z
y,x,3/4-z
-y,-x,1/4-z
loop_
_atom_site_type_symbol
_atom_site_label
_atom_site_fract_x
_atom_site_fract_y
_atom_site_fract_z
Si Si1 0.682369 0.000000 0.750000
Si Si2 0.605430 0.773177 0.689355
Si Si3 0.322330 0.663239 0.485257
Si Si4 0.159308 0.764346 0.007058
Si Si5 0.583126 0.925458 0.542580
Si Si6 0.819947 0.777156 0.506413
Si Si7 0.911277 0.367797 0.020107
Si Si8 0.468221 0.781476 0.860943
O O1 0.737916 0.071766 0.724924
O O2 0.628993 0.010689 0.875197
O O3 0.607989 0.701920 0.592126
O O4 0.689200 0.786257 0.752061
O O5 0.571573 0.850052 0.626231
O O6 0.544377 0.750495 0.793695
O O7 0.356388 0.643613 0.625000
O O8 0.256171 0.726242 0.501307
O O9 0.289199 0.591400 0.405122
O O10 0.183072 0.816929 0.125000
O O11 0.166294 0.814373 0.877586
O O12 0.500000 0.959405 0.500000
O O13 0.631332 0.896827 0.420959
O O14 0.826252 0.826252 0.375000
O O15 0.892625 0.719312 0.525324
O O16 0.859544 0.430771 0.946470
O O17 0.000000 0.389581 0.000000
O O18 0.500000 0.799240 0.000000
#
# Coordination Sequence:
#
# PCOD8304951 Si02
#       8
#     4   8   8   8   8   8   8   8
#     4  10  24  40  60  88 126 162 196 262 312 376
#     4  10  21  37  58  80 117 152 198 247 294 366
#     4   9  19  35  61  83 107 148 204 251 294 350
#     4  10  22  37  61  89 114 157 204 251 309 368
#     4  11  22  38  56  86 126 165 198 236 313 381
#     4   9  18  38  57  79 112 153 203 252 283 350
#     4  11  24  35  57  87 124 163 198 244 302 375
#     4  11  24  38  55  89 122 160 201 252 310 368
#
# _framework density 18.961884999999999
#
# number of rings (size 3 to 8) (size 9 to 14) (size 15 to 20)
#    0.000    1.867    1.333    4.000    8.400    1.600 
#    0.000    0.000    0.000    0.000    8.667    0.000 
#    0.000    0.000    0.000    0.000    0.000    0.000 
#
# Total GULP energy -743780.935474 kJ/mol
# GULP energy per Si atom -12396.348925 kJ/mol
# Density = 1.891873 g / cm^3
# Si number density = 18.961885 Si / 1000 Ang^3
#
#
#
# Elastic Constant Matrix: (Units=GPa)
#
#
# Indices 1 2 3 4 5 6 
#
# 1 79.7074 49.0707 54.4304 0.0000 0.0000 0.0000
# 2 49.0707 79.7075 54.4297 0.0000 0.0000 0.0000
# 3 54.4304 54.4297 153.3902 0.0000 0.0000 0.0000
# 4 0.0000 0.0000 0.0000 31.6720 0.0000 0.0000
# 5 0.0000 0.0000 0.0000 0.0000 31.6722 0.0000
# 6 0.0000 0.0000 0.0000 0.0000 0.0000 17.9581
#
#
#
# Elastic Compliance Matrix: (Units=1/GPa)
#
#
# Indices 1 2 3 4 5 6 
#
# 1 0.021867 -0.010774 -0.003936 0.000000 0.000000 0.000000
# 2 -0.010774 0.021867 -0.003936 0.000000 0.000000 0.000000
# 3 -0.003936 -0.003936 0.009313 0.000000 0.000000 0.000000
# 4 0.000000 0.000000 0.000000 0.031574 0.000000 0.000000
# 5 0.000000 0.000000 0.000000 0.000000 0.031573 0.000000
# 6 0.000000 0.000000 0.000000 0.000000 0.000000 0.055685
#
#
# Mechanical properties :
#
#
# Convention : Reuss Voigt Hill
#
# Bulk Modulus (GPa) = 63.47847 69.85185 66.66516
# Shear Modulus (GPa) = 23.31850 26.58541 24.95196
#
# Velocity S-wave (km/s) = 3.51059 3.74845 3.63147
# Velocity P-wave (km/s) = 7.06979 7.46006 7.26754
#
# Compressibility (1/GPa) = 0.01575337
#
# Stress axis : x y z
#
# Youngs Moduli (GPa) = 45.73158 45.73204 107.37881
#
# Poissons Ratio (x) = 0.49271 0.42268
# Poissons Ratio (y) = 0.49271 0.42265
# Poissons Ratio (z) = 0.18001 0.18001
#
# Static dielectric constant tensor:
#      x y z
#    x 3.310400 0.000000 0.000000 
#    y 0.000000 3.310400 0.000000 
#    z 0.000000 0.000000 3.879460 
# 
# 
# High freq. dielectric constant tensor:
#      x y z
#    x 1.712270 0.000000 0.000000 
#    y 0.000000 1.712270 0.000000 
#    z 0.000000 0.000000 1.754200 
# 
# From -- ./inp_files/19702.got.cif
#   From: 2010.03.12/outbox.cif.g09.slc.cpg/sg91_10_cif.got.tgz:19702.got - 2010.04.08 20:27:58.
