data_PCOD8304220
_publ_section_title
;
Structure prediction by ZEFSAII (Michael W. Deem and Ramdas Pophale) SiO2 
 PCOD8304220
Probable space group: I 41/A
;
_chemical_formula_sum "Si O2"
_cell_formula_units_Z 112
_cell_length_a 14.211665
_cell_length_b 14.211665
_cell_length_c 26.298147
_cell_angle_alpha 90.000000
_cell_angle_beta 90.000000
_cell_angle_gamma 90.000000
_cell_volume 5311.474147
_symmetry_space_group_name_H-M "I 41/A"
_symmetry_group_IT_number 88
_space_group.IT_coordinate_system_code '2'
_symmetry_cell_setting 'tetragonal'
loop_
_space_group_symop_operation_xyz
x,y,z
3/4-y,1/4+x,1/4+z
-x,1/2-y,z
1/4+y,1/4-x,1/4+z
-x,-y,-z
1/4+y,3/4-x,3/4-z
x,1/2+y,-z
3/4-y,3/4+x,3/4-z
1/2+x,1/2+y,1/2+z
1/4-y,3/4+x,3/4+z
1/2-x,-y,1/2+z
3/4+y,3/4-x,3/4+z
1/2-x,1/2-y,1/2-z
3/4+y,1/4-x,1/4-z
1/2+x,y,1/2-z
1/4-y,1/4+x,1/4-z
loop_
_atom_site_type_symbol
_atom_site_label
_atom_site_fract_x
_atom_site_fract_y
_atom_site_fract_z
Si Si1 0.337404 0.863680 0.356050
Si Si2 0.265994 0.471337 0.967386
Si Si3 0.165492 0.138546 0.442293
Si Si4 0.936788 0.420019 0.341295
Si Si5 0.966092 0.027225 0.129219
Si Si6 0.641297 0.344902 0.301084
Si Si7 0.000000 0.750000 0.026359
Si Si8 0.000000 0.250000 0.447240
O O1 0.267274 0.894101 0.310910
O O2 0.288178 0.791993 0.396453
O O3 0.426186 0.803491 0.338031
O O4 0.380165 0.955976 0.382657
O O5 0.244191 0.370785 0.942057
O O6 0.179399 0.543583 0.969243
O O7 0.292257 0.446732 0.025275
O O8 0.121940 0.092195 0.392544
O O9 0.243297 0.213019 0.423795
O O10 0.083239 0.192731 0.476090
O O11 0.942298 0.321904 0.311203
O O12 0.922161 0.122559 0.151343
O O13 0.013379 0.043007 0.074395
O O14 0.576364 0.306162 0.256546
#
# Coordination Sequence:
#
# PCOD8304220 Si02
#       8
#    16  16  16  16  16  16   8   8
#     4   9  21  41  66  91 122 174 220 262 332 394
#     4  11  24  40  65 102 128 164 231 282 325 387
#     4  10  20  41  63  87 124 169 215 271 319 396
#     4  11  23  43  62  90 131 174 218 275 334 396
#     4  10  19  40  62  92 134 173 211 264 330 384
#     4  11  23  38  63  98 132 175 217 270 310 395
#     4  12  25  41  62  96 131 183 229 256 328 411
#     4   8  17  36  66  80 114 169 212 251 326 389
#
# _framework density 21.086424999999998
#
# number of rings (size 3 to 8) (size 9 to 14) (size 15 to 20)
#    0.000    1.714    1.429    4.286    0.000    4.000 
#    2.571    1.429    0.000    0.000    0.000    1.000 
#    0.000    0.000    0.000    0.000    0.000    0.000 
#
# Total GULP energy -694022.506748 kJ/mol
# GULP energy per Si atom -12393.259049 kJ/mol
# Density = 2.103843 g / cm^3
# Si number density = 21.086425 Si / 1000 Ang^3
#
#
#
# Elastic Constant Matrix: (Units=GPa)
#
#
# Indices 1 2 3 4 5 6 
#
# 1 80.8844 35.3364 53.4407 0.0000 0.0000 -1.6288
# 2 35.3364 80.8844 53.4407 0.0000 0.0000 1.6288
# 3 53.4407 53.4407 104.7914 0.0000 0.0000 0.0000
# 4 0.0000 0.0000 0.0000 30.4650 0.0000 0.0000
# 5 0.0000 0.0000 0.0000 0.0000 30.4650 0.0000
# 6 -1.6288 1.6288 0.0000 0.0000 0.0000 34.4434
#
#
#
# Elastic Compliance Matrix: (Units=1/GPa)
#
#
# Indices 1 2 3 4 5 6 
#
# 1 0.019117 -0.002913 -0.008263 0.000000 0.000000 0.001042
# 2 -0.002913 0.019117 -0.008263 0.000000 0.000000 -0.001042
# 3 -0.008263 -0.008263 0.017971 0.000000 0.000000 0.000000
# 4 0.000000 0.000000 0.000000 0.032825 0.000000 0.000000
# 5 0.000000 0.000000 0.000000 0.000000 0.032825 0.000000
# 6 0.001042 -0.001042 0.000000 0.000000 0.000000 0.029132
#
#
# Mechanical properties :
#
#
# Convention : Reuss Voigt Hill
#
# Bulk Modulus (GPa) = 57.72114 61.22174 59.47144
# Shear Modulus (GPa) = 25.55724 27.36416 26.46070
#
# Velocity S-wave (km/s) = 3.48519 3.60629 3.54626
# Velocity P-wave (km/s) = 6.60518 6.81448 6.71065
#
# Compressibility (1/GPa) = 0.01732468
#
# Stress axis : x y z
#
# Youngs Moduli (GPa) = 52.31067 52.31067 55.64511
#
# Poissons Ratio (x) = 0.15237 0.45982
# Poissons Ratio (y) = 0.15237 0.45982
# Poissons Ratio (z) = 0.43227 0.43227
#
# Static dielectric constant tensor:
#      x y z
#    x 4.198850 0.000000 0.000000 
#    y 0.000000 4.198850 0.000000 
#    z 0.000000 0.000000 3.596350 
# 
# 
# High freq. dielectric constant tensor:
#      x y z
#    x 1.831630 0.000000 0.000000 
#    y 0.000000 1.831630 0.000000 
#    z 0.000000 0.000000 1.800660 
# 
# From -- ./inp_files/5921.got.cif
#   From: 2010.03.12/outbox.cif.g09.slc.cpg/sg88_3_cif.got.tgz:5921.got - 2010.04.08 20:20:55.
