data_PCOD8304253
_publ_section_title
;
Structure prediction by ZEFSAII (Michael W. Deem and Ramdas Pophale) SiO2 
 PCOD8304253
Probable space group: I 41/A
;
_chemical_formula_sum "Si O2"
_cell_formula_units_Z 72
_cell_length_a 14.267533
_cell_length_b 14.267533
_cell_length_c 16.453733
_cell_angle_alpha 90.000000
_cell_angle_beta 90.000000
_cell_angle_gamma 90.000000
_cell_volume 3349.362989
_symmetry_space_group_name_H-M "I 41/A"
_symmetry_group_IT_number 88
_space_group.IT_coordinate_system_code '2'
_symmetry_cell_setting 'tetragonal'
loop_
_space_group_symop_operation_xyz
x,y,z
3/4-y,1/4+x,1/4+z
-x,1/2-y,z
1/4+y,1/4-x,1/4+z
-x,-y,-z
1/4+y,3/4-x,3/4-z
x,1/2+y,-z
3/4-y,3/4+x,3/4-z
1/2+x,1/2+y,1/2+z
1/4-y,3/4+x,3/4+z
1/2-x,-y,1/2+z
3/4+y,3/4-x,3/4+z
1/2-x,1/2-y,1/2-z
3/4+y,1/4-x,1/4-z
1/2+x,y,1/2-z
1/4-y,1/4+x,1/4-z
loop_
_atom_site_type_symbol
_atom_site_label
_atom_site_fract_x
_atom_site_fract_y
_atom_site_fract_z
Si Si1 0.479564 0.889823 0.589547
Si Si2 0.500000 0.250000 0.722334
Si Si3 0.762396 0.666257 0.132162
Si Si4 0.535256 0.394372 0.592847
Si Si5 0.174370 0.836131 0.306352
O O1 0.577195 0.856274 0.628782
O O2 0.483233 0.879170 0.492246
O O3 0.460629 0.996275 0.616265
O O4 0.479619 0.339953 0.664194
O O5 0.587229 0.269992 0.780630
O O6 0.860279 0.648739 0.086795
O O7 0.765615 0.639245 0.226954
O O8 0.685039 0.601721 0.092432
O O9 0.733964 0.776593 0.127554
#
# Coordination Sequence:
#
# PCOD8304253 Si02
#       5
#    16   8  16  16  16
#     4  10  22  44  67  93 132 177 220 275 330 395
#     4  10  20  39  65  94 134 170 208 280 334 397
#     4  10  22  41  63  93 133 171 219 277 322 409
#     4  10  23  42  64  99 131 169 225 272 331 397
#     4  10  21  40  64  97 131 175 222 269 343 394
#
# _framework density 21.496623
#
# number of rings (size 3 to 8) (size 9 to 14) (size 15 to 20)
#    0.000    2.000    0.000    2.667    6.222    0.000 
#   12.000    2.222    0.000    0.000    0.000    0.000 
#    0.000    0.000    0.000    0.000    0.000    0.000 
#
# Total GULP energy -446384.964557 kJ/mol
# GULP energy per Si atom -12399.582349 kJ/mol
# Density = 2.144770 g / cm^3
# Si number density = 21.496623 Si / 1000 Ang^3
#
#
#
# Elastic Constant Matrix: (Units=GPa)
#
#
# Indices 1 2 3 4 5 6 
#
# 1 97.8828 30.1151 21.1763 0.0000 0.0000 5.7601
# 2 30.1151 97.8828 21.1763 0.0000 0.0000 -5.7601
# 3 21.1763 21.1763 42.4670 0.0000 0.0000 0.0000
# 4 0.0000 0.0000 0.0000 25.3781 0.0000 0.0000
# 5 0.0000 0.0000 0.0000 0.0000 25.3781 0.0000
# 6 5.7601 -5.7601 0.0000 0.0000 0.0000 29.3310
#
#
#
# Elastic Compliance Matrix: (Units=1/GPa)
#
#
# Indices 1 2 3 4 5 6 
#
# 1 0.012311 -0.002955 -0.004666 0.000000 0.000000 -0.002998
# 2 -0.002955 0.012311 -0.004666 0.000000 0.000000 0.002998
# 3 -0.004666 -0.004666 0.028201 0.000000 0.000000 0.000000
# 4 0.000000 0.000000 0.000000 0.039404 0.000000 0.000000
# 5 0.000000 0.000000 0.000000 0.000000 0.039404 0.000000
# 6 -0.002998 0.002998 0.000000 0.000000 0.000000 0.035271
#
#
# Mechanical properties :
#
#
# Convention : Reuss Voigt Hill
#
# Bulk Modulus (GPa) = 35.39681 42.57423 38.98552
# Shear Modulus (GPa) = 24.88911 27.06845 25.97878
#
# Velocity S-wave (km/s) = 3.40636 3.55236 3.48013
# Velocity P-wave (km/s) = 5.65447 6.05589 5.85862
#
# Compressibility (1/GPa) = 0.02825113
#
# Stress axis : x y z
#
# Youngs Moduli (GPa) = 81.22706 81.22705 35.46011
#
# Poissons Ratio (x) = 0.24001 0.16544
# Poissons Ratio (y) = 0.24001 0.16544
# Poissons Ratio (z) = 0.37897 0.37897
#
# Static dielectric constant tensor:
#      x y z
#    x 3.984890 0.000000 0.000000 
#    y 0.000000 3.984890 0.000000 
#    z 0.000000 0.000000 3.923670 
# 
# 
# High freq. dielectric constant tensor:
#      x y z
#    x 1.843060 0.000000 0.000000 
#    y 0.000000 1.843060 0.000000 
#    z 0.000000 0.000000 1.848750 
# 
# From -- ./inp_files/3828.got.cif
#   From: 2010.03.12/outbox.cif.g09.slc.cpg/sg88_2_cif.got.tgz:3828.got - 2010.04.08 20:20:55.
