data_PCOD8304354
_publ_section_title
;
Structure prediction by ZEFSAII (Michael W. Deem and Ramdas Pophale) SiO2 
 PCOD8304354
Probable space group: I 41/A
;
_chemical_formula_sum "Si O2"
_cell_formula_units_Z 96
_cell_length_a 14.657968
_cell_length_b 14.657968
_cell_length_c 20.040664
_cell_angle_alpha 90.000000
_cell_angle_beta 90.000000
_cell_angle_gamma 90.000000
_cell_volume 4305.857423
_symmetry_space_group_name_H-M "I 41/A"
_symmetry_group_IT_number 88
_space_group.IT_coordinate_system_code '2'
_symmetry_cell_setting 'tetragonal'
loop_
_space_group_symop_operation_xyz
x,y,z
3/4-y,1/4+x,1/4+z
-x,1/2-y,z
1/4+y,1/4-x,1/4+z
-x,-y,-z
1/4+y,3/4-x,3/4-z
x,1/2+y,-z
3/4-y,3/4+x,3/4-z
1/2+x,1/2+y,1/2+z
1/4-y,3/4+x,3/4+z
1/2-x,-y,1/2+z
3/4+y,3/4-x,3/4+z
1/2-x,1/2-y,1/2-z
3/4+y,1/4-x,1/4-z
1/2+x,y,1/2-z
1/4-y,1/4+x,1/4-z
loop_
_atom_site_type_symbol
_atom_site_label
_atom_site_fract_x
_atom_site_fract_y
_atom_site_fract_z
Si Si1 0.333911 0.805456 0.451982
Si Si2 0.199796 0.263577 0.319614
Si Si3 0.343968 0.104045 0.909646
Si Si4 0.969074 0.114083 0.149821
Si Si5 0.469678 0.403142 0.971932
Si Si6 0.108991 0.599749 0.606008
O O1 0.424357 0.861703 0.435913
O O2 0.242495 0.865827 0.453893
O O3 0.350657 0.757662 0.522885
O O4 0.320316 0.729999 0.396443
O O5 0.250000 0.250000 0.250000
O O6 0.269207 0.315066 0.369138
O O7 0.172052 0.166719 0.351411
O O8 0.437252 0.143065 0.943920
O O9 0.338375 0.144053 0.835315
O O10 0.337555 0.994446 0.907334
O O11 0.891444 0.189474 0.139922
O O12 0.500000 0.500000 0.000000
O O13 0.422490 0.352748 0.035680
#
# Coordination Sequence:
#
# PCOD8304354 Si02
#       6
#    16  16  16  16  16  16
#     4  12  26  47  73 106 146 194 246 305 371 444
#     4  12  27  46  71 109 141 195 248 302 373 440
#     4  11  24  47  75 107 149 194 246 306 375 448
#     4  11  26  48  71  99 145 190 241 307 363 440
#     4  10  23  48  67 110 147 187 247 305 367 447
#     4  11  27  47  74 105 154 189 242 313 365 459
#
# _framework density 22.295211999999999
#
# number of rings (size 3 to 8) (size 9 to 14) (size 15 to 20)
#    0.000    0.833    5.000    1.500    9.333    3.000 
#    3.000    0.000    0.000    0.000    0.000    0.000 
#    0.000    0.000    0.000    0.000    0.000    0.000 
#
# Total GULP energy -595263.217350 kJ/mol
# GULP energy per Si atom -12401.317028 kJ/mol
# Density = 2.224447 g / cm^3
# Si number density = 22.295212 Si / 1000 Ang^3
#
#
#
# Elastic Constant Matrix: (Units=GPa)
#
#
# Indices 1 2 3 4 5 6 
#
# 1 86.6495 21.5532 38.9026 0.0000 0.0000 0.4076
# 2 21.5532 86.6495 38.9026 0.0000 0.0000 -0.4076
# 3 38.9026 38.9026 155.0321 0.0000 0.0000 0.0000
# 4 0.0000 0.0000 0.0000 44.6712 0.0000 0.0000
# 5 0.0000 0.0000 0.0000 0.0000 44.6712 0.0000
# 6 0.4076 -0.4076 0.0000 0.0000 0.0000 27.9364
#
#
#
# Elastic Compliance Matrix: (Units=1/GPa)
#
#
# Indices 1 2 3 4 5 6 
#
# 1 0.013321 -0.002044 -0.002830 0.000000 0.000000 -0.000224
# 2 -0.002044 0.013321 -0.002830 0.000000 0.000000 0.000224
# 3 -0.002830 -0.002830 0.007870 0.000000 0.000000 0.000000
# 4 0.000000 0.000000 0.000000 0.022386 0.000000 0.000000
# 5 0.000000 0.000000 0.000000 0.000000 0.022386 0.000000
# 6 -0.000224 0.000224 0.000000 0.000000 0.000000 0.035802
#
#
# Mechanical properties :
#
#
# Convention : Reuss Voigt Hill
#
# Bulk Modulus (GPa) = 52.34240 58.56090 55.45165
# Shear Modulus (GPa) = 36.53356 38.72062 37.62709
#
# Velocity S-wave (km/s) = 4.05239 4.17192 4.11259
# Velocity P-wave (km/s) = 6.73971 7.03774 6.89034
#
# Compressibility (1/GPa) = 0.01910497
#
# Stress axis : x y z
#
# Youngs Moduli (GPa) = 75.07140 75.07140 127.05837
#
# Poissons Ratio (x) = 0.15345 0.35953
# Poissons Ratio (y) = 0.15345 0.35953
# Poissons Ratio (z) = 0.21243 0.21243
#
# Static dielectric constant tensor:
#      x y z
#    x 4.227420 0.000000 0.000000 
#    y 0.000000 4.227420 0.000000 
#    z 0.000000 0.000000 4.588730 
# 
# 
# High freq. dielectric constant tensor:
#      x y z
#    x 1.876690 0.000000 0.000000 
#    y 0.000000 1.876690 0.000000 
#    z 0.000000 0.000000 1.899260 
# 
# From -- ./inp_files/4695.got.cif
#   From: 2010.03.12/outbox.cif.g09.slc.cpg/sg88_3_cif.got.tgz:4695.got - 2010.04.08 20:20:55.
