data_PCOD8304834
_publ_section_title
;
Structure prediction by ZEFSAII (Michael W. Deem and Ramdas Pophale) SiO2 
 PCOD8304834
Probable space group: P 41 2 2
;
_chemical_formula_sum "Si O2"
_cell_formula_units_Z 64
_cell_length_a 20.260190
_cell_length_b 20.260190
_cell_length_c 10.130715
_cell_angle_alpha 90.000000
_cell_angle_beta 90.000000
_cell_angle_gamma 90.000000
_cell_volume 4158.408267
_symmetry_space_group_name_H-M "P 41 2 2"
_symmetry_group_IT_number 91
_symmetry_cell_setting 'tetragonal'
loop_
_space_group_symop_operation_xyz
x,y,z
-y,x,1/4+z
-x,-y,1/2+z
y,-x,3/4+z
x,-y,1/2-z
-x,y,-z
y,x,3/4-z
-y,-x,1/4-z
loop_
_atom_site_type_symbol
_atom_site_label
_atom_site_fract_x
_atom_site_fract_y
_atom_site_fract_z
Si Si1 0.722709 0.675198 0.005375
Si Si2 0.940463 0.673685 0.403492
Si Si3 0.667187 0.272533 0.244041
Si Si4 0.840693 0.776066 0.488841
Si Si5 0.825310 0.421151 0.403705
Si Si6 0.168511 0.211497 0.511194
Si Si7 0.314953 0.063158 0.157332
Si Si8 0.826936 0.570812 0.401295
O O1 0.670828 0.685198 0.123066
O O2 0.761742 0.606025 0.016751
O O3 0.678208 0.678208 0.875000
O O4 0.776376 0.732670 0.007411
O O5 0.909428 0.740460 0.461223
O O6 0.957627 0.685246 0.248090
O O7 0.893258 0.611383 0.424497
O O8 0.000000 0.656524 0.500000
O O9 0.675911 0.324090 0.125000
O O10 0.724354 0.218528 0.236499
O O11 0.597562 0.234377 0.237299
O O12 0.829788 0.829788 0.375000
O O13 0.842593 0.814025 0.627869
O O14 0.889383 0.377173 0.434055
O O15 0.840575 0.495976 0.446181
O O16 0.806220 0.419601 0.250331
O O17 0.169675 0.169675 0.375000
O O18 0.099191 0.246884 0.548032
O O19 0.324336 0.000000 0.250000
#
# Coordination Sequence:
#
# PCOD8304834 Si02
#       8
#     8   8   8   8   8   8   8   8
#     4   9  16  27  44  66  90 112 142 189 246 281
#     4  10  20  31  46  67  92 125 160 192 224 263
#     4   9  14  25  46  67  83 108 149 195 234 269
#     4   9  15  28  46  63  86 112 145 193 238 268
#     4   9  17  31  47  64  91 128 159 189 226 268
#     4   9  17  28  46  67  86 113 147 188 239 281
#     4  10  20  32  45  65  95 127 157 188 225 272
#     4   9  17  30  48  66  89 123 165 195 216 264
#
# _framework density 15.390504999999999
#
# number of rings (size 3 to 8) (size 9 to 14) (size 15 to 20)
#    0.000    2.750    2.500    0.000    1.750    0.500 
#    2.250    0.625    0.000    0.000    0.000    0.000 
#    0.000    6.000    0.000    0.000    0.000    0.000 
#
# Total GULP energy -793145.312639 kJ/mol
# GULP energy per Si atom -12392.895510 kJ/mol
# Density = 1.535548 g / cm^3
# Si number density = 15.390505 Si / 1000 Ang^3
#
#
#
# Elastic Constant Matrix: (Units=GPa)
#
#
# Indices 1 2 3 4 5 6 
#
# 1 60.7037 59.0298 49.9927 0.0000 0.0000 0.0000
# 2 59.0298 60.7036 49.9930 0.0000 0.0000 0.0000
# 3 49.9927 49.9930 121.4372 0.0000 0.0000 0.0000
# 4 0.0000 0.0000 0.0000 21.4605 0.0000 0.0000
# 5 0.0000 0.0000 0.0000 0.0000 21.4605 0.0000
# 6 0.0000 0.0000 0.0000 0.0000 0.0000 14.4420
#
#
#
# Elastic Compliance Matrix: (Units=1/GPa)
#
#
# Indices 1 2 3 4 5 6 
#
# 1 0.305087 -0.292361 -0.005238 0.000000 0.000000 0.000000
# 2 -0.292361 0.305089 -0.005241 0.000000 0.000000 0.000000
# 3 -0.005238 -0.005241 0.012549 0.000000 0.000000 0.000000
# 4 0.000000 0.000000 0.000000 0.046597 0.000000 0.000000
# 5 0.000000 0.000000 0.000000 0.000000 0.046597 0.000000
# 6 0.000000 0.000000 0.000000 0.000000 0.000000 0.069242
#
#
# Mechanical properties :
#
#
# Convention : Reuss Voigt Hill
#
# Bulk Modulus (GPa) = 58.66781 62.31950 60.49366
# Shear Modulus (GPa) = 3.58032 17.06119 10.32076
#
# Velocity S-wave (km/s) = 1.52688 3.33311 2.59239
# Velocity P-wave (km/s) = 6.42734 7.44264 6.95355
#
# Compressibility (1/GPa) = 0.01704512
#
# Stress axis : x y z
#
# Youngs Moduli (GPa) = 3.27776 3.27773 79.68979
#
# Poissons Ratio (x) = 0.95828 0.41744
# Poissons Ratio (y) = 0.95829 0.41763
# Poissons Ratio (z) = 0.01717 0.01718
#
# Static dielectric constant tensor:
#      x y z
#    x 2.772850 0.000000 0.000000 
#    y 0.000000 2.772850 0.000000 
#    z 0.000000 0.000000 3.162910 
# 
# 
# High freq. dielectric constant tensor:
#      x y z
#    x 1.561860 0.000000 0.000000 
#    y 0.000000 1.561870 0.000000 
#    z 0.000000 0.000000 1.597420 
# 
# From -- ./inp_files/19822.got.cif
#   From: 2010.03.12/outbox.cif.g09.slc.cpg/sg91_10_cif.got.tgz:19822.got - 2010.04.08 20:27:58.
