data_PCOD8304430
_publ_section_title
;
Structure prediction by ZEFSAII (Michael W. Deem and Ramdas Pophale) SiO2 
 PCOD8304430
Probable space group: I 41/A
;
_chemical_formula_sum "Si O2"
_cell_formula_units_Z 108
_cell_length_a 14.050189
_cell_length_b 14.050189
_cell_length_c 25.332613
_cell_angle_alpha 90.000000
_cell_angle_beta 90.000000
_cell_angle_gamma 90.000000
_cell_volume 5000.855678
_symmetry_space_group_name_H-M "I 41/A"
_symmetry_group_IT_number 88
_space_group.IT_coordinate_system_code '2'
_symmetry_cell_setting 'tetragonal'
loop_
_space_group_symop_operation_xyz
x,y,z
3/4-y,1/4+x,1/4+z
-x,1/2-y,z
1/4+y,1/4-x,1/4+z
-x,-y,-z
1/4+y,3/4-x,3/4-z
x,1/2+y,-z
3/4-y,3/4+x,3/4-z
1/2+x,1/2+y,1/2+z
1/4-y,3/4+x,3/4+z
1/2-x,-y,1/2+z
3/4+y,3/4-x,3/4+z
1/2-x,1/2-y,1/2-z
3/4+y,1/4-x,1/4-z
1/2+x,y,1/2-z
1/4-y,1/4+x,1/4-z
loop_
_atom_site_type_symbol
_atom_site_label
_atom_site_fract_x
_atom_site_fract_y
_atom_site_fract_z
Si Si1 0.000000 0.250000 0.376620
Si Si2 0.779030 0.999607 0.384808
Si Si3 0.561251 0.164371 0.292509
Si Si4 0.334641 0.809246 0.306076
Si Si5 0.704870 0.713091 0.625298
Si Si6 0.500000 0.250000 0.875000
Si Si7 0.396578 0.097651 0.566150
Si Si8 0.913576 0.575482 0.438196
O O1 0.931659 0.185233 0.413066
O O2 0.948920 0.327840 0.340712
O O3 0.868179 0.006545 0.422878
O O4 0.738972 0.104249 0.374319
O O5 0.706359 0.932786 0.415289
O O6 0.812821 0.944969 0.331938
O O7 0.500000 0.250000 0.266856
O O8 0.607957 0.213940 0.342706
O O9 0.503878 0.070685 0.316022
O O10 0.639040 0.137986 0.247392
O O11 0.281566 0.708034 0.311801
O O12 0.363580 0.838461 0.247443
O O13 0.775837 0.775445 0.660688
O O14 0.473447 0.155157 0.907263
#
# Coordination Sequence:
#
# PCOD8304430 Si02
#       8
#     8  16  16  16  16   4  16  16
#     4  12  23  48  66  98 144 186 237 294 354 436
#     4  12  25  46  71 107 144 183 244 307 354 430
#     4  12  23  45  71  99 143 193 236 289 366 430
#     4  11  25  46  70 101 142 186 234 292 366 425
#     4  12  24  45  70 101 147 186 238 299 355 431
#     4  12  22  48  72 100 132 180 234 296 364 426
#     4  12  26  43  71 106 140 193 239 295 363 438
#     4  11  25  45  73 101 137 184 235 297 362 432
#
# _framework density 21.596305000000001
#
# number of rings (size 3 to 8) (size 9 to 14) (size 15 to 20)
#    0.000    0.296    8.148    0.889    2.074    0.000 
#    5.333    0.000    0.000    0.000    0.000    0.000 
#    0.000    0.000    0.000    0.000    0.000    0.000 
#
# Total GULP energy -669207.624180 kJ/mol
# GULP energy per Si atom -12392.733781 kJ/mol
# Density = 2.154715 g / cm^3
# Si number density = 21.596305 Si / 1000 Ang^3
#
#
#
# Elastic Constant Matrix: (Units=GPa)
#
#
# Indices 1 2 3 4 5 6 
#
# 1 96.4576 29.3978 51.0051 0.0000 0.0000 13.2693
# 2 29.3978 96.4576 51.0051 0.0000 0.0000 -13.2693
# 3 51.0051 51.0051 128.7148 0.0000 0.0000 0.0000
# 4 0.0000 0.0000 0.0000 27.6646 0.0000 0.0000
# 5 0.0000 0.0000 0.0000 0.0000 27.6646 0.0000
# 6 13.2693 -13.2693 0.0000 0.0000 0.0000 43.3545
#
#
#
# Elastic Compliance Matrix: (Units=1/GPa)
#
#
# Indices 1 2 3 4 5 6 
#
# 1 0.014336 -0.002631 -0.004638 0.000000 0.000000 -0.005193
# 2 -0.002631 0.014336 -0.004638 0.000000 0.000000 0.005193
# 3 -0.004638 -0.004638 0.011445 0.000000 0.000000 0.000000
# 4 0.000000 0.000000 0.000000 0.036147 0.000000 0.000000
# 5 0.000000 0.000000 0.000000 0.000000 0.036147 0.000000
# 6 -0.005193 0.005193 0.000000 0.000000 0.000000 0.026244
#
#
# Mechanical properties :
#
#
# Convention : Reuss Voigt Hill
#
# Bulk Modulus (GPa) = 61.34181 64.93845 63.14013
# Shear Modulus (GPa) = 29.77858 32.41822 31.09840
#
# Velocity S-wave (km/s) = 3.71735 3.87861 3.79883
# Velocity P-wave (km/s) = 6.84766 7.08468 6.96717
#
# Compressibility (1/GPa) = 0.01630210
#
# Stress axis : x y z
#
# Youngs Moduli (GPa) = 69.75360 69.75360 87.37334
#
# Poissons Ratio (x) = 0.18352 0.40527
# Poissons Ratio (y) = 0.18352 0.40527
# Poissons Ratio (z) = 0.32354 0.32354
#
# Static dielectric constant tensor:
#      x y z
#    x 3.961890 0.000000 0.000000 
#    y 0.000000 3.961890 0.000000 
#    z 0.000000 0.000000 3.920040 
# 
# 
# High freq. dielectric constant tensor:
#      x y z
#    x 1.854620 0.000000 0.000000 
#    y 0.000000 1.854620 0.000000 
#    z 0.000000 0.000000 1.849310 
# 
# From -- ./inp_files/5402.got.cif
#   From: 2010.03.12/outbox.cif.g09.slc.cpg/sg88_3_cif.got.tgz:5402.got - 2010.04.08 20:20:55.
