data_PCOD8304695
_publ_section_title
;
Structure prediction by ZEFSAII (Michael W. Deem and Ramdas Pophale) SiO2 
 PCOD8304695
Probable space group: P 4 21 2
;
_chemical_formula_sum "Si O2"
_cell_formula_units_Z 50
_cell_length_a 8.529325
_cell_length_b 8.529325
_cell_length_c 30.757671
_cell_angle_alpha 90.000000
_cell_angle_beta 90.000000
_cell_angle_gamma 90.000000
_cell_volume 2237.601648
_symmetry_space_group_name_H-M "P 4 21 2"
_symmetry_group_IT_number 90
_symmetry_cell_setting 'tetragonal'
loop_
_space_group_symop_operation_xyz
x,y,z
1/2-y,1/2+x,z
-x,-y,z
1/2+y,1/2-x,z
1/2+x,1/2-y,-z
1/2-x,1/2+y,-z
y,x,-z
-y,-x,-z
loop_
_atom_site_type_symbol
_atom_site_label
_atom_site_fract_x
_atom_site_fract_y
_atom_site_fract_z
Si Si1 0.623661 0.776579 0.618334
Si Si2 0.737014 0.104851 0.790030
Si Si3 0.890278 0.266520 0.539503
Si Si4 0.397220 0.236368 0.133277
Si Si5 0.838211 0.089816 0.297702
Si Si6 0.000000 0.500000 0.688415
Si Si7 0.760162 0.590015 0.964371
O O1 0.439894 0.790788 0.608684
O O2 0.689641 0.643887 0.586005
O O3 0.664723 0.730073 0.667137
O O4 0.578769 0.204555 0.787908
O O5 0.833094 0.132393 0.834268
O O6 0.842703 0.162484 0.750574
O O7 0.794540 0.426364 0.536225
O O8 0.845752 0.154249 0.500000
O O9 0.579247 0.202027 0.141466
O O10 0.377422 0.302615 0.084351
O O11 0.688189 0.973963 0.303809
O O12 0.000000 0.000000 0.306935
O O13 0.801979 0.410576 0.971586
O O14 0.629634 0.629634 0.000000
#
# Coordination Sequence:
#
# PCOD8304695 Si02
#       7
#     8   8   8   8   8   2   8
#     4  11  25  45  71 102 142 185 231 292 358 417
#     4  11  25  43  63  94 135 174 220 280 350 417
#     4  11  26  45  70 103 142 184 238 294 349 424
#     4   9  21  39  62  89 122 167 222 276 334 410
#     4  12  28  47  72 106 141 182 236 293 353 420
#     4  12  28  44  76 104 136 184 248 280 352 444
#     4   9  19  37  58  86 122 163 212 270 331 400
#
# _framework density 22.345351000000001
#
# number of rings (size 3 to 8) (size 9 to 14) (size 15 to 20)
#    0.000    1.440    0.000    4.800    8.960    5.760 
#    0.000    4.800    0.000    0.000    0.000    0.000 
#    0.000    0.000    0.000    0.000    0.000    0.000 
#
# Total GULP energy -619444.227217 kJ/mol
# GULP energy per Si atom -12388.884544 kJ/mol
# Density = 2.229449 g / cm^3
# Si number density = 22.345351 Si / 1000 Ang^3
#
#
#
# Elastic Constant Matrix: (Units=GPa)
#
#
# Indices 1 2 3 4 5 6 
#
# 1 59.0761 36.3642 14.9970 0.0000 0.0000 0.0000
# 2 36.3642 59.0784 14.9976 0.0000 0.0000 0.0000
# 3 14.9970 14.9976 109.6392 0.0000 0.0000 0.0000
# 4 0.0000 0.0000 0.0000 28.4473 0.0000 0.0000
# 5 0.0000 0.0000 0.0000 0.0000 28.4471 0.0000
# 6 0.0000 0.0000 0.0000 0.0000 0.0000 36.0883
#
#
#
# Elastic Compliance Matrix: (Units=1/GPa)
#
#
# Indices 1 2 3 4 5 6 
#
# 1 0.027488 -0.016540 -0.001498 0.000000 0.000000 0.000000
# 2 -0.016540 0.027487 -0.001498 0.000000 0.000000 0.000000
# 3 -0.001498 -0.001498 0.009531 0.000000 0.000000 0.000000
# 4 0.000000 0.000000 0.000000 0.035153 0.000000 0.000000
# 5 0.000000 0.000000 0.000000 0.000000 0.035153 0.000000
# 6 0.000000 0.000000 0.000000 0.000000 0.000000 0.027710
#
#
# Mechanical properties :
#
#
# Convention : Reuss Voigt Hill
#
# Bulk Modulus (GPa) = 39.31324 40.05682 39.68503
# Shear Modulus (GPa) = 23.80154 29.35888 26.58021
#
# Velocity S-wave (km/s) = 3.26723 3.62867 3.45268
# Velocity P-wave (km/s) = 5.64489 5.95999 5.80458
#
# Compressibility (1/GPa) = 0.02543672
#
# Stress axis : x y z
#
# Youngs Moduli (GPa) = 36.37893 36.38028 104.92599
#
# Poissons Ratio (x) = 0.60172 0.15713
# Poissons Ratio (y) = 0.60169 0.15714
# Poissons Ratio (z) = 0.05448 0.05448
#
# Static dielectric constant tensor:
#      x y z
#    x 4.961020 0.000000 0.000000 
#    y 0.000000 4.961040 0.000000 
#    z 0.000000 0.000000 3.950450 
# 
# 
# High freq. dielectric constant tensor:
#      x y z
#    x 1.895350 0.000000 0.000000 
#    y 0.000000 1.895350 0.000000 
#    z 0.000000 0.000000 1.875730 
# 
# From -- ./inp_files/3080.got.cif
#   From: 2010.03.12/outbox.cif.g09.slc.cpg/sg90_2_cif.got.tgz:3080.got - 2010.04.08 20:26:03.
