data_PCOD8304806
_publ_section_title
;
Structure prediction by ZEFSAII (Michael W. Deem and Ramdas Pophale) SiO2 
 PCOD8304806
Probable space group: P 41 2 2
;
_chemical_formula_sum "Si O2"
_cell_formula_units_Z 48
_cell_length_a 9.091080
_cell_length_b 9.091080
_cell_length_c 31.638561
_cell_angle_alpha 90.000000
_cell_angle_beta 90.000000
_cell_angle_gamma 90.000000
_cell_volume 2614.855423
_symmetry_space_group_name_H-M "P 41 2 2"
_symmetry_group_IT_number 91
_symmetry_cell_setting 'tetragonal'
loop_
_space_group_symop_operation_xyz
x,y,z
-y,x,1/4+z
-x,-y,1/2+z
y,-x,3/4+z
x,-y,1/2-z
-x,y,-z
y,x,3/4-z
-y,-x,1/4-z
loop_
_atom_site_type_symbol
_atom_site_label
_atom_site_fract_x
_atom_site_fract_y
_atom_site_fract_z
Si Si1 0.323795 0.337600 0.922064
Si Si2 0.168757 0.831271 0.260518
Si Si3 0.331621 0.661462 0.819153
Si Si4 0.356449 0.603783 0.211347
Si Si5 0.317137 0.674409 0.334895
Si Si6 0.169842 0.826420 0.504075
O O1 0.283425 0.283425 0.875000
O O2 0.489821 0.293335 0.933500
O O3 0.301491 0.511665 0.924925
O O4 0.217499 0.259571 0.954442
O O5 0.242302 0.728082 0.225259
O O6 0.226420 0.791555 0.307296
O O7 0.997164 0.797738 0.259763
O O8 0.205620 0.000000 0.250000
O O9 0.502117 0.686868 0.807461
O O10 0.301753 0.722741 0.866212
O O11 0.226414 0.747228 0.787645
O O12 0.408186 0.500000 0.250000
O O13 0.279257 0.495735 0.177090
O O14 0.000000 0.791375 0.500000
#
# Coordination Sequence:
#
# PCOD8304806 Si02
#       6
#     8   8   8   8   8   8
#     4   9  19  36  59  82 104 132 174 222 266 311
#     4  10  22  38  52  73 110 148 178 213 258 312
#     4  10  19  35  58  82 106 132 171 223 269 313
#     4   9  17  33  58  80 103 136 174 217 264 311
#     4   9  19  36  57  83 105 131 174 224 267 312
#     4  11  23  36  51  76 111 147 177 211 261 313
#
# _framework density 18.356656000000001
#
# number of rings (size 3 to 8) (size 9 to 14) (size 15 to 20)
#    0.000    2.333    0.000    5.000    0.000    8.000 
#    0.000    9.167    0.000    0.000    0.000    0.000 
#    0.000    0.000    0.000    0.000    0.000    0.000 
#
# Total GULP energy -595233.546209 kJ/mol
# GULP energy per Si atom -12400.698879 kJ/mol
# Density = 1.831488 g / cm^3
# Si number density = 18.356656 Si / 1000 Ang^3
#
#
#
# Elastic Constant Matrix: (Units=GPa)
#
#
# Indices 1 2 3 4 5 6 
#
# 1 93.1865 73.5048 80.1792 0.0000 0.0000 0.0000
# 2 73.5048 93.1865 80.1792 0.0000 0.0000 0.0000
# 3 80.1792 80.1792 166.7535 0.0000 0.0000 0.0000
# 4 0.0000 0.0000 0.0000 7.0711 0.0000 0.0000
# 5 0.0000 0.0000 0.0000 0.0000 7.0711 0.0000
# 6 0.0000 0.0000 0.0000 0.0000 0.0000 32.2837
#
#
#
# Elastic Compliance Matrix: (Units=1/GPa)
#
#
# Indices 1 2 3 4 5 6 
#
# 1 0.030985 -0.019823 -0.005367 0.000000 0.000000 0.000000
# 2 -0.019823 0.030985 -0.005367 0.000000 0.000000 0.000000
# 3 -0.005367 -0.005367 0.011158 0.000000 0.000000 0.000000
# 4 0.000000 0.000000 0.000000 0.141421 0.000000 0.000000
# 5 0.000000 0.000000 0.000000 0.000000 0.141421 0.000000
# 6 0.000000 0.000000 0.000000 0.000000 0.000000 0.030975
#
#
# Mechanical properties :
#
#
# Convention : Reuss Voigt Hill
#
# Bulk Modulus (GPa) = 83.23394 91.20587 87.21990
# Shear Modulus (GPa) = 11.06033 17.23607 14.14820
#
# Velocity S-wave (km/s) = 2.45730 3.06756 2.77923
# Velocity P-wave (km/s) = 7.31383 7.89556 7.61026
#
# Compressibility (1/GPa) = 0.01201433
#
# Stress axis : x y z
#
# Youngs Moduli (GPa) = 32.27327 32.27327 89.62051
#
# Poissons Ratio (x) = 0.63976 0.48100
# Poissons Ratio (y) = 0.63976 0.48100
# Poissons Ratio (z) = 0.17321 0.17321
#
# Static dielectric constant tensor:
#      x y z
#    x 3.302770 0.000000 0.000000 
#    y 0.000000 3.302770 0.000000 
#    z 0.000000 0.000000 3.597630 
# 
# 
# High freq. dielectric constant tensor:
#      x y z
#    x 1.703230 0.000000 0.000000 
#    y 0.000000 1.703230 0.000000 
#    z 0.000000 0.000000 1.725650 
# 
# From -- ./inp_files/7974.got.cif
#   From: 2010.03.12/outbox.cif.g09.slc.cpg/sg91_4_cif.got.tgz:7974.got - 2010.04.08 20:27:58.
