data_PCOD8304112
_publ_section_title
;
Structure prediction by ZEFSAII (Michael W. Deem and Ramdas Pophale) SiO2 
 PCOD8304112
Probable space group: I 4/M
;
_chemical_formula_sum "Si O2"
_cell_formula_units_Z 96
_cell_length_a 23.533530
_cell_length_b 23.533530
_cell_length_c 8.871277
_cell_angle_alpha 90.000000
_cell_angle_beta 90.000000
_cell_angle_gamma 90.000000
_cell_volume 4913.153031
_symmetry_space_group_name_H-M "I 4/M"
_symmetry_group_IT_number 87
_symmetry_cell_setting 'tetragonal'
loop_
_space_group_symop_operation_xyz
x,y,z
-y,x,z
-x,-y,z
y,-x,z
-x,-y,-z
y,-x,-z
x,y,-z
-y,x,-z
1/2+x,1/2+y,1/2+z
1/2-y,1/2+x,1/2+z
1/2-x,1/2-y,1/2+z
1/2+y,1/2-x,1/2+z
1/2-x,1/2-y,1/2-z
1/2+y,1/2-x,1/2-z
1/2+x,1/2+y,1/2-z
1/2-y,1/2+x,1/2-z
loop_
_atom_site_type_symbol
_atom_site_label
_atom_site_fract_x
_atom_site_fract_y
_atom_site_fract_z
Si Si1 0.502762 0.640381 0.833703
Si Si2 0.099661 0.895981 0.166409
Si Si3 0.283805 0.115066 0.681278
Si Si4 0.769711 0.487788 0.167618
Si Si5 0.304876 0.688805 0.671492
Si Si6 0.365638 0.197401 0.818805
O O1 0.539676 0.600645 0.725223
O O2 0.438544 0.642488 0.775104
O O3 0.526768 0.703475 0.835796
O O4 0.504503 0.613824 0.000000
O O5 0.162794 0.871140 0.167864
O O6 0.073133 0.895436 0.000000
O O7 0.280089 0.116580 0.500000
O O8 0.280477 0.049626 0.744338
O O9 0.234268 0.154478 0.748481
O O10 0.343336 0.139082 0.744719
O O11 0.797081 0.430992 0.242387
O O12 0.794693 0.492847 0.000000
O O13 0.291174 0.708894 0.500000
O O14 0.246886 0.677575 0.762367
O O15 0.363768 0.196434 0.000000
#
# Coordination Sequence:
#
# PCOD8304112 Si02
#       6
#    16  16  16  16  16  16
#     4  11  21  38  60  81 106 152 202 238 282 342
#     4  11  23  37  55  83 116 148 190 247 293 329
#     4  11  22  39  60  87 117 151 190 234 282 337
#     4   9  20  37  60  83 112 149 188 230 280 339
#     4  11  22  36  56  86 119 154 187 230 286 340
#     4  11  22  39  60  87 117 151 190 234 282 337
#
# _framework density 19.539387999999999
#
# number of rings (size 3 to 8) (size 9 to 14) (size 15 to 20)
#    0.000    1.333    3.333    3.000    0.000    1.667 
#    0.000    5.000    0.000    0.500    0.000    3.500 
#    0.000    0.000    0.000    0.000    0.000    0.000 
#
# Total GULP energy -594915.999384 kJ/mol
# GULP energy per Si atom -12394.083320 kJ/mol
# Density = 1.949492 g / cm^3
# Si number density = 19.539388 Si / 1000 Ang^3
#
#
#
# Elastic Constant Matrix: (Units=GPa)
#
#
# Indices 1 2 3 4 5 6 
#
# 1 91.7074 43.3829 35.8244 0.0000 0.0000 2.4410
# 2 43.3829 91.7074 35.8244 0.0000 0.0000 -2.4410
# 3 35.8244 35.8244 99.6300 0.0000 0.0000 0.0000
# 4 0.0000 0.0000 0.0000 26.5832 0.0000 0.0000
# 5 0.0000 0.0000 0.0000 0.0000 26.5832 0.0000
# 6 2.4410 -2.4410 0.0000 0.0000 0.0000 30.0652
#
#
#
# Elastic Compliance Matrix: (Units=1/GPa)
#
#
# Indices 1 2 3 4 5 6 
#
# 1 0.015006 -0.005859 -0.003289 0.000000 0.000000 -0.001694
# 2 -0.005859 0.015006 -0.003289 0.000000 0.000000 0.001694
# 3 -0.003289 -0.003289 0.012402 0.000000 0.000000 0.000000
# 4 0.000000 0.000000 0.000000 0.037618 0.000000 0.000000
# 5 0.000000 0.000000 0.000000 0.000000 0.037618 0.000000
# 6 -0.001694 0.001694 0.000000 0.000000 0.000000 0.033536
#
#
# Mechanical properties :
#
#
# Convention : Reuss Voigt Hill
#
# Bulk Modulus (GPa) = 57.01185 57.01200 57.01193
# Shear Modulus (GPa) = 27.48674 27.84718 27.66696
#
# Velocity S-wave (km/s) = 3.75472 3.77925 3.76700
# Velocity P-wave (km/s) = 6.93098 6.94874 6.93986
#
# Compressibility (1/GPa) = 0.01754021
#
# Stress axis : x y z
#
# Youngs Moduli (GPa) = 66.64133 66.64133 80.62961
#
# Poissons Ratio (x) = 0.39044 0.26519
# Poissons Ratio (y) = 0.39044 0.26519
# Poissons Ratio (z) = 0.21918 0.21918
#
# Static dielectric constant tensor:
#      x y z
#    x 3.573280 0.000000 0.000000 
#    y 0.000000 3.573280 0.000000 
#    z 0.000000 0.000000 3.578700 
# 
# 
# High freq. dielectric constant tensor:
#      x y z
#    x 1.751790 0.000000 0.000000 
#    y 0.000000 1.751790 0.000000 
#    z 0.000000 0.000000 1.758570 
# 
# From -- ./inp_files/1412.got.cif
#   From: 2010.03.12/outbox.cif.g09.slc.cpg/sg87_1_cif.got.tgz:1412.got - 2010.04.08 20:16:13.
