data_PCOD8304844
_publ_section_title
;
Structure prediction by ZEFSAII (Michael W. Deem and Ramdas Pophale) SiO2 
 PCOD8304844
Probable space group: P 41 2 2
;
_chemical_formula_sum "Si O2"
_cell_formula_units_Z 64
_cell_length_a 17.746396
_cell_length_b 17.746396
_cell_length_c 12.034106
_cell_angle_alpha 90.000000
_cell_angle_beta 90.000000
_cell_angle_gamma 90.000000
_cell_volume 3789.956010
_symmetry_space_group_name_H-M "P 41 2 2"
_symmetry_group_IT_number 91
_symmetry_cell_setting 'tetragonal'
loop_
_space_group_symop_operation_xyz
x,y,z
-y,x,1/4+z
-x,-y,1/2+z
y,-x,3/4+z
x,-y,1/2-z
-x,y,-z
y,x,3/4-z
-y,-x,1/4-z
loop_
_atom_site_type_symbol
_atom_site_label
_atom_site_fract_x
_atom_site_fract_y
_atom_site_fract_z
Si Si1 0.074810 0.416464 0.260556
Si Si2 0.988766 0.176766 0.193737
Si Si3 0.055695 0.092217 0.590842
Si Si4 0.098877 0.415402 0.733190
Si Si5 0.205906 0.827676 0.248958
Si Si6 0.351912 0.084028 0.249921
Si Si7 0.271247 0.149502 0.878812
Si Si8 0.285358 0.881692 0.874238
O O1 0.105317 0.500000 0.250000
O O2 0.096212 0.392354 0.384107
O O3 0.122831 0.368886 0.172413
O O4 0.987138 0.410593 0.225195
O O5 0.024035 0.110481 0.114016
O O6 0.043704 0.248512 0.181537
O O7 0.987999 0.140168 0.316560
O O8 0.904065 0.203546 0.171911
O O9 0.106085 0.147335 0.517188
O O10 0.000000 0.054489 0.500000
O O11 0.132898 0.500000 0.750000
O O12 0.096982 0.409462 0.600209
O O13 0.145748 0.347453 0.795022
O O14 0.202387 0.797614 0.125000
O O15 0.288864 0.855064 0.272958
O O16 0.191317 0.761092 0.337284
O O17 0.316660 0.000000 0.250000
O O18 0.234147 0.234147 0.875000
O O19 0.291590 0.117254 0.757979
#
# Coordination Sequence:
#
# PCOD8304844 Si02
#       8
#     8   8   8   8   8   8   8   8
#     4  10  21  35  55  80 104 134 175 226 274 313
#     4  11  23  38  48  72  95 137 177 230 280 325
#     4  11  22  34  53  66  95 128 183 233 282 322
#     4  10  22  38  57  78 103 139 177 221 266 317
#     4  11  20  33  53  76  99 133 176 222 275 319
#     4  10  20  34  55  77 104 134 178 224 267 317
#     4  12  24  39  55  76 107 141 177 217 273 330
#     4  11  22  36  55  76 102 138 177 227 269 322
#
# _framework density 16.886738999999999
#
# number of rings (size 3 to 8) (size 9 to 14) (size 15 to 20)
#    0.000    1.250    2.500    5.625    3.500    1.000 
#    0.000    1.250    0.000    0.000    0.000    0.000 
#    0.000    0.000    0.000    5.625    0.000    1.000 
#
# Total GULP energy -793121.372679 kJ/mol
# GULP energy per Si atom -12392.521448 kJ/mol
# Density = 1.684830 g / cm^3
# Si number density = 16.886739 Si / 1000 Ang^3
#
#
#
# Elastic Constant Matrix: (Units=GPa)
#
#
# Indices 1 2 3 4 5 6 
#
# 1 84.9001 38.4822 20.7020 0.0000 0.0000 0.0000
# 2 38.4822 84.9007 20.7025 0.0000 0.0000 0.0000
# 3 20.7020 20.7025 80.0764 0.0000 0.0000 0.0000
# 4 0.0000 0.0000 0.0000 25.7017 0.0000 0.0000
# 5 0.0000 0.0000 0.0000 0.0000 25.7031 0.0000
# 6 0.0000 0.0000 0.0000 0.0000 0.0000 14.0379
#
#
#
# Elastic Compliance Matrix: (Units=1/GPa)
#
#
# Indices 1 2 3 4 5 6 
#
# 1 0.015209 -0.006334 -0.002294 0.000000 0.000000 0.000000
# 2 -0.006334 0.015209 -0.002294 0.000000 0.000000 0.000000
# 3 -0.002294 -0.002294 0.013674 0.000000 0.000000 0.000000
# 4 0.000000 0.000000 0.000000 0.038908 0.000000 0.000000
# 5 0.000000 0.000000 0.000000 0.000000 0.038906 0.000000
# 6 0.000000 0.000000 0.000000 0.000000 0.000000 0.071236
#
#
# Mechanical properties :
#
#
# Convention : Reuss Voigt Hill
#
# Bulk Modulus (GPa) = 44.95109 45.51674 45.23392
# Shear Modulus (GPa) = 22.48167 24.42125 23.45146
#
# Velocity S-wave (km/s) = 3.65269 3.80699 3.73064
# Velocity P-wave (km/s) = 6.66832 6.80712 6.73808
#
# Compressibility (1/GPa) = 0.02224640
#
# Stress axis : x y z
#
# Youngs Moduli (GPa) = 65.75020 65.75045 73.12918
#
# Poissons Ratio (x) = 0.41648 0.16779
# Poissons Ratio (y) = 0.41648 0.16779
# Poissons Ratio (z) = 0.15086 0.15086
#
# Static dielectric constant tensor:
#      x y z
#    x 2.870880 0.000000 0.000000 
#    y 0.000000 2.870840 0.000000 
#    z 0.000000 0.000000 3.278510 
# 
# 
# High freq. dielectric constant tensor:
#      x y z
#    x 1.620620 0.000000 0.000000 
#    y 0.000000 1.620620 0.000000 
#    z 0.000000 0.000000 1.670140 
# 
# From -- ./inp_files/16060.got.cif
#   From: 2010.03.12/outbox.cif.g09.slc.cpg/sg91_9_cif.got.tgz:16060.got - 2010.04.08 20:27:58.
