data_PCOD8304270
_publ_section_title
;
Structure prediction by ZEFSAII (Michael W. Deem and Ramdas Pophale) SiO2 
 PCOD8304270
Probable space group: I 41/A
;
_chemical_formula_sum "Si O2"
_cell_formula_units_Z 96
_cell_length_a 24.767536
_cell_length_b 24.767536
_cell_length_c 7.118412
_cell_angle_alpha 90.000000
_cell_angle_beta 90.000000
_cell_angle_gamma 90.000000
_cell_volume 4366.653449
_symmetry_space_group_name_H-M "I 41/A"
_symmetry_group_IT_number 88
_space_group.IT_coordinate_system_code '2'
_symmetry_cell_setting 'tetragonal'
loop_
_space_group_symop_operation_xyz
x,y,z
3/4-y,1/4+x,1/4+z
-x,1/2-y,z
1/4+y,1/4-x,1/4+z
-x,-y,-z
1/4+y,3/4-x,3/4-z
x,1/2+y,-z
3/4-y,3/4+x,3/4-z
1/2+x,1/2+y,1/2+z
1/4-y,3/4+x,3/4+z
1/2-x,-y,1/2+z
3/4+y,3/4-x,3/4+z
1/2-x,1/2-y,1/2-z
3/4+y,1/4-x,1/4-z
1/2+x,y,1/2-z
1/4-y,1/4+x,1/4-z
loop_
_atom_site_type_symbol
_atom_site_label
_atom_site_fract_x
_atom_site_fract_y
_atom_site_fract_z
Si Si1 0.583532 0.739696 0.073969
Si Si2 0.326886 0.850875 0.700009
Si Si3 0.199295 0.223825 0.538900
Si Si4 0.458557 0.182693 0.431653
Si Si5 0.253511 0.666288 0.124865
Si Si6 0.312270 0.956564 0.945157
O O1 0.545311 0.687942 0.096124
O O2 0.642333 0.724804 0.150952
O O3 0.588114 0.746636 0.850471
O O4 0.389442 0.838660 0.645249
O O5 0.296097 0.853012 0.502788
O O6 0.322167 0.908416 0.799525
O O7 0.303180 0.804524 0.836015
O O8 0.238388 0.189675 0.671232
O O9 0.216362 0.286240 0.510594
O O10 0.435655 0.243635 0.477723
O O11 0.290341 0.613994 0.166175
O O12 0.304608 0.011047 0.826717
#
# Coordination Sequence:
#
# PCOD8304270 Si02
#       6
#    16  16  16  16  16  16
#     4  10  21  35  62  91 133 175 215 272 329 405
#     4  11  25  46  70 105 139 184 237 290 356 416
#     4  10  24  44  67 105 138 179 233 276 351 426
#     4  10  22  39  62 100 137 176 227 277 336 422
#     4  11  25  44  75  96 143 182 223 300 352 410
#     4  12  26  50  73 105 137 183 245 296 353 426
#
# _framework density 21.984798000000001
#
# number of rings (size 3 to 8) (size 9 to 14) (size 15 to 20)
#    0.000    1.333    1.667    3.500    9.333    1.333 
#    9.000    0.000    0.000    0.000    0.000    0.000 
#    0.000    0.000    0.000    0.000    0.000    0.000 
#
# Total GULP energy -594955.683327 kJ/mol
# GULP energy per Si atom -12394.910069 kJ/mol
# Density = 2.193476 g / cm^3
# Si number density = 21.984798 Si / 1000 Ang^3
#
#
#
# Elastic Constant Matrix: (Units=GPa)
#
#
# Indices 1 2 3 4 5 6 
#
# 1 122.3646 44.2823 26.3144 0.0000 0.0000 -1.0178
# 2 44.2823 122.3646 26.3144 0.0000 0.0000 1.0178
# 3 26.3144 26.3144 46.3973 0.0000 0.0000 0.0000
# 4 0.0000 0.0000 0.0000 32.1172 0.0000 0.0000
# 5 0.0000 0.0000 0.0000 0.0000 32.1172 0.0000
# 6 -1.0178 1.0178 0.0000 0.0000 0.0000 33.1973
#
#
#
# Elastic Compliance Matrix: (Units=1/GPa)
#
#
# Indices 1 2 3 4 5 6 
#
# 1 0.010064 -0.002754 -0.004146 0.000000 0.000000 0.000393
# 2 -0.002754 0.010064 -0.004146 0.000000 0.000000 -0.000393
# 3 -0.004146 -0.004146 0.026256 0.000000 0.000000 0.000000
# 4 0.000000 0.000000 0.000000 0.031136 0.000000 0.000000
# 5 0.000000 0.000000 0.000000 0.000000 0.031136 0.000000
# 6 0.000393 -0.000393 0.000000 0.000000 0.000000 0.030147
#
#
# Mechanical properties :
#
#
# Convention : Reuss Voigt Hill
#
# Bulk Modulus (GPa) = 41.16557 53.88317 47.52437
# Shear Modulus (GPa) = 29.58752 32.43403 31.01077
#
# Velocity S-wave (km/s) = 3.67252 3.84512 3.75981
# Velocity P-wave (km/s) = 6.06205 6.65400 6.36491
#
# Compressibility (1/GPa) = 0.02429214
#
# Stress axis : x y z
#
# Youngs Moduli (GPa) = 99.36760 99.36760 38.08697
#
# Poissons Ratio (x) = 0.27362 0.15790
# Poissons Ratio (y) = 0.27362 0.15790
# Poissons Ratio (z) = 0.41197 0.41197
#
# Static dielectric constant tensor:
#      x y z
#    x 4.090790 0.000000 0.000000 
#    y 0.000000 4.090790 0.000000 
#    z 0.000000 0.000000 3.858990 
# 
# 
# High freq. dielectric constant tensor:
#      x y z
#    x 1.867650 0.000000 0.000000 
#    y 0.000000 1.867650 0.000000 
#    z 0.000000 0.000000 1.864570 
# 
# From -- ./inp_files/1716.got.cif
#   From: 2010.03.12/outbox.cif.g09.slc.cpg/sg88_1_cif.got.tgz:1716.got - 2010.04.08 20:20:55.
