data_PCOD8304017
_publ_section_title
;
Structure prediction by ZEFSAII (Michael W. Deem and Ramdas Pophale) SiO2 
 PCOD8304017
Probable space group: I 4/M
;
_chemical_formula_sum "Si O2"
_cell_formula_units_Z 120
_cell_length_a 26.293006
_cell_length_b 26.293006
_cell_length_c 8.203043
_cell_angle_alpha 90.000000
_cell_angle_beta 90.000000
_cell_angle_gamma 90.000000
_cell_volume 5670.945442
_symmetry_space_group_name_H-M "I 4/M"
_symmetry_group_IT_number 87
_symmetry_cell_setting 'tetragonal'
loop_
_space_group_symop_operation_xyz
x,y,z
-y,x,z
-x,-y,z
y,-x,z
-x,-y,-z
y,-x,-z
x,y,-z
-y,x,-z
1/2+x,1/2+y,1/2+z
1/2-y,1/2+x,1/2+z
1/2-x,1/2-y,1/2+z
1/2+y,1/2-x,1/2+z
1/2-x,1/2-y,1/2-z
1/2+y,1/2-x,1/2-z
1/2+x,1/2+y,1/2-z
1/2-y,1/2+x,1/2-z
loop_
_atom_site_type_symbol
_atom_site_label
_atom_site_fract_x
_atom_site_fract_y
_atom_site_fract_z
Si Si1 0.253391 0.406056 0.688172
Si Si2 0.214330 0.985968 0.688731
Si Si3 0.770691 0.383667 0.813132
Si Si4 0.563217 0.447006 0.000000
Si Si5 0.878099 0.064828 0.822433
Si Si6 0.553637 0.055402 0.811871
Si Si7 0.376547 0.853261 0.187216
Si Si8 0.830007 0.821970 0.820052
O O1 0.267342 0.414854 0.500000
O O2 0.260894 0.459248 0.781243
O O3 0.195717 0.388118 0.704501
O O4 0.289542 0.361219 0.760858
O O5 0.200262 0.979322 0.500000
O O6 0.252130 0.940063 0.740025
O O7 0.161691 0.980820 0.787777
O O8 0.818319 0.370117 0.701350
O O9 0.727947 0.339680 0.789407
O O10 0.787875 0.383278 0.000000
O O11 0.571366 0.506369 0.000000
O O12 0.584662 0.426123 0.170409
O O13 0.848834 0.116709 0.839320
O O14 0.904759 0.053255 0.000000
O O15 0.494324 0.068862 0.790576
O O16 0.587442 0.101795 0.746789
O O17 0.565210 0.044226 0.000000
O O18 0.389073 0.840559 0.000000
O O19 0.810238 0.805494 0.000000
#
# Coordination Sequence:
#
# PCOD8304017 Si02
#       8
#    16  16  16   8  16  16  16  16
#     4  11  24  40  62  94 125 160 210 260 313 370
#     4  10  21  39  63  95 127 160 209 263 317 379
#     4  10  22  40  64  89 120 166 207 249 312 378
#     4  11  26  42  58  90 130 170 216 266 325 393
#     4  10  21  40  66  92 123 166 215 265 326 386
#     4  10  22  40  64  91 121 160 206 248 301 362
#     4  11  25  42  60  91 128 165 204 254 310 364
#     4   9  21  40  62  90 121 159 209 259 310 377
#
# _framework density 21.160491
#
# number of rings (size 3 to 8) (size 9 to 14) (size 15 to 20)
#    0.000    1.800    0.667    2.400    4.667    5.867 
#    0.000    0.667    0.000    0.000    0.000    0.000 
#    0.000    0.000    0.000    0.000    0.000    0.000 
#
# Total GULP energy -743938.014023 kJ/mol
# GULP energy per Si atom -12398.966900 kJ/mol
# Density = 2.111233 g / cm^3
# Si number density = 21.160491 Si / 1000 Ang^3
#
#
#
# Elastic Constant Matrix: (Units=GPa)
#
#
# Indices 1 2 3 4 5 6 
#
# 1 100.8970 48.7436 9.4383 0.0000 0.0000 -3.1986
# 2 48.7436 100.8970 9.4383 0.0000 0.0000 3.1986
# 3 9.4383 9.4383 81.6748 0.0000 0.0000 0.0000
# 4 0.0000 0.0000 0.0000 -0.0078 0.0000 0.0000
# 5 0.0000 0.0000 0.0000 0.0000 -0.0078 0.0000
# 6 -3.1986 3.1986 0.0000 0.0000 0.0000 36.4995
#
#
#
# Elastic Compliance Matrix: (Units=1/GPa)
#
#
# Indices 1 2 3 4 5 6 
#
# 1 0.013082 -0.006301 -0.000784 0.000000 0.000000 0.001699
# 2 -0.006301 0.013082 -0.000784 0.000000 0.000000 -0.001699
# 3 -0.000784 -0.000784 0.012425 0.000000 0.000000 0.000000
# 4 0.000000 0.000000 0.000000********** 0.000000 0.000000
# 5 0.000000 0.000000 0.000000 0.000000********** 0.000000
# 6 0.001699 -0.001699 0.000000 0.000000 0.000000 0.027695
#
#
# Mechanical properties :
#
#
# Convention : Reuss Voigt Hill
#
# Bulk Modulus (GPa) = 43.75756 46.52322 45.14039
# Shear Modulus (GPa) = -0.01957 21.68667 10.83355
#
# Velocity S-wave (km/s) = -0.09627 3.20483 2.26513
# Velocity P-wave (km/s) = 4.55098 5.97730 5.31223
#
# Compressibility (1/GPa) = 0.02285319
#
# Stress axis : x y z
#
# Youngs Moduli (GPa) = 76.44062 76.44062 80.48422
#
# Poissons Ratio (x) = 0.48161 0.06307
# Poissons Ratio (y) = 0.48161 0.06307
# Poissons Ratio (z) = 0.05990 0.05990
#
# Static dielectric constant tensor:
#      x y z
#    x 3.791330 0.000000 0.000000 
#    y 0.000000 3.791330 0.000000 
#    z 0.000000 0.000000 2.597340 
# 
# 
# High freq. dielectric constant tensor:
#      x y z
#    x 1.825460 0.000000 0.000000 
#    y 0.000000 1.825460 0.000000 
#    z 0.000000 0.000000 1.834300 
# 
# From -- ./inp_files/1698.got.cif
#   From: 2010.03.12/outbox.cif.g09.slc.cpg/sg87_1_cif.got.tgz:1698.got - 2010.04.08 20:16:13.
