data_PCOD8304775
_publ_section_title
;
Structure prediction by ZEFSAII (Michael W. Deem and Ramdas Pophale) SiO2 
 PCOD8304775
Probable space group: P 41 2 2
;
_chemical_formula_sum "Si O2"
_cell_formula_units_Z 56
_cell_length_a 16.690782
_cell_length_b 16.690782
_cell_length_c 12.608328
_cell_angle_alpha 90.000000
_cell_angle_beta 90.000000
_cell_angle_gamma 90.000000
_cell_volume 3512.455800
_symmetry_space_group_name_H-M "P 41 2 2"
_symmetry_group_IT_number 91
_symmetry_cell_setting 'tetragonal'
loop_
_space_group_symop_operation_xyz
x,y,z
-y,x,1/4+z
-x,-y,1/2+z
y,-x,3/4+z
x,-y,1/2-z
-x,y,-z
y,x,3/4-z
-y,-x,1/4-z
loop_
_atom_site_type_symbol
_atom_site_label
_atom_site_fract_x
_atom_site_fract_y
_atom_site_fract_z
Si Si1 0.686190 0.462926 0.455817
Si Si2 0.404623 0.067291 0.483135
Si Si3 0.650316 0.447534 0.851071
Si Si4 0.148709 0.574573 0.022194
Si Si5 0.242636 0.375413 0.876909
Si Si6 0.175176 0.596864 0.412726
Si Si7 0.111323 0.408697 0.715972
O O1 0.628737 0.503575 0.542966
O O2 0.633417 0.401866 0.388116
O O3 0.754959 0.412630 0.518367
O O4 0.728769 0.531111 0.383039
O O5 0.500000 0.076052 0.500000
O O6 0.378679 0.105767 0.369548
O O7 0.360679 0.116976 0.577599
O O8 0.374892 0.976180 0.496524
O O9 0.626883 0.500000 0.750000
O O10 0.744219 0.426928 0.849385
O O11 0.130359 0.480704 0.038651
O O12 0.114506 0.603898 0.910026
O O13 0.320458 0.320458 0.875000
O O14 0.183725 0.362259 0.776214
O O15 0.195696 0.349216 0.984693
O O16 0.117919 0.500000 0.750000
#
# Coordination Sequence:
#
# PCOD8304775 Si02
#       7
#     8   8   8   8   8   8   8
#     4  10  21  31  46  60  88 119 162 208 243 284
#     4   9  18  29  48  69  87 112 139 191 244 292
#     4  10  19  32  46  61  81 121 160 208 248 276
#     4   9  17  31  45  67  87 111 145 194 244 291
#     4  10  22  33  45  64  90 125 157 202 237 274
#     4   9  18  33  46  62  93 113 147 195 243 291
#     4  11  18  29  49  67  90 112 150 191 238 295
#
# _framework density 15.943261
#
# number of rings (size 3 to 8) (size 9 to 14) (size 15 to 20)
#    0.000    2.571    2.857    3.000    4.000    1.714 
#    0.000    0.000    0.000    0.000    0.000    0.000 
#    0.000    0.000    0.000    0.000    0.000   11.429 
#
# Total GULP energy -693810.765835 kJ/mol
# GULP energy per Si atom -12389.477961 kJ/mol
# Density = 1.590697 g / cm^3
# Si number density = 15.943261 Si / 1000 Ang^3
#
#
#
# Elastic Constant Matrix: (Units=GPa)
#
#
# Indices 1 2 3 4 5 6 
#
# 1 51.8642 31.5448 26.9044 0.0000 0.0000 0.0000
# 2 31.5448 51.8642 26.9044 0.0000 0.0000 0.0000
# 3 26.9044 26.9044 104.4092 0.0000 0.0000 0.0000
# 4 0.0000 0.0000 0.0000 19.4800 0.0000 0.0000
# 5 0.0000 0.0000 0.0000 0.0000 19.4800 0.0000
# 6 0.0000 0.0000 0.0000 0.0000 0.0000 3.5129
#
#
#
# Elastic Compliance Matrix: (Units=1/GPa)
#
#
# Indices 1 2 3 4 5 6 
#
# 1 0.031797 -0.017417 -0.003705 0.000000 0.000000 0.000000
# 2 -0.017417 0.031797 -0.003705 0.000000 0.000000 0.000000
# 3 -0.003705 -0.003705 0.011487 0.000000 0.000000 0.000000
# 4 0.000000 0.000000 0.000000 0.051335 0.000000 0.000000
# 5 0.000000 0.000000 0.000000 0.000000 0.051335 0.000000
# 6 0.000000 0.000000 0.000000 0.000000 0.000000 0.284666
#
#
# Mechanical properties :
#
#
# Convention : Reuss Voigt Hill
#
# Bulk Modulus (GPa) = 39.33144 42.09384 40.71264
# Shear Modulus (GPa) = 9.60528 16.68016 13.14272
#
# Velocity S-wave (km/s) = 2.45718 3.23804 2.87425
# Velocity P-wave (km/s) = 5.72482 6.35920 6.05033
#
# Compressibility (1/GPa) = 0.02542496
#
# Stress axis : x y z
#
# Youngs Moduli (GPa) = 31.44972 31.44972 87.05261
#
# Poissons Ratio (x) = 0.54777 0.32256
# Poissons Ratio (y) = 0.54777 0.32256
# Poissons Ratio (z) = 0.11653 0.11653
#
# Static dielectric constant tensor:
#      x y z
#    x 2.778820 0.000000 0.000000 
#    y 0.000000 2.778820 0.000000 
#    z 0.000000 0.000000 3.409400 
# 
# 
# High freq. dielectric constant tensor:
#      x y z
#    x 1.564920 0.000000 0.000000 
#    y 0.000000 1.564920 0.000000 
#    z 0.000000 0.000000 1.636990 
# 
# From -- ./inp_files/16035.got.cif
#   From: 2010.03.12/outbox.cif.g09.slc.cpg/sg91_9_cif.got.tgz:16035.got - 2010.04.08 20:27:58.
