data_PCOD8304567
_publ_section_title
;
Structure prediction by ZEFSAII (Michael W. Deem and Ramdas Pophale) SiO2 
 PCOD8304567
Probable space group: P 4 21 2
;
_chemical_formula_sum "Si O2"
_cell_formula_units_Z 40
_cell_length_a 14.994946
_cell_length_b 14.994946
_cell_length_c 8.882247
_cell_angle_alpha 90.000000
_cell_angle_beta 90.000000
_cell_angle_gamma 90.000000
_cell_volume 1997.159076
_symmetry_space_group_name_H-M "P 4 21 2"
_symmetry_group_IT_number 90
_symmetry_cell_setting 'tetragonal'
loop_
_space_group_symop_operation_xyz
x,y,z
1/2-y,1/2+x,z
-x,-y,z
1/2+y,1/2-x,z
1/2+x,1/2-y,-z
1/2-x,1/2+y,-z
y,x,-z
-y,-x,-z
loop_
_atom_site_type_symbol
_atom_site_label
_atom_site_fract_x
_atom_site_fract_y
_atom_site_fract_z
Si Si1 0.344994 0.389337 0.837200
Si Si2 0.682822 0.199091 0.302177
Si Si3 0.530842 0.758087 0.774515
Si Si4 0.143262 0.312499 0.367330
Si Si5 0.292682 0.568211 0.932766
O O1 0.249477 0.374625 0.762026
O O2 0.424728 0.340213 0.745176
O O3 0.358783 0.496319 0.851243
O O4 0.342070 0.342070 0.000000
O O5 0.731109 0.292148 0.331951
O O6 0.647857 0.157671 0.458597
O O7 0.604202 0.219065 0.183573
O O8 0.455801 0.775572 0.651927
O O9 0.606650 0.833497 0.747724
O O10 0.485451 0.762281 0.939257
O O11 0.351816 0.648185 0.000000
#
# Coordination Sequence:
#
# PCOD8304567 Si02
#       5
#     8   8   8   8   8
#     4   9  21  37  61  92 124 159 202 255 316 371
#     4  10  21  39  63  87 122 170 207 250 318 388
#     4  10  22  39  61  88 125 162 207 256 320 366
#     4  10  22  40  60  88 124 167 211 257 316 382
#     4  11  21  37  66  95 123 157 215 261 309 374
#
# _framework density 20.028451
#
# number of rings (size 3 to 8) (size 9 to 14) (size 15 to 20)
#    0.000    2.000    2.000    0.600    8.400    4.000 
#    0.000    0.000    0.000    3.000    0.000    0.000 
#    0.000    0.000    0.000    0.000    0.000    0.000 
#
# Total GULP energy -495783.769514 kJ/mol
# GULP energy per Si atom -12394.594238 kJ/mol
# Density = 1.998287 g / cm^3
# Si number density = 20.028451 Si / 1000 Ang^3
#
#
#
# Elastic Constant Matrix: (Units=GPa)
#
#
# Indices 1 2 3 4 5 6 
#
# 1 77.2346 23.3234 44.0743 0.0000 0.0000 0.0000
# 2 23.3234 77.2352 44.0743 0.0000 0.0000 0.0000
# 3 44.0743 44.0743 109.0726 0.0000 0.0000 0.0000
# 4 0.0000 0.0000 0.0000 29.2159 0.0000 0.0000
# 5 0.0000 0.0000 0.0000 0.0000 29.2161 0.0000
# 6 0.0000 0.0000 0.0000 0.0000 0.0000 16.4363
#
#
#
# Elastic Compliance Matrix: (Units=1/GPa)
#
#
# Indices 1 2 3 4 5 6 
#
# 1 0.016974 -0.001575 -0.006223 0.000000 0.000000 0.000000
# 2 -0.001575 0.016974 -0.006222 0.000000 0.000000 0.000000
# 3 -0.006223 -0.006222 0.014197 0.000000 0.000000 0.000000
# 4 0.000000 0.000000 0.000000 0.034228 0.000000 0.000000
# 5 0.000000 0.000000 0.000000 0.000000 0.034228 0.000000
# 6 0.000000 0.000000 0.000000 0.000000 0.000000 0.060841
#
#
# Mechanical properties :
#
#
# Convention : Reuss Voigt Hill
#
# Bulk Modulus (GPa) = 49.73846 54.05405 51.89626
# Shear Modulus (GPa) = 23.56455 25.11167 24.33811
#
# Velocity S-wave (km/s) = 3.43381 3.54475 3.48972
# Velocity P-wave (km/s) = 6.37254 6.61822 6.49654
#
# Compressibility (1/GPa) = 0.02010517
#
# Stress axis : x y z
#
# Youngs Moduli (GPa) = 58.91341 58.91392 70.43743
#
# Poissons Ratio (x) = 0.09279 0.43830
# Poissons Ratio (y) = 0.09279 0.43829
# Poissons Ratio (z) = 0.36659 0.36659
#
# Static dielectric constant tensor:
#      x y z
#    x 3.576350 0.000000 0.000000 
#    y 0.000000 3.576350 0.000000 
#    z 0.000000 0.000000 3.823880 
# 
# 
# High freq. dielectric constant tensor:
#      x y z
#    x 1.767950 0.000000 0.000000 
#    y 0.000000 1.767950 0.000000 
#    z 0.000000 0.000000 1.782020 
# 
# From -- ./inp_files/1309.got.cif
#   From: 2010.03.12/outbox.cif.g09.slc.cpg/sg90_1_cif.got.tgz:1309.got - 2010.04.08 20:26:03.
