data_PCOD8305233
_publ_section_title
;
Structure prediction by ZEFSAII (Michael W. Deem and Ramdas Pophale) SiO2 
 PCOD8305233
Probable space group: P 41 21 2
;
_chemical_formula_sum "Si O2"
_cell_formula_units_Z 48
_cell_length_a 10.838556
_cell_length_b 10.838556
_cell_length_c 20.021653
_cell_angle_alpha 90.000000
_cell_angle_beta 90.000000
_cell_angle_gamma 90.000000
_cell_volume 2352.029594
_symmetry_space_group_name_H-M "P 41 21 2"
_symmetry_group_IT_number 92
_symmetry_cell_setting 'tetragonal'
loop_
_space_group_symop_operation_xyz
x,y,z
1/2-y,1/2+x,1/4+z
-x,-y,1/2+z
1/2+y,1/2-x,3/4+z
1/2+x,1/2-y,3/4-z
1/2-x,1/2+y,1/4-z
y,x,-z
-y,-x,1/2-z
loop_
_atom_site_type_symbol
_atom_site_label
_atom_site_fract_x
_atom_site_fract_y
_atom_site_fract_z
Si Si1 0.930327 0.557865 0.779746
Si Si2 0.329097 0.768115 0.182729
Si Si3 0.051485 0.008390 0.922025
Si Si4 0.897598 0.196856 0.606505
Si Si5 0.809496 0.213784 0.462610
Si Si6 0.916052 0.454363 0.408216
O O1 0.861165 0.437496 0.803115
O O2 0.831401 0.670087 0.771179
O O3 0.004472 0.522810 0.711240
O O4 0.023158 0.593943 0.839404
O O5 0.254753 0.745248 0.250000
O O6 0.380162 0.641571 0.149638
O O7 0.239478 0.836585 0.131073
O O8 0.923041 0.014708 0.880709
O O9 0.122323 0.879378 0.910828
O O10 0.027810 0.027810 0.000000
O O11 0.893093 0.219809 0.528184
O O12 0.934419 0.322137 0.644070
O O13 0.820428 0.349154 0.432064
#
# Coordination Sequence:
#
# PCOD8305233 Si02
#       6
#     8   8   8   8   8   8
#     4  11  24  43  64  95 133 166 216 271 320 386
#     4  10  19  35  61  90 123 158 198 263 325 367
#     4   8  19  36  58  82 116 163 202 242 312 383
#     4  11  21  36  64  90 119 160 214 261 312 385
#     4  10  23  43  61  86 127 172 208 260 325 383
#     4  12  24  40  65  98 124 167 217 267 319 380
#
# _framework density 20.407907999999999
#
# number of rings (size 3 to 8) (size 9 to 14) (size 15 to 20)
#    0.000    1.667    3.333    2.000    4.667    0.000 
#    0.000    0.833    0.000    0.000    0.000    0.000 
#    0.000    0.000    0.000    0.000    0.000    0.000 
#
# Total GULP energy -594828.011898 kJ/mol
# GULP energy per Si atom -12392.250248 kJ/mol
# Density = 2.036146 g / cm^3
# Si number density = 20.407908 Si / 1000 Ang^3
#
#
#
# Elastic Constant Matrix: (Units=GPa)
#
#
# Indices 1 2 3 4 5 6 
#
# 1 84.4834 27.2347 30.2767 0.0000 0.0000 0.0000
# 2 27.2347 84.4845 30.2776 0.0000 0.0000 0.0000
# 3 30.2767 30.2776 71.1122 0.0000 0.0000 0.0000
# 4 0.0000 0.0000 0.0000 48.5923 0.0000 0.0000
# 5 0.0000 0.0000 0.0000 0.0000 48.5953 0.0000
# 6 0.0000 0.0000 0.0000 0.0000 0.0000 34.9139
#
#
#
# Elastic Compliance Matrix: (Units=1/GPa)
#
#
# Indices 1 2 3 4 5 6 
#
# 1 0.014552 -0.002916 -0.004954 0.000000 0.000000 0.000000
# 2 -0.002916 0.014552 -0.004955 0.000000 0.000000 0.000000
# 3 -0.004954 -0.004955 0.018281 0.000000 0.000000 0.000000
# 4 0.000000 0.000000 0.000000 0.020579 0.000000 0.000000
# 5 0.000000 0.000000 0.000000 0.000000 0.020578 0.000000
# 6 0.000000 0.000000 0.000000 0.000000 0.000000 0.028642
#
#
# Mechanical properties :
#
#
# Convention : Reuss Voigt Hill
#
# Bulk Modulus (GPa) = 46.00573 46.18422 46.09497
# Shear Modulus (GPa) = 33.31587 36.57303 34.94445
#
# Velocity S-wave (km/s) = 4.04480 4.23791 4.14248
# Velocity P-wave (km/s) = 6.66378 6.82834 6.74656
#
# Compressibility (1/GPa) = 0.02173642
#
# Stress axis : x y z
#
# Youngs Moduli (GPa) = 68.71899 68.71930 54.70125
#
# Poissons Ratio (x) = 0.20035 0.27101
# Poissons Ratio (y) = 0.20035 0.27102
# Poissons Ratio (z) = 0.34046 0.34047
#
# Static dielectric constant tensor:
#      x y z
#    x 3.455100 0.000000 0.000000 
#    y 0.000000 3.455080 0.000000 
#    z 0.000000 0.000000 3.746430 
# 
# 
# High freq. dielectric constant tensor:
#      x y z
#    x 1.795330 0.000000 0.000000 
#    y 0.000000 1.795330 0.000000 
#    z 0.000000 0.000000 1.775750 
# 
# From -- ./inp_files/3099.got.cif
#   From: 2010.03.12/outbox.cif.g09.slc.cpg/sg92_2_cif.got.tgz:3099.got - 2010.04.08 20:41:11.
