data_PCOD8305225
_publ_section_title
;
Structure prediction by ZEFSAII (Michael W. Deem and Ramdas Pophale) SiO2 
 PCOD8305225
Probable space group: P 41 21 2
;
_chemical_formula_sum "Si O2"
_cell_formula_units_Z 64
_cell_length_a 18.732101
_cell_length_b 18.732101
_cell_length_c 10.230682
_cell_angle_alpha 90.000000
_cell_angle_beta 90.000000
_cell_angle_gamma 90.000000
_cell_volume 3589.860457
_symmetry_space_group_name_H-M "P 41 21 2"
_symmetry_group_IT_number 92
_symmetry_cell_setting 'tetragonal'
loop_
_space_group_symop_operation_xyz
x,y,z
1/2-y,1/2+x,1/4+z
-x,-y,1/2+z
1/2+y,1/2-x,3/4+z
1/2+x,1/2-y,3/4-z
1/2-x,1/2+y,1/4-z
y,x,-z
-y,-x,1/2-z
loop_
_atom_site_type_symbol
_atom_site_label
_atom_site_fract_x
_atom_site_fract_y
_atom_site_fract_z
Si Si1 0.286655 0.459346 0.867229
Si Si2 0.787032 0.200745 0.892334
Si Si3 0.956872 0.543972 0.894371
Si Si4 0.549231 0.791466 0.102498
Si Si5 0.284243 0.206207 0.614726
Si Si6 0.456166 0.300913 0.844254
Si Si7 0.209547 0.540180 0.645747
Si Si8 0.959394 0.044820 0.603156
O O1 0.255988 0.379501 0.838276
O O2 0.249513 0.517201 0.776223
O O3 0.370475 0.461025 0.841937
O O4 0.270470 0.483490 0.016569
O O5 0.766575 0.233426 0.750000
O O6 0.871586 0.195315 0.896375
O O7 0.758520 0.253726 0.003858
O O8 0.873487 0.531440 0.869684
O O9 0.973296 0.626366 0.920950
O O10 0.999053 0.515860 0.768076
O O11 0.633237 0.776917 0.081680
O O12 0.518197 0.749411 0.227018
O O13 0.507910 0.763428 0.974945
O O14 0.234201 0.234201 0.500000
O O15 0.272802 0.122226 0.635302
O O16 0.485069 0.380689 0.818494
O O17 0.979891 0.020110 0.750000
O O18 0.015175 0.015175 0.500000
#
# Coordination Sequence:
#
# PCOD8305225 Si02
#       8
#     8   8   8   8   8   8   8   8
#     4   9  17  31  50  71  95 124 160 197 235 279
#     4   8  15  31  54  73  89 117 161 206 237 270
#     4   9  19  34  50  71  97 123 156 198 240 284
#     4   9  18  34  53  71  94 124 159 199 238 279
#     4  10  19  32  50  72  98 126 158 195 236 283
#     4   8  16  31  51  73  92 118 161 202 233 272
#     4  10  20  32  47  71 101 128 155 192 238 286
#     4   9  18  31  47  70  98 126 159 197 232 273
#
# _framework density 17.827991999999998
#
# number of rings (size 3 to 8) (size 9 to 14) (size 15 to 20)
#    0.000    3.000    0.000    2.250    0.000    2.500 
#    0.000    5.000    0.000    0.000    0.000    0.000 
#    0.000    0.000    0.000    0.000    0.000    0.000 
#
# Total GULP energy -793490.184519 kJ/mol
# GULP energy per Si atom -12398.284133 kJ/mol
# Density = 1.778741 g / cm^3
# Si number density = 17.827992 Si / 1000 Ang^3
#
#
#
# Elastic Constant Matrix: (Units=GPa)
#
#
# Indices 1 2 3 4 5 6 
#
# 1 46.1346 21.9922 42.1958 0.0000 0.0000 0.0000
# 2 21.9922 46.1345 42.1957 0.0000 0.0000 0.0000
# 3 42.1958 42.1957 130.5933 0.0000 0.0000 0.0000
# 4 0.0000 0.0000 0.0000 29.1984 0.0000 0.0000
# 5 0.0000 0.0000 0.0000 0.0000 29.1982 0.0000
# 6 0.0000 0.0000 0.0000 0.0000 0.0000 21.8602
#
#
#
# Elastic Compliance Matrix: (Units=1/GPa)
#
#
# Indices 1 2 3 4 5 6 
#
# 1 0.032948 -0.008473 -0.007908 0.000000 0.000000 0.000000
# 2 -0.008473 0.032948 -0.007908 0.000000 0.000000 0.000000
# 3 -0.007908 -0.007908 0.012768 0.000000 0.000000 0.000000
# 4 0.000000 0.000000 0.000000 0.034248 0.000000 0.000000
# 5 0.000000 0.000000 0.000000 0.000000 0.034249 0.000000
# 6 0.000000 0.000000 0.000000 0.000000 0.000000 0.045745
#
#
# Mechanical properties :
#
#
# Convention : Reuss Voigt Hill
#
# Bulk Modulus (GPa) = 33.23939 48.40330 40.82134
# Shear Modulus (GPa) = 19.87981 23.81661 21.84821
#
# Velocity S-wave (km/s) = 3.34292 3.65898 3.50451
# Velocity P-wave (km/s) = 5.79527 6.71267 6.27077
#
# Compressibility (1/GPa) = 0.03008479
#
# Stress axis : x y z
#
# Youngs Moduli (GPa) = 30.35127 30.35117 78.32358
#
# Poissons Ratio (x) = 0.25717 0.61937
# Poissons Ratio (y) = 0.25717 0.61937
# Poissons Ratio (z) = 0.24001 0.24001
#
# Static dielectric constant tensor:
#      x y z
#    x 3.170830 0.000000 0.000000 
#    y 0.000000 3.170830 0.000000 
#    z 0.000000 0.000000 3.619050 
# 
# 
# High freq. dielectric constant tensor:
#      x y z
#    x 1.671620 0.000000 0.000000 
#    y 0.000000 1.671620 0.000000 
#    z 0.000000 0.000000 1.702080 
# 
# From -- ./inp_files/1725.got.cif
#   From: 2010.03.12/outbox.cif.g09.slc.cpg/sg92_1_cif.got.tgz:1725.got - 2010.04.08 20:41:11.
