data_PCOD8305827
_publ_section_title
;
Structure prediction by ZEFSAII (Michael W. Deem and Ramdas Pophale) SiO2 
 PCOD8305827
Probable space group: P 43 2 2
;
_chemical_formula_sum "Si O2"
_cell_formula_units_Z 40
_cell_length_a 11.910144
_cell_length_b 11.910144
_cell_length_c 12.977093
_cell_angle_alpha 90.000000
_cell_angle_beta 90.000000
_cell_angle_gamma 90.000000
_cell_volume 1840.820498
_symmetry_space_group_name_H-M "P 43 2 2"
_symmetry_group_IT_number 95
_symmetry_cell_setting 'tetragonal'
loop_
_space_group_symop_operation_xyz
x,y,z
-y,x,3/4+z
-x,-y,1/2+z
y,-x,1/4+z
x,-y,1/2-z
-x,y,-z
y,x,1/4-z
-y,-x,3/4-z
loop_
_atom_site_type_symbol
_atom_site_label
_atom_site_fract_x
_atom_site_fract_y
_atom_site_fract_z
Si Si1 0.376039 0.018080 0.970216
Si Si2 0.650936 0.650936 0.125000
Si Si3 0.741412 0.334479 0.706221
Si Si4 0.718999 0.000000 0.250000
Si Si5 0.514397 0.648530 0.690835
Si Si6 0.816524 0.760131 0.270215
O O1 0.355837 0.142454 0.016324
O O2 0.362833 0.020368 0.846299
O O3 0.500000 0.973255 0.000000
O O4 0.274448 0.946107 0.019146
O O5 0.541910 0.644475 0.196927
O O6 0.757652 0.662039 0.200821
O O7 0.642196 0.313370 0.786851
O O8 0.729396 0.445616 0.634051
O O9 0.750412 0.224153 0.636746
O O10 0.794909 0.112106 0.270728
O O11 0.530716 0.530716 0.625000
#
# Coordination Sequence:
#
# PCOD8305827 Si02
#       6
#     8   4   8   4   8   8
#     4  11  22  38  63  92 127 164 209 263 327 382
#     4  10  22  36  60  98 118 164 220 258 318 374
#     4  10  25  39  60  92 124 172 211 257 329 386
#     4  10  20  40  64  92 124 164 212 266 326 368
#     4  11  23  38  59  87 132 170 207 258 318 393
#     4  10  21  39  65  93 123 161 217 277 311 377
#
# _framework density 21.729441000000001
#
# number of rings (size 3 to 8) (size 9 to 14) (size 15 to 20)
#    0.000    1.600    2.000    1.800    7.000    1.600 
#    0.000    0.000    0.000   14.400    0.000    1.400 
#    0.000    0.000    0.000    0.000    0.000    0.000 
#
# Total GULP energy -495536.442139 kJ/mol
# GULP energy per Si atom -12388.411053 kJ/mol
# Density = 2.167998 g / cm^3
# Si number density = 21.729441 Si / 1000 Ang^3
#
#
#
# Elastic Constant Matrix: (Units=GPa)
#
#
# Indices 1 2 3 4 5 6 
#
# 1 144.3624 43.1154 35.6246 0.0000 0.0000 0.0000
# 2 43.1154 144.3624 35.6246 0.0000 0.0000 0.0000
# 3 35.6246 35.6246 71.3985 0.0000 0.0000 0.0000
# 4 0.0000 0.0000 0.0000 24.3040 0.0000 0.0000
# 5 0.0000 0.0000 0.0000 0.0000 24.3040 0.0000
# 6 0.0000 0.0000 0.0000 0.0000 0.0000 28.0728
#
#
#
# Elastic Compliance Matrix: (Units=1/GPa)
#
#
# Indices 1 2 3 4 5 6 
#
# 1 0.008229 -0.001647 -0.003284 0.000000 0.000000 0.000000
# 2 -0.001647 0.008229 -0.003284 0.000000 0.000000 0.000000
# 3 -0.003284 -0.003284 0.017283 0.000000 0.000000 0.000000
# 4 0.000000 0.000000 0.000000 0.041145 0.000000 0.000000
# 5 0.000000 0.000000 0.000000 0.000000 0.041145 0.000000
# 6 0.000000 0.000000 0.000000 0.000000 0.000000 0.035622
#
#
# Mechanical properties :
#
#
# Convention : Reuss Voigt Hill
#
# Bulk Modulus (GPa) = 57.76769 65.42806 61.59787
# Shear Modulus (GPa) = 28.75939 31.72009 30.23974
#
# Velocity S-wave (km/s) = 3.64197 3.82484 3.73453
# Velocity P-wave (km/s) = 6.65792 7.04852 6.85600
#
# Compressibility (1/GPa) = 0.01731072
#
# Stress axis : x y z
#
# Youngs Moduli (GPa) = 121.51472 121.51472 57.85968
#
# Poissons Ratio (x) = 0.20018 0.19002
# Poissons Ratio (y) = 0.20018 0.19002
# Poissons Ratio (z) = 0.39907 0.39907
#
# Static dielectric constant tensor:
#      x y z
#    x 3.985680 0.000000 0.000000 
#    y 0.000000 3.985680 0.000000 
#    z 0.000000 0.000000 4.218770 
# 
# 
# High freq. dielectric constant tensor:
#      x y z
#    x 1.842480 0.000000 0.000000 
#    y 0.000000 1.842480 0.000000 
#    z 0.000000 0.000000 1.861110 
# 
# From -- ./inp_files/4854.got.cif
#   From: 2010.03.12/outbox.cif.g09.slc.cpg/sg95_3_cif.got.tgz:4854.got - 2010.04.08 20:51:55.
