data_PCOD8305960
_publ_section_title
;
Structure prediction by ZEFSAII (Michael W. Deem and Ramdas Pophale) SiO2 
 PCOD8305960
Probable space group: P 43 21 2
;
_chemical_formula_sum "Si O2"
_cell_formula_units_Z 56
_cell_length_a 14.589982
_cell_length_b 14.589982
_cell_length_c 12.027495
_cell_angle_alpha 90.000000
_cell_angle_beta 90.000000
_cell_angle_gamma 90.000000
_cell_volume 2560.263691
_symmetry_space_group_name_H-M "P 43 21 2"
_symmetry_group_IT_number 96
_symmetry_cell_setting 'tetragonal'
loop_
_space_group_symop_operation_xyz
x,y,z
1/2-y,1/2+x,3/4+z
-x,-y,1/2+z
1/2+y,1/2-x,1/4+z
1/2+x,1/2-y,1/4-z
1/2-x,1/2+y,3/4-z
y,x,-z
-y,-x,1/2-z
loop_
_atom_site_type_symbol
_atom_site_label
_atom_site_fract_x
_atom_site_fract_y
_atom_site_fract_z
Si Si1 0.369932 0.244742 0.059477
Si Si2 0.920754 0.933345 0.796801
Si Si3 0.317234 0.167677 0.496876
Si Si4 0.508799 0.746823 0.362976
Si Si5 0.415678 0.304206 0.646661
Si Si6 0.386094 0.701673 0.847036
Si Si7 0.254300 0.917196 0.060693
O O1 0.277210 0.191640 0.085212
O O2 0.417456 0.253522 0.178024
O O3 0.341234 0.341234 0.000000
O O4 0.445629 0.203786 0.971982
O O5 0.972268 0.854575 0.862642
O O6 0.859287 0.880275 0.706821
O O7 0.848920 0.984929 0.876993
O O8 0.993868 0.006133 0.750000
O O9 0.219142 0.219142 0.500000
O O10 0.309560 0.069477 0.556113
O O11 0.396269 0.222374 0.561976
O O12 0.356345 0.163733 0.368185
O O13 0.588941 0.736071 0.271477
O O14 0.338930 0.381679 0.632145
O O15 0.373657 0.626344 0.750000
O O16 0.477578 0.761895 0.842913
#
# Coordination Sequence:
#
# PCOD8305960 Si02
#       7
#     8   8   8   8   8   8   8
#     4  11  25  45  66  99 141 187 226 284 360 430
#     4  12  23  39  64 109 141 176 233 302 362 407
#     4  10  23  42  67 100 134 189 230 282 350 425
#     4  12  26  40  69 103 139 179 238 295 347 423
#     4  11  22  40  67  96 142 175 230 287 353 418
#     4  11  25  41  69 100 140 185 227 284 357 425
#     4  11  22  44  69  95 138 181 229 284 349 418
#
# _framework density 21.872748000000001
#
# number of rings (size 3 to 8) (size 9 to 14) (size 15 to 20)
#    0.000    0.857    4.286    3.000    8.000    1.143 
#    0.000    0.000    9.429    0.000    0.000    0.000 
#    0.000    0.000    0.000    0.000    0.000    0.000 
#
# Total GULP energy -694075.727019 kJ/mol
# GULP energy per Si atom -12394.209411 kJ/mol
# Density = 2.182297 g / cm^3
# Si number density = 21.872748 Si / 1000 Ang^3
#
#
#
# Elastic Constant Matrix: (Units=GPa)
#
#
# Indices 1 2 3 4 5 6 
#
# 1 55.6625 20.9882 18.1410 0.0000 0.0000 0.0000
# 2 20.9882 55.6628 18.1408 0.0000 0.0000 0.0000
# 3 18.1410 18.1408 117.6471 0.0000 0.0000 0.0000
# 4 0.0000 0.0000 0.0000 35.4880 0.0000 0.0000
# 5 0.0000 0.0000 0.0000 0.0000 35.4876 0.0000
# 6 0.0000 0.0000 0.0000 0.0000 0.0000 26.6990
#
#
#
# Elastic Compliance Matrix: (Units=1/GPa)
#
#
# Indices 1 2 3 4 5 6 
#
# 1 0.021457 -0.007383 -0.002170 0.000000 0.000000 0.000000
# 2 -0.007383 0.021456 -0.002170 0.000000 0.000000 0.000000
# 3 -0.002170 -0.002170 0.009169 0.000000 0.000000 0.000000
# 4 0.000000 0.000000 0.000000 0.028179 0.000000 0.000000
# 5 0.000000 0.000000 0.000000 0.000000 0.028179 0.000000
# 6 0.000000 0.000000 0.000000 0.000000 0.000000 0.037455
#
#
# Mechanical properties :
#
#
# Convention : Reuss Voigt Hill
#
# Bulk Modulus (GPa) = 34.92154 38.16805 36.54480
# Shear Modulus (GPa) = 27.95075 30.98175 29.46625
#
# Velocity S-wave (km/s) = 3.57862 3.76766 3.67436
# Velocity P-wave (km/s) = 5.75116 6.03448 5.89452
#
# Compressibility (1/GPa) = 0.02863562
#
# Stress axis : x y z
#
# Youngs Moduli (GPa) = 46.60576 46.60598 109.06031
#
# Poissons Ratio (x) = 0.34410 0.23667
# Poissons Ratio (y) = 0.34410 0.23667
# Poissons Ratio (z) = 0.10114 0.10114
#
# Static dielectric constant tensor:
#      x y z
#    x 3.768560 0.000000 0.000000 
#    y 0.000000 3.768560 0.000000 
#    z 0.000000 0.000000 4.454840 
# 
# 
# High freq. dielectric constant tensor:
#      x y z
#    x 1.842050 0.000000 0.000000 
#    y 0.000000 1.842050 0.000000 
#    z 0.000000 0.000000 1.885940 
# 
# From -- ./inp_files/2289.got.cif
#   From: 2010.03.12/outbox.cif.g09.slc.cpg/sg96_2_cif.got.tgz:2289.got - 2010.04.08 20:56:49.
