data_PCOD8305223
_publ_section_title
;
Structure prediction by ZEFSAII (Michael W. Deem and Ramdas Pophale) SiO2 
 PCOD8305223
Probable space group: P 41 21 2
;
_chemical_formula_sum "Si O2"
_cell_formula_units_Z 40
_cell_length_a 20.316929
_cell_length_b 20.316929
_cell_length_c 4.951548
_cell_angle_alpha 90.000000
_cell_angle_beta 90.000000
_cell_angle_gamma 90.000000
_cell_volume 2043.888119
_symmetry_space_group_name_H-M "P 41 21 2"
_symmetry_group_IT_number 92
_symmetry_cell_setting 'tetragonal'
loop_
_space_group_symop_operation_xyz
x,y,z
1/2-y,1/2+x,1/4+z
-x,-y,1/2+z
1/2+y,1/2-x,3/4+z
1/2+x,1/2-y,3/4-z
1/2-x,1/2+y,1/4-z
y,x,-z
-y,-x,1/2-z
loop_
_atom_site_type_symbol
_atom_site_label
_atom_site_fract_x
_atom_site_fract_y
_atom_site_fract_z
Si Si1 0.975867 0.915135 0.248630
Si Si2 0.585943 0.875690 0.014671
Si Si3 0.644776 0.004902 0.769248
Si Si4 0.547943 0.716819 0.449355
Si Si5 0.762086 0.133523 0.217366
O O1 0.929433 0.929433 0.500000
O O2 0.997669 0.840148 0.226788
O O3 0.929424 0.929424 0.000000
O O4 0.041351 0.958650 0.250000
O O5 0.530382 0.846493 0.822603
O O6 0.638335 0.815764 0.053633
O O7 0.613689 0.933836 0.823873
O O8 0.551215 0.896508 0.302159
O O9 0.718584 0.002539 0.651683
O O10 0.605720 0.728222 0.667069
O O11 0.584154 0.699686 0.169218
O O12 0.793977 0.206024 0.250000
#
# Coordination Sequence:
#
# PCOD8305223 Si02
#       5
#     8   8   8   8   8
#     4  10  19  30  47  73 104 137 176 218 260 313
#     4  10  21  36  56  81 108 139 174 219 269 320
#     4  10  21  37  56  79 108 138 174 219 268 322
#     4  10  20  34  53  76 106 141 177 222 270 314
#     4  10  19  33  55  79 103 137 181 222 263 315
#
# _framework density 19.570540999999999
#
# number of rings (size 3 to 8) (size 9 to 14) (size 15 to 20)
#    0.000    2.000    0.000    4.200    0.000    3.200 
#    0.000    1.000    0.000    4.800    0.000    0.000 
#    0.000    0.000    0.000    0.000    0.000    0.000 
#
# Total GULP energy -495605.136087 kJ/mol
# GULP energy per Si atom -12390.128402 kJ/mol
# Density = 1.952600 g / cm^3
# Si number density = 19.570541 Si / 1000 Ang^3
#
#
#
# Elastic Constant Matrix: (Units=GPa)
#
#
# Indices 1 2 3 4 5 6 
#
# 1 83.5758 50.8921 24.5583 0.0000 0.0000 0.0000
# 2 50.8921 83.5735 24.5588 0.0000 0.0000 0.0000
# 3 24.5583 24.5588 113.2616 0.0000 0.0000 0.0000
# 4 0.0000 0.0000 0.0000 46.2543 0.0000 0.0000
# 5 0.0000 0.0000 0.0000 0.0000 46.2721 0.0000
# 6 0.0000 0.0000 0.0000 0.0000 0.0000 25.5525
#
#
#
# Elastic Compliance Matrix: (Units=1/GPa)
#
#
# Indices 1 2 3 4 5 6 
#
# 1 0.019337 -0.011260 -0.001751 0.000000 0.000000 0.000000
# 2 -0.011260 0.019337 -0.001751 0.000000 0.000000 0.000000
# 3 -0.001751 -0.001751 0.009589 0.000000 0.000000 0.000000
# 4 0.000000 0.000000 0.000000 0.021620 0.000000 0.000000
# 5 0.000000 0.000000 0.000000 0.000000 0.021611 0.000000
# 6 0.000000 0.000000 0.000000 0.000000 0.000000 0.039135
#
#
# Mechanical properties :
#
#
# Convention : Reuss Voigt Hill
#
# Bulk Modulus (GPa) = 53.37153 53.38104 53.37628
# Shear Modulus (GPa) = 30.04815 35.64257 32.84536
#
# Velocity S-wave (km/s) = 3.92264 4.27222 4.10116
# Velocity P-wave (km/s) = 6.91713 7.18827 7.05401
#
# Compressibility (1/GPa) = 0.01873658
#
# Stress axis : x y z
#
# Youngs Moduli (GPa) = 51.71542 51.71380 104.29099
#
# Poissons Ratio (x) = 0.58232 0.18262
# Poissons Ratio (y) = 0.58234 0.18265
# Poissons Ratio (z) = 0.09056 0.09057
#
# Static dielectric constant tensor:
#      x y z
#    x 3.463280 0.000000 0.000000 
#    y 0.000000 3.463280 0.000000 
#    z 0.000000 0.000000 3.802930 
# 
# 
# High freq. dielectric constant tensor:
#      x y z
#    x 1.740020 0.000000 0.000000 
#    y 0.000000 1.740020 0.000000 
#    z 0.000000 0.000000 1.789970 
# 
# From -- ./inp_files/430.got.cif
#   From: 2010.03.12/outbox.cif.g09.slc.cpg/sg92_1_cif.got.tgz:430.got - 2010.04.08 20:41:11.
