data_PCOD8305182
_publ_section_title
;
Structure prediction by ZEFSAII (Michael W. Deem and Ramdas Pophale) SiO2 
 PCOD8305182
Probable space group: P 41 2 2
;
_chemical_formula_sum "Si O2"
_cell_formula_units_Z 36
_cell_length_a 13.222889
_cell_length_b 13.222889
_cell_length_c 10.201678
_cell_angle_alpha 90.000000
_cell_angle_beta 90.000000
_cell_angle_gamma 90.000000
_cell_volume 1783.710283
_symmetry_space_group_name_H-M "P 41 2 2"
_symmetry_group_IT_number 91
_symmetry_cell_setting 'tetragonal'
loop_
_space_group_symop_operation_xyz
x,y,z
-y,x,1/4+z
-x,-y,1/2+z
y,-x,3/4+z
x,-y,1/2-z
-x,y,-z
y,x,3/4-z
-y,-x,1/4-z
loop_
_atom_site_type_symbol
_atom_site_label
_atom_site_fract_x
_atom_site_fract_y
_atom_site_fract_z
Si Si1 0.408680 0.248940 0.399197
Si Si2 0.151779 0.541713 0.879889
Si Si3 0.761177 0.930757 0.624146
Si Si4 0.740883 0.106981 0.442232
Si Si5 0.000000 0.398877 0.000000
O O1 0.500000 0.260382 0.500000
O O2 0.357235 0.357235 0.375000
O O3 0.458598 0.217187 0.261685
O O4 0.322422 0.170344 0.448644
O O5 0.211479 0.500000 0.750000
O O6 0.114400 0.652406 0.848456
O O7 0.054395 0.469584 0.893881
O O8 0.836001 0.836983 0.634409
O O9 0.767054 0.000000 0.750000
O O10 0.785618 0.003227 0.501624
O O11 0.667863 0.084674 0.321101
#
# Coordination Sequence:
#
# PCOD8305182 Si02
#       5
#     8   8   8   8   4
#     4  12  24  47  76 105 135 183 231 288 357 427
#     4  12  23  41  72 103 132 171 238 300 340 399
#     4  12  23  42  67  98 136 185 237 281 345 416
#     4  12  25  43  68  99 144 186 238 287 349 416
#     4  12  24  40  66 102 130 184 234 298 338 402
#
# _framework density 20.182651
#
# number of rings (size 3 to 8) (size 9 to 14) (size 15 to 20)
#    0.000    0.000   10.000    0.667    0.000    0.889 
#    6.000    4.444    0.000    0.000    0.000    0.000 
#    0.000    0.000    0.000    0.000    0.000    0.000 
#
# Total GULP energy -446406.556867 kJ/mol
# GULP energy per Si atom -12400.182135 kJ/mol
# Density = 2.013671 g / cm^3
# Si number density = 20.182651 Si / 1000 Ang^3
#
#
#
# Elastic Constant Matrix: (Units=GPa)
#
#
# Indices 1 2 3 4 5 6 
#
# 1 126.3481 60.0487 66.3298 0.0000 0.0000 0.0000
# 2 60.0487 126.3481 66.3298 0.0000 0.0000 0.0000
# 3 66.3298 66.3298 126.3643 0.0000 0.0000 0.0000
# 4 0.0000 0.0000 0.0000 32.6292 0.0000 0.0000
# 5 0.0000 0.0000 0.0000 0.0000 32.6292 0.0000
# 6 0.0000 0.0000 0.0000 0.0000 0.0000 35.8611
#
#
#
# Elastic Compliance Matrix: (Units=1/GPa)
#
#
# Indices 1 2 3 4 5 6 
#
# 1 0.011824 -0.003259 -0.004496 0.000000 0.000000 0.000000
# 2 -0.003259 0.011824 -0.004496 0.000000 0.000000 0.000000
# 3 -0.004496 -0.004496 0.012633 0.000000 0.000000 0.000000
# 4 0.000000 0.000000 0.000000 0.030647 0.000000 0.000000
# 5 0.000000 0.000000 0.000000 0.000000 0.030647 0.000000
# 6 0.000000 0.000000 0.000000 0.000000 0.000000 0.027885
#
#
# Mechanical properties :
#
#
# Convention : Reuss Voigt Hill
#
# Bulk Modulus (GPa) = 84.89122 84.94192 84.91657
# Shear Modulus (GPa) = 32.49110 32.64736 32.56923
#
# Velocity S-wave (km/s) = 4.01665 4.02630 4.02148
# Velocity P-wave (km/s) = 7.97898 7.98703 7.98301
#
# Compressibility (1/GPa) = 0.01177978
#
# Stress axis : x y z
#
# Youngs Moduli (GPa) = 84.57562 84.57562 79.15702
#
# Poissons Ratio (x) = 0.27566 0.35585
# Poissons Ratio (y) = 0.27566 0.35585
# Poissons Ratio (z) = 0.38021 0.38021
#
# Static dielectric constant tensor:
#      x y z
#    x 3.802160 0.000000 0.000000 
#    y 0.000000 3.802160 0.000000 
#    z 0.000000 0.000000 3.882380 
# 
# 
# High freq. dielectric constant tensor:
#      x y z
#    x 1.781910 0.000000 0.000000 
#    y 0.000000 1.781910 0.000000 
#    z 0.000000 0.000000 1.802590 
# 
# From -- ./inp_files/3501.got.cif
#   From: 2010.03.12/outbox.cif.g09.slc.cpg/sg91_2_cif.got.tgz:3501.got - 2010.04.08 20:27:58.
