data_PCOD8305221
_publ_section_title
;
Structure prediction by ZEFSAII (Michael W. Deem and Ramdas Pophale) SiO2 
 PCOD8305221
Probable space group: P 41 21 2
;
_chemical_formula_sum "Si O2"
_cell_formula_units_Z 48
_cell_length_a 13.661993
_cell_length_b 13.661993
_cell_length_c 10.342927
_cell_angle_alpha 90.000000
_cell_angle_beta 90.000000
_cell_angle_gamma 90.000000
_cell_volume 1930.507870
_symmetry_space_group_name_H-M "P 41 21 2"
_symmetry_group_IT_number 92
_symmetry_cell_setting 'tetragonal'
loop_
_space_group_symop_operation_xyz
x,y,z
1/2-y,1/2+x,1/4+z
-x,-y,1/2+z
1/2+y,1/2-x,3/4+z
1/2+x,1/2-y,3/4-z
1/2-x,1/2+y,1/4-z
y,x,-z
-y,-x,1/2-z
loop_
_atom_site_type_symbol
_atom_site_label
_atom_site_fract_x
_atom_site_fract_y
_atom_site_fract_z
Si Si1 0.303915 0.173451 0.298662
Si Si2 0.213020 0.680367 0.361632
Si Si3 0.344163 0.429252 0.719060
Si Si4 0.995349 0.408452 0.820165
Si Si5 0.069391 0.930610 0.250000
Si Si6 0.144608 0.144608 0.500000
Si Si7 0.464423 0.619138 0.124683
O O1 0.234329 0.258722 0.242369
O O2 0.403646 0.233074 0.323381
O O3 0.330002 0.081871 0.205825
O O4 0.246274 0.136045 0.422369
O O5 0.246213 0.753788 0.250000
O O6 0.273258 0.579389 0.360549
O O7 0.098573 0.656884 0.354932
O O8 0.365165 0.404533 0.872906
O O9 0.354147 0.542000 0.673351
O O10 0.417796 0.370203 0.623647
O O11 0.976377 0.475098 0.692681
O O12 0.950676 0.915283 0.264991
O O13 0.447165 0.552835 0.250000
#
# Coordination Sequence:
#
# PCOD8305221 Si02
#       7
#     8   8   8   8   4   4   8
#     4  12  29  49  77 112 159 211 263 318 402 494
#     4  11  25  47  77 114 146 199 267 327 385 462
#     4  11  24  45  75 110 140 205 247 319 392 449
#     4  12  29  55  80 115 166 217 268 333 407 495
#     4  10  18  41  78 107 148 180 252 332 384 450
#     4  12  26  51  72 109 162 198 252 330 402 474
#     4   9  20  39  67 112 138 174 247 317 376 440
#
# _framework density 24.863923
#
# number of rings (size 3 to 8) (size 9 to 14) (size 15 to 20)
#    0.000    1.000    4.167    2.000    3.500    4.667 
#    0.000    0.000    0.000    0.000    0.000    0.000 
#    0.000    0.000    0.000    0.000    0.000    0.000 
#
# Total GULP energy -594741.183345 kJ/mol
# GULP energy per Si atom -12390.441320 kJ/mol
# Density = 2.480733 g / cm^3
# Si number density = 24.863923 Si / 1000 Ang^3
#
#
#
# Elastic Constant Matrix: (Units=GPa)
#
#
# Indices 1 2 3 4 5 6 
#
# 1 118.4383 78.3127 14.2250 0.0000 0.0000 0.0000
# 2 78.3127 118.4362 14.2237 0.0000 0.0000 0.0000
# 3 14.2250 14.2237 63.8732 0.0000 0.0000 0.0000
# 4 0.0000 0.0000 0.0000 37.9087 0.0000 0.0000
# 5 0.0000 0.0000 0.0000 0.0000 37.9085 0.0000
# 6 0.0000 0.0000 0.0000 0.0000 0.0000 40.5369
#
#
#
# Elastic Compliance Matrix: (Units=1/GPa)
#
#
# Indices 1 2 3 4 5 6 
#
# 1 0.015087 -0.009835 -0.001170 0.000000 0.000000 0.000000
# 2 -0.009835 0.015087 -0.001169 0.000000 0.000000 0.000000
# 3 -0.001170 -0.001169 0.016177 0.000000 0.000000 0.000000
# 4 0.000000 0.000000 0.000000 0.026379 0.000000 0.000000
# 5 0.000000 0.000000 0.000000 0.000000 0.026379 0.000000
# 6 0.000000 0.000000 0.000000 0.000000 0.000000 0.024669
#
#
# Mechanical properties :
#
#
# Convention : Reuss Voigt Hill
#
# Bulk Modulus (GPa) = 45.45005 57.14118 51.29562
# Shear Modulus (GPa) = 32.16234 36.20323 34.18278
#
# Velocity S-wave (km/s) = 3.60048 3.81997 3.71184
# Velocity P-wave (km/s) = 5.96689 6.51826 6.24866
#
# Compressibility (1/GPa) = 0.02200218
#
# Stress axis : x y z
#
# Youngs Moduli (GPa) = 66.28244 66.28158 61.81645
#
# Poissons Ratio (x) = 0.65190 0.07231
# Poissons Ratio (y) = 0.65191 0.07228
# Poissons Ratio (z) = 0.07754 0.07750
#
# Static dielectric constant tensor:
#      x y z
#    x 4.781600 0.000000 0.000000 
#    y 0.000000 4.781640 0.000000 
#    z 0.000000 0.000000 4.552220 
# 
# 
# High freq. dielectric constant tensor:
#      x y z
#    x 1.991720 0.000000 0.000000 
#    y 0.000000 1.991720 0.000000 
#    z 0.000000 0.000000 1.984230 
# 
# From -- ./inp_files/2219.got.cif
#   From: 2010.03.12/outbox.cif.g09.slc.cpg/sg92_2_cif.got.tgz:2219.got - 2010.04.08 20:41:11.
