data_PCOD8305547
_publ_section_title
;
Structure prediction by ZEFSAII (Michael W. Deem and Ramdas Pophale) SiO2 
 PCOD8305547
Probable space group: P 42 2 2
;
_chemical_formula_sum "Si O2"
_cell_formula_units_Z 40
_cell_length_a 14.530495
_cell_length_b 14.530495
_cell_length_c 9.827670
_cell_angle_alpha 90.000000
_cell_angle_beta 90.000000
_cell_angle_gamma 90.000000
_cell_volume 2074.967906
_symmetry_space_group_name_H-M "P 42 2 2"
_symmetry_group_IT_number 93
_symmetry_cell_setting 'tetragonal'
loop_
_space_group_symop_operation_xyz
x,y,z
-y,x,1/2+z
-x,-y,z
y,-x,1/2+z
x,-y,-z
-x,y,-z
y,x,1/2-z
-y,-x,1/2-z
loop_
_atom_site_type_symbol
_atom_site_label
_atom_site_fract_x
_atom_site_fract_y
_atom_site_fract_z
Si Si1 0.921641 0.682680 0.097732
Si Si2 0.297628 0.921885 0.907359
Si Si3 0.733968 0.586267 0.094422
Si Si4 0.916418 0.897055 0.097379
Si Si5 0.258569 0.410361 0.407549
O O1 0.946749 0.669738 0.255245
O O2 0.826600 0.637970 0.051357
O O3 0.912461 0.789864 0.076334
O O4 0.000000 0.640212 0.000000
O O5 0.187912 0.927235 0.937631
O O6 0.339610 0.823051 0.944623
O O7 0.344478 0.000000 0.000000
O O8 0.743801 0.556795 0.251421
O O9 0.645105 0.648309 0.066569
O O10 0.719350 0.500000 0.000000
O O11 0.934109 0.934109 0.250000
O O12 0.000000 0.935340 0.000000
O O13 0.253634 0.500000 0.500000
#
# Coordination Sequence:
#
# PCOD8305547 Si02
#       5
#     8   8   8   8   8
#     4   9  18  36  59  84 114 153 194 234 277 336
#     4  10  20  36  58  84 116 155 192 233 285 335
#     4  10  21  39  64  86 113 153 188 232 292 345
#     4   9  17  34  59  82 116 157 197 235 279 331
#     4  10  22  41  61  84 117 150 187 238 290 345
#
# _framework density 19.277407
#
# number of rings (size 3 to 8) (size 9 to 14) (size 15 to 20)
#    0.000    2.400    2.000    0.000    0.000    4.000 
#    0.000   18.000    0.000    0.000    0.000    0.000 
#    0.000    0.000    0.000    0.000    0.000    0.000 
#
# Total GULP energy -495596.758190 kJ/mol
# GULP energy per Si atom -12389.918955 kJ/mol
# Density = 1.923353 g / cm^3
# Si number density = 19.277407 Si / 1000 Ang^3
#
#
#
# Elastic Constant Matrix: (Units=GPa)
#
#
# Indices 1 2 3 4 5 6 
#
# 1 143.0937 21.0199 74.5664 0.0000 0.0000 0.0000
# 2 21.0199 143.0937 74.5664 0.0000 0.0000 0.0000
# 3 74.5664 74.5664 107.1841 0.0000 0.0000 0.0000
# 4 0.0000 0.0000 0.0000 27.0552 0.0000 0.0000
# 5 0.0000 0.0000 0.0000 0.0000 27.0552 0.0000
# 6 0.0000 0.0000 0.0000 0.0000 0.0000 37.8487
#
#
#
# Elastic Compliance Matrix: (Units=1/GPa)
#
#
# Indices 1 2 3 4 5 6 
#
# 1 0.012379 0.004187 -0.011525 0.000000 0.000000 0.000000
# 2 0.004187 0.012379 -0.011525 0.000000 0.000000 0.000000
# 3 -0.011525 -0.011525 0.025365 0.000000 0.000000 0.000000
# 4 0.000000 0.000000 0.000000 0.036961 0.000000 0.000000
# 5 0.000000 0.000000 0.000000 0.000000 0.036961 0.000000
# 6 0.000000 0.000000 0.000000 0.000000 0.000000 0.026421
#
#
# Mechanical properties :
#
#
# Convention : Reuss Voigt Hill
#
# Bulk Modulus (GPa) = 80.65794 81.51967 81.08880
# Shear Modulus (GPa) = 25.99775 33.27309 29.63542
#
# Velocity S-wave (km/s) = 3.67633 4.15904 3.92511
# Velocity P-wave (km/s) = 7.74287 8.08968 7.91818
#
# Compressibility (1/GPa) = 0.01239804
#
# Stress axis : x y z
#
# Youngs Moduli (GPa) = 80.78228 80.78228 39.42435
#
# Poissons Ratio (x) = -0.33825 0.45436
# Poissons Ratio (y) = -0.33825 0.45436
# Poissons Ratio (z) = 0.93100 0.93100
#
# Static dielectric constant tensor:
#      x y z
#    x 3.570790 0.000000 0.000000 
#    y 0.000000 3.570790 0.000000 
#    z 0.000000 0.000000 4.088810 
# 
# 
# High freq. dielectric constant tensor:
#      x y z
#    x 1.753380 0.000000 0.000000 
#    y 0.000000 1.753380 0.000000 
#    z 0.000000 0.000000 1.746650 
# 
# From -- ./inp_files/1846.got.cif
#   From: 2010.03.12/outbox.cif.g09.slc.cpg/sg93_1_cif.got.tgz:1846.got - 2010.04.08 20:44:19.
