data_PCOD8305777
_publ_section_title
;
Structure prediction by ZEFSAII (Michael W. Deem and Ramdas Pophale) SiO2 
 PCOD8305777
Probable space group: P 42 21 2
;
_chemical_formula_sum "Si O2"
_cell_formula_units_Z 44
_cell_length_a 8.614347
_cell_length_b 8.614347
_cell_length_c 28.099097
_cell_angle_alpha 90.000000
_cell_angle_beta 90.000000
_cell_angle_gamma 90.000000
_cell_volume 2085.148967
_symmetry_space_group_name_H-M "P 42 21 2"
_symmetry_group_IT_number 94
_symmetry_cell_setting 'tetragonal'
loop_
_space_group_symop_operation_xyz
x,y,z
1/2-y,1/2+x,1/2+z
-x,-y,z
1/2+y,1/2-x,1/2+z
1/2+x,1/2-y,1/2-z
1/2-x,1/2+y,1/2-z
y,x,-z
-y,-x,-z
loop_
_atom_site_type_symbol
_atom_site_label
_atom_site_fract_x
_atom_site_fract_y
_atom_site_fract_z
Si Si1 0.500000 0.000000 0.936199
Si Si2 0.163154 0.926050 0.706707
Si Si3 0.830738 0.929746 0.885243
Si Si4 0.990547 0.240493 0.490159
Si Si5 0.664578 0.935719 0.792125
Si Si6 0.431850 0.160841 0.113125
O O1 0.335077 0.017772 0.908457
O O2 0.540754 0.139249 0.970584
O O3 0.145613 0.745563 0.714988
O O4 0.208575 0.968803 0.652511
O O5 0.295227 0.987790 0.741901
O O6 0.000000 0.000000 0.719468
O O7 0.803244 0.969415 0.829673
O O8 0.852603 0.749946 0.895511
O O9 0.000000 0.000000 0.901715
O O10 0.812305 0.187696 0.500000
O O11 0.015540 0.299687 0.436458
O O12 0.095531 0.095531 0.500000
O O13 0.500000 0.000000 0.811004
O O14 0.500000 0.000000 0.132625
#
# Coordination Sequence:
#
# PCOD8305777 Si02
#       6
#     4   8   8   8   8   8
#     4  12  24  46  70 106 134 182 238 292 348 430
#     4  11  25  41  68 100 136 183 231 281 355 415
#     4  11  26  44  71 103 141 182 231 289 358 415
#     4  11  25  43  69  96 136 177 225 284 352 409
#     4  11  23  44  67 100 141 181 229 288 345 430
#     4  11  25  45  65 100 136 177 234 287 340 429
#
# _framework density 21.101607999999999
#
# number of rings (size 3 to 8) (size 9 to 14) (size 15 to 20)
#    0.000    0.909    3.636    2.182    5.091    5.818 
#    0.000    0.909    0.000    0.000    0.000    0.000 
#    0.000    0.000    0.000    0.000    0.000    0.000 
#
# Total GULP energy -545280.489645 kJ/mol
# GULP energy per Si atom -12392.738401 kJ/mol
# Density = 2.105358 g / cm^3
# Si number density = 21.101608 Si / 1000 Ang^3
#
#
#
# Elastic Constant Matrix: (Units=GPa)
#
#
# Indices 1 2 3 4 5 6 
#
# 1 121.3910 54.7096 42.9510 0.0000 0.0000 0.0000
# 2 54.7096 121.3906 42.9510 0.0000 0.0000 0.0000
# 3 42.9510 42.9510 104.8149 0.0000 0.0000 0.0000
# 4 0.0000 0.0000 0.0000 28.4766 0.0000 0.0000
# 5 0.0000 0.0000 0.0000 0.0000 28.4766 0.0000
# 6 0.0000 0.0000 0.0000 0.0000 0.0000 30.8512
#
#
#
# Elastic Compliance Matrix: (Units=1/GPa)
#
#
# Indices 1 2 3 4 5 6 
#
# 1 0.011047 -0.003950 -0.002908 0.000000 0.000000 0.000000
# 2 -0.003950 0.011047 -0.002908 0.000000 0.000000 0.000000
# 3 -0.002908 -0.002908 0.011924 0.000000 0.000000 0.000000
# 4 0.000000 0.000000 0.000000 0.035117 0.000000 0.000000
# 5 0.000000 0.000000 0.000000 0.000000 0.035117 0.000000
# 6 0.000000 0.000000 0.000000 0.000000 0.000000 0.032414
#
#
# Mechanical properties :
#
#
# Convention : Reuss Voigt Hill
#
# Bulk Modulus (GPa) = 69.03489 69.86887 69.45188
# Shear Modulus (GPa) = 31.05086 31.35986 31.20536
#
# Velocity S-wave (km/s) = 3.84017 3.85923 3.84971
# Velocity P-wave (km/s) = 7.24217 7.28291 7.26257
#
# Compressibility (1/GPa) = 0.01448543
#
# Stress axis : x y z
#
# Youngs Moduli (GPa) = 90.52248 90.52218 83.86328
#
# Poissons Ratio (x) = 0.35754 0.24390
# Poissons Ratio (y) = 0.35754 0.24390
# Poissons Ratio (z) = 0.26327 0.26327
#
# Static dielectric constant tensor:
#      x y z
#    x 3.984750 0.000000 0.000000 
#    y 0.000000 3.984750 0.000000 
#    z 0.000000 0.000000 3.841090 
# 
# 
# High freq. dielectric constant tensor:
#      x y z
#    x 1.835800 0.000000 0.000000 
#    y 0.000000 1.835800 0.000000 
#    z 0.000000 0.000000 1.834660 
# 
# From -- ./inp_files/5489.got.cif
#   From: 2010.03.12/outbox.cif.g09.slc.cpg/sg94_3_cif.got.tgz:5489.got - 2010.04.08 20:48:32.
