data_PCOD8305548
_publ_section_title
;
Structure prediction by ZEFSAII (Michael W. Deem and Ramdas Pophale) SiO2 
 PCOD8305548
Probable space group: P 42 2 2
;
_chemical_formula_sum "Si O2"
_cell_formula_units_Z 36
_cell_length_a 15.997068
_cell_length_b 15.997068
_cell_length_c 7.424531
_cell_angle_alpha 90.000000
_cell_angle_beta 90.000000
_cell_angle_gamma 90.000000
_cell_volume 1899.983401
_symmetry_space_group_name_H-M "P 42 2 2"
_symmetry_group_IT_number 93
_symmetry_cell_setting 'tetragonal'
loop_
_space_group_symop_operation_xyz
x,y,z
-y,x,1/2+z
-x,-y,z
y,-x,1/2+z
x,-y,-z
-x,y,-z
y,x,1/2-z
-y,-x,1/2-z
loop_
_atom_site_type_symbol
_atom_site_label
_atom_site_fract_x
_atom_site_fract_y
_atom_site_fract_z
Si Si1 0.284102 0.582960 0.720383
Si Si2 0.135276 0.997614 0.792783
Si Si3 0.604382 0.263606 0.180986
Si Si4 0.856035 0.594484 0.986979
Si Si5 0.000000 0.275253 0.000000
O O1 0.371811 0.628190 0.750000
O O2 0.305349 0.484988 0.724825
O O3 0.244051 0.612086 0.530707
O O4 0.220664 0.607227 0.877319
O O5 0.072043 0.072043 0.750000
O O6 0.218029 0.010417 0.675573
O O7 0.090876 0.909125 0.750000
O O8 0.162465 0.000000 0.000000
O O9 0.675656 0.324345 0.250000
O O10 0.610909 0.175284 0.283643
O O11 0.892989 0.500000 0.000000
O O12 0.922336 0.664590 0.035470
#
# Coordination Sequence:
#
# PCOD8305548 Si02
#       5
#     8   8   8   8   4
#     4  10  20  36  58  85 119 157 195 242 293 338
#     4  11  21  42  65  90 127 152 177 235 299 351
#     4  10  20  36  58  85 119 157 195 242 293 338
#     4  10  23  42  58  81 121 157 195 244 289 336
#     4  12  25  39  66  92 110 158 200 229 285 360
#
# _framework density 18.947534999999998
#
# number of rings (size 3 to 8) (size 9 to 14) (size 15 to 20)
#    0.000    1.556    4.444    1.000    0.000    4.000 
#    0.000    2.222    0.000    6.667    0.000    0.000 
#    0.000    0.000    0.000    0.000    0.000    0.000 
#
# Total GULP energy -446443.214638 kJ/mol
# GULP energy per Si atom -12401.200407 kJ/mol
# Density = 1.890441 g / cm^3
# Si number density = 18.947535 Si / 1000 Ang^3
#
#
#
# Elastic Constant Matrix: (Units=GPa)
#
#
# Indices 1 2 3 4 5 6 
#
# 1 70.4829 33.2207 9.9986 0.0000 0.0000 0.0000
# 2 33.2207 70.4912 10.0024 0.0000 0.0000 0.0000
# 3 9.9986 10.0024 112.8781 0.0000 0.0000 0.0000
# 4 0.0000 0.0000 0.0000 20.6459 0.0000 0.0000
# 5 0.0000 0.0000 0.0000 0.0000 20.6446 0.0000
# 6 0.0000 0.0000 0.0000 0.0000 0.0000 26.3623
#
#
#
# Elastic Compliance Matrix: (Units=1/GPa)
#
#
# Indices 1 2 3 4 5 6 
#
# 1 0.018323 -0.008512 -0.000869 0.000000 0.000000 0.000000
# 2 -0.008512 0.018321 -0.000869 0.000000 0.000000 0.000000
# 3 -0.000869 -0.000869 0.009013 0.000000 0.000000 0.000000
# 4 0.000000 0.000000 0.000000 0.048436 0.000000 0.000000
# 5 0.000000 0.000000 0.000000 0.000000 0.048439 0.000000
# 6 0.000000 0.000000 0.000000 0.000000 0.000000 0.037933
#
#
# Mechanical properties :
#
#
# Convention : Reuss Voigt Hill
#
# Bulk Modulus (GPa) = 39.75070 40.03285 39.89178
# Shear Modulus (GPa) = 23.88337 26.90591 25.39464
#
# Velocity S-wave (km/s) = 3.55420 3.77241 3.66493
# Velocity P-wave (km/s) = 6.15370 6.33631 6.24567
#
# Compressibility (1/GPa) = 0.02515679
#
# Stress axis : x y z
#
# Youngs Moduli (GPa) = 54.57620 54.58218 110.94935
#
# Poissons Ratio (x) = 0.46460 0.09639
# Poissons Ratio (y) = 0.46455 0.09647
# Poissons Ratio (z) = 0.04741 0.04746
#
# Static dielectric constant tensor:
#      x y z
#    x 3.378200 0.000000 0.000000 
#    y 0.000000 3.378190 0.000000 
#    z 0.000000 0.000000 3.997840 
# 
# 
# High freq. dielectric constant tensor:
#      x y z
#    x 1.726100 0.000000 0.000000 
#    y 0.000000 1.726100 0.000000 
#    z 0.000000 0.000000 1.757350 
# 
# From -- ./inp_files/1698.got.cif
#   From: 2010.03.12/outbox.cif.g09.slc.cpg/sg93_1_cif.got.tgz:1698.got - 2010.04.08 20:44:19.
