data_PCOD8305259
_publ_section_title
;
Structure prediction by ZEFSAII (Michael W. Deem and Ramdas Pophale) SiO2 
 PCOD8305259
Probable space group: P 41 21 2
;
_chemical_formula_sum "Si O2"
_cell_formula_units_Z 40
_cell_length_a 9.381037
_cell_length_b 9.381037
_cell_length_c 26.898149
_cell_angle_alpha 90.000000
_cell_angle_beta 90.000000
_cell_angle_gamma 90.000000
_cell_volume 2367.140810
_symmetry_space_group_name_H-M "P 41 21 2"
_symmetry_group_IT_number 92
_symmetry_cell_setting 'tetragonal'
loop_
_space_group_symop_operation_xyz
x,y,z
1/2-y,1/2+x,1/4+z
-x,-y,1/2+z
1/2+y,1/2-x,3/4+z
1/2+x,1/2-y,3/4-z
1/2-x,1/2+y,1/4-z
y,x,-z
-y,-x,1/2-z
loop_
_atom_site_type_symbol
_atom_site_label
_atom_site_fract_x
_atom_site_fract_y
_atom_site_fract_z
Si Si1 0.114841 0.650775 0.633050
Si Si2 0.524479 0.013594 0.945260
Si Si3 0.707634 0.474425 0.492830
Si Si4 0.473244 0.249105 0.515520
Si Si5 0.614154 0.164171 0.107431
O O1 0.025859 0.734651 0.674841
O O2 0.250573 0.737938 0.615883
O O3 0.168158 0.497021 0.654367
O O4 0.011608 0.623008 0.585577
O O5 0.657691 0.983533 0.907537
O O6 0.531114 0.173497 0.964616
O O7 0.528680 0.905854 0.991277
O O8 0.616750 0.616750 0.500000
O O9 0.612070 0.333895 0.498097
O O10 0.775792 0.478859 0.438063
O O11 0.330163 0.330163 0.500000
#
# Coordination Sequence:
#
# PCOD8305259 Si02
#       5
#     8   8   8   8   8
#     4  10  20  35  61  85 112 142 195 236 280 331
#     4  10  20  36  59  79 114 147 185 233 282 328
#     4  11  23  37  57  82 119 152 186 229 293 344
#     4  11  19  35  61  84 106 152 187 229 283 338
#     4  10  20  36  59  85 108 144 192 242 270 336
#
# _framework density 16.898022000000001
#
# number of rings (size 3 to 8) (size 9 to 14) (size 15 to 20)
#    1.200    0.400    6.000    0.000    2.800    1.600 
#    0.000    0.000    4.400    0.000    0.000    0.000 
#    0.000    0.000    0.000    0.000    0.000    0.000 
#
# Total GULP energy -495754.854780 kJ/mol
# GULP energy per Si atom -12393.871369 kJ/mol
# Density = 1.685956 g / cm^3
# Si number density = 16.898022 Si / 1000 Ang^3
#
#
#
# Elastic Constant Matrix: (Units=GPa)
#
#
# Indices 1 2 3 4 5 6 
#
# 1 66.7135 18.1946 18.3636 0.0000 0.0000 0.0000
# 2 18.1946 66.7135 18.3636 0.0000 0.0000 0.0000
# 3 18.3636 18.3636 94.7294 0.0000 0.0000 0.0000
# 4 0.0000 0.0000 0.0000 31.9203 0.0000 0.0000
# 5 0.0000 0.0000 0.0000 0.0000 31.9203 0.0000
# 6 0.0000 0.0000 0.0000 0.0000 0.0000 16.7621
#
#
#
# Elastic Compliance Matrix: (Units=1/GPa)
#
#
# Indices 1 2 3 4 5 6 
#
# 1 0.016733 -0.003878 -0.002492 0.000000 0.000000 0.000000
# 2 -0.003878 0.016733 -0.002492 0.000000 0.000000 0.000000
# 3 -0.002492 -0.002492 0.011523 0.000000 0.000000 0.000000
# 4 0.000000 0.000000 0.000000 0.031328 0.000000 0.000000
# 5 0.000000 0.000000 0.000000 0.000000 0.031328 0.000000
# 6 0.000000 0.000000 0.000000 0.000000 0.000000 0.059658
#
#
# Mechanical properties :
#
#
# Convention : Reuss Voigt Hill
#
# Bulk Modulus (GPa) = 36.67691 37.55555 37.11623
# Shear Modulus (GPa) = 25.75798 27.66952 26.71375
#
# Velocity S-wave (km/s) = 3.90849 4.05092 3.98034
# Velocity P-wave (km/s) = 6.49002 6.64477 6.56785
#
# Compressibility (1/GPa) = 0.02726511
#
# Stress axis : x y z
#
# Youngs Moduli (GPa) = 59.76235 59.76235 86.78618
#
# Poissons Ratio (x) = 0.23173 0.21628
# Poissons Ratio (y) = 0.23173 0.21628
# Poissons Ratio (z) = 0.14893 0.14893
#
# Static dielectric constant tensor:
#      x y z
#    x 3.004070 0.000000 0.000000 
#    y 0.000000 3.004070 0.000000 
#    z 0.000000 0.000000 3.290350 
# 
# 
# High freq. dielectric constant tensor:
#      x y z
#    x 1.638850 0.000000 0.000000 
#    y 0.000000 1.638850 0.000000 
#    z 0.000000 0.000000 1.666910 
# 
# From -- ./inp_files/4147.got.cif
#   From: 2010.03.12/outbox.cif.g09.slc.cpg/sg92_3_cif.got.tgz:4147.got - 2010.04.08 20:41:11.
