data_PCOD8305036
_publ_section_title
;
Structure prediction by ZEFSAII (Michael W. Deem and Ramdas Pophale) SiO2 
 PCOD8305036
Probable space group: P 41 2 2
;
_chemical_formula_sum "Si O2"
_cell_formula_units_Z 28
_cell_length_a 8.539561
_cell_length_b 8.539561
_cell_length_c 20.466959
_cell_angle_alpha 90.000000
_cell_angle_beta 90.000000
_cell_angle_gamma 90.000000
_cell_volume 1492.534607
_symmetry_space_group_name_H-M "P 41 2 2"
_symmetry_group_IT_number 91
_symmetry_cell_setting 'tetragonal'
loop_
_space_group_symop_operation_xyz
x,y,z
-y,x,1/4+z
-x,-y,1/2+z
y,-x,3/4+z
x,-y,1/2-z
-x,y,-z
y,x,3/4-z
-y,-x,1/4-z
loop_
_atom_site_type_symbol
_atom_site_label
_atom_site_fract_x
_atom_site_fract_y
_atom_site_fract_z
Si Si1 0.210678 0.207842 0.947060
Si Si2 0.467019 0.000000 0.750000
Si Si3 0.660274 0.092845 0.623688
Si Si4 0.029886 0.500000 0.750000
Si Si5 0.004104 0.995897 0.125000
O O1 0.264360 0.264360 0.875000
O O2 0.078353 0.070734 0.939255
O O3 0.148020 0.359147 0.984196
O O4 0.354949 0.141244 0.986601
O O5 0.572038 0.052288 0.689776
O O6 0.729216 0.270785 0.625000
O O7 0.542199 0.077434 0.562483
O O8 0.808719 0.972865 0.618877
#
# Coordination Sequence:
#
# PCOD8305036 Si02
#       5
#     8   4   8   4   4
#     4  10  22  41  65  95 128 176 215 270 322 401
#     4  12  22  44  64  98 134 170 220 270 340 382
#     4  10  24  38  68  98 125 168 220 283 310 389
#     4  12  22  42  64 100 132 170 218 272 342 382
#     4   8  20  42  68 100 114 176 230 270 298 392
#
# _framework density 18.760034999999998
#
# number of rings (size 3 to 8) (size 9 to 14) (size 15 to 20)
#    1.714    0.000    2.857    1.714    4.000    0.000 
#    0.000    2.857    0.000    0.000    0.000    0.000 
#    0.000    0.000    0.000    0.000    0.000    0.000 
#
# Total GULP energy -346978.960838 kJ/mol
# GULP energy per Si atom -12392.105744 kJ/mol
# Density = 1.871734 g / cm^3
# Si number density = 18.760035 Si / 1000 Ang^3
#
#
#
# Elastic Constant Matrix: (Units=GPa)
#
#
# Indices 1 2 3 4 5 6 
#
# 1 117.3771 60.5371 63.9959 0.0000 0.0000 0.0000
# 2 60.5371 117.3763 63.9960 0.0000 0.0000 0.0000
# 3 63.9959 63.9960 151.7402 0.0000 0.0000 0.0000
# 4 0.0000 0.0000 0.0000 37.2168 0.0000 0.0000
# 5 0.0000 0.0000 0.0000 0.0000 37.2167 0.0000
# 6 0.0000 0.0000 0.0000 0.0000 0.0000 34.5120
#
#
#
# Elastic Compliance Matrix: (Units=1/GPa)
#
#
# Indices 1 2 3 4 5 6 
#
# 1 0.012831 -0.004762 -0.003403 0.000000 0.000000 0.000000
# 2 -0.004762 0.012831 -0.003403 0.000000 0.000000 0.000000
# 3 -0.003403 -0.003403 0.009461 0.000000 0.000000 0.000000
# 4 0.000000 0.000000 0.000000 0.026870 0.000000 0.000000
# 5 0.000000 0.000000 0.000000 0.000000 0.026870 0.000000
# 6 0.000000 0.000000 0.000000 0.000000 0.000000 0.028975
#
#
# Mechanical properties :
#
#
# Convention : Reuss Voigt Hill
#
# Bulk Modulus (GPa) = 83.42876 84.83906 84.13391
# Shear Modulus (GPa) = 34.49001 34.98674 34.73837
#
# Velocity S-wave (km/s) = 4.29241 4.32320 4.30783
# Velocity P-wave (km/s) = 8.31471 8.38103 8.34793
#
# Compressibility (1/GPa) = 0.01198627
#
# Stress axis : x y z
#
# Youngs Moduli (GPa) = 77.93596 77.93530 105.70124
#
# Poissons Ratio (x) = 0.37115 0.35970
# Poissons Ratio (y) = 0.37115 0.35970
# Poissons Ratio (z) = 0.26521 0.26522
#
# Static dielectric constant tensor:
#      x y z
#    x 3.305510 0.000000 0.000000 
#    y 0.000000 3.305530 0.000000 
#    z 0.000000 0.000000 3.426120 
# 
# 
# High freq. dielectric constant tensor:
#      x y z
#    x 1.714940 0.000000 0.000000 
#    y 0.000000 1.714940 0.000000 
#    z 0.000000 0.000000 1.744510 
# 
# From -- ./inp_files/12132.got.cif
#   From: 2010.03.12/outbox.cif.g09.slc.cpg/sg91_7_cif.got.tgz:12132.got - 2010.04.08 20:27:58.
