data_PCOD8305381
_publ_section_title
;
Structure prediction by ZEFSAII (Michael W. Deem and Ramdas Pophale) SiO2 
 PCOD8305381
Probable space group: P 41 21 2
;
_chemical_formula_sum "Si O2"
_cell_formula_units_Z 40
_cell_length_a 8.809760
_cell_length_b 8.809760
_cell_length_c 22.568411
_cell_angle_alpha 90.000000
_cell_angle_beta 90.000000
_cell_angle_gamma 90.000000
_cell_volume 1751.576609
_symmetry_space_group_name_H-M "P 41 21 2"
_symmetry_group_IT_number 92
_symmetry_cell_setting 'tetragonal'
loop_
_space_group_symop_operation_xyz
x,y,z
1/2-y,1/2+x,1/4+z
-x,-y,1/2+z
1/2+y,1/2-x,3/4+z
1/2+x,1/2-y,3/4-z
1/2-x,1/2+y,1/4-z
y,x,-z
-y,-x,1/2-z
loop_
_atom_site_type_symbol
_atom_site_label
_atom_site_fract_x
_atom_site_fract_y
_atom_site_fract_z
Si Si1 0.881855 0.104512 0.616367
Si Si2 0.068321 0.598471 0.664660
Si Si3 0.762790 0.863722 0.422324
Si Si4 0.881674 0.302936 0.996106
Si Si5 0.686185 0.236284 0.108818
O O1 0.804974 0.189545 0.673637
O O2 0.803333 0.175212 0.557508
O O3 0.054370 0.151807 0.620824
O O4 0.868814 0.921972 0.613311
O O5 0.191399 0.735429 0.661589
O O6 0.144864 0.437906 0.649131
O O7 0.947687 0.629023 0.613533
O O8 0.979448 0.597566 0.727144
O O9 0.765020 0.950531 0.485934
O O10 0.759332 0.296634 0.047877
#
# Coordination Sequence:
#
# PCOD8305381 Si02
#       5
#     8   8   8   8   8
#     4  11  22  42  67  94 134 177 226 283 335 405
#     4  10  23  43  63  93 132 169 219 275 333 408
#     4  10  22  42  64  93 131 174 224 270 333 411
#     4  10  23  42  65  94 132 177 216 268 346 411
#     4  11  23  43  68  98 135 175 226 288 339 401
#
# _framework density 22.836570999999999
#
# number of rings (size 3 to 8) (size 9 to 14) (size 15 to 20)
#    0.000    1.600    0.000    5.400    0.000    6.400 
#    0.000   28.000    0.000    0.000    0.000    0.000 
#    0.000    0.000    0.000    0.000    0.000    0.000 
#
# Total GULP energy -495621.093563 kJ/mol
# GULP energy per Si atom -12390.527339 kJ/mol
# Density = 2.278459 g / cm^3
# Si number density = 22.836571 Si / 1000 Ang^3
#
#
#
# Elastic Constant Matrix: (Units=GPa)
#
#
# Indices 1 2 3 4 5 6 
#
# 1 121.3962 38.3640 35.8039 0.0000 0.0000 0.0000
# 2 38.3640 121.3962 35.8039 0.0000 0.0000 0.0000
# 3 35.8039 35.8039 65.4941 0.0000 0.0000 0.0000
# 4 0.0000 0.0000 0.0000 31.2464 0.0000 0.0000
# 5 0.0000 0.0000 0.0000 0.0000 31.2464 0.0000
# 6 0.0000 0.0000 0.0000 0.0000 0.0000 50.0057
#
#
#
# Elastic Compliance Matrix: (Units=1/GPa)
#
#
# Indices 1 2 3 4 5 6 
#
# 1 0.010167 -0.001876 -0.004532 0.000000 0.000000 0.000000
# 2 -0.001876 0.010167 -0.004532 0.000000 0.000000 0.000000
# 3 -0.004532 -0.004532 0.020224 0.000000 0.000000 0.000000
# 4 0.000000 0.000000 0.000000 0.032004 0.000000 0.000000
# 5 0.000000 0.000000 0.000000 0.000000 0.032004 0.000000
# 6 0.000000 0.000000 0.000000 0.000000 0.000000 0.019998
#
#
# Mechanical properties :
#
#
# Convention : Reuss Voigt Hill
#
# Bulk Modulus (GPa) = 53.54414 58.69226 56.11820
# Shear Modulus (GPa) = 32.75011 35.72068 34.23539
#
# Velocity S-wave (km/s) = 3.79107 3.95927 3.87608
# Velocity P-wave (km/s) = 6.53150 6.83066 6.68275
#
# Compressibility (1/GPa) = 0.01867618
#
# Stress axis : x y z
#
# Youngs Moduli (GPa) = 98.35533 98.35533 49.44605
#
# Poissons Ratio (x) = 0.18455 0.22411
# Poissons Ratio (y) = 0.18455 0.22411
# Poissons Ratio (z) = 0.44579 0.44579
#
# Static dielectric constant tensor:
#      x y z
#    x 4.402370 0.000000 0.000000 
#    y 0.000000 4.402370 0.000000 
#    z 0.000000 0.000000 4.258550 
# 
# 
# High freq. dielectric constant tensor:
#      x y z
#    x 1.915420 0.000000 0.000000 
#    y 0.000000 1.915420 0.000000 
#    z 0.000000 0.000000 1.884150 
# 
# From -- ./inp_files/3758.got.cif
#   From: 2010.03.12/outbox.cif.g09.slc.cpg/sg92_2_cif.got.tgz:3758.got - 2010.04.08 20:41:11.
