data_PCOD8305663
_publ_section_title
;
Structure prediction by ZEFSAII (Michael W. Deem and Ramdas Pophale) SiO2 
 PCOD8305663
Probable space group: P 42 21 2
;
_chemical_formula_sum "Si O2"
_cell_formula_units_Z 40
_cell_length_a 13.834409
_cell_length_b 13.834409
_cell_length_c 9.883090
_cell_angle_alpha 90.000000
_cell_angle_beta 90.000000
_cell_angle_gamma 90.000000
_cell_volume 1891.533217
_symmetry_space_group_name_H-M "P 42 21 2"
_symmetry_group_IT_number 94
_symmetry_cell_setting 'tetragonal'
loop_
_space_group_symop_operation_xyz
x,y,z
1/2-y,1/2+x,1/2+z
-x,-y,z
1/2+y,1/2-x,1/2+z
1/2+x,1/2-y,1/2-z
1/2-x,1/2+y,1/2-z
y,x,-z
-y,-x,-z
loop_
_atom_site_type_symbol
_atom_site_label
_atom_site_fract_x
_atom_site_fract_y
_atom_site_fract_z
Si Si1 0.303760 0.598177 0.803614
Si Si2 0.366605 0.960338 0.992526
Si Si3 0.996513 0.849289 0.045598
Si Si4 0.739721 0.935733 0.404356
Si Si5 0.120161 0.407014 0.215417
O O1 0.342117 0.511088 0.709009
O O2 0.379844 0.685624 0.808410
O O3 0.205509 0.642691 0.740186
O O4 0.286704 0.549546 0.948606
O O5 0.371907 0.857763 0.915584
O O6 0.255572 0.988668 0.018087
O O7 0.421706 0.038794 0.900178
O O8 0.414364 0.954641 0.142020
O O9 0.894154 0.894154 0.000000
O O10 0.085034 0.914967 0.000000
O O11 0.716477 0.040093 0.339730
#
# Coordination Sequence:
#
# PCOD8305663 Si02
#       5
#     8   8   8   8   8
#     4   9  21  39  58  95 121 163 220 250 327 385
#     4  10  22  36  61  93 124 164 212 260 326 387
#     4  10  21  38  63  88 118 164 212 264 319 393
#     4  10  20  37  64  85 132 168 200 277 312 383
#     4  10  21  37  61  91 129 162 211 261 323 380
#
# _framework density 21.146867
#
# number of rings (size 3 to 8) (size 9 to 14) (size 15 to 20)
#    0.000    2.200    0.000    1.800    5.600    8.000 
#    0.000    0.000    4.400   19.200    0.000    0.000 
#    0.000    0.000    0.000    0.000    0.000    0.000 
#
# Total GULP energy -495917.478095 kJ/mol
# GULP energy per Si atom -12397.936952 kJ/mol
# Density = 2.109874 g / cm^3
# Si number density = 21.146867 Si / 1000 Ang^3
#
#
#
# Elastic Constant Matrix: (Units=GPa)
#
#
# Indices 1 2 3 4 5 6 
#
# 1 98.1724 47.9125 60.1266 0.0000 0.0000 0.0000
# 2 47.9125 98.1735 60.1265 0.0000 0.0000 0.0000
# 3 60.1266 60.1265 142.3067 0.0000 0.0000 0.0000
# 4 0.0000 0.0000 0.0000 34.2500 0.0000 0.0000
# 5 0.0000 0.0000 0.0000 0.0000 34.2491 0.0000
# 6 0.0000 0.0000 0.0000 0.0000 0.0000 35.9080
#
#
#
# Elastic Compliance Matrix: (Units=1/GPa)
#
#
# Indices 1 2 3 4 5 6 
#
# 1 0.015196 -0.004700 -0.004435 0.000000 0.000000 0.000000
# 2 -0.004700 0.015196 -0.004435 0.000000 0.000000 0.000000
# 3 -0.004435 -0.004435 0.010774 0.000000 0.000000 0.000000
# 4 0.000000 0.000000 0.000000 0.029197 0.000000 0.000000
# 5 0.000000 0.000000 0.000000 0.000000 0.029198 0.000000
# 6 0.000000 0.000000 0.000000 0.000000 0.000000 0.027849
#
#
# Mechanical properties :
#
#
# Convention : Reuss Voigt Hill
#
# Bulk Modulus (GPa) = 71.28843 74.99822 73.14333
# Shear Modulus (GPa) = 31.40206 32.24722 31.82464
#
# Velocity S-wave (km/s) = 3.85769 3.90926 3.88356
# Velocity P-wave (km/s) = 7.32302 7.47789 7.40086
#
# Compressibility (1/GPa) = 0.01402752
#
# Stress axis : x y z
#
# Youngs Moduli (GPa) = 65.80609 65.80713 92.81233
#
# Poissons Ratio (x) = 0.30931 0.41159
# Poissons Ratio (y) = 0.30931 0.41158
# Poissons Ratio (z) = 0.29183 0.29182
#
# Static dielectric constant tensor:
#      x y z
#    x 3.718150 0.000000 0.000000 
#    y 0.000000 3.718150 0.000000 
#    z 0.000000 0.000000 4.062340 
# 
# 
# High freq. dielectric constant tensor:
#      x y z
#    x 1.818760 0.000000 0.000000 
#    y 0.000000 1.818760 0.000000 
#    z 0.000000 0.000000 1.844520 
# 
# From -- ./inp_files/1400.got.cif
#   From: 2010.03.12/outbox.cif.g09.slc.cpg/sg94_1_cif.got.tgz:1400.got - 2010.04.08 20:48:32.
