data_PCOD8305561
_publ_section_title
;
Structure prediction by ZEFSAII (Michael W. Deem and Ramdas Pophale) SiO2 
 PCOD8305561
Probable space group: P 42 2 2
;
_chemical_formula_sum "Si O2"
_cell_formula_units_Z 34
_cell_length_a 14.456336
_cell_length_b 14.456336
_cell_length_c 8.634190
_cell_angle_alpha 90.000000
_cell_angle_beta 90.000000
_cell_angle_gamma 90.000000
_cell_volume 1804.421814
_symmetry_space_group_name_H-M "P 42 2 2"
_symmetry_group_IT_number 93
_symmetry_cell_setting 'tetragonal'
loop_
_space_group_symop_operation_xyz
x,y,z
-y,x,1/2+z
-x,-y,z
y,-x,1/2+z
x,-y,-z
-x,y,-z
y,x,1/2-z
-y,-x,1/2-z
loop_
_atom_site_type_symbol
_atom_site_label
_atom_site_fract_x
_atom_site_fract_y
_atom_site_fract_z
Si Si1 0.486787 0.295524 0.169207
Si Si2 0.609404 0.000929 0.174811
Si Si3 0.678705 0.189704 0.694701
Si Si4 0.588258 0.166795 0.393275
Si Si5 0.500000 0.500000 0.250000
O O1 0.386209 0.265477 0.224135
O O2 0.561089 0.255322 0.290540
O O3 0.498265 0.406005 0.150207
O O4 0.500000 0.250438 0.000000
O O5 0.632300 0.089724 0.280218
O O6 0.500000 0.000000 0.166107
O O7 0.652578 0.913390 0.258970
O O8 0.650297 0.000000 0.000000
O O9 0.782567 0.217434 0.750000
O O10 0.669910 0.197904 0.508758
O O11 0.500000 0.132964 0.500000
#
# Coordination Sequence:
#
# PCOD8305561 Si02
#       5
#     8   8   8   8   2
#     4  11  23  36  52  74 109 161 215 246 284 341
#     4  11  20  36  60  86 111 152 204 261 312 361
#     4  11  23  37  56  84 120 148 198 254 313 358
#     4  10  21  36  57  81 108 151 203 254 302 352
#     4  12  26  36  52  70 122 176 220 236 280 340
#
# _framework density 18.842601999999999
#
# number of rings (size 3 to 8) (size 9 to 14) (size 15 to 20)
#    0.000    1.176    5.882    2.471    3.294    1.882 
#    0.000    0.000    0.000    0.000    0.000    0.000 
#    0.000   11.294    0.000    0.000    0.000    0.000 
#
# Total GULP energy -421330.910379 kJ/mol
# GULP energy per Si atom -12392.085599 kJ/mol
# Density = 1.879972 g / cm^3
# Si number density = 18.842602 Si / 1000 Ang^3
#
#
#
# Elastic Constant Matrix: (Units=GPa)
#
#
# Indices 1 2 3 4 5 6 
#
# 1 86.2942 32.7807 38.4106 0.0000 0.0000 0.0000
# 2 32.7807 86.2951 38.4111 0.0000 0.0000 0.0000
# 3 38.4106 38.4111 165.3729 0.0000 0.0000 0.0000
# 4 0.0000 0.0000 0.0000 30.3655 0.0000 0.0000
# 5 0.0000 0.0000 0.0000 0.0000 30.3666 0.0000
# 6 0.0000 0.0000 0.0000 0.0000 0.0000 18.4045
#
#
#
# Elastic Compliance Matrix: (Units=1/GPa)
#
#
# Indices 1 2 3 4 5 6 
#
# 1 0.014283 -0.004404 -0.002294 0.000000 0.000000 0.000000
# 2 -0.004404 0.014282 -0.002294 0.000000 0.000000 0.000000
# 3 -0.002294 -0.002294 0.007113 0.000000 0.000000 0.000000
# 4 0.000000 0.000000 0.000000 0.032932 0.000000 0.000000
# 5 0.000000 0.000000 0.000000 0.000000 0.032931 0.000000
# 6 0.000000 0.000000 0.000000 0.000000 0.000000 0.054334
#
#
# Mechanical properties :
#
#
# Convention : Reuss Voigt Hill
#
# Bulk Modulus (GPa) = 56.52366 61.90743 59.21555
# Shear Modulus (GPa) = 27.81508 31.05131 29.43320
#
# Velocity S-wave (km/s) = 3.84628 4.06388 3.95657
# Velocity P-wave (km/s) = 7.05607 7.41259 7.23652
#
# Compressibility (1/GPa) = 0.01769171
#
# Stress axis : x y z
#
# Youngs Moduli (GPa) = 70.01540 70.01607 140.59208
#
# Poissons Ratio (x) = 0.30837 0.32257
# Poissons Ratio (y) = 0.30836 0.32258
# Poissons Ratio (z) = 0.16064 0.16065
#
# Static dielectric constant tensor:
#      x y z
#    x 3.085320 0.000000 0.000000 
#    y 0.000000 3.085280 0.000000 
#    z 0.000000 0.000000 3.964420 
# 
# 
# High freq. dielectric constant tensor:
#      x y z
#    x 1.696570 0.000000 0.000000 
#    y 0.000000 1.696570 0.000000 
#    z 0.000000 0.000000 1.759320 
# 
# From -- ./inp_files/1592.got.cif
#   From: 2010.03.12/outbox.cif.g09.slc.cpg/sg93_1_cif.got.tgz:1592.got - 2010.04.08 20:44:19.
