data_PCOD8305797
_publ_section_title
;
Structure prediction by ZEFSAII (Michael W. Deem and Ramdas Pophale) SiO2 
 PCOD8305797
Probable space group: P 42 21 2
;
_chemical_formula_sum "Si O2"
_cell_formula_units_Z 36
_cell_length_a 8.099386
_cell_length_b 8.099386
_cell_length_c 22.022885
_cell_angle_alpha 90.000000
_cell_angle_beta 90.000000
_cell_angle_gamma 90.000000
_cell_volume 1444.702436
_symmetry_space_group_name_H-M "P 42 21 2"
_symmetry_group_IT_number 94
_symmetry_cell_setting 'tetragonal'
loop_
_space_group_symop_operation_xyz
x,y,z
1/2-y,1/2+x,1/2+z
-x,-y,z
1/2+y,1/2-x,1/2+z
1/2+x,1/2-y,1/2-z
1/2-x,1/2+y,1/2-z
y,x,-z
-y,-x,-z
loop_
_atom_site_type_symbol
_atom_site_label
_atom_site_fract_x
_atom_site_fract_y
_atom_site_fract_z
Si Si1 0.791877 0.208124 0.500000
Si Si2 0.151626 0.300749 0.553074
Si Si3 0.822754 0.205621 0.707775
Si Si4 0.402161 0.672411 0.396992
Si Si5 0.843149 0.803574 0.323025
O O1 0.752394 0.333819 0.443995
O O2 0.975730 0.238996 0.526469
O O3 0.285345 0.285345 0.500000
O O4 0.171161 0.487050 0.578757
O O5 0.220709 0.181058 0.605790
O O6 0.716975 0.341786 0.670819
O O7 0.811537 0.230602 0.780346
O O8 0.011501 0.213261 0.690099
O O9 0.751715 0.027990 0.691664
O O10 0.500000 0.500000 0.395390
#
# Coordination Sequence:
#
# PCOD8305797 Si02
#       5
#     4   8   8   8   8
#     4  12  24  46  76 106 154 203 259 320 390 470
#     4  12  26  46  78 113 157 205 258 326 392 472
#     4  11  26  48  80 109 155 202 262 322 389 465
#     4  12  27  48  72 113 156 199 259 320 394 472
#     4  11  26  49  77 118 151 209 264 323 396 465
#
# _framework density 24.918624999999999
#
# number of rings (size 3 to 8) (size 9 to 14) (size 15 to 20)
#    0.000    0.444    2.222    5.333    9.333    2.667 
#    0.000    2.222    0.000    0.000    0.000    0.000 
#    0.000    0.000    0.000    0.000    0.000    0.000 
#
# Total GULP energy -446230.350342 kJ/mol
# GULP energy per Si atom -12395.287510 kJ/mol
# Density = 2.486191 g / cm^3
# Si number density = 24.918625 Si / 1000 Ang^3
#
#
#
# Elastic Constant Matrix: (Units=GPa)
#
#
# Indices 1 2 3 4 5 6 
#
# 1 88.3981 51.5462 54.8321 0.0000 0.0000 0.0000
# 2 51.5462 88.3982 54.8319 0.0000 0.0000 0.0000
# 3 54.8321 54.8319 170.1937 0.0000 0.0000 0.0000
# 4 0.0000 0.0000 0.0000 44.5272 0.0000 0.0000
# 5 0.0000 0.0000 0.0000 0.0000 44.5272 0.0000
# 6 0.0000 0.0000 0.0000 0.0000 0.0000 38.2631
#
#
#
# Elastic Compliance Matrix: (Units=1/GPa)
#
#
# Indices 1 2 3 4 5 6 
#
# 1 0.018347 -0.008788 -0.003080 0.000000 0.000000 0.000000
# 2 -0.008788 0.018347 -0.003080 0.000000 0.000000 0.000000
# 3 -0.003080 -0.003080 0.007860 0.000000 0.000000 0.000000
# 4 0.000000 0.000000 0.000000 0.022458 0.000000 0.000000
# 5 0.000000 0.000000 0.000000 0.000000 0.022458 0.000000
# 6 0.000000 0.000000 0.000000 0.000000 0.000000 0.026135
#
#
# Mechanical properties :
#
#
# Convention : Reuss Voigt Hill
#
# Bulk Modulus (GPa) = 68.21566 74.37891 71.29728
# Shear Modulus (GPa) = 33.24744 37.84883 35.54813
#
# Velocity S-wave (km/s) = 3.65669 3.90153 3.78109
# Velocity P-wave (km/s) = 6.72780 7.08586 6.90915
#
# Compressibility (1/GPa) = 0.01465939
#
# Stress axis : x y z
#
# Youngs Moduli (GPa) = 54.50385 54.50401 127.22595
#
# Poissons Ratio (x) = 0.47900 0.39182
# Poissons Ratio (y) = 0.47900 0.39181
# Poissons Ratio (z) = 0.16785 0.16785
#
# Static dielectric constant tensor:
#      x y z
#    x 4.461030 0.000000 0.000000 
#    y 0.000000 4.461040 0.000000 
#    z 0.000000 0.000000 4.801040 
# 
# 
# High freq. dielectric constant tensor:
#      x y z
#    x 1.990190 0.000000 0.000000 
#    y 0.000000 1.990190 0.000000 
#    z 0.000000 0.000000 2.016660 
# 
# From -- ./inp_files/4562.got.cif
#   From: 2010.03.12/outbox.cif.g09.slc.cpg/sg94_3_cif.got.tgz:4562.got - 2010.04.08 20:48:32.
