data_PCOD8305954
_publ_section_title
;
Structure prediction by ZEFSAII (Michael W. Deem and Ramdas Pophale) SiO2 
 PCOD8305954
Probable space group: P 43 21 2
;
_chemical_formula_sum "Si O2"
_cell_formula_units_Z 40
_cell_length_a 14.005851
_cell_length_b 14.005851
_cell_length_c 8.733352
_cell_angle_alpha 90.000000
_cell_angle_beta 90.000000
_cell_angle_gamma 90.000000
_cell_volume 1713.168059
_symmetry_space_group_name_H-M "P 43 21 2"
_symmetry_group_IT_number 96
_symmetry_cell_setting 'tetragonal'
loop_
_space_group_symop_operation_xyz
x,y,z
1/2-y,1/2+x,3/4+z
-x,-y,1/2+z
1/2+y,1/2-x,1/4+z
1/2+x,1/2-y,1/4-z
1/2-x,1/2+y,3/4-z
y,x,-z
-y,-x,1/2-z
loop_
_atom_site_type_symbol
_atom_site_label
_atom_site_fract_x
_atom_site_fract_y
_atom_site_fract_z
Si Si1 0.293448 0.063655 0.175562
Si Si2 0.050902 0.103246 0.724669
Si Si3 0.690896 0.156621 0.714493
Si Si4 0.063044 0.594005 0.834051
Si Si5 0.470708 0.725126 0.329922
O O1 0.179411 0.069232 0.140082
O O2 0.325649 0.146542 0.294275
O O3 0.341359 0.079292 0.012425
O O4 0.311768 0.956859 0.243425
O O5 0.143876 0.036705 0.709418
O O6 0.027172 0.170406 0.579919
O O7 0.958966 0.041035 0.750000
O O8 0.795606 0.204395 0.750000
O O9 0.622088 0.206695 0.838282
O O10 0.063405 0.526870 0.981167
O O11 0.060132 0.705416 0.887106
#
# Coordination Sequence:
#
# PCOD8305954 Si02
#       5
#     8   8   8   8   8
#     4  11  22  41  70 109 142 188 246 303 376 445
#     4  10  22  49  77  99 143 202 257 305 373 461
#     4  11  21  41  73 105 141 189 248 298 367 455
#     4  12  26  45  74 113 155 195 242 316 391 456
#     4  10  23  44  69 110 139 189 253 308 365 447
#
# _framework density 23.348557
#
# number of rings (size 3 to 8) (size 9 to 14) (size 15 to 20)
#    0.000    1.200    6.000    1.800    8.400    0.000 
#    7.200    4.000    0.000    0.000    0.000    0.000 
#    0.000    0.000    0.000    0.000    0.000    0.000 
#
# Total GULP energy -495628.074534 kJ/mol
# GULP energy per Si atom -12390.701863 kJ/mol
# Density = 2.329541 g / cm^3
# Si number density = 23.348557 Si / 1000 Ang^3
#
#
#
# Elastic Constant Matrix: (Units=GPa)
#
#
# Indices 1 2 3 4 5 6 
#
# 1 99.6905 36.7403 20.4935 0.0000 0.0000 0.0000
# 2 36.7403 99.6865 20.4916 0.0000 0.0000 0.0000
# 3 20.4935 20.4916 37.6279 0.0000 0.0000 0.0000
# 4 0.0000 0.0000 0.0000 28.0376 0.0000 0.0000
# 5 0.0000 0.0000 0.0000 0.0000 28.0330 0.0000
# 6 0.0000 0.0000 0.0000 0.0000 0.0000 46.4873
#
#
#
# Elastic Compliance Matrix: (Units=1/GPa)
#
#
# Indices 1 2 3 4 5 6 
#
# 1 0.012325 -0.003561 -0.004773 0.000000 0.000000 0.000000
# 2 -0.003561 0.012325 -0.004772 0.000000 0.000000 0.000000
# 3 -0.004773 -0.004772 0.031775 0.000000 0.000000 0.000000
# 4 0.000000 0.000000 0.000000 0.035666 0.000000 0.000000
# 5 0.000000 0.000000 0.000000 0.000000 0.035672 0.000000
# 6 0.000000 0.000000 0.000000 0.000000 0.000000 0.021511
#
#
# Mechanical properties :
#
#
# Convention : Reuss Voigt Hill
#
# Bulk Modulus (GPa) = 33.10071 43.60617 38.35344
# Shear Modulus (GPa) = 26.94575 31.13022 29.03798
#
# Velocity S-wave (km/s) = 3.40084 3.65538 3.53040
# Velocity P-wave (km/s) = 5.44320 6.04420 5.75156
#
# Compressibility (1/GPa) = 0.03021084
#
# Stress axis : x y z
#
# Youngs Moduli (GPa) = 81.13779 81.13600 31.47165
#
# Poissons Ratio (x) = 0.28894 0.15022
# Poissons Ratio (y) = 0.28895 0.15020
# Poissons Ratio (z) = 0.38728 0.38722
#
# Static dielectric constant tensor:
#      x y z
#    x 4.671280 0.000000 0.000000 
#    y 0.000000 4.671320 0.000000 
#    z 0.000000 0.000000 4.030410 
# 
# 
# High freq. dielectric constant tensor:
#      x y z
#    x 1.928720 0.000000 0.000000 
#    y 0.000000 1.928720 0.000000 
#    z 0.000000 0.000000 1.902770 
# 
# From -- ./inp_files/1300.got.cif
#   From: 2010.03.12/outbox.cif.g09.slc.cpg/sg96_1_cif.got.tgz:1300.got - 2010.04.08 20:56:49.
