data_PCOD8305344
_publ_section_title
;
Structure prediction by ZEFSAII (Michael W. Deem and Ramdas Pophale) SiO2 
 PCOD8305344
Probable space group: P 41 21 2
;
_chemical_formula_sum "Si O2"
_cell_formula_units_Z 52
_cell_length_a 16.747072
_cell_length_b 16.747072
_cell_length_c 8.896547
_cell_angle_alpha 90.000000
_cell_angle_beta 90.000000
_cell_angle_gamma 90.000000
_cell_volume 2495.164899
_symmetry_space_group_name_H-M "P 41 21 2"
_symmetry_group_IT_number 92
_symmetry_cell_setting 'tetragonal'
loop_
_space_group_symop_operation_xyz
x,y,z
1/2-y,1/2+x,1/4+z
-x,-y,1/2+z
1/2+y,1/2-x,3/4+z
1/2+x,1/2-y,3/4-z
1/2-x,1/2+y,1/4-z
y,x,-z
-y,-x,1/2-z
loop_
_atom_site_type_symbol
_atom_site_label
_atom_site_fract_x
_atom_site_fract_y
_atom_site_fract_z
Si Si1 0.196162 0.916140 0.015395
Si Si2 0.974716 0.081889 0.406096
Si Si3 0.835657 0.635001 0.316086
Si Si4 0.222613 0.777388 0.250000
Si Si5 0.171240 0.484102 0.066396
Si Si6 0.944269 0.255061 0.304199
Si Si7 0.028873 0.416707 0.254315
O O1 0.102842 0.936366 0.008778
O O2 0.229055 0.899871 0.848039
O O3 0.210792 0.839730 0.116927
O O4 0.246211 0.989035 0.089441
O O5 0.966062 0.033939 0.250000
O O6 0.985195 0.176811 0.378075
O O7 0.050907 0.050907 0.500000
O O8 0.807653 0.711386 0.416482
O O9 0.813184 0.554304 0.404805
O O10 0.789438 0.626777 0.158607
O O11 0.928901 0.637680 0.287073
O O12 0.108648 0.427967 0.155990
O O13 0.011658 0.322579 0.274850
O O14 0.039581 0.456021 0.417982
#
# Coordination Sequence:
#
# PCOD8305344 Si02
#       7
#     8   8   8   4   8   8   8
#     4  10  21  43  64  93 126 172 217 279 341 400
#     4  10  23  42  71  93 123 171 226 284 348 404
#     4  11  23  37  62  91 128 172 220 271 334 411
#     4  10  22  40  66  86 130 172 214 276 338 398
#     4  11  22  38  62  95 132 176 222 266 337 414
#     4  11  23  39  66  97 130 170 227 278 340 407
#     4  12  23  39  65  97 141 184 222 273 337 413
#
# _framework density 20.840306000000002
#
# number of rings (size 3 to 8) (size 9 to 14) (size 15 to 20)
#    0.000    1.231    4.615    0.923    3.231    0.000 
#    1.385    0.000   10.154    0.000    0.000    0.000 
#    0.000    0.000    0.000    0.000    0.000    0.000 
#
# Total GULP energy -644669.839400 kJ/mol
# GULP energy per Si atom -12397.496912 kJ/mol
# Density = 2.079287 g / cm^3
# Si number density = 20.840306 Si / 1000 Ang^3
#
#
#
# Elastic Constant Matrix: (Units=GPa)
#
#
# Indices 1 2 3 4 5 6 
#
# 1 95.9716 45.4806 43.5493 0.0000 0.0000 0.0000
# 2 45.4806 95.9710 43.5493 0.0000 0.0000 0.0000
# 3 43.5493 43.5493 99.6072 0.0000 0.0000 0.0000
# 4 0.0000 0.0000 0.0000 29.1674 0.0000 0.0000
# 5 0.0000 0.0000 0.0000 0.0000 29.1677 0.0000
# 6 0.0000 0.0000 0.0000 0.0000 0.0000 23.9277
#
#
#
# Elastic Compliance Matrix: (Units=1/GPa)
#
#
# Indices 1 2 3 4 5 6 
#
# 1 0.014740 -0.005066 -0.004229 0.000000 0.000000 0.000000
# 2 -0.005066 0.014740 -0.004230 0.000000 0.000000 0.000000
# 3 -0.004229 -0.004230 0.013738 0.000000 0.000000 0.000000
# 4 0.000000 0.000000 0.000000 0.034285 0.000000 0.000000
# 5 0.000000 0.000000 0.000000 0.000000 0.034284 0.000000
# 6 0.000000 0.000000 0.000000 0.000000 0.000000 0.041792
#
#
# Mechanical properties :
#
#
# Convention : Reuss Voigt Hill
#
# Bulk Modulus (GPa) = 61.85262 61.85650 61.85456
# Shear Modulus (GPa) = 26.87912 27.05062 26.96487
#
# Velocity S-wave (km/s) = 3.59523 3.60668 3.60096
# Velocity P-wave (km/s) = 6.85405 6.86220 6.85813
#
# Compressibility (1/GPa) = 0.01616746
#
# Stress axis : x y z
#
# Youngs Moduli (GPa) = 67.84408 67.84352 72.79182
#
# Poissons Ratio (x) = 0.34369 0.30787
# Poissons Ratio (y) = 0.34369 0.30788
# Poissons Ratio (z) = 0.28695 0.28695
#
# Static dielectric constant tensor:
#      x y z
#    x 3.767750 0.000000 0.000000 
#    y 0.000000 3.767750 0.000000 
#    z 0.000000 0.000000 4.113380 
# 
# 
# High freq. dielectric constant tensor:
#      x y z
#    x 1.798760 0.000000 0.000000 
#    y 0.000000 1.798760 0.000000 
#    z 0.000000 0.000000 1.840690 
# 
# From -- ./inp_files/1579.got.cif
#   From: 2010.03.12/outbox.cif.g09.slc.cpg/sg92_1_cif.got.tgz:1579.got - 2010.04.08 20:41:11.
