data_PCOD8305879
_publ_section_title
;
Structure prediction by ZEFSAII (Michael W. Deem and Ramdas Pophale) SiO2 
 PCOD8305879
Probable space group: P 43 21 2
;
_chemical_formula_sum "Si O2"
_cell_formula_units_Z 48
_cell_length_a 23.797383
_cell_length_b 23.797383
_cell_length_c 4.986932
_cell_angle_alpha 90.000000
_cell_angle_beta 90.000000
_cell_angle_gamma 90.000000
_cell_volume 2824.176578
_symmetry_space_group_name_H-M "P 43 21 2"
_symmetry_group_IT_number 96
_symmetry_cell_setting 'tetragonal'
loop_
_space_group_symop_operation_xyz
x,y,z
1/2-y,1/2+x,3/4+z
-x,-y,1/2+z
1/2+y,1/2-x,1/4+z
1/2+x,1/2-y,1/4-z
1/2-x,1/2+y,3/4-z
y,x,-z
-y,-x,1/2-z
loop_
_atom_site_type_symbol
_atom_site_label
_atom_site_fract_x
_atom_site_fract_y
_atom_site_fract_z
Si Si1 0.182444 0.763442 0.004451
Si Si2 0.279222 0.059507 0.650284
Si Si3 0.930696 0.282853 0.341291
Si Si4 0.932690 0.354072 0.846841
Si Si5 0.272726 0.672748 0.008079
Si Si6 0.559285 0.149805 0.400348
O O1 0.194665 0.805336 0.250000
O O2 0.211873 0.788128 0.750000
O O3 0.115505 0.761446 0.947194
O O4 0.210913 0.701777 0.050436
O O5 0.232323 0.104856 0.736696
O O6 0.295905 0.067711 0.340619
O O7 0.258050 0.994430 0.668552
O O8 0.331981 0.073674 0.846836
O O9 0.923472 0.336829 0.537657
O O10 0.916821 0.301073 0.037271
O O11 0.898617 0.405711 0.961184
O O12 0.996586 0.373108 0.867035
O O13 0.304894 0.695107 0.750000
O O14 0.312849 0.687152 0.250000
#
# Coordination Sequence:
#
# PCOD8305879 Si02
#       6
#     8   8   8   8   8   8
#     4  10  19  30  47  71  96 122 153 193 238 282
#     4  10  20  33  49  67  92 125 158 192 235 289
#     4  10  20  33  49  67  92 125 158 192 235 289
#     4  10  19  31  46  64  87 121 161 199 237 273
#     4  10  19  30  47  71  96 122 153 193 238 282
#     4  10  19  31  46  64  87 121 161 199 237 273
#
# _framework density 16.996105
#
# number of rings (size 3 to 8) (size 9 to 14) (size 15 to 20)
#    0.000    2.000    0.000    5.000    0.000    2.667 
#    0.000    5.000    0.000    0.000    0.000    0.000 
#    0.000    2.667    0.000    0.000    0.000    0.000 
#
# Total GULP energy -594669.160524 kJ/mol
# GULP energy per Si atom -12388.940844 kJ/mol
# Density = 1.695742 g / cm^3
# Si number density = 16.996105 Si / 1000 Ang^3
#
#
#
# Elastic Constant Matrix: (Units=GPa)
#
#
# Indices 1 2 3 4 5 6 
#
# 1 75.3523 27.6168 4.3641 0.0000 0.0000 0.0000
# 2 27.6168 75.3534 4.3652 0.0000 0.0000 0.0000
# 3 4.3641 4.3652 68.7674 0.0000 0.0000 0.0000
# 4 0.0000 0.0000 0.0000 19.3226 0.0000 0.0000
# 5 0.0000 0.0000 0.0000 0.0000 19.3224 0.0000
# 6 0.0000 0.0000 0.0000 0.0000 0.0000 21.6248
#
#
#
# Elastic Compliance Matrix: (Units=1/GPa)
#
#
# Indices 1 2 3 4 5 6 
#
# 1 0.015356 -0.005592 -0.000620 0.000000 0.000000 0.000000
# 2 -0.005592 0.015356 -0.000620 0.000000 0.000000 0.000000
# 3 -0.000620 -0.000620 0.014620 0.000000 0.000000 0.000000
# 4 0.000000 0.000000 0.000000 0.051753 0.000000 0.000000
# 5 0.000000 0.000000 0.000000 0.000000 0.051754 0.000000
# 6 0.000000 0.000000 0.000000 0.000000 0.000000 0.046243
#
#
# Mechanical properties :
#
#
# Convention : Reuss Voigt Hill
#
# Bulk Modulus (GPa) = 31.57583 32.46281 32.01932
# Shear Modulus (GPa) = 22.79956 24.26242 23.53099
#
# Velocity S-wave (km/s) = 3.66657 3.78236 3.72491
# Velocity P-wave (km/s) = 6.04513 6.18196 6.11393
#
# Compressibility (1/GPa) = 0.03166980
#
# Stress axis : x y z
#
# Youngs Moduli (GPa) = 65.11927 65.12009 68.39742
#
# Poissons Ratio (x) = 0.36416 0.04238
# Poissons Ratio (y) = 0.36416 0.04240
# Poissons Ratio (z) = 0.04035 0.04037
#
# Static dielectric constant tensor:
#      x y z
#    x 2.996740 0.000000 0.000000 
#    y 0.000000 2.996740 0.000000 
#    z 0.000000 0.000000 3.516810 
# 
# 
# High freq. dielectric constant tensor:
#      x y z
#    x 1.624260 0.000000 0.000000 
#    y 0.000000 1.624260 0.000000 
#    z 0.000000 0.000000 1.687970 
# 
# From -- ./inp_files/625.got.cif
#   From: 2010.03.12/outbox.cif.g09.slc.cpg/sg96_1_cif.got.tgz:625.got - 2010.04.08 20:56:49.
