data_PCOD8305164
_publ_section_title
;
Structure prediction by ZEFSAII (Michael W. Deem and Ramdas Pophale) SiO2 
 PCOD8305164
Probable space group: P 41 2 2
;
_chemical_formula_sum "Si O2"
_cell_formula_units_Z 48
_cell_length_a 8.757225
_cell_length_b 8.757225
_cell_length_c 26.723394
_cell_angle_alpha 90.000000
_cell_angle_beta 90.000000
_cell_angle_gamma 90.000000
_cell_volume 2049.390087
_symmetry_space_group_name_H-M "P 41 2 2"
_symmetry_group_IT_number 91
_symmetry_cell_setting 'tetragonal'
loop_
_space_group_symop_operation_xyz
x,y,z
-y,x,1/4+z
-x,-y,1/2+z
y,-x,3/4+z
x,-y,1/2-z
-x,y,-z
y,x,3/4-z
-y,-x,1/4-z
loop_
_atom_site_type_symbol
_atom_site_label
_atom_site_fract_x
_atom_site_fract_y
_atom_site_fract_z
Si Si1 0.027460 0.800453 0.855035
Si Si2 0.025630 0.299900 0.144081
Si Si3 0.298895 0.473915 0.105184
Si Si4 0.414814 0.181984 0.253372
Si Si5 0.473129 0.201064 0.144044
Si Si6 0.083471 0.318046 0.253349
O O1 0.071738 0.659673 0.891027
O O2 0.022462 0.741684 0.798253
O O3 0.157126 0.931457 0.858917
O O4 0.866803 0.866803 0.875000
O O5 0.864941 0.366342 0.125185
O O6 0.014330 0.249355 0.201942
O O7 0.158230 0.429553 0.141227
O O8 0.365229 0.634772 0.125000
O O9 0.239556 0.478538 0.048429
O O10 0.430125 0.344529 0.109198
O O11 0.485344 0.249812 0.202050
O O12 0.249917 0.251949 0.262511
O O13 0.411080 0.000000 0.250000
O O14 0.082997 0.500000 0.250000
#
# Coordination Sequence:
#
# PCOD8305164 Si02
#       6
#     8   8   8   8   8   8
#     4  11  25  44  72 108 140 189 243 298 364 431
#     4  11  24  48  72 105 147 186 240 304 362 434
#     4  11  25  44  72 108 140 189 243 298 364 431
#     4  12  24  41  76 107 139 193 248 305 366 437
#     4  11  24  48  72 105 147 186 240 304 362 434
#     4  12  24  41  76 107 139 193 248 305 366 437
#
# _framework density 23.421603999999999
#
# number of rings (size 3 to 8) (size 9 to 14) (size 15 to 20)
#    0.000    0.667    6.667    2.000    0.000    0.667 
#    0.000   13.333    0.000    0.000    0.000    0.000 
#    0.000    0.000    0.000    0.000    0.000    0.000 
#
# Total GULP energy -595414.200837 kJ/mol
# GULP energy per Si atom -12404.462517 kJ/mol
# Density = 2.336830 g / cm^3
# Si number density = 23.421604 Si / 1000 Ang^3
#
#
#
# Elastic Constant Matrix: (Units=GPa)
#
#
# Indices 1 2 3 4 5 6 
#
# 1 57.0288 59.5191 54.8438 0.0000 0.0000 0.0000
# 2 59.5191 57.0280 54.8442 0.0000 0.0000 0.0000
# 3 54.8438 54.8442 199.2164 0.0000 0.0000 0.0000
# 4 0.0000 0.0000 0.0000 35.2903 0.0000 0.0000
# 5 0.0000 0.0000 0.0000 0.0000 35.2902 0.0000
# 6 0.0000 0.0000 0.0000 0.0000 0.0000 52.8335
#
#
#
# Elastic Compliance Matrix: (Units=1/GPa)
#
#
# Indices 1 2 3 4 5 6 
#
# 1 -0.194955 0.206538 -0.003189 0.000000 0.000000 0.000000
# 2 0.206538 -0.194960 -0.003187 0.000000 0.000000 0.000000
# 3 -0.003189 -0.003187 0.006775 0.000000 0.000000 0.000000
# 4 0.000000 0.000000 0.000000 0.028336 0.000000 0.000000
# 5 0.000000 0.000000 0.000000 0.000000 0.028336 0.000000
# 6 0.000000 0.000000 0.000000 0.000000 0.000000 0.018927
#
#
# Mechanical properties :
#
#
# Convention : Reuss Voigt Hill
#
# Bulk Modulus (GPa) = 58.19416 72.40971 65.30194
# Shear Modulus (GPa) = -7.12114 34.28722 13.58304
#
# Velocity S-wave (km/s) = -1.74557 3.83026 2.41080
# Velocity P-wave (km/s) = 4.56482 7.10944 5.97418
#
# Compressibility (1/GPa) = 0.01718385
#
# Stress axis : x y z
#
# Youngs Moduli (GPa) = -5.12939 -5.12927 147.60026
#
# Poissons Ratio (x) = 1.05939 0.47071
# Poissons Ratio (y) = 1.05941 0.47043
# Poissons Ratio (z) = -0.01636 -0.01635
#
# Static dielectric constant tensor:
#      x y z
#    x 4.187080 0.000000 0.000000 
#    y 0.000000 4.187090 0.000000 
#    z 0.000000 0.000000 4.376280 
# 
# 
# High freq. dielectric constant tensor:
#      x y z
#    x 1.924500 0.000000 0.000000 
#    y 0.000000 1.924500 0.000000 
#    z 0.000000 0.000000 1.934180 
# 
# From -- ./inp_files/7919.got.cif
#   From: 2010.03.12/outbox.cif.g09.slc.cpg/sg91_4_cif.got.tgz:7919.got - 2010.04.08 20:27:58.
