data_PCOD8305468
_publ_section_title
;
Structure prediction by ZEFSAII (Michael W. Deem and Ramdas Pophale) SiO2 
 PCOD8305468
Probable space group: P 41 21 2
;
_chemical_formula_sum "Si O2"
_cell_formula_units_Z 24
_cell_length_a 7.976191
_cell_length_b 7.976191
_cell_length_c 13.477013
_cell_angle_alpha 90.000000
_cell_angle_beta 90.000000
_cell_angle_gamma 90.000000
_cell_volume 857.402484
_symmetry_space_group_name_H-M "P 41 21 2"
_symmetry_group_IT_number 92
_symmetry_cell_setting 'tetragonal'
loop_
_space_group_symop_operation_xyz
x,y,z
1/2-y,1/2+x,1/4+z
-x,-y,1/2+z
1/2+y,1/2-x,3/4+z
1/2+x,1/2-y,3/4-z
1/2-x,1/2+y,1/4-z
y,x,-z
-y,-x,1/2-z
loop_
_atom_site_type_symbol
_atom_site_label
_atom_site_fract_x
_atom_site_fract_y
_atom_site_fract_z
Si Si1 0.793555 0.365798 0.344445
Si Si2 0.887077 0.009718 0.604524
Si Si3 0.127273 0.303708 0.239557
O O1 0.696705 0.303296 0.250000
O O2 0.690009 0.528659 0.382274
O O3 0.784685 0.234209 0.435977
O O4 0.986144 0.386273 0.310804
O O5 0.688963 0.060027 0.592047
O O6 0.927640 0.871180 0.688083
O O7 0.940520 0.940520 0.500000
#
# Coordination Sequence:
#
# PCOD8305468 Si02
#       3
#     8   8   8
#     4  11  23  47  77 105 147 200 256 312 379 453
#     4  11  27  47  73 112 152 203 262 316 381 450
#     4  12  26  48  76 111 153 199 255 320 383 459
#
# _framework density 27.991523999999998
#
# number of rings (size 3 to 8) (size 9 to 14) (size 15 to 20)
#    0.000    0.667    0.000    9.000    0.000   10.667 
#    0.000    6.667    0.000    0.000    0.000    0.000 
#    0.000    0.000    0.000    0.000    0.000    0.000 
#
# Total GULP energy -297347.731732 kJ/mol
# GULP energy per Si atom -12389.488822 kJ/mol
# Density = 2.792781 g / cm^3
# Si number density = 27.991524 Si / 1000 Ang^3
#
#
#
# Elastic Constant Matrix: (Units=GPa)
#
#
# Indices 1 2 3 4 5 6 
#
# 1 102.7984 59.9898 20.7089 0.0000 0.0000 0.0000
# 2 59.9898 102.7974 20.7095 0.0000 0.0000 0.0000
# 3 20.7089 20.7095 88.3496 0.0000 0.0000 0.0000
# 4 0.0000 0.0000 0.0000 28.5215 0.0000 0.0000
# 5 0.0000 0.0000 0.0000 0.0000 28.5205 0.0000
# 6 0.0000 0.0000 0.0000 0.0000 0.0000 48.1770
#
#
#
# Elastic Compliance Matrix: (Units=1/GPa)
#
#
# Indices 1 2 3 4 5 6 
#
# 1 0.014946 -0.008414 -0.001531 0.000000 0.000000 0.000000
# 2 -0.008414 0.014946 -0.001531 0.000000 0.000000 0.000000
# 3 -0.001531 -0.001531 0.012037 0.000000 0.000000 0.000000
# 4 0.000000 0.000000 0.000000 0.035061 0.000000 0.000000
# 5 0.000000 0.000000 0.000000 0.000000 0.035062 0.000000
# 6 0.000000 0.000000 0.000000 0.000000 0.000000 0.020757
#
#
# Mechanical properties :
#
#
# Convention : Reuss Voigt Hill
#
# Bulk Modulus (GPa) = 52.69621 55.19576 53.94598
# Shear Modulus (GPa) = 30.84749 33.87961 32.36355
#
# Velocity S-wave (km/s) = 3.32328 3.48279 3.40397
# Velocity P-wave (km/s) = 5.79588 5.99455 5.89605
#
# Compressibility (1/GPa) = 0.01897670
#
# Stress axis : x y z
#
# Youngs Moduli (GPa) = 66.90656 66.90563 83.08056
#
# Poissons Ratio (x) = 0.56293 0.12721
# Poissons Ratio (y) = 0.56294 0.12723
# Poissons Ratio (z) = 0.10244 0.10246
#
# Static dielectric constant tensor:
#      x y z
#    x 5.433840 0.000000 0.000000 
#    y 0.000000 5.433810 0.000000 
#    z 0.000000 0.000000 5.737450 
# 
# 
# High freq. dielectric constant tensor:
#      x y z
#    x 2.126790 0.000000 0.000000 
#    y 0.000000 2.126790 0.000000 
#    z 0.000000 0.000000 2.146260 
# 
# From -- ./inp_files/2406.got.cif
#   From: 2010.03.12/outbox.cif.g09.slc.cpg/sg92_2_cif.got.tgz:2406.got - 2010.04.08 20:41:11.
