data_PCOD8305414
_publ_section_title
;
Structure prediction by ZEFSAII (Michael W. Deem and Ramdas Pophale) SiO2 
 PCOD8305414
Probable space group: P 41 21 2
;
_chemical_formula_sum "Si O2"
_cell_formula_units_Z 24
_cell_length_a 7.026536
_cell_length_b 7.026536
_cell_length_c 17.603979
_cell_angle_alpha 90.000000
_cell_angle_beta 90.000000
_cell_angle_gamma 90.000000
_cell_volume 869.147316
_symmetry_space_group_name_H-M "P 41 21 2"
_symmetry_group_IT_number 92
_symmetry_cell_setting 'tetragonal'
loop_
_space_group_symop_operation_xyz
x,y,z
1/2-y,1/2+x,1/4+z
-x,-y,1/2+z
1/2+y,1/2-x,3/4+z
1/2+x,1/2-y,3/4-z
1/2-x,1/2+y,1/4-z
y,x,-z
-y,-x,1/2-z
loop_
_atom_site_type_symbol
_atom_site_label
_atom_site_fract_x
_atom_site_fract_y
_atom_site_fract_z
Si Si1 0.436326 0.967295 0.530088
Si Si2 0.724897 0.981726 0.406233
Si Si3 0.555975 0.660585 0.640997
O O1 0.641576 0.016968 0.490966
O O2 0.271414 0.962417 0.469251
O O3 0.438761 0.763844 0.573437
O O4 0.383843 0.130137 0.591817
O O5 0.650720 0.772385 0.385753
O O6 0.948147 0.021574 0.404341
#
# Coordination Sequence:
#
# PCOD8305414 Si02
#       3
#     8   8   8
#     4  10  23  44  74 115 152 213 256 313 412 446
#     4  11  22  41  79 111 159 206 261 326 386 470
#     4  11  22  41  79 111 159 206 261 326 386 470
#
# _framework density 27.613274000000001
#
# number of rings (size 3 to 8) (size 9 to 14) (size 15 to 20)
#    0.000    1.333    6.667    1.000    0.000    0.000 
#    0.000   13.333   14.667   12.000    0.000    0.000 
#    0.000    0.000    0.000    0.000    0.000    0.000 
#
# Total GULP energy -297766.940388 kJ/mol
# GULP energy per Si atom -12406.955850 kJ/mol
# Density = 2.755043 g / cm^3
# Si number density = 27.613274 Si / 1000 Ang^3
#
#
#
# Elastic Constant Matrix: (Units=GPa)
#
#
# Indices 1 2 3 4 5 6 
#
# 1 130.0834 31.1765 65.8475 0.0000 0.0000 0.0000
# 2 31.1765 130.0834 65.8475 0.0000 0.0000 0.0000
# 3 65.8475 65.8475 203.9700 0.0000 0.0000 0.0000
# 4 0.0000 0.0000 0.0000 33.0871 0.0000 0.0000
# 5 0.0000 0.0000 0.0000 0.0000 33.0871 0.0000
# 6 0.0000 0.0000 0.0000 0.0000 0.0000 34.7924
#
#
#
# Elastic Compliance Matrix: (Units=1/GPa)
#
#
# Indices 1 2 3 4 5 6 
#
# 1 0.009266 -0.000845 -0.002719 0.000000 0.000000 0.000000
# 2 -0.000845 0.009266 -0.002719 0.000000 0.000000 0.000000
# 3 -0.002719 -0.002719 0.006658 0.000000 0.000000 0.000000
# 4 0.000000 0.000000 0.000000 0.030223 0.000000 0.000000
# 5 0.000000 0.000000 0.000000 0.000000 0.030223 0.000000
# 6 0.000000 0.000000 0.000000 0.000000 0.000000 0.028742
#
#
# Mechanical properties :
#
#
# Convention : Reuss Voigt Hill
#
# Bulk Modulus (GPa) = 79.20083 87.76445 83.48264
# Shear Modulus (GPa) = 38.12400 40.27766 39.20083
#
# Velocity S-wave (km/s) = 3.71973 3.82335 3.77189
# Velocity P-wave (km/s) = 6.86971 7.16541 7.01912
#
# Compressibility (1/GPa) = 0.01262613
#
# Stress axis : x y z
#
# Youngs Moduli (GPa) = 107.92182 107.92182 150.19477
#
# Poissons Ratio (x) = 0.09115 0.40833
# Poissons Ratio (y) = 0.09115 0.40833
# Poissons Ratio (z) = 0.29341 0.29341
#
# Static dielectric constant tensor:
#      x y z
#    x 5.126510 0.000000 0.000000 
#    y 0.000000 5.126510 0.000000 
#    z 0.000000 0.000000 5.591720 
# 
# 
# High freq. dielectric constant tensor:
#      x y z
#    x 2.118030 0.000000 0.000000 
#    y 0.000000 2.118030 0.000000 
#    z 0.000000 0.000000 2.145160 
# 
# From -- ./inp_files/2445.got.cif
#   From: 2010.03.12/outbox.cif.g09.slc.cpg/sg92_2_cif.got.tgz:2445.got - 2010.04.08 20:41:11.
