data_PCOD8305747
_publ_section_title
;
Structure prediction by ZEFSAII (Michael W. Deem and Ramdas Pophale) SiO2 
 PCOD8305747
Probable space group: P 42 21 2
;
_chemical_formula_sum "Si O2"
_cell_formula_units_Z 28
_cell_length_a 8.304527
_cell_length_b 8.304527
_cell_length_c 16.905812
_cell_angle_alpha 90.000000
_cell_angle_beta 90.000000
_cell_angle_gamma 90.000000
_cell_volume 1165.912176
_symmetry_space_group_name_H-M "P 42 21 2"
_symmetry_group_IT_number 94
_symmetry_cell_setting 'tetragonal'
loop_
_space_group_symop_operation_xyz
x,y,z
1/2-y,1/2+x,1/2+z
-x,-y,z
1/2+y,1/2-x,1/2+z
1/2+x,1/2-y,1/2-z
1/2-x,1/2+y,1/2-z
y,x,-z
-y,-x,-z
loop_
_atom_site_type_symbol
_atom_site_label
_atom_site_fract_x
_atom_site_fract_y
_atom_site_fract_z
Si Si1 0.323099 0.924444 0.189138
Si Si2 0.730872 0.460993 0.946212
Si Si3 0.500000 0.000000 0.432642
Si Si4 0.721941 0.236193 0.349604
O O1 0.341506 0.778941 0.126090
O O2 0.238553 0.845999 0.265342
O O3 0.500000 0.000000 0.205889
O O4 0.207101 0.069958 0.159283
O O5 0.697258 0.638937 0.912810
O O6 0.577549 0.422452 0.000000
O O7 0.869020 0.433075 0.009074
O O8 0.558387 0.152940 0.380312
#
# Coordination Sequence:
#
# PCOD8305747 Si02
#       4
#     8   8   4   8
#     4  10  23  48  71 108 150 190 253 309 379 455
#     4  11  26  47  74 110 142 192 247 310 376 442
#     4  12  24  46  72  98 152 186 242 308 364 436
#     4  11  24  47  75 103 147 200 242 311 375 454
#
# _framework density 24.015532
#
# number of rings (size 3 to 8) (size 9 to 14) (size 15 to 20)
#    0.000    1.143    5.714    0.857    4.000    2.286 
#    5.143    8.571    0.000    0.000    0.000    0.000 
#    0.000    0.000    0.000    0.000    0.000    0.000 
#
# Total GULP energy -346921.428895 kJ/mol
# GULP energy per Si atom -12390.051032 kJ/mol
# Density = 2.396087 g / cm^3
# Si number density = 24.015532 Si / 1000 Ang^3
#
#
#
# Elastic Constant Matrix: (Units=GPa)
#
#
# Indices 1 2 3 4 5 6 
#
# 1 84.0198 58.6295 55.1543 0.0000 0.0000 0.0000
# 2 58.6295 84.0174 55.1539 0.0000 0.0000 0.0000
# 3 55.1543 55.1539 154.0891 0.0000 0.0000 0.0000
# 4 0.0000 0.0000 0.0000 53.5540 0.0000 0.0000
# 5 0.0000 0.0000 0.0000 0.0000 53.5542 0.0000
# 6 0.0000 0.0000 0.0000 0.0000 0.0000 51.4215
#
#
#
# Elastic Compliance Matrix: (Units=1/GPa)
#
#
# Indices 1 2 3 4 5 6 
#
# 1 0.024540 -0.014847 -0.003469 0.000000 0.000000 0.000000
# 2 -0.014847 0.024540 -0.003470 0.000000 0.000000 0.000000
# 3 -0.003469 -0.003470 0.008974 0.000000 0.000000 0.000000
# 4 0.000000 0.000000 0.000000 0.018673 0.000000 0.000000
# 5 0.000000 0.000000 0.000000 0.000000 0.018673 0.000000
# 6 0.000000 0.000000 0.000000 0.000000 0.000000 0.019447
#
#
# Mechanical properties :
#
#
# Convention : Reuss Voigt Hill
#
# Bulk Modulus (GPa) = 69.05248 73.33351 71.19299
# Shear Modulus (GPa) = 30.62874 41.91851 36.27362
#
# Velocity S-wave (km/s) = 3.57511 4.18242 3.89063
# Velocity P-wave (km/s) = 6.77182 7.34341 7.06340
#
# Compressibility (1/GPa) = 0.01448174
#
# Stress axis : x y z
#
# Youngs Moduli (GPa) = 40.75032 40.74902 111.43901
#
# Poissons Ratio (x) = 0.60499 0.38663
# Poissons Ratio (y) = 0.60501 0.38665
# Poissons Ratio (z) = 0.14138 0.14138
#
# Static dielectric constant tensor:
#      x y z
#    x 3.729490 0.000000 0.000000 
#    y 0.000000 3.729450 0.000000 
#    z 0.000000 0.000000 4.765560 
# 
# 
# High freq. dielectric constant tensor:
#      x y z
#    x 1.946250 0.000000 0.000000 
#    y 0.000000 1.946250 0.000000 
#    z 0.000000 0.000000 1.978090 
# 
# From -- ./inp_files/3822.got.cif
#   From: 2010.03.12/outbox.cif.g09.slc.cpg/sg94_2_cif.got.tgz:3822.got - 2010.04.08 20:48:32.
