data_PCOD8305219
_publ_section_title
;
Structure prediction by ZEFSAII (Michael W. Deem and Ramdas Pophale) SiO2 
 PCOD8305219
Probable space group: P 41 21 2
;
_chemical_formula_sum "Si O2"
_cell_formula_units_Z 44
_cell_length_a 8.664635
_cell_length_b 8.664635
_cell_length_c 27.949573
_cell_angle_alpha 90.000000
_cell_angle_beta 90.000000
_cell_angle_gamma 90.000000
_cell_volume 2098.339339
_symmetry_space_group_name_H-M "P 41 21 2"
_symmetry_group_IT_number 92
_symmetry_cell_setting 'tetragonal'
loop_
_space_group_symop_operation_xyz
x,y,z
1/2-y,1/2+x,1/4+z
-x,-y,1/2+z
1/2+y,1/2-x,3/4+z
1/2+x,1/2-y,3/4-z
1/2-x,1/2+y,1/4-z
y,x,-z
-y,-x,1/2-z
loop_
_atom_site_type_symbol
_atom_site_label
_atom_site_fract_x
_atom_site_fract_y
_atom_site_fract_z
Si Si1 0.985852 0.540274 0.731235
Si Si2 0.717595 0.282406 0.250000
Si Si3 0.585703 0.999358 0.667170
Si Si4 0.672129 0.745899 0.339513
Si Si5 0.084436 0.082071 0.594250
Si Si6 0.152785 0.364002 0.650368
O O1 0.103326 0.683460 0.738923
O O2 0.941438 0.450793 0.779634
O O3 0.061642 0.407603 0.698412
O O4 0.834403 0.614316 0.707768
O O5 0.672690 0.384772 0.295258
O O6 0.700655 0.851260 0.665880
O O7 0.423958 0.952532 0.643942
O O8 0.654685 0.143541 0.637525
O O9 0.560883 0.598147 0.346528
O O10 0.146087 0.181756 0.639869
O O11 0.168734 0.916828 0.595731
#
# Coordination Sequence:
#
# PCOD8305219 Si02
#       6
#     8   4   8   8   8   8
#     4  10  20  38  64  87 122 164 203 258 309 371
#     4  10  18  38  62  82 122 160 206 250 296 372
#     4  10  21  43  56  91 131 158 210 262 309 382
#     4  10  22  40  64  89 127 162 200 267 318 360
#     4  10  20  39  59  92 118 160 206 251 301 374
#     4   9  20  36  62  85 122 159 206 252 299 370
#
# _framework density 20.968962000000001
#
# number of rings (size 3 to 8) (size 9 to 14) (size 15 to 20)
#    0.000    2.182    3.636    0.000    0.000    5.818 
#    3.273    7.273    0.000    0.000    0.000    0.000 
#    0.000    0.000    0.000    0.000    0.000    0.000 
#
# Total GULP energy -545473.567184 kJ/mol
# GULP energy per Si atom -12397.126527 kJ/mol
# Density = 2.092124 g / cm^3
# Si number density = 20.968962 Si / 1000 Ang^3
#
#
#
# Elastic Constant Matrix: (Units=GPa)
#
#
# Indices 1 2 3 4 5 6 
#
# 1 61.8393 23.1581 31.8558 0.0000 0.0000 0.0000
# 2 23.1581 61.8385 31.8558 0.0000 0.0000 0.0000
# 3 31.8558 31.8558 138.8659 0.0000 0.0000 0.0000
# 4 0.0000 0.0000 0.0000 28.2838 0.0000 0.0000
# 5 0.0000 0.0000 0.0000 0.0000 28.2839 0.0000
# 6 0.0000 0.0000 0.0000 0.0000 0.0000 27.3793
#
#
#
# Elastic Compliance Matrix: (Units=1/GPa)
#
#
# Indices 1 2 3 4 5 6 
#
# 1 0.020030 -0.005822 -0.003259 0.000000 0.000000 0.000000
# 2 -0.005822 0.020031 -0.003259 0.000000 0.000000 0.000000
# 3 -0.003259 -0.003259 0.008697 0.000000 0.000000 0.000000
# 4 0.000000 0.000000 0.000000 0.035356 0.000000 0.000000
# 5 0.000000 0.000000 0.000000 0.000000 0.035356 0.000000
# 6 0.000000 0.000000 0.000000 0.000000 0.000000 0.036524
#
#
# Mechanical properties :
#
#
# Convention : Reuss Voigt Hill
#
# Bulk Modulus (GPa) = 41.53577 48.47590 45.00583
# Shear Modulus (GPa) = 26.49705 28.50098 27.49901
#
# Velocity S-wave (km/s) = 3.55862 3.69073 3.62528
# Velocity P-wave (km/s) = 6.06104 6.42885 6.24765
#
# Compressibility (1/GPa) = 0.02407564
#
# Stress axis : x y z
#
# Youngs Moduli (GPa) = 49.92435 49.92370 114.98753
#
# Poissons Ratio (x) = 0.29066 0.37478
# Poissons Ratio (y) = 0.29067 0.37479
# Poissons Ratio (z) = 0.16272 0.16272
#
# Static dielectric constant tensor:
#      x y z
#    x 3.744120 0.000000 0.000000 
#    y 0.000000 3.744120 0.000000 
#    z 0.000000 0.000000 4.001710 
# 
# 
# High freq. dielectric constant tensor:
#      x y z
#    x 1.809290 0.000000 0.000000 
#    y 0.000000 1.809290 0.000000 
#    z 0.000000 0.000000 1.829900 
# 
# From -- ./inp_files/4394.got.cif
#   From: 2010.03.12/outbox.cif.g09.slc.cpg/sg92_3_cif.got.tgz:4394.got - 2010.04.08 20:41:11.
