data_PCOD8305295
_publ_section_title
;
Structure prediction by ZEFSAII (Michael W. Deem and Ramdas Pophale) SiO2 
 PCOD8305295
Probable space group: P 41 21 2
;
_chemical_formula_sum "Si O2"
_cell_formula_units_Z 60
_cell_length_a 18.151663
_cell_length_b 18.151663
_cell_length_c 9.127973
_cell_angle_alpha 90.000000
_cell_angle_beta 90.000000
_cell_angle_gamma 90.000000
_cell_volume 3007.510738
_symmetry_space_group_name_H-M "P 41 21 2"
_symmetry_group_IT_number 92
_symmetry_cell_setting 'tetragonal'
loop_
_space_group_symop_operation_xyz
x,y,z
1/2-y,1/2+x,1/4+z
-x,-y,1/2+z
1/2+y,1/2-x,3/4+z
1/2+x,1/2-y,3/4-z
1/2-x,1/2+y,1/4-z
y,x,-z
-y,-x,1/2-z
loop_
_atom_site_type_symbol
_atom_site_label
_atom_site_fract_x
_atom_site_fract_y
_atom_site_fract_z
Si Si1 0.260901 0.967565 0.279267
Si Si2 0.341319 0.341319 0.500000
Si Si3 0.267335 0.169093 0.686686
Si Si4 0.431543 0.965663 0.212672
Si Si5 0.237141 0.630769 0.900542
Si Si6 0.977185 0.681783 0.688426
Si Si7 0.902114 0.292620 0.421500
Si Si8 0.590289 0.730199 0.238059
O O1 0.344151 0.963329 0.223151
O O2 0.250213 0.925224 0.431840
O O3 0.210328 0.925495 0.157754
O O4 0.233900 0.051205 0.299446
O O5 0.260587 0.351365 0.571095
O O6 0.401787 0.343600 0.632918
O O7 0.191143 0.209926 0.725225
O O8 0.264658 0.137509 0.523621
O O9 0.334241 0.224925 0.715537
O O10 0.274447 0.098770 0.791263
O O11 0.461419 0.960246 0.378702
O O12 0.460526 0.900638 0.109001
O O13 0.152532 0.639519 0.958379
O O14 0.025479 0.679385 0.837125
O O15 0.020432 0.722053 0.559625
#
# Coordination Sequence:
#
# PCOD8305295 Si02
#       8
#     8   4   8   8   8   8   8   8
#     4  12  25  37  55  94 130 155 202 276 312 368
#     4  10  20  42  64  86 106 174 210 254 296 386
#     4  11  19  40  64  83 122 171 212 260 309 377
#     4  12  26  37  52  82 129 179 212 249 303 376
#     4  11  22  38  60  93 123 163 217 257 311 381
#     4  11  21  38  59  85 118 170 213 255 307 384
#     4  11  22  37  64  86 124 164 214 253 316 372
#     4  11  21  41  60  88 126 158 222 256 307 371
#
# _framework density 19.950051999999999
#
# number of rings (size 3 to 8) (size 9 to 14) (size 15 to 20)
#    0.000    0.800    8.000    0.800    3.733    0.533 
#    0.000    2.000    0.000    0.000    0.000   14.933 
#    0.000    0.000    0.000    0.000    0.000    0.000 
#
# Total GULP energy -743740.039588 kJ/mol
# GULP energy per Si atom -12395.667326 kJ/mol
# Density = 1.990465 g / cm^3
# Si number density = 19.950052 Si / 1000 Ang^3
#
#
#
# Elastic Constant Matrix: (Units=GPa)
#
#
# Indices 1 2 3 4 5 6 
#
# 1 67.1803 30.5520 26.0812 0.0000 0.0000 0.0000
# 2 30.5520 67.1803 26.0812 0.0000 0.0000 0.0000
# 3 26.0812 26.0812 99.5628 0.0000 0.0000 0.0000
# 4 0.0000 0.0000 0.0000 25.7799 0.0000 0.0000
# 5 0.0000 0.0000 0.0000 0.0000 25.7799 0.0000
# 6 0.0000 0.0000 0.0000 0.0000 0.0000 23.3933
#
#
#
# Elastic Compliance Matrix: (Units=1/GPa)
#
#
# Indices 1 2 3 4 5 6 
#
# 1 0.019598 -0.007703 -0.003116 0.000000 0.000000 0.000000
# 2 -0.007703 0.019598 -0.003116 0.000000 0.000000 0.000000
# 3 -0.003116 -0.003116 0.011676 0.000000 0.000000 0.000000
# 4 0.000000 0.000000 0.000000 0.038790 0.000000 0.000000
# 5 0.000000 0.000000 0.000000 0.000000 0.038790 0.000000
# 6 0.000000 0.000000 0.000000 0.000000 0.000000 0.042747
#
#
# Mechanical properties :
#
#
# Convention : Reuss Voigt Hill
#
# Bulk Modulus (GPa) = 43.47327 44.37247 43.92287
# Shear Modulus (GPa) = 24.18522 25.07120 24.62821
#
# Velocity S-wave (km/s) = 3.48557 3.54884 3.51735
# Velocity P-wave (km/s) = 6.16744 6.25159 6.20966
#
# Compressibility (1/GPa) = 0.02300264
#
# Stress axis : x y z
#
# Youngs Moduli (GPa) = 51.02510 51.02510 85.64252
#
# Poissons Ratio (x) = 0.39305 0.26686
# Poissons Ratio (y) = 0.39305 0.26686
# Poissons Ratio (z) = 0.15900 0.15900
#
# Static dielectric constant tensor:
#      x y z
#    x 3.565270 0.000000 0.000000 
#    y 0.000000 3.565270 0.000000 
#    z 0.000000 0.000000 3.891030 
# 
# 
# High freq. dielectric constant tensor:
#      x y z
#    x 1.756260 0.000000 0.000000 
#    y 0.000000 1.756260 0.000000 
#    z 0.000000 0.000000 1.791630 
# 
# From -- ./inp_files/1650.got.cif
#   From: 2010.03.12/outbox.cif.g09.slc.cpg/sg92_1_cif.got.tgz:1650.got - 2010.04.08 20:41:11.
