data_PCOD8305355
_publ_section_title
;
Structure prediction by ZEFSAII (Michael W. Deem and Ramdas Pophale) SiO2 
 PCOD8305355
Probable space group: P 41 21 2
;
_chemical_formula_sum "Si O2"
_cell_formula_units_Z 36
_cell_length_a 13.635613
_cell_length_b 13.635613
_cell_length_c 9.906885
_cell_angle_alpha 90.000000
_cell_angle_beta 90.000000
_cell_angle_gamma 90.000000
_cell_volume 1841.986552
_symmetry_space_group_name_H-M "P 41 21 2"
_symmetry_group_IT_number 92
_symmetry_cell_setting 'tetragonal'
loop_
_space_group_symop_operation_xyz
x,y,z
1/2-y,1/2+x,1/4+z
-x,-y,1/2+z
1/2+y,1/2-x,3/4+z
1/2+x,1/2-y,3/4-z
1/2-x,1/2+y,1/4-z
y,x,-z
-y,-x,1/2-z
loop_
_atom_site_type_symbol
_atom_site_label
_atom_site_fract_x
_atom_site_fract_y
_atom_site_fract_z
Si Si1 0.994737 0.402760 0.843742
Si Si2 0.304786 0.176728 0.298286
Si Si3 0.923222 0.146829 0.388002
Si Si4 0.644654 0.719241 0.363427
Si Si5 0.364719 0.635282 0.750000
O O1 0.092810 0.357125 0.785046
O O2 0.953768 0.482580 0.737299
O O3 0.917888 0.316287 0.867521
O O4 0.388702 0.239394 0.376816
O O5 0.248350 0.248203 0.192869
O O6 0.229191 0.132340 0.403750
O O7 0.909700 0.090301 0.250000
O O8 0.037686 0.140511 0.413830
O O9 0.095812 0.857557 0.493365
O O10 0.657819 0.657819 0.500000
#
# Coordination Sequence:
#
# PCOD8305355 Si02
#       5
#     8   8   8   8   4
#     4  12  25  42  71 104 135 185 233 281 342 412
#     4  10  22  44  66  97 142 173 223 288 339 391
#     4  10  24  44  64 100 138 177 225 282 338 411
#     4  10  21  45  65  92 143 176 217 289 342 394
#     4  12  22  40  78  96 130 194 222 276 352 412
#
# _framework density 19.544115999999999
#
# number of rings (size 3 to 8) (size 9 to 14) (size 15 to 20)
#    1.333    0.000    3.333    2.667    0.000    9.778 
#    0.000    0.000    0.000    0.000    0.000    0.000 
#    0.000    0.000    0.000    0.000    0.000    0.000 
#
# Total GULP energy -446240.560360 kJ/mol
# GULP energy per Si atom -12395.571121 kJ/mol
# Density = 1.949963 g / cm^3
# Si number density = 19.544116 Si / 1000 Ang^3
#
#
#
# Elastic Constant Matrix: (Units=GPa)
#
#
# Indices 1 2 3 4 5 6 
#
# 1 72.3866 81.1067 36.7974 0.0000 0.0000 0.0000
# 2 81.1067 72.4045 36.8045 0.0000 0.0000 0.0000
# 3 36.7974 36.8045 116.5864 0.0000 0.0000 0.0000
# 4 0.0000 0.0000 0.0000 24.9548 0.0000 0.0000
# 5 0.0000 0.0000 0.0000 0.0000 24.9577 0.0000
# 6 0.0000 0.0000 0.0000 0.0000 0.0000 20.6334
#
#
#
# Elastic Compliance Matrix: (Units=1/GPa)
#
#
# Indices 1 2 3 4 5 6 
#
# 1 -0.053565 0.061236 -0.002425 0.000000 0.000000 0.000000
# 2 0.061236 -0.053553 -0.002421 0.000000 0.000000 0.000000
# 3 -0.002425 -0.002421 0.010107 0.000000 0.000000 0.000000
# 4 0.000000 0.000000 0.000000 0.040072 0.000000 0.000000
# 5 0.000000 0.000000 0.000000 0.000000 0.040068 0.000000
# 6 0.000000 0.000000 0.000000 0.000000 0.000000 0.048465
#
#
# Mechanical properties :
#
#
# Convention : Reuss Voigt Hill
#
# Bulk Modulus (GPa) = 63.42164 63.42165 63.42164
# Shear Modulus (GPa) = -65.85096 21.22043 -22.31527
#
# Velocity S-wave (km/s) = -5.81091 3.29868 -3.38270
# Velocity P-wave (km/s) = 3.53571 6.85779 4.15500
#
# Compressibility (1/GPa) = 0.01576749
#
# Stress axis : x y z
#
# Youngs Moduli (GPa) = -18.66885 -18.67298 98.94097
#
# Poissons Ratio (x) = 1.14345 0.23990
# Poissons Ratio (y) = 1.14320 0.23958
# Poissons Ratio (z) = -0.04527 -0.04522
#
# Static dielectric constant tensor:
#      x y z
#    x 3.530280 0.000000 0.000000 
#    y 0.000000 3.530280 0.000000 
#    z 0.000000 0.000000 3.739170 
# 
# 
# High freq. dielectric constant tensor:
#      x y z
#    x 1.757290 0.000000 0.000000 
#    y 0.000000 1.757290 0.000000 
#    z 0.000000 0.000000 1.773370 
# 
# From -- ./inp_files/2026.got.cif
#   From: 2010.03.12/outbox.cif.g09.slc.cpg/sg92_2_cif.got.tgz:2026.got - 2010.04.08 20:41:11.
