data_PCOD8305857
_publ_section_title
;
Structure prediction by ZEFSAII (Michael W. Deem and Ramdas Pophale) SiO2 
 PCOD8305857
Probable space group: P 43 2 2
;
_chemical_formula_sum "Si O2"
_cell_formula_units_Z 40
_cell_length_a 14.781925
_cell_length_b 14.781925
_cell_length_c 9.065200
_cell_angle_alpha 90.000000
_cell_angle_beta 90.000000
_cell_angle_gamma 90.000000
_cell_volume 1980.794306
_symmetry_space_group_name_H-M "P 43 2 2"
_symmetry_group_IT_number 95
_symmetry_cell_setting 'tetragonal'
loop_
_space_group_symop_operation_xyz
x,y,z
-y,x,3/4+z
-x,-y,1/2+z
y,-x,1/4+z
x,-y,1/2-z
-x,y,-z
y,x,1/4-z
-y,-x,3/4-z
loop_
_atom_site_type_symbol
_atom_site_label
_atom_site_fract_x
_atom_site_fract_y
_atom_site_fract_z
Si Si1 0.427487 0.427487 0.625000
Si Si2 0.467030 0.223139 0.665997
Si Si3 0.722435 0.135030 0.322348
Si Si4 0.742315 0.953242 0.484392
Si Si5 0.438338 0.915586 0.358064
Si Si6 0.067690 0.067690 0.125000
O O1 0.500000 0.445594 0.500000
O O2 0.442502 0.328073 0.696611
O O3 0.500000 0.211657 0.500000
O O4 0.380200 0.163190 0.697431
O O5 0.542194 0.180842 0.776490
O O6 0.780851 0.219150 0.375000
O O7 0.758712 0.102933 0.164563
O O8 0.723464 0.057267 0.445111
O O9 0.664269 0.911884 0.586563
O O10 0.829827 0.948397 0.583016
O O11 0.500000 0.929547 0.500000
O O12 0.456457 0.000000 0.250000
O O13 0.037960 0.000000 0.250000
#
# Coordination Sequence:
#
# PCOD8305857 Si02
#       6
#     4   8   8   8   8   4
#     4  10  24  48  68  96 132 178 228 276 336 416
#     4  11  23  42  69  98 134 179 222 278 349 414
#     4  11  22  42  68  96 133 178 226 280 344 424
#     4  11  25  42  65  98 136 173 229 285 344 406
#     4  12  23  40  65 101 139 171 220 285 351 410
#     4  12  28  46  66  96 132 186 236 278 338 406
#
# _framework density 20.193919999999999
#
# number of rings (size 3 to 8) (size 9 to 14) (size 15 to 20)
#    0.000    0.800    3.000    4.800    4.200    2.400 
#    0.000    0.000    0.000    0.000    0.000    0.000 
#    0.000    0.000    0.000    0.000    0.000    0.000 
#
# Total GULP energy -496160.727494 kJ/mol
# GULP energy per Si atom -12404.018187 kJ/mol
# Density = 2.014796 g / cm^3
# Si number density = 20.193920 Si / 1000 Ang^3
#
#
#
# Elastic Constant Matrix: (Units=GPa)
#
#
# Indices 1 2 3 4 5 6 
#
# 1 129.7561 34.6986 51.2641 0.0000 0.0000 0.0000
# 2 34.6986 129.7515 51.2617 0.0000 0.0000 0.0000
# 3 51.2641 51.2617 114.2127 0.0000 0.0000 0.0000
# 4 0.0000 0.0000 0.0000 459.0103 0.0000 0.0000
# 5 0.0000 0.0000 0.0000 0.0000 459.9331 0.0000
# 6 0.0000 0.0000 0.0000 0.0000 0.0000 24.3615
#
#
#
# Elastic Compliance Matrix: (Units=1/GPa)
#
#
# Indices 1 2 3 4 5 6 
#
# 1 0.009482 -0.001038 -0.003790 0.000000 0.000000 0.000000
# 2 -0.001038 0.009482 -0.003790 0.000000 0.000000 0.000000
# 3 -0.003790 -0.003790 0.012158 0.000000 0.000000 0.000000
# 4 0.000000 0.000000 0.000000 0.002179 0.000000 0.000000
# 5 0.000000 0.000000 0.000000 0.000000 0.002174 0.000000
# 6 0.000000 0.000000 0.000000 0.000000 0.000000 0.041048
#
#
# Mechanical properties :
#
#
# Convention : Reuss Voigt Hill
#
# Bulk Modulus (GPa) = 72.01755 72.01879 72.01817
# Shear Modulus (GPa) = 50.81996 204.42738 127.62367
#
# Velocity S-wave (km/s) = 5.02201 10.07233 7.95841
# Velocity P-wave (km/s) = 8.32874 13.07709 10.96308
#
# Compressibility (1/GPa) = 0.01388550
#
# Stress axis : x y z
#
# Youngs Moduli (GPa) = 105.46609 105.46372 82.25346
#
# Poissons Ratio (x) = 0.10951 0.31172
# Poissons Ratio (y) = 0.10951 0.31171
# Poissons Ratio (z) = 0.39970 0.39967
#
# Static dielectric constant tensor:
#      x y z
#    x 2.006820 0.000000 0.000000 
#    y 0.000000 2.002560 0.000000 
#    z 0.000000 0.000000 3.807830 
# 
# 
# High freq. dielectric constant tensor:
#      x y z
#    x 1.797930 0.000000 0.000000 
#    y 0.000000 1.797930 0.000000 
#    z 0.000000 0.000000 1.799450 
# 
# From -- ./inp_files/2425.got.cif
#   From: 2010.03.12/outbox.cif.g09.slc.cpg/sg95_2_cif.got.tgz:2425.got - 2010.04.08 20:51:55.
