data_PCOD8305553
_publ_section_title
;
Structure prediction by ZEFSAII (Michael W. Deem and Ramdas Pophale) SiO2 
 PCOD8305553
Probable space group: P 42 2 2
;
_chemical_formula_sum "Si O2"
_cell_formula_units_Z 40
_cell_length_a 14.201828
_cell_length_b 14.201828
_cell_length_c 9.304626
_cell_angle_alpha 90.000000
_cell_angle_beta 90.000000
_cell_angle_gamma 90.000000
_cell_volume 1876.667869
_symmetry_space_group_name_H-M "P 42 2 2"
_symmetry_group_IT_number 93
_symmetry_cell_setting 'tetragonal'
loop_
_space_group_symop_operation_xyz
x,y,z
-y,x,1/2+z
-x,-y,z
y,-x,1/2+z
x,-y,-z
-x,y,-z
y,x,1/2-z
-y,-x,1/2-z
loop_
_atom_site_type_symbol
_atom_site_label
_atom_site_fract_x
_atom_site_fract_y
_atom_site_fract_z
Si Si1 0.886725 0.396401 0.798052
Si Si2 0.280199 0.797904 0.449588
Si Si3 0.222164 0.398443 0.481161
Si Si4 0.394291 0.095487 0.762882
Si Si5 0.095211 0.096200 0.577485
O O1 0.806972 0.374685 0.680807
O O2 0.893456 0.508282 0.824830
O O3 0.988840 0.356904 0.748788
O O4 0.856948 0.343740 0.941136
O O5 0.291527 0.685469 0.468859
O O6 0.316601 0.830487 0.294015
O O7 0.170586 0.823897 0.461618
O O8 0.275121 0.500000 0.500000
O O9 0.125099 0.408491 0.572108
O O10 0.082136 0.082136 0.750000
O O11 0.000000 0.130618 0.500000
O O12 0.127936 0.000000 0.500000
#
# Coordination Sequence:
#
# PCOD8305553 Si02
#       5
#     8   8   8   8   8
#     4  10  21  37  61  88 115 145 187 240 294 346
#     4  12  23  36  58  86 115 149 189 236 291 349
#     4  10  22  38  56  81 115 155 195 235 284 341
#     4  10  20  38  61  87 115 146 186 240 295 344
#     4  11  24  40  57  81 117 160 200 238 282 345
#
# _framework density 21.314373
#
# number of rings (size 3 to 8) (size 9 to 14) (size 15 to 20)
#    0.000    1.400    0.000    6.600    0.000   10.400 
#    0.000    0.000    0.000    2.400    0.000   11.200 
#    0.000    0.000    0.000    0.000    0.000    0.000 
#
# Total GULP energy -495980.759460 kJ/mol
# GULP energy per Si atom -12399.518987 kJ/mol
# Density = 2.126586 g / cm^3
# Si number density = 21.314373 Si / 1000 Ang^3
#
#
#
# Elastic Constant Matrix: (Units=GPa)
#
#
# Indices 1 2 3 4 5 6 
#
# 1 86.0716 29.8286 4.6273 0.0000 0.0000 0.0000
# 2 29.8286 86.0716 4.6273 0.0000 0.0000 0.0000
# 3 4.6273 4.6273 77.8557 0.0000 0.0000 0.0000
# 4 0.0000 0.0000 0.0000 24.9571 0.0000 0.0000
# 5 0.0000 0.0000 0.0000 0.0000 24.9571 0.0000
# 6 0.0000 0.0000 0.0000 0.0000 0.0000 27.0450
#
#
#
# Elastic Compliance Matrix: (Units=1/GPa)
#
#
# Indices 1 2 3 4 5 6 
#
# 1 0.013225 -0.004555 -0.000515 0.000000 0.000000 0.000000
# 2 -0.004555 0.013225 -0.000515 0.000000 0.000000 0.000000
# 3 -0.000515 -0.000515 0.012906 0.000000 0.000000 0.000000
# 4 0.000000 0.000000 0.000000 0.040069 0.000000 0.000000
# 5 0.000000 0.000000 0.000000 0.000000 0.040069 0.000000
# 6 0.000000 0.000000 0.000000 0.000000 0.000000 0.036975
#
#
# Mechanical properties :
#
#
# Convention : Reuss Voigt Hill
#
# Bulk Modulus (GPa) = 35.48233 36.46279 35.97256
# Shear Modulus (GPa) = 28.24319 29.45289 28.84804
#
# Velocity S-wave (km/s) = 3.64411 3.72133 3.68292
# Velocity P-wave (km/s) = 5.86424 5.96730 5.91600
#
# Compressibility (1/GPa) = 0.02818304
#
# Stress axis : x y z
#
# Youngs Moduli (GPa) = 75.61652 75.61652 77.48622
#
# Poissons Ratio (x) = 0.34446 0.03992
# Poissons Ratio (y) = 0.34446 0.03992
# Poissons Ratio (z) = 0.03896 0.03896
#
# Static dielectric constant tensor:
#      x y z
#    x 3.747730 0.000000 0.000000 
#    y 0.000000 3.747730 0.000000 
#    z 0.000000 0.000000 3.860310 
# 
# 
# High freq. dielectric constant tensor:
#      x y z
#    x 1.823450 0.000000 0.000000 
#    y 0.000000 1.823450 0.000000 
#    z 0.000000 0.000000 1.850920 
# 
# From -- ./inp_files/1809.got.cif
#   From: 2010.03.12/outbox.cif.g09.slc.cpg/sg93_1_cif.got.tgz:1809.got - 2010.04.08 20:44:19.
