data_PCOD8305762
_publ_section_title
;
Structure prediction by ZEFSAII (Michael W. Deem and Ramdas Pophale) SiO2 
 PCOD8305762
Probable space group: P 42 21 2
;
_chemical_formula_sum "Si O2"
_cell_formula_units_Z 48
_cell_length_a 9.430267
_cell_length_b 9.430267
_cell_length_c 27.892618
_cell_angle_alpha 90.000000
_cell_angle_beta 90.000000
_cell_angle_gamma 90.000000
_cell_volume 2480.488725
_symmetry_space_group_name_H-M "P 42 21 2"
_symmetry_group_IT_number 94
_symmetry_cell_setting 'tetragonal'
loop_
_space_group_symop_operation_xyz
x,y,z
1/2-y,1/2+x,1/2+z
-x,-y,z
1/2+y,1/2-x,1/2+z
1/2+x,1/2-y,1/2-z
1/2-x,1/2+y,1/2-z
y,x,-z
-y,-x,-z
loop_
_atom_site_type_symbol
_atom_site_label
_atom_site_fract_x
_atom_site_fract_y
_atom_site_fract_z
Si Si1 0.329833 0.344737 0.054249
Si Si2 0.175208 0.247101 0.859074
Si Si3 0.510516 0.170428 0.308092
Si Si4 0.663125 0.333773 0.054600
Si Si5 0.339825 0.275729 0.640686
Si Si6 0.988294 0.662974 0.298003
O O1 0.240159 0.238008 0.087393
O O2 0.496153 0.329437 0.062999
O O3 0.281794 0.506509 0.065532
O O4 0.297829 0.297829 0.000000
O O5 0.200441 0.405285 0.840285
O O6 0.010008 0.200629 0.860077
O O7 0.274871 0.164824 0.822086
O O8 0.415098 0.254630 0.345824
O O9 0.482106 0.231079 0.254239
O O10 0.500000 0.000000 0.313751
O O11 0.732268 0.214621 0.088194
O O12 0.704092 0.295909 0.000000
O O13 0.294980 0.164768 0.681779
O O14 0.000000 0.500000 0.285913
#
# Coordination Sequence:
#
# PCOD8305762 Si02
#       6
#     8   8   8   8   8   8
#     4   9  18  35  59  85 112 149 198 246 288 345
#     4  11  21  38  60  86 120 156 192 244 301 354
#     4  11  23  39  57  85 121 159 199 245 286 349
#     4   9  18  35  59  85 112 149 198 246 288 345
#     4  11  21  38  60  86 120 156 192 244 301 354
#     4   9  20  37  61  87 117 153 199 239 294 355
#
# _framework density 19.351026999999998
#
# number of rings (size 3 to 8) (size 9 to 14) (size 15 to 20)
#    0.000    2.000    1.667    3.500    0.000    0.000 
#    3.000    5.000    0.000    0.000    0.000    0.000 
#    0.000    0.000    0.000    0.000    0.000    0.000 
#
# Total GULP energy -594882.001569 kJ/mol
# GULP energy per Si atom -12393.375033 kJ/mol
# Density = 1.930698 g / cm^3
# Si number density = 19.351027 Si / 1000 Ang^3
#
#
#
# Elastic Constant Matrix: (Units=GPa)
#
#
# Indices 1 2 3 4 5 6 
#
# 1 69.1730 26.4191 36.1806 0.0000 0.0000 0.0000
# 2 26.4191 69.1732 36.1807 0.0000 0.0000 0.0000
# 3 36.1806 36.1807 130.6230 0.0000 0.0000 0.0000
# 4 0.0000 0.0000 0.0000 34.4744 0.0000 0.0000
# 5 0.0000 0.0000 0.0000 0.0000 34.4744 0.0000
# 6 0.0000 0.0000 0.0000 0.0000 0.0000 28.1517
#
#
#
# Elastic Compliance Matrix: (Units=1/GPa)
#
#
# Indices 1 2 3 4 5 6 
#
# 1 0.018313 -0.005077 -0.003666 0.000000 0.000000 0.000000
# 2 -0.005077 0.018313 -0.003666 0.000000 0.000000 0.000000
# 3 -0.003666 -0.003666 0.009687 0.000000 0.000000 0.000000
# 4 0.000000 0.000000 0.000000 0.029007 0.000000 0.000000
# 5 0.000000 0.000000 0.000000 0.000000 0.029007 0.000000
# 6 0.000000 0.000000 0.000000 0.000000 0.000000 0.035522
#
#
# Mechanical properties :
#
#
# Convention : Reuss Voigt Hill
#
# Bulk Modulus (GPa) = 46.52400 51.83669 49.18035
# Shear Modulus (GPa) = 29.09825 30.76604 29.93214
#
# Velocity S-wave (km/s) = 3.88197 3.99167 3.93720
# Velocity P-wave (km/s) = 6.64735 6.93472 6.79255
#
# Compressibility (1/GPa) = 0.02149428
#
# Stress axis : x y z
#
# Youngs Moduli (GPa) = 54.60591 54.60599 103.23495
#
# Poissons Ratio (x) = 0.27721 0.37849
# Poissons Ratio (y) = 0.27721 0.37849
# Poissons Ratio (z) = 0.20020 0.20020
#
# Static dielectric constant tensor:
#      x y z
#    x 3.327510 0.000000 0.000000 
#    y 0.000000 3.327520 0.000000 
#    z 0.000000 0.000000 3.638070 
# 
# 
# High freq. dielectric constant tensor:
#      x y z
#    x 1.741320 0.000000 0.000000 
#    y 0.000000 1.741320 0.000000 
#    z 0.000000 0.000000 1.767090 
# 
# From -- ./inp_files/5594.got.cif
#   From: 2010.03.12/outbox.cif.g09.slc.cpg/sg94_3_cif.got.tgz:5594.got - 2010.04.08 20:48:32.
