data_PCOD8305125
_publ_section_title
;
Structure prediction by ZEFSAII (Michael W. Deem and Ramdas Pophale) SiO2 
 PCOD8305125
Probable space group: P 41 2 2
;
_chemical_formula_sum "Si O2"
_cell_formula_units_Z 32
_cell_length_a 12.618973
_cell_length_b 12.618973
_cell_length_c 9.985685
_cell_angle_alpha 90.000000
_cell_angle_beta 90.000000
_cell_angle_gamma 90.000000
_cell_volume 1590.105297
_symmetry_space_group_name_H-M "P 41 2 2"
_symmetry_group_IT_number 91
_symmetry_cell_setting 'tetragonal'
loop_
_space_group_symop_operation_xyz
x,y,z
-y,x,1/4+z
-x,-y,1/2+z
y,-x,3/4+z
x,-y,1/2-z
-x,y,-z
y,x,3/4-z
-y,-x,1/4-z
loop_
_atom_site_type_symbol
_atom_site_label
_atom_site_fract_x
_atom_site_fract_y
_atom_site_fract_z
Si Si1 0.278352 0.582077 0.358897
Si Si2 0.242282 0.864332 0.993021
Si Si3 0.768807 0.559098 0.114608
Si Si4 0.072742 0.744011 0.877254
O O1 0.322586 0.500000 0.250000
O O2 0.177927 0.640995 0.292357
O O3 0.372678 0.663311 0.387093
O O4 0.243176 0.523644 0.494156
O O5 0.197826 0.802175 0.125000
O O6 0.252343 0.992335 0.001331
O O7 0.163425 0.835215 0.869145
O O8 0.792847 0.500000 0.250000
O O9 0.871874 0.631877 0.092428
O O10 0.000000 0.774560 0.000000
#
# Coordination Sequence:
#
# PCOD8305125 Si02
#       4
#     8   8   8   8
#     4  11  21  37  58  83 113 153 197 236 281 346
#     4   9  18  35  60  86 114 146 191 244 291 345
#     4  11  24  37  55  84 118 152 191 240 292 339
#     4   9  18  35  59  85 111 147 190 238 289 348
#
# _framework density 20.124452999999999
#
# number of rings (size 3 to 8) (size 9 to 14) (size 15 to 20)
#    0.000    2.000    0.000    6.000    0.000    6.000 
#    0.000    0.000    0.000   45.000    0.000    0.000 
#    0.000    0.000    0.000    0.000    0.000    0.000 
#
# Total GULP energy -396556.111956 kJ/mol
# GULP energy per Si atom -12392.378499 kJ/mol
# Density = 2.007865 g / cm^3
# Si number density = 20.124453 Si / 1000 Ang^3
#
#
#
# Elastic Constant Matrix: (Units=GPa)
#
#
# Indices 1 2 3 4 5 6 
#
# 1 109.0753 43.6614 22.3072 0.0000 0.0000 0.0000
# 2 43.6614 109.0751 22.3072 0.0000 0.0000 0.0000
# 3 22.3072 22.3072 72.7416 0.0000 0.0000 0.0000
# 4 0.0000 0.0000 0.0000 30.6749 0.0000 0.0000
# 5 0.0000 0.0000 0.0000 0.0000 30.6749 0.0000
# 6 0.0000 0.0000 0.0000 0.0000 0.0000 18.5052
#
#
#
# Elastic Compliance Matrix: (Units=1/GPa)
#
#
# Indices 1 2 3 4 5 6 
#
# 1 0.011239 -0.004048 -0.002205 0.000000 0.000000 0.000000
# 2 -0.004048 0.011239 -0.002205 0.000000 0.000000 0.000000
# 3 -0.002205 -0.002205 0.015100 0.000000 0.000000 0.000000
# 4 0.000000 0.000000 0.000000 0.032600 0.000000 0.000000
# 5 0.000000 0.000000 0.000000 0.000000 0.032600 0.000000
# 6 0.000000 0.000000 0.000000 0.000000 0.000000 0.054039
#
#
# Mechanical properties :
#
#
# Convention : Reuss Voigt Hill
#
# Bulk Modulus (GPa) = 48.39964 51.93820 50.16892
# Shear Modulus (GPa) = 27.68214 29.47873 28.58044
#
# Velocity S-wave (km/s) = 3.71286 3.83145 3.77262
# Velocity P-wave (km/s) = 6.51788 6.74076 6.63026
#
# Compressibility (1/GPa) = 0.02066131
#
# Stress axis : x y z
#
# Youngs Moduli (GPa) = 88.97324 88.97307 66.22569
#
# Poissons Ratio (x) = 0.36016 0.14605
# Poissons Ratio (y) = 0.36016 0.14605
# Poissons Ratio (z) = 0.19622 0.19622
#
# Static dielectric constant tensor:
#      x y z
#    x 3.943570 0.000000 0.000000 
#    y 0.000000 3.943550 0.000000 
#    z 0.000000 0.000000 3.732690 
# 
# 
# High freq. dielectric constant tensor:
#      x y z
#    x 1.791700 0.000000 0.000000 
#    y 0.000000 1.791700 0.000000 
#    z 0.000000 0.000000 1.764450 
# 
# From -- ./inp_files/3365.got.cif
#   From: 2010.03.12/outbox.cif.g09.slc.cpg/sg91_2_cif.got.tgz:3365.got - 2010.04.08 20:27:58.
