data_PCOD8305415
_publ_section_title
;
Structure prediction by ZEFSAII (Michael W. Deem and Ramdas Pophale) SiO2 
 PCOD8305415
Probable space group: P 41 21 2
;
_chemical_formula_sum "Si O2"
_cell_formula_units_Z 48
_cell_length_a 12.254751
_cell_length_b 12.254751
_cell_length_c 15.057777
_cell_angle_alpha 90.000000
_cell_angle_beta 90.000000
_cell_angle_gamma 90.000000
_cell_volume 2261.360719
_symmetry_space_group_name_H-M "P 41 21 2"
_symmetry_group_IT_number 92
_symmetry_cell_setting 'tetragonal'
loop_
_space_group_symop_operation_xyz
x,y,z
1/2-y,1/2+x,1/4+z
-x,-y,1/2+z
1/2+y,1/2-x,3/4+z
1/2+x,1/2-y,3/4-z
1/2-x,1/2+y,1/4-z
y,x,-z
-y,-x,1/2-z
loop_
_atom_site_type_symbol
_atom_site_label
_atom_site_fract_x
_atom_site_fract_y
_atom_site_fract_z
Si Si1 0.287012 0.273467 0.282892
Si Si2 0.134315 0.420497 0.398908
Si Si3 0.300683 0.594704 0.423525
Si Si4 0.482178 0.482178 0.000000
Si Si5 0.103231 0.390018 0.592257
Si Si6 0.720268 0.279733 0.750000
Si Si7 0.722672 0.580297 0.388849
O O1 0.224844 0.370187 0.333482
O O2 0.196578 0.193143 0.240952
O O3 0.366163 0.211259 0.350926
O O4 0.360326 0.317871 0.201467
O O5 0.184301 0.534700 0.434003
O O6 0.121043 0.353335 0.490289
O O7 0.017045 0.432167 0.351452
O O8 0.403876 0.519000 0.446808
O O9 0.303326 0.627928 0.321402
O O10 0.384109 0.474667 0.930020
O O11 0.007196 0.315446 0.625904
O O12 0.838988 0.285354 0.705667
#
# Coordination Sequence:
#
# PCOD8305415 Si02
#       7
#     8   8   8   4   8   4   8
#     4  11  24  46  68  99 138 175 240 289 348 423
#     4  12  27  43  70 103 138 183 229 291 352 419
#     4  11  25  44  65 104 138 180 230 290 351 414
#     4  11  24  46  70  98 147 188 234 296 351 432
#     4  12  24  46  71 100 136 185 231 291 353 420
#     4   9  24  42  68 100 133 174 234 298 341 412
#     4  10  23  45  73  99 133 188 236 287 358 419
#
# _framework density 21.226158000000002
#
# number of rings (size 3 to 8) (size 9 to 14) (size 15 to 20)
#    0.000    1.000    5.000    0.500    7.000    0.000 
#    6.000    0.000    0.000    0.000    0.000    0.000 
#    0.000    0.000    0.000    0.000    0.000    0.000 
#
# Total GULP energy -595086.790625 kJ/mol
# GULP energy per Si atom -12397.641471 kJ/mol
# Density = 2.117785 g / cm^3
# Si number density = 21.226158 Si / 1000 Ang^3
#
#
#
# Elastic Constant Matrix: (Units=GPa)
#
#
# Indices 1 2 3 4 5 6 
#
# 1 84.4086 38.7616 25.6969 0.0000 0.0000 0.0000
# 2 38.7616 84.4082 25.6973 0.0000 0.0000 0.0000
# 3 25.6969 25.6973 116.9164 0.0000 0.0000 0.0000
# 4 0.0000 0.0000 0.0000 31.1768 0.0000 0.0000
# 5 0.0000 0.0000 0.0000 0.0000 31.1766 0.0000
# 6 0.0000 0.0000 0.0000 0.0000 0.0000 37.4237
#
#
#
# Elastic Compliance Matrix: (Units=1/GPa)
#
#
# Indices 1 2 3 4 5 6 
#
# 1 0.015423 -0.006484 -0.001965 0.000000 0.000000 0.000000
# 2 -0.006484 0.015423 -0.001965 0.000000 0.000000 0.000000
# 3 -0.001965 -0.001965 0.009417 0.000000 0.000000 0.000000
# 4 0.000000 0.000000 0.000000 0.032075 0.000000 0.000000
# 5 0.000000 0.000000 0.000000 0.000000 0.032075 0.000000
# 6 0.000000 0.000000 0.000000 0.000000 0.000000 0.026721
#
#
# Mechanical properties :
#
#
# Convention : Reuss Voigt Hill
#
# Bulk Modulus (GPa) = 51.45227 51.78274 51.61751
# Shear Modulus (GPa) = 31.55772 32.99392 32.27582
#
# Velocity S-wave (km/s) = 3.86001 3.94686 3.90368
# Velocity P-wave (km/s) = 6.64521 6.72451 6.68498
#
# Compressibility (1/GPa) = 0.01943549
#
# Stress axis : x y z
#
# Youngs Moduli (GPa) = 64.83861 64.83812 106.19394
#
# Poissons Ratio (x) = 0.42043 0.20863
# Poissons Ratio (y) = 0.42044 0.20864
# Poissons Ratio (z) = 0.12738 0.12739
#
# Static dielectric constant tensor:
#      x y z
#    x 3.825280 0.000000 0.000000 
#    y 0.000000 3.825280 0.000000 
#    z 0.000000 0.000000 4.216940 
# 
# 
# High freq. dielectric constant tensor:
#      x y z
#    x 1.828040 0.000000 0.000000 
#    y 0.000000 1.828040 0.000000 
#    z 0.000000 0.000000 1.854320 
# 
# From -- ./inp_files/3188.got.cif
#   From: 2010.03.12/outbox.cif.g09.slc.cpg/sg92_2_cif.got.tgz:3188.got - 2010.04.08 20:41:11.
