data_PCOD8305249
_publ_section_title
;
Structure prediction by ZEFSAII (Michael W. Deem and Ramdas Pophale) SiO2 
 PCOD8305249
Probable space group: P 41 21 2
;
_chemical_formula_sum "Si O2"
_cell_formula_units_Z 40
_cell_length_a 20.519724
_cell_length_b 20.519724
_cell_length_c 5.105062
_cell_angle_alpha 90.000000
_cell_angle_beta 90.000000
_cell_angle_gamma 90.000000
_cell_volume 2149.532674
_symmetry_space_group_name_H-M "P 41 21 2"
_symmetry_group_IT_number 92
_symmetry_cell_setting 'tetragonal'
loop_
_space_group_symop_operation_xyz
x,y,z
1/2-y,1/2+x,1/4+z
-x,-y,1/2+z
1/2+y,1/2-x,3/4+z
1/2+x,1/2-y,3/4-z
1/2-x,1/2+y,1/4-z
y,x,-z
-y,-x,1/2-z
loop_
_atom_site_type_symbol
_atom_site_label
_atom_site_fract_x
_atom_site_fract_y
_atom_site_fract_z
Si Si1 0.554175 0.806754 0.414533
Si Si2 0.060566 0.423383 0.274423
Si Si3 0.313153 0.254327 0.757614
Si Si4 0.211541 0.526806 0.590022
Si Si5 0.353212 0.705215 0.000419
O O1 0.574476 0.883412 0.453114
O O2 0.611856 0.765594 0.281068
O O3 0.529737 0.776833 0.691804
O O4 0.497366 0.802823 0.202294
O O5 0.073567 0.485097 0.452796
O O6 0.067453 0.353819 0.426846
O O7 0.296132 0.296132 0.500000
O O8 0.270078 0.189481 0.778875
O O9 0.300985 0.300985 0.000000
O O10 0.274434 0.572266 0.552907
O O11 0.342056 0.657945 0.250000
O O12 0.335583 0.664418 0.750000
#
# Coordination Sequence:
#
# PCOD8305249 Si02
#       5
#     8   8   8   8   8
#     4  11  22  35  54  79 109 142 190 236 271 320
#     4  10  20  34  48  72 106 154 192 228 268 306
#     4  10  20  36  55  76 106 144 185 225 281 336
#     4  11  22  35  54  79 109 142 190 236 271 320
#     4  10  20  36  55  76 106 144 185 225 281 336
#
# _framework density 18.608695000000001
#
# number of rings (size 3 to 8) (size 9 to 14) (size 15 to 20)
#    0.000    1.600    2.000    3.600    0.000    4.800 
#    0.000    0.000    0.000    0.000    0.000    0.000 
#    0.000   44.800    0.000    0.000    0.000    0.000 
#
# Total GULP energy -495541.473814 kJ/mol
# GULP energy per Si atom -12388.536845 kJ/mol
# Density = 1.856634 g / cm^3
# Si number density = 18.608695 Si / 1000 Ang^3
#
#
#
# Elastic Constant Matrix: (Units=GPa)
#
#
# Indices 1 2 3 4 5 6 
#
# 1 49.1113 24.2863 12.4148 0.0000 0.0000 0.0000
# 2 24.2863 49.1123 12.4147 0.0000 0.0000 0.0000
# 3 12.4148 12.4147 97.9314 0.0000 0.0000 0.0000
# 4 0.0000 0.0000 0.0000 31.1504 0.0000 0.0000
# 5 0.0000 0.0000 0.0000 0.0000 31.1465 0.0000
# 6 0.0000 0.0000 0.0000 0.0000 0.0000 29.2383
#
#
#
# Elastic Compliance Matrix: (Units=1/GPa)
#
#
# Indices 1 2 3 4 5 6 
#
# 1 0.027258 -0.013023 -0.001805 0.000000 0.000000 0.000000
# 2 -0.013023 0.027258 -0.001804 0.000000 0.000000 0.000000
# 3 -0.001805 -0.001804 0.010669 0.000000 0.000000 0.000000
# 4 0.000000 0.000000 0.000000 0.032102 0.000000 0.000000
# 5 0.000000 0.000000 0.000000 0.000000 0.032106 0.000000
# 6 0.000000 0.000000 0.000000 0.000000 0.000000 0.034202
#
#
# Mechanical properties :
#
#
# Convention : Reuss Voigt Hill
#
# Bulk Modulus (GPa) = 31.32818 32.70962 32.01890
# Shear Modulus (GPa) = 24.09640 28.10964 26.10302
#
# Velocity S-wave (km/s) = 3.60238 3.89081 3.74937
# Velocity P-wave (km/s) = 5.84590 6.14820 5.99896
#
# Compressibility (1/GPa) = 0.03192014
#
# Stress axis : x y z
#
# Youngs Moduli (GPa) = 36.68606 36.68684 93.73164
#
# Poissons Ratio (x) = 0.47778 0.16915
# Poissons Ratio (y) = 0.47777 0.16914
# Poissons Ratio (z) = 0.06620 0.06620
#
# Static dielectric constant tensor:
#      x y z
#    x 3.216240 0.000000 0.000000 
#    y 0.000000 3.216240 0.000000 
#    z 0.000000 0.000000 3.358310 
# 
# 
# High freq. dielectric constant tensor:
#      x y z
#    x 1.703920 0.000000 0.000000 
#    y 0.000000 1.703920 0.000000 
#    z 0.000000 0.000000 1.723290 
# 
# From -- ./inp_files/428.got.cif
#   From: 2010.03.12/outbox.cif.g09.slc.cpg/sg92_1_cif.got.tgz:428.got - 2010.04.08 20:41:11.
