data_PCOD8305368
_publ_section_title
;
Structure prediction by ZEFSAII (Michael W. Deem and Ramdas Pophale) SiO2 
 PCOD8305368
Probable space group: P 41 21 2
;
_chemical_formula_sum "Si O2"
_cell_formula_units_Z 48
_cell_length_a 11.004398
_cell_length_b 11.004398
_cell_length_c 20.365947
_cell_angle_alpha 90.000000
_cell_angle_beta 90.000000
_cell_angle_gamma 90.000000
_cell_volume 2466.250508
_symmetry_space_group_name_H-M "P 41 21 2"
_symmetry_group_IT_number 92
_symmetry_cell_setting 'tetragonal'
loop_
_space_group_symop_operation_xyz
x,y,z
1/2-y,1/2+x,1/4+z
-x,-y,1/2+z
1/2+y,1/2-x,3/4+z
1/2+x,1/2-y,3/4-z
1/2-x,1/2+y,1/4-z
y,x,-z
-y,-x,1/2-z
loop_
_atom_site_type_symbol
_atom_site_label
_atom_site_fract_x
_atom_site_fract_y
_atom_site_fract_z
Si Si1 0.574900 0.061392 0.569038
Si Si2 0.056361 0.442152 0.563338
Si Si3 0.153954 0.024301 0.058267
Si Si4 0.656974 0.451079 0.926827
Si Si5 0.486200 0.666243 0.926087
Si Si6 0.838431 0.940516 0.937246
O O1 0.488375 0.022917 0.509129
O O2 0.560032 0.201772 0.587182
O O3 0.536688 0.995549 0.634829
O O4 0.710740 0.024678 0.548246
O O5 0.194454 0.476066 0.580235
O O6 0.030137 0.301221 0.568703
O O7 0.143830 0.087685 0.129728
O O8 0.118489 0.118489 0.000000
O O9 0.067307 0.907877 0.054803
O O10 0.607195 0.586938 0.910962
O O11 0.632843 0.426116 0.003707
O O12 0.381140 0.636543 0.875044
O O13 0.855904 0.855904 0.000000
#
# Coordination Sequence:
#
# PCOD8305368 Si02
#       6
#     8   8   8   8   8   8
#     4  11  24  40  62  94 122 161 206 255 306 359
#     4  11  24  38  62  95 121 155 207 257 307 355
#     4  10  22  42  63  86 123 168 202 243 311 367
#     4   9  20  39  63  85 124 159 200 247 308 363
#     4   9  20  38  62  91 118 161 196 249 312 359
#     4  10  22  40  62  90 121 159 204 248 305 367
#
# _framework density 19.462741999999999
#
# number of rings (size 3 to 8) (size 9 to 14) (size 15 to 20)
#    0.000    2.000    0.000    2.000    9.333    1.333 
#    9.000    0.000    0.000    0.000    0.000    0.000 
#    0.000    0.000    0.000    0.000    0.000    0.000 
#
# Total GULP energy -595250.803978 kJ/mol
# GULP energy per Si atom -12401.058416 kJ/mol
# Density = 1.941844 g / cm^3
# Si number density = 19.462742 Si / 1000 Ang^3
#
#
#
# Elastic Constant Matrix: (Units=GPa)
#
#
# Indices 1 2 3 4 5 6 
#
# 1 83.0956 45.6591 39.9373 0.0000 0.0000 0.0000
# 2 45.6591 83.0956 39.9373 0.0000 0.0000 0.0000
# 3 39.9373 39.9373 101.1212 0.0000 0.0000 0.0000
# 4 0.0000 0.0000 0.0000 34.3381 0.0000 0.0000
# 5 0.0000 0.0000 0.0000 0.0000 34.3381 0.0000
# 6 0.0000 0.0000 0.0000 0.0000 0.0000 16.9079
#
#
#
# Elastic Compliance Matrix: (Units=1/GPa)
#
#
# Indices 1 2 3 4 5 6 
#
# 1 0.018500 -0.008212 -0.004063 0.000000 0.000000 0.000000
# 2 -0.008212 0.018500 -0.004063 0.000000 0.000000 0.000000
# 3 -0.004063 -0.004063 0.013098 0.000000 0.000000 0.000000
# 4 0.000000 0.000000 0.000000 0.029122 0.000000 0.000000
# 5 0.000000 0.000000 0.000000 0.000000 0.029122 0.000000
# 6 0.000000 0.000000 0.000000 0.000000 0.000000 0.059144
#
#
# Mechanical properties :
#
#
# Convention : Reuss Voigt Hill
#
# Bulk Modulus (GPa) = 57.40131 57.59776 57.49953
# Shear Modulus (GPa) = 24.27553 26.56876 25.42215
#
# Velocity S-wave (km/s) = 3.53552 3.69875 3.61805
# Velocity P-wave (km/s) = 6.79879 6.92092 6.86012
#
# Compressibility (1/GPa) = 0.01742121
#
# Stress axis : x y z
#
# Youngs Moduli (GPa) = 54.05545 54.05545 76.34559
#
# Poissons Ratio (x) = 0.44392 0.31018
# Poissons Ratio (y) = 0.44392 0.31018
# Poissons Ratio (z) = 0.21962 0.21962
#
# Static dielectric constant tensor:
#      x y z
#    x 3.489750 0.000000 0.000000 
#    y 0.000000 3.489750 0.000000 
#    z 0.000000 0.000000 3.875270 
# 
# 
# High freq. dielectric constant tensor:
#      x y z
#    x 1.755000 0.000000 0.000000 
#    y 0.000000 1.755000 0.000000 
#    z 0.000000 0.000000 1.776270 
# 
# From -- ./inp_files/3106.got.cif
#   From: 2010.03.12/outbox.cif.g09.slc.cpg/sg92_2_cif.got.tgz:3106.got - 2010.04.08 20:41:11.
