data_PCOD8305396
_publ_section_title
;
Structure prediction by ZEFSAII (Michael W. Deem and Ramdas Pophale) SiO2 
 PCOD8305396
Probable space group: P 41 21 2
;
_chemical_formula_sum "Si O2"
_cell_formula_units_Z 36
_cell_length_a 7.828047
_cell_length_b 7.828047
_cell_length_c 24.543584
_cell_angle_alpha 90.000000
_cell_angle_beta 90.000000
_cell_angle_gamma 90.000000
_cell_volume 1503.989590
_symmetry_space_group_name_H-M "P 41 21 2"
_symmetry_group_IT_number 92
_symmetry_cell_setting 'tetragonal'
loop_
_space_group_symop_operation_xyz
x,y,z
1/2-y,1/2+x,1/4+z
-x,-y,1/2+z
1/2+y,1/2-x,3/4+z
1/2+x,1/2-y,3/4-z
1/2-x,1/2+y,1/4-z
y,x,-z
-y,-x,1/2-z
loop_
_atom_site_type_symbol
_atom_site_label
_atom_site_fract_x
_atom_site_fract_y
_atom_site_fract_z
Si Si1 0.920718 0.920718 0.000000
Si Si2 0.268269 0.236730 0.104413
Si Si3 0.372150 0.729371 0.636894
Si Si4 0.611712 0.790329 0.290940
Si Si5 0.571006 0.903002 0.180402
O O1 0.828385 0.860642 0.055584
O O2 0.120654 0.883598 0.004590
O O3 0.451621 0.340446 0.108085
O O4 0.301323 0.051608 0.080134
O O5 0.199644 0.227169 0.167683
O O6 0.122562 0.330591 0.069241
O O7 0.208856 0.722973 0.597663
O O8 0.417803 0.924771 0.647438
O O9 0.616265 0.936826 0.244493
#
# Coordination Sequence:
#
# PCOD8305396 Si02
#       5
#     4   8   8   8   8
#     4  10  22  44  70  98 144 186 232 302 360 430
#     4  11  24  46  71 102 142 191 243 299 367 438
#     4  11  27  43  75 108 146 190 249 301 372 447
#     4  11  23  45  72 102 142 190 239 302 370 436
#     4  12  25  45  73 104 149 189 245 305 370 444
#
# _framework density 23.936337000000002
#
# number of rings (size 3 to 8) (size 9 to 14) (size 15 to 20)
#    0.000    0.889    4.444    1.333    6.222    3.556 
#    4.000    0.000    0.000    0.000    0.000    0.000 
#    0.000    0.000    0.000    0.000    0.000    0.000 
#
# Total GULP energy -446076.793372 kJ/mol
# GULP energy per Si atom -12391.022038 kJ/mol
# Density = 2.388186 g / cm^3
# Si number density = 23.936337 Si / 1000 Ang^3
#
#
#
# Elastic Constant Matrix: (Units=GPa)
#
#
# Indices 1 2 3 4 5 6 
#
# 1 71.6030 33.3918 48.1842 0.0000 0.0000 0.0000
# 2 33.3918 71.6030 48.1842 0.0000 0.0000 0.0000
# 3 48.1842 48.1842 170.9705 0.0000 0.0000 0.0000
# 4 0.0000 0.0000 0.0000 47.2624 0.0000 0.0000
# 5 0.0000 0.0000 0.0000 0.0000 47.2624 0.0000
# 6 0.0000 0.0000 0.0000 0.0000 0.0000 26.0094
#
#
#
# Elastic Compliance Matrix: (Units=1/GPa)
#
#
# Indices 1 2 3 4 5 6 
#
# 1 0.019509 -0.006661 -0.003621 0.000000 0.000000 0.000000
# 2 -0.006661 0.019509 -0.003621 0.000000 0.000000 0.000000
# 3 -0.003621 -0.003621 0.007890 0.000000 0.000000 0.000000
# 4 0.000000 0.000000 0.000000 0.021158 0.000000 0.000000
# 5 0.000000 0.000000 0.000000 0.000000 0.021158 0.000000
# 6 0.000000 0.000000 0.000000 0.000000 0.000000 0.038448
#
#
# Mechanical properties :
#
#
# Convention : Reuss Voigt Hill
#
# Bulk Modulus (GPa) = 52.35103 63.74408 58.04755
# Shear Modulus (GPa) = 30.89363 36.40126 33.64744
#
# Velocity S-wave (km/s) = 3.59647 3.90391 3.75334
# Velocity P-wave (km/s) = 6.25816 6.85633 6.56406
#
# Compressibility (1/GPa) = 0.01910182
#
# Stress axis : x y z
#
# Youngs Moduli (GPa) = 51.25844 51.25844 126.74521
#
# Poissons Ratio (x) = 0.34145 0.45892
# Poissons Ratio (y) = 0.34145 0.45892
# Poissons Ratio (z) = 0.18560 0.18560
#
# Static dielectric constant tensor:
#      x y z
#    x 4.419070 0.000000 0.000000 
#    y 0.000000 4.419070 0.000000 
#    z 0.000000 0.000000 4.659230 
# 
# 
# High freq. dielectric constant tensor:
#      x y z
#    x 1.937390 0.000000 0.000000 
#    y 0.000000 1.937390 0.000000 
#    z 0.000000 0.000000 1.965210 
# 
# From -- ./inp_files/4106.got.cif
#   From: 2010.03.12/outbox.cif.g09.slc.cpg/sg92_3_cif.got.tgz:4106.got - 2010.04.08 20:41:11.
