data_PCOD8305395
_publ_section_title
;
Structure prediction by ZEFSAII (Michael W. Deem and Ramdas Pophale) SiO2 
 PCOD8305395
Probable space group: P 41 21 2
;
_chemical_formula_sum "Si O2"
_cell_formula_units_Z 40
_cell_length_a 9.392348
_cell_length_b 9.392348
_cell_length_c 19.223922
_cell_angle_alpha 90.000000
_cell_angle_beta 90.000000
_cell_angle_gamma 90.000000
_cell_volume 1695.861366
_symmetry_space_group_name_H-M "P 41 21 2"
_symmetry_group_IT_number 92
_symmetry_cell_setting 'tetragonal'
loop_
_space_group_symop_operation_xyz
x,y,z
1/2-y,1/2+x,1/4+z
-x,-y,1/2+z
1/2+y,1/2-x,3/4+z
1/2+x,1/2-y,3/4-z
1/2-x,1/2+y,1/4-z
y,x,-z
-y,-x,1/2-z
loop_
_atom_site_type_symbol
_atom_site_label
_atom_site_fract_x
_atom_site_fract_y
_atom_site_fract_z
Si Si1 0.573819 0.090080 0.920810
Si Si2 0.587773 0.184326 0.762222
Si Si3 0.739987 0.611853 0.929823
Si Si4 0.719222 0.000330 0.140966
Si Si5 0.764831 0.317112 0.986087
O O1 0.596392 0.129209 0.840889
O O2 0.696059 0.167603 0.965452
O O3 0.574897 0.918351 0.928665
O O4 0.429045 0.148716 0.956137
O O5 0.672535 0.327466 0.750000
O O6 0.425969 0.218990 0.744674
O O7 0.629582 0.672656 0.870382
O O8 0.903111 0.667837 0.923333
O O9 0.746974 0.439497 0.925820
O O10 0.672694 0.672694 0.000000
O O11 0.798964 0.892049 0.194579
#
# Coordination Sequence:
#
# PCOD8305395 Si02
#       5
#     8   8   8   8   8
#     4  11  24  45  70 103 143 181 239 295 357 421
#     4  11  24  44  72 101 142 186 233 297 352 420
#     4  10  22  44  67  98 137 180 228 290 350 424
#     4  10  23  41  69  95 138 179 227 293 350 420
#     4  10  23  44  66  97 136 181 230 288 350 424
#
# _framework density 23.586836000000002
#
# number of rings (size 3 to 8) (size 9 to 14) (size 15 to 20)
#    0.000    1.600    2.000    1.200    5.600    2.400 
#    3.600    5.000    0.000    0.000    0.000    0.000 
#    0.000    0.000    0.000    0.000    0.000    0.000 
#
# Total GULP energy -495592.444225 kJ/mol
# GULP energy per Si atom -12389.811106 kJ/mol
# Density = 2.353315 g / cm^3
# Si number density = 23.586836 Si / 1000 Ang^3
#
#
#
# Elastic Constant Matrix: (Units=GPa)
#
#
# Indices 1 2 3 4 5 6 
#
# 1 72.2362 48.2305 24.2055 0.0000 0.0000 0.0000
# 2 48.2305 72.2382 24.2056 0.0000 0.0000 0.0000
# 3 24.2055 24.2056 65.1333 0.0000 0.0000 0.0000
# 4 0.0000 0.0000 0.0000 35.1082 0.0000 0.0000
# 5 0.0000 0.0000 0.0000 0.0000 35.1086 0.0000
# 6 0.0000 0.0000 0.0000 0.0000 0.0000 51.1925
#
#
#
# Elastic Compliance Matrix: (Units=1/GPa)
#
#
# Indices 1 2 3 4 5 6 
#
# 1 0.025707 -0.015948 -0.003627 0.000000 0.000000 0.000000
# 2 -0.015948 0.025706 -0.003626 0.000000 0.000000 0.000000
# 3 -0.003627 -0.003626 0.018049 0.000000 0.000000 0.000000
# 4 0.000000 0.000000 0.000000 0.028483 0.000000 0.000000
# 5 0.000000 0.000000 0.000000 0.000000 0.028483 0.000000
# 6 0.000000 0.000000 0.000000 0.000000 0.000000 0.019534
#
#
# Mechanical properties :
#
#
# Convention : Reuss Voigt Hill
#
# Bulk Modulus (GPa) = 43.36658 44.76565 44.06612
# Shear Modulus (GPa) = 24.99355 31.81291 28.40323
#
# Velocity S-wave (km/s) = 3.25874 3.67653 3.47392
# Velocity P-wave (km/s) = 5.70833 6.08628 5.90033
#
# Compressibility (1/GPa) = 0.02305923
#
# Stress axis : x y z
#
# Youngs Moduli (GPa) = 38.89984 38.90099 55.40605
#
# Poissons Ratio (x) = 0.62041 0.20094
# Poissons Ratio (y) = 0.62039 0.20092
# Poissons Ratio (z) = 0.14107 0.14107
#
# Static dielectric constant tensor:
#      x y z
#    x 4.476180 0.000000 0.000000 
#    y 0.000000 4.476180 0.000000 
#    z 0.000000 0.000000 4.403890 
# 
# 
# High freq. dielectric constant tensor:
#      x y z
#    x 1.926130 0.000000 0.000000 
#    y 0.000000 1.926130 0.000000 
#    z 0.000000 0.000000 1.940710 
# 
# From -- ./inp_files/3800.got.cif
#   From: 2010.03.12/outbox.cif.g09.slc.cpg/sg92_2_cif.got.tgz:3800.got - 2010.04.08 20:41:11.
