data_PCOD8305876
_publ_section_title
;
Structure prediction by ZEFSAII (Michael W. Deem and Ramdas Pophale) SiO2 
 PCOD8305876
Probable space group: P 43 21 2
;
_chemical_formula_sum "Si O2"
_cell_formula_units_Z 52
_cell_length_a 17.705010
_cell_length_b 17.705010
_cell_length_c 7.693999
_cell_angle_alpha 90.000000
_cell_angle_beta 90.000000
_cell_angle_gamma 90.000000
_cell_volume 2411.817701
_symmetry_space_group_name_H-M "P 43 21 2"
_symmetry_group_IT_number 96
_symmetry_cell_setting 'tetragonal'
loop_
_space_group_symop_operation_xyz
x,y,z
1/2-y,1/2+x,3/4+z
-x,-y,1/2+z
1/2+y,1/2-x,1/4+z
1/2+x,1/2-y,1/4-z
1/2-x,1/2+y,3/4-z
y,x,-z
-y,-x,1/2-z
loop_
_atom_site_type_symbol
_atom_site_label
_atom_site_fract_x
_atom_site_fract_y
_atom_site_fract_z
Si Si1 0.660285 0.263183 0.597391
Si Si2 0.344995 0.655006 0.750000
Si Si3 0.603091 0.521325 0.781126
Si Si4 0.916028 0.461077 0.690818
Si Si5 0.998542 0.740374 0.018525
Si Si6 0.597882 0.803426 0.930834
Si Si7 0.484584 0.336466 0.323139
O O1 0.677407 0.322594 0.750000
O O2 0.687353 0.299973 0.416310
O O3 0.569956 0.249382 0.589616
O O4 0.705993 0.186283 0.638653
O O5 0.434422 0.668146 0.732330
O O6 0.545906 0.454095 0.750000
O O7 0.680228 0.510525 0.666298
O O8 0.565538 0.600257 0.724407
O O9 0.633219 0.515478 0.978730
O O10 0.946441 0.538953 0.767029
O O11 0.827507 0.473415 0.640449
O O12 0.925234 0.392438 0.831681
O O13 0.076045 0.719643 0.120921
O O14 0.553159 0.746609 0.803179
#
# Coordination Sequence:
#
# PCOD8305876 Si02
#       7
#     8   4   8   8   8   8   8
#     4  11  23  38  69  93 125 175 222 266 334 394
#     4  12  22  42  64  96 136 170 220 278 324 394
#     4  10  18  32  60  90 122 165 215 245 308 401
#     4   9  18  35  61  81 108 153 205 260 319 380
#     4   9  18  35  60  88 122 157 207 265 313 388
#     4   9  19  38  63  85 120 171 205 262 331 384
#     4  10  21  35  61  90 125 174 209 262 330 384
#
# _framework density 21.560502
#
# number of rings (size 3 to 8) (size 9 to 14) (size 15 to 20)
#    0.000    2.154    3.846    0.462    4.308    0.000 
#    0.000    4.615    6.769    0.000    0.000    0.000 
#    0.000    0.000    0.000    0.000    0.000    0.000 
#
# Total GULP energy -644192.955872 kJ/mol
# GULP energy per Si atom -12388.326074 kJ/mol
# Density = 2.151143 g / cm^3
# Si number density = 21.560502 Si / 1000 Ang^3
#
#
#
# Elastic Constant Matrix: (Units=GPa)
#
#
# Indices 1 2 3 4 5 6 
#
# 1 106.0613 49.8916 9.3932 0.0000 0.0000 0.0000
# 2 49.8916 106.0588 9.3954 0.0000 0.0000 0.0000
# 3 9.3932 9.3954 40.7737 0.0000 0.0000 0.0000
# 4 0.0000 0.0000 0.0000 25.1405 0.0000 0.0000
# 5 0.0000 0.0000 0.0000 0.0000 25.1412 0.0000
# 6 0.0000 0.0000 0.0000 0.0000 0.0000 36.7407
#
#
#
# Elastic Compliance Matrix: (Units=1/GPa)
#
#
# Indices 1 2 3 4 5 6 
#
# 1 0.012199 -0.005604 -0.001519 0.000000 0.000000 0.000000
# 2 -0.005604 0.012200 -0.001520 0.000000 0.000000 0.000000
# 3 -0.001519 -0.001520 0.025226 0.000000 0.000000 0.000000
# 4 0.000000 0.000000 0.000000 0.039776 0.000000 0.000000
# 5 0.000000 0.000000 0.000000 0.000000 0.039775 0.000000
# 6 0.000000 0.000000 0.000000 0.000000 0.000000 0.027218
#
#
# Mechanical properties :
#
#
# Convention : Reuss Voigt Hill
#
# Bulk Modulus (GPa) = 30.92316 43.36157 37.14237
# Shear Modulus (GPa) = 27.10612 29.68540 28.39576
#
# Velocity S-wave (km/s) = 3.54957 3.71461 3.63302
# Velocity P-wave (km/s) = 5.58327 6.20910 5.90448
#
# Compressibility (1/GPa) = 0.03233822
#
# Stress axis : x y z
#
# Youngs Moduli (GPa) = 81.97221 81.96948 39.64189
#
# Poissons Ratio (x) = 0.45937 0.06022
# Poissons Ratio (y) = 0.45938 0.06026
# Poissons Ratio (z) = 0.12452 0.12460
#
# Static dielectric constant tensor:
#      x y z
#    x 4.394150 0.000000 0.000000 
#    y 0.000000 4.394160 0.000000 
#    z 0.000000 0.000000 3.202490 
# 
# 
# High freq. dielectric constant tensor:
#      x y z
#    x 1.864640 0.000000 0.000000 
#    y 0.000000 1.864640 0.000000 
#    z 0.000000 0.000000 1.776360 
# 
# From -- ./inp_files/1564.got.cif
#   From: 2010.03.12/outbox.cif.g09.slc.cpg/sg96_1_cif.got.tgz:1564.got - 2010.04.08 20:56:49.
