data_PCOD8305044
_publ_section_title
;
Structure prediction by ZEFSAII (Michael W. Deem and Ramdas Pophale) SiO2 
 PCOD8305044
Probable space group: P 41 2 2
;
_chemical_formula_sum "Si O2"
_cell_formula_units_Z 48
_cell_length_a 8.667250
_cell_length_b 8.667250
_cell_length_c 29.909444
_cell_angle_alpha 90.000000
_cell_angle_beta 90.000000
_cell_angle_gamma 90.000000
_cell_volume 2246.833999
_symmetry_space_group_name_H-M "P 41 2 2"
_symmetry_group_IT_number 91
_symmetry_cell_setting 'tetragonal'
loop_
_space_group_symop_operation_xyz
x,y,z
-y,x,1/4+z
-x,-y,1/2+z
y,-x,3/4+z
x,-y,1/2-z
-x,y,-z
y,x,3/4-z
-y,-x,1/4-z
loop_
_atom_site_type_symbol
_atom_site_label
_atom_site_fract_x
_atom_site_fract_y
_atom_site_fract_z
Si Si1 0.342838 0.827105 0.826179
Si Si2 0.319032 0.832893 0.503093
Si Si3 0.660189 0.678511 0.666987
Si Si4 0.679349 0.665289 0.925593
Si Si5 0.181867 0.842907 0.995948
Si Si6 0.812173 0.664372 0.415529
O O1 0.215077 0.750585 0.794568
O O2 0.308725 0.783107 0.877245
O O3 0.510550 0.769093 0.810885
O O4 0.335238 0.009771 0.821303
O O5 0.500000 0.858709 0.500000
O O6 0.284366 0.705383 0.540368
O O7 0.241122 0.990885 0.519386
O O8 0.633714 0.502060 0.681401
O O9 0.716994 0.773986 0.709284
O O10 0.502528 0.753948 0.649365
O O11 0.716600 0.716600 0.875000
O O12 0.736940 0.802564 0.957100
O O13 0.000000 0.844880 0.000000
O O14 0.783189 0.783189 0.375000
#
# Coordination Sequence:
#
# PCOD8305044 Si02
#       6
#     8   8   8   8   8   8
#     4  11  24  42  65  94 126 163 211 266 321 380
#     4  12  25  43  65  91 126 169 214 262 322 388
#     4  11  23  42  67  93 127 170 216 260 317 393
#     4  10  22  42  65  92 124 167 215 259 314 386
#     4  12  25  41  63  95 131 167 211 268 328 380
#     4  12  24  42  66  95 129 166 213 267 324 385
#
# _framework density 21.363394
#
# number of rings (size 3 to 8) (size 9 to 14) (size 15 to 20)
#    0.000    0.667    0.000    9.500    0.000    5.333 
#    0.000    0.833    0.000    0.000    0.000    0.000 
#    0.000    0.000    0.000    0.000    0.000    0.000 
#
# Total GULP energy -595681.807509 kJ/mol
# GULP energy per Si atom -12410.037656 kJ/mol
# Density = 2.131477 g / cm^3
# Si number density = 21.363394 Si / 1000 Ang^3
#
#
#
# Elastic Constant Matrix: (Units=GPa)
#
#
# Indices 1 2 3 4 5 6 
#
# 1 98.3728 21.8979 37.4487 0.0000 0.0000 0.0000
# 2 21.8979 98.3728 37.4487 0.0000 0.0000 0.0000
# 3 37.4487 37.4487 92.1309 0.0000 0.0000 0.0000
# 4 0.0000 0.0000 0.0000 193.1977 0.0000 0.0000
# 5 0.0000 0.0000 0.0000 0.0000 193.1977 0.0000
# 6 0.0000 0.0000 0.0000 0.0000 0.0000 -34.9669
#
#
#
# Elastic Compliance Matrix: (Units=1/GPa)
#
#
# Indices 1 2 3 4 5 6 
#
# 1 0.012104 -0.000972 -0.004525 0.000000 0.000000 0.000000
# 2 -0.000972 0.012104 -0.004525 0.000000 0.000000 0.000000
# 3 -0.004525 -0.004525 0.014533 0.000000 0.000000 0.000000
# 4 0.000000 0.000000 0.000000 0.005176 0.000000 0.000000
# 5 0.000000 0.000000 0.000000 0.000000 0.005176 0.000000
# 6 0.000000 0.000000 0.000000 0.000000 0.000000 -0.028599
#
#
# Mechanical properties :
#
#
# Convention : Reuss Voigt Hill
#
# Bulk Modulus (GPa) = 53.48301 53.60746 53.54524
# Shear Modulus (GPa) = 106.90268 83.09112 94.99690
#
# Velocity S-wave (km/s) = 7.08158 6.24328 6.67560
# Velocity P-wave (km/s) = 9.58928 8.78175 9.19438
#
# Compressibility (1/GPa) = 0.01869753
#
# Stress axis : x y z
#
# Youngs Moduli (GPa) = 82.61487 82.61487 68.81009
#
# Poissons Ratio (x) = 0.08029 0.31137
# Poissons Ratio (y) = 0.08029 0.31137
# Poissons Ratio (z) = 0.37384 0.37384
#
# Static dielectric constant tensor:
#      x y z
#    x 3.879430 0.000000 0.000000 
#    y 0.000000 3.879430 0.000000 
#    z 0.000000 0.000000 3.625220 
# 
# 
# High freq. dielectric constant tensor:
#      x y z
#    x 1.847350 0.000000 0.000000 
#    y 0.000000 1.847350 0.000000 
#    z 0.000000 0.000000 1.848880 
# 
# From -- ./inp_files/22252.got.cif
#   From: 2010.03.12/outbox.cif.g09.slc.cpg/sg91_12_cif.got.tgz:22252.got - 2010.04.08 20:27:58.
