data_PCOD8305360
_publ_section_title
;
Structure prediction by ZEFSAII (Michael W. Deem and Ramdas Pophale) SiO2 
 PCOD8305360
Probable space group: P 41 21 2
;
_chemical_formula_sum "Si O2"
_cell_formula_units_Z 48
_cell_length_a 7.870118
_cell_length_b 7.870118
_cell_length_c 35.966630
_cell_angle_alpha 90.000000
_cell_angle_beta 90.000000
_cell_angle_gamma 90.000000
_cell_volume 2227.728368
_symmetry_space_group_name_H-M "P 41 21 2"
_symmetry_group_IT_number 92
_symmetry_cell_setting 'tetragonal'
loop_
_space_group_symop_operation_xyz
x,y,z
1/2-y,1/2+x,1/4+z
-x,-y,1/2+z
1/2+y,1/2-x,3/4+z
1/2+x,1/2-y,3/4-z
1/2-x,1/2+y,1/4-z
y,x,-z
-y,-x,1/2-z
loop_
_atom_site_type_symbol
_atom_site_label
_atom_site_fract_x
_atom_site_fract_y
_atom_site_fract_z
Si Si1 0.860984 0.331150 0.945565
Si Si2 0.748175 0.247030 0.423345
Si Si3 0.466198 0.947482 0.866117
Si Si4 0.398717 0.043981 0.190054
Si Si5 0.664136 0.396624 0.792246
Si Si6 0.989651 0.274320 0.267139
O O1 0.686943 0.231251 0.951578
O O2 0.885768 0.427020 0.984455
O O3 0.833701 0.459314 0.911245
O O4 0.028962 0.221143 0.936053
O O5 0.632921 0.201813 0.387464
O O6 0.883855 0.383919 0.410719
O O7 0.629700 0.321411 0.456780
O O8 0.845642 0.082125 0.439198
O O9 0.541344 0.081677 0.895512
O O10 0.582245 0.096562 0.207082
O O11 0.331928 0.859243 0.204193
O O12 0.599558 0.400443 0.750000
O O13 0.857648 0.142353 0.250000
#
# Coordination Sequence:
#
# PCOD8305360 Si02
#       6
#     8   8   8   8   8   8
#     4  12  25  40  74  99 130 189 224 286 361 410
#     4  10  24  46  68  99 137 184 233 289 356 424
#     4  10  26  44  65  99 139 184 230 282 352 427
#     4  10  26  46  63 102 142 178 237 287 356 432
#     4  10  21  46  68  96 136 171 231 292 350 414
#     4  10  24  45  68 103 133 175 240 292 351 424
#
# _framework density 21.546610999999999
#
# number of rings (size 3 to 8) (size 9 to 14) (size 15 to 20)
#    0.000    2.000    3.333    0.000   14.000    2.667 
#    0.000    0.000    0.000    0.000    0.000    0.000 
#    0.000    0.000    0.000    0.000    0.000    0.000 
#
# Total GULP energy -595036.695852 kJ/mol
# GULP energy per Si atom -12396.597830 kJ/mol
# Density = 2.149757 g / cm^3
# Si number density = 21.546611 Si / 1000 Ang^3
#
#
#
# Elastic Constant Matrix: (Units=GPa)
#
#
# Indices 1 2 3 4 5 6 
#
# 1 57.5490 24.1419 23.1699 0.0000 0.0000 0.0000
# 2 24.1419 57.5474 23.1693 0.0000 0.0000 0.0000
# 3 23.1699 23.1693 133.5205 0.0000 0.0000 0.0000
# 4 0.0000 0.0000 0.0000 32.1992 0.0000 0.0000
# 5 0.0000 0.0000 0.0000 0.0000 32.1996 0.0000
# 6 0.0000 0.0000 0.0000 0.0000 0.0000 39.1705
#
#
#
# Elastic Compliance Matrix: (Units=1/GPa)
#
#
# Indices 1 2 3 4 5 6 
#
# 1 0.021756 -0.008178 -0.002356 0.000000 0.000000 0.000000
# 2 -0.008178 0.021756 -0.002356 0.000000 0.000000 0.000000
# 3 -0.002356 -0.002356 0.008307 0.000000 0.000000 0.000000
# 4 0.000000 0.000000 0.000000 0.031057 0.000000 0.000000
# 5 0.000000 0.000000 0.000000 0.000000 0.031056 0.000000
# 6 0.000000 0.000000 0.000000 0.000000 0.000000 0.025529
#
#
# Mechanical properties :
#
#
# Convention : Reuss Voigt Hill
#
# Bulk Modulus (GPa) = 38.40477 43.28656 40.84566
# Shear Modulus (GPa) = 28.74841 32.58958 30.66900
#
# Velocity S-wave (km/s) = 3.65669 3.89333 3.77686
# Velocity P-wave (km/s) = 5.97422 6.35169 6.16584
#
# Compressibility (1/GPa) = 0.02603843
#
# Stress axis : x y z
#
# Youngs Moduli (GPa) = 45.96445 45.96328 120.37740
#
# Poissons Ratio (x) = 0.37590 0.28363
# Poissons Ratio (y) = 0.37591 0.28363
# Poissons Ratio (z) = 0.10830 0.10830
#
# Static dielectric constant tensor:
#      x y z
#    x 3.714570 0.000000 0.000000 
#    y 0.000000 3.714570 0.000000 
#    z 0.000000 0.000000 4.067850 
# 
# 
# High freq. dielectric constant tensor:
#      x y z
#    x 1.832370 0.000000 0.000000 
#    y 0.000000 1.832380 0.000000 
#    z 0.000000 0.000000 1.868890 
# 
# From -- ./inp_files/4494.got.cif
#   From: 2010.03.12/outbox.cif.g09.slc.cpg/sg92_3_cif.got.tgz:4494.got - 2010.04.08 20:41:11.
