data_PCOD8305706
_publ_section_title
;
Structure prediction by ZEFSAII (Michael W. Deem and Ramdas Pophale) SiO2 
 PCOD8305706
Probable space group: P 42 21 2
;
_chemical_formula_sum "Si O2"
_cell_formula_units_Z 48
_cell_length_a 19.094729
_cell_length_b 19.094729
_cell_length_c 5.315915
_cell_angle_alpha 90.000000
_cell_angle_beta 90.000000
_cell_angle_gamma 90.000000
_cell_volume 1938.228728
_symmetry_space_group_name_H-M "P 42 21 2"
_symmetry_group_IT_number 94
_symmetry_cell_setting 'tetragonal'
loop_
_space_group_symop_operation_xyz
x,y,z
1/2-y,1/2+x,1/2+z
-x,-y,z
1/2+y,1/2-x,1/2+z
1/2+x,1/2-y,1/2-z
1/2-x,1/2+y,1/2-z
y,x,-z
-y,-x,-z
loop_
_atom_site_type_symbol
_atom_site_label
_atom_site_fract_x
_atom_site_fract_y
_atom_site_fract_z
Si Si1 0.809242 0.964101 0.051399
Si Si2 0.617488 0.139755 0.160561
Si Si3 0.020184 0.670315 0.098043
Si Si4 0.230349 0.374310 0.962684
Si Si5 0.970171 0.139168 0.459408
Si Si6 0.250323 0.163550 0.305108
O O1 0.852462 0.978938 0.303024
O O2 0.785768 0.881493 0.075682
O O3 0.743039 0.016310 0.055805
O O4 0.852893 0.982201 0.795112
O O5 0.558655 0.145302 0.369164
O O6 0.696456 0.146261 0.269789
O O7 0.610294 0.061845 0.048971
O O8 0.607489 0.201408 0.956611
O O9 0.062570 0.682677 0.355258
O O10 0.309088 0.402770 0.969213
O O11 0.224765 0.301980 0.799766
O O12 0.938316 0.061684 0.500000
O O13 0.194092 0.194092 0.500000
#
# Coordination Sequence:
#
# PCOD8305706 Si02
#       6
#     8   8   8   8   8   8
#     4  11  22  44  66  98 138 188 226 287 369 432
#     4  11  22  41  64  90 137 182 244 288 352 414
#     4  10  22  39  64  86 132 190 230 285 344 408
#     4  10  22  38  62  95 136 180 226 297 348 415
#     4  11  24  41  70 101 138 181 238 290 357 427
#     4  11  25  40  67 101 138 183 231 296 367 438
#
# _framework density 24.764878
#
# number of rings (size 3 to 8) (size 9 to 14) (size 15 to 20)
#    0.000    1.333    3.333    2.500    2.333    0.000 
#    0.000    2.500    0.000    0.500    0.000    4.667 
#    0.000    0.000    0.000    0.000    0.000    0.000 
#
# Total GULP energy -594752.437335 kJ/mol
# GULP energy per Si atom -12390.675778 kJ/mol
# Density = 2.470851 g / cm^3
# Si number density = 24.764878 Si / 1000 Ang^3
#
#
#
# Elastic Constant Matrix: (Units=GPa)
#
#
# Indices 1 2 3 4 5 6 
#
# 1 38.0818 58.8980 21.5632 0.0000 0.0000 0.0000
# 2 58.8980 38.0851 21.5632 0.0000 0.0000 0.0000
# 3 21.5632 21.5632 121.4356 0.0000 0.0000 0.0000
# 4 0.0000 0.0000 0.0000 36.6973 0.0000 0.0000
# 5 0.0000 0.0000 0.0000 0.0000 36.6979 0.0000
# 6 0.0000 0.0000 0.0000 0.0000 0.0000 30.7574
#
#
#
# Elastic Compliance Matrix: (Units=1/GPa)
#
#
# Indices 1 2 3 4 5 6 
#
# 1 -0.018425 0.029619 -0.001988 0.000000 0.000000 0.000000
# 2 0.029619 -0.018423 -0.001988 0.000000 0.000000 0.000000
# 3 -0.001988 -0.001988 0.008941 0.000000 0.000000 0.000000
# 4 0.000000 0.000000 0.000000 0.027250 0.000000 0.000000
# 5 0.000000 0.000000 0.000000 0.000000 0.027250 0.000000
# 6 0.000000 0.000000 0.000000 0.000000 0.000000 0.032512
#
#
# Mechanical properties :
#
#
# Convention : Reuss Voigt Hill
#
# Bulk Modulus (GPa) = 42.77235 44.62793 43.70014
# Shear Modulus (GPa) = 320.28610 27.20241 173.74425
#
# Velocity S-wave (km/s) = 11.38471 3.31785 8.38510
# Velocity P-wave (km/s) = 13.78856 5.72165 10.55608
#
# Compressibility (1/GPa) = 0.02337959
#
# Stress axis : x y z
#
# Youngs Moduli (GPa) = -54.27441 -54.27953 111.84666
#
# Poissons Ratio (x) = 1.60772 0.22233
# Poissons Ratio (y) = 1.60757 0.22236
# Poissons Ratio (z) = -0.10788 -0.10791
#
# Static dielectric constant tensor:
#      x y z
#    x 4.236570 0.000000 0.000000 
#    y 0.000000 4.236560 0.000000 
#    z 0.000000 0.000000 4.484370 
# 
# 
# High freq. dielectric constant tensor:
#      x y z
#    x 1.973440 0.000000 0.000000 
#    y 0.000000 1.973440 0.000000 
#    z 0.000000 0.000000 1.990060 
# 
# From -- ./inp_files/527.got.cif
#   From: 2010.03.12/outbox.cif.g09.slc.cpg/sg94_1_cif.got.tgz:527.got - 2010.04.08 20:48:32.
