data_PCOD8305969
_publ_section_title
;
Structure prediction by ZEFSAII (Michael W. Deem and Ramdas Pophale) SiO2 
 PCOD8305969
Probable space group: P 43 21 2
;
_chemical_formula_sum "Si O2"
_cell_formula_units_Z 48
_cell_length_a 8.169631
_cell_length_b 8.169631
_cell_length_c 32.310845
_cell_angle_alpha 90.000000
_cell_angle_beta 90.000000
_cell_angle_gamma 90.000000
_cell_volume 2156.518549
_symmetry_space_group_name_H-M "P 43 21 2"
_symmetry_group_IT_number 96
_symmetry_cell_setting 'tetragonal'
loop_
_space_group_symop_operation_xyz
x,y,z
1/2-y,1/2+x,3/4+z
-x,-y,1/2+z
1/2+y,1/2-x,1/4+z
1/2+x,1/2-y,1/4-z
1/2-x,1/2+y,3/4-z
y,x,-z
-y,-x,1/2-z
loop_
_atom_site_type_symbol
_atom_site_label
_atom_site_fract_x
_atom_site_fract_y
_atom_site_fract_z
Si Si1 0.349022 0.150744 0.532782
Si Si2 0.999845 0.270160 0.089741
Si Si3 0.846926 0.990647 0.538165
Si Si4 0.675079 0.329096 0.556090
Si Si5 0.944919 0.400002 0.260792
Si Si6 0.477045 0.245476 0.864293
O O1 0.231924 0.231924 0.500000
O O2 0.492456 0.276320 0.545082
O O3 0.255431 0.088422 0.573496
O O4 0.405374 0.989475 0.510033
O O5 0.982052 0.367122 0.046352
O O6 0.069918 0.405599 0.121662
O O7 0.098890 0.101221 0.080050
O O8 0.834540 0.198505 0.108709
O O9 0.799356 0.176504 0.549580
O O10 0.693183 0.877615 0.523954
O O11 0.981170 0.981170 0.500000
O O12 0.729119 0.483056 0.527597
O O13 0.676716 0.398647 0.602542
#
# Coordination Sequence:
#
# PCOD8305969 Si02
#       6
#     8   8   8   8   8   8
#     4  11  27  42  66 102 134 174 219 285 347 397
#     4  10  24  43  65  95 127 184 223 270 332 407
#     4   9  20  40  69  95 126 179 223 275 332 404
#     4  10  24  44  65 100 135 174 223 284 339 405
#     4   9  22  42  66  91 131 171 230 268 328 411
#     4  11  27  43  68 101 137 180 226 284 341 409
#
# _framework density 22.258095000000001
#
# number of rings (size 3 to 8) (size 9 to 14) (size 15 to 20)
#    0.000    2.000    0.000    0.000   16.333    6.000 
#    0.000    0.000    0.000    0.000    0.000    0.000 
#    0.000    0.000    0.000    0.000    0.000    0.000 
#
# Total GULP energy -594706.798873 kJ/mol
# GULP energy per Si atom -12389.724977 kJ/mol
# Density = 2.220743 g / cm^3
# Si number density = 22.258095 Si / 1000 Ang^3
#
#
#
# Elastic Constant Matrix: (Units=GPa)
#
#
# Indices 1 2 3 4 5 6 
#
# 1 52.7387 5.0027 27.4940 0.0000 0.0000 0.0000
# 2 5.0027 52.7387 27.4940 0.0000 0.0000 0.0000
# 3 27.4940 27.4940 104.2367 0.0000 0.0000 0.0000
# 4 0.0000 0.0000 0.0000 33.3234 0.0000 0.0000
# 5 0.0000 0.0000 0.0000 0.0000 33.3234 0.0000
# 6 0.0000 0.0000 0.0000 0.0000 0.0000 48.7685
#
#
#
# Elastic Compliance Matrix: (Units=1/GPa)
#
#
# Indices 1 2 3 4 5 6 
#
# 1 0.022038 0.001090 -0.006100 0.000000 0.000000 0.000000
# 2 0.001090 0.022038 -0.006100 0.000000 0.000000 0.000000
# 3 -0.006100 -0.006100 0.012812 0.000000 0.000000 0.000000
# 4 0.000000 0.000000 0.000000 0.030009 0.000000 0.000000
# 5 0.000000 0.000000 0.000000 0.000000 0.030009 0.000000
# 6 0.000000 0.000000 0.000000 0.000000 0.000000 0.020505
#
#
# Mechanical properties :
#
#
# Convention : Reuss Voigt Hill
#
# Bulk Modulus (GPa) = 28.84642 36.63282 32.73962
# Shear Modulus (GPa) = 29.20755 33.06463 31.13609
#
# Velocity S-wave (km/s) = 3.62639 3.85841 3.74420
# Velocity P-wave (km/s) = 5.52471 6.02858 5.78213
#
# Compressibility (1/GPa) = 0.03466635
#
# Stress axis : x y z
#
# Youngs Moduli (GPa) = 45.37552 45.37552 78.05381
#
# Poissons Ratio (x) = -0.04945 0.47616
# Poissons Ratio (y) = -0.04945 0.47616
# Poissons Ratio (z) = 0.27681 0.27681
#
# Static dielectric constant tensor:
#      x y z
#    x 3.820040 0.000000 0.000000 
#    y 0.000000 3.820040 0.000000 
#    z 0.000000 0.000000 4.086950 
# 
# 
# High freq. dielectric constant tensor:
#      x y z
#    x 1.873500 0.000000 0.000000 
#    y 0.000000 1.873500 0.000000 
#    z 0.000000 0.000000 1.881200 
# 
# From -- ./inp_files/4480.got.cif
#   From: 2010.03.12/outbox.cif.g09.slc.cpg/sg96_3_cif.got.tgz:4480.got - 2010.04.08 20:56:49.
