data_PCOD8305544
_publ_section_title
;
Structure prediction by ZEFSAII (Michael W. Deem and Ramdas Pophale) SiO2 
 PCOD8305544
Probable space group: P 42 2 2
;
_chemical_formula_sum "Si O2"
_cell_formula_units_Z 56
_cell_length_a 11.825743
_cell_length_b 11.825743
_cell_length_c 19.172428
_cell_angle_alpha 90.000000
_cell_angle_beta 90.000000
_cell_angle_gamma 90.000000
_cell_volume 2681.229498
_symmetry_space_group_name_H-M "P 42 2 2"
_symmetry_group_IT_number 93
_symmetry_cell_setting 'tetragonal'
loop_
_space_group_symop_operation_xyz
x,y,z
-y,x,1/2+z
-x,-y,z
y,-x,1/2+z
x,-y,-z
-x,y,-z
y,x,1/2-z
-y,-x,1/2-z
loop_
_atom_site_type_symbol
_atom_site_label
_atom_site_fract_x
_atom_site_fract_y
_atom_site_fract_z
Si Si1 0.139133 0.772271 0.177020
Si Si2 0.377504 0.116383 0.142559
Si Si3 0.613540 0.940871 0.302582
Si Si4 0.062480 0.226980 0.568080
Si Si5 0.436062 0.787915 0.066743
Si Si6 0.641010 0.693079 0.329647
Si Si7 0.345214 0.611478 0.170070
O O1 0.171751 0.828250 0.250000
O O2 0.138636 0.867509 0.115863
O O3 0.220410 0.665107 0.161904
O O4 0.013627 0.725006 0.182660
O O5 0.401589 0.087073 0.221770
O O6 0.496205 0.106287 0.101377
O O7 0.347185 0.249135 0.127958
O O8 0.280356 0.034964 0.115360
O O9 0.633359 0.826321 0.343820
O O10 0.500000 0.000000 0.330390
O O11 0.155705 0.318367 0.543066
O O12 0.000000 0.172688 0.500000
O O13 0.427882 0.686519 0.122723
O O14 0.500000 0.737905 0.000000
O O15 0.660489 0.660489 0.250000
O O16 0.519020 0.645139 0.354940
O O17 0.384036 0.615965 0.250000
#
# Coordination Sequence:
#
# PCOD8305544 Si02
#       7
#     8   8   8   8   8   8   8
#     4  10  20  34  60  95 121 159 215 275 320 374
#     4  11  22  34  55  89 126 166 205 260 323 386
#     4  11  19  36  63  88 121 161 215 271 323 378
#     4  11  21  37  61  88 126 163 210 264 327 390
#     4  11  22  35  60  93 125 171 219 257 316 396
#     4  10  22  36  56  87 124 170 207 258 331 392
#     4  10  20  36  56  88 128 168 209 257 321 388
#
# _framework density 20.885940000000002
#
# number of rings (size 3 to 8) (size 9 to 14) (size 15 to 20)
#    0.000    1.429    4.286    3.000    2.000    2.000 
#    0.000    2.143    0.000    1.714    0.000    1.000 
#    0.000    0.000    0.000    0.000    0.000    0.143 
#
# Total GULP energy -694127.635272 kJ/mol
# GULP energy per Si atom -12395.136344 kJ/mol
# Density = 2.083840 g / cm^3
# Si number density = 20.885940 Si / 1000 Ang^3
#
#
#
# Elastic Constant Matrix: (Units=GPa)
#
#
# Indices 1 2 3 4 5 6 
#
# 1 109.0504 30.9815 25.8056 0.0000 0.0000 0.0000
# 2 30.9815 109.0505 25.8058 0.0000 0.0000 0.0000
# 3 25.8056 25.8058 82.0428 0.0000 0.0000 0.0000
# 4 0.0000 0.0000 0.0000 27.9926 0.0000 0.0000
# 5 0.0000 0.0000 0.0000 0.0000 27.9926 0.0000
# 6 0.0000 0.0000 0.0000 0.0000 0.0000 24.7840
#
#
#
# Elastic Compliance Matrix: (Units=1/GPa)
#
#
# Indices 1 2 3 4 5 6 
#
# 1 0.010443 -0.002366 -0.002541 0.000000 0.000000 0.000000
# 2 -0.002366 0.010443 -0.002541 0.000000 0.000000 0.000000
# 3 -0.002541 -0.002541 0.013787 0.000000 0.000000 0.000000
# 4 0.000000 0.000000 0.000000 0.035724 0.000000 0.000000
# 5 0.000000 0.000000 0.000000 0.000000 0.035724 0.000000
# 6 0.000000 0.000000 0.000000 0.000000 0.000000 0.040349
#
#
# Mechanical properties :
#
#
# Convention : Reuss Voigt Hill
#
# Bulk Modulus (GPa) = 50.55754 51.70327 51.13041
# Shear Modulus (GPa) = 29.76942 30.65724 30.21333
#
# Velocity S-wave (km/s) = 3.77945 3.83540 3.80753
# Velocity P-wave (km/s) = 6.58063 6.66502 6.62296
#
# Compressibility (1/GPa) = 0.01977944
#
# Stress axis : x y z
#
# Youngs Moduli (GPa) = 95.75407 95.75407 72.53170
#
# Poissons Ratio (x) = 0.22653 0.18428
# Poissons Ratio (y) = 0.22653 0.18429
# Poissons Ratio (z) = 0.24329 0.24329
#
# Static dielectric constant tensor:
#      x y z
#    x 3.877060 0.000000 0.000000 
#    y 0.000000 3.877060 0.000000 
#    z 0.000000 0.000000 3.542010 
# 
# 
# High freq. dielectric constant tensor:
#      x y z
#    x 1.819150 0.000000 0.000000 
#    y 0.000000 1.819150 0.000000 
#    z 0.000000 0.000000 1.787010 
# 
# From -- ./inp_files/6274.got.cif
#   From: 2010.03.12/outbox.cif.g09.slc.cpg/sg93_4_cif.got.tgz:6274.got - 2010.04.08 20:44:19.
