data_PCOD8305054
_publ_section_title
;
Structure prediction by ZEFSAII (Michael W. Deem and Ramdas Pophale) SiO2 
 PCOD8305054
Probable space group: P 41 2 2
;
_chemical_formula_sum "Si O2"
_cell_formula_units_Z 40
_cell_length_a 13.176008
_cell_length_b 13.176008
_cell_length_c 10.313211
_cell_angle_alpha 90.000000
_cell_angle_beta 90.000000
_cell_angle_gamma 90.000000
_cell_volume 1790.447549
_symmetry_space_group_name_H-M "P 41 2 2"
_symmetry_group_IT_number 91
_symmetry_cell_setting 'tetragonal'
loop_
_space_group_symop_operation_xyz
x,y,z
-y,x,1/4+z
-x,-y,1/2+z
y,-x,3/4+z
x,-y,1/2-z
-x,y,-z
y,x,3/4-z
-y,-x,1/4-z
loop_
_atom_site_type_symbol
_atom_site_label
_atom_site_fract_x
_atom_site_fract_y
_atom_site_fract_z
Si Si1 0.014141 0.611272 0.262091
Si Si2 0.909933 0.000000 0.750000
Si Si3 0.642583 0.792596 0.554912
Si Si4 0.000000 0.728453 0.500000
Si Si5 0.500000 0.393134 0.000000
Si Si6 0.269402 0.135296 0.301772
Si Si7 0.185074 0.185074 0.875000
O O1 0.063163 0.500000 0.250000
O O2 0.890526 0.599257 0.274228
O O3 0.058061 0.657045 0.396157
O O4 0.046718 0.682826 0.141705
O O5 0.834127 0.095870 0.768737
O O6 0.981700 0.018301 0.625000
O O7 0.587065 0.684717 0.544806
O O8 0.644659 0.828217 0.703245
O O9 0.754942 0.774763 0.500461
O O10 0.068201 0.800133 0.590237
O O11 0.538086 0.461915 0.125000
O O12 0.237915 0.237915 0.375000
#
# Coordination Sequence:
#
# PCOD8305054 Si02
#       7
#     8   4   8   4   4   8   4
#     4  11  23  40  71 105 136 186 246 302 363 436
#     4  10  22  43  65 100 148 202 246 289 345 422
#     4  11  22  44  73  99 140 184 234 306 368 429
#     4  10  24  41  69 104 146 192 248 299 361 440
#     4  12  28  52  80 108 144 190 242 314 402 470
#     4  11  23  43  67  99 148 190 234 298 363 427
#     4  10  22  44  70 102 146 194 244 298 358 436
#
# _framework density 22.340782000000001
#
# number of rings (size 3 to 8) (size 9 to 14) (size 15 to 20)
#    0.000    1.200    4.000    1.200    2.800    0.800 
#    5.400    4.000   17.600    0.000    0.000    0.000 
#    0.000    0.000    0.000    0.000    0.000    0.000 
#
# Total GULP energy -495603.750291 kJ/mol
# GULP energy per Si atom -12390.093757 kJ/mol
# Density = 2.228993 g / cm^3
# Si number density = 22.340782 Si / 1000 Ang^3
#
#
#
# Elastic Constant Matrix: (Units=GPa)
#
#
# Indices 1 2 3 4 5 6 
#
# 1 92.0184 48.5195 52.6255 0.0000 0.0000 0.0000
# 2 48.5195 92.0182 52.6254 0.0000 0.0000 0.0000
# 3 52.6255 52.6254 151.2110 0.0000 0.0000 0.0000
# 4 0.0000 0.0000 0.0000 34.2861 0.0000 0.0000
# 5 0.0000 0.0000 0.0000 0.0000 34.2860 0.0000
# 6 0.0000 0.0000 0.0000 0.0000 0.0000 25.4864
#
#
#
# Elastic Compliance Matrix: (Units=1/GPa)
#
#
# Indices 1 2 3 4 5 6 
#
# 1 0.016306 -0.006683 -0.003349 0.000000 0.000000 0.000000
# 2 -0.006683 0.016307 -0.003349 0.000000 0.000000 0.000000
# 3 -0.003349 -0.003349 0.008945 0.000000 0.000000 0.000000
# 4 0.000000 0.000000 0.000000 0.029166 0.000000 0.000000
# 5 0.000000 0.000000 0.000000 0.000000 0.029166 0.000000
# 6 0.000000 0.000000 0.000000 0.000000 0.000000 0.039237
#
#
# Mechanical properties :
#
#
# Convention : Reuss Voigt Hill
#
# Bulk Modulus (GPa) = 67.59064 71.42093 69.50579
# Shear Modulus (GPa) = 29.27036 30.91020 30.09028
#
# Velocity S-wave (km/s) = 3.62356 3.72368 3.67396
# Velocity P-wave (km/s) = 6.91571 7.10816 7.01260
#
# Compressibility (1/GPa) = 0.01479495
#
# Stress axis : x y z
#
# Youngs Moduli (GPa) = 61.32524 61.32514 111.79896
#
# Poissons Ratio (x) = 0.40981 0.37446
# Poissons Ratio (y) = 0.40981 0.37446
# Poissons Ratio (z) = 0.20540 0.20540
#
# Static dielectric constant tensor:
#      x y z
#    x 3.925860 0.000000 0.000000 
#    y 0.000000 3.925860 0.000000 
#    z 0.000000 0.000000 4.215250 
# 
# 
# High freq. dielectric constant tensor:
#      x y z
#    x 1.867300 0.000000 0.000000 
#    y 0.000000 1.867300 0.000000 
#    z 0.000000 0.000000 1.887530 
# 
# From -- ./inp_files/19491.got.cif
#   From: 2010.03.12/outbox.cif.g09.slc.cpg/sg91_10_cif.got.tgz:19491.got - 2010.04.08 20:27:58.
