data_PCOD8305601
_publ_section_title
;
Structure prediction by ZEFSAII (Michael W. Deem and Ramdas Pophale) SiO2 
 PCOD8305601
Probable space group: P 42 2 2
;
_chemical_formula_sum "Si O2"
_cell_formula_units_Z 34
_cell_length_a 11.307805
_cell_length_b 11.307805
_cell_length_c 14.054703
_cell_angle_alpha 90.000000
_cell_angle_beta 90.000000
_cell_angle_gamma 90.000000
_cell_volume 1797.125033
_symmetry_space_group_name_H-M "P 42 2 2"
_symmetry_group_IT_number 93
_symmetry_cell_setting 'tetragonal'
loop_
_space_group_symop_operation_xyz
x,y,z
-y,x,1/2+z
-x,-y,z
y,-x,1/2+z
x,-y,-z
-x,y,-z
y,x,1/2-z
-y,-x,1/2-z
loop_
_atom_site_type_symbol
_atom_site_label
_atom_site_fract_x
_atom_site_fract_y
_atom_site_fract_z
Si Si1 0.334661 0.858450 0.495443
Si Si2 0.138728 0.497501 0.355974
Si Si3 0.500000 0.500000 0.750000
Si Si4 0.138163 0.693411 0.496089
Si Si5 0.752236 0.501535 0.152776
O O1 0.197084 0.823445 0.497365
O O2 0.391571 0.789994 0.584481
O O3 0.384198 0.801547 0.398160
O O4 0.354121 0.000000 0.500000
O O5 0.181121 0.621140 0.402422
O O6 0.183717 0.383945 0.414592
O O7 0.179785 0.482556 0.250031
O O8 0.000000 0.500000 0.363216
O O9 0.501483 0.612237 0.677916
O O10 0.000000 0.717400 0.500000
#
# Coordination Sequence:
#
# PCOD8305601 Si02
#       5
#     8   8   2   8   8
#     4  11  23  37  54  77 111 151 181 213 261 322
#     4   9  17  35  60  81 107 144 181 224 275 322
#     4  12  24  34  60  88 104 134 168 230 288 316
#     4   9  19  34  56  83 107 139 186 231 267 309
#     4  11  22  37  55  81 110 138 174 214 273 336
#
# _framework density 18.919107
#
# number of rings (size 3 to 8) (size 9 to 14) (size 15 to 20)
#    0.000    1.882    0.000    7.059    0.000    4.235 
#    0.000    0.000    0.000    0.000    0.000    6.588 
#    0.000    0.000    0.000    0.000    0.000    0.000 
#
# Total GULP energy -421252.741253 kJ/mol
# GULP energy per Si atom -12389.786507 kJ/mol
# Density = 1.887605 g / cm^3
# Si number density = 18.919107 Si / 1000 Ang^3
#
#
#
# Elastic Constant Matrix: (Units=GPa)
#
#
# Indices 1 2 3 4 5 6 
#
# 1 174.3056 -9.5277 26.5914 0.0000 0.0000 0.0000
# 2 -9.5277 174.3056 26.5914 0.0000 0.0000 0.0000
# 3 26.5914 26.5914 97.2689 0.0000 0.0000 0.0000
# 4 0.0000 0.0000 0.0000 16.7003 0.0000 0.0000
# 5 0.0000 0.0000 0.0000 0.0000 16.7003 0.0000
# 6 0.0000 0.0000 0.0000 0.0000 0.0000 30.3082
#
#
#
# Elastic Compliance Matrix: (Units=1/GPa)
#
#
# Indices 1 2 3 4 5 6 
#
# 1 0.006048 0.000608 -0.001820 0.000000 0.000000 0.000000
# 2 0.000608 0.006048 -0.001820 0.000000 0.000000 0.000000
# 3 -0.001820 -0.001820 0.011276 0.000000 0.000000 0.000000
# 4 0.000000 0.000000 0.000000 0.059879 0.000000 0.000000
# 5 0.000000 0.000000 0.000000 0.000000 0.059879 0.000000
# 6 0.000000 0.000000 0.000000 0.000000 0.000000 0.032994
#
#
# Mechanical properties :
#
#
# Convention : Reuss Voigt Hill
#
# Bulk Modulus (GPa) = 57.77252 59.24338 58.50795
# Shear Modulus (GPa) = 26.60195 39.55676 33.07935
#
# Velocity S-wave (km/s) = 3.75385 4.57753 4.18600
# Velocity P-wave (km/s) = 7.02790 7.70197 7.37265
#
# Compressibility (1/GPa) = 0.01730927
#
# Stress axis : x y z
#
# Youngs Moduli (GPa) = 165.34692 165.34692 88.68642
#
# Poissons Ratio (x) = -0.10056 0.16138
# Poissons Ratio (y) = -0.10056 0.16138
# Poissons Ratio (z) = 0.30087 0.30087
#
# Static dielectric constant tensor:
#      x y z
#    x 3.515080 0.000000 0.000000 
#    y 0.000000 3.515080 0.000000 
#    z 0.000000 0.000000 3.475770 
# 
# 
# High freq. dielectric constant tensor:
#      x y z
#    x 1.732630 0.000000 0.000000 
#    y 0.000000 1.732630 0.000000 
#    z 0.000000 0.000000 1.743350 
# 
# From -- ./inp_files/4267.got.cif
#   From: 2010.03.12/outbox.cif.g09.slc.cpg/sg93_3_cif.got.tgz:4267.got - 2010.04.08 20:44:19.
