data_PCOD8305802
_publ_section_title
;
Structure prediction by ZEFSAII (Michael W. Deem and Ramdas Pophale) SiO2 
 PCOD8305802
Probable space group: P 42 21 2
;
_chemical_formula_sum "Si O2"
_cell_formula_units_Z 20
_cell_length_a 8.000172
_cell_length_b 8.000172
_cell_length_c 12.203857
_cell_angle_alpha 90.000000
_cell_angle_beta 90.000000
_cell_angle_gamma 90.000000
_cell_volume 781.080433
_symmetry_space_group_name_H-M "P 42 21 2"
_symmetry_group_IT_number 94
_symmetry_cell_setting 'tetragonal'
loop_
_space_group_symop_operation_xyz
x,y,z
1/2-y,1/2+x,1/2+z
-x,-y,z
1/2+y,1/2-x,1/2+z
1/2+x,1/2-y,1/2-z
1/2-x,1/2+y,1/2-z
y,x,-z
-y,-x,-z
loop_
_atom_site_type_symbol
_atom_site_label
_atom_site_fract_x
_atom_site_fract_y
_atom_site_fract_z
Si Si1 0.793367 0.206634 0.000000
Si Si2 0.327601 0.596418 0.815380
Si Si3 0.152510 0.292065 0.900687
O O1 0.754140 0.331014 0.101764
O O2 0.759776 0.022838 0.045862
O O3 0.500000 0.500000 0.824742
O O4 0.170000 0.477979 0.849637
O O5 0.299714 0.657597 0.692152
O O6 0.284685 0.284685 0.000000
#
# Coordination Sequence:
#
# PCOD8305802 Si02
#       3
#     4   8   8
#     4  12  26  46  74 110 148 200 256 318 392 468
#     4  12  26  46  73 109 150 197 258 320 391 472
#     4  12  25  47  76 106 150 198 255 320 391 472
#
# _framework density 25.605554999999999
#
# number of rings (size 3 to 8) (size 9 to 14) (size 15 to 20)
#    0.000    0.000    0.000   12.000    0.000    0.000 
#    0.000   20.000    0.000    0.000    0.000    0.000 
#    0.000    0.000    0.000    0.000    0.000    0.000 
#
# Total GULP energy -247934.576802 kJ/mol
# GULP energy per Si atom -12396.728840 kJ/mol
# Density = 2.554728 g / cm^3
# Si number density = 25.605555 Si / 1000 Ang^3
#
#
#
# Elastic Constant Matrix: (Units=GPa)
#
#
# Indices 1 2 3 4 5 6 
#
# 1 85.8421 67.5340 78.9291 0.0000 0.0000 0.0000
# 2 67.5340 85.8432 78.9283 0.0000 0.0000 0.0000
# 3 78.9291 78.9283 243.9914 0.0000 0.0000 0.0000
# 4 0.0000 0.0000 0.0000 51.9986 0.0000 0.0000
# 5 0.0000 0.0000 0.0000 0.0000 51.9982 0.0000
# 6 0.0000 0.0000 0.0000 0.0000 0.0000 41.0813
#
#
#
# Elastic Compliance Matrix: (Units=1/GPa)
#
#
# Indices 1 2 3 4 5 6 
#
# 1 0.032197 -0.022422 -0.003162 0.000000 0.000000 0.000000
# 2 -0.022422 0.032196 -0.003162 0.000000 0.000000 0.000000
# 3 -0.003162 -0.003162 0.006144 0.000000 0.000000 0.000000
# 4 0.000000 0.000000 0.000000 0.019231 0.000000 0.000000
# 5 0.000000 0.000000 0.000000 0.000000 0.019231 0.000000
# 6 0.000000 0.000000 0.000000 0.000000 0.000000 0.024342
#
#
# Mechanical properties :
#
#
# Convention : Reuss Voigt Hill
#
# Bulk Modulus (GPa) = 76.65751 96.27327 86.46539
# Shear Modulus (GPa) = 25.61707 41.70130 33.65919
#
# Velocity S-wave (km/s) = 3.16642 4.03997 3.62957
# Velocity P-wave (km/s) = 6.58568 7.70987 7.16984
#
# Compressibility (1/GPa) = 0.01304504
#
# Stress axis : x y z
#
# Youngs Moduli (GPa) = 31.05885 31.05969 162.75689
#
# Poissons Ratio (x) = 0.69643 0.51464
# Poissons Ratio (y) = 0.69641 0.51457
# Poissons Ratio (z) = 0.09821 0.09820
#
# Static dielectric constant tensor:
#      x y z
#    x 4.793270 0.000000 0.000000 
#    y 0.000000 4.793300 0.000000 
#    z 0.000000 0.000000 5.494310 
# 
# 
# High freq. dielectric constant tensor:
#      x y z
#    x 2.024210 0.000000 0.000000 
#    y 0.000000 2.024210 0.000000 
#    z 0.000000 0.000000 2.053920 
# 
# From -- ./inp_files/1914.got.cif
#   From: 2010.03.12/outbox.cif.g09.slc.cpg/sg94_1_cif.got.tgz:1914.got - 2010.04.08 20:48:32.
