data_PCOD8305208
_publ_section_title
;
Structure prediction by ZEFSAII (Michael W. Deem and Ramdas Pophale) SiO2 
 PCOD8305208
Probable space group: P 41 21 2
;
_chemical_formula_sum "Si O2"
_cell_formula_units_Z 24
_cell_length_a 12.056589
_cell_length_b 12.056589
_cell_length_c 6.331313
_cell_angle_alpha 90.000000
_cell_angle_beta 90.000000
_cell_angle_gamma 90.000000
_cell_volume 920.328131
_symmetry_space_group_name_H-M "P 41 21 2"
_symmetry_group_IT_number 92
_symmetry_cell_setting 'tetragonal'
loop_
_space_group_symop_operation_xyz
x,y,z
1/2-y,1/2+x,1/4+z
-x,-y,1/2+z
1/2+y,1/2-x,3/4+z
1/2+x,1/2-y,3/4-z
1/2-x,1/2+y,1/4-z
y,x,-z
-y,-x,1/2-z
loop_
_atom_site_type_symbol
_atom_site_label
_atom_site_fract_x
_atom_site_fract_y
_atom_site_fract_z
Si Si1 0.773162 0.053333 0.806553
Si Si2 0.191510 0.239242 0.753076
Si Si3 0.118393 0.404900 0.324692
O O1 0.891320 0.108681 0.750000
O O2 0.716491 0.127776 0.991105
O O3 0.687753 0.043134 0.614079
O O4 0.790996 0.924828 0.861233
O O5 0.287283 0.176944 0.613403
O O6 0.198131 0.198131 0.000000
O O7 0.119233 0.490795 0.516885
#
# Coordination Sequence:
#
# PCOD8305208 Si02
#       3
#     8   8   8
#     4   9  16  28  52  80  98 135 186 226 259 330
#     4   9  17  29  53  78 100 140 185 225 267 331
#     4  10  18  32  57  80 103 145 190 229 271 340
#
# _framework density 26.077653999999999
#
# number of rings (size 3 to 8) (size 9 to 14) (size 15 to 20)
#    0.000    3.333    6.667    0.000    0.000    0.000 
#    0.000    0.000   22.000    0.000    0.000    0.000 
#    0.000    0.000    0.000    0.000    0.000    0.000 
#
# Total GULP energy -297382.722995 kJ/mol
# GULP energy per Si atom -12390.946791 kJ/mol
# Density = 2.601830 g / cm^3
# Si number density = 26.077654 Si / 1000 Ang^3
#
#
#
# Elastic Constant Matrix: (Units=GPa)
#
#
# Indices 1 2 3 4 5 6 
#
# 1 226.9957 76.0580 47.3109 0.0000 0.0000 0.0000
# 2 76.0580 226.9974 47.3107 0.0000 0.0000 0.0000
# 3 47.3109 47.3107 48.9127 0.0000 0.0000 0.0000
# 4 0.0000 0.0000 0.0000 35.4544 0.0000 0.0000
# 5 0.0000 0.0000 0.0000 0.0000 35.4543 0.0000
# 6 0.0000 0.0000 0.0000 0.0000 0.0000 32.6521
#
#
#
# Elastic Compliance Matrix: (Units=1/GPa)
#
#
# Indices 1 2 3 4 5 6 
#
# 1 0.005676 -0.000949 -0.004573 0.000000 0.000000 0.000000
# 2 -0.000949 0.005676 -0.004573 0.000000 0.000000 0.000000
# 3 -0.004573 -0.004573 0.029290 0.000000 0.000000 0.000000
# 4 0.000000 0.000000 0.000000 0.028205 0.000000 0.000000
# 5 0.000000 0.000000 0.000000 0.000000 0.028205 0.000000
# 6 0.000000 0.000000 0.000000 0.000000 0.000000 0.030626
#
#
# Mechanical properties :
#
#
# Convention : Reuss Voigt Hill
#
# Bulk Modulus (GPa) = 48.88843 93.80723 71.34783
# Shear Modulus (GPa) = 32.32358 42.86057 37.59207
#
# Velocity S-wave (km/s) = 3.52449 4.05850 3.80089
# Velocity P-wave (km/s) = 5.94564 7.61658 6.83238
#
# Compressibility (1/GPa) = 0.02045474
#
# Stress axis : x y z
#
# Youngs Moduli (GPa) = 176.16962 176.17152 34.14101
#
# Poissons Ratio (x) = 0.16717 0.15611
# Poissons Ratio (y) = 0.16717 0.15611
# Poissons Ratio (z) = 0.80556 0.80555
#
# Static dielectric constant tensor:
#      x y z
#    x 4.839710 0.000000 0.000000 
#    y 0.000000 4.839710 0.000000 
#    z 0.000000 0.000000 4.591120 
# 
# 
# High freq. dielectric constant tensor:
#      x y z
#    x 2.051170 0.000000 0.000000 
#    y 0.000000 2.051170 0.000000 
#    z 0.000000 0.000000 2.066730 
# 
# From -- ./inp_files/990.got.cif
#   From: 2010.03.12/outbox.cif.g09.slc.cpg/sg92_1_cif.got.tgz:990.got - 2010.04.08 20:41:11.
