data_PCOD8305133
_publ_section_title
;
Structure prediction by ZEFSAII (Michael W. Deem and Ramdas Pophale) SiO2 
 PCOD8305133
Probable space group: P 41 2 2
;
_chemical_formula_sum "Si O2"
_cell_formula_units_Z 64
_cell_length_a 11.030688
_cell_length_b 11.030688
_cell_length_c 21.793581
_cell_angle_alpha 90.000000
_cell_angle_beta 90.000000
_cell_angle_gamma 90.000000
_cell_volume 2651.757456
_symmetry_space_group_name_H-M "P 41 2 2"
_symmetry_group_IT_number 91
_symmetry_cell_setting 'tetragonal'
loop_
_space_group_symop_operation_xyz
x,y,z
-y,x,1/4+z
-x,-y,1/2+z
y,-x,3/4+z
x,-y,1/2-z
-x,y,-z
y,x,3/4-z
-y,-x,1/4-z
loop_
_atom_site_type_symbol
_atom_site_label
_atom_site_fract_x
_atom_site_fract_y
_atom_site_fract_z
Si Si1 0.369387 0.896772 0.012539
Si Si2 0.639373 0.888136 0.424736
Si Si3 0.270968 0.332062 0.000941
Si Si4 0.582953 0.139081 0.645769
Si Si5 0.662331 0.954146 0.183569
Si Si6 0.451354 0.193613 0.166238
Si Si7 0.621560 0.570198 0.610277
Si Si8 0.244096 0.868103 0.255437
O O1 0.351246 0.911699 0.085095
O O2 0.500000 0.828264 0.000000
O O3 0.247811 0.840858 0.981373
O O4 0.384548 0.028147 0.982622
O O5 0.709071 0.769541 0.449527
O O6 0.509280 0.845663 0.398488
O O7 0.716830 0.962534 0.371720
O O8 0.199948 0.441103 0.966907
O O9 0.185462 0.291684 0.060274
O O10 0.386775 0.382046 0.038678
O O11 0.483631 0.040904 0.669817
O O12 0.512974 0.261987 0.628102
O O13 0.686313 0.170209 0.693882
O O14 0.700546 0.000000 0.250000
O O15 0.382937 0.321093 0.158928
O O16 0.343394 0.106942 0.190819
O O17 0.499813 0.500188 0.625000
O O18 0.175815 0.000000 0.250000
#
# Coordination Sequence:
#
# PCOD8305133 Si02
#       8
#     8   8   8   8   8   8   8   8
#     4  12  27  45  73 108 145 185 249 324 378 436
#     4  12  26  46  71 108 146 190 250 314 375 454
#     4  11  26  44  68 107 148 197 247 304 378 454
#     4  11  22  45  68 103 143 195 242 298 371 456
#     4  11  21  42  72 100 140 194 248 299 374 456
#     4  12  25  42  72 106 142 197 239 301 368 458
#     4  11  24  41  66 108 158 191 236 299 378 455
#     4  12  26  47  76 101 143 199 251 299 378 467
#
# _framework density 24.134938999999999
#
# number of rings (size 3 to 8) (size 9 to 14) (size 15 to 20)
#    0.000    0.500    5.000    4.125    3.500    1.500 
#    0.000    0.625    0.000    0.000    0.000    0.000 
#    0.000    0.000    0.000    0.000    0.000    0.000 
#
# Total GULP energy -792891.678743 kJ/mol
# GULP energy per Si atom -12388.932480 kJ/mol
# Density = 2.408001 g / cm^3
# Si number density = 24.134939 Si / 1000 Ang^3
#
#
#
# Elastic Constant Matrix: (Units=GPa)
#
#
# Indices 1 2 3 4 5 6 
#
# 1 89.8229 37.7151 21.7500 0.0000 0.0000 0.0000
# 2 37.7151 89.8219 21.7496 0.0000 0.0000 0.0000
# 3 21.7500 21.7496 110.6510 0.0000 0.0000 0.0000
# 4 0.0000 0.0000 0.0000 42.4667 0.0000 0.0000
# 5 0.0000 0.0000 0.0000 0.0000 42.4660 0.0000
# 6 0.0000 0.0000 0.0000 0.0000 0.0000 22.5126
#
#
#
# Elastic Compliance Matrix: (Units=1/GPa)
#
#
# Indices 1 2 3 4 5 6 
#
# 1 0.013798 -0.005393 -0.001652 0.000000 0.000000 0.000000
# 2 -0.005393 0.013798 -0.001652 0.000000 0.000000 0.000000
# 3 -0.001652 -0.001652 0.009687 0.000000 0.000000 0.000000
# 4 0.000000 0.000000 0.000000 0.023548 0.000000 0.000000
# 5 0.000000 0.000000 0.000000 0.000000 0.023548 0.000000
# 6 0.000000 0.000000 0.000000 0.000000 0.000000 0.044420
#
#
# Mechanical properties :
#
#
# Convention : Reuss Voigt Hill
#
# Bulk Modulus (GPa) = 50.28271 50.30279 50.29275
# Shear Modulus (GPa) = 32.71783 35.42780 34.07282
#
# Velocity S-wave (km/s) = 3.68587 3.83548 3.76142
# Velocity P-wave (km/s) = 6.24447 6.36413 6.30458
#
# Compressibility (1/GPa) = 0.01988755
#
# Stress axis : x y z
#
# Youngs Moduli (GPa) = 72.47616 72.47538 103.23279
#
# Poissons Ratio (x) = 0.39089 0.17054
# Poissons Ratio (y) = 0.39090 0.17053
# Poissons Ratio (z) = 0.11973 0.11973
#
# Static dielectric constant tensor:
#      x y z
#    x 4.377860 0.000000 0.000000 
#    y 0.000000 4.377860 0.000000 
#    z 0.000000 0.000000 4.573700 
# 
# 
# High freq. dielectric constant tensor:
#      x y z
#    x 1.941740 0.000000 0.000000 
#    y 0.000000 1.941740 0.000000 
#    z 0.000000 0.000000 1.973700 
# 
# From -- ./inp_files/17665.got.cif
#   From: 2010.03.12/outbox.cif.g09.slc.cpg/sg91_9_cif.got.tgz:17665.got - 2010.04.08 20:27:58.
