data_PCOD8305953
_publ_section_title
;
Structure prediction by ZEFSAII (Michael W. Deem and Ramdas Pophale) SiO2 
 PCOD8305953
Probable space group: P 43 21 2
;
_chemical_formula_sum "Si O2"
_cell_formula_units_Z 36
_cell_length_a 10.342013
_cell_length_b 10.342013
_cell_length_c 15.914107
_cell_angle_alpha 90.000000
_cell_angle_beta 90.000000
_cell_angle_gamma 90.000000
_cell_volume 1702.128849
_symmetry_space_group_name_H-M "P 43 21 2"
_symmetry_group_IT_number 96
_symmetry_cell_setting 'tetragonal'
loop_
_space_group_symop_operation_xyz
x,y,z
1/2-y,1/2+x,3/4+z
-x,-y,1/2+z
1/2+y,1/2-x,1/4+z
1/2+x,1/2-y,1/4-z
1/2-x,1/2+y,3/4-z
y,x,-z
-y,-x,1/2-z
loop_
_atom_site_type_symbol
_atom_site_label
_atom_site_fract_x
_atom_site_fract_y
_atom_site_fract_z
Si Si1 0.275557 0.724444 0.750000
Si Si2 0.155594 0.844407 0.250000
Si Si3 0.829429 0.444355 0.705960
Si Si4 0.052714 0.052714 0.500000
Si Si5 0.519898 0.192627 0.985046
Si Si6 0.409854 0.578317 0.610921
O O1 0.297261 0.635104 0.668826
O O2 0.132259 0.690440 0.776711
O O3 0.118596 0.696867 0.229215
O O4 0.060718 0.871338 0.326732
O O5 0.705241 0.471431 0.765630
O O6 0.932749 0.558831 0.721662
O O7 0.791557 0.426178 0.608411
O O8 0.955548 0.028946 0.422147
O O9 0.555513 0.319354 0.038806
#
# Coordination Sequence:
#
# PCOD8305953 Si02
#       6
#     4   4   8   4   8   8
#     4  11  25  43  67 104 130 184 235 285 345 429
#     4  11  25  45  67 104 134 186 229 289 349 419
#     4  11  25  43  70 101 142 179 239 286 356 412
#     4  10  22  46  68 104 138 188 226 288 350 430
#     4  12  24  46  69 102 139 185 230 296 350 421
#     4  11  24  43  72  95 141 177 232 282 353 414
#
# _framework density 21.149985000000001
#
# number of rings (size 3 to 8) (size 9 to 14) (size 15 to 20)
#    0.000    0.889    2.222    4.667    3.111    1.778 
#    4.000    0.000    0.000    0.000    0.000    0.000 
#    0.000    0.000    0.000    0.000    0.000    0.000 
#
# Total GULP energy -446154.258888 kJ/mol
# GULP energy per Si atom -12393.173858 kJ/mol
# Density = 2.110185 g / cm^3
# Si number density = 21.149985 Si / 1000 Ang^3
#
#
#
# Elastic Constant Matrix: (Units=GPa)
#
#
# Indices 1 2 3 4 5 6 
#
# 1 121.7543 46.7936 28.0466 0.0000 0.0000 0.0000
# 2 46.7936 121.7529 28.0463 0.0000 0.0000 0.0000
# 3 28.0466 28.0463 97.0242 0.0000 0.0000 0.0000
# 4 0.0000 0.0000 0.0000 31.5093 0.0000 0.0000
# 5 0.0000 0.0000 0.0000 0.0000 31.5092 0.0000
# 6 0.0000 0.0000 0.0000 0.0000 0.0000 33.4515
#
#
#
# Elastic Compliance Matrix: (Units=1/GPa)
#
#
# Indices 1 2 3 4 5 6 
#
# 1 0.009952 -0.003388 -0.001898 0.000000 0.000000 0.000000
# 2 -0.003388 0.009953 -0.001898 0.000000 0.000000 0.000000
# 3 -0.001898 -0.001898 0.011404 0.000000 0.000000 0.000000
# 4 0.000000 0.000000 0.000000 0.031737 0.000000 0.000000
# 5 0.000000 0.000000 0.000000 0.000000 0.031737 0.000000
# 6 0.000000 0.000000 0.000000 0.000000 0.000000 0.029894
#
#
# Mechanical properties :
#
#
# Convention : Reuss Voigt Hill
#
# Bulk Modulus (GPa) = 59.02307 60.70051 59.86179
# Shear Modulus (GPa) = 34.55661 35.13698 34.84680
#
# Velocity S-wave (km/s) = 4.04652 4.08036 4.06347
# Velocity P-wave (km/s) = 7.05690 7.13873 7.09793
#
# Compressibility (1/GPa) = 0.01694253
#
# Stress axis : x y z
#
# Youngs Moduli (GPa) = 100.47769 100.47659 87.69033
#
# Poissons Ratio (x) = 0.34041 0.16640
# Poissons Ratio (y) = 0.34041 0.16640
# Poissons Ratio (z) = 0.19067 0.19066
#
# Static dielectric constant tensor:
#      x y z
#    x 3.937250 0.000000 0.000000 
#    y 0.000000 3.937250 0.000000 
#    z 0.000000 0.000000 3.961080 
# 
# 
# High freq. dielectric constant tensor:
#      x y z
#    x 1.835120 0.000000 0.000000 
#    y 0.000000 1.835120 0.000000 
#    z 0.000000 0.000000 1.841420 
# 
# From -- ./inp_files/2598.got.cif
#   From: 2010.03.12/outbox.cif.g09.slc.cpg/sg96_2_cif.got.tgz:2598.got - 2010.04.08 20:56:49.
