data_PCOD8305555
_publ_section_title
;
Structure prediction by ZEFSAII (Michael W. Deem and Ramdas Pophale) SiO2 
 PCOD8305555
Probable space group: P 42 2 2
;
_chemical_formula_sum "Si O2"
_cell_formula_units_Z 36
_cell_length_a 9.071200
_cell_length_b 9.071200
_cell_length_c 19.631658
_cell_angle_alpha 90.000000
_cell_angle_beta 90.000000
_cell_angle_gamma 90.000000
_cell_volume 1615.423752
_symmetry_space_group_name_H-M "P 42 2 2"
_symmetry_group_IT_number 93
_symmetry_cell_setting 'tetragonal'
loop_
_space_group_symop_operation_xyz
x,y,z
-y,x,1/2+z
-x,-y,z
y,-x,1/2+z
x,-y,-z
-x,y,-z
y,x,1/2-z
-y,-x,1/2-z
loop_
_atom_site_type_symbol
_atom_site_label
_atom_site_fract_x
_atom_site_fract_y
_atom_site_fract_z
Si Si1 0.000000 0.500000 0.000000
Si Si2 0.674079 0.528445 0.422626
Si Si3 0.578678 0.217549 0.213085
Si Si4 0.000000 0.000000 0.500000
Si Si5 0.707920 0.067066 0.732300
Si Si6 0.257617 0.859482 0.584629
O O1 0.886179 0.398536 0.961171
O O2 0.500000 0.500000 0.416593
O O3 0.728094 0.500000 0.500000
O O4 0.755636 0.421961 0.368504
O O5 0.732620 0.687323 0.398140
O O6 0.634428 0.365573 0.250000
O O7 0.421820 0.178274 0.245911
O O8 0.692847 0.085610 0.227625
O O9 0.103571 0.898610 0.547729
O O10 0.865449 0.134552 0.750000
O O11 0.712968 0.041093 0.651262
#
# Coordination Sequence:
#
# PCOD8305555 Si02
#       6
#     2   8   8   2   8   8
#     4  10  20  38  70  94 128 186 230 292 336 438
#     4  11  24  43  73 106 143 185 237 306 369 427
#     4  11  25  43  70 104 135 183 242 291 354 427
#     4  10  28  46  72 102 140 198 226 292 368 434
#     4  11  24  44  66  96 137 182 228 289 352 414
#     4  11  23  45  68  99 143 181 242 287 360 435
#
# _framework density 22.285176
#
# number of rings (size 3 to 8) (size 9 to 14) (size 15 to 20)
#    0.000    1.111    2.222    4.000    0.000    7.556 
#    0.000    0.000    0.000    0.000    0.000    0.000 
#    0.000    0.000    0.000    0.000    0.000    0.000 
#
# Total GULP energy -446335.698615 kJ/mol
# GULP energy per Si atom -12398.213850 kJ/mol
# Density = 2.223445 g / cm^3
# Si number density = 22.285176 Si / 1000 Ang^3
#
#
#
# Elastic Constant Matrix: (Units=GPa)
#
#
# Indices 1 2 3 4 5 6 
#
# 1 95.5390 47.8233 60.9667 0.0000 0.0000 0.0000
# 2 47.8233 95.5377 60.9662 0.0000 0.0000 0.0000
# 3 60.9667 60.9662 201.4550 0.0000 0.0000 0.0000
# 4 0.0000 0.0000 0.0000 30.2201 0.0000 0.0000
# 5 0.0000 0.0000 0.0000 0.0000 30.2211 0.0000
# 6 0.0000 0.0000 0.0000 0.0000 0.0000 36.4534
#
#
#
# Elastic Compliance Matrix: (Units=1/GPa)
#
#
# Indices 1 2 3 4 5 6 
#
# 1 0.015175 -0.005782 -0.002843 0.000000 0.000000 0.000000
# 2 -0.005782 0.015176 -0.002843 0.000000 0.000000 0.000000
# 3 -0.002843 -0.002843 0.006684 0.000000 0.000000 0.000000
# 4 0.000000 0.000000 0.000000 0.033091 0.000000 0.000000
# 5 0.000000 0.000000 0.000000 0.000000 0.033089 0.000000
# 6 0.000000 0.000000 0.000000 0.000000 0.000000 0.027432
#
#
# Mechanical properties :
#
#
# Convention : Reuss Voigt Hill
#
# Bulk Modulus (GPa) = 70.92161 81.33824 76.12993
# Shear Modulus (GPa) = 31.58902 34.23062 32.90982
#
# Velocity S-wave (km/s) = 3.76904 3.92347 3.84703
# Velocity P-wave (km/s) = 7.12984 7.55664 7.34634
#
# Compressibility (1/GPa) = 0.01410007
#
# Stress axis : x y z
#
# Youngs Moduli (GPa) = 65.89643 65.89553 149.60140
#
# Poissons Ratio (x) = 0.38103 0.42526
# Poissons Ratio (y) = 0.38103 0.42526
# Poissons Ratio (z) = 0.18732 0.18732
#
# Static dielectric constant tensor:
#      x y z
#    x 4.041600 0.000000 0.000000 
#    y 0.000000 4.041580 0.000000 
#    z 0.000000 0.000000 4.384610 
# 
# 
# High freq. dielectric constant tensor:
#      x y z
#    x 1.876730 0.000000 0.000000 
#    y 0.000000 1.876730 0.000000 
#    z 0.000000 0.000000 1.893620 
# 
# From -- ./inp_files/6123.got.cif
#   From: 2010.03.12/outbox.cif.g09.slc.cpg/sg93_4_cif.got.tgz:6123.got - 2010.04.08 20:44:19.
