data_PCOD8305585
_publ_section_title
;
Structure prediction by ZEFSAII (Michael W. Deem and Ramdas Pophale) SiO2 
 PCOD8305585
Probable space group: P 42 2 2
;
_chemical_formula_sum "Si O2"
_cell_formula_units_Z 38
_cell_length_a 8.854832
_cell_length_b 8.854832
_cell_length_c 24.340234
_cell_angle_alpha 90.000000
_cell_angle_beta 90.000000
_cell_angle_gamma 90.000000
_cell_volume 1908.470278
_symmetry_space_group_name_H-M "P 42 2 2"
_symmetry_group_IT_number 93
_symmetry_cell_setting 'tetragonal'
loop_
_space_group_symop_operation_xyz
x,y,z
-y,x,1/2+z
-x,-y,z
y,-x,1/2+z
x,-y,-z
-x,y,-z
y,x,1/2-z
-y,-x,1/2-z
loop_
_atom_site_type_symbol
_atom_site_label
_atom_site_fract_x
_atom_site_fract_y
_atom_site_fract_z
Si Si1 0.834472 0.687740 0.355228
Si Si2 0.141459 0.808004 0.405685
Si Si3 0.000000 0.000000 0.000000
Si Si4 0.016002 0.335612 0.168899
Si Si5 0.500000 0.000000 0.227193
Si Si6 0.517776 0.327705 0.064156
O O1 0.860147 0.554570 0.310444
O O2 0.761807 0.619452 0.409443
O O3 0.994034 0.751260 0.374749
O O4 0.722700 0.811702 0.329776
O O5 0.105226 0.894347 0.462307
O O6 0.212346 0.921695 0.362545
O O7 0.260853 0.677311 0.417410
O O8 0.956936 0.359032 0.232170
O O9 0.000000 0.500000 0.138925
O O10 0.500000 0.500000 0.083053
O O11 0.500000 0.307778 0.000000
#
# Coordination Sequence:
#
# PCOD8305585 Si02
#       6
#     8   8   2   8   4   8
#     4  12  21  46  69  97 136 175 229 276 332 415
#     4  12  23  43  69 101 130 177 222 283 337 408
#     4  12  24  40  72 102 136 168 232 272 362 396
#     4  10  24  42  65  96 136 172 225 277 338 393
#     4  10  24  42  69  93 134 176 226 276 342 380
#     4  11  25  43  68 100 136 175 220 274 343 410
#
# _framework density 19.911235999999999
#
# number of rings (size 3 to 8) (size 9 to 14) (size 15 to 20)
#    0.632    0.211    4.211    3.158    0.000    1.684 
#    0.000    2.105    0.000    0.000    0.000    0.000 
#    0.000    0.000    0.000    0.000    0.000    0.000 
#
# Total GULP energy -471046.201044 kJ/mol
# GULP energy per Si atom -12395.952659 kJ/mol
# Density = 1.986592 g / cm^3
# Si number density = 19.911236 Si / 1000 Ang^3
#
#
#
# Elastic Constant Matrix: (Units=GPa)
#
#
# Indices 1 2 3 4 5 6 
#
# 1 126.1321 69.1675 55.0851 0.0000 0.0000 0.0000
# 2 69.1675 126.1321 55.0851 0.0000 0.0000 0.0000
# 3 55.0851 55.0851 101.5519 0.0000 0.0000 0.0000
# 4 0.0000 0.0000 0.0000 451.6219 0.0000 0.0000
# 5 0.0000 0.0000 0.0000 0.0000 451.6219 0.0000
# 6 0.0000 0.0000 0.0000 0.0000 0.0000 30.1267
#
#
#
# Elastic Compliance Matrix: (Units=1/GPa)
#
#
# Indices 1 2 3 4 5 6 
#
# 1 0.012466 -0.005088 -0.004002 0.000000 0.000000 0.000000
# 2 -0.005088 0.012466 -0.004002 0.000000 0.000000 0.000000
# 3 -0.004002 -0.004002 0.014189 0.000000 0.000000 0.000000
# 4 0.000000 0.000000 0.000000 0.002214 0.000000 0.000000
# 5 0.000000 0.000000 0.000000 0.000000 0.002214 0.000000
# 6 0.000000 0.000000 0.000000 0.000000 0.000000 0.033193
#
#
# Mechanical properties :
#
#
# Convention : Reuss Voigt Hill
#
# Bulk Modulus (GPa) = 77.30019 79.16570 78.23295
# Shear Modulus (GPa) = 46.62427 198.30598 122.46512
#
# Velocity S-wave (km/s) = 4.84426 9.99056 7.85105
# Velocity P-wave (km/s) = 8.37830 13.15018 11.02550
#
# Compressibility (1/GPa) = 0.01293658
#
# Stress axis : x y z
#
# Youngs Moduli (GPa) = 80.21599 80.21599 70.47794
#
# Poissons Ratio (x) = 0.40817 0.28205
# Poissons Ratio (y) = 0.40817 0.28205
# Poissons Ratio (z) = 0.32103 0.32103
#
# Static dielectric constant tensor:
#      x y z
#    x 3.728020 0.000000 0.000000 
#    y 0.000000 3.728020 0.000000 
#    z 0.000000 0.000000 3.715700 
# 
# 
# High freq. dielectric constant tensor:
#      x y z
#    x 1.781490 0.000000 0.000000 
#    y 0.000000 1.781490 0.000000 
#    z 0.000000 0.000000 1.785600 
# 
# From -- ./inp_files/6796.got.cif
#   From: 2010.03.12/outbox.cif.g09.slc.cpg/sg93_4_cif.got.tgz:6796.got - 2010.04.08 20:44:19.
