data_PCOD8305967
_publ_section_title
;
Structure prediction by ZEFSAII (Michael W. Deem and Ramdas Pophale) SiO2 
 PCOD8305967
Probable space group: P 43 21 2
;
_chemical_formula_sum "Si O2"
_cell_formula_units_Z 40
_cell_length_a 14.547635
_cell_length_b 14.547635
_cell_length_c 8.434285
_cell_angle_alpha 90.000000
_cell_angle_beta 90.000000
_cell_angle_gamma 90.000000
_cell_volume 1784.978807
_symmetry_space_group_name_H-M "P 43 21 2"
_symmetry_group_IT_number 96
_symmetry_cell_setting 'tetragonal'
loop_
_space_group_symop_operation_xyz
x,y,z
1/2-y,1/2+x,3/4+z
-x,-y,1/2+z
1/2+y,1/2-x,1/4+z
1/2+x,1/2-y,1/4-z
1/2-x,1/2+y,3/4-z
y,x,-z
-y,-x,1/2-z
loop_
_atom_site_type_symbol
_atom_site_label
_atom_site_fract_x
_atom_site_fract_y
_atom_site_fract_z
Si Si1 0.456334 0.105296 0.932435
Si Si2 0.093577 0.841325 0.411845
Si Si3 0.191453 0.004104 0.570872
Si Si4 0.656304 0.403074 0.998685
Si Si5 0.183632 0.707896 0.632520
O O1 0.477602 0.206865 0.871209
O O2 0.436798 0.039408 0.784210
O O3 0.365319 0.118901 0.039323
O O4 0.152082 0.847919 0.250000
O O5 0.125167 0.919361 0.533398
O O6 0.115776 0.743736 0.493521
O O7 0.985658 0.853168 0.374908
O O8 0.141566 0.057057 0.715004
O O9 0.202965 0.065068 0.414206
O O10 0.718491 0.322646 0.066999
O O11 0.206990 0.793011 0.750000
#
# Coordination Sequence:
#
# PCOD8305967 Si02
#       5
#     8   8   8   8   8
#     4  12  28  47  73 105 146 194 243 304 369 444
#     4  10  23  46  71 105 143 188 236 306 368 437
#     4  10  23  47  70 107 142 185 240 306 361 438
#     4  10  24  44  74 102 139 187 243 296 372 438
#     4  12  24  46  70 104 142 190 238 300 363 442
#
# _framework density 22.409230000000001
#
# number of rings (size 3 to 8) (size 9 to 14) (size 15 to 20)
#    0.000    1.200    2.000    2.400    5.600    1.600 
#   32.400    0.000    0.000    0.000    0.000    0.000 
#    0.000    0.000    0.000    0.000    0.000    0.000 
#
# Total GULP energy -496081.460040 kJ/mol
# GULP energy per Si atom -12402.036501 kJ/mol
# Density = 2.235823 g / cm^3
# Si number density = 22.409230 Si / 1000 Ang^3
#
#
#
# Elastic Constant Matrix: (Units=GPa)
#
#
# Indices 1 2 3 4 5 6 
#
# 1 122.9367 64.4580 57.5220 0.0000 0.0000 0.0000
# 2 64.4580 122.9363 57.5215 0.0000 0.0000 0.0000
# 3 57.5220 57.5215 84.8092 0.0000 0.0000 0.0000
# 4 0.0000 0.0000 0.0000 45.3200 0.0000 0.0000
# 5 0.0000 0.0000 0.0000 0.0000 45.3204 0.0000
# 6 0.0000 0.0000 0.0000 0.0000 0.0000 44.1733
#
#
#
# Elastic Compliance Matrix: (Units=1/GPa)
#
#
# Indices 1 2 3 4 5 6 
#
# 1 0.013122 -0.003978 -0.006202 0.000000 0.000000 0.000000
# 2 -0.003978 0.013122 -0.006202 0.000000 0.000000 0.000000
# 3 -0.006202 -0.006202 0.020204 0.000000 0.000000 0.000000
# 4 0.000000 0.000000 0.000000 0.022065 0.000000 0.000000
# 5 0.000000 0.000000 0.000000 0.000000 0.022065 0.000000
# 6 0.000000 0.000000 0.000000 0.000000 0.000000 0.022638
#
#
# Mechanical properties :
#
#
# Convention : Reuss Voigt Hill
#
# Bulk Modulus (GPa) = 73.07629 76.63170 74.85400
# Shear Modulus (GPa) = 33.21361 37.04147 35.12754
#
# Velocity S-wave (km/s) = 3.85403 4.07007 3.96352
# Velocity P-wave (km/s) = 7.24469 7.50720 7.37711
#
# Compressibility (1/GPa) = 0.01368433
#
# Stress axis : x y z
#
# Youngs Moduli (GPa) = 76.20810 76.20838 49.49598
#
# Poissons Ratio (x) = 0.30318 0.30696
# Poissons Ratio (y) = 0.30318 0.30695
# Poissons Ratio (z) = 0.47262 0.47261
#
# Static dielectric constant tensor:
#      x y z
#    x 4.046140 0.000000 0.000000 
#    y 0.000000 4.046140 0.000000 
#    z 0.000000 0.000000 4.374960 
# 
# 
# High freq. dielectric constant tensor:
#      x y z
#    x 1.885060 0.000000 0.000000 
#    y 0.000000 1.885060 0.000000 
#    z 0.000000 0.000000 1.896620 
# 
# From -- ./inp_files/1286.got.cif
#   From: 2010.03.12/outbox.cif.g09.slc.cpg/sg96_1_cif.got.tgz:1286.got - 2010.04.08 20:56:49.
