data_PCOD8305131
_publ_section_title
;
Structure prediction by ZEFSAII (Michael W. Deem and Ramdas Pophale) SiO2 
 PCOD8305131
Probable space group: P 41 2 2
;
_chemical_formula_sum "Si O2"
_cell_formula_units_Z 48
_cell_length_a 8.530503
_cell_length_b 8.530503
_cell_length_c 30.708127
_cell_angle_alpha 90.000000
_cell_angle_beta 90.000000
_cell_angle_gamma 90.000000
_cell_volume 2234.614478
_symmetry_space_group_name_H-M "P 41 2 2"
_symmetry_group_IT_number 91
_symmetry_cell_setting 'tetragonal'
loop_
_space_group_symop_operation_xyz
x,y,z
-y,x,1/4+z
-x,-y,1/2+z
y,-x,3/4+z
x,-y,1/2-z
-x,y,-z
y,x,3/4-z
-y,-x,1/4-z
loop_
_atom_site_type_symbol
_atom_site_label
_atom_site_fract_x
_atom_site_fract_y
_atom_site_fract_z
Si Si1 0.441619 0.014697 0.915406
Si Si2 0.184827 0.743312 0.264885
Si Si3 0.361266 0.026103 0.682743
Si Si4 0.746476 0.896314 0.540125
Si Si5 0.326330 0.692780 0.539460
Si Si6 0.000000 0.404189 0.500000
Si Si7 0.422732 0.500000 0.250000
O O1 0.355288 0.883885 0.944704
O O2 0.420753 0.962947 0.866078
O O3 0.625483 0.028562 0.925718
O O4 0.372965 0.189026 0.922042
O O5 0.301895 0.636595 0.235290
O O6 0.042000 0.814589 0.236947
O O7 0.293147 0.888360 0.279605
O O8 0.193518 0.112528 0.685773
O O9 0.351063 0.851851 0.701484
O O10 0.489802 0.101618 0.715666
O O11 0.655060 0.778019 0.507643
O O12 0.433546 0.535074 0.538935
#
# Coordination Sequence:
#
# PCOD8305131 Si02
#       7
#     8   8   8   8   8   4   4
#     4  11  25  43  68 102 134 182 233 298 344 416
#     4  11  24  43  69 100 133 186 231 280 357 418
#     4  12  25  42  67 102 139 180 234 288 352 415
#     4  11  22  44  69  95 134 184 229 280 349 426
#     4  11  21  42  69  98 130 184 234 278 348 426
#     4  12  26  42  68 100 140 184 228 292 352 422
#     4  12  18  40  74  96 132 174 236 286 340 432
#
# _framework density 21.480214
#
# number of rings (size 3 to 8) (size 9 to 14) (size 15 to 20)
#    0.000    0.667    6.667    1.500    7.000    0.000 
#    0.000    0.833    0.000    0.000    0.000    0.000 
#    0.000    0.000    0.000    0.000    0.000    0.000 
#
# Total GULP energy -594821.461911 kJ/mol
# GULP energy per Si atom -12392.113790 kJ/mol
# Density = 2.143132 g / cm^3
# Si number density = 21.480214 Si / 1000 Ang^3
#
#
#
# Elastic Constant Matrix: (Units=GPa)
#
#
# Indices 1 2 3 4 5 6 
#
# 1 106.4062 47.5313 44.5573 0.0000 0.0000 0.0000
# 2 47.5313 106.4062 44.5573 0.0000 0.0000 0.0000
# 3 44.5573 44.5573 129.6896 0.0000 0.0000 0.0000
# 4 0.0000 0.0000 0.0000 22.1378 0.0000 0.0000
# 5 0.0000 0.0000 0.0000 0.0000 22.1378 0.0000
# 6 0.0000 0.0000 0.0000 0.0000 0.0000 54.0526
#
#
#
# Elastic Compliance Matrix: (Units=1/GPa)
#
#
# Indices 1 2 3 4 5 6 
#
# 1 0.012547 -0.004438 -0.002786 0.000000 0.000000 0.000000
# 2 -0.004438 0.012547 -0.002786 0.000000 0.000000 0.000000
# 3 -0.002786 -0.002786 0.009625 0.000000 0.000000 0.000000
# 4 0.000000 0.000000 0.000000 0.045172 0.000000 0.000000
# 5 0.000000 0.000000 0.000000 0.000000 0.045172 0.000000
# 6 0.000000 0.000000 0.000000 0.000000 0.000000 0.018500
#
#
# Mechanical properties :
#
#
# Convention : Reuss Voigt Hill
#
# Bulk Modulus (GPa) = 68.03165 68.42155 68.22660
# Shear Modulus (GPa) = 29.67663 33.38938 31.53300
#
# Velocity S-wave (km/s) = 3.72099 3.94690 3.83561
# Velocity P-wave (km/s) = 7.08531 7.25900 7.17268
#
# Compressibility (1/GPa) = 0.01469904
#
# Stress axis : x y z
#
# Youngs Moduli (GPa) = 79.70000 79.70000 103.89523
#
# Poissons Ratio (x) = 0.35372 0.28945
# Poissons Ratio (y) = 0.35372 0.28945
# Poissons Ratio (z) = 0.22204 0.22204
#
# Static dielectric constant tensor:
#      x y z
#    x 4.147520 0.000000 0.000000 
#    y 0.000000 4.147520 0.000000 
#    z 0.000000 0.000000 3.471410 
# 
# 
# High freq. dielectric constant tensor:
#      x y z
#    x 1.859620 0.000000 0.000000 
#    y 0.000000 1.859620 0.000000 
#    z 0.000000 0.000000 1.794300 
# 
# From -- ./inp_files/18216.got.cif
#   From: 2010.03.12/outbox.cif.g09.slc.cpg/sg91_10_cif.got.tgz:18216.got - 2010.04.08 20:27:58.
