data_PCOD8305222
_publ_section_title
;
Structure prediction by ZEFSAII (Michael W. Deem and Ramdas Pophale) SiO2 
 PCOD8305222
Probable space group: P 41 21 2
;
_chemical_formula_sum "Si O2"
_cell_formula_units_Z 44
_cell_length_a 15.324226
_cell_length_b 15.324226
_cell_length_c 9.559018
_cell_angle_alpha 90.000000
_cell_angle_beta 90.000000
_cell_angle_gamma 90.000000
_cell_volume 2244.762383
_symmetry_space_group_name_H-M "P 41 21 2"
_symmetry_group_IT_number 92
_symmetry_cell_setting 'tetragonal'
loop_
_space_group_symop_operation_xyz
x,y,z
1/2-y,1/2+x,1/4+z
-x,-y,1/2+z
1/2+y,1/2-x,3/4+z
1/2+x,1/2-y,3/4-z
1/2-x,1/2+y,1/4-z
y,x,-z
-y,-x,1/2-z
loop_
_atom_site_type_symbol
_atom_site_label
_atom_site_fract_x
_atom_site_fract_y
_atom_site_fract_z
Si Si1 0.888402 0.257228 0.382180
Si Si2 0.418509 0.198567 0.670371
Si Si3 0.762610 0.740317 0.664864
Si Si4 0.169367 0.070699 0.879975
Si Si5 0.416194 0.007393 0.580543
Si Si6 0.584627 0.584627 0.000000
O O1 0.863570 0.276685 0.220045
O O2 0.815538 0.283484 0.495414
O O3 0.974674 0.315458 0.415248
O O4 0.903149 0.152210 0.381668
O O5 0.361934 0.227494 0.803093
O O6 0.510038 0.250046 0.680305
O O7 0.431374 0.095164 0.669962
O O8 0.747404 0.747404 0.500000
O O9 0.851216 0.789717 0.712205
O O10 0.097982 0.014338 0.797701
O O11 0.115710 0.115710 0.000000
O O12 0.478654 0.940202 0.666869
#
# Coordination Sequence:
#
# PCOD8305222 Si02
#       6
#     8   8   8   8   8   4
#     4  10  19  37  63  86 116 168 217 247 302 392
#     4  10  19  41  63  80 121 170 207 247 316 383
#     4  11  21  36  60  92 120 157 206 267 322 364
#     4  10  22  38  60  92 124 163 213 252 324 376
#     4  10  22  36  60  92 123 163 206 261 320 374
#     4  10  18  42  64  76 120 174 218 248 300 384
#
# _framework density 19.601182999999999
#
# number of rings (size 3 to 8) (size 9 to 14) (size 15 to 20)
#    0.000    1.818    3.636    3.273    0.000    4.364 
#    1.636    9.091    0.000    0.000    0.000    0.000 
#    0.000    0.000    0.000    0.000    0.000    0.000 
#
# Total GULP energy -545094.680580 kJ/mol
# GULP energy per Si atom -12388.515468 kJ/mol
# Density = 1.955657 g / cm^3
# Si number density = 19.601183 Si / 1000 Ang^3
#
#
#
# Elastic Constant Matrix: (Units=GPa)
#
#
# Indices 1 2 3 4 5 6 
#
# 1 118.0321 52.8099 38.8411 0.0000 0.0000 0.0000
# 2 52.8099 118.0321 38.8411 0.0000 0.0000 0.0000
# 3 38.8411 38.8411 79.6555 0.0000 0.0000 0.0000
# 4 0.0000 0.0000 0.0000 31.9930 0.0000 0.0000
# 5 0.0000 0.0000 0.0000 0.0000 31.9930 0.0000
# 6 0.0000 0.0000 0.0000 0.0000 0.0000 36.9261
#
#
#
# Elastic Compliance Matrix: (Units=1/GPa)
#
#
# Indices 1 2 3 4 5 6 
#
# 1 0.011427 -0.003906 -0.003667 0.000000 0.000000 0.000000
# 2 -0.003906 0.011427 -0.003667 0.000000 0.000000 0.000000
# 3 -0.003667 -0.003667 0.016131 0.000000 0.000000 0.000000
# 4 0.000000 0.000000 0.000000 0.031257 0.000000 0.000000
# 5 0.000000 0.000000 0.000000 0.000000 0.031257 0.000000
# 6 0.000000 0.000000 0.000000 0.000000 0.000000 0.027081
#
#
# Mechanical properties :
#
#
# Convention : Reuss Voigt Hill
#
# Bulk Modulus (GPa) = 60.59460 64.07823 62.33642
# Shear Modulus (GPa) = 31.93667 32.53094 32.23380
#
# Velocity S-wave (km/s) = 4.04087 4.07829 4.05962
# Velocity P-wave (km/s) = 7.26308 7.41206 7.33795
#
# Compressibility (1/GPa) = 0.01650312
#
# Stress axis : x y z
#
# Youngs Moduli (GPa) = 87.51552 87.51552 61.99432
#
# Poissons Ratio (x) = 0.34181 0.22735
# Poissons Ratio (y) = 0.34181 0.22735
# Poissons Ratio (z) = 0.32094 0.32094
#
# Static dielectric constant tensor:
#      x y z
#    x 3.887170 0.000000 0.000000 
#    y 0.000000 3.887170 0.000000 
#    z 0.000000 0.000000 3.376010 
# 
# 
# High freq. dielectric constant tensor:
#      x y z
#    x 1.768100 0.000000 0.000000 
#    y 0.000000 1.768100 0.000000 
#    z 0.000000 0.000000 1.738010 
# 
# From -- ./inp_files/2130.got.cif
#   From: 2010.03.12/outbox.cif.g09.slc.cpg/sg92_2_cif.got.tgz:2130.got - 2010.04.08 20:41:11.
