data_PCOD8305721
_publ_section_title
;
Structure prediction by ZEFSAII (Michael W. Deem and Ramdas Pophale) SiO2 
 PCOD8305721
Probable space group: P 42 21 2
;
_chemical_formula_sum "Si O2"
_cell_formula_units_Z 20
_cell_length_a 8.962032
_cell_length_b 8.962032
_cell_length_c 10.276804
_cell_angle_alpha 90.000000
_cell_angle_beta 90.000000
_cell_angle_gamma 90.000000
_cell_volume 825.412524
_symmetry_space_group_name_H-M "P 42 21 2"
_symmetry_group_IT_number 94
_symmetry_cell_setting 'tetragonal'
loop_
_space_group_symop_operation_xyz
x,y,z
1/2-y,1/2+x,1/2+z
-x,-y,z
1/2+y,1/2-x,1/2+z
1/2+x,1/2-y,1/2-z
1/2-x,1/2+y,1/2-z
y,x,-z
-y,-x,-z
loop_
_atom_site_type_symbol
_atom_site_label
_atom_site_fract_x
_atom_site_fract_y
_atom_site_fract_z
Si Si1 0.801702 0.743889 0.863643
Si Si2 0.952036 0.787847 0.608818
Si Si3 0.000000 0.500000 0.468094
O O1 0.852758 0.832009 0.735203
O O2 0.627555 0.698903 0.858483
O O3 0.907281 0.600517 0.868828
O O4 0.832315 0.832315 0.000000
O O5 0.908056 0.908056 0.500000
O O6 0.913812 0.619217 0.560631
#
# Coordination Sequence:
#
# PCOD8305721 Si02
#       3
#     8   8   4
#     4  10  23  42  70 102 139 185 234 291 357 425
#     4  11  23  43  72 104 140 183 235 292 358 433
#     4  10  22  42  68 100 136 182 232 294 354 418
#
# _framework density 24.230305999999999
#
# number of rings (size 3 to 8) (size 9 to 14) (size 15 to 20)
#    0.000    1.600    0.000    3.600    0.000   16.800 
#    0.000    0.000    0.000   51.600    0.000    0.000 
#    0.000    0.000    0.000    0.000    0.000    0.000 
#
# Total GULP energy -247801.350749 kJ/mol
# GULP energy per Si atom -12390.067537 kJ/mol
# Density = 2.417516 g / cm^3
# Si number density = 24.230306 Si / 1000 Ang^3
#
#
#
# Elastic Constant Matrix: (Units=GPa)
#
#
# Indices 1 2 3 4 5 6 
#
# 1 145.7291 32.6963 56.1459 0.0000 0.0000 0.0000
# 2 32.6963 145.7291 56.1459 0.0000 0.0000 0.0000
# 3 56.1459 56.1459 201.0700 0.0000 0.0000 0.0000
# 4 0.0000 0.0000 0.0000 21.1547 0.0000 0.0000
# 5 0.0000 0.0000 0.0000 0.0000 21.1547 0.0000
# 6 0.0000 0.0000 0.0000 0.0000 0.0000 41.6577
#
#
#
# Elastic Compliance Matrix: (Units=1/GPa)
#
#
# Indices 1 2 3 4 5 6 
#
# 1 0.007823 -0.001024 -0.001899 0.000000 0.000000 0.000000
# 2 -0.001024 0.007823 -0.001899 0.000000 0.000000 0.000000
# 3 -0.001899 -0.001899 0.006034 0.000000 0.000000 0.000000
# 4 0.000000 0.000000 0.000000 0.047271 0.000000 0.000000
# 5 0.000000 0.000000 0.000000 0.000000 0.047271 0.000000
# 6 0.000000 0.000000 0.000000 0.000000 0.000000 0.024005
#
#
# Mechanical properties :
#
#
# Convention : Reuss Voigt Hill
#
# Bulk Modulus (GPa) = 83.06961 86.94492 85.00726
# Shear Modulus (GPa) = 32.49245 39.96276 36.22760
#
# Velocity S-wave (km/s) = 3.66592 4.06555 3.87089
# Velocity P-wave (km/s) = 7.23024 7.61570 7.42547
#
# Compressibility (1/GPa) = 0.01203810
#
# Stress axis : x y z
#
# Youngs Moduli (GPa) = 127.82420 127.82420 165.73468
#
# Poissons Ratio (x) = 0.13086 0.31467
# Poissons Ratio (y) = 0.13086 0.31467
# Poissons Ratio (z) = 0.24270 0.24270
#
# Static dielectric constant tensor:
#      x y z
#    x 4.327970 0.000000 0.000000 
#    y 0.000000 4.327970 0.000000 
#    z 0.000000 0.000000 4.725890 
# 
# 
# High freq. dielectric constant tensor:
#      x y z
#    x 1.952910 0.000000 0.000000 
#    y 0.000000 1.952910 0.000000 
#    z 0.000000 0.000000 1.978980 
# 
# From -- ./inp_files/1958.got.cif
#   From: 2010.03.12/outbox.cif.g09.slc.cpg/sg94_1_cif.got.tgz:1958.got - 2010.04.08 20:48:32.
