data_PCOD8305924
_publ_section_title
;
Structure prediction by ZEFSAII (Michael W. Deem and Ramdas Pophale) SiO2 
 PCOD8305924
Probable space group: P 43 21 2
;
_chemical_formula_sum "Si O2"
_cell_formula_units_Z 48
_cell_length_a 11.467991
_cell_length_b 11.467991
_cell_length_c 16.684568
_cell_angle_alpha 90.000000
_cell_angle_beta 90.000000
_cell_angle_gamma 90.000000
_cell_volume 2194.267917
_symmetry_space_group_name_H-M "P 43 21 2"
_symmetry_group_IT_number 96
_symmetry_cell_setting 'tetragonal'
loop_
_space_group_symop_operation_xyz
x,y,z
1/2-y,1/2+x,3/4+z
-x,-y,1/2+z
1/2+y,1/2-x,1/4+z
1/2+x,1/2-y,1/4-z
1/2-x,1/2+y,3/4-z
y,x,-z
-y,-x,1/2-z
loop_
_atom_site_type_symbol
_atom_site_label
_atom_site_fract_x
_atom_site_fract_y
_atom_site_fract_z
Si Si1 0.081760 0.551914 0.902048
Si Si2 0.182849 0.952602 0.811758
Si Si3 0.792250 0.152022 0.043873
Si Si4 0.389999 0.686591 0.008725
Si Si5 0.788992 0.929899 0.937466
Si Si6 0.467652 0.098926 0.470023
O O1 0.181279 0.483373 0.952203
O O2 0.117863 0.687476 0.894779
O O3 0.066263 0.484422 0.818904
O O4 0.955000 0.550852 0.942679
O O5 0.148806 0.851195 0.750000
O O6 0.161631 0.909519 0.902984
O O7 0.108496 0.069762 0.794744
O O8 0.760232 0.271163 0.998823
O O9 0.811690 0.058240 0.973459
O O10 0.413343 0.649040 0.101180
O O11 0.493637 0.767289 0.975487
O O12 0.652836 0.905461 0.921321
O O13 0.835438 0.835438 0.000000
#
# Coordination Sequence:
#
# PCOD8305924 Si02
#       6
#     8   8   8   8   8   8
#     4  10  21  39  70  95 124 176 220 275 325 398
#     4  11  22  41  67  96 138 174 219 279 348 400
#     4  10  23  43  68  98 134 175 229 277 338 410
#     4  11  24  42  68 101 134 177 227 281 343 403
#     4  11  25  42  68  97 137 180 223 275 343 403
#     4  11  21  41  65  98 131 168 231 272 325 403
#
# _framework density 21.875176
#
# number of rings (size 3 to 8) (size 9 to 14) (size 15 to 20)
#    0.000    1.333    3.333    2.000    2.333    3.333 
#    3.000    0.000    0.000    0.000    0.000    0.000 
#    0.000    0.000    0.000    0.000    0.000    0.000 
#
# Total GULP energy -595146.922762 kJ/mol
# GULP energy per Si atom -12398.894224 kJ/mol
# Density = 2.182539 g / cm^3
# Si number density = 21.875176 Si / 1000 Ang^3
#
#
#
# Elastic Constant Matrix: (Units=GPa)
#
#
# Indices 1 2 3 4 5 6 
#
# 1 88.3251 41.7579 33.3779 0.0000 0.0000 0.0000
# 2 41.7579 88.3262 33.3777 0.0000 0.0000 0.0000
# 3 33.3779 33.3777 94.6740 0.0000 0.0000 0.0000
# 4 0.0000 0.0000 0.0000 34.4137 0.0000 0.0000
# 5 0.0000 0.0000 0.0000 0.0000 34.4136 0.0000
# 6 0.0000 0.0000 0.0000 0.0000 0.0000 35.7315
#
#
#
# Elastic Compliance Matrix: (Units=1/GPa)
#
#
# Indices 1 2 3 4 5 6 
#
# 1 0.015430 -0.006044 -0.003309 0.000000 0.000000 0.000000
# 2 -0.006044 0.015430 -0.003309 0.000000 0.000000 0.000000
# 3 -0.003309 -0.003309 0.012896 0.000000 0.000000 0.000000
# 4 0.000000 0.000000 0.000000 0.029058 0.000000 0.000000
# 5 0.000000 0.000000 0.000000 0.000000 0.029058 0.000000
# 6 0.000000 0.000000 0.000000 0.000000 0.000000 0.027987
#
#
# Mechanical properties :
#
#
# Convention : Reuss Voigt Hill
#
# Bulk Modulus (GPa) = 54.25645 54.26139 54.25892
# Shear Modulus (GPa) = 30.99314 31.76588 31.37951
#
# Velocity S-wave (km/s) = 3.76815 3.81483 3.79156
# Velocity P-wave (km/s) = 6.61729 6.65303 6.63518
#
# Compressibility (1/GPa) = 0.01843099
#
# Stress axis : x y z
#
# Youngs Moduli (GPa) = 64.80932 64.81037 77.54533
#
# Poissons Ratio (x) = 0.39174 0.25659
# Poissons Ratio (y) = 0.39173 0.25658
# Poissons Ratio (z) = 0.21445 0.21444
#
# Static dielectric constant tensor:
#      x y z
#    x 3.968890 0.000000 0.000000 
#    y 0.000000 3.968880 0.000000 
#    z 0.000000 0.000000 3.661760 
# 
# 
# High freq. dielectric constant tensor:
#      x y z
#    x 1.862780 0.000000 0.000000 
#    y 0.000000 1.862780 0.000000 
#    z 0.000000 0.000000 1.846490 
# 
# From -- ./inp_files/3114.got.cif
#   From: 2010.03.12/outbox.cif.g09.slc.cpg/sg96_2_cif.got.tgz:3114.got - 2010.04.08 20:56:49.
