data_PCOD8305169
_publ_section_title
;
Structure prediction by ZEFSAII (Michael W. Deem and Ramdas Pophale) SiO2 
 PCOD8305169
Probable space group: P 41 2 2
;
_chemical_formula_sum "Si O2"
_cell_formula_units_Z 16
_cell_length_a 6.889368
_cell_length_b 6.889368
_cell_length_c 11.912389
_cell_angle_alpha 90.000000
_cell_angle_beta 90.000000
_cell_angle_gamma 90.000000
_cell_volume 565.402382
_symmetry_space_group_name_H-M "P 41 2 2"
_symmetry_group_IT_number 91
_symmetry_cell_setting 'tetragonal'
loop_
_space_group_symop_operation_xyz
x,y,z
-y,x,1/4+z
-x,-y,1/2+z
y,-x,3/4+z
x,-y,1/2-z
-x,y,-z
y,x,3/4-z
-y,-x,1/4-z
loop_
_atom_site_type_symbol
_atom_site_label
_atom_site_fract_x
_atom_site_fract_y
_atom_site_fract_z
Si Si1 0.293073 0.326571 0.000782
Si Si2 0.385328 0.078275 0.394584
O O1 0.122780 0.471208 0.039076
O O2 0.330910 0.147887 0.087944
O O3 0.500000 0.440573 0.000000
O O4 0.243802 0.243802 0.875000
O O5 0.500000 0.164413 0.500000
O O6 0.181008 0.181008 0.375000
#
# Coordination Sequence:
#
# PCOD8305169 Si02
#       2
#     8   8
#     4  11  25  48  78 113 159 213 276 348 428 512
#     4  11  25  47  76 109 155 209 269 341 419 498
#
# _framework density 28.298427
#
# number of rings (size 3 to 8) (size 9 to 14) (size 15 to 20)
#    0.000    1.000    0.000    6.000    0.000   18.000 
#    0.000   37.500    0.000    0.000    0.000    0.000 
#    0.000    0.000    0.000    0.000    0.000    0.000 
#
# Total GULP energy -198212.758109 kJ/mol
# GULP energy per Si atom -12388.297382 kJ/mol
# Density = 2.823402 g / cm^3
# Si number density = 28.298427 Si / 1000 Ang^3
#
#
#
# Elastic Constant Matrix: (Units=GPa)
#
#
# Indices 1 2 3 4 5 6 
#
# 1 156.7593 60.7850 40.0355 0.0000 0.0000 0.0000
# 2 60.7850 156.7593 40.0355 0.0000 0.0000 0.0000
# 3 40.0355 40.0355 153.9083 0.0000 0.0000 0.0000
# 4 0.0000 0.0000 0.0000 53.9963 0.0000 0.0000
# 5 0.0000 0.0000 0.0000 0.0000 53.9963 0.0000
# 6 0.0000 0.0000 0.0000 0.0000 0.0000 -27.3290
#
#
#
# Elastic Compliance Matrix: (Units=1/GPa)
#
#
# Indices 1 2 3 4 5 6 
#
# 1 0.007751 -0.002668 -0.001322 0.000000 0.000000 0.000000
# 2 -0.002668 0.007751 -0.001322 0.000000 0.000000 0.000000
# 3 -0.001322 -0.001322 0.007185 0.000000 0.000000 0.000000
# 4 0.000000 0.000000 0.000000 0.018520 0.000000 0.000000
# 5 0.000000 0.000000 0.000000 0.000000 0.018520 0.000000
# 6 0.000000 0.000000 0.000000 0.000000 0.000000 -0.036591
#
#
# Mechanical properties :
#
#
# Convention : Reuss Voigt Hill
#
# Bulk Modulus (GPa) = 82.89877 83.23767 83.06822
# Shear Modulus (GPa) = 132.33470 37.90410 85.11940
#
# Velocity S-wave (km/s) = 6.84584 3.66381 5.49040
# Velocity P-wave (km/s) = 9.58360 6.88303 8.34331
#
# Compressibility (1/GPa) = 0.01206291
#
# Stress axis : x y z
#
# Youngs Moduli (GPa) = 129.00779 129.00779 139.17251
#
# Poissons Ratio (x) = 0.34419 0.18403
# Poissons Ratio (y) = 0.34419 0.18403
# Poissons Ratio (z) = 0.17059 0.17059
#
# Static dielectric constant tensor:
#      x y z
#    x 5.015280 0.000000 0.000000 
#    y 0.000000 5.015280 0.000000 
#    z 0.000000 0.000000 5.635390 
# 
# 
# High freq. dielectric constant tensor:
#      x y z
#    x 2.140620 0.000000 0.000000 
#    y 0.000000 2.140620 0.000000 
#    z 0.000000 0.000000 2.175480 
# 
# From -- ./inp_files/10210.got.cif
#   From: 2010.03.12/outbox.cif.g09.slc.cpg/sg91_6_cif.got.tgz:10210.got - 2010.04.08 20:27:58.
