data_PCOD8305715
_publ_section_title
;
Structure prediction by ZEFSAII (Michael W. Deem and Ramdas Pophale) SiO2 
 PCOD8305715
Probable space group: P 42 21 2
;
_chemical_formula_sum "Si O2"
_cell_formula_units_Z 28
_cell_length_a 8.014192
_cell_length_b 8.014192
_cell_length_c 16.647300
_cell_angle_alpha 90.000000
_cell_angle_beta 90.000000
_cell_angle_gamma 90.000000
_cell_volume 1069.210689
_symmetry_space_group_name_H-M "P 42 21 2"
_symmetry_group_IT_number 94
_symmetry_cell_setting 'tetragonal'
loop_
_space_group_symop_operation_xyz
x,y,z
1/2-y,1/2+x,1/2+z
-x,-y,z
1/2+y,1/2-x,1/2+z
1/2+x,1/2-y,1/2-z
1/2-x,1/2+y,1/2-z
y,x,-z
-y,-x,-z
loop_
_atom_site_type_symbol
_atom_site_label
_atom_site_fract_x
_atom_site_fract_y
_atom_site_fract_z
Si Si1 0.500000 0.000000 0.829193
Si Si2 0.023709 0.187679 0.346836
Si Si3 0.684825 0.650507 0.589186
Si Si4 0.593886 0.268080 0.705961
O O1 0.665963 0.022542 0.885249
O O2 0.487760 0.163637 0.772299
O O3 0.154855 0.264138 0.408850
O O4 0.093522 0.198838 0.255183
O O5 0.851187 0.289203 0.347843
O O6 0.000000 0.000000 0.375777
O O7 0.616999 0.616999 0.500000
O O8 0.529009 0.629523 0.648860
#
# Coordination Sequence:
#
# PCOD8305715 Si02
#       4
#     4   8   8   8
#     4  10  22  40  70 106 142 200 262 304 370 472
#     4  11  23  41  75 104 141 191 258 314 378 463
#     4  11  25  42  73 106 154 197 245 323 390 454
#     4  11  23  44  73 108 141 199 260 317 380 466
#
# _framework density 26.187541
#
# number of rings (size 3 to 8) (size 9 to 14) (size 15 to 20)
#    0.000    1.143    2.857    3.429    8.000    0.571 
#    0.000    0.000    0.000   21.429    0.000    0.000 
#    0.000    0.000    0.000    0.000    0.000    0.000 
#
# Total GULP energy -347145.413276 kJ/mol
# GULP energy per Si atom -12398.050474 kJ/mol
# Density = 2.612794 g / cm^3
# Si number density = 26.187541 Si / 1000 Ang^3
#
#
#
# Elastic Constant Matrix: (Units=GPa)
#
#
# Indices 1 2 3 4 5 6 
#
# 1 122.7931 32.8952 27.4823 0.0000 0.0000 0.0000
# 2 32.8952 122.7931 27.4823 0.0000 0.0000 0.0000
# 3 27.4823 27.4823 141.7886 0.0000 0.0000 0.0000
# 4 0.0000 0.0000 0.0000 19.6151 0.0000 0.0000
# 5 0.0000 0.0000 0.0000 0.0000 19.6151 0.0000
# 6 0.0000 0.0000 0.0000 0.0000 0.0000 60.3075
#
#
#
# Elastic Compliance Matrix: (Units=1/GPa)
#
#
# Indices 1 2 3 4 5 6 
#
# 1 0.009009 -0.002114 -0.001336 0.000000 0.000000 0.000000
# 2 -0.002114 0.009009 -0.001336 0.000000 0.000000 0.000000
# 3 -0.001336 -0.001336 0.007571 0.000000 0.000000 0.000000
# 4 0.000000 0.000000 0.000000 0.050981 0.000000 0.000000
# 5 0.000000 0.000000 0.000000 0.000000 0.050981 0.000000
# 6 0.000000 0.000000 0.000000 0.000000 0.000000 0.016582
#
#
# Mechanical properties :
#
#
# Convention : Reuss Voigt Hill
#
# Bulk Modulus (GPa) = 62.44157 62.56605 62.50381
# Shear Modulus (GPa) = 31.43743 39.87522 35.65632
#
# Velocity S-wave (km/s) = 3.46854 3.90639 3.69396
# Velocity P-wave (km/s) = 6.31956 6.65506 6.48948
#
# Compressibility (1/GPa) = 0.01601497
#
# Stress axis : x y z
#
# Youngs Moduli (GPa) = 110.99629 110.99629 132.08620
#
# Poissons Ratio (x) = 0.23469 0.17652
# Poissons Ratio (y) = 0.23469 0.17652
# Poissons Ratio (z) = 0.14834 0.14834
#
# Static dielectric constant tensor:
#      x y z
#    x 5.457890 0.000000 0.000000 
#    y 0.000000 5.457890 0.000000 
#    z 0.000000 0.000000 4.172240 
# 
# 
# High freq. dielectric constant tensor:
#      x y z
#    x 2.076170 0.000000 0.000000 
#    y 0.000000 2.076170 0.000000 
#    z 0.000000 0.000000 1.997050 
# 
# From -- ./inp_files/3812.got.cif
#   From: 2010.03.12/outbox.cif.g09.slc.cpg/sg94_2_cif.got.tgz:3812.got - 2010.04.08 20:48:32.
