data_PCOD8305237
_publ_section_title
;
Structure prediction by ZEFSAII (Michael W. Deem and Ramdas Pophale) SiO2 
 PCOD8305237
Probable space group: P 41 21 2
;
_chemical_formula_sum "Si O2"
_cell_formula_units_Z 36
_cell_length_a 11.917916
_cell_length_b 11.917916
_cell_length_c 12.970313
_cell_angle_alpha 90.000000
_cell_angle_beta 90.000000
_cell_angle_gamma 90.000000
_cell_volume 1842.260739
_symmetry_space_group_name_H-M "P 41 21 2"
_symmetry_group_IT_number 92
_symmetry_cell_setting 'tetragonal'
loop_
_space_group_symop_operation_xyz
x,y,z
1/2-y,1/2+x,1/4+z
-x,-y,1/2+z
1/2+y,1/2-x,3/4+z
1/2+x,1/2-y,3/4-z
1/2-x,1/2+y,1/4-z
y,x,-z
-y,-x,1/2-z
loop_
_atom_site_type_symbol
_atom_site_label
_atom_site_fract_x
_atom_site_fract_y
_atom_site_fract_z
Si Si1 0.758544 0.407049 0.692738
Si Si2 0.275034 0.358042 0.285004
Si Si3 0.412121 0.288925 0.092594
Si Si4 0.130920 0.150999 0.733509
Si Si5 0.890720 0.109281 0.250000
O O1 0.674236 0.325765 0.750000
O O2 0.780571 0.521259 0.756848
O O3 0.875826 0.340685 0.676914
O O4 0.698515 0.430943 0.585136
O O5 0.371751 0.333500 0.202979
O O6 0.183420 0.260464 0.276412
O O7 0.320016 0.354491 0.400714
O O8 0.547569 0.297459 0.102889
O O9 0.367182 0.367182 0.000000
O O10 0.131037 0.018916 0.726470
#
# Coordination Sequence:
#
# PCOD8305237 Si02
#       5
#     8   8   8   8   4
#     4  10  19  37  63  90 117 153 212 263 297 354
#     4  11  24  38  61  95 123 163 208 254 313 371
#     4  10  20  37  65  92 115 150 213 267 297 348
#     4  11  22  39  64  92 121 164 212 253 312 368
#     4  12  24  40  60  86 132 172 198 246 318 384
#
# _framework density 19.541207
#
# number of rings (size 3 to 8) (size 9 to 14) (size 15 to 20)
#    0.000    1.333    5.556    0.000    0.000    1.778 
#    0.000    6.667    0.000    0.000    0.000    0.000 
#    0.000    0.000    0.000    0.000    0.000    0.000 
#
# Total GULP energy -446220.248996 kJ/mol
# GULP energy per Si atom -12395.006917 kJ/mol
# Density = 1.949673 g / cm^3
# Si number density = 19.541207 Si / 1000 Ang^3
#
#
#
# Elastic Constant Matrix: (Units=GPa)
#
#
# Indices 1 2 3 4 5 6 
#
# 1 88.9802 37.9799 27.8302 0.0000 0.0000 0.0000
# 2 37.9799 88.9774 27.8305 0.0000 0.0000 0.0000
# 3 27.8302 27.8305 103.8391 0.0000 0.0000 0.0000
# 4 0.0000 0.0000 0.0000 22.8960 0.0000 0.0000
# 5 0.0000 0.0000 0.0000 0.0000 22.8954 0.0000
# 6 0.0000 0.0000 0.0000 0.0000 0.0000 18.5006
#
#
#
# Elastic Compliance Matrix: (Units=1/GPa)
#
#
# Indices 1 2 3 4 5 6 
#
# 1 0.014267 -0.005341 -0.002392 0.000000 0.000000 0.000000
# 2 -0.005341 0.014267 -0.002392 0.000000 0.000000 0.000000
# 3 -0.002392 -0.002392 0.010913 0.000000 0.000000 0.000000
# 4 0.000000 0.000000 0.000000 0.043676 0.000000 0.000000
# 5 0.000000 0.000000 0.000000 0.000000 0.043677 0.000000
# 6 0.000000 0.000000 0.000000 0.000000 0.000000 0.054052
#
#
# Mechanical properties :
#
#
# Convention : Reuss Voigt Hill
#
# Bulk Modulus (GPa) = 52.09768 52.11976 52.10872
# Shear Modulus (GPa) = 24.09632 25.40215 24.74924
#
# Velocity S-wave (km/s) = 3.51537 3.60936 3.56267
# Velocity P-wave (km/s) = 6.57232 6.64075 6.60662
#
# Compressibility (1/GPa) = 0.01919471
#
# Stress axis : x y z
#
# Youngs Moduli (GPa) = 70.09408 70.09160 91.63786
#
# Poissons Ratio (x) = 0.37439 0.21920
# Poissons Ratio (y) = 0.37441 0.21922
# Poissons Ratio (z) = 0.16767 0.16767
#
# Static dielectric constant tensor:
#      x y z
#    x 3.634900 0.000000 0.000000 
#    y 0.000000 3.634920 0.000000 
#    z 0.000000 0.000000 3.600320 
# 
# 
# High freq. dielectric constant tensor:
#      x y z
#    x 1.755990 0.000000 0.000000 
#    y 0.000000 1.755990 0.000000 
#    z 0.000000 0.000000 1.764000 
# 
# From -- ./inp_files/1986.got.cif
#   From: 2010.03.12/outbox.cif.g09.slc.cpg/sg92_1_cif.got.tgz:1986.got - 2010.04.08 20:41:11.
