data_PCOD8305513
_publ_section_title
;
Structure prediction by ZEFSAII (Michael W. Deem and Ramdas Pophale) SiO2 
 PCOD8305513
Probable space group: P 42 2 2
;
_chemical_formula_sum "Si O2"
_cell_formula_units_Z 40
_cell_length_a 11.627394
_cell_length_b 11.627394
_cell_length_c 14.801162
_cell_angle_alpha 90.000000
_cell_angle_beta 90.000000
_cell_angle_gamma 90.000000
_cell_volume 2001.062208
_symmetry_space_group_name_H-M "P 42 2 2"
_symmetry_group_IT_number 93
_symmetry_cell_setting 'tetragonal'
loop_
_space_group_symop_operation_xyz
x,y,z
-y,x,1/2+z
-x,-y,z
y,-x,1/2+z
x,-y,-z
-x,y,-z
y,x,1/2-z
-y,-x,1/2-z
loop_
_atom_site_type_symbol
_atom_site_label
_atom_site_fract_x
_atom_site_fract_y
_atom_site_fract_z
Si Si1 0.129946 0.801984 0.485774
Si Si2 0.273602 0.831346 0.665116
Si Si3 0.484061 0.134592 0.716669
Si Si4 0.235048 0.094608 0.676683
Si Si5 0.127820 0.551242 0.412868
O O1 0.203054 0.788485 0.577879
O O2 0.187707 0.899433 0.424858
O O3 0.126454 0.688137 0.424067
O O4 0.000000 0.842376 0.500000
O O5 0.247535 0.752466 0.750000
O O6 0.412859 0.817895 0.652843
O O7 0.243527 0.959923 0.697142
O O8 0.359049 0.158337 0.674129
O O9 0.483858 0.188758 0.818622
O O10 0.500000 0.000000 0.729251
O O11 0.150706 0.150706 0.750000
O O12 0.195860 0.500000 0.500000
O O13 0.000000 0.500000 0.414440
#
# Coordination Sequence:
#
# PCOD8305513 Si02
#       5
#     8   8   8   8   8
#     4  12  23  36  58  95 124 162 204 246 319 369
#     4  11  24  38  58  90 128 159 206 256 311 370
#     4   9  20  38  59  83 114 166 216 250 296 357
#     4  11  22  39  60  86 124 169 205 250 310 381
#     4  10  17  32  60  85 112 150 216 265 272 343
#
# _framework density 19.989383
#
# number of rings (size 3 to 8) (size 9 to 14) (size 15 to 20)
#    0.000    1.400    4.000    3.000    2.800    4.400 
#    0.000    3.000    0.000    0.600    0.000    1.400 
#    0.000    0.000    0.000    0.000    0.000    0.000 
#
# Total GULP energy -495675.602435 kJ/mol
# GULP energy per Si atom -12391.890061 kJ/mol
# Density = 1.994389 g / cm^3
# Si number density = 19.989383 Si / 1000 Ang^3
#
#
#
# Elastic Constant Matrix: (Units=GPa)
#
#
# Indices 1 2 3 4 5 6 
#
# 1 85.4183 10.0889 22.4250 0.0000 0.0000 0.0000
# 2 10.0889 85.4198 22.4255 0.0000 0.0000 0.0000
# 3 22.4250 22.4255 111.7586 0.0000 0.0000 0.0000
# 4 0.0000 0.0000 0.0000 42.1464 0.0000 0.0000
# 5 0.0000 0.0000 0.0000 0.0000 42.1468 0.0000
# 6 0.0000 0.0000 0.0000 0.0000 0.0000 7.9257
#
#
#
# Elastic Compliance Matrix: (Units=1/GPa)
#
#
# Indices 1 2 3 4 5 6 
#
# 1 0.012417 -0.000858 -0.002320 0.000000 0.000000 0.000000
# 2 -0.000858 0.012417 -0.002320 0.000000 0.000000 0.000000
# 3 -0.002320 -0.002320 0.009879 0.000000 0.000000 0.000000
# 4 0.000000 0.000000 0.000000 0.023727 0.000000 0.000000
# 5 0.000000 0.000000 0.000000 0.000000 0.023727 0.000000
# 6 0.000000 0.000000 0.000000 0.000000 0.000000 0.126171
#
#
# Mechanical properties :
#
#
# Convention : Reuss Voigt Hill
#
# Bulk Modulus (GPa) = 42.15888 43.60838 42.88363
# Shear Modulus (GPa) = 22.00337 33.62094 27.81216
#
# Velocity S-wave (km/s) = 3.32136 4.10560 3.73412
# Velocity P-wave (km/s) = 5.98707 6.65865 6.33177
#
# Compressibility (1/GPa) = 0.02371980
#
# Stress axis : x y z
#
# Youngs Moduli (GPa) = 80.53258 80.53381 101.22770
#
# Poissons Ratio (x) = 0.06907 0.23480
# Poissons Ratio (y) = 0.06907 0.23480
# Poissons Ratio (z) = 0.18680 0.18680
#
# Static dielectric constant tensor:
#      x y z
#    x 3.633420 0.000000 0.000000 
#    y 0.000000 3.633410 0.000000 
#    z 0.000000 0.000000 3.950090 
# 
# 
# High freq. dielectric constant tensor:
#      x y z
#    x 1.758910 0.000000 0.000000 
#    y 0.000000 1.758900 0.000000 
#    z 0.000000 0.000000 1.791600 
# 
# From -- ./inp_files/4378.got.cif
#   From: 2010.03.12/outbox.cif.g09.slc.cpg/sg93_3_cif.got.tgz:4378.got - 2010.04.08 20:44:19.
