data_PCOD8305241
_publ_section_title
;
Structure prediction by ZEFSAII (Michael W. Deem and Ramdas Pophale) SiO2 
 PCOD8305241
Probable space group: P 41 21 2
;
_chemical_formula_sum "Si O2"
_cell_formula_units_Z 36
_cell_length_a 7.681363
_cell_length_b 7.681363
_cell_length_c 32.449418
_cell_angle_alpha 90.000000
_cell_angle_beta 90.000000
_cell_angle_gamma 90.000000
_cell_volume 1914.623963
_symmetry_space_group_name_H-M "P 41 21 2"
_symmetry_group_IT_number 92
_symmetry_cell_setting 'tetragonal'
loop_
_space_group_symop_operation_xyz
x,y,z
1/2-y,1/2+x,1/4+z
-x,-y,1/2+z
1/2+y,1/2-x,3/4+z
1/2+x,1/2-y,3/4-z
1/2-x,1/2+y,1/4-z
y,x,-z
-y,-x,1/2-z
loop_
_atom_site_type_symbol
_atom_site_label
_atom_site_fract_x
_atom_site_fract_y
_atom_site_fract_z
Si Si1 0.553267 0.729732 0.183805
Si Si2 0.254882 0.745119 0.250000
Si Si3 0.926437 0.053990 0.877634
Si Si4 0.053558 0.544800 0.118725
Si Si5 0.064554 0.276761 0.694603
O O1 0.388592 0.709236 0.213280
O O2 0.555271 0.571195 0.151531
O O3 0.734126 0.721710 0.209150
O O4 0.553385 0.910713 0.159028
O O5 0.057844 0.717144 0.234658
O O6 0.983548 0.250454 0.872301
O O7 0.739262 0.046880 0.901412
O O8 0.899442 0.974499 0.831705
O O9 0.973615 0.555998 0.165066
#
# Coordination Sequence:
#
# PCOD8305241 Si02
#       5
#     8   4   8   8   8
#     4  12  22  43  63  92 125 162 211 258 302 370
#     4  12  24  40  56  92 136 164 192 256 328 364
#     4  10  19  38  66  89 115 156 211 250 293 362
#     4  10  19  38  66  88 116 157 209 253 292 363
#     4  10  24  41  63  94 121 166 209 254 309 364
#
# _framework density 18.802645999999999
#
# number of rings (size 3 to 8) (size 9 to 14) (size 15 to 20)
#    1.333    0.000    6.667    1.333    0.000    1.778 
#    4.000    0.000    0.000    0.000    0.000    0.000 
#    0.000    0.000    0.000    0.000    0.000    0.000 
#
# Total GULP energy -446137.584840 kJ/mol
# GULP energy per Si atom -12392.710690 kJ/mol
# Density = 1.875985 g / cm^3
# Si number density = 18.802646 Si / 1000 Ang^3
#
#
#
# Elastic Constant Matrix: (Units=GPa)
#
#
# Indices 1 2 3 4 5 6 
#
# 1 80.5316 36.7410 7.4529 0.0000 0.0000 0.0000
# 2 36.7410 80.5335 7.4526 0.0000 0.0000 0.0000
# 3 7.4529 7.4526 47.6195 0.0000 0.0000 0.0000
# 4 0.0000 0.0000 0.0000 21.1535 0.0000 0.0000
# 5 0.0000 0.0000 0.0000 0.0000 21.1532 0.0000
# 6 0.0000 0.0000 0.0000 0.0000 0.0000 20.0348
#
#
#
# Elastic Compliance Matrix: (Units=1/GPa)
#
#
# Indices 1 2 3 4 5 6 
#
# 1 0.015768 -0.007068 -0.001362 0.000000 0.000000 0.000000
# 2 -0.007068 0.015768 -0.001362 0.000000 0.000000 0.000000
# 3 -0.001362 -0.001362 0.021426 0.000000 0.000000 0.000000
# 4 0.000000 0.000000 0.000000 0.047273 0.000000 0.000000
# 5 0.000000 0.000000 0.000000 0.000000 0.047274 0.000000
# 6 0.000000 0.000000 0.000000 0.000000 0.000000 0.049913
#
#
# Mechanical properties :
#
#
# Convention : Reuss Voigt Hill
#
# Bulk Modulus (GPa) = 29.95825 34.66418 32.31122
# Shear Modulus (GPa) = 21.91725 22.93751 22.42738
#
# Velocity S-wave (km/s) = 3.41786 3.49651 3.45741
# Velocity P-wave (km/s) = 5.61634 5.89717 5.75847
#
# Compressibility (1/GPa) = 0.03337979
#
# Stress axis : x y z
#
# Youngs Moduli (GPa) = 63.41961 63.42121 46.67222
#
# Poissons Ratio (x) = 0.44824 0.06356
# Poissons Ratio (y) = 0.44823 0.06354
# Poissons Ratio (z) = 0.08636 0.08635
#
# Static dielectric constant tensor:
#      x y z
#    x 3.626900 0.000000 0.000000 
#    y 0.000000 3.626890 0.000000 
#    z 0.000000 0.000000 3.183210 
# 
# 
# High freq. dielectric constant tensor:
#      x y z
#    x 1.736120 0.000000 0.000000 
#    y 0.000000 1.736120 0.000000 
#    z 0.000000 0.000000 1.695610 
# 
# From -- ./inp_files/4306.got.cif
#   From: 2010.03.12/outbox.cif.g09.slc.cpg/sg92_3_cif.got.tgz:4306.got - 2010.04.08 20:41:11.
