data_PCOD8305597
_publ_section_title
;
Structure prediction by ZEFSAII (Michael W. Deem and Ramdas Pophale) SiO2 
 PCOD8305597
Probable space group: P 42 2 2
;
_chemical_formula_sum "Si O2"
_cell_formula_units_Z 64
_cell_length_a 19.219196
_cell_length_b 19.219196
_cell_length_c 9.555461
_cell_angle_alpha 90.000000
_cell_angle_beta 90.000000
_cell_angle_gamma 90.000000
_cell_volume 3529.572247
_symmetry_space_group_name_H-M "P 42 2 2"
_symmetry_group_IT_number 93
_symmetry_cell_setting 'tetragonal'
loop_
_space_group_symop_operation_xyz
x,y,z
-y,x,1/2+z
-x,-y,z
y,-x,1/2+z
x,-y,-z
-x,y,-z
y,x,1/2-z
-y,-x,1/2-z
loop_
_atom_site_type_symbol
_atom_site_label
_atom_site_fract_x
_atom_site_fract_y
_atom_site_fract_z
Si Si1 0.761970 0.238031 0.094142
Si Si2 0.852921 0.350512 0.514780
Si Si3 0.264126 0.441572 0.093163
Si Si4 0.644062 0.644063 0.591279
Si Si5 0.564936 0.098763 0.250000
Si Si6 0.558428 0.264127 0.906837
Si Si7 0.350513 0.852922 0.514780
Si Si8 0.063542 0.406224 0.250000
O O1 0.783732 0.216269 0.250000
O O2 0.703078 0.296921 0.097831
O O3 0.729755 0.167736 0.022470
O O4 0.832264 0.270245 0.022468
O O5 0.863742 0.399299 0.380386
O O6 0.788427 0.377505 0.607077
O O7 0.920276 0.358869 0.613715
O O8 0.285872 0.465531 0.250000
O O9 0.211573 0.377505 0.107078
O O10 0.225560 0.500000 0.000000
O O11 0.330340 0.422052 0.997213
O O12 0.623060 0.623060 0.750000
O O13 0.669659 0.577948 0.502785
O O14 0.600702 0.136258 0.380385
O O15 0.480115 0.107258 0.250000
O O16 0.579985 0.017466 0.249999
O O17 0.500000 0.225561 0.000000
O O18 0.358870 0.920277 0.613715
#
# Coordination Sequence:
#
# PCOD8305597 Si02
#       8
#     8   8   8   8   8   8   8   8
#     4   9  18  34  52  70  91 129 166 217 272 315
#     4  11  21  34  53  71 100 131 177 219 264 308
#     4  11  21  32  50  71  95 123 160 206 258 306
#     4   9  19  33  49  70  94 117 153 203 262 314
#     4  11  22  35  52  68 112 145 180 215 256 326
#     4  11  21  32  50  71  95 123 160 206 258 306
#     4  11  21  34  53  71 100 131 177 219 264 308
#     4  11  22  35  48  80 102 143 182 219 260 306
#
# _framework density 18.13251
#
# number of rings (size 3 to 8) (size 9 to 14) (size 15 to 20)
#    0.000    1.500    2.500    4.125    3.500    2.500 
#    0.000    0.000    0.000    0.375    0.000    2.625 
#    0.000    0.000    0.000    0.000    0.000   43.750 
#
# Total GULP energy -792853.022265 kJ/mol
# GULP energy per Si atom -12388.328473 kJ/mol
# Density = 1.809124 g / cm^3
# Si number density = 18.132510 Si / 1000 Ang^3
#
#
#
# Elastic Constant Matrix: (Units=GPa)
#
#
# Indices 1 2 3 4 5 6 
#
# 1 45.1080 25.3838 25.4868 0.0000 0.0000 0.0000
# 2 25.3838 45.1081 25.4868 0.0000 0.0000 0.0000
# 3 25.4868 25.4868 150.4105 0.0000 0.0000 0.0000
# 4 0.0000 0.0000 0.0000 14.4426 0.0000 0.0000
# 5 0.0000 0.0000 0.0000 0.0000 14.4423 0.0000
# 6 0.0000 0.0000 0.0000 0.0000 0.0000 27.7054
#
#
#
# Elastic Compliance Matrix: (Units=1/GPa)
#
#
# Indices 1 2 3 4 5 6 
#
# 1 0.033433 -0.017266 -0.002739 0.000000 0.000000 0.000000
# 2 -0.017266 0.033433 -0.002739 0.000000 0.000000 0.000000
# 3 -0.002739 -0.002739 0.007577 0.000000 0.000000 0.000000
# 4 0.000000 0.000000 0.000000 0.069240 0.000000 0.000000
# 5 0.000000 0.000000 0.000000 0.000000 0.069241 0.000000
# 6 0.000000 0.000000 0.000000 0.000000 0.000000 0.036094
#
#
# Mechanical properties :
#
#
# Convention : Reuss Voigt Hill
#
# Bulk Modulus (GPa) = 34.53876 43.70459 39.12168
# Shear Modulus (GPa) = 16.43879 22.26933 19.35406
#
# Velocity S-wave (km/s) = 3.01423 3.50829 3.27060
# Velocity P-wave (km/s) = 5.58601 6.36915 5.99039
#
# Compressibility (1/GPa) = 0.02895298
#
# Stress axis : x y z
#
# Youngs Moduli (GPa) = 29.91053 29.91057 131.98070
#
# Poissons Ratio (x) = 0.51644 0.36156
# Poissons Ratio (y) = 0.51644 0.36156
# Poissons Ratio (z) = 0.08194 0.08194
#
# Static dielectric constant tensor:
#      x y z
#    x 3.178930 0.000000 0.000000 
#    y 0.000000 3.178930 0.000000 
#    z 0.000000 0.000000 3.586390 
# 
# 
# High freq. dielectric constant tensor:
#      x y z
#    x 1.660720 0.000000 0.000000 
#    y 0.000000 1.660720 0.000000 
#    z 0.000000 0.000000 1.729630 
# 
# From -- ./inp_files/2275.got.cif
#   From: 2010.03.12/outbox.cif.g09.slc.cpg/sg93_2_cif.got.tgz:2275.got - 2010.04.08 20:44:19.
