data_PCOD8305181
_publ_section_title
;
Structure prediction by ZEFSAII (Michael W. Deem and Ramdas Pophale) SiO2 
 PCOD8305181
Probable space group: P 41 2 2
;
_chemical_formula_sum "Si O2"
_cell_formula_units_Z 36
_cell_length_a 11.602630
_cell_length_b 11.602630
_cell_length_c 11.549315
_cell_angle_alpha 90.000000
_cell_angle_beta 90.000000
_cell_angle_gamma 90.000000
_cell_volume 1554.780599
_symmetry_space_group_name_H-M "P 41 2 2"
_symmetry_group_IT_number 91
_symmetry_cell_setting 'tetragonal'
loop_
_space_group_symop_operation_xyz
x,y,z
-y,x,1/4+z
-x,-y,1/2+z
y,-x,3/4+z
x,-y,1/2-z
-x,y,-z
y,x,3/4-z
-y,-x,1/4-z
loop_
_atom_site_type_symbol
_atom_site_label
_atom_site_fract_x
_atom_site_fract_y
_atom_site_fract_z
Si Si1 0.354950 0.624391 0.254185
Si Si2 0.086065 0.000000 0.250000
Si Si3 0.796700 0.812538 0.627635
Si Si4 0.616268 0.854800 0.450607
Si Si5 0.700874 0.000000 0.250000
Si Si6 0.601837 0.398164 0.125000
O O1 0.295023 0.500000 0.250000
O O2 0.286099 0.707284 0.339255
O O3 0.490152 0.607724 0.290729
O O4 0.333097 0.666904 0.125000
O O5 0.173062 0.107461 0.236323
O O6 0.016114 0.016114 0.375000
O O7 0.728510 0.884694 0.528176
O O8 0.921864 0.776682 0.583025
O O9 0.500000 0.910692 0.500000
O O10 0.625695 0.910051 0.323972
O O11 0.603717 0.716540 0.451541
#
# Coordination Sequence:
#
# PCOD8305181 Si02
#       6
#     8   4   8   8   4   4
#     4  12  25  41  74 110 147 186 236 297 367 454
#     4  12  27  51  82 108 148 201 261 326 382 456
#     4  12  26  48  73 107 145 192 253 309 377 446
#     4  12  25  46  76 104 147 196 246 309 377 456
#     4  12  27  45  70 106 144 195 247 310 380 452
#     4  12  22  50  74 110 144 198 248 292 378 464
#
# _framework density 23.154392999999999
#
# number of rings (size 3 to 8) (size 9 to 14) (size 15 to 20)
#    0.000    0.000    5.556    4.667    0.000    1.778 
#    0.000    0.000    0.000    0.000    0.000    0.000 
#    0.000    0.000    0.000    0.000    0.000    0.000 
#
# Total GULP energy -446054.568556 kJ/mol
# GULP energy per Si atom -12390.404682 kJ/mol
# Density = 2.310169 g / cm^3
# Si number density = 23.154393 Si / 1000 Ang^3
#
#
#
# Elastic Constant Matrix: (Units=GPa)
#
#
# Indices 1 2 3 4 5 6 
#
# 1 116.9499 57.4832 49.3905 0.0000 0.0000 0.0000
# 2 57.4832 116.9496 49.3905 0.0000 0.0000 0.0000
# 3 49.3905 49.3905 134.9221 0.0000 0.0000 0.0000
# 4 0.0000 0.0000 0.0000 43.5999 0.0000 0.0000
# 5 0.0000 0.0000 0.0000 0.0000 43.6002 0.0000
# 6 0.0000 0.0000 0.0000 0.0000 0.0000 7.9898
#
#
#
# Elastic Compliance Matrix: (Units=1/GPa)
#
#
# Indices 1 2 3 4 5 6 
#
# 1 0.012024 -0.004792 -0.002647 0.000000 0.000000 0.000000
# 2 -0.004792 0.012024 -0.002647 0.000000 0.000000 0.000000
# 3 -0.002647 -0.002647 0.009350 0.000000 0.000000 0.000000
# 4 0.000000 0.000000 0.000000 0.022936 0.000000 0.000000
# 5 0.000000 0.000000 0.000000 0.000000 0.022936 0.000000
# 6 0.000000 0.000000 0.000000 0.000000 0.000000 0.125159
#
#
# Mechanical properties :
#
#
# Convention : Reuss Voigt Hill
#
# Bulk Modulus (GPa) = 75.61765 75.70556 75.66160
# Shear Modulus (GPa) = 21.83300 33.20848 27.52074
#
# Velocity S-wave (km/s) = 3.07405 3.79122 3.45131
# Velocity P-wave (km/s) = 6.73265 7.20634 6.97352
#
# Compressibility (1/GPa) = 0.01322443
#
# Stress axis : x y z
#
# Youngs Moduli (GPa) = 83.16614 83.16592 106.95235
#
# Poissons Ratio (x) = 0.39853 0.28315
# Poissons Ratio (y) = 0.39854 0.28315
# Poissons Ratio (z) = 0.22018 0.22018
#
# Static dielectric constant tensor:
#      x y z
#    x 4.224330 0.000000 0.000000 
#    y 0.000000 4.224330 0.000000 
#    z 0.000000 0.000000 4.312160 
# 
# 
# High freq. dielectric constant tensor:
#      x y z
#    x 1.912930 0.000000 0.000000 
#    y 0.000000 1.912930 0.000000 
#    z 0.000000 0.000000 1.932120 
# 
# From -- ./inp_files/3576.got.cif
#   From: 2010.03.12/outbox.cif.g09.slc.cpg/sg91_2_cif.got.tgz:3576.got - 2010.04.08 20:27:58.
