data_PCOD8305101
_publ_section_title
;
Structure prediction by ZEFSAII (Michael W. Deem and Ramdas Pophale) SiO2 
 PCOD8305101
Probable space group: P 41 2 2
;
_chemical_formula_sum "Si O2"
_cell_formula_units_Z 56
_cell_length_a 14.861405
_cell_length_b 14.861405
_cell_length_c 11.383073
_cell_angle_alpha 90.000000
_cell_angle_beta 90.000000
_cell_angle_gamma 90.000000
_cell_volume 2514.080968
_symmetry_space_group_name_H-M "P 41 2 2"
_symmetry_group_IT_number 91
_symmetry_cell_setting 'tetragonal'
loop_
_space_group_symop_operation_xyz
x,y,z
-y,x,1/4+z
-x,-y,1/2+z
y,-x,3/4+z
x,-y,1/2-z
-x,y,-z
y,x,3/4-z
-y,-x,1/4-z
loop_
_atom_site_type_symbol
_atom_site_label
_atom_site_fract_x
_atom_site_fract_y
_atom_site_fract_z
Si Si1 0.736387 0.131995 0.577392
Si Si2 0.514968 0.903186 0.692767
Si Si3 0.236473 0.557072 0.136862
Si Si4 0.192014 0.849513 0.836450
Si Si5 0.553523 0.446478 0.625000
Si Si6 0.698286 0.934872 0.590260
Si Si7 0.937288 0.000000 0.250000
Si Si8 0.913402 0.682924 0.417060
O O1 0.830808 0.169193 0.625000
O O2 0.660401 0.208564 0.591078
O O3 0.752184 0.105558 0.442240
O O4 0.708765 0.037429 0.641883
O O5 0.518795 0.822309 0.782969
O O6 0.597156 0.898611 0.602061
O O7 0.419272 0.890686 0.630904
O O8 0.519412 0.000000 0.750000
O O9 0.210044 0.500000 0.250000
O O10 0.340387 0.540978 0.102140
O O11 0.140659 0.763980 0.896488
O O12 0.122032 0.912717 0.770139
O O13 0.267984 0.830381 0.735754
O O14 0.526142 0.500000 0.750000
O O15 0.731340 0.932948 0.455601
O O16 0.991995 0.008006 0.125000
O O17 0.000000 0.691945 0.500000
#
# Coordination Sequence:
#
# PCOD8305101 Si02
#       8
#     8   8   8   8   4   8   4   8
#     4  12  24  40  63  98 139 183 231 301 358 427
#     4  11  24  40  66 101 140 172 227 291 363 429
#     4  11  23  42  71 105 140 187 239 293 366 442
#     4  12  24  42  66  92 133 183 241 285 362 432
#     4  10  24  50  84 114 150 200 252 318 386 462
#     4  12  25  40  64  96 135 178 234 297 347 428
#     4  12  26  46  64  94 132 184 248 302 358 438
#     4  11  22  43  65  91 127 184 227 283 362 428
#
# _framework density 22.274542
#
# number of rings (size 3 to 8) (size 9 to 14) (size 15 to 20)
#    0.000    0.571    4.286    4.286    2.000    2.286 
#    0.000    1.429    0.000    0.000    0.000    0.000 
#    0.000    0.000    0.000    0.000    0.000    0.000 
#
# Total GULP energy -693736.521781 kJ/mol
# GULP energy per Si atom -12388.152175 kJ/mol
# Density = 2.222384 g / cm^3
# Si number density = 22.274542 Si / 1000 Ang^3
#
#
#
# Elastic Constant Matrix: (Units=GPa)
#
#
# Indices 1 2 3 4 5 6 
#
# 1 96.8794 31.2315 11.2552 0.0000 0.0000 0.0000
# 2 31.2315 96.8781 11.2532 0.0000 0.0000 0.0000
# 3 11.2552 11.2532 65.0794 0.0000 0.0000 0.0000
# 4 0.0000 0.0000 0.0000 37.9584 0.0000 0.0000
# 5 0.0000 0.0000 0.0000 0.0000 37.9587 0.0000
# 6 0.0000 0.0000 0.0000 0.0000 0.0000 27.3373
#
#
#
# Elastic Compliance Matrix: (Units=1/GPa)
#
#
# Indices 1 2 3 4 5 6 
#
# 1 0.011642 -0.003591 -0.001392 0.000000 0.000000 0.000000
# 2 -0.003591 0.011642 -0.001392 0.000000 0.000000 0.000000
# 3 -0.001392 -0.001392 0.015847 0.000000 0.000000 0.000000
# 4 0.000000 0.000000 0.000000 0.026345 0.000000 0.000000
# 5 0.000000 0.000000 0.000000 0.000000 0.026344 0.000000
# 6 0.000000 0.000000 0.000000 0.000000 0.000000 0.036580
#
#
# Mechanical properties :
#
#
# Convention : Reuss Voigt Hill
#
# Bulk Modulus (GPa) = 37.90830 40.70188 39.30509
# Shear Modulus (GPa) = 33.34575 34.32400 33.83487
#
# Velocity S-wave (km/s) = 3.87335 3.92975 3.90165
# Velocity P-wave (km/s) = 6.08764 6.23724 6.16289
#
# Compressibility (1/GPa) = 0.02637945
#
# Stress axis : x y z
#
# Youngs Moduli (GPa) = 85.89875 85.89815 63.10211
#
# Poissons Ratio (x) = 0.30848 0.08786
# Poissons Ratio (y) = 0.30849 0.08783
# Poissons Ratio (z) = 0.11960 0.11956
#
# Static dielectric constant tensor:
#      x y z
#    x 4.148770 0.000000 0.000000 
#    y 0.000000 4.148770 0.000000 
#    z 0.000000 0.000000 4.179800 
# 
# 
# High freq. dielectric constant tensor:
#      x y z
#    x 1.871100 0.000000 0.000000 
#    y 0.000000 1.871100 0.000000 
#    z 0.000000 0.000000 1.894820 
# 
# From -- ./inp_files/3948.got.cif
#   From: 2010.03.12/outbox.cif.g09.slc.cpg/sg91_2_cif.got.tgz:3948.got - 2010.04.08 20:27:58.
