data_PCOD8305711
_publ_section_title
;
Structure prediction by ZEFSAII (Michael W. Deem and Ramdas Pophale) SiO2 
 PCOD8305711
Probable space group: P 42 21 2
;
_chemical_formula_sum "Si O2"
_cell_formula_units_Z 32
_cell_length_a 9.015412
_cell_length_b 9.015412
_cell_length_c 18.343647
_cell_angle_alpha 90.000000
_cell_angle_beta 90.000000
_cell_angle_gamma 90.000000
_cell_volume 1490.928585
_symmetry_space_group_name_H-M "P 42 21 2"
_symmetry_group_IT_number 94
_symmetry_cell_setting 'tetragonal'
loop_
_space_group_symop_operation_xyz
x,y,z
1/2-y,1/2+x,1/2+z
-x,-y,z
1/2+y,1/2-x,1/2+z
1/2+x,1/2-y,1/2-z
1/2-x,1/2+y,1/2-z
y,x,-z
-y,-x,-z
loop_
_atom_site_type_symbol
_atom_site_label
_atom_site_fract_x
_atom_site_fract_y
_atom_site_fract_z
Si Si1 0.494012 0.830625 0.714285
Si Si2 0.011178 0.328833 0.551195
Si Si3 0.331269 0.329436 0.835853
Si Si4 0.379011 0.758440 0.104151
O O1 0.546884 0.720350 0.777177
O O2 0.330396 0.777966 0.691450
O O3 0.594794 0.817482 0.642389
O O4 0.500000 0.000000 0.743764
O O5 0.161267 0.263526 0.586128
O O6 0.019997 0.304223 0.464879
O O7 0.000000 0.500000 0.571495
O O8 0.869701 0.245456 0.586075
O O9 0.333718 0.508347 0.844037
#
# Coordination Sequence:
#
# PCOD8305711 Si02
#       4
#     8   8   8   8
#     4  10  22  40  60  90 127 163 205 258 317 373
#     4  11  22  40  64  92 125 163 210 260 313 370
#     4  11  21  37  63  90 121 162 209 256 313 375
#     4  10  23  42  64  90 124 166 210 258 311 374
#
# _framework density 21.463132999999999
#
# number of rings (size 3 to 8) (size 9 to 14) (size 15 to 20)
#    0.000    1.500    0.000    6.000    0.000    6.000 
#    0.000    6.250    0.000    3.000    0.000    0.000 
#    0.000    0.000    0.000    0.000    0.000    0.000 
#
# Total GULP energy -396852.856656 kJ/mol
# GULP energy per Si atom -12401.651771 kJ/mol
# Density = 2.141428 g / cm^3
# Si number density = 21.463133 Si / 1000 Ang^3
#
#
#
# Elastic Constant Matrix: (Units=GPa)
#
#
# Indices 1 2 3 4 5 6 
#
# 1 90.7119 28.4338 26.7601 0.0000 0.0000 0.0000
# 2 28.4338 90.7119 26.7601 0.0000 0.0000 0.0000
# 3 26.7601 26.7601 107.2059 0.0000 0.0000 0.0000
# 4 0.0000 0.0000 0.0000 38.5287 0.0000 0.0000
# 5 0.0000 0.0000 0.0000 0.0000 38.5287 0.0000
# 6 0.0000 0.0000 0.0000 0.0000 0.0000 32.4805
#
#
#
# Elastic Compliance Matrix: (Units=1/GPa)
#
#
# Indices 1 2 3 4 5 6 
#
# 1 0.012755 -0.003302 -0.002360 0.000000 0.000000 0.000000
# 2 -0.003302 0.012755 -0.002360 0.000000 0.000000 0.000000
# 3 -0.002360 -0.002360 0.010506 0.000000 0.000000 0.000000
# 4 0.000000 0.000000 0.000000 0.025955 0.000000 0.000000
# 5 0.000000 0.000000 0.000000 0.000000 0.025955 0.000000
# 6 0.000000 0.000000 0.000000 0.000000 0.000000 0.030788
#
#
# Mechanical properties :
#
#
# Convention : Reuss Voigt Hill
#
# Bulk Modulus (GPa) = 50.06649 50.28197 50.17423
# Shear Modulus (GPa) = 35.35739 35.68596 35.52168
#
# Velocity S-wave (km/s) = 4.06316 4.08200 4.07259
# Velocity P-wave (km/s) = 6.73719 6.75980 6.74851
#
# Compressibility (1/GPa) = 0.01997344
#
# Stress axis : x y z
#
# Youngs Moduli (GPa) = 78.40054 78.40054 95.18523
#
# Poissons Ratio (x) = 0.25888 0.22460
# Poissons Ratio (y) = 0.25888 0.22460
# Poissons Ratio (z) = 0.18499 0.18499
#
# Static dielectric constant tensor:
#      x y z
#    x 3.835240 0.000000 0.000000 
#    y 0.000000 3.835240 0.000000 
#    z 0.000000 0.000000 4.090890 
# 
# 
# High freq. dielectric constant tensor:
#      x y z
#    x 1.840720 0.000000 0.000000 
#    y 0.000000 1.840720 0.000000 
#    z 0.000000 0.000000 1.853180 
# 
# From -- ./inp_files/4379.got.cif
#   From: 2010.03.12/outbox.cif.g09.slc.cpg/sg94_3_cif.got.tgz:4379.got - 2010.04.08 20:48:32.
