data_PCOD8305855
_publ_section_title
;
Structure prediction by ZEFSAII (Michael W. Deem and Ramdas Pophale) SiO2 
 PCOD8305855
Probable space group: P 43 2 2
;
_chemical_formula_sum "Si O2"
_cell_formula_units_Z 56
_cell_length_a 14.576640
_cell_length_b 14.576640
_cell_length_c 12.963951
_cell_angle_alpha 90.000000
_cell_angle_beta 90.000000
_cell_angle_gamma 90.000000
_cell_volume 2754.560003
_symmetry_space_group_name_H-M "P 43 2 2"
_symmetry_group_IT_number 95
_symmetry_cell_setting 'tetragonal'
loop_
_space_group_symop_operation_xyz
x,y,z
-y,x,3/4+z
-x,-y,1/2+z
y,-x,1/4+z
x,-y,1/2-z
-x,y,-z
y,x,1/4-z
-y,-x,3/4-z
loop_
_atom_site_type_symbol
_atom_site_label
_atom_site_fract_x
_atom_site_fract_y
_atom_site_fract_z
Si Si1 0.440486 0.852445 0.406127
Si Si2 0.512146 0.657042 0.677352
Si Si3 0.114903 0.000000 0.750000
Si Si4 0.040702 0.814334 0.781268
Si Si5 0.708616 0.155741 0.615525
Si Si6 0.570405 0.681189 0.906340
Si Si7 0.000000 0.380973 0.000000
Si Si8 0.762364 0.155819 0.971917
O O1 0.500000 0.892627 0.500000
O O2 0.482335 0.757370 0.369731
O O3 0.442876 0.931761 0.319085
O O4 0.340098 0.821066 0.439750
O O5 0.582575 0.582575 0.625000
O O6 0.521551 0.666710 0.798525
O O7 0.406673 0.633755 0.664366
O O8 0.176885 0.035770 0.655177
O O9 0.049744 0.086585 0.776170
O O10 0.125791 0.751140 0.744869
O O11 0.950144 0.764536 0.746168
O O12 0.624639 0.222868 0.593461
O O13 0.681293 0.063860 0.677281
O O14 0.784747 0.209977 0.679882
O O15 0.500000 0.685118 0.000000
O O16 0.827490 0.172511 0.875000
#
# Coordination Sequence:
#
# PCOD8305855 Si02
#       8
#     8   8   4   8   8   8   4   8
#     4  12  25  43  69 100 137 184 233 292 351 421
#     4  12  23  46  75 107 138 178 230 302 360 435
#     4  10  24  43  61  96 138 182 234 288 349 413
#     4  11  23  41  66  95 139 181 234 289 346 412
#     4  12  23  45  69  99 141 185 235 295 346 425
#     4  12  26  45  73 105 143 181 231 292 372 436
#     4  12  24  45  67  98 136 182 234 284 345 415
#     4  12  22  39  69 103 129 173 235 290 351 406
#
# _framework density 20.329926
#
# number of rings (size 3 to 8) (size 9 to 14) (size 15 to 20)
#    0.000    0.286    5.714    4.714    2.000    1.143 
#    5.143    0.714    0.000    0.000    0.000    0.000 
#    0.000    0.000    0.000    0.000    0.000    0.000 
#
# Total GULP energy -694234.260266 kJ/mol
# GULP energy per Si atom -12397.040362 kJ/mol
# Density = 2.028365 g / cm^3
# Si number density = 20.329926 Si / 1000 Ang^3
#
#
#
# Elastic Constant Matrix: (Units=GPa)
#
#
# Indices 1 2 3 4 5 6 
#
# 1 91.3378 50.9582 37.4138 0.0000 0.0000 0.0000
# 2 50.9582 91.3376 37.4128 0.0000 0.0000 0.0000
# 3 37.4138 37.4128 138.5036 0.0000 0.0000 0.0000
# 4 0.0000 0.0000 0.0000 45.8332 0.0000 0.0000
# 5 0.0000 0.0000 0.0000 0.0000 45.8337 0.0000
# 6 0.0000 0.0000 0.0000 0.0000 0.0000 32.2207
#
#
#
# Elastic Compliance Matrix: (Units=1/GPa)
#
#
# Indices 1 2 3 4 5 6 
#
# 1 0.016478 -0.008287 -0.002213 0.000000 0.000000 0.000000
# 2 -0.008287 0.016478 -0.002213 0.000000 0.000000 0.000000
# 3 -0.002213 -0.002213 0.008415 0.000000 0.000000 0.000000
# 4 0.000000 0.000000 0.000000 0.021818 0.000000 0.000000
# 5 0.000000 0.000000 0.000000 0.000000 0.021818 0.000000
# 6 0.000000 0.000000 0.000000 0.000000 0.000000 0.031036
#
#
# Mechanical properties :
#
#
# Convention : Reuss Voigt Hill
#
# Bulk Modulus (GPa) = 62.70718 63.63874 63.17296
# Shear Modulus (GPa) = 34.06365 37.80378 35.93371
#
# Velocity S-wave (km/s) = 4.09778 4.31689 4.20876
# Velocity P-wave (km/s) = 7.30074 7.49789 7.39997
#
# Compressibility (1/GPa) = 0.01594714
#
# Stress axis : x y z
#
# Youngs Moduli (GPa) = 60.68648 60.68672 118.82973
#
# Poissons Ratio (x) = 0.50291 0.26294
# Poissons Ratio (y) = 0.50291 0.26291
# Poissons Ratio (z) = 0.13428 0.13427
#
# Static dielectric constant tensor:
#      x y z
#    x 3.807440 0.000000 0.000000 
#    y 0.000000 3.807440 0.000000 
#    z 0.000000 0.000000 5.929430 
# 
# 
# High freq. dielectric constant tensor:
#      x y z
#    x 1.799110 0.000000 0.000000 
#    y 0.000000 1.799110 0.000000 
#    z 0.000000 0.000000 1.807240 
# 
# From -- ./inp_files/4005.got.cif
#   From: 2010.03.12/outbox.cif.g09.slc.cpg/sg95_3_cif.got.tgz:4005.got - 2010.04.08 20:51:55.
