data_PCOD8305070
_publ_section_title
;
Structure prediction by ZEFSAII (Michael W. Deem and Ramdas Pophale) SiO2 
 PCOD8305070
Probable space group: P 41 2 2
;
_chemical_formula_sum "Si O2"
_cell_formula_units_Z 60
_cell_length_a 11.887955
_cell_length_b 11.887955
_cell_length_c 20.958072
_cell_angle_alpha 90.000000
_cell_angle_beta 90.000000
_cell_angle_gamma 90.000000
_cell_volume 2961.867545
_symmetry_space_group_name_H-M "P 41 2 2"
_symmetry_group_IT_number 91
_symmetry_cell_setting 'tetragonal'
loop_
_space_group_symop_operation_xyz
x,y,z
-y,x,1/4+z
-x,-y,1/2+z
y,-x,3/4+z
x,-y,1/2-z
-x,y,-z
y,x,3/4-z
-y,-x,1/4-z
loop_
_atom_site_type_symbol
_atom_site_label
_atom_site_fract_x
_atom_site_fract_y
_atom_site_fract_z
Si Si1 0.121160 0.984339 0.824126
Si Si2 0.155416 0.736772 0.850109
Si Si3 0.606371 0.786632 0.106368
Si Si4 0.475216 0.707310 0.758434
Si Si5 0.035422 0.639342 0.625016
Si Si6 0.082950 0.427616 0.552367
Si Si7 0.626112 0.765122 0.476141
Si Si8 0.367504 0.500000 0.250000
O O1 0.047746 0.047746 0.875000
O O2 0.246855 0.027525 0.834964
O O3 0.086228 0.000000 0.750000
O O4 0.099824 0.857202 0.844207
O O5 0.268766 0.737190 0.891517
O O6 0.071942 0.653534 0.886680
O O7 0.170895 0.697056 0.778506
O O8 0.554667 0.771715 0.176640
O O9 0.615101 0.919182 0.085714
O O10 0.533706 0.714700 0.057335
O O11 0.556957 0.788078 0.718665
O O12 0.361614 0.676476 0.717207
O O13 0.549585 0.598034 0.773708
O O14 0.036419 0.548873 0.569621
O O15 0.152295 0.633669 0.665013
O O16 0.000000 0.374209 0.500000
O O17 0.500000 0.749732 0.500000
#
# Coordination Sequence:
#
# PCOD8305070 Si02
#       8
#     8   8   8   8   8   8   8   4
#     4  11  25  45  72 100 134 179 226 287 342 404
#     4  10  23  43  63  94 132 165 216 275 330 389
#     4  10  23  41  62  87 132 168 214 270 322 392
#     4  11  24  41  61  98 131 170 213 274 334 401
#     4  11  24  40  64 100 129 172 223 274 331 404
#     4  12  23  41  67  89 132 178 216 268 333 400
#     4  11  22  40  63  97 133 165 218 278 338 395
#     4  12  22  40  68  90 126 176 218 264 334 398
#
# _framework density 20.257487999999999
#
# number of rings (size 3 to 8) (size 9 to 14) (size 15 to 20)
#    0.000    1.067    4.667    1.600    6.533    0.533 
#    2.400    0.000    2.933    0.000    0.000    0.000 
#    0.000    0.000    0.000    0.000    0.000    0.000 
#
# Total GULP energy -743713.315045 kJ/mol
# GULP energy per Si atom -12395.221917 kJ/mol
# Density = 2.021138 g / cm^3
# Si number density = 20.257488 Si / 1000 Ang^3
#
#
#
# Elastic Constant Matrix: (Units=GPa)
#
#
# Indices 1 2 3 4 5 6 
#
# 1 77.4511 40.9392 39.4383 0.0000 0.0000 0.0000
# 2 40.9392 77.4511 39.4383 0.0000 0.0000 0.0000
# 3 39.4383 39.4383 80.7313 0.0000 0.0000 0.0000
# 4 0.0000 0.0000 0.0000 30.3539 0.0000 0.0000
# 5 0.0000 0.0000 0.0000 0.0000 30.3539 0.0000
# 6 0.0000 0.0000 0.0000 0.0000 0.0000 83.0572
#
#
#
# Elastic Compliance Matrix: (Units=1/GPa)
#
#
# Indices 1 2 3 4 5 6 
#
# 1 0.019955 -0.007433 -0.006117 0.000000 0.000000 0.000000
# 2 -0.007433 0.019955 -0.006117 0.000000 0.000000 0.000000
# 3 -0.006117 -0.006117 0.018364 0.000000 0.000000 0.000000
# 4 0.000000 0.000000 0.000000 0.032945 0.000000 0.000000
# 5 0.000000 0.000000 0.000000 0.000000 0.032945 0.000000
# 6 0.000000 0.000000 0.000000 0.000000 0.000000 0.012040
#
#
# Mechanical properties :
#
#
# Convention : Reuss Voigt Hill
#
# Bulk Modulus (GPa) = 52.80149 52.80725 52.80437
# Shear Modulus (GPa) = 27.49494 36.47417 31.98455
#
# Velocity S-wave (km/s) = 3.68812 4.24787 3.97785
# Velocity P-wave (km/s) = 6.65267 7.08405 6.87175
#
# Compressibility (1/GPa) = 0.01893886
#
# Stress axis : x y z
#
# Youngs Moduli (GPa) = 50.11201 50.11201 54.45579
#
# Poissons Ratio (x) = 0.37249 0.33312
# Poissons Ratio (y) = 0.37249 0.33312
# Poissons Ratio (z) = 0.30655 0.30655
#
# Static dielectric constant tensor:
#      x y z
#    x 3.764540 0.000000 0.000000 
#    y 0.000000 3.764540 0.000000 
#    z 0.000000 0.000000 3.202830 
# 
# 
# High freq. dielectric constant tensor:
#      x y z
#    x 1.797950 0.000000 0.000000 
#    y 0.000000 1.797950 0.000000 
#    z 0.000000 0.000000 1.786040 
# 
# From -- ./inp_files/21579.got.cif
#   From: 2010.03.12/outbox.cif.g09.slc.cpg/sg91_11_cif.got.tgz:21579.got - 2010.04.08 20:27:58.
