data_PCOD8305357
_publ_section_title
;
Structure prediction by ZEFSAII (Michael W. Deem and Ramdas Pophale) SiO2 
 PCOD8305357
Probable space group: P 41 21 2
;
_chemical_formula_sum "Si O2"
_cell_formula_units_Z 40
_cell_length_a 13.910782
_cell_length_b 13.910782
_cell_length_c 9.101476
_cell_angle_alpha 90.000000
_cell_angle_beta 90.000000
_cell_angle_gamma 90.000000
_cell_volume 1761.225309
_symmetry_space_group_name_H-M "P 41 21 2"
_symmetry_group_IT_number 92
_symmetry_cell_setting 'tetragonal'
loop_
_space_group_symop_operation_xyz
x,y,z
1/2-y,1/2+x,1/4+z
-x,-y,1/2+z
1/2+y,1/2-x,3/4+z
1/2+x,1/2-y,3/4-z
1/2-x,1/2+y,1/4-z
y,x,-z
-y,-x,1/2-z
loop_
_atom_site_type_symbol
_atom_site_label
_atom_site_fract_x
_atom_site_fract_y
_atom_site_fract_z
Si Si1 0.111596 0.483753 0.169536
Si Si2 0.808252 0.045966 0.093008
Si Si3 0.675073 0.324928 0.750000
Si Si4 0.546012 0.704873 0.178338
Si Si5 0.833552 0.833552 0.000000
Si Si6 0.161146 0.316132 0.753986
O O1 0.200670 0.417991 0.228921
O O2 0.073437 0.532834 0.322814
O O3 0.157413 0.554449 0.050490
O O4 0.778899 0.069569 0.258745
O O5 0.897660 0.107683 0.028113
O O6 0.717236 0.082286 0.998837
O O7 0.831534 0.933743 0.086941
O O8 0.565689 0.309312 0.706235
O O9 0.743321 0.291898 0.618821
O O10 0.833751 0.739202 0.099844
#
# Coordination Sequence:
#
# PCOD8305357 Si02
#       6
#     8   8   4   8   4   8
#     4  11  27  47  72 104 145 199 254 314 371 448
#     4  11  24  42  71 108 141 188 247 301 378 449
#     4  10  21  46  64  91 144 180 234 292 368 431
#     4  10  23  42  68 102 138 185 235 302 371 436
#     4  12  23  46  76 105 148 194 246 312 370 459
#     4  11  25  44  70 104 142 190 241 301 370 437
#
# _framework density 22.711459999999999
#
# number of rings (size 3 to 8) (size 9 to 14) (size 15 to 20)
#    0.000    1.200    2.000    3.000    8.400    1.600 
#    0.000    0.000    0.000    0.000    0.000    0.000 
#    0.000    0.000    0.000    0.000    0.000    0.000 
#
# Total GULP energy -495638.290920 kJ/mol
# GULP energy per Si atom -12390.957273 kJ/mol
# Density = 2.265977 g / cm^3
# Si number density = 22.711460 Si / 1000 Ang^3
#
#
#
# Elastic Constant Matrix: (Units=GPa)
#
#
# Indices 1 2 3 4 5 6 
#
# 1 79.5356 30.4010 23.6525 0.0000 0.0000 0.0000
# 2 30.4010 79.5360 23.6525 0.0000 0.0000 0.0000
# 3 23.6525 23.6525 79.5625 0.0000 0.0000 0.0000
# 4 0.0000 0.0000 0.0000 37.2187 0.0000 0.0000
# 5 0.0000 0.0000 0.0000 0.0000 37.2175 0.0000
# 6 0.0000 0.0000 0.0000 0.0000 0.0000 42.7260
#
#
#
# Elastic Compliance Matrix: (Units=1/GPa)
#
#
# Indices 1 2 3 4 5 6 
#
# 1 0.015391 -0.004961 -0.003101 0.000000 0.000000 0.000000
# 2 -0.004961 0.015391 -0.003101 0.000000 0.000000 0.000000
# 3 -0.003101 -0.003101 0.014412 0.000000 0.000000 0.000000
# 4 0.000000 0.000000 0.000000 0.026868 0.000000 0.000000
# 5 0.000000 0.000000 0.000000 0.000000 0.026869 0.000000
# 6 0.000000 0.000000 0.000000 0.000000 0.000000 0.023405
#
#
# Mechanical properties :
#
#
# Convention : Reuss Voigt Hill
#
# Bulk Modulus (GPa) = 43.72535 43.78290 43.75413
# Shear Modulus (GPa) = 32.83311 34.16099 33.49705
#
# Velocity S-wave (km/s) = 3.80631 3.88252 3.84460
# Velocity P-wave (km/s) = 6.21383 6.27840 6.24620
#
# Compressibility (1/GPa) = 0.02287003
#
# Stress axis : x y z
#
# Youngs Moduli (GPa) = 64.97163 64.97205 69.38505
#
# Poissons Ratio (x) = 0.32232 0.21515
# Poissons Ratio (y) = 0.32232 0.21515
# Poissons Ratio (z) = 0.20146 0.20146
#
# Static dielectric constant tensor:
#      x y z
#    x 4.200920 0.000000 0.000000 
#    y 0.000000 4.200890 0.000000 
#    z 0.000000 0.000000 4.179100 
# 
# 
# High freq. dielectric constant tensor:
#      x y z
#    x 1.901210 0.000000 0.000000 
#    y 0.000000 1.901210 0.000000 
#    z 0.000000 0.000000 1.899710 
# 
# From -- ./inp_files/1376.got.cif
#   From: 2010.03.12/outbox.cif.g09.slc.cpg/sg92_1_cif.got.tgz:1376.got - 2010.04.08 20:41:11.
