data_PCOD8305320
_publ_section_title
;
Structure prediction by ZEFSAII (Michael W. Deem and Ramdas Pophale) SiO2 
 PCOD8305320
Probable space group: P 41 21 2
;
_chemical_formula_sum "Si O2"
_cell_formula_units_Z 40
_cell_length_a 8.425485
_cell_length_b 8.425485
_cell_length_c 25.135874
_cell_angle_alpha 90.000000
_cell_angle_beta 90.000000
_cell_angle_gamma 90.000000
_cell_volume 1784.365469
_symmetry_space_group_name_H-M "P 41 21 2"
_symmetry_group_IT_number 92
_symmetry_cell_setting 'tetragonal'
loop_
_space_group_symop_operation_xyz
x,y,z
1/2-y,1/2+x,1/4+z
-x,-y,1/2+z
1/2+y,1/2-x,3/4+z
1/2+x,1/2-y,3/4-z
1/2-x,1/2+y,1/4-z
y,x,-z
-y,-x,1/2-z
loop_
_atom_site_type_symbol
_atom_site_label
_atom_site_fract_x
_atom_site_fract_y
_atom_site_fract_z
Si Si1 0.590028 0.590028 0.500000
Si Si2 0.080986 0.167891 0.330695
Si Si3 0.390288 0.539065 0.348322
Si Si4 0.075953 0.336445 0.583083
Si Si5 0.436472 0.563529 0.750000
Si Si6 0.194067 0.439076 0.099761
O O1 0.415305 0.617813 0.524659
O O2 0.724772 0.607858 0.544139
O O3 0.008020 0.341949 0.320827
O O4 0.234356 0.159686 0.369660
O O5 0.927357 0.083555 0.355391
O O6 0.415790 0.454362 0.291133
O O7 0.525122 0.677072 0.354028
O O8 0.212467 0.587661 0.362786
O O9 0.901034 0.394453 0.599186
O O10 0.059344 0.231792 0.529985
#
# Coordination Sequence:
#
# PCOD8305320 Si02
#       6
#     4   8   8   8   4   8
#     4  10  22  38  58  84 118 152 198 246 304 368
#     4  10  22  41  60  88 121 159 203 254 309 373
#     4  10  21  39  62  89 124 159 207 254 308 375
#     4  11  23  39  62  87 121 161 205 256 316 373
#     4  10  22  40  60  92 124 160 208 258 310 378
#     4  11  22  40  63  89 121 164 204 257 312 373
#
# _framework density 22.416931000000002
#
# number of rings (size 3 to 8) (size 9 to 14) (size 15 to 20)
#    0.000    1.600    0.000    6.000    0.000    4.800 
#    0.000   12.000    0.000    0.000    0.000    0.000 
#    0.000    0.000    0.000    0.000    0.000    0.000 
#
# Total GULP energy -495689.535943 kJ/mol
# GULP energy per Si atom -12392.238399 kJ/mol
# Density = 2.236591 g / cm^3
# Si number density = 22.416931 Si / 1000 Ang^3
#
#
#
# Elastic Constant Matrix: (Units=GPa)
#
#
# Indices 1 2 3 4 5 6 
#
# 1 77.0658 17.2315 6.3240 0.0000 0.0000 0.0000
# 2 17.2315 77.0658 6.3241 0.0000 0.0000 0.0000
# 3 6.3240 6.3241 56.9351 0.0000 0.0000 0.0000
# 4 0.0000 0.0000 0.0000 21.3604 0.0000 0.0000
# 5 0.0000 0.0000 0.0000 0.0000 21.3603 0.0000
# 6 0.0000 0.0000 0.0000 0.0000 0.0000 57.3760
#
#
#
# Elastic Compliance Matrix: (Units=1/GPa)
#
#
# Indices 1 2 3 4 5 6 
#
# 1 0.013739 -0.002974 -0.001196 0.000000 0.000000 0.000000
# 2 -0.002974 0.013739 -0.001196 0.000000 0.000000 0.000000
# 3 -0.001196 -0.001196 0.017829 0.000000 0.000000 0.000000
# 4 0.000000 0.000000 0.000000 0.046816 0.000000 0.000000
# 5 0.000000 0.000000 0.000000 0.000000 0.046816 0.000000
# 6 0.000000 0.000000 0.000000 0.000000 0.000000 0.017429
#
#
# Mechanical properties :
#
#
# Convention : Reuss Voigt Hill
#
# Bulk Modulus (GPa) = 28.92110 30.09177 29.50643
# Shear Modulus (GPa) = 27.99175 32.09848 30.04511
#
# Velocity S-wave (km/s) = 3.53751 3.78813 3.66496
# Velocity P-wave (km/s) = 5.44195 5.70842 5.57678
#
# Compressibility (1/GPa) = 0.03457683
#
# Stress axis : x y z
#
# Youngs Moduli (GPa) = 72.78558 72.78561 56.08683
#
# Poissons Ratio (x) = 0.21645 0.06706
# Poissons Ratio (y) = 0.21645 0.06707
# Poissons Ratio (z) = 0.08703 0.08703
#
# Static dielectric constant tensor:
#      x y z
#    x 4.062670 0.000000 0.000000 
#    y 0.000000 4.062660 0.000000 
#    z 0.000000 0.000000 3.912970 
# 
# 
# High freq. dielectric constant tensor:
#      x y z
#    x 1.892800 0.000000 0.000000 
#    y 0.000000 1.892800 0.000000 
#    z 0.000000 0.000000 1.867290 
# 
# From -- ./inp_files/3832.got.cif
#   From: 2010.03.12/outbox.cif.g09.slc.cpg/sg92_2_cif.got.tgz:3832.got - 2010.04.08 20:41:11.
