data_PCOD8305056
_publ_section_title
;
Structure prediction by ZEFSAII (Michael W. Deem and Ramdas Pophale) SiO2 
 PCOD8305056
Probable space group: P 41 2 2
;
_chemical_formula_sum "Si O2"
_cell_formula_units_Z 40
_cell_length_a 8.344417
_cell_length_b 8.344417
_cell_length_c 26.120421
_cell_angle_alpha 90.000000
_cell_angle_beta 90.000000
_cell_angle_gamma 90.000000
_cell_volume 1818.746501
_symmetry_space_group_name_H-M "P 41 2 2"
_symmetry_group_IT_number 91
_symmetry_cell_setting 'tetragonal'
loop_
_space_group_symop_operation_xyz
x,y,z
-y,x,1/4+z
-x,-y,1/2+z
y,-x,3/4+z
x,-y,1/2-z
-x,y,-z
y,x,3/4-z
-y,-x,1/4-z
loop_
_atom_site_type_symbol
_atom_site_label
_atom_site_fract_x
_atom_site_fract_y
_atom_site_fract_z
Si Si1 0.066471 0.221005 0.766830
Si Si2 0.535108 0.942232 0.803308
Si Si3 0.416429 0.839742 0.606046
Si Si4 0.643554 0.359460 0.288398
Si Si5 0.897815 0.928499 0.815416
O O1 0.941653 0.229833 0.718637
O O2 0.050130 0.366008 0.807261
O O3 0.243330 0.236322 0.742705
O O4 0.033197 0.057439 0.798723
O O5 0.502755 0.750500 0.809076
O O6 0.721725 0.985660 0.801628
O O7 0.459339 0.000000 0.750000
O O8 0.456841 0.039400 0.849160
O O9 0.272148 0.727853 0.625000
O O10 0.566729 0.731491 0.588255
O O11 0.582433 0.500000 0.250000
O O12 0.897965 0.897965 0.875000
#
# Coordination Sequence:
#
# PCOD8305056 Si02
#       5
#     8   8   8   8   8
#     4  10  22  43  67  99 134 176 236 291 334 413
#     4  12  25  42  68 102 137 183 235 289 353 422
#     4  11  25  43  70 102 136 187 235 285 358 423
#     4  10  24  45  67  98 135 179 228 285 352 418
#     4  11  24  41  68 104 136 177 233 292 353 405
#
# _framework density 21.993168000000001
#
# number of rings (size 3 to 8) (size 9 to 14) (size 15 to 20)
#    0.000    1.200    2.000    4.200   14.000    0.800 
#    0.000    5.000    0.000    0.000    0.000    0.000 
#    0.000    0.000    0.000    0.000    0.000    0.000 
#
# Total GULP energy -495623.412721 kJ/mol
# GULP energy per Si atom -12390.585318 kJ/mol
# Density = 2.194311 g / cm^3
# Si number density = 21.993168 Si / 1000 Ang^3
#
#
#
# Elastic Constant Matrix: (Units=GPa)
#
#
# Indices 1 2 3 4 5 6 
#
# 1 76.9192 44.6648 29.1716 0.0000 0.0000 0.0000
# 2 44.6648 76.9179 29.1710 0.0000 0.0000 0.0000
# 3 29.1716 29.1710 167.9755 0.0000 0.0000 0.0000
# 4 0.0000 0.0000 0.0000 19.0495 0.0000 0.0000
# 5 0.0000 0.0000 0.0000 0.0000 19.0497 0.0000
# 6 0.0000 0.0000 0.0000 0.0000 0.0000 27.0551
#
#
#
# Elastic Compliance Matrix: (Units=1/GPa)
#
#
# Indices 1 2 3 4 5 6 
#
# 1 0.019988 -0.011016 -0.001558 0.000000 0.000000 0.000000
# 2 -0.011016 0.019988 -0.001558 0.000000 0.000000 0.000000
# 3 -0.001558 -0.001558 0.006494 0.000000 0.000000 0.000000
# 4 0.000000 0.000000 0.000000 0.052495 0.000000 0.000000
# 5 0.000000 0.000000 0.000000 0.000000 0.052494 0.000000
# 6 0.000000 0.000000 0.000000 0.000000 0.000000 0.036962
#
#
# Mechanical properties :
#
#
# Convention : Reuss Voigt Hill
#
# Bulk Modulus (GPa) = 54.92487 58.64749 56.78618
# Shear Modulus (GPa) = 22.44619 27.61789 25.03204
#
# Velocity S-wave (km/s) = 3.19815 3.54750 3.37734
# Velocity P-wave (km/s) = 6.21815 6.59574 6.40972
#
# Compressibility (1/GPa) = 0.01820669
#
# Stress axis : x y z
#
# Youngs Moduli (GPa) = 50.02964 50.02886 153.97745
#
# Poissons Ratio (x) = 0.55111 0.23993
# Poissons Ratio (y) = 0.55112 0.23992
# Poissons Ratio (z) = 0.07796 0.07795
#
# Static dielectric constant tensor:
#      x y z
#    x 3.841960 0.000000 0.000000 
#    y 0.000000 3.841960 0.000000 
#    z 0.000000 0.000000 4.588200 
# 
# 
# High freq. dielectric constant tensor:
#      x y z
#    x 1.848310 0.000000 0.000000 
#    y 0.000000 1.848310 0.000000 
#    z 0.000000 0.000000 1.892800 
# 
# From -- ./inp_files/13159.got.cif
#   From: 2010.03.12/outbox.cif.g09.slc.cpg/sg91_7_cif.got.tgz:13159.got - 2010.04.08 20:27:58.
