data_PCOD8305649
_publ_section_title
;
Structure prediction by ZEFSAII (Michael W. Deem and Ramdas Pophale) SiO2 
 PCOD8305649
Probable space group: P 42 21 2
;
_chemical_formula_sum "Si O2"
_cell_formula_units_Z 52
_cell_length_a 20.427813
_cell_length_b 20.427813
_cell_length_c 6.323144
_cell_angle_alpha 90.000000
_cell_angle_beta 90.000000
_cell_angle_gamma 90.000000
_cell_volume 2638.619815
_symmetry_space_group_name_H-M "P 42 21 2"
_symmetry_group_IT_number 94
_symmetry_cell_setting 'tetragonal'
loop_
_space_group_symop_operation_xyz
x,y,z
1/2-y,1/2+x,1/2+z
-x,-y,z
1/2+y,1/2-x,1/2+z
1/2+x,1/2-y,1/2-z
1/2-x,1/2+y,1/2-z
y,x,-z
-y,-x,-z
loop_
_atom_site_type_symbol
_atom_site_label
_atom_site_fract_x
_atom_site_fract_y
_atom_site_fract_z
Si Si1 0.661426 0.962547 0.016458
Si Si2 0.372353 0.763294 0.810514
Si Si3 0.079649 0.655000 0.688365
Si Si4 0.253487 0.965696 0.687244
Si Si5 0.427822 0.662338 0.118430
Si Si6 0.653551 0.346450 0.500000
Si Si7 0.652530 0.762499 0.478938
O O1 0.705140 0.936018 0.208141
O O2 0.630267 0.027426 0.130653
O O3 0.609752 0.910147 0.921667
O O4 0.708350 0.980019 0.823151
O O5 0.338630 0.714118 0.651528
O O6 0.387839 0.724098 0.024237
O O7 0.321767 0.820695 0.842537
O O8 0.049740 0.698712 0.504221
O O9 0.131443 0.704826 0.798120
O O10 0.183991 0.995974 0.600430
O O11 0.233356 0.906556 0.840722
O O12 0.413271 0.654201 0.366288
O O13 0.405471 0.594530 0.000000
O O14 0.705510 0.705510 0.500000
#
# Coordination Sequence:
#
# PCOD8305649 Si02
#       7
#     8   8   8   8   8   4   8
#     4  11  23  40  62  87 123 167 213 250 310 359
#     4  11  20  34  59  89 123 153 200 257 312 374
#     4  11  25  42  65  84 127 168 212 264 297 374
#     4  11  22  41  61  86 127 165 203 258 309 374
#     4  10  20  33  57  91 121 156 206 252 312 366
#     4  10  20  32  58  90 123 156 187 266 310 374
#     4  11  25  38  60  96 122 160 204 252 330 388
#
# _framework density 19.707273000000001
#
# number of rings (size 3 to 8) (size 9 to 14) (size 15 to 20)
#    0.000    1.231    4.615    2.308    2.154    0.615 
#    0.000    2.308    0.000    0.000    0.000    8.077 
#    0.000    0.000    0.000    0.000    0.000    0.000 
#
# Total GULP energy -644262.978513 kJ/mol
# GULP energy per Si atom -12389.672664 kJ/mol
# Density = 1.966242 g / cm^3
# Si number density = 19.707273 Si / 1000 Ang^3
#
#
#
# Elastic Constant Matrix: (Units=GPa)
#
#
# Indices 1 2 3 4 5 6 
#
# 1 66.3145 36.5910 43.1126 0.0000 0.0000 0.0000
# 2 36.5910 66.3172 43.1121 0.0000 0.0000 0.0000
# 3 43.1126 43.1121 101.8677 0.0000 0.0000 0.0000
# 4 0.0000 0.0000 0.0000 2.0540 0.0000 0.0000
# 5 0.0000 0.0000 0.0000 0.0000 2.0488 0.0000
# 6 0.0000 0.0000 0.0000 0.0000 0.0000 -27.0657
#
#
#
# Elastic Compliance Matrix: (Units=1/GPa)
#
#
# Indices 1 2 3 4 5 6 
#
# 1 0.024350 -0.009292 -0.006373 0.000000 0.000000 0.000000
# 2 -0.009292 0.024349 -0.006372 0.000000 0.000000 0.000000
# 3 -0.006373 -0.006372 0.015210 0.000000 0.000000 0.000000
# 4 0.000000 0.000000 0.000000 0.486855 0.000000 0.000000
# 5 0.000000 0.000000 0.000000 0.000000 0.488097 0.000000
# 6 0.000000 0.000000 0.000000 0.000000 0.000000 -0.036947
#
#
# Mechanical properties :
#
#
# Convention : Reuss Voigt Hill
#
# Bulk Modulus (GPa) = 50.41650 53.34787 51.88219
# Shear Modulus (GPa) = 4.75014 2.85300 3.80157
#
# Velocity S-wave (km/s) = 1.55421 1.20450 1.39040
# Velocity P-wave (km/s) = 5.37206 5.39104 5.38156
#
# Compressibility (1/GPa) = 0.01983478
#
# Stress axis : x y z
#
# Youngs Moduli (GPa) = 41.06755 41.07022 65.74429
#
# Poissons Ratio (x) = 0.38164 0.41897
# Poissons Ratio (y) = 0.38162 0.41892
# Poissons Ratio (z) = 0.26171 0.26170
#
# Static dielectric constant tensor:
#      x y z
#    x 3.586840 0.000000 0.000000 
#    y 0.000000 3.586820 0.000000 
#    z 0.000000 0.000000 3.910640 
# 
# 
# High freq. dielectric constant tensor:
#      x y z
#    x 1.751650 0.000000 0.000000 
#    y 0.000000 1.751650 0.000000 
#    z 0.000000 0.000000 1.792820 
# 
# From -- ./inp_files/575.got.cif
#   From: 2010.03.12/outbox.cif.g09.slc.cpg/sg94_1_cif.got.tgz:575.got - 2010.04.08 20:48:32.
