data_PCOD8305193
_publ_section_title
;
Structure prediction by ZEFSAII (Michael W. Deem and Ramdas Pophale) SiO2 
 PCOD8305193
Probable space group: P 41 21 2
;
_chemical_formula_sum "Si O2"
_cell_formula_units_Z 60
_cell_length_a 12.333966
_cell_length_b 12.333966
_cell_length_c 18.277027
_cell_angle_alpha 90.000000
_cell_angle_beta 90.000000
_cell_angle_gamma 90.000000
_cell_volume 2780.424119
_symmetry_space_group_name_H-M "P 41 21 2"
_symmetry_group_IT_number 92
_symmetry_cell_setting 'tetragonal'
loop_
_space_group_symop_operation_xyz
x,y,z
1/2-y,1/2+x,1/4+z
-x,-y,1/2+z
1/2+y,1/2-x,3/4+z
1/2+x,1/2-y,3/4-z
1/2-x,1/2+y,1/4-z
y,x,-z
-y,-x,1/2-z
loop_
_atom_site_type_symbol
_atom_site_label
_atom_site_fract_x
_atom_site_fract_y
_atom_site_fract_z
Si Si1 0.969964 0.877886 0.931422
Si Si2 0.401587 0.401587 0.500000
Si Si3 0.206227 0.954004 0.207907
Si Si4 0.299180 0.649948 0.937677
Si Si5 0.126509 0.599688 0.518124
Si Si6 0.789700 0.589332 0.109149
Si Si7 0.413237 0.835179 0.149743
Si Si8 0.404720 0.564079 0.376987
O O1 0.904187 0.892169 0.855829
O O2 0.024706 0.758170 0.930771
O O3 0.889921 0.889921 0.000000
O O4 0.060837 0.971942 0.930943
O O5 0.314932 0.379672 0.562272
O O6 0.388120 0.518699 0.460906
O O7 0.127548 0.872453 0.250000
O O8 0.317796 0.895253 0.191431
O O9 0.233302 0.063456 0.251705
O O10 0.151437 0.997233 0.132301
O O11 0.321859 0.769961 0.969533
O O12 0.197739 0.650331 0.882363
O O13 0.132149 0.485800 0.561236
O O14 0.114963 0.573142 0.431797
O O15 0.021510 0.657558 0.551714
O O16 0.382392 0.707899 0.147108
#
# Coordination Sequence:
#
# PCOD8305193 Si02
#       8
#     8   4   8   8   8   8   8   8
#     4  10  22  39  68 103 134 173 237 298 348 437
#     4  10  16  38  76 102 128 172 242 294 362 426
#     4  12  25  48  73 102 143 193 242 293 363 433
#     4  11  23  45  71 104 139 183 241 302 366 425
#     4  11  25  48  69 106 145 194 244 298 371 448
#     4  10  22  37  70 100 138 178 227 308 365 415
#     4  12  28  45  73 104 149 193 244 297 372 449
#     4  11  20  46  71  94 132 191 239 287 347 441
#
# _framework density 21.579442
#
# number of rings (size 3 to 8) (size 9 to 14) (size 15 to 20)
#    0.000    1.067    4.667    2.400    2.800    4.800 
#    0.000    0.000    0.000    0.000    0.000    0.000 
#    0.000    0.000    0.000    0.000    0.000    0.000 
#
# Total GULP energy -743981.514371 kJ/mol
# GULP energy per Si atom -12399.691906 kJ/mol
# Density = 2.153033 g / cm^3
# Si number density = 21.579442 Si / 1000 Ang^3
#
#
#
# Elastic Constant Matrix: (Units=GPa)
#
#
# Indices 1 2 3 4 5 6 
#
# 1 121.2180 52.4533 27.5663 0.0000 0.0000 0.0000
# 2 52.4533 121.2181 27.5658 0.0000 0.0000 0.0000
# 3 27.5663 27.5658 69.8998 0.0000 0.0000 0.0000
# 4 0.0000 0.0000 0.0000 27.4428 0.0000 0.0000
# 5 0.0000 0.0000 0.0000 0.0000 27.4427 0.0000
# 6 0.0000 0.0000 0.0000 0.0000 0.0000 37.3032
#
#
#
# Elastic Compliance Matrix: (Units=1/GPa)
#
#
# Indices 1 2 3 4 5 6 
#
# 1 0.010562 -0.003980 -0.002596 0.000000 0.000000 0.000000
# 2 -0.003980 0.010562 -0.002596 0.000000 0.000000 0.000000
# 3 -0.002596 -0.002596 0.016353 0.000000 0.000000 0.000000
# 4 0.000000 0.000000 0.000000 0.036439 0.000000 0.000000
# 5 0.000000 0.000000 0.000000 0.000000 0.036440 0.000000
# 6 0.000000 0.000000 0.000000 0.000000 0.000000 0.026807
#
#
# Mechanical properties :
#
#
# Convention : Reuss Voigt Hill
#
# Bulk Modulus (GPa) = 52.26114 58.61184 55.43649
# Shear Modulus (GPa) = 30.88604 32.08780 31.48692
#
# Velocity S-wave (km/s) = 3.78732 3.86030 3.82398
# Velocity P-wave (km/s) = 6.58754 6.86215 6.72625
#
# Compressibility (1/GPa) = 0.01913467
#
# Stress axis : x y z
#
# Youngs Moduli (GPa) = 94.67731 94.67773 61.14899
#
# Poissons Ratio (x) = 0.37683 0.15873
# Poissons Ratio (y) = 0.37683 0.15872
# Poissons Ratio (z) = 0.24576 0.24575
#
# Static dielectric constant tensor:
#      x y z
#    x 3.869470 0.000000 0.000000 
#    y 0.000000 3.869480 0.000000 
#    z 0.000000 0.000000 3.873580 
# 
# 
# High freq. dielectric constant tensor:
#      x y z
#    x 1.844550 0.000000 0.000000 
#    y 0.000000 1.844550 0.000000 
#    z 0.000000 0.000000 1.840920 
# 
# From -- ./inp_files/3640.got.cif
#   From: 2010.03.12/outbox.cif.g09.slc.cpg/sg92_2_cif.got.tgz:3640.got - 2010.04.08 20:41:11.
