data_PCOD8305584
_publ_section_title
;
Structure prediction by ZEFSAII (Michael W. Deem and Ramdas Pophale) SiO2 
 PCOD8305584
Probable space group: P 42 2 2
;
_chemical_formula_sum "Si O2"
_cell_formula_units_Z 40
_cell_length_a 14.213552
_cell_length_b 14.213552
_cell_length_c 9.273640
_cell_angle_alpha 90.000000
_cell_angle_beta 90.000000
_cell_angle_gamma 90.000000
_cell_volume 1873.507682
_symmetry_space_group_name_H-M "P 42 2 2"
_symmetry_group_IT_number 93
_symmetry_cell_setting 'tetragonal'
loop_
_space_group_symop_operation_xyz
x,y,z
-y,x,1/2+z
-x,-y,z
y,-x,1/2+z
x,-y,-z
-x,y,-z
y,x,1/2-z
-y,-x,1/2-z
loop_
_atom_site_type_symbol
_atom_site_label
_atom_site_fract_x
_atom_site_fract_y
_atom_site_fract_z
Si Si1 0.612106 0.846826 0.512528
Si Si2 0.265931 0.123540 0.231337
Si Si3 0.686598 0.752465 0.968733
Si Si4 0.500000 0.500000 0.250000
Si Si5 0.341787 0.071169 0.803199
Si Si6 0.000000 0.500000 0.500000
Si Si7 0.500000 0.648248 0.000000
O O1 0.500000 0.831167 0.500000
O O2 0.664770 0.879547 0.368318
O O3 0.660852 0.750017 0.561498
O O4 0.630122 0.925128 0.635067
O O5 0.155382 0.155382 0.250000
O O6 0.272987 0.018286 0.166529
O O7 0.303044 0.204503 0.126992
O O8 0.710913 0.833406 0.851386
O O9 0.582023 0.717961 0.958546
O O10 0.511759 0.588918 0.145680
O O11 0.436094 0.065235 0.898779
#
# Coordination Sequence:
#
# PCOD8305584 Si02
#       7
#     8   8   8   2   8   2   4
#     4  11  26  40  66  97 135 176 221 284 335 402
#     4  10  23  44  66  97 132 174 216 283 352 411
#     4  11  25  41  66  94 134 180 225 274 339 406
#     4  10  28  46  64  86 136 190 246 272 328 406
#     4  12  23  42  64  99 131 173 228 282 343 406
#     4  12  22  36  72  92 138 182 220 292 346 416
#     4  11  27  42  64  92 130 188 234 286 324 398
#
# _framework density 21.350325999999999
#
# number of rings (size 3 to 8) (size 9 to 14) (size 15 to 20)
#    0.000    1.000    2.000    3.000   12.600    0.800 
#    0.000    0.000    0.000    2.400    0.000   11.200 
#    0.000    0.000    0.000    0.000    0.000    0.000 
#
# Total GULP energy -495710.350951 kJ/mol
# GULP energy per Si atom -12392.758774 kJ/mol
# Density = 2.130173 g / cm^3
# Si number density = 21.350326 Si / 1000 Ang^3
#
#
#
# Elastic Constant Matrix: (Units=GPa)
#
#
# Indices 1 2 3 4 5 6 
#
# 1 116.4106 81.2614 28.6297 0.0000 0.0000 0.0000
# 2 81.2614 116.4106 28.6297 0.0000 0.0000 0.0000
# 3 28.6297 28.6297 122.5103 0.0000 0.0000 0.0000
# 4 0.0000 0.0000 0.0000 27.5583 0.0000 0.0000
# 5 0.0000 0.0000 0.0000 0.0000 27.5583 0.0000
# 6 0.0000 0.0000 0.0000 0.0000 0.0000 25.5233
#
#
#
# Elastic Compliance Matrix: (Units=1/GPa)
#
#
# Indices 1 2 3 4 5 6 
#
# 1 0.016938 -0.011512 -0.001268 0.000000 0.000000 0.000000
# 2 -0.011512 0.016938 -0.001268 0.000000 0.000000 0.000000
# 3 -0.001268 -0.001268 0.008755 0.000000 0.000000 0.000000
# 4 0.000000 0.000000 0.000000 0.036287 0.000000 0.000000
# 5 0.000000 0.000000 0.000000 0.000000 0.036287 0.000000
# 6 0.000000 0.000000 0.000000 0.000000 0.000000 0.039180
#
#
# Mechanical properties :
#
#
# Convention : Reuss Voigt Hill
#
# Bulk Modulus (GPa) = 68.79750 70.26368 69.53059
# Shear Modulus (GPa) = 26.69140 30.58202 28.63671
#
# Velocity S-wave (km/s) = 3.53960 3.78880 3.66632
# Velocity P-wave (km/s) = 6.99987 7.21951 7.11054
#
# Compressibility (1/GPa) = 0.01453541
#
# Stress axis : x y z
#
# Youngs Moduli (GPa) = 59.03825 59.03825 114.21720
#
# Poissons Ratio (x) = 0.67965 0.14483
# Poissons Ratio (y) = 0.67965 0.14483
# Poissons Ratio (z) = 0.07486 0.07486
#
# Static dielectric constant tensor:
#      x y z
#    x 3.942430 0.000000 0.000000 
#    y 0.000000 3.942430 0.000000 
#    z 0.000000 0.000000 3.939650 
# 
# 
# High freq. dielectric constant tensor:
#      x y z
#    x 1.830210 0.000000 0.000000 
#    y 0.000000 1.830210 0.000000 
#    z 0.000000 0.000000 1.861280 
# 
# From -- ./inp_files/1901.got.cif
#   From: 2010.03.12/outbox.cif.g09.slc.cpg/sg93_1_cif.got.tgz:1901.got - 2010.04.08 20:44:19.
