data_PCOD8305621
_publ_section_title
;
Structure prediction by ZEFSAII (Michael W. Deem and Ramdas Pophale) SiO2 
 PCOD8305621
Probable space group: P 42 21 2
;
_chemical_formula_sum "Si O2"
_cell_formula_units_Z 64
_cell_length_a 16.270940
_cell_length_b 16.270940
_cell_length_c 12.208071
_cell_angle_alpha 90.000000
_cell_angle_beta 90.000000
_cell_angle_gamma 90.000000
_cell_volume 3232.007304
_symmetry_space_group_name_H-M "P 42 21 2"
_symmetry_group_IT_number 94
_symmetry_cell_setting 'tetragonal'
loop_
_space_group_symop_operation_xyz
x,y,z
1/2-y,1/2+x,1/2+z
-x,-y,z
1/2+y,1/2-x,1/2+z
1/2+x,1/2-y,1/2-z
1/2-x,1/2+y,1/2-z
y,x,-z
-y,-x,-z
loop_
_atom_site_type_symbol
_atom_site_label
_atom_site_fract_x
_atom_site_fract_y
_atom_site_fract_z
Si Si1 0.124678 0.640787 0.700438
Si Si2 0.750001 0.750000 0.292132
Si Si3 0.792323 0.097526 0.940334
Si Si4 0.999999 0.253219 0.250001
Si Si5 0.875323 0.640789 0.799562
Si Si6 0.639076 0.966065 0.425003
Si Si7 0.639078 0.033936 0.074996
Si Si8 0.402474 0.707679 0.059664
O O1 0.172385 0.728523 0.713348
O O2 0.190755 0.567961 0.689820
O O3 0.073031 0.622832 0.808197
O O4 0.065097 0.642335 0.593632
O O5 0.675199 0.741054 0.374830
O O6 0.728525 0.827617 0.213352
O O7 0.824804 0.758943 0.374830
O O8 0.807281 0.030036 0.846542
O O9 0.877752 0.122249 0.000000
O O10 0.725015 0.066768 0.026949
O O11 0.932035 0.309243 0.310183
O O12 0.030035 0.192720 0.346544
O O13 0.926969 0.622829 0.691803
O O14 0.934904 0.642338 0.906368
O O15 0.561863 0.938137 0.500001
O O16 0.725014 0.933233 0.473048
O O17 0.377750 0.622251 0.000000
#
# Coordination Sequence:
#
# PCOD8305621 Si02
#       8
#     8   8   8   8   8   8   8   8
#     4  10  22  34  55  96 125 162 205 250 299 370
#     4  10  17  36  62  87 118 162 217 248 281 362
#     4  11  19  36  61  87 115 164 209 249 300 366
#     4  10  22  35  52  92 125 160 206 244 302 361
#     4  10  22  34  55  96 125 162 205 250 299 370
#     4  11  19  35  56  91 129 164 196 240 316 379
#     4  11  19  35  56  91 129 164 196 240 316 379
#     4  11  19  36  61  87 115 164 209 249 300 366
#
# _framework density 19.801936000000001
#
# number of rings (size 3 to 8) (size 9 to 14) (size 15 to 20)
#    0.000    1.500    7.500    0.375    0.000    3.000 
#    4.500    0.000    0.000   12.000    0.000   28.000 
#    0.000    0.000    0.000    0.000    0.000    0.000 
#
# Total GULP energy -792972.856154 kJ/mol
# GULP energy per Si atom -12390.200877 kJ/mol
# Density = 1.975687 g / cm^3
# Si number density = 19.801936 Si / 1000 Ang^3
#
#
#
# Elastic Constant Matrix: (Units=GPa)
#
#
# Indices 1 2 3 4 5 6 
#
# 1 81.5542 56.6244 61.6735 0.0000 0.0000 0.0000
# 2 56.6244 81.5549 61.6742 0.0000 0.0000 0.0000
# 3 61.6735 61.6742 110.5598 0.0000 0.0000 0.0000
# 4 0.0000 0.0000 0.0000 39.0101 0.0000 0.0000
# 5 0.0000 0.0000 0.0000 0.0000 39.0097 0.0000
# 6 0.0000 0.0000 0.0000 0.0000 0.0000 29.3677
#
#
#
# Elastic Compliance Matrix: (Units=1/GPa)
#
#
# Indices 1 2 3 4 5 6 
#
# 1 0.027264 -0.012849 -0.008041 0.000000 0.000000 0.000000
# 2 -0.012849 0.027264 -0.008041 0.000000 0.000000 0.000000
# 3 -0.008041 -0.008041 0.018016 0.000000 0.000000 0.000000
# 4 0.000000 0.000000 0.000000 0.025634 0.000000 0.000000
# 5 0.000000 0.000000 0.000000 0.000000 0.025635 0.000000
# 6 0.000000 0.000000 0.000000 0.000000 0.000000 0.034051
#
#
# Mechanical properties :
#
#
# Convention : Reuss Voigt Hill
#
# Bulk Modulus (GPa) = 68.11275 70.40146 69.25711
# Shear Modulus (GPa) = 22.66348 27.72395 25.19372
#
# Velocity S-wave (km/s) = 3.38673 3.74580 3.57078
# Velocity P-wave (km/s) = 7.05443 7.37143 7.21467
#
# Compressibility (1/GPa) = 0.01468154
#
# Stress axis : x y z
#
# Youngs Moduli (GPa) = 36.67888 36.67889 55.50565
#
# Poissons Ratio (x) = 0.47127 0.44633
# Poissons Ratio (y) = 0.47127 0.44634
# Poissons Ratio (z) = 0.29494 0.29495
#
# Static dielectric constant tensor:
#      x y z
#    x 4.190490 0.000000 0.000000 
#    y 0.000000 4.190500 0.000000 
#    z 0.000000 0.000000 4.023760 
# 
# 
# High freq. dielectric constant tensor:
#      x y z
#    x 1.750240 0.000000 0.000000 
#    y 0.000000 1.750240 0.000000 
#    z 0.000000 0.000000 1.781230 
# 
# From -- ./inp_files/2848.got.cif
#   From: 2010.03.12/outbox.cif.g09.slc.cpg/sg94_2_cif.got.tgz:2848.got - 2010.04.08 20:48:32.
