data_PCOD8305006
_publ_section_title
;
Structure prediction by ZEFSAII (Michael W. Deem and Ramdas Pophale) SiO2 
 PCOD8305006
Probable space group: P 41 2 2
;
_chemical_formula_sum "Si O2"
_cell_formula_units_Z 44
_cell_length_a 11.668385
_cell_length_b 11.668385
_cell_length_c 15.469110
_cell_angle_alpha 90.000000
_cell_angle_beta 90.000000
_cell_angle_gamma 90.000000
_cell_volume 2106.138021
_symmetry_space_group_name_H-M "P 41 2 2"
_symmetry_group_IT_number 91
_symmetry_cell_setting 'tetragonal'
loop_
_space_group_symop_operation_xyz
x,y,z
-y,x,1/4+z
-x,-y,1/2+z
y,-x,3/4+z
x,-y,1/2-z
-x,y,-z
y,x,3/4-z
-y,-x,1/4-z
loop_
_atom_site_type_symbol
_atom_site_label
_atom_site_fract_x
_atom_site_fract_y
_atom_site_fract_z
Si Si1 0.682958 0.414995 0.453884
Si Si2 0.124741 0.460780 0.038535
Si Si3 0.174106 0.739243 0.346056
Si Si4 0.604349 0.059694 0.554696
Si Si5 0.988887 0.178285 0.401159
Si Si6 0.450648 0.450648 0.375000
O O1 0.778365 0.514011 0.466640
O O2 0.756501 0.308427 0.420174
O O3 0.588341 0.436822 0.380085
O O4 0.614742 0.398609 0.543294
O O5 0.142579 0.330434 0.068052
O O6 0.137935 0.547574 0.120052
O O7 0.000000 0.476616 0.000000
O O8 0.138917 0.670724 0.261400
O O9 0.116743 0.864800 0.358405
O O10 0.500000 0.996268 0.500000
O O11 0.704478 0.981202 0.595105
O O12 0.090818 0.090818 0.375000
O O13 0.000000 0.216401 0.500000
#
# Coordination Sequence:
#
# PCOD8305006 Si02
#       6
#     8   8   8   8   8   4
#     4  11  20  39  61  98 129 171 212 271 337 401
#     4  11  23  40  64  94 132 172 219 278 337 400
#     4  11  23  40  66  98 132 171 225 283 339 397
#     4  10  22  40  65  98 126 167 219 275 335 392
#     4  12  24  43  70 100 133 180 232 285 334 414
#     4  10  22  34  68 100 130 162 218 274 334 404
#
# _framework density 20.891317000000001
#
# number of rings (size 3 to 8) (size 9 to 14) (size 15 to 20)
#    0.000    1.091    3.636    3.818    5.091    0.727 
#    0.000    5.455    4.000    0.000    0.000    0.000 
#    0.000    0.000    0.000    0.000    0.000    0.000 
#
# Total GULP energy -545146.087783 kJ/mol
# GULP energy per Si atom -12389.683813 kJ/mol
# Density = 2.084377 g / cm^3
# Si number density = 20.891317 Si / 1000 Ang^3
#
#
#
# Elastic Constant Matrix: (Units=GPa)
#
#
# Indices 1 2 3 4 5 6 
#
# 1 119.6279 26.0874 27.7540 0.0000 0.0000 0.0000
# 2 26.0874 119.6279 27.7540 0.0000 0.0000 0.0000
# 3 27.7540 27.7540 58.6095 0.0000 0.0000 0.0000
# 4 0.0000 0.0000 0.0000 24.7590 0.0000 0.0000
# 5 0.0000 0.0000 0.0000 0.0000 24.7590 0.0000
# 6 0.0000 0.0000 0.0000 0.0000 0.0000 15.2053
#
#
#
# Elastic Compliance Matrix: (Units=1/GPa)
#
#
# Indices 1 2 3 4 5 6 
#
# 1 0.009532 -0.001159 -0.003965 0.000000 0.000000 0.000000
# 2 -0.001159 0.009532 -0.003965 0.000000 0.000000 0.000000
# 3 -0.003965 -0.003965 0.020817 0.000000 0.000000 0.000000
# 4 0.000000 0.000000 0.000000 0.040389 0.000000 0.000000
# 5 0.000000 0.000000 0.000000 0.000000 0.040389 0.000000
# 6 0.000000 0.000000 0.000000 0.000000 0.000000 0.065766
#
#
# Mechanical properties :
#
#
# Convention : Reuss Voigt Hill
#
# Bulk Modulus (GPa) = 46.07563 51.22844 48.65203
# Shear Modulus (GPa) = 23.60294 27.36266 25.48280
#
# Velocity S-wave (km/s) = 3.36489 3.62299 3.49632
# Velocity P-wave (km/s) = 6.09914 6.48660 6.29585
#
# Compressibility (1/GPa) = 0.02170345
#
# Stress axis : x y z
#
# Youngs Moduli (GPa) = 104.91166 104.91166 48.03710
#
# Poissons Ratio (x) = 0.12156 0.19047
# Poissons Ratio (y) = 0.12156 0.19047
# Poissons Ratio (z) = 0.41597 0.41597
#
# Static dielectric constant tensor:
#      x y z
#    x 3.865060 0.000000 0.000000 
#    y 0.000000 3.865060 0.000000 
#    z 0.000000 0.000000 3.879840 
# 
# 
# High freq. dielectric constant tensor:
#      x y z
#    x 1.812050 0.000000 0.000000 
#    y 0.000000 1.812050 0.000000 
#    z 0.000000 0.000000 1.811580 
# 
# From -- ./inp_files/16821.got.cif
#   From: 2010.03.12/outbox.cif.g09.slc.cpg/sg91_9_cif.got.tgz:16821.got - 2010.04.08 20:27:58.
