data_PCOD8305541
_publ_section_title
;
Structure prediction by ZEFSAII (Michael W. Deem and Ramdas Pophale) SiO2 
 PCOD8305541
Probable space group: P 42 2 2
;
_chemical_formula_sum "Si O2"
_cell_formula_units_Z 56
_cell_length_a 14.079325
_cell_length_b 14.079325
_cell_length_c 14.682020
_cell_angle_alpha 90.000000
_cell_angle_beta 90.000000
_cell_angle_gamma 90.000000
_cell_volume 2910.378541
_symmetry_space_group_name_H-M "P 42 2 2"
_symmetry_group_IT_number 93
_symmetry_cell_setting 'tetragonal'
loop_
_space_group_symop_operation_xyz
x,y,z
-y,x,1/2+z
-x,-y,z
y,-x,1/2+z
x,-y,-z
-x,y,-z
y,x,1/2-z
-y,-x,1/2-z
loop_
_atom_site_type_symbol
_atom_site_label
_atom_site_fract_x
_atom_site_fract_y
_atom_site_fract_z
Si Si1 0.392571 0.518572 0.607230
Si Si2 0.598363 0.734590 0.381204
Si Si3 0.103942 0.609857 0.521093
Si Si4 0.394732 0.883620 0.772295
Si Si5 0.783195 0.611713 0.920542
Si Si6 0.359099 0.242744 0.862891
Si Si7 0.609420 0.914221 0.728154
O O1 0.500000 0.500000 0.645366
O O2 0.391625 0.500000 0.500000
O O3 0.364159 0.627170 0.630151
O O4 0.308007 0.454762 0.651237
O O5 0.631996 0.796713 0.294548
O O6 0.485697 0.729011 0.396599
O O7 0.638328 0.784231 0.473099
O O8 0.093995 0.500000 0.500000
O O9 0.137955 0.633797 0.623814
O O10 0.188054 0.647504 0.458553
O O11 0.000000 0.656489 0.500000
O O12 0.504950 0.908432 0.770564
O O13 0.343463 0.982094 0.740641
O O14 0.729037 0.687920 0.860467
O O15 0.890375 0.607520 0.880231
O O16 0.337400 0.168122 0.783280
#
# Coordination Sequence:
#
# PCOD8305541 Si02
#       7
#     8   8   8   8   8   8   8
#     4  11  19  34  55  73 116 165 200 234 275 337
#     4  10  20  36  52  73 113 154 198 238 279 336
#     4  11  19  34  55  75 100 138 197 244 298 336
#     4  10  20  36  53  76  99 137 205 245 290 340
#     4  10  20  34  50  75 106 151 190 228 283 338
#     4  12  20  32  56  78 109 151 198 239 280 340
#     4  10  20  34  52  74 102 138 200 246 282 338
#
# _framework density 19.241482999999999
#
# number of rings (size 3 to 8) (size 9 to 14) (size 15 to 20)
#    0.000    1.429    5.714    2.571    0.000    0.571 
#    0.000   10.714    0.000    0.000    0.000    0.000 
#    0.000    0.000    0.000    3.857   32.571    1.857 
#
# Total GULP energy -693866.020865 kJ/mol
# GULP energy per Si atom -12390.464658 kJ/mol
# Density = 1.919769 g / cm^3
# Si number density = 19.241483 Si / 1000 Ang^3
#
#
#
# Elastic Constant Matrix: (Units=GPa)
#
#
# Indices 1 2 3 4 5 6 
#
# 1 71.4006 22.7107 34.3082 0.0000 0.0000 0.0000
# 2 22.7107 71.4006 34.3082 0.0000 0.0000 0.0000
# 3 34.3082 34.3082 114.0676 0.0000 0.0000 0.0000
# 4 0.0000 0.0000 0.0000 25.7798 0.0000 0.0000
# 5 0.0000 0.0000 0.0000 0.0000 25.7798 0.0000
# 6 0.0000 0.0000 0.0000 0.0000 0.0000 7.8432
#
#
#
# Elastic Compliance Matrix: (Units=1/GPa)
#
#
# Indices 1 2 3 4 5 6 
#
# 1 0.017074 -0.003464 -0.004094 0.000000 0.000000 0.000000
# 2 -0.003464 0.017074 -0.004094 0.000000 0.000000 0.000000
# 3 -0.004094 -0.004094 0.011229 0.000000 0.000000 0.000000
# 4 0.000000 0.000000 0.000000 0.038790 0.000000 0.000000
# 5 0.000000 0.000000 0.000000 0.000000 0.038790 0.000000
# 6 0.000000 0.000000 0.000000 0.000000 0.000000 0.127498
#
#
# Mechanical properties :
#
#
# Convention : Reuss Voigt Hill
#
# Bulk Modulus (GPa) = 45.29906 48.83591 47.06748
# Shear Modulus (GPa) = 17.78620 22.91667 20.35144
#
# Velocity S-wave (km/s) = 3.04364 3.45484 3.25574
# Velocity P-wave (km/s) = 5.99543 6.43041 6.21672
#
# Compressibility (1/GPa) = 0.02207551
#
# Stress axis : x y z
#
# Youngs Moduli (GPa) = 58.56777 58.56777 89.05351
#
# Poissons Ratio (x) = 0.20287 0.36455
# Poissons Ratio (y) = 0.20287 0.36455
# Poissons Ratio (z) = 0.23975 0.23975
#
# Static dielectric constant tensor:
#      x y z
#    x 3.632660 0.000000 0.000000 
#    y 0.000000 3.632660 0.000000 
#    z 0.000000 0.000000 3.786680 
# 
# 
# High freq. dielectric constant tensor:
#      x y z
#    x 1.712350 0.000000 0.000000 
#    y 0.000000 1.712350 0.000000 
#    z 0.000000 0.000000 1.766380 
# 
# From -- ./inp_files/4518.got.cif
#   From: 2010.03.12/outbox.cif.g09.slc.cpg/sg93_3_cif.got.tgz:4518.got - 2010.04.08 20:44:19.
