data_PCOD8305322
_publ_section_title
;
Structure prediction by ZEFSAII (Michael W. Deem and Ramdas Pophale) SiO2 
 PCOD8305322
Probable space group: P 41 21 2
;
_chemical_formula_sum "Si O2"
_cell_formula_units_Z 40
_cell_length_a 8.693899
_cell_length_b 8.693899
_cell_length_c 25.261160
_cell_angle_alpha 90.000000
_cell_angle_beta 90.000000
_cell_angle_gamma 90.000000
_cell_volume 1909.336482
_symmetry_space_group_name_H-M "P 41 21 2"
_symmetry_group_IT_number 92
_symmetry_cell_setting 'tetragonal'
loop_
_space_group_symop_operation_xyz
x,y,z
1/2-y,1/2+x,1/4+z
-x,-y,1/2+z
1/2+y,1/2-x,3/4+z
1/2+x,1/2-y,3/4-z
1/2-x,1/2+y,1/4-z
y,x,-z
-y,-x,1/2-z
loop_
_atom_site_type_symbol
_atom_site_label
_atom_site_fract_x
_atom_site_fract_y
_atom_site_fract_z
Si Si1 0.372712 0.846569 0.609433
Si Si2 0.558149 0.135529 0.924405
Si Si3 0.110433 0.657777 0.223295
Si Si4 0.348770 0.587919 0.689095
Si Si5 0.808735 0.088356 0.585795
O O1 0.468638 0.960880 0.647125
O O2 0.507568 0.766648 0.573658
O O3 0.292794 0.720047 0.647576
O O4 0.257162 0.938879 0.571114
O O5 0.446462 0.258652 0.896108
O O6 0.730385 0.204316 0.924400
O O7 0.510856 0.101033 0.983763
O O8 0.219880 0.780121 0.250000
O O9 0.200049 0.507146 0.203622
O O10 0.348389 0.651612 0.750000
O O11 0.518756 0.531592 0.674614
#
# Coordination Sequence:
#
# PCOD8305322 Si02
#       5
#     8   8   8   8   8
#     4  10  23  39  60  88 120 158 204 253 305 375
#     4  10  21  40  61  90 121 157 209 254 309 373
#     4  11  22  39  62  88 121 162 206 256 311 374
#     4  11  23  41  60  87 124 160 202 255 313 369
#     4  10  22  39  62  87 120 161 204 252 309 377
#
# _framework density 20.949684000000001
#
# number of rings (size 3 to 8) (size 9 to 14) (size 15 to 20)
#    0.000    1.600    0.000    6.600    0.000    8.000 
#    0.000    3.000    0.000    0.000    0.000    0.000 
#    0.000    0.000    0.000    0.000    0.000    0.000 
#
# Total GULP energy -495666.368548 kJ/mol
# GULP energy per Si atom -12391.659214 kJ/mol
# Density = 2.090200 g / cm^3
# Si number density = 20.949684 Si / 1000 Ang^3
#
#
#
# Elastic Constant Matrix: (Units=GPa)
#
#
# Indices 1 2 3 4 5 6 
#
# 1 90.4222 31.3260 30.8117 0.0000 0.0000 0.0000
# 2 31.3260 90.4227 30.8119 0.0000 0.0000 0.0000
# 3 30.8117 30.8119 113.5994 0.0000 0.0000 0.0000
# 4 0.0000 0.0000 0.0000 37.9107 0.0000 0.0000
# 5 0.0000 0.0000 0.0000 0.0000 37.9108 0.0000
# 6 0.0000 0.0000 0.0000 0.0000 0.0000 35.8320
#
#
#
# Elastic Compliance Matrix: (Units=1/GPa)
#
#
# Indices 1 2 3 4 5 6 
#
# 1 0.013221 -0.003700 -0.002582 0.000000 0.000000 0.000000
# 2 -0.003700 0.013221 -0.002582 0.000000 0.000000 0.000000
# 3 -0.002582 -0.002582 0.010204 0.000000 0.000000 0.000000
# 4 0.000000 0.000000 0.000000 0.026378 0.000000 0.000000
# 5 0.000000 0.000000 0.000000 0.000000 0.026378 0.000000
# 6 0.000000 0.000000 0.000000 0.000000 0.000000 0.027908
#
#
# Mechanical properties :
#
#
# Convention : Reuss Voigt Hill
#
# Bulk Modulus (GPa) = 52.86582 53.37151 53.11867
# Shear Modulus (GPa) = 35.37451 35.76368 35.56909
#
# Velocity S-wave (km/s) = 4.11365 4.13622 4.12495
# Velocity P-wave (km/s) = 6.91753 6.95287 6.93522
#
# Compressibility (1/GPa) = 0.01891581
#
# Stress axis : x y z
#
# Youngs Moduli (GPa) = 75.63649 75.63687 98.00385
#
# Poissons Ratio (x) = 0.27989 0.25308
# Poissons Ratio (y) = 0.27988 0.25308
# Poissons Ratio (z) = 0.19532 0.19532
#
# Static dielectric constant tensor:
#      x y z
#    x 3.661520 0.000000 0.000000 
#    y 0.000000 3.661530 0.000000 
#    z 0.000000 0.000000 4.332980 
# 
# 
# High freq. dielectric constant tensor:
#      x y z
#    x 1.810930 0.000000 0.000000 
#    y 0.000000 1.810930 0.000000 
#    z 0.000000 0.000000 1.847370 
# 
# From -- ./inp_files/3761.got.cif
#   From: 2010.03.12/outbox.cif.g09.slc.cpg/sg92_2_cif.got.tgz:3761.got - 2010.04.08 20:41:11.
