data_PCOD8305176
_publ_section_title
;
Structure prediction by ZEFSAII (Michael W. Deem and Ramdas Pophale) SiO2 
 PCOD8305176
Probable space group: P 41 2 2
;
_chemical_formula_sum "Si O2"
_cell_formula_units_Z 48
_cell_length_a 11.357091
_cell_length_b 11.357091
_cell_length_c 18.748347
_cell_angle_alpha 90.000000
_cell_angle_beta 90.000000
_cell_angle_gamma 90.000000
_cell_volume 2418.227715
_symmetry_space_group_name_H-M "P 41 2 2"
_symmetry_group_IT_number 91
_symmetry_cell_setting 'tetragonal'
loop_
_space_group_symop_operation_xyz
x,y,z
-y,x,1/4+z
-x,-y,1/2+z
y,-x,3/4+z
x,-y,1/2-z
-x,y,-z
y,x,3/4-z
-y,-x,1/4-z
loop_
_atom_site_type_symbol
_atom_site_label
_atom_site_fract_x
_atom_site_fract_y
_atom_site_fract_z
Si Si1 0.601688 0.536805 0.955238
Si Si2 0.888119 0.691677 0.862580
Si Si3 0.083377 0.916624 0.625000
Si Si4 0.000000 0.258017 0.000000
Si Si5 0.332967 0.778817 0.972211
Si Si6 0.172627 0.921206 0.318425
Si Si7 0.160237 0.552412 0.420387
O O1 0.562540 0.562540 0.875000
O O2 0.714426 0.452393 0.959846
O O3 0.500000 0.470044 0.000000
O O4 0.624932 0.657157 0.996153
O O5 0.770629 0.770629 0.875000
O O6 0.882668 0.655938 0.780199
O O7 0.894139 0.580626 0.917517
O O8 0.007386 0.767625 0.867196
O O9 0.182773 0.923917 0.689928
O O10 0.963636 0.901338 0.667392
O O11 0.914073 0.346142 0.957994
O O12 0.201650 0.762192 0.941761
O O13 0.420215 0.819557 0.911608
O O14 0.191905 0.000000 0.250000
#
# Coordination Sequence:
#
# PCOD8305176 Si02
#       7
#     8   8   4   4   8   8   8
#     4  12  22  42  70  97 134 177 232 290 343 405
#     4  12  22  37  66 103 131 166 222 294 341 401
#     4  12  24  50  66  94 136 188 228 274 358 434
#     4  12  30  46  70  96 144 186 226 282 350 442
#     4  12  22  40  65 100 131 174 223 287 344 409
#     4  12  22  37  69 101 129 168 229 290 344 403
#     4  12  25  43  66  97 138 179 222 281 355 407
#
# _framework density 19.849246000000001
#
# number of rings (size 3 to 8) (size 9 to 14) (size 15 to 20)
#    0.000    0.000   10.000    0.500    3.500    0.000 
#    1.500    0.000    0.000    0.000    0.000    0.000 
#    0.000    0.000    0.000    0.000    0.000    0.000 
#
# Total GULP energy -594766.333865 kJ/mol
# GULP energy per Si atom -12390.965289 kJ/mol
# Density = 1.980407 g / cm^3
# Si number density = 19.849246 Si / 1000 Ang^3
#
#
#
# Elastic Constant Matrix: (Units=GPa)
#
#
# Indices 1 2 3 4 5 6 
#
# 1 106.8559 42.3205 48.1727 0.0000 0.0000 0.0000
# 2 42.3205 106.8560 48.1728 0.0000 0.0000 0.0000
# 3 48.1727 48.1728 101.7497 0.0000 0.0000 0.0000
# 4 0.0000 0.0000 0.0000 72.3706 0.0000 0.0000
# 5 0.0000 0.0000 0.0000 0.0000 72.3698 0.0000
# 6 0.0000 0.0000 0.0000 0.0000 0.0000 30.6132
#
#
#
# Elastic Compliance Matrix: (Units=1/GPa)
#
#
# Indices 1 2 3 4 5 6 
#
# 1 0.012576 -0.002920 -0.004572 0.000000 0.000000 0.000000
# 2 -0.002920 0.012576 -0.004572 0.000000 0.000000 0.000000
# 3 -0.004572 -0.004572 0.014157 0.000000 0.000000 0.000000
# 4 0.000000 0.000000 0.000000 0.013818 0.000000 0.000000
# 5 0.000000 0.000000 0.000000 0.000000 0.013818 0.000000
# 6 0.000000 0.000000 0.000000 0.000000 0.000000 0.032666
#
#
# Mechanical properties :
#
#
# Convention : Reuss Voigt Hill
#
# Bulk Modulus (GPa) = 65.86517 65.86594 65.86555
# Shear Modulus (GPa) = 38.82108 46.85709 42.83909
#
# Velocity S-wave (km/s) = 4.42724 4.86392 4.65071
# Velocity P-wave (km/s) = 7.70640 8.04977 7.87996
#
# Compressibility (1/GPa) = 0.01518253
#
# Stress axis : x y z
#
# Youngs Moduli (GPa) = 79.51851 79.51849 70.63735
#
# Poissons Ratio (x) = 0.23217 0.32292
# Poissons Ratio (y) = 0.23217 0.32293
# Poissons Ratio (z) = 0.36352 0.36353
#
# Static dielectric constant tensor:
#      x y z
#    x 3.169180 0.000000 0.000000 
#    y 0.000000 3.169140 0.000000 
#    z 0.000000 0.000000 3.801410 
# 
# 
# High freq. dielectric constant tensor:
#      x y z
#    x 1.769270 0.000000 0.000000 
#    y 0.000000 1.769270 0.000000 
#    z 0.000000 0.000000 1.786980 
# 
# From -- ./inp_files/21143.got.cif
#   From: 2010.03.12/outbox.cif.g09.slc.cpg/sg91_11_cif.got.tgz:21143.got - 2010.04.08 20:27:58.
