data_PCOD8305452
_publ_section_title
;
Structure prediction by ZEFSAII (Michael W. Deem and Ramdas Pophale) SiO2 
 PCOD8305452
Probable space group: P 41 21 2
;
_chemical_formula_sum "Si O2"
_cell_formula_units_Z 40
_cell_length_a 11.185349
_cell_length_b 11.185349
_cell_length_c 14.901516
_cell_angle_alpha 90.000000
_cell_angle_beta 90.000000
_cell_angle_gamma 90.000000
_cell_volume 1864.358950
_symmetry_space_group_name_H-M "P 41 21 2"
_symmetry_group_IT_number 92
_symmetry_cell_setting 'tetragonal'
loop_
_space_group_symop_operation_xyz
x,y,z
1/2-y,1/2+x,1/4+z
-x,-y,1/2+z
1/2+y,1/2-x,3/4+z
1/2+x,1/2-y,3/4-z
1/2-x,1/2+y,1/4-z
y,x,-z
-y,-x,1/2-z
loop_
_atom_site_type_symbol
_atom_site_label
_atom_site_fract_x
_atom_site_fract_y
_atom_site_fract_z
Si Si1 0.594159 0.734292 0.294167
Si Si2 0.229916 0.938019 0.567008
Si Si3 0.476690 0.522949 0.098590
Si Si4 0.793132 0.453644 0.872157
Si Si5 0.845444 0.648111 0.012538
O O1 0.702848 0.689373 0.230467
O O2 0.545877 0.613857 0.337760
O O3 0.637830 0.827832 0.368560
O O4 0.493033 0.796496 0.231986
O O5 0.110629 0.989962 0.613586
O O6 0.333480 0.916189 0.641060
O O7 0.274517 0.033560 0.493132
O O8 0.435319 0.659311 0.093365
O O9 0.467557 0.467557 0.000000
O O10 0.856272 0.551666 0.933871
O O11 0.727117 0.727117 0.000000
#
# Coordination Sequence:
#
# PCOD8305452 Si02
#       5
#     8   8   8   8   8
#     4  11  25  43  71  97 143 180 233 278 353 418
#     4  11  23  42  71 106 130 182 232 290 341 415
#     4  11  22  44  71  98 135 182 227 273 353 416
#     4  11  22  44  66  98 137 181 220 291 341 403
#     4  12  21  40  75  97 138 173 236 290 336 407
#
# _framework density 21.455095
#
# number of rings (size 3 to 8) (size 9 to 14) (size 15 to 20)
#    0.000    0.800    6.000    4.800    0.000    3.200 
#    7.200    0.000    4.400    0.000    0.000    0.000 
#    0.000    0.000    0.000    0.000    0.000    0.000 
#
# Total GULP energy -496125.443600 kJ/mol
# GULP energy per Si atom -12403.136090 kJ/mol
# Density = 2.140626 g / cm^3
# Si number density = 21.455095 Si / 1000 Ang^3
#
#
#
# Elastic Constant Matrix: (Units=GPa)
#
#
# Indices 1 2 3 4 5 6 
#
# 1 87.4065 55.1670 47.5187 0.0000 0.0000 0.0000
# 2 55.1670 87.4065 47.5187 0.0000 0.0000 0.0000
# 3 47.5187 47.5187 115.1688 0.0000 0.0000 0.0000
# 4 0.0000 0.0000 0.0000 31.8193 0.0000 0.0000
# 5 0.0000 0.0000 0.0000 0.0000 31.8193 0.0000
# 6 0.0000 0.0000 0.0000 0.0000 0.0000 41.7957
#
#
#
# Elastic Compliance Matrix: (Units=1/GPa)
#
#
# Indices 1 2 3 4 5 6 
#
# 1 0.020346 -0.010672 -0.003992 0.000000 0.000000 0.000000
# 2 -0.010672 0.020346 -0.003992 0.000000 0.000000 0.000000
# 3 -0.003992 -0.003992 0.011977 0.000000 0.000000 0.000000
# 4 0.000000 0.000000 0.000000 0.031428 0.000000 0.000000
# 5 0.000000 0.000000 0.000000 0.000000 0.031428 0.000000
# 6 0.000000 0.000000 0.000000 0.000000 0.000000 0.023926
#
#
# Mechanical properties :
#
#
# Convention : Reuss Voigt Hill
#
# Bulk Modulus (GPa) = 65.10724 65.59896 65.35310
# Shear Modulus (GPa) = 27.49055 30.40534 28.94795
#
# Velocity S-wave (km/s) = 3.58342 3.76860 3.67718
# Velocity P-wave (km/s) = 6.89441 7.04116 6.96817
#
# Compressibility (1/GPa) = 0.01535928
#
# Stress axis : x y z
#
# Youngs Moduli (GPa) = 49.14893 49.14893 83.49356
#
# Poissons Ratio (x) = 0.52449 0.33329
# Poissons Ratio (y) = 0.52449 0.33329
# Poissons Ratio (z) = 0.19619 0.19619
#
# Static dielectric constant tensor:
#      x y z
#    x 3.752800 0.000000 0.000000 
#    y 0.000000 3.752800 0.000000 
#    z 0.000000 0.000000 3.927630 
# 
# 
# High freq. dielectric constant tensor:
#      x y z
#    x 1.833650 0.000000 0.000000 
#    y 0.000000 1.833650 0.000000 
#    z 0.000000 0.000000 1.841170 
# 
# From -- ./inp_files/2655.got.cif
#   From: 2010.03.12/outbox.cif.g09.slc.cpg/sg92_2_cif.got.tgz:2655.got - 2010.04.08 20:41:11.
