data_PCOD8305124
_publ_section_title
;
Structure prediction by ZEFSAII (Michael W. Deem and Ramdas Pophale) SiO2 
 PCOD8305124
Probable space group: P 41 2 2
;
_chemical_formula_sum "Si O2"
_cell_formula_units_Z 48
_cell_length_a 8.852374
_cell_length_b 8.852374
_cell_length_c 31.133673
_cell_angle_alpha 90.000000
_cell_angle_beta 90.000000
_cell_angle_gamma 90.000000
_cell_volume 2439.775510
_symmetry_space_group_name_H-M "P 41 2 2"
_symmetry_group_IT_number 91
_symmetry_cell_setting 'tetragonal'
loop_
_space_group_symop_operation_xyz
x,y,z
-y,x,1/4+z
-x,-y,1/2+z
y,-x,3/4+z
x,-y,1/2-z
-x,y,-z
y,x,3/4-z
-y,-x,1/4-z
loop_
_atom_site_type_symbol
_atom_site_label
_atom_site_fract_x
_atom_site_fract_y
_atom_site_fract_z
Si Si1 0.340982 0.153783 0.590515
Si Si2 0.666925 0.669934 0.173356
Si Si3 0.869723 0.318622 0.747805
Si Si4 0.649612 0.804285 0.413902
Si Si5 0.689397 0.343774 0.669971
Si Si6 0.178526 0.816326 0.499380
O O1 0.269940 0.242037 0.631010
O O2 0.250824 0.172939 0.545140
O O3 0.500827 0.223386 0.579639
O O4 0.350197 0.976960 0.601934
O O5 0.760024 0.517194 0.178868
O O6 0.490046 0.633156 0.169691
O O7 0.688603 0.772200 0.215435
O O8 0.886588 0.500000 0.750000
O O9 0.744987 0.260046 0.713284
O O10 0.027657 0.249500 0.732669
O O11 0.697817 0.697817 0.375000
O O12 0.762080 0.775090 0.453379
O O13 0.737877 0.262124 0.625000
O O14 0.000000 0.827496 0.500000
#
# Coordination Sequence:
#
# PCOD8305124 Si02
#       6
#     8   8   8   8   8   8
#     4   9  19  35  54  82 113 142 182 235 282 334
#     4  11  21  36  59  85 114 148 191 238 283 336
#     4   9  18  37  59  77 106 148 188 226 277 337
#     4  11  22  38  60  84 111 147 188 229 283 339
#     4   9  18  33  55  85 112 142 188 239 284 333
#     4  11  23  39  56  81 116 151 188 231 284 341
#
# _framework density 19.673940000000002
#
# number of rings (size 3 to 8) (size 9 to 14) (size 15 to 20)
#    0.000    2.000    0.000    6.000    0.000    5.333 
#    0.000   11.667    0.000    0.000    0.000    0.000 
#    0.000    0.000    0.000    0.000    0.000    0.000 
#
# Total GULP energy -594857.138226 kJ/mol
# GULP energy per Si atom -12392.857046 kJ/mol
# Density = 1.962916 g / cm^3
# Si number density = 19.673940 Si / 1000 Ang^3
#
#
#
# Elastic Constant Matrix: (Units=GPa)
#
#
# Indices 1 2 3 4 5 6 
#
# 1 74.1188 15.7637 46.8098 0.0000 0.0000 0.0000
# 2 15.7637 74.1188 46.8098 0.0000 0.0000 0.0000
# 3 46.8098 46.8098 131.1193 0.0000 0.0000 0.0000
# 4 0.0000 0.0000 0.0000 33.3551 0.0000 0.0000
# 5 0.0000 0.0000 0.0000 0.0000 33.3551 0.0000
# 6 0.0000 0.0000 0.0000 0.0000 0.0000 15.6110
#
#
#
# Elastic Compliance Matrix: (Units=1/GPa)
#
#
# Indices 1 2 3 4 5 6 
#
# 1 0.017424 0.000288 -0.006323 0.000000 0.000000 0.000000
# 2 0.000288 0.017424 -0.006323 0.000000 0.000000 0.000000
# 3 -0.006323 -0.006323 0.012141 0.000000 0.000000 0.000000
# 4 0.000000 0.000000 0.000000 0.029980 0.000000 0.000000
# 5 0.000000 0.000000 0.000000 0.000000 0.029980 0.000000
# 6 0.000000 0.000000 0.000000 0.000000 0.000000 0.064057
#
#
# Mechanical properties :
#
#
# Convention : Reuss Voigt Hill
#
# Bulk Modulus (GPa) = 44.89887 55.34703 50.12295
# Shear Modulus (GPa) = 24.61252 27.79583 26.20417
#
# Velocity S-wave (km/s) = 3.54082 3.76283 3.65351
# Velocity P-wave (km/s) = 6.29186 6.86089 6.58253
#
# Compressibility (1/GPa) = 0.02227227
#
# Stress axis : x y z
#
# Youngs Moduli (GPa) = 57.39201 57.39198 82.36328
#
# Poissons Ratio (x) = -0.01650 0.52079
# Poissons Ratio (y) = -0.01650 0.52079
# Poissons Ratio (z) = 0.36289 0.36289
#
# Static dielectric constant tensor:
#      x y z
#    x 3.434840 0.000000 0.000000 
#    y 0.000000 3.434840 0.000000 
#    z 0.000000 0.000000 4.521270 
# 
# 
# High freq. dielectric constant tensor:
#      x y z
#    x 1.747800 0.000000 0.000000 
#    y 0.000000 1.747800 0.000000 
#    z 0.000000 0.000000 1.796900 
# 
# From -- ./inp_files/13603.got.cif
#   From: 2010.03.12/outbox.cif.g09.slc.cpg/sg91_7_cif.got.tgz:13603.got - 2010.04.08 20:27:58.
