data_PCOD8305981
_publ_section_title
;
Structure prediction by ZEFSAII (Michael W. Deem and Ramdas Pophale) SiO2 
 PCOD8305981
Probable space group: P 43 21 2
;
_chemical_formula_sum "Si O2"
_cell_formula_units_Z 20
_cell_length_a 7.925120
_cell_length_b 7.925120
_cell_length_c 10.496717
_cell_angle_alpha 90.000000
_cell_angle_beta 90.000000
_cell_angle_gamma 90.000000
_cell_volume 659.272837
_symmetry_space_group_name_H-M "P 43 21 2"
_symmetry_group_IT_number 96
_symmetry_cell_setting 'tetragonal'
loop_
_space_group_symop_operation_xyz
x,y,z
1/2-y,1/2+x,3/4+z
-x,-y,1/2+z
1/2+y,1/2-x,1/4+z
1/2+x,1/2-y,1/4-z
1/2-x,1/2+y,3/4-z
y,x,-z
-y,-x,1/2-z
loop_
_atom_site_type_symbol
_atom_site_label
_atom_site_fract_x
_atom_site_fract_y
_atom_site_fract_z
Si Si1 0.390314 0.446158 0.638163
Si Si2 0.256501 0.256501 0.000000
Si Si3 0.611269 0.930636 0.135778
O O1 0.474290 0.474290 0.500000
O O2 0.532504 0.467497 0.750000
O O3 0.248512 0.591624 0.657932
O O4 0.310725 0.257700 0.645746
O O5 0.252793 0.428921 0.080243
O O6 0.460644 0.951226 0.240850
#
# Coordination Sequence:
#
# PCOD8305981 Si02
#       3
#     8   4   8
#     4  10  26  54  85 120 172 224 280 360 433 512
#     4  10  28  50  82 118 172 214 286 342 426 514
#     4  12  29  50  88 125 166 227 288 349 439 521
#
# _framework density 30.336455000000001
#
# number of rings (size 3 to 8) (size 9 to 14) (size 15 to 20)
#    1.200    0.000    0.000    2.400   11.200    4.800 
#    0.000    0.000    4.400    0.000    0.000    0.000 
#    0.000    0.000    0.000    0.000    0.000    0.000 
#
# Total GULP energy -247787.946404 kJ/mol
# GULP energy per Si atom -12389.397320 kJ/mol
# Density = 3.026741 g / cm^3
# Si number density = 30.336455 Si / 1000 Ang^3
#
#
#
# Elastic Constant Matrix: (Units=GPa)
#
#
# Indices 1 2 3 4 5 6 
#
# 1 154.5263 74.8790 54.6741 0.0000 0.0000 0.0000
# 2 74.8790 154.5255 54.6749 0.0000 0.0000 0.0000
# 3 54.6741 54.6749 248.6548 0.0000 0.0000 0.0000
# 4 0.0000 0.0000 0.0000 34.7602 0.0000 0.0000
# 5 0.0000 0.0000 0.0000 0.0000 34.7602 0.0000
# 6 0.0000 0.0000 0.0000 0.0000 0.0000 25.8825
#
#
#
# Elastic Compliance Matrix: (Units=1/GPa)
#
#
# Indices 1 2 3 4 5 6 
#
# 1 0.008712 -0.003843 -0.001071 0.000000 0.000000 0.000000
# 2 -0.003843 0.008712 -0.001071 0.000000 0.000000 0.000000
# 3 -0.001071 -0.001071 0.004492 0.000000 0.000000 0.000000
# 4 0.000000 0.000000 0.000000 0.028769 0.000000 0.000000
# 5 0.000000 0.000000 0.000000 0.000000 0.028768 0.000000
# 6 0.000000 0.000000 0.000000 0.000000 0.000000 0.038636
#
#
# Mechanical properties :
#
#
# Convention : Reuss Voigt Hill
#
# Bulk Modulus (GPa) = 100.51646 102.90695 101.71171
# Shear Modulus (GPa) = 37.48812 43.97916 40.73364
#
# Velocity S-wave (km/s) = 3.51913 3.81164 3.66830
# Velocity P-wave (km/s) = 7.05111 7.30527 7.17932
#
# Compressibility (1/GPa) = 0.00994862
#
# Stress axis : x y z
#
# Youngs Moduli (GPa) = 114.77890 114.77792 222.59345
#
# Poissons Ratio (x) = 0.44109 0.23833
# Poissons Ratio (y) = 0.44109 0.23834
# Poissons Ratio (z) = 0.12289 0.12290
#
# Static dielectric constant tensor:
#      x y z
#    x 5.054560 0.000000 0.000000 
#    y 0.000000 5.054550 0.000000 
#    z 0.000000 0.000000 6.134140 
# 
# 
# High freq. dielectric constant tensor:
#      x y z
#    x 2.226420 0.000000 0.000000 
#    y 0.000000 2.226420 0.000000 
#    z 0.000000 0.000000 2.266210 
# 
# From -- ./inp_files/1760.got.cif
#   From: 2010.03.12/outbox.cif.g09.slc.cpg/sg96_1_cif.got.tgz:1760.got - 2010.04.08 20:56:49.
