data_PCOD8305123
_publ_section_title
;
Structure prediction by ZEFSAII (Michael W. Deem and Ramdas Pophale) SiO2 
 PCOD8305123
Probable space group: P 41 2 2
;
_chemical_formula_sum "Si O2"
_cell_formula_units_Z 48
_cell_length_a 18.953990
_cell_length_b 18.953990
_cell_length_c 9.616433
_cell_angle_alpha 90.000000
_cell_angle_beta 90.000000
_cell_angle_gamma 90.000000
_cell_volume 3454.739491
_symmetry_space_group_name_H-M "P 41 2 2"
_symmetry_group_IT_number 91
_symmetry_cell_setting 'tetragonal'
loop_
_space_group_symop_operation_xyz
x,y,z
-y,x,1/4+z
-x,-y,1/2+z
y,-x,3/4+z
x,-y,1/2-z
-x,y,-z
y,x,3/4-z
-y,-x,1/4-z
loop_
_atom_site_type_symbol
_atom_site_label
_atom_site_fract_x
_atom_site_fract_y
_atom_site_fract_z
Si Si1 0.565577 0.082928 0.407585
Si Si2 0.155475 0.901416 0.485816
Si Si3 0.434777 0.085251 0.908762
Si Si4 0.920246 0.693705 0.841417
Si Si5 0.150435 0.931209 0.013569
Si Si6 0.912208 0.309169 0.349084
O O1 0.500000 0.110769 0.500000
O O2 0.561314 0.113549 0.250269
O O3 0.638339 0.109689 0.478336
O O4 0.564778 0.998844 0.404240
O O5 0.139648 0.860353 0.625000
O O6 0.096751 0.872585 0.383833
O O7 0.233510 0.879729 0.437817
O O8 0.150327 0.985100 0.497376
O O9 0.500000 0.113341 0.000000
O O10 0.365537 0.115651 0.986346
O O11 0.898594 0.773423 0.803390
O O12 0.004010 0.691119 0.843453
O O13 0.889360 0.672219 0.992832
O O14 0.092602 0.907399 0.125000
#
# Coordination Sequence:
#
# PCOD8305123 Si02
#       6
#     8   8   8   8   8   8
#     4   9  16  25  40  61  79  97 118 140 175 230
#     4  11  23  33  45  60  76  98 132 177 221 262
#     4   9  16  25  40  60  81  98 114 140 179 230
#     4   9  17  29  44  56  74  98 123 154 193 244
#     4  11  21  35  47  58  74 100 134 173 222 261
#     4   9  17  30  42  56  76  98 121 153 198 242
#
# _framework density 13.893957
#
# number of rings (size 3 to 8) (size 9 to 14) (size 15 to 20)
#    0.000    2.333    1.667    2.000    2.333    6.000 
#    0.000    0.000    0.000    0.000    0.000    0.000 
#    0.000    0.000    0.000    0.000    0.000    0.000 
#
# Total GULP energy -594990.538820 kJ/mol
# GULP energy per Si atom -12395.636225 kJ/mol
# Density = 1.386233 g / cm^3
# Si number density = 13.893957 Si / 1000 Ang^3
#
#
#
# Elastic Constant Matrix: (Units=GPa)
#
#
# Indices 1 2 3 4 5 6 
#
# 1 52.9984 9.4469 31.2294 0.0000 0.0000 0.0000
# 2 9.4469 52.9986 31.2298 0.0000 0.0000 0.0000
# 3 31.2294 31.2298 136.1236 0.0000 0.0000 0.0000
# 4 0.0000 0.0000 0.0000 13.9395 0.0000 0.0000
# 5 0.0000 0.0000 0.0000 0.0000 13.9415 0.0000
# 6 0.0000 0.0000 0.0000 0.0000 0.0000 -10.3558
#
#
#
# Elastic Compliance Matrix: (Units=1/GPa)
#
#
# Indices 1 2 3 4 5 6 
#
# 1 0.021872 -0.001089 -0.004768 0.000000 0.000000 0.000000
# 2 -0.001089 0.021872 -0.004768 0.000000 0.000000 0.000000
# 3 -0.004768 -0.004768 0.009534 0.000000 0.000000 0.000000
# 4 0.000000 0.000000 0.000000 0.071738 0.000000 0.000000
# 5 0.000000 0.000000 0.000000 0.000000 0.071729 0.000000
# 6 0.000000 0.000000 0.000000 0.000000 0.000000 -0.096565
#
#
# Mechanical properties :
#
#
# Convention : Reuss Voigt Hill
#
# Bulk Modulus (GPa) = 31.22272 42.88143 37.05208
# Shear Modulus (GPa) = 37.84802 14.85268 26.35035
#
# Velocity S-wave (km/s) = 5.22492 3.27311 4.35964
# Velocity P-wave (km/s) = 7.67598 6.72419 7.21579
#
# Compressibility (1/GPa) = 0.03202796
#
# Stress axis : x y z
#
# Youngs Moduli (GPa) = 45.72016 45.72019 104.88713
#
# Poissons Ratio (x) = 0.04979 0.50011
# Poissons Ratio (y) = 0.04979 0.50011
# Poissons Ratio (z) = 0.21800 0.21800
#
# Static dielectric constant tensor:
#      x y z
#    x 2.570100 0.000000 0.000000 
#    y 0.000000 2.570100 0.000000 
#    z 0.000000 0.000000 3.021710 
# 
# 
# High freq. dielectric constant tensor:
#      x y z
#    x 1.488320 0.000000 0.000000 
#    y 0.000000 1.488320 0.000000 
#    z 0.000000 0.000000 1.556080 
# 
# From -- ./inp_files/15334.got.cif
#   From: 2010.03.12/outbox.cif.g09.slc.cpg/sg91_8_cif.got.tgz:15334.got - 2010.04.08 20:27:58.
