data_PCOD8305061
_publ_section_title
;
Structure prediction by ZEFSAII (Michael W. Deem and Ramdas Pophale) SiO2 
 PCOD8305061
Probable space group: P 41 2 2
;
_chemical_formula_sum "Si O2"
_cell_formula_units_Z 60
_cell_length_a 11.935613
_cell_length_b 11.935613
_cell_length_c 19.516571
_cell_angle_alpha 90.000000
_cell_angle_beta 90.000000
_cell_angle_gamma 90.000000
_cell_volume 2780.308411
_symmetry_space_group_name_H-M "P 41 2 2"
_symmetry_group_IT_number 91
_symmetry_cell_setting 'tetragonal'
loop_
_space_group_symop_operation_xyz
x,y,z
-y,x,1/4+z
-x,-y,1/2+z
y,-x,3/4+z
x,-y,1/2-z
-x,y,-z
y,x,3/4-z
-y,-x,1/4-z
loop_
_atom_site_type_symbol
_atom_site_label
_atom_site_fract_x
_atom_site_fract_y
_atom_site_fract_z
Si Si1 0.932782 0.114754 0.876794
Si Si2 0.973441 0.327290 0.794453
Si Si3 0.973413 0.304962 0.362713
Si Si4 0.646677 0.169837 0.145573
Si Si5 0.595016 0.241708 0.822559
Si Si6 0.553526 0.258087 0.428804
Si Si7 0.000000 0.745813 0.500000
Si Si8 0.642411 0.797247 0.834414
O O1 0.940879 0.200402 0.813713
O O2 0.826809 0.034082 0.871137
O O3 0.926785 0.180599 0.948186
O O4 0.045929 0.045929 0.875000
O O5 0.868233 0.403439 0.813267
O O6 0.994948 0.333002 0.714524
O O7 0.084215 0.373662 0.832725
O O8 0.856639 0.361382 0.379632
O O9 0.068573 0.357680 0.410671
O O10 0.748349 0.251652 0.125000
O O11 0.539029 0.244296 0.166569
O O12 0.672163 0.092518 0.211237
O O13 0.652505 0.355582 0.848130
O O14 0.639689 0.230500 0.745306
O O15 0.500000 0.300286 0.500000
O O16 0.463865 0.260418 0.368688
O O17 0.751995 0.751995 0.875000
#
# Coordination Sequence:
#
# PCOD8305061 Si02
#       8
#     8   8   8   8   8   8   4   8
#     4  11  22  39  65 103 143 184 229 287 364 430
#     4  11  23  43  71  99 138 189 233 291 364 441
#     4  12  24  42  69 103 143 181 241 292 351 430
#     4  11  26  45  72 107 145 184 244 302 360 432
#     4  12  28  46  70 109 135 183 245 299 352 428
#     4  12  24  48  71  96 134 189 237 287 362 436
#     4  10  22  44  70  96 144 194 226 284 364 446
#     4  12  26  45  70  97 138 187 233 291 357 429
#
# _framework density 21.580338999999999
#
# number of rings (size 3 to 8) (size 9 to 14) (size 15 to 20)
#    0.000    0.533    4.000    4.800    5.600    1.600 
#    4.800    0.000    0.000    0.000    0.000    0.000 
#    0.000    0.000    0.000    0.000    0.000    0.000 
#
# Total GULP energy -744241.387711 kJ/mol
# GULP energy per Si atom -12404.023129 kJ/mol
# Density = 2.153122 g / cm^3
# Si number density = 21.580339 Si / 1000 Ang^3
#
#
#
# Elastic Constant Matrix: (Units=GPa)
#
#
# Indices 1 2 3 4 5 6 
#
# 1 94.2336 45.2447 12.7856 0.0000 0.0000 0.0000
# 2 45.2447 94.2356 12.7896 0.0000 0.0000 0.0000
# 3 12.7856 12.7896 66.0283 0.0000 0.0000 0.0000
# 4 0.0000 0.0000 0.0000 25.3377 0.0000 0.0000
# 5 0.0000 0.0000 0.0000 0.0000 25.3381 0.0000
# 6 0.0000 0.0000 0.0000 0.0000 0.0000 48.8925
#
#
#
# Elastic Compliance Matrix: (Units=1/GPa)
#
#
# Indices 1 2 3 4 5 6 
#
# 1 0.013923 -0.006489 -0.001439 0.000000 0.000000 0.000000
# 2 -0.006489 0.013923 -0.001440 0.000000 0.000000 0.000000
# 3 -0.001439 -0.001440 0.015703 0.000000 0.000000 0.000000
# 4 0.000000 0.000000 0.000000 0.039467 0.000000 0.000000
# 5 0.000000 0.000000 0.000000 0.000000 0.039466 0.000000
# 6 0.000000 0.000000 0.000000 0.000000 0.000000 0.020453
#
#
# Mechanical properties :
#
#
# Convention : Reuss Voigt Hill
#
# Bulk Modulus (GPa) = 40.30451 44.01523 42.15987
# Shear Modulus (GPa) = 29.42172 32.15883 30.79027
#
# Velocity S-wave (km/s) = 3.69637 3.86449 3.78136
# Velocity P-wave (km/s) = 6.07738 6.35237 6.21640
#
# Compressibility (1/GPa) = 0.02481112
#
# Stress axis : x y z
#
# Youngs Moduli (GPa) = 71.82379 71.82413 63.68351
#
# Poissons Ratio (x) = 0.46610 0.09164
# Poissons Ratio (y) = 0.46610 0.09172
# Poissons Ratio (z) = 0.10336 0.10344
#
# Static dielectric constant tensor:
#      x y z
#    x 4.128840 0.000000 0.000000 
#    y 0.000000 4.128840 0.000000 
#    z 0.000000 0.000000 3.860880 
# 
# 
# High freq. dielectric constant tensor:
#      x y z
#    x 1.854440 0.000000 0.000000 
#    y 0.000000 1.854430 0.000000 
#    z 0.000000 0.000000 1.851440 
# 
# From -- ./inp_files/21569.got.cif
#   From: 2010.03.12/outbox.cif.g09.slc.cpg/sg91_11_cif.got.tgz:21569.got - 2010.04.08 20:27:58.
