data_PCOD8305805
_publ_section_title
;
Structure prediction by ZEFSAII (Michael W. Deem and Ramdas Pophale) SiO2 
 PCOD8305805
Probable space group: P 43 2 2
;
_chemical_formula_sum "Si O2"
_cell_formula_units_Z 60
_cell_length_a 11.777706
_cell_length_b 11.777706
_cell_length_c 22.606573
_cell_angle_alpha 90.000000
_cell_angle_beta 90.000000
_cell_angle_gamma 90.000000
_cell_volume 3135.856274
_symmetry_space_group_name_H-M "P 43 2 2"
_symmetry_group_IT_number 95
_symmetry_cell_setting 'tetragonal'
loop_
_space_group_symop_operation_xyz
x,y,z
-y,x,3/4+z
-x,-y,1/2+z
y,-x,1/4+z
x,-y,1/2-z
-x,y,-z
y,x,1/4-z
-y,-x,3/4-z
loop_
_atom_site_type_symbol
_atom_site_label
_atom_site_fract_x
_atom_site_fract_y
_atom_site_fract_z
Si Si1 0.671740 0.916586 0.900734
Si Si2 0.053556 0.796120 0.908704
Si Si3 0.708840 0.871590 0.767820
Si Si4 0.885053 0.528408 0.966171
Si Si5 0.142526 0.500000 0.250000
Si Si6 0.564849 0.005405 0.399555
Si Si7 0.709897 0.822167 0.569345
Si Si8 0.767845 0.823340 0.275818
O O1 0.717399 0.864132 0.838815
O O2 0.535620 0.902088 0.905459
O O3 0.715533 0.839419 0.954327
O O4 0.712501 0.046811 0.910004
O O5 0.088137 0.911864 0.875000
O O6 0.063112 0.682380 0.868979
O O7 0.927040 0.807897 0.932435
O O8 0.149471 0.790715 0.958344
O O9 0.583906 0.831813 0.745196
O O10 0.803838 0.796889 0.735297
O O11 0.728536 0.000000 0.750000
O O12 0.797507 0.633233 0.968256
O O13 0.918137 0.509084 0.898194
O O14 0.000000 0.569074 0.000000
O O15 0.212919 0.585191 0.292855
O O16 0.062722 0.582602 0.210521
O O17 0.741793 0.741793 0.625000
#
# Coordination Sequence:
#
# PCOD8305805 Si02
#       8
#     8   8   8   8   4   8   8   8
#     4  11  22  35  56  87 118 149 192 243 290 352
#     4  10  21  36  55  79 111 153 185 235 285 341
#     4  11  19  36  60  84 109 155 195 233 302 352
#     4  10  16  37  61  77 103 150 207 238 267 349
#     4  10  24  36  60  90 116 158 202 248 294 350
#     4  10  19  37  57  80 110 148 198 240 275 338
#     4  11  23  40  57  88 126 155 194 247 299 353
#     4  10  21  36  54  84 112 146 198 229 285 341
#
# _framework density 19.133528999999999
#
# number of rings (size 3 to 8) (size 9 to 14) (size 15 to 20)
#    0.000    1.600    6.667    0.800    7.467    0.533 
#    2.400    0.000    0.000    0.000    6.933    0.000 
#    0.000    0.000    0.000    0.000    0.000    0.000 
#
# Total GULP energy -743597.772997 kJ/mol
# GULP energy per Si atom -12393.296217 kJ/mol
# Density = 1.908998 g / cm^3
# Si number density = 19.133529 Si / 1000 Ang^3
#
#
#
# Elastic Constant Matrix: (Units=GPa)
#
#
# Indices 1 2 3 4 5 6 
#
# 1 63.9434 30.7660 24.8903 0.0000 0.0000 0.0000
# 2 30.7660 63.9423 24.8899 0.0000 0.0000 0.0000
# 3 24.8903 24.8899 79.4920 0.0000 0.0000 0.0000
# 4 0.0000 0.0000 0.0000 34.5162 0.0000 0.0000
# 5 0.0000 0.0000 0.0000 0.0000 34.5164 0.0000
# 6 0.0000 0.0000 0.0000 0.0000 0.0000 13.2532
#
#
#
# Elastic Compliance Matrix: (Units=1/GPa)
#
#
# Indices 1 2 3 4 5 6 
#
# 1 0.021390 -0.008751 -0.003957 0.000000 0.000000 0.000000
# 2 -0.008751 0.021390 -0.003957 0.000000 0.000000 0.000000
# 3 -0.003957 -0.003957 0.015058 0.000000 0.000000 0.000000
# 4 0.000000 0.000000 0.000000 0.028972 0.000000 0.000000
# 5 0.000000 0.000000 0.000000 0.000000 0.028972 0.000000
# 6 0.000000 0.000000 0.000000 0.000000 0.000000 0.075453
#
#
# Mechanical properties :
#
#
# Convention : Reuss Voigt Hill
#
# Bulk Modulus (GPa) = 40.80621 40.94111 40.87366
# Shear Modulus (GPa) = 21.48354 24.91259 23.19807
#
# Velocity S-wave (km/s) = 3.35449 3.61229 3.48577
# Velocity P-wave (km/s) = 6.03132 6.23235 6.13266
#
# Compressibility (1/GPa) = 0.02450608
#
# Stress axis : x y z
#
# Youngs Moduli (GPa) = 46.75094 46.75025 66.40946
#
# Poissons Ratio (x) = 0.40913 0.26281
# Poissons Ratio (y) = 0.40914 0.26280
# Poissons Ratio (z) = 0.18501 0.18501
#
# Static dielectric constant tensor:
#      x y z
#    x 3.306080 0.000000 0.000000 
#    y 0.000000 3.306080 0.000000 
#    z 0.000000 0.000000 3.878470 
# 
# 
# High freq. dielectric constant tensor:
#      x y z
#    x 1.715270 0.000000 0.000000 
#    y 0.000000 1.715270 0.000000 
#    z 0.000000 0.000000 1.772870 
# 
# From -- ./inp_files/6525.got.cif
#   From: 2010.03.12/outbox.cif.g09.slc.cpg/sg95_4_cif.got.tgz:6525.got - 2010.04.08 20:51:55.
