data_PCOD8305352
_publ_section_title
;
Structure prediction by ZEFSAII (Michael W. Deem and Ramdas Pophale) SiO2 
 PCOD8305352
Probable space group: P 41 21 2
;
_chemical_formula_sum "Si O2"
_cell_formula_units_Z 32
_cell_length_a 7.346110
_cell_length_b 7.346110
_cell_length_c 21.821957
_cell_angle_alpha 90.000000
_cell_angle_beta 90.000000
_cell_angle_gamma 90.000000
_cell_volume 1177.629157
_symmetry_space_group_name_H-M "P 41 21 2"
_symmetry_group_IT_number 92
_symmetry_cell_setting 'tetragonal'
loop_
_space_group_symop_operation_xyz
x,y,z
1/2-y,1/2+x,1/4+z
-x,-y,1/2+z
1/2+y,1/2-x,3/4+z
1/2+x,1/2-y,3/4-z
1/2-x,1/2+y,1/4-z
y,x,-z
-y,-x,1/2-z
loop_
_atom_site_type_symbol
_atom_site_label
_atom_site_fract_x
_atom_site_fract_y
_atom_site_fract_z
Si Si1 0.650031 0.618359 0.069299
Si Si2 0.589955 0.027642 0.414039
Si Si3 0.529627 0.736266 0.283179
Si Si4 0.865931 0.180075 0.653509
O O1 0.852527 0.590850 0.100500
O O2 0.541258 0.427528 0.072816
O O3 0.541130 0.768418 0.107750
O O4 0.680448 0.680448 0.000000
O O5 0.652962 0.125458 0.478317
O O6 0.575550 0.813870 0.430469
O O7 0.425628 0.574373 0.250000
O O8 0.677028 0.648504 0.329127
O O9 0.391356 0.864545 0.324222
#
# Coordination Sequence:
#
# PCOD8305352 Si02
#       4
#     8   8   8   8
#     4  12  26  48  71 108 149 197 252 315 383 458
#     4  11  26  45  70 109 146 191 254 306 383 457
#     4  10  21  44  71 105 144 191 250 306 372 457
#     4  11  22  46  75 104 146 197 243 312 381 448
#
# _framework density 27.173242999999999
#
# number of rings (size 3 to 8) (size 9 to 14) (size 15 to 20)
#    0.000    1.000    5.000    3.750    3.500    0.000 
#    9.000    0.000    0.000    0.000    0.000    0.000 
#    0.000    0.000    0.000    0.000    0.000    0.000 
#
# Total GULP energy -396665.331781 kJ/mol
# GULP energy per Si atom -12395.791618 kJ/mol
# Density = 2.711140 g / cm^3
# Si number density = 27.173243 Si / 1000 Ang^3
#
#
#
# Elastic Constant Matrix: (Units=GPa)
#
#
# Indices 1 2 3 4 5 6 
#
# 1 63.2278 -14.6888 -19.0282 0.0000 0.0000 0.0000
# 2 -14.6888 63.2270 -19.0288 0.0000 0.0000 0.0000
# 3 -19.0282 -19.0288 171.9044 0.0000 0.0000 0.0000
# 4 0.0000 0.0000 0.0000 33.3504 0.0000 0.0000
# 5 0.0000 0.0000 0.0000 0.0000 33.3507 0.0000
# 6 0.0000 0.0000 0.0000 0.0000 0.0000 20.5271
#
#
#
# Elastic Compliance Matrix: (Units=1/GPa)
#
#
# Indices 1 2 3 4 5 6 
#
# 1 0.017697 0.004863 0.002497 0.000000 0.000000 0.000000
# 2 0.004863 0.017697 0.002497 0.000000 0.000000 0.000000
# 3 0.002497 0.002497 0.006370 0.000000 0.000000 0.000000
# 4 0.000000 0.000000 0.000000 0.029985 0.000000 0.000000
# 5 0.000000 0.000000 0.000000 0.000000 0.029984 0.000000
# 6 0.000000 0.000000 0.000000 0.000000 0.000000 0.048716
#
#
# Mechanical properties :
#
#
# Convention : Reuss Voigt Hill
#
# Bulk Modulus (GPa) = 16.26564 21.42972 18.84768
# Shear Modulus (GPa) = 33.06269 40.85264 36.95766
#
# Velocity S-wave (km/s) = 3.49196 3.88159 3.69192
# Velocity P-wave (km/s) = 4.71776 5.29079 5.01247
#
# Compressibility (1/GPa) = 0.06147931
#
# Stress axis : x y z
#
# Youngs Moduli (GPa) = 56.50646 56.50558 156.98498
#
# Poissons Ratio (x) = -0.27478 -0.39202
# Poissons Ratio (y) = -0.27479 -0.39203
# Poissons Ratio (z) = -0.14111 -0.14111
#
# Static dielectric constant tensor:
#      x y z
#    x 4.839190 0.000000 0.000000 
#    y 0.000000 4.839200 0.000000 
#    z 0.000000 0.000000 5.740300 
# 
# 
# High freq. dielectric constant tensor:
#      x y z
#    x 2.088470 0.000000 0.000000 
#    y 0.000000 2.088470 0.000000 
#    z 0.000000 0.000000 2.116690 
# 
# From -- ./inp_files/3717.got.cif
#   From: 2010.03.12/outbox.cif.g09.slc.cpg/sg92_2_cif.got.tgz:3717.got - 2010.04.08 20:41:11.
