data_PCOD8305627
_publ_section_title
;
Structure prediction by ZEFSAII (Michael W. Deem and Ramdas Pophale) SiO2 
 PCOD8305627
Probable space group: P 42 21 2
;
_chemical_formula_sum "Si O2"
_cell_formula_units_Z 34
_cell_length_a 9.051783
_cell_length_b 9.051783
_cell_length_c 17.223343
_cell_angle_alpha 90.000000
_cell_angle_beta 90.000000
_cell_angle_gamma 90.000000
_cell_volume 1411.190742
_symmetry_space_group_name_H-M "P 42 21 2"
_symmetry_group_IT_number 94
_symmetry_cell_setting 'tetragonal'
loop_
_space_group_symop_operation_xyz
x,y,z
1/2-y,1/2+x,1/2+z
-x,-y,z
1/2+y,1/2-x,1/2+z
1/2+x,1/2-y,1/2-z
1/2-x,1/2+y,1/2-z
y,x,-z
-y,-x,-z
loop_
_atom_site_type_symbol
_atom_site_label
_atom_site_fract_x
_atom_site_fract_y
_atom_site_fract_z
Si Si1 0.331750 0.331750 0.000000
Si Si2 0.375863 0.291733 0.615314
Si Si3 0.159923 0.159923 0.500000
Si Si4 0.487123 0.827826 0.291485
Si Si5 0.000000 0.000000 0.000000
Si Si6 0.326838 0.802084 0.660020
O O1 0.314552 0.496563 0.034401
O O2 0.306246 0.218754 0.070199
O O3 0.274406 0.174954 0.570693
O O4 0.271609 0.418425 0.649129
O O5 0.495199 0.356482 0.554058
O O6 0.494202 0.217281 0.673874
O O7 0.544266 0.795334 0.204184
O O8 0.320995 0.767007 0.293778
O O9 0.500000 0.000000 0.316474
#
# Coordination Sequence:
#
# PCOD8305627 Si02
#       6
#     4   8   4   8   2   8
#     4  11  27  50  74 108 150 196 262 316 386 462
#     4  11  23  46  75 106 147 192 253 311 377 448
#     4  10  26  46  74 106 148 194 244 328 378 456
#     4  12  27  46  72 111 149 204 248 309 383 455
#     4  10  18  42  74 106 140 186 242 306 370 422
#     4  12  27  48  76 112 151 202 254 317 377 461
#
# _framework density 24.093129999999999
#
# number of rings (size 3 to 8) (size 9 to 14) (size 15 to 20)
#    0.000    0.706    2.353    3.529    9.882    0.000 
#    4.235    0.000    0.000    0.000    0.000    0.000 
#    0.000    0.000    0.000    0.000    0.000    0.000 
#
# Total GULP energy -421473.895583 kJ/mol
# GULP energy per Si atom -12396.291047 kJ/mol
# Density = 2.403829 g / cm^3
# Si number density = 24.093130 Si / 1000 Ang^3
#
#
#
# Elastic Constant Matrix: (Units=GPa)
#
#
# Indices 1 2 3 4 5 6 
#
# 1 131.5749 55.8467 39.3921 0.0000 0.0000 0.0000
# 2 55.8467 131.5749 39.3921 0.0000 0.0000 0.0000
# 3 39.3921 39.3921 104.4670 0.0000 0.0000 0.0000
# 4 0.0000 0.0000 0.0000 29.2062 0.0000 0.0000
# 5 0.0000 0.0000 0.0000 0.0000 29.2062 0.0000
# 6 0.0000 0.0000 0.0000 0.0000 0.0000 40.6066
#
#
#
# Elastic Compliance Matrix: (Units=1/GPa)
#
#
# Indices 1 2 3 4 5 6 
#
# 1 0.009773 -0.003432 -0.002391 0.000000 0.000000 0.000000
# 2 -0.003432 0.009773 -0.002391 0.000000 0.000000 0.000000
# 3 -0.002391 -0.002391 0.011375 0.000000 0.000000 0.000000
# 4 0.000000 0.000000 0.000000 0.034239 0.000000 0.000000
# 5 0.000000 0.000000 0.000000 0.000000 0.034239 0.000000
# 6 0.000000 0.000000 0.000000 0.000000 0.000000 0.024627
#
#
# Mechanical properties :
#
#
# Convention : Reuss Voigt Hill
#
# Bulk Modulus (GPa) = 68.99824 70.76428 69.88126
# Shear Modulus (GPa) = 34.41501 35.33620 34.87560
#
# Velocity S-wave (km/s) = 3.78354 3.83384 3.80877
# Velocity P-wave (km/s) = 6.91283 7.00234 6.95773
#
# Compressibility (1/GPa) = 0.01449312
#
# Stress axis : x y z
#
# Youngs Moduli (GPa) = 102.32415 102.32415 87.90823
#
# Poissons Ratio (x) = 0.35120 0.21018
# Poissons Ratio (y) = 0.35120 0.21018
# Poissons Ratio (z) = 0.24465 0.24465
#
# Static dielectric constant tensor:
#      x y z
#    x 5.516760 0.000000 0.000000 
#    y 0.000000 5.516760 0.000000 
#    z 0.000000 0.000000 4.279780 
# 
# 
# High freq. dielectric constant tensor:
#      x y z
#    x 1.969640 0.000000 0.000000 
#    y 0.000000 1.969640 0.000000 
#    z 0.000000 0.000000 1.950170 
# 
# From -- ./inp_files/4583.got.cif
#   From: 2010.03.12/outbox.cif.g09.slc.cpg/sg94_3_cif.got.tgz:4583.got - 2010.04.08 20:48:32.
