data_PCOD8305460
_publ_section_title
;
Structure prediction by ZEFSAII (Michael W. Deem and Ramdas Pophale) SiO2 
 PCOD8305460
Probable space group: P 41 21 2
;
_chemical_formula_sum "Si O2"
_cell_formula_units_Z 40
_cell_length_a 8.900317
_cell_length_b 8.900317
_cell_length_c 21.449764
_cell_angle_alpha 90.000000
_cell_angle_beta 90.000000
_cell_angle_gamma 90.000000
_cell_volume 1699.156841
_symmetry_space_group_name_H-M "P 41 21 2"
_symmetry_group_IT_number 92
_symmetry_cell_setting 'tetragonal'
loop_
_space_group_symop_operation_xyz
x,y,z
1/2-y,1/2+x,1/4+z
-x,-y,1/2+z
1/2+y,1/2-x,3/4+z
1/2+x,1/2-y,3/4-z
1/2-x,1/2+y,1/4-z
y,x,-z
-y,-x,1/2-z
loop_
_atom_site_type_symbol
_atom_site_label
_atom_site_fract_x
_atom_site_fract_y
_atom_site_fract_z
Si Si1 0.106395 0.706686 0.148748
Si Si2 0.804748 0.199302 0.988109
Si Si3 0.086347 0.166414 0.319898
Si Si4 0.184291 0.815710 0.750000
Si Si5 0.658378 0.341623 0.750000
Si Si6 0.974344 0.634873 0.931224
O O1 0.145339 0.733457 0.076674
O O2 0.259124 0.726976 0.188962
O O3 0.992194 0.836598 0.167497
O O4 0.030064 0.541338 0.161582
O O5 0.982318 0.188235 0.995250
O O6 0.744189 0.365587 0.003649
O O7 0.736289 0.112134 0.047177
O O8 0.112392 0.285804 0.374694
O O9 0.909590 0.134005 0.311117
O O10 0.142493 0.641487 0.738693
#
# Coordination Sequence:
#
# PCOD8305460 Si02
#       6
#     8   8   8   4   4   8
#     4  11  26  46  67 101 143 184 239 296 365 443
#     4  11  25  44  67  97 137 184 232 292 362 435
#     4  11  24  42  66  97 133 176 227 289 356 427
#     4  12  22  40  68  98 126 170 228 284 352 428
#     4  12  26  44  70 100 140 190 238 302 364 432
#     4  11  23  44  71  99 136 180 233 296 363 443
#
# _framework density 23.541086
#
# number of rings (size 3 to 8) (size 9 to 14) (size 15 to 20)
#    0.000    0.800    0.000    8.400    0.000   11.200 
#    0.000    0.000    0.000    0.000    0.000    0.000 
#    0.000    0.000    0.000    0.000    0.000    0.000 
#
# Total GULP energy -495712.758319 kJ/mol
# GULP energy per Si atom -12392.818958 kJ/mol
# Density = 2.348751 g / cm^3
# Si number density = 23.541086 Si / 1000 Ang^3
#
#
#
# Elastic Constant Matrix: (Units=GPa)
#
#
# Indices 1 2 3 4 5 6 
#
# 1 86.9209 35.9079 49.0530 0.0000 0.0000 0.0000
# 2 35.9079 86.9195 49.0536 0.0000 0.0000 0.0000
# 3 49.0530 49.0536 127.5835 0.0000 0.0000 0.0000
# 4 0.0000 0.0000 0.0000 40.7575 0.0000 0.0000
# 5 0.0000 0.0000 0.0000 0.0000 40.7575 0.0000
# 6 0.0000 0.0000 0.0000 0.0000 0.0000 22.2464
#
#
#
# Elastic Compliance Matrix: (Units=1/GPa)
#
#
# Indices 1 2 3 4 5 6 
#
# 1 0.015676 -0.003927 -0.004517 0.000000 0.000000 0.000000
# 2 -0.003927 0.015677 -0.004518 0.000000 0.000000 0.000000
# 3 -0.004517 -0.004518 0.011312 0.000000 0.000000 0.000000
# 4 0.000000 0.000000 0.000000 0.024535 0.000000 0.000000
# 5 0.000000 0.000000 0.000000 0.000000 0.024535 0.000000
# 6 0.000000 0.000000 0.000000 0.000000 0.000000 0.044951
#
#
# Mechanical properties :
#
#
# Convention : Reuss Voigt Hill
#
# Bulk Modulus (GPa) = 59.73306 63.27255 61.50281
# Shear Modulus (GPa) = 29.72821 31.91290 30.82055
#
# Velocity S-wave (km/s) = 3.55748 3.68588 3.62225
# Velocity P-wave (km/s) = 6.50409 6.71194 6.60883
#
# Compressibility (1/GPa) = 0.01674115
#
# Stress axis : x y z
#
# Youngs Moduli (GPa) = 63.79081 63.78911 88.40318
#
# Poissons Ratio (x) = 0.25048 0.39935
# Poissons Ratio (y) = 0.25049 0.39938
# Poissons Ratio (z) = 0.28817 0.28818
#
# Static dielectric constant tensor:
#      x y z
#    x 4.351250 0.000000 0.000000 
#    y 0.000000 4.351230 0.000000 
#    z 0.000000 0.000000 4.231200 
# 
# 
# High freq. dielectric constant tensor:
#      x y z
#    x 1.942390 0.000000 0.000000 
#    y 0.000000 1.942390 0.000000 
#    z 0.000000 0.000000 1.933620 
# 
# From -- ./inp_files/3828.got.cif
#   From: 2010.03.12/outbox.cif.g09.slc.cpg/sg92_2_cif.got.tgz:3828.got - 2010.04.08 20:41:11.
