data_PCOD8305135
_publ_section_title
;
Structure prediction by ZEFSAII (Michael W. Deem and Ramdas Pophale) SiO2 
 PCOD8305135
Probable space group: P 41 2 2
;
_chemical_formula_sum "Si O2"
_cell_formula_units_Z 36
_cell_length_a 11.638769
_cell_length_b 11.638769
_cell_length_c 12.305169
_cell_angle_alpha 90.000000
_cell_angle_beta 90.000000
_cell_angle_gamma 90.000000
_cell_volume 1666.869807
_symmetry_space_group_name_H-M "P 41 2 2"
_symmetry_group_IT_number 91
_symmetry_cell_setting 'tetragonal'
loop_
_space_group_symop_operation_xyz
x,y,z
-y,x,1/4+z
-x,-y,1/2+z
y,-x,3/4+z
x,-y,1/2-z
-x,y,-z
y,x,3/4-z
-y,-x,1/4-z
loop_
_atom_site_type_symbol
_atom_site_label
_atom_site_fract_x
_atom_site_fract_y
_atom_site_fract_z
Si Si1 0.742286 0.132932 0.451529
Si Si2 0.444282 0.750510 0.385012
Si Si3 0.695530 0.695530 0.875000
Si Si4 0.438270 0.258322 0.664008
Si Si5 0.939460 0.739490 0.116148
O O1 0.756595 0.252825 0.519422
O O2 0.625485 0.140903 0.378659
O O3 0.856260 0.146725 0.375961
O O4 0.745696 0.025479 0.531457
O O5 0.500000 0.740152 0.500000
O O6 0.544384 0.746737 0.293801
O O7 0.364053 0.638690 0.373289
O O8 0.378123 0.870615 0.380390
O O9 0.727117 0.562454 0.859388
O O10 0.000000 0.738941 0.000000
#
# Coordination Sequence:
#
# PCOD8305135 Si02
#       5
#     8   8   4   8   8
#     4  11  23  40  71  99 131 175 232 297 341 404
#     4  11  25  39  62  97 139 186 220 280 351 411
#     4  12  20  38  64 100 134 174 224 278 328 410
#     4  11  23  40  61 101 138 180 231 275 338 424
#     4  11  21  43  66  97 128 173 236 291 343 413
#
# _framework density 21.597367999999999
#
# number of rings (size 3 to 8) (size 9 to 14) (size 15 to 20)
#    0.000    0.889    6.667    1.333    3.111    3.556 
#    0.000    0.000    0.000   21.333    0.000    0.000 
#    0.000    0.000    0.000    0.000    0.000    0.000 
#
# Total GULP energy -446104.312073 kJ/mol
# GULP energy per Si atom -12391.786446 kJ/mol
# Density = 2.154821 g / cm^3
# Si number density = 21.597368 Si / 1000 Ang^3
#
#
#
# Elastic Constant Matrix: (Units=GPa)
#
#
# Indices 1 2 3 4 5 6 
#
# 1 111.9906 49.2802 37.7629 0.0000 0.0000 0.0000
# 2 49.2802 111.9906 37.7629 0.0000 0.0000 0.0000
# 3 37.7629 37.7629 104.9784 0.0000 0.0000 0.0000
# 4 0.0000 0.0000 0.0000 47.1007 0.0000 0.0000
# 5 0.0000 0.0000 0.0000 0.0000 47.1007 0.0000
# 6 0.0000 0.0000 0.0000 0.0000 0.0000 19.0510
#
#
#
# Elastic Compliance Matrix: (Units=1/GPa)
#
#
# Indices 1 2 3 4 5 6 
#
# 1 0.011702 -0.004245 -0.002682 0.000000 0.000000 0.000000
# 2 -0.004245 0.011702 -0.002682 0.000000 0.000000 0.000000
# 3 -0.002682 -0.002682 0.011456 0.000000 0.000000 0.000000
# 4 0.000000 0.000000 0.000000 0.021231 0.000000 0.000000
# 5 0.000000 0.000000 0.000000 0.000000 0.021231 0.000000
# 6 0.000000 0.000000 0.000000 0.000000 0.000000 0.052491
#
#
# Mechanical properties :
#
#
# Convention : Reuss Voigt Hill
#
# Bulk Modulus (GPa) = 63.93919 64.28572 64.11245
# Shear Modulus (GPa) = 32.41617 36.26075 34.33846
#
# Velocity S-wave (km/s) = 3.87839 4.10194 3.99173
# Velocity P-wave (km/s) = 7.05161 7.22943 7.14107
#
# Compressibility (1/GPa) = 0.01563986
#
# Stress axis : x y z
#
# Youngs Moduli (GPa) = 85.45804 85.45804 87.29347
#
# Poissons Ratio (x) = 0.36274 0.23416
# Poissons Ratio (y) = 0.36274 0.23416
# Poissons Ratio (z) = 0.22923 0.22923
#
# Static dielectric constant tensor:
#      x y z
#    x 4.075420 0.000000 0.000000 
#    y 0.000000 4.075420 0.000000 
#    z 0.000000 0.000000 4.209470 
# 
# 
# High freq. dielectric constant tensor:
#      x y z
#    x 1.841110 0.000000 0.000000 
#    y 0.000000 1.841110 0.000000 
#    z 0.000000 0.000000 1.863100 
# 
# From -- ./inp_files/15660.got.cif
#   From: 2010.03.12/outbox.cif.g09.slc.cpg/sg91_8_cif.got.tgz:15660.got - 2010.04.08 20:27:58.
