data_PCOD8305000
_publ_section_title
;
Structure prediction by ZEFSAII (Michael W. Deem and Ramdas Pophale) SiO2 
 PCOD8305000
Probable space group: P 41 2 2
;
_chemical_formula_sum "Si O2"
_cell_formula_units_Z 40
_cell_length_a 13.686747
_cell_length_b 13.686747
_cell_length_c 9.515864
_cell_angle_alpha 90.000000
_cell_angle_beta 90.000000
_cell_angle_gamma 90.000000
_cell_volume 1782.578669
_symmetry_space_group_name_H-M "P 41 2 2"
_symmetry_group_IT_number 91
_symmetry_cell_setting 'tetragonal'
loop_
_space_group_symop_operation_xyz
x,y,z
-y,x,1/4+z
-x,-y,1/2+z
y,-x,3/4+z
x,-y,1/2-z
-x,y,-z
y,x,3/4-z
-y,-x,1/4-z
loop_
_atom_site_type_symbol
_atom_site_label
_atom_site_fract_x
_atom_site_fract_y
_atom_site_fract_z
Si Si1 0.854161 0.208040 0.270571
Si Si2 0.077326 0.796976 0.229096
Si Si3 0.415341 0.792080 0.386646
Si Si4 0.413924 0.865435 0.077467
Si Si5 0.393792 0.337039 0.520286
O O1 0.798747 0.135106 0.375356
O O2 0.851487 0.319205 0.321943
O O3 0.965410 0.172860 0.250717
O O4 0.797070 0.202931 0.125000
O O5 0.125717 0.874284 0.125000
O O6 0.078751 0.688468 0.161890
O O7 0.500000 0.809987 0.500000
O O8 0.447836 0.829719 0.232686
O O9 0.390758 0.674674 0.384583
O O10 0.500000 0.930188 0.000000
O O11 0.405746 0.778849 0.957888
O O12 0.500000 0.389108 0.500000
O O13 0.335621 0.335621 0.375000
#
# Coordination Sequence:
#
# PCOD8305000 Si02
#       5
#     8   8   8   8   8
#     4  12  28  45  70 106 145 185 239 300 373 427
#     4  12  24  48  75 100 140 190 239 302 360 440
#     4  11  24  42  67 104 145 183 234 300 358 430
#     4  10  21  42  71  97 132 188 230 277 359 431
#     4   9  18  35  59  87 127 178 225 266 338 407
#
# _framework density 22.439402000000001
#
# number of rings (size 3 to 8) (size 9 to 14) (size 15 to 20)
#    0.000    1.200    4.000    1.800    2.800    5.600 
#    0.000    0.000    0.000    0.000    0.000    0.000 
#    0.000    0.000    0.000    0.000    0.000    0.000 
#
# Total GULP energy -495704.886931 kJ/mol
# GULP energy per Si atom -12392.622173 kJ/mol
# Density = 2.238833 g / cm^3
# Si number density = 22.439402 Si / 1000 Ang^3
#
#
#
# Elastic Constant Matrix: (Units=GPa)
#
#
# Indices 1 2 3 4 5 6 
#
# 1 104.4120 18.7722 31.8636 0.0000 0.0000 0.0000
# 2 18.7722 104.4104 31.8638 0.0000 0.0000 0.0000
# 3 31.8636 31.8638 125.0962 0.0000 0.0000 0.0000
# 4 0.0000 0.0000 0.0000 30.5220 0.0000 0.0000
# 5 0.0000 0.0000 0.0000 0.0000 30.5221 0.0000
# 6 0.0000 0.0000 0.0000 0.0000 0.0000 9.2765
#
#
#
# Elastic Compliance Matrix: (Units=1/GPa)
#
#
# Indices 1 2 3 4 5 6 
#
# 1 0.010513 -0.001163 -0.002382 0.000000 0.000000 0.000000
# 2 -0.001163 0.010514 -0.002382 0.000000 0.000000 0.000000
# 3 -0.002382 -0.002382 0.009207 0.000000 0.000000 0.000000
# 4 0.000000 0.000000 0.000000 0.032763 0.000000 0.000000
# 5 0.000000 0.000000 0.000000 0.000000 0.032763 0.000000
# 6 0.000000 0.000000 0.000000 0.000000 0.000000 0.107799
#
#
# Mechanical properties :
#
#
# Convention : Reuss Voigt Hill
#
# Bulk Modulus (GPa) = 54.40440 55.43531 54.91986
# Shear Modulus (GPa) = 22.56934 30.82540 26.69737
#
# Velocity S-wave (km/s) = 3.17486 3.71039 3.45302
# Velocity P-wave (km/s) = 6.14307 6.56613 6.35812
#
# Compressibility (1/GPa) = 0.01838087
#
# Stress axis : x y z
#
# Youngs Moduli (GPa) = 95.11672 95.11507 108.61193
#
# Poissons Ratio (x) = 0.11066 0.25867
# Poissons Ratio (y) = 0.11066 0.25867
# Poissons Ratio (z) = 0.22653 0.22653
#
# Static dielectric constant tensor:
#      x y z
#    x 4.205570 0.000000 0.000000 
#    y 0.000000 4.205580 0.000000 
#    z 0.000000 0.000000 4.062550 
# 
# 
# High freq. dielectric constant tensor:
#      x y z
#    x 1.880850 0.000000 0.000000 
#    y 0.000000 1.880850 0.000000 
#    z 0.000000 0.000000 1.877240 
# 
# From -- ./inp_files/2392.got.cif
#   From: 2010.03.12/outbox.cif.g09.slc.cpg/sg91_2_cif.got.tgz:2392.got - 2010.04.08 20:27:58.
