data_PCOD8305239
_publ_section_title
;
Structure prediction by ZEFSAII (Michael W. Deem and Ramdas Pophale) SiO2 
 PCOD8305239
Probable space group: P 41 21 2
;
_chemical_formula_sum "Si O2"
_cell_formula_units_Z 44
_cell_length_a 9.069273
_cell_length_b 9.069273
_cell_length_c 26.513933
_cell_angle_alpha 90.000000
_cell_angle_beta 90.000000
_cell_angle_gamma 90.000000
_cell_volume 2180.816401
_symmetry_space_group_name_H-M "P 41 21 2"
_symmetry_group_IT_number 92
_symmetry_cell_setting 'tetragonal'
loop_
_space_group_symop_operation_xyz
x,y,z
1/2-y,1/2+x,1/4+z
-x,-y,1/2+z
1/2+y,1/2-x,3/4+z
1/2+x,1/2-y,3/4-z
1/2-x,1/2+y,1/4-z
y,x,-z
-y,-x,1/2-z
loop_
_atom_site_type_symbol
_atom_site_label
_atom_site_fract_x
_atom_site_fract_y
_atom_site_fract_z
Si Si1 0.808156 0.483864 0.286739
Si Si2 0.239054 0.768977 0.861897
Si Si3 0.385188 0.972921 0.574858
Si Si4 0.839512 0.500187 0.612315
Si Si5 0.485880 0.514120 0.250000
Si Si6 0.575038 0.326584 0.651028
O O1 0.821788 0.324725 0.314107
O O2 0.881502 0.473206 0.232164
O O3 0.895151 0.609247 0.316827
O O4 0.638552 0.529331 0.280413
O O5 0.416253 0.784032 0.859030
O O6 0.188868 0.683652 0.913279
O O7 0.176724 0.935304 0.863390
O O8 0.555213 0.976270 0.589773
O O9 0.676682 0.455739 0.629131
O O10 0.839044 0.671070 0.596424
O O11 0.474373 0.641922 0.208426
#
# Coordination Sequence:
#
# PCOD8305239 Si02
#       6
#     8   8   8   8   4   8
#     4  11  20  40  64  97 121 168 207 269 316 393
#     4  10  19  38  63  93 125 160 216 259 316 377
#     4  10  20  37  62  93 124 165 205 262 315 377
#     4  10  25  40  64  87 134 161 219 259 322 370
#     4  12  22  38  72  88 132 166 216 250 342 382
#     4  11  23  42  62  94 125 178 205 271 315 394
#
# _framework density 20.175930000000001
#
# number of rings (size 3 to 8) (size 9 to 14) (size 15 to 20)
#    0.000    1.455    3.636    1.091    2.545    1.455 
#    0.000    1.818    8.000    0.000    0.000    0.000 
#    0.000    0.000    0.000    0.000    0.000    0.000 
#
# Total GULP energy -545489.663407 kJ/mol
# GULP energy per Si atom -12397.492350 kJ/mol
# Density = 2.013001 g / cm^3
# Si number density = 20.175930 Si / 1000 Ang^3
#
#
#
# Elastic Constant Matrix: (Units=GPa)
#
#
# Indices 1 2 3 4 5 6 
#
# 1 87.5741 33.8646 50.9177 0.0000 0.0000 0.0000
# 2 33.8646 87.5741 50.9177 0.0000 0.0000 0.0000
# 3 50.9177 50.9177 104.2323 0.0000 0.0000 0.0000
# 4 0.0000 0.0000 0.0000 32.3674 0.0000 0.0000
# 5 0.0000 0.0000 0.0000 0.0000 32.3674 0.0000
# 6 0.0000 0.0000 0.0000 0.0000 0.0000 34.3690
#
#
#
# Elastic Compliance Matrix: (Units=1/GPa)
#
#
# Indices 1 2 3 4 5 6 
#
# 1 0.016284 -0.002335 -0.006814 0.000000 0.000000 0.000000
# 2 -0.002335 0.016284 -0.006814 0.000000 0.000000 0.000000
# 3 -0.006814 -0.006814 0.016251 0.000000 0.000000 0.000000
# 4 0.000000 0.000000 0.000000 0.030895 0.000000 0.000000
# 5 0.000000 0.000000 0.000000 0.000000 0.030895 0.000000
# 6 0.000000 0.000000 0.000000 0.000000 0.000000 0.029096
#
#
# Mechanical properties :
#
#
# Convention : Reuss Voigt Hill
#
# Bulk Modulus (GPa) = 59.19718 61.19782 60.19750
# Shear Modulus (GPa) = 28.20689 29.39946 28.80317
#
# Velocity S-wave (km/s) = 3.74310 3.82141 3.78246
# Velocity P-wave (km/s) = 6.93435 7.06179 6.99836
#
# Compressibility (1/GPa) = 0.01689270
#
# Stress axis : x y z
#
# Youngs Moduli (GPa) = 61.41133 61.41133 61.53400
#
# Poissons Ratio (x) = 0.14340 0.41929
# Poissons Ratio (y) = 0.14340 0.41929
# Poissons Ratio (z) = 0.41845 0.41845
#
# Static dielectric constant tensor:
#      x y z
#    x 3.708260 0.000000 0.000000 
#    y 0.000000 3.708260 0.000000 
#    z 0.000000 0.000000 3.630250 
# 
# 
# High freq. dielectric constant tensor:
#      x y z
#    x 1.789990 0.000000 0.000000 
#    y 0.000000 1.789990 0.000000 
#    z 0.000000 0.000000 1.777780 
# 
# From -- ./inp_files/4441.got.cif
#   From: 2010.03.12/outbox.cif.g09.slc.cpg/sg92_3_cif.got.tgz:4441.got - 2010.04.08 20:41:11.
