data_PCOD8305750
_publ_section_title
;
Structure prediction by ZEFSAII (Michael W. Deem and Ramdas Pophale) SiO2 
 PCOD8305750
Probable space group: P 42 21 2
;
_chemical_formula_sum "Si O2"
_cell_formula_units_Z 28
_cell_length_a 8.052378
_cell_length_b 8.052378
_cell_length_c 21.842305
_cell_angle_alpha 90.000000
_cell_angle_beta 90.000000
_cell_angle_gamma 90.000000
_cell_volume 1416.272343
_symmetry_space_group_name_H-M "P 42 21 2"
_symmetry_group_IT_number 94
_symmetry_cell_setting 'tetragonal'
loop_
_space_group_symop_operation_xyz
x,y,z
1/2-y,1/2+x,1/2+z
-x,-y,z
1/2+y,1/2-x,1/2+z
1/2+x,1/2-y,1/2-z
1/2-x,1/2+y,1/2-z
y,x,-z
-y,-x,-z
loop_
_atom_site_type_symbol
_atom_site_label
_atom_site_fract_x
_atom_site_fract_y
_atom_site_fract_z
Si Si1 0.667484 0.395105 0.567648
Si Si2 0.000000 0.500000 0.130052
Si Si3 0.176809 0.938974 0.287104
Si Si4 0.914247 0.672667 0.824233
O O1 0.500000 0.500000 0.573085
O O2 0.682134 0.317866 0.500000
O O3 0.644724 0.238321 0.610785
O O4 0.833986 0.497890 0.587158
O O5 0.833672 0.498824 0.172037
O O6 0.152061 0.744397 0.281936
O O7 0.200392 0.975284 0.215008
O O8 0.000000 0.000000 0.313742
O O9 0.000000 0.500000 0.836761
#
# Coordination Sequence:
#
# PCOD8305750 Si02
#       4
#     8   4   8   8
#     4  10  24  43  66  91 123 176 215 262 315 382
#     4  10  24  44  60  94 136 158 218 268 318 386
#     4  11  23  38  62  96 128 165 204 264 333 381
#     4  11  23  38  64  94 128 165 209 267 324 389
#
# _framework density 19.770206000000002
#
# number of rings (size 3 to 8) (size 9 to 14) (size 15 to 20)
#    0.000    1.429    1.429    2.571   14.000    0.000 
#    0.000    0.000    0.000    7.714    0.000    0.000 
#    0.000    0.000    0.000    0.000    0.000    0.000 
#
# Total GULP energy -346956.631771 kJ/mol
# GULP energy per Si atom -12391.308278 kJ/mol
# Density = 1.972521 g / cm^3
# Si number density = 19.770206 Si / 1000 Ang^3
#
#
#
# Elastic Constant Matrix: (Units=GPa)
#
#
# Indices 1 2 3 4 5 6 
#
# 1 131.3939 48.7203 44.7138 0.0000 0.0000 0.0000
# 2 48.7203 131.3939 44.7138 0.0000 0.0000 0.0000
# 3 44.7138 44.7138 107.0987 0.0000 0.0000 0.0000
# 4 0.0000 0.0000 0.0000 22.0238 0.0000 0.0000
# 5 0.0000 0.0000 0.0000 0.0000 22.0238 0.0000
# 6 0.0000 0.0000 0.0000 0.0000 0.0000 36.7076
#
#
#
# Elastic Compliance Matrix: (Units=1/GPa)
#
#
# Indices 1 2 3 4 5 6 
#
# 1 0.009550 -0.002546 -0.002924 0.000000 0.000000 0.000000
# 2 -0.002546 0.009550 -0.002924 0.000000 0.000000 0.000000
# 3 -0.002924 -0.002924 0.011779 0.000000 0.000000 0.000000
# 4 0.000000 0.000000 0.000000 0.045405 0.000000 0.000000
# 5 0.000000 0.000000 0.000000 0.000000 0.045405 0.000000
# 6 0.000000 0.000000 0.000000 0.000000 0.000000 0.027242
#
#
# Mechanical properties :
#
#
# Convention : Reuss Voigt Hill
#
# Bulk Modulus (GPa) = 70.97187 71.79801 71.38494
# Shear Modulus (GPa) = 29.33984 31.60027 30.47006
#
# Velocity S-wave (km/s) = 3.85651 4.00231 3.93008
# Velocity P-wave (km/s) = 7.47038 7.59955 7.53524
#
# Compressibility (1/GPa) = 0.01409009
#
# Stress axis : x y z
#
# Youngs Moduli (GPa) = 104.71402 104.71402 84.89808
#
# Poissons Ratio (x) = 0.26660 0.24825
# Poissons Ratio (y) = 0.26660 0.24825
# Poissons Ratio (z) = 0.30620 0.30620
#
# Static dielectric constant tensor:
#      x y z
#    x 3.783680 0.000000 0.000000 
#    y 0.000000 3.783680 0.000000 
#    z 0.000000 0.000000 3.692880 
# 
# 
# High freq. dielectric constant tensor:
#      x y z
#    x 1.781880 0.000000 0.000000 
#    y 0.000000 1.781880 0.000000 
#    z 0.000000 0.000000 1.766330 
# 
# From -- ./inp_files/4302.got.cif
#   From: 2010.03.12/outbox.cif.g09.slc.cpg/sg94_3_cif.got.tgz:4302.got - 2010.04.08 20:48:32.
