data_PCOD8305983
_publ_section_title
;
Structure prediction by ZEFSAII (Michael W. Deem and Ramdas Pophale) SiO2 
 PCOD8305983
Probable space group: P 43 21 2
;
_chemical_formula_sum "Si O2"
_cell_formula_units_Z 60
_cell_length_a 11.422325
_cell_length_b 11.422325
_cell_length_c 20.364455
_cell_angle_alpha 90.000000
_cell_angle_beta 90.000000
_cell_angle_gamma 90.000000
_cell_volume 2656.940433
_symmetry_space_group_name_H-M "P 43 21 2"
_symmetry_group_IT_number 96
_symmetry_cell_setting 'tetragonal'
loop_
_space_group_symop_operation_xyz
x,y,z
1/2-y,1/2+x,3/4+z
-x,-y,1/2+z
1/2+y,1/2-x,1/4+z
1/2+x,1/2-y,1/4-z
1/2-x,1/2+y,3/4-z
y,x,-z
-y,-x,1/2-z
loop_
_atom_site_type_symbol
_atom_site_label
_atom_site_fract_x
_atom_site_fract_y
_atom_site_fract_z
Si Si1 0.299455 0.997530 0.337760
Si Si2 0.599978 0.391123 0.825233
Si Si3 0.889339 0.110662 0.750000
Si Si4 0.095758 0.721014 0.725426
Si Si5 0.453701 0.761597 0.643665
Si Si6 0.519964 0.384413 0.369868
Si Si7 0.508465 0.165294 0.893255
Si Si8 0.532696 0.818899 0.783312
O O1 0.229681 0.902150 0.292939
O O2 0.390288 0.931910 0.385591
O O3 0.214720 0.076604 0.382348
O O4 0.367400 0.083350 0.288377
O O5 0.632140 0.367861 0.750000
O O6 0.508157 0.495364 0.832791
O O7 0.537007 0.273239 0.847324
O O8 0.996300 0.105685 0.801905
O O9 0.210078 0.789923 0.750000
O O10 0.127071 0.592579 0.700285
O O11 0.039679 0.785018 0.663431
O O12 0.997410 0.710497 0.782054
O O13 0.358205 0.656726 0.646798
O O14 0.530839 0.770777 0.709329
O O15 0.389303 0.881963 0.625159
O O16 0.441537 0.282348 0.336904
#
# Coordination Sequence:
#
# PCOD8305983 Si02
#       8
#     8   8   4   8   8   8   8   8
#     4  11  27  48  74 106 144 196 245 302 366 444
#     4  11  27  46  73 105 150 193 243 301 366 447
#     4  10  28  48  74 106 150 200 246 302 362 452
#     4  11  24  43  74 108 149 189 243 307 368 431
#     4  11  24  44  77 104 147 189 242 313 365 441
#     4  11  25  47  71 110 147 192 247 300 370 438
#     4  11  26  47  71 110 143 191 245 299 373 436
#     4  11  24  46  72 108 143 188 250 302 368 436
#
# _framework density 22.582366
#
# number of rings (size 3 to 8) (size 9 to 14) (size 15 to 20)
#    0.000    1.067    1.333    3.600   13.067    0.000 
#    2.400    0.000    0.000    0.000    0.000    0.000 
#    0.000    0.000    0.000    0.000    0.000    0.000 
#
# Total GULP energy -743978.775297 kJ/mol
# GULP energy per Si atom -12399.646255 kJ/mol
# Density = 2.253097 g / cm^3
# Si number density = 22.582366 Si / 1000 Ang^3
#
#
#
# Elastic Constant Matrix: (Units=GPa)
#
#
# Indices 1 2 3 4 5 6 
#
# 1 117.9428 42.4426 50.9195 0.0000 0.0000 0.0000
# 2 42.4426 117.9436 50.9197 0.0000 0.0000 0.0000
# 3 50.9195 50.9197 160.2693 0.0000 0.0000 0.0000
# 4 0.0000 0.0000 0.0000 35.1102 0.0000 0.0000
# 5 0.0000 0.0000 0.0000 0.0000 35.1100 0.0000
# 6 0.0000 0.0000 0.0000 0.0000 0.0000 31.1841
#
#
#
# Elastic Compliance Matrix: (Units=1/GPa)
#
#
# Indices 1 2 3 4 5 6 
#
# 1 0.010528 -0.002717 -0.002482 0.000000 0.000000 0.000000
# 2 -0.002717 0.010528 -0.002482 0.000000 0.000000 0.000000
# 3 -0.002482 -0.002482 0.007816 0.000000 0.000000 0.000000
# 4 0.000000 0.000000 0.000000 0.028482 0.000000 0.000000
# 5 0.000000 0.000000 0.000000 0.000000 0.028482 0.000000
# 6 0.000000 0.000000 0.000000 0.000000 0.000000 0.032068
#
#
# Mechanical properties :
#
#
# Convention : Reuss Voigt Hill
#
# Bulk Modulus (GPa) = 74.01120 76.07992 75.04556
# Shear Modulus (GPa) = 36.29303 37.07245 36.68274
#
# Velocity S-wave (km/s) = 4.01326 4.05613 4.03475
# Velocity P-wave (km/s) = 7.37022 7.46320 7.41685
#
# Compressibility (1/GPa) = 0.01351147
#
# Stress axis : x y z
#
# Youngs Moduli (GPa) = 94.98633 94.98703 127.93721
#
# Poissons Ratio (x) = 0.25809 0.31748
# Poissons Ratio (y) = 0.25809 0.31748
# Poissons Ratio (z) = 0.23571 0.23571
#
# Static dielectric constant tensor:
#      x y z
#    x 4.087060 0.000000 0.000000 
#    y 0.000000 4.087050 0.000000 
#    z 0.000000 0.000000 4.135520 
# 
# 
# High freq. dielectric constant tensor:
#      x y z
#    x 1.893370 0.000000 0.000000 
#    y 0.000000 1.893370 0.000000 
#    z 0.000000 0.000000 1.899530 
# 
# From -- ./inp_files/3635.got.cif
#   From: 2010.03.12/outbox.cif.g09.slc.cpg/sg96_2_cif.got.tgz:3635.got - 2010.04.08 20:56:49.
