data_PCOD8305253
_publ_section_title
;
Structure prediction by ZEFSAII (Michael W. Deem and Ramdas Pophale) SiO2 
 PCOD8305253
Probable space group: P 41 21 2
;
_chemical_formula_sum "Si O2"
_cell_formula_units_Z 64
_cell_length_a 11.562565
_cell_length_b 11.562565
_cell_length_c 26.858870
_cell_angle_alpha 90.000000
_cell_angle_beta 90.000000
_cell_angle_gamma 90.000000
_cell_volume 3590.840473
_symmetry_space_group_name_H-M "P 41 21 2"
_symmetry_group_IT_number 92
_symmetry_cell_setting 'tetragonal'
loop_
_space_group_symop_operation_xyz
x,y,z
1/2-y,1/2+x,1/4+z
-x,-y,1/2+z
1/2+y,1/2-x,3/4+z
1/2+x,1/2-y,3/4-z
1/2-x,1/2+y,1/4-z
y,x,-z
-y,-x,1/2-z
loop_
_atom_site_type_symbol
_atom_site_label
_atom_site_fract_x
_atom_site_fract_y
_atom_site_fract_z
Si Si1 0.281283 0.300072 0.556149
Si Si2 0.558658 0.021052 0.626324
Si Si3 0.474488 0.417735 0.200609
Si Si4 0.035817 0.328988 0.435356
Si Si5 0.255800 0.077292 0.937816
Si Si6 0.612122 0.594577 0.148901
Si Si7 0.476648 0.844571 0.702280
Si Si8 0.944874 0.750596 0.450813
O O1 0.323667 0.323667 0.500000
O O2 0.270715 0.162816 0.566666
O O3 0.372038 0.364721 0.591967
O O4 0.156067 0.355742 0.564922
O O5 0.556490 0.929726 0.670942
O O6 0.647944 0.979520 0.585166
O O7 0.432100 0.032434 0.603545
O O8 0.599414 0.142534 0.648774
O O9 0.546637 0.453364 0.250000
O O10 0.530599 0.481119 0.152401
O O11 0.477612 0.282881 0.191925
O O12 0.341192 0.450925 0.206766
O O13 0.010929 0.378714 0.490045
O O14 0.935934 0.236050 0.423045
O O15 0.165859 0.181563 0.929250
O O16 0.197160 0.951661 0.928910
O O17 0.302073 0.080239 0.994521
#
# Coordination Sequence:
#
# PCOD8305253 Si02
#       8
#     8   8   8   8   8   8   8   8
#     4  10  20  34  55  83 122 152 182 232 293 347
#     4  12  24  34  58  87 121 148 182 243 297 339
#     4  11  18  37  64  81 104 150 204 235 265 344
#     4  11  20  35  55  88 119 146 189 232 290 347
#     4  10  21  41  59  81 111 152 197 235 280 338
#     4  11  18  35  62  83 110 149 191 235 282 338
#     4  11  21  34  56  88 116 148 186 236 288 340
#     4  10  22  40  59  79 108 157 199 235 277 334
#
# _framework density 17.823125000000001
#
# number of rings (size 3 to 8) (size 9 to 14) (size 15 to 20)
#    0.000    1.250    7.500    1.125    1.750    0.000 
#    0.000    0.000    0.000    6.000    0.000    0.000 
#    0.000    0.000    0.000    0.000    0.000    0.000 
#
# Total GULP energy -793585.496413 kJ/mol
# GULP energy per Si atom -12399.773381 kJ/mol
# Density = 1.778256 g / cm^3
# Si number density = 17.823125 Si / 1000 Ang^3
#
#
#
# Elastic Constant Matrix: (Units=GPa)
#
#
# Indices 1 2 3 4 5 6 
#
# 1 71.5947 22.6376 37.2024 0.0000 0.0000 0.0000
# 2 22.6376 71.5948 37.2023 0.0000 0.0000 0.0000
# 3 37.2024 37.2023 93.6466 0.0000 0.0000 0.0000
# 4 0.0000 0.0000 0.0000 32.0073 0.0000 0.0000
# 5 0.0000 0.0000 0.0000 0.0000 32.0072 0.0000
# 6 0.0000 0.0000 0.0000 0.0000 0.0000 18.0887
#
#
#
# Elastic Compliance Matrix: (Units=1/GPa)
#
#
# Indices 1 2 3 4 5 6 
#
# 1 0.017944 -0.002482 -0.006143 0.000000 0.000000 0.000000
# 2 -0.002482 0.017944 -0.006143 0.000000 0.000000 0.000000
# 3 -0.006143 -0.006143 0.015559 0.000000 0.000000 0.000000
# 4 0.000000 0.000000 0.000000 0.031243 0.000000 0.000000
# 5 0.000000 0.000000 0.000000 0.000000 0.031243 0.000000
# 6 0.000000 0.000000 0.000000 0.000000 0.000000 0.055283
#
#
# Mechanical properties :
#
#
# Convention : Reuss Voigt Hill
#
# Bulk Modulus (GPa) = 45.63508 47.88009 46.75758
# Shear Modulus (GPa) = 24.26544 25.74022 25.00283
#
# Velocity S-wave (km/s) = 3.69380 3.80439 3.74950
# Velocity P-wave (km/s) = 6.62210 6.79854 6.71090
#
# Compressibility (1/GPa) = 0.02191297
#
# Stress axis : x y z
#
# Youngs Moduli (GPa) = 55.72860 55.72869 64.27203
#
# Poissons Ratio (x) = 0.13832 0.39479
# Poissons Ratio (y) = 0.13832 0.39479
# Poissons Ratio (z) = 0.34232 0.34232
#
# Static dielectric constant tensor:
#      x y z
#    x 3.245670 0.000000 0.000000 
#    y 0.000000 3.245670 0.000000 
#    z 0.000000 0.000000 3.377990 
# 
# 
# High freq. dielectric constant tensor:
#      x y z
#    x 1.682520 0.000000 0.000000 
#    y 0.000000 1.682520 0.000000 
#    z 0.000000 0.000000 1.691520 
# 
# From -- ./inp_files/3985.got.cif
#   From: 2010.03.12/outbox.cif.g09.slc.cpg/sg92_2_cif.got.tgz:3985.got - 2010.04.08 20:41:11.
