data_PCOD8305656
_publ_section_title
;
Structure prediction by ZEFSAII (Michael W. Deem and Ramdas Pophale) SiO2 
 PCOD8305656
Probable space group: P 42 21 2
;
_chemical_formula_sum "Si O2"
_cell_formula_units_Z 48
_cell_length_a 9.217912
_cell_length_b 9.217912
_cell_length_c 28.348317
_cell_angle_alpha 90.000000
_cell_angle_beta 90.000000
_cell_angle_gamma 90.000000
_cell_volume 2408.753707
_symmetry_space_group_name_H-M "P 42 21 2"
_symmetry_group_IT_number 94
_symmetry_cell_setting 'tetragonal'
loop_
_space_group_symop_operation_xyz
x,y,z
1/2-y,1/2+x,1/2+z
-x,-y,z
1/2+y,1/2-x,1/2+z
1/2+x,1/2-y,1/2-z
1/2-x,1/2+y,1/2-z
y,x,-z
-y,-x,-z
loop_
_atom_site_type_symbol
_atom_site_label
_atom_site_fract_x
_atom_site_fract_y
_atom_site_fract_z
Si Si1 0.361465 0.762447 0.066381
Si Si2 0.170186 0.520287 0.372820
Si Si3 0.476185 0.835657 0.968784
Si Si4 0.415369 0.352271 0.796907
Si Si5 0.667411 0.652029 0.901446
Si Si6 0.420854 0.847716 0.727905
O O1 0.222369 0.677273 0.048815
O O2 0.474716 0.660116 0.095037
O O3 0.277965 0.882708 0.097363
O O4 0.466848 0.828024 0.025517
O O5 0.205113 0.666029 0.401452
O O6 0.236565 0.528736 0.320061
O O7 0.000000 0.500000 0.366258
O O8 0.597910 0.731177 0.946586
O O9 0.500000 0.000000 0.951914
O O10 0.500000 0.500000 0.790140
O O11 0.406097 0.306110 0.851841
O O12 0.521627 0.236781 0.773039
O O13 0.255096 0.362296 0.773042
O O14 0.500000 0.000000 0.730711
#
# Coordination Sequence:
#
# PCOD8305656 Si02
#       6
#     8   8   8   8   8   8
#     4  10  20  37  59  80 109 149 186 227 282 336
#     4   8  17  36  59  79 104 144 186 223 273 336
#     4  11  22  34  53  85 116 143 183 232 278 330
#     4  11  22  37  57  84 114 146 188 235 286 343
#     4  10  20  36  59  83 107 141 186 233 275 325
#     4  10  21  37  58  81 109 148 190 233 283 339
#
# _framework density 19.927316000000001
#
# number of rings (size 3 to 8) (size 9 to 14) (size 15 to 20)
#    0.000    2.000    0.000    5.500    0.000    3.333 
#    0.000    4.167    0.000    2.000    0.000    0.000 
#    0.000    0.000    0.000    0.000    0.000    0.000 
#
# Total GULP energy -594816.874980 kJ/mol
# GULP energy per Si atom -12392.018229 kJ/mol
# Density = 1.988196 g / cm^3
# Si number density = 19.927316 Si / 1000 Ang^3
#
#
#
# Elastic Constant Matrix: (Units=GPa)
#
#
# Indices 1 2 3 4 5 6 
#
# 1 93.7039 43.1338 43.5027 0.0000 0.0000 0.0000
# 2 43.1338 93.7039 43.5027 0.0000 0.0000 0.0000
# 3 43.5027 43.5027 108.4679 0.0000 0.0000 0.0000
# 4 0.0000 0.0000 0.0000 27.3361 0.0000 0.0000
# 5 0.0000 0.0000 0.0000 0.0000 27.3361 0.0000
# 6 0.0000 0.0000 0.0000 0.0000 0.0000 21.5908
#
#
#
# Elastic Compliance Matrix: (Units=1/GPa)
#
#
# Indices 1 2 3 4 5 6 
#
# 1 0.014792 -0.004983 -0.003934 0.000000 0.000000 0.000000
# 2 -0.004983 0.014792 -0.003934 0.000000 0.000000 0.000000
# 3 -0.003934 -0.003934 0.012375 0.000000 0.000000 0.000000
# 4 0.000000 0.000000 0.000000 0.036582 0.000000 0.000000
# 5 0.000000 0.000000 0.000000 0.000000 0.036582 0.000000
# 6 0.000000 0.000000 0.000000 0.000000 0.000000 0.046316
#
#
# Mechanical properties :
#
#
# Convention : Reuss Voigt Hill
#
# Bulk Modulus (GPa) = 61.51181 61.79490 61.65335
# Shear Modulus (GPa) = 25.96600 26.30168 26.13384
#
# Velocity S-wave (km/s) = 3.61367 3.63696 3.62533
# Velocity P-wave (km/s) = 6.95317 6.97955 6.96637
#
# Compressibility (1/GPa) = 0.01625704
#
# Stress axis : x y z
#
# Youngs Moduli (GPa) = 67.60415 67.60415 80.80757
#
# Poissons Ratio (x) = 0.33684 0.31791
# Poissons Ratio (y) = 0.33684 0.31791
# Poissons Ratio (z) = 0.26597 0.26597
#
# Static dielectric constant tensor:
#      x y z
#    x 3.606890 0.000000 0.000000 
#    y 0.000000 3.606890 0.000000 
#    z 0.000000 0.000000 3.961290 
# 
# 
# High freq. dielectric constant tensor:
#      x y z
#    x 1.763960 0.000000 0.000000 
#    y 0.000000 1.763960 0.000000 
#    z 0.000000 0.000000 1.790330 
# 
# From -- ./inp_files/5565.got.cif
#   From: 2010.03.12/outbox.cif.g09.slc.cpg/sg94_3_cif.got.tgz:5565.got - 2010.04.08 20:48:32.
