data_PCOD8305465
_publ_section_title
;
Structure prediction by ZEFSAII (Michael W. Deem and Ramdas Pophale) SiO2 
 PCOD8305465
Probable space group: P 41 21 2
;
_chemical_formula_sum "Si O2"
_cell_formula_units_Z 48
_cell_length_a 7.793390
_cell_length_b 7.793390
_cell_length_c 34.670878
_cell_angle_alpha 90.000000
_cell_angle_beta 90.000000
_cell_angle_gamma 90.000000
_cell_volume 2105.802610
_symmetry_space_group_name_H-M "P 41 21 2"
_symmetry_group_IT_number 92
_symmetry_cell_setting 'tetragonal'
loop_
_space_group_symop_operation_xyz
x,y,z
1/2-y,1/2+x,1/4+z
-x,-y,1/2+z
1/2+y,1/2-x,3/4+z
1/2+x,1/2-y,3/4-z
1/2-x,1/2+y,1/4-z
y,x,-z
-y,-x,1/2-z
loop_
_atom_site_type_symbol
_atom_site_label
_atom_site_fract_x
_atom_site_fract_y
_atom_site_fract_z
Si Si1 0.433539 0.637745 0.793511
Si Si2 0.658042 0.669749 0.456409
Si Si3 0.839077 0.838972 0.660863
Si Si4 0.301803 0.526878 0.170498
Si Si5 0.257685 0.180783 0.329643
Si Si6 0.616941 0.738655 0.912731
O O1 0.432790 0.567211 0.750000
O O2 0.458172 0.494123 0.826269
O O3 0.595968 0.763141 0.799144
O O4 0.246434 0.716840 0.802423
O O5 0.618727 0.618727 0.500000
O O6 0.478671 0.747969 0.439929
O O7 0.828214 0.788024 0.454048
O O8 0.709688 0.510485 0.430450
O O9 0.815378 0.643117 0.675159
O O10 0.757787 0.873643 0.618994
O O11 0.037561 0.875305 0.657098
O O12 0.331005 0.173060 0.372811
O O13 0.080663 0.293498 0.327023
#
# Coordination Sequence:
#
# PCOD8305465 Si02
#       6
#     8   8   8   8   8   8
#     4  12  27  45  67 108 140 184 238 294 362 421
#     4  11  26  46  66 101 145 186 229 293 365 419
#     4  11  24  43  72 104 134 185 239 291 350 426
#     4  12  24  44  72 100 142 180 235 292 351 427
#     4  11  23  45  75  99 140 185 237 291 348 429
#     4  11  23  45  74 100 137 188 240 287 350 425
#
# _framework density 22.794156999999998
#
# number of rings (size 3 to 8) (size 9 to 14) (size 15 to 20)
#    0.000    0.667    5.000    2.500    2.333    4.000 
#    3.000    0.000    0.000    0.000    0.000    0.000 
#    0.000    0.000    0.000    0.000    0.000    0.000 
#
# Total GULP energy -594969.934284 kJ/mol
# GULP energy per Si atom -12395.206964 kJ/mol
# Density = 2.274228 g / cm^3
# Si number density = 22.794157 Si / 1000 Ang^3
#
#
#
# Elastic Constant Matrix: (Units=GPa)
#
#
# Indices 1 2 3 4 5 6 
#
# 1 81.2752 17.0240 17.9295 0.0000 0.0000 0.0000
# 2 17.0240 81.2739 17.9287 0.0000 0.0000 0.0000
# 3 17.9295 17.9287 68.4179 0.0000 0.0000 0.0000
# 4 0.0000 0.0000 0.0000 22.1661 0.0000 0.0000
# 5 0.0000 0.0000 0.0000 0.0000 22.1663 0.0000
# 6 0.0000 0.0000 0.0000 0.0000 0.0000 30.1769
#
#
#
# Elastic Compliance Matrix: (Units=1/GPa)
#
#
# Indices 1 2 3 4 5 6 
#
# 1 0.013406 -0.002158 -0.002948 0.000000 0.000000 0.000000
# 2 -0.002158 0.013406 -0.002948 0.000000 0.000000 0.000000
# 3 -0.002948 -0.002948 0.016161 0.000000 0.000000 0.000000
# 4 0.000000 0.000000 0.000000 0.045114 0.000000 0.000000
# 5 0.000000 0.000000 0.000000 0.000000 0.045113 0.000000
# 6 0.000000 0.000000 0.000000 0.000000 0.000000 0.033138
#
#
# Mechanical properties :
#
#
# Convention : Reuss Voigt Hill
#
# Bulk Modulus (GPa) = 37.22037 37.41460 37.31748
# Shear Modulus (GPa) = 26.12318 26.77417 26.44868
#
# Velocity S-wave (km/s) = 3.38900 3.43097 3.41005
# Velocity P-wave (km/s) = 5.62834 5.66967 5.64904
#
# Compressibility (1/GPa) = 0.02686701
#
# Stress axis : x y z
#
# Youngs Moduli (GPa) = 74.59266 74.59181 61.87757
#
# Poissons Ratio (x) = 0.16096 0.18240
# Poissons Ratio (y) = 0.16096 0.18239
# Poissons Ratio (z) = 0.21988 0.21987
#
# Static dielectric constant tensor:
#      x y z
#    x 4.655780 0.000000 0.000000 
#    y 0.000000 4.655780 0.000000 
#    z 0.000000 0.000000 3.907200 
# 
# 
# High freq. dielectric constant tensor:
#      x y z
#    x 1.907810 0.000000 0.000000 
#    y 0.000000 1.907800 0.000000 
#    z 0.000000 0.000000 1.886450 
# 
# From -- ./inp_files/4487.got.cif
#   From: 2010.03.12/outbox.cif.g09.slc.cpg/sg92_3_cif.got.tgz:4487.got - 2010.04.08 20:41:11.
