data_PCOD8305796
_publ_section_title
;
Structure prediction by ZEFSAII (Michael W. Deem and Ramdas Pophale) SiO2 
 PCOD8305796
Probable space group: P 42 21 2
;
_chemical_formula_sum "Si O2"
_cell_formula_units_Z 32
_cell_length_a 8.440260
_cell_length_b 8.440260
_cell_length_c 18.972066
_cell_angle_alpha 90.000000
_cell_angle_beta 90.000000
_cell_angle_gamma 90.000000
_cell_volume 1351.531827
_symmetry_space_group_name_H-M "P 42 21 2"
_symmetry_group_IT_number 94
_symmetry_cell_setting 'tetragonal'
loop_
_space_group_symop_operation_xyz
x,y,z
1/2-y,1/2+x,1/2+z
-x,-y,z
1/2+y,1/2-x,1/2+z
1/2+x,1/2-y,1/2-z
1/2-x,1/2+y,1/2-z
y,x,-z
-y,-x,-z
loop_
_atom_site_type_symbol
_atom_site_label
_atom_site_fract_x
_atom_site_fract_y
_atom_site_fract_z
Si Si1 0.117016 0.867222 0.700781
Si Si2 0.672860 0.797472 0.570615
Si Si3 0.371951 0.122628 0.309981
Si Si4 0.832384 0.311482 0.430426
O O1 0.245281 0.938744 0.755791
O O2 0.202621 0.781335 0.635131
O O3 0.997427 0.739360 0.735433
O O4 0.000000 0.000000 0.671073
O O5 0.700030 0.700030 0.500000
O O6 0.786877 0.724053 0.629625
O O7 0.488834 0.781461 0.590737
O O8 0.712120 0.980807 0.557960
O O9 0.500000 0.000000 0.342585
O O10 0.740051 0.259950 0.500000
#
# Coordination Sequence:
#
# PCOD8305796 Si02
#       4
#     8   8   8   8
#     4  12  25  47  74 105 144 198 247 302 374 451
#     4  11  26  47  72 106 144 189 249 306 375 452
#     4  12  27  45  75 110 152 193 249 311 378 448
#     4  11  26  47  75 102 143 193 249 305 372 447
#
# _framework density 23.676836000000002
#
# number of rings (size 3 to 8) (size 9 to 14) (size 15 to 20)
#    0.000    0.500    2.500    4.500   10.500    0.500 
#    0.000    0.000    0.000    0.000    0.000    0.000 
#    0.000    0.000    0.000    0.000    0.000    0.000 
#
# Total GULP energy -396591.795644 kJ/mol
# GULP energy per Si atom -12393.493614 kJ/mol
# Density = 2.362295 g / cm^3
# Si number density = 23.676836 Si / 1000 Ang^3
#
#
#
# Elastic Constant Matrix: (Units=GPa)
#
#
# Indices 1 2 3 4 5 6 
#
# 1 128.5466 86.7495 45.2455 0.0000 0.0000 0.0000
# 2 86.7495 128.5464 45.2439 0.0000 0.0000 0.0000
# 3 45.2455 45.2439 100.5100 0.0000 0.0000 0.0000
# 4 0.0000 0.0000 0.0000 34.8051 0.0000 0.0000
# 5 0.0000 0.0000 0.0000 0.0000 34.8052 0.0000
# 6 0.0000 0.0000 0.0000 0.0000 0.0000 51.2648
#
#
#
# Elastic Compliance Matrix: (Units=1/GPa)
#
#
# Indices 1 2 3 4 5 6 
#
# 1 0.014827 -0.009098 -0.002579 0.000000 0.000000 0.000000
# 2 -0.009098 0.014827 -0.002579 0.000000 0.000000 0.000000
# 3 -0.002579 -0.002579 0.012271 0.000000 0.000000 0.000000
# 4 0.000000 0.000000 0.000000 0.028731 0.000000 0.000000
# 5 0.000000 0.000000 0.000000 0.000000 0.028731 0.000000
# 6 0.000000 0.000000 0.000000 0.000000 0.000000 0.019507
#
#
# Mechanical properties :
#
#
# Convention : Reuss Voigt Hill
#
# Bulk Modulus (GPa) = 74.55360 79.12009 76.83684
# Shear Modulus (GPa) = 32.92146 36.19928 34.56037
#
# Velocity S-wave (km/s) = 3.73292 3.91434 3.82471
# Velocity P-wave (km/s) = 7.08067 7.34293 7.21300
#
# Compressibility (1/GPa) = 0.01341317
#
# Stress axis : x y z
#
# Youngs Moduli (GPa) = 67.44464 67.44544 81.49355
#
# Poissons Ratio (x) = 0.61364 0.21017
# Poissons Ratio (y) = 0.61363 0.21013
# Poissons Ratio (z) = 0.17394 0.17391
#
# Static dielectric constant tensor:
#      x y z
#    x 4.573270 0.000000 0.000000 
#    y 0.000000 4.573270 0.000000 
#    z 0.000000 0.000000 4.040350 
# 
# 
# High freq. dielectric constant tensor:
#      x y z
#    x 1.955870 0.000000 0.000000 
#    y 0.000000 1.955870 0.000000 
#    z 0.000000 0.000000 1.921310 
# 
# From -- ./inp_files/4398.got.cif
#   From: 2010.03.12/outbox.cif.g09.slc.cpg/sg94_3_cif.got.tgz:4398.got - 2010.04.08 20:48:32.
