data_PCOD8305500
_publ_section_title
;
Structure prediction by ZEFSAII (Michael W. Deem and Ramdas Pophale) SiO2 
 PCOD8305500
Probable space group: P 41 21 2
;
_chemical_formula_sum "Si O2"
_cell_formula_units_Z 40
_cell_length_a 13.583134
_cell_length_b 13.583134
_cell_length_c 8.861411
_cell_angle_alpha 90.000000
_cell_angle_beta 90.000000
_cell_angle_gamma 90.000000
_cell_volume 1634.943881
_symmetry_space_group_name_H-M "P 41 21 2"
_symmetry_group_IT_number 92
_symmetry_cell_setting 'tetragonal'
loop_
_space_group_symop_operation_xyz
x,y,z
1/2-y,1/2+x,1/4+z
-x,-y,1/2+z
1/2+y,1/2-x,3/4+z
1/2+x,1/2-y,3/4-z
1/2-x,1/2+y,1/4-z
y,x,-z
-y,-x,1/2-z
loop_
_atom_site_type_symbol
_atom_site_label
_atom_site_fract_x
_atom_site_fract_y
_atom_site_fract_z
Si Si1 0.973738 0.238387 0.510258
Si Si2 0.610354 0.270490 0.516748
Si Si3 0.190353 0.609368 0.990146
Si Si4 0.589738 0.410263 0.750000
Si Si5 0.930478 0.069523 0.750000
Si Si6 0.452281 0.095216 0.794413
O O1 0.030797 0.198102 0.362134
O O2 0.048660 0.314344 0.586345
O O3 0.880455 0.299956 0.460461
O O4 0.934381 0.161452 0.635169
O O5 0.701851 0.344953 0.506737
O O6 0.569065 0.299233 0.684077
O O7 0.644071 0.155942 0.517994
O O8 0.164508 0.532369 0.123497
O O9 0.567495 0.476243 0.606389
O O10 0.493725 0.065062 0.632872
#
# Coordination Sequence:
#
# PCOD8305500 Si02
#       6
#     8   8   8   4   4   8
#     4  12  29  52  82 118 165 210 277 337 414 489
#     4  12  29  50  80 123 156 214 271 341 407 499
#     4  12  27  50  80 115 159 213 266 339 404 497
#     4  12  26  51  82 114 163 206 262 332 408 489
#     4  12  28  51  82 116 159 216 264 334 416 491
#     4  12  27  48  79 115 161 210 273 342 415 493
#
# _framework density 24.465672999999999
#
# number of rings (size 3 to 8) (size 9 to 14) (size 15 to 20)
#    0.000    0.000    4.000    4.200    5.600    0.000 
#    3.600    0.000    0.000    0.000    0.000    0.000 
#    0.000    0.000    0.000    0.000    0.000    0.000 
#
# Total GULP energy -495610.990574 kJ/mol
# GULP energy per Si atom -12390.274764 kJ/mol
# Density = 2.440999 g / cm^3
# Si number density = 24.465673 Si / 1000 Ang^3
#
#
#
# Elastic Constant Matrix: (Units=GPa)
#
#
# Indices 1 2 3 4 5 6 
#
# 1 104.8992 73.7571 45.6728 0.0000 0.0000 0.0000
# 2 73.7571 104.8985 45.6759 0.0000 0.0000 0.0000
# 3 45.6728 45.6759 118.9697 0.0000 0.0000 0.0000
# 4 0.0000 0.0000 0.0000 30.8645 0.0000 0.0000
# 5 0.0000 0.0000 0.0000 0.0000 30.8647 0.0000
# 6 0.0000 0.0000 0.0000 0.0000 0.0000 35.8398
#
#
#
# Elastic Compliance Matrix: (Units=1/GPa)
#
#
# Indices 1 2 3 4 5 6 
#
# 1 0.019537 -0.012573 -0.002673 0.000000 0.000000 0.000000
# 2 -0.012573 0.019538 -0.002674 0.000000 0.000000 0.000000
# 3 -0.002673 -0.002674 0.010459 0.000000 0.000000 0.000000
# 4 0.000000 0.000000 0.000000 0.032400 0.000000 0.000000
# 5 0.000000 0.000000 0.000000 0.000000 0.032399 0.000000
# 6 0.000000 0.000000 0.000000 0.000000 0.000000 0.027902
#
#
# Mechanical properties :
#
#
# Convention : Reuss Voigt Hill
#
# Bulk Modulus (GPa) = 73.03336 73.21989 73.12662
# Shear Modulus (GPa) = 27.37606 30.42456 28.90031
#
# Velocity S-wave (km/s) = 3.34871 3.53024 3.44067
# Velocity P-wave (km/s) = 6.69836 6.82711 6.76304
#
# Compressibility (1/GPa) = 0.01369237
#
# Stress axis : x y z
#
# Youngs Moduli (GPa) = 51.18364 51.18175 95.61590
#
# Poissons Ratio (x) = 0.64353 0.25560
# Poissons Ratio (y) = 0.64355 0.25571
# Poissons Ratio (z) = 0.13682 0.13688
#
# Static dielectric constant tensor:
#      x y z
#    x 4.646370 0.000000 0.000000 
#    y 0.000000 4.646380 0.000000 
#    z 0.000000 0.000000 2.570840 
# 
# 
# High freq. dielectric constant tensor:
#      x y z
#    x 1.979660 0.000000 0.000000 
#    y 0.000000 1.979660 0.000000 
#    z 0.000000 0.000000 1.993230 
# 
# From -- ./inp_files/1398.got.cif
#   From: 2010.03.12/outbox.cif.g09.slc.cpg/sg92_1_cif.got.tgz:1398.got - 2010.04.08 20:41:11.
