data_PCOD8305949
_publ_section_title
;
Structure prediction by ZEFSAII (Michael W. Deem and Ramdas Pophale) SiO2 
 PCOD8305949
Probable space group: P 43 21 2
;
_chemical_formula_sum "Si O2"
_cell_formula_units_Z 40
_cell_length_a 16.182847
_cell_length_b 16.182847
_cell_length_c 7.552677
_cell_angle_alpha 90.000000
_cell_angle_beta 90.000000
_cell_angle_gamma 90.000000
_cell_volume 1977.929319
_symmetry_space_group_name_H-M "P 43 21 2"
_symmetry_group_IT_number 96
_symmetry_cell_setting 'tetragonal'
loop_
_space_group_symop_operation_xyz
x,y,z
1/2-y,1/2+x,3/4+z
-x,-y,1/2+z
1/2+y,1/2-x,1/4+z
1/2+x,1/2-y,1/4-z
1/2-x,1/2+y,3/4-z
y,x,-z
-y,-x,1/2-z
loop_
_atom_site_type_symbol
_atom_site_label
_atom_site_fract_x
_atom_site_fract_y
_atom_site_fract_z
Si Si1 0.814935 0.279477 0.603975
Si Si2 0.948606 0.051395 0.750000
Si Si3 0.837979 0.076370 0.091542
Si Si4 0.759418 0.929069 0.283028
Si Si5 0.410447 0.589554 0.750000
Si Si6 0.914031 0.430963 0.574981
O O1 0.785873 0.214128 0.750000
O O2 0.851675 0.229262 0.437442
O O3 0.736647 0.334553 0.540654
O O4 0.887444 0.343790 0.670132
O O5 0.933788 0.113405 0.590541
O O6 0.938221 0.958741 0.676453
O O7 0.898478 0.101523 0.250000
O O8 0.794413 0.990353 0.134762
O O9 0.813685 0.930392 0.462437
O O10 0.661964 0.952707 0.312466
O O11 0.999587 0.422672 0.473451
#
# Coordination Sequence:
#
# PCOD8305949 Si02
#       6
#     8   4   8   8   4   8
#     4  10  22  42  67  97 131 177 230 289 344 399
#     4  12  26  42  66 100 136 190 226 276 354 424
#     4  12  23  45  68  93 143 178 231 284 343 415
#     4  10  23  43  63  98 133 181 224 293 334 413
#     4  12  24  42  66 100 138 184 230 282 356 414
#     4  10  22  46  66  96 138 180 229 285 346 416
#
# _framework density 20.22317
#
# number of rings (size 3 to 8) (size 9 to 14) (size 15 to 20)
#    1.200    0.000    5.000    1.200    4.200    0.000 
#    7.200    0.000    0.000    0.000    0.000    0.000 
#    0.000    0.000    0.000    0.000    0.000    0.000 
#
# Total GULP energy -495545.334367 kJ/mol
# GULP energy per Si atom -12388.633359 kJ/mol
# Density = 2.017714 g / cm^3
# Si number density = 20.223170 Si / 1000 Ang^3
#
#
#
# Elastic Constant Matrix: (Units=GPa)
#
#
# Indices 1 2 3 4 5 6 
#
# 1 105.9009 46.9221 49.6774 0.0000 0.0000 0.0000
# 2 46.9221 105.9018 49.6791 0.0000 0.0000 0.0000
# 3 49.6774 49.6791 100.7244 0.0000 0.0000 0.0000
# 4 0.0000 0.0000 0.0000 27.0240 0.0000 0.0000
# 5 0.0000 0.0000 0.0000 0.0000 27.0236 0.0000
# 6 0.0000 0.0000 0.0000 0.0000 0.0000 38.8325
#
#
#
# Elastic Compliance Matrix: (Units=1/GPa)
#
#
# Indices 1 2 3 4 5 6 
#
# 1 0.013294 -0.003662 -0.004750 0.000000 0.000000 0.000000
# 2 -0.003662 0.013294 -0.004751 0.000000 0.000000 0.000000
# 3 -0.004750 -0.004751 0.014614 0.000000 0.000000 0.000000
# 4 0.000000 0.000000 0.000000 0.037004 0.000000 0.000000
# 5 0.000000 0.000000 0.000000 0.000000 0.037005 0.000000
# 6 0.000000 0.000000 0.000000 0.000000 0.000000 0.025752
#
#
# Mechanical properties :
#
#
# Convention : Reuss Voigt Hill
#
# Bulk Modulus (GPa) = 67.22320 67.23158 67.22739
# Shear Modulus (GPa) = 29.02824 29.65924 29.34374
#
# Velocity S-wave (km/s) = 3.79277 3.83377 3.81333
# Velocity P-wave (km/s) = 7.24521 7.27421 7.25972
#
# Compressibility (1/GPa) = 0.01487582
#
# Stress axis : x y z
#
# Youngs Moduli (GPa) = 75.22457 75.22390 68.42668
#
# Poissons Ratio (x) = 0.27543 0.32506
# Poissons Ratio (y) = 0.27544 0.32508
# Poissons Ratio (z) = 0.35735 0.35737
#
# Static dielectric constant tensor:
#      x y z
#    x 3.867520 0.000000 0.000000 
#    y 0.000000 3.867520 0.000000 
#    z 0.000000 0.000000 3.383920 
# 
# 
# High freq. dielectric constant tensor:
#      x y z
#    x 1.803080 0.000000 0.000000 
#    y 0.000000 1.803080 0.000000 
#    z 0.000000 0.000000 1.752950 
# 
# From -- ./inp_files/422.got.cif
#   From: 2010.03.12/outbox.cif.g09.slc.cpg/sg96_1_cif.got.tgz:422.got - 2010.04.08 20:56:49.
