data_PCOD8305314
_publ_section_title
;
Structure prediction by ZEFSAII (Michael W. Deem and Ramdas Pophale) SiO2 
 PCOD8305314
Probable space group: P 41 21 2
;
_chemical_formula_sum "Si O2"
_cell_formula_units_Z 64
_cell_length_a 23.739160
_cell_length_b 23.739160
_cell_length_c 5.348587
_cell_angle_alpha 90.000000
_cell_angle_beta 90.000000
_cell_angle_gamma 90.000000
_cell_volume 3014.183996
_symmetry_space_group_name_H-M "P 41 21 2"
_symmetry_group_IT_number 92
_symmetry_cell_setting 'tetragonal'
loop_
_space_group_symop_operation_xyz
x,y,z
1/2-y,1/2+x,1/4+z
-x,-y,1/2+z
1/2+y,1/2-x,3/4+z
1/2+x,1/2-y,3/4-z
1/2-x,1/2+y,1/4-z
y,x,-z
-y,-x,1/2-z
loop_
_atom_site_type_symbol
_atom_site_label
_atom_site_fract_x
_atom_site_fract_y
_atom_site_fract_z
Si Si1 0.194002 0.103195 0.012038
Si Si2 0.852576 0.943878 0.014495
Si Si3 0.801875 0.156375 0.001987
Si Si4 0.323031 0.104523 0.944477
Si Si5 0.403405 0.184444 0.209426
Si Si6 0.502293 0.872436 0.455566
Si Si7 0.396559 0.435359 0.751014
Si Si8 0.088199 0.587902 0.673883
O O1 0.172084 0.063121 0.791770
O O2 0.162761 0.162761 0.000000
O O3 0.187720 0.076997 0.289203
O O4 0.257692 0.115206 0.945880
O O5 0.912512 0.912512 0.000000
O O6 0.858784 0.009764 0.982534
O O7 0.803796 0.196205 0.250000
O O8 0.748079 0.114479 0.023134
O O9 0.857349 0.118955 0.001244
O O10 0.804503 0.195498 0.750000
O O11 0.347960 0.156624 0.095760
O O12 0.341502 0.045018 0.052222
O O13 0.348125 0.102064 0.666259
O O14 0.427799 0.144518 0.428433
O O15 0.457429 0.180546 0.027952
O O16 0.541826 0.916708 0.299750
O O17 0.471272 0.909384 0.673448
O O18 0.435022 0.435022 0.500000
O O19 0.435054 0.435054 0.000000
#
# Coordination Sequence:
#
# PCOD8305314 Si02
#       8
#     8   8   8   8   8   8   8   8
#     4  10  23  41  62  96 132 167 218 271 322 384
#     4  10  22  39  61  92 129 170 216 265 320 384
#     4  10  24  42  63  98 135 169 220 274 332 395
#     4  10  23  40  66  93 127 169 220 264 328 395
#     4  10  23  41  68  92 130 173 218 266 333 397
#     4  10  22  41  69  95 133 169 225 272 334 403
#     4  10  21  38  59  91 127 165 214 264 315 383
#     4  10  22  42  67  99 130 170 224 279 328 414
#
# _framework density 21.232942000000001
#
# number of rings (size 3 to 8) (size 9 to 14) (size 15 to 20)
#    0.000    2.000    0.000    1.500    8.750    2.000 
#    0.000    0.000   99.000    0.000    0.000    0.000 
#    0.000    0.000    0.000    0.000    0.000    0.000 
#
# Total GULP energy -793044.305635 kJ/mol
# GULP energy per Si atom -12391.317276 kJ/mol
# Density = 2.118461 g / cm^3
# Si number density = 21.232942 Si / 1000 Ang^3
#
#
#
# Elastic Constant Matrix: (Units=GPa)
#
#
# Indices 1 2 3 4 5 6 
#
# 1 84.3040 -20.4036 27.2861 0.0000 0.0000 0.0000
# 2 -20.4036 84.3037 27.2857 0.0000 0.0000 0.0000
# 3 27.2861 27.2857 112.5571 0.0000 0.0000 0.0000
# 4 0.0000 0.0000 0.0000 12.9203 0.0000 0.0000
# 5 0.0000 0.0000 0.0000 0.0000 12.9201 0.0000
# 6 0.0000 0.0000 0.0000 0.0000 0.0000 13.9754
#
#
#
# Elastic Compliance Matrix: (Units=1/GPa)
#
#
# Indices 1 2 3 4 5 6 
#
# 1 0.014643 0.005092 -0.004784 0.000000 0.000000 0.000000
# 2 0.005092 0.014643 -0.004784 0.000000 0.000000 0.000000
# 3 -0.004784 -0.004784 0.011204 0.000000 0.000000 0.000000
# 4 0.000000 0.000000 0.000000 0.077397 0.000000 0.000000
# 5 0.000000 0.000000 0.000000 0.000000 0.077399 0.000000
# 6 0.000000 0.000000 0.000000 0.000000 0.000000 0.071554
#
#
# Mechanical properties :
#
#
# Convention : Reuss Voigt Hill
#
# Bulk Modulus (GPa) = 31.70822 38.83349 35.27085
# Shear Modulus (GPa) = 17.46394 24.42961 20.94678
#
# Velocity S-wave (km/s) = 2.87102 3.39566 3.14430
# Velocity P-wave (km/s) = 5.09473 5.80543 5.46165
#
# Compressibility (1/GPa) = 0.03153756
#
# Stress axis : x y z
#
# Youngs Moduli (GPa) = 68.29309 68.29292 89.25448
#
# Poissons Ratio (x) = -0.34777 0.42701
# Poissons Ratio (y) = -0.34777 0.42701
# Poissons Ratio (z) = 0.32673 0.32672
#
# Static dielectric constant tensor:
#      x y z
#    x 3.756160 0.000000 0.000000 
#    y 0.000000 3.756150 0.000000 
#    z 0.000000 0.000000 4.438030 
# 
# 
# High freq. dielectric constant tensor:
#      x y z
#    x 1.822150 0.000000 0.000000 
#    y 0.000000 1.822150 0.000000 
#    z 0.000000 0.000000 1.852270 
# 
# From -- ./inp_files/875.got.cif
#   From: 2010.03.12/outbox.cif.g09.slc.cpg/sg92_1_cif.got.tgz:875.got - 2010.04.08 20:41:11.
