data_PCOD8305141
_publ_section_title
;
Structure prediction by ZEFSAII (Michael W. Deem and Ramdas Pophale) SiO2 
 PCOD8305141
Probable space group: P 41 2 2
;
_chemical_formula_sum "Si O2"
_cell_formula_units_Z 40
_cell_length_a 8.167973
_cell_length_b 8.167973
_cell_length_c 24.383870
_cell_angle_alpha 90.000000
_cell_angle_beta 90.000000
_cell_angle_gamma 90.000000
_cell_volume 1626.788978
_symmetry_space_group_name_H-M "P 41 2 2"
_symmetry_group_IT_number 91
_symmetry_cell_setting 'tetragonal'
loop_
_space_group_symop_operation_xyz
x,y,z
-y,x,1/4+z
-x,-y,1/2+z
y,-x,3/4+z
x,-y,1/2-z
-x,y,-z
y,x,3/4-z
-y,-x,1/4-z
loop_
_atom_site_type_symbol
_atom_site_label
_atom_site_fract_x
_atom_site_fract_y
_atom_site_fract_z
Si Si1 0.316168 0.230424 0.506292
Si Si2 0.992185 0.165437 0.327229
Si Si3 0.702389 0.524094 0.916267
Si Si4 0.773947 0.412541 0.385144
Si Si5 0.989475 0.337664 0.062992
O O1 0.500000 0.160075 0.500000
O O2 0.312761 0.408311 0.477237
O O3 0.261541 0.272998 0.568024
O O4 0.193165 0.097446 0.478779
O O5 0.911236 0.336731 0.345101
O O6 0.856566 0.021038 0.318305
O O7 0.112611 0.112611 0.375000
O O8 0.677740 0.677740 0.875000
O O9 0.563462 0.387529 0.902464
O O10 0.874562 0.440117 0.904465
O O11 0.823034 0.591348 0.409732
O O12 0.000000 0.389211 0.000000
#
# Coordination Sequence:
#
# PCOD8305141 Si02
#       5
#     8   8   8   8   8
#     4  12  24  45  77 107 140 196 255 296 363 453
#     4  11  28  44  72 103 147 193 243 299 371 457
#     4  11  22  43  70 104 138 190 249 296 369 442
#     4  11  25  43  74 102 144 192 239 312 366 430
#     4  11  24  45  67 104 145 186 239 309 374 432
#
# _framework density 24.588314
#
# number of rings (size 3 to 8) (size 9 to 14) (size 15 to 20)
#    0.000    0.800    4.000    3.000    5.600    0.800 
#    0.000    8.000    0.000    0.000    0.000    0.000 
#    0.000    0.000    0.000    0.000    0.000    0.000 
#
# Total GULP energy -495688.846812 kJ/mol
# GULP energy per Si atom -12392.221170 kJ/mol
# Density = 2.453235 g / cm^3
# Si number density = 24.588314 Si / 1000 Ang^3
#
#
#
# Elastic Constant Matrix: (Units=GPa)
#
#
# Indices 1 2 3 4 5 6 
#
# 1 84.3517 60.5746 27.2212 0.0000 0.0000 0.0000
# 2 60.5746 84.3517 27.2212 0.0000 0.0000 0.0000
# 3 27.2212 27.2212 72.0727 0.0000 0.0000 0.0000
# 4 0.0000 0.0000 0.0000 33.2972 0.0000 0.0000
# 5 0.0000 0.0000 0.0000 0.0000 33.2972 0.0000
# 6 0.0000 0.0000 0.0000 0.0000 0.0000 29.4331
#
#
#
# Elastic Compliance Matrix: (Units=1/GPa)
#
#
# Indices 1 2 3 4 5 6 
#
# 1 0.025049 -0.017008 -0.003037 0.000000 0.000000 0.000000
# 2 -0.017008 0.025049 -0.003037 0.000000 0.000000 0.000000
# 3 -0.003037 -0.003037 0.016169 0.000000 0.000000 0.000000
# 4 0.000000 0.000000 0.000000 0.030033 0.000000 0.000000
# 5 0.000000 0.000000 0.000000 0.000000 0.030033 0.000000
# 6 0.000000 0.000000 0.000000 0.000000 0.000000 0.033975
#
#
# Mechanical properties :
#
#
# Convention : Reuss Voigt Hill
#
# Bulk Modulus (GPa) = 49.74413 52.31223 51.02818
# Shear Modulus (GPa) = 23.45515 27.58946 25.52231
#
# Velocity S-wave (km/s) = 3.09190 3.35334 3.22527
# Velocity P-wave (km/s) = 5.74641 6.02616 5.88795
#
# Compressibility (1/GPa) = 0.02010287
#
# Stress axis : x y z
#
# Youngs Moduli (GPa) = 39.92160 39.92160 61.84692
#
# Poissons Ratio (x) = 0.67899 0.18783
# Poissons Ratio (y) = 0.67899 0.18783
# Poissons Ratio (z) = 0.12124 0.12124
#
# Static dielectric constant tensor:
#      x y z
#    x 4.489010 0.000000 0.000000 
#    y 0.000000 4.489010 0.000000 
#    z 0.000000 0.000000 4.340820 
# 
# 
# High freq. dielectric constant tensor:
#      x y z
#    x 1.974580 0.000000 0.000000 
#    y 0.000000 1.974580 0.000000 
#    z 0.000000 0.000000 1.974460 
# 
# From -- ./inp_files/12739.got.cif
#   From: 2010.03.12/outbox.cif.g09.slc.cpg/sg91_7_cif.got.tgz:12739.got - 2010.04.08 20:27:58.
