data_PCOD8305523
_publ_section_title
;
Structure prediction by ZEFSAII (Michael W. Deem and Ramdas Pophale) SiO2 
 PCOD8305523
Probable space group: P 42 2 2
;
_chemical_formula_sum "Si O2"
_cell_formula_units_Z 64
_cell_length_a 12.046264
_cell_length_b 12.046264
_cell_length_c 22.366561
_cell_angle_alpha 90.000000
_cell_angle_beta 90.000000
_cell_angle_gamma 90.000000
_cell_volume 3245.667054
_symmetry_space_group_name_H-M "P 42 2 2"
_symmetry_group_IT_number 93
_symmetry_cell_setting 'tetragonal'
loop_
_space_group_symop_operation_xyz
x,y,z
-y,x,1/2+z
-x,-y,z
y,-x,1/2+z
x,-y,-z
-x,y,-z
y,x,1/2-z
-y,-x,1/2-z
loop_
_atom_site_type_symbol
_atom_site_label
_atom_site_fract_x
_atom_site_fract_y
_atom_site_fract_z
Si Si1 0.196015 0.115066 0.026261
Si Si2 0.514857 0.131017 0.815377
Si Si3 0.265631 0.831218 0.415263
Si Si4 0.090368 0.273802 0.248759
Si Si5 0.556825 0.117349 0.943531
Si Si6 0.854036 0.269214 0.301596
Si Si7 0.271683 0.919215 0.610941
Si Si8 0.503135 0.126746 0.570405
O O1 0.317516 0.085587 0.047029
O O2 0.135092 0.157562 0.086669
O O3 0.205642 0.214108 0.978163
O O4 0.142006 0.000000 0.000000
O O5 0.614604 0.156835 0.768939
O O6 0.541634 0.183123 0.880970
O O7 0.397843 0.182442 0.794314
O O8 0.500000 0.000000 0.819250
O O9 0.186212 0.780972 0.364497
O O10 0.397389 0.799419 0.406051
O O11 0.271556 0.963355 0.421945
O O12 0.169841 0.169841 0.250000
O O13 0.051064 0.279852 0.180691
O O14 0.986883 0.254943 0.293794
O O15 0.500000 0.000000 0.936428
O O16 0.500000 0.182477 0.000000
O O17 0.796840 0.203161 0.250000
O O18 0.374916 0.835972 0.594062
O O19 0.500000 0.133791 0.500000
O O20 0.500000 0.000000 0.594055
#
# Coordination Sequence:
#
# PCOD8305523 Si02
#       8
#     8   8   8   8   8   8   8   8
#     4  12  24  36  59  89 125 157 201 248 318 381
#     4   9  21  37  63  86 118 158 218 261 290 365
#     4  11  23  38  59  89 124 163 199 252 308 370
#     4  11  24  41  60  88 127 168 210 250 309 379
#     4  10  18  36  59  84 112 151 203 259 302 353
#     4  11  23  40  60  93 124 163 205 255 313 367
#     4  11  23  39  59  86 123 169 207 248 304 372
#     4   9  18  37  60  83 116 154 212 256 290 357
#
# _framework density 19.718596999999999
#
# number of rings (size 3 to 8) (size 9 to 14) (size 15 to 20)
#    0.000    1.500    3.750    1.875    7.000    2.750 
#    0.000    0.000    0.000    0.375    0.000    5.250 
#    0.000    0.000    0.000    0.000    0.000    0.000 
#
# Total GULP energy -792845.557392 kJ/mol
# GULP energy per Si atom -12388.211834 kJ/mol
# Density = 1.967372 g / cm^3
# Si number density = 19.718597 Si / 1000 Ang^3
#
#
#
# Elastic Constant Matrix: (Units=GPa)
#
#
# Indices 1 2 3 4 5 6 
#
# 1 90.9696 40.9814 21.9480 0.0000 0.0000 0.0000
# 2 40.9814 90.9699 21.9505 0.0000 0.0000 0.0000
# 3 21.9480 21.9505 74.3236 0.0000 0.0000 0.0000
# 4 0.0000 0.0000 0.0000 29.2389 0.0000 0.0000
# 5 0.0000 0.0000 0.0000 0.0000 29.2000 0.0000
# 6 0.0000 0.0000 0.0000 0.0000 0.0000 -1.3636
#
#
#
# Elastic Compliance Matrix: (Units=1/GPa)
#
#
# Indices 1 2 3 4 5 6 
#
# 1 0.014204 -0.005800 -0.002482 0.000000 0.000000 0.000000
# 2 -0.005800 0.014205 -0.002482 0.000000 0.000000 0.000000
# 3 -0.002482 -0.002482 0.014921 0.000000 0.000000 0.000000
# 4 0.000000 0.000000 0.000000 0.034201 0.000000 0.000000
# 5 0.000000 0.000000 0.000000 0.000000 0.034247 0.000000
# 6 0.000000 0.000000 0.000000 0.000000 0.000000 -0.733370
#
#
# Mechanical properties :
#
#
# Convention : Reuss Voigt Hill
#
# Bulk Modulus (GPa) = 45.86869 47.33587 46.60228
# Shear Modulus (GPa) = -8.43459 22.84062 7.20302
#
# Velocity S-wave (km/s) = -2.07045 3.40712 1.91333
# Velocity P-wave (km/s) = 4.19481 6.28774 5.34473
#
# Compressibility (1/GPa) = 0.02180136
#
# Stress axis : x y z
#
# Youngs Moduli (GPa) = 70.40086 70.39986 67.02138
#
# Poissons Ratio (x) = 0.40833 0.16632
# Poissons Ratio (y) = 0.40834 0.16637
# Poissons Ratio (z) = 0.17471 0.17475
#
# Static dielectric constant tensor:
#      x y z
#    x -9.002230 0.000000 0.000000 
#    y 0.000000 -8.864220 0.000000 
#    z 0.000000 0.000000 5.568270 
# 
# 
# High freq. dielectric constant tensor:
#      x y z
#    x 1.745670 0.000000 0.000000 
#    y 0.000000 1.745670 0.000000 
#    z 0.000000 0.000000 1.784250 
# 
# From -- ./inp_files/6985.got.cif
#   From: 2010.03.12/outbox.cif.g09.slc.cpg/sg93_4_cif.got.tgz:6985.got - 2010.04.08 20:44:19.
