data_PCOD8305564
_publ_section_title
;
Structure prediction by ZEFSAII (Michael W. Deem and Ramdas Pophale) SiO2 
 PCOD8305564
Probable space group: P 42 2 2
;
_chemical_formula_sum "Si O2"
_cell_formula_units_Z 40
_cell_length_a 18.513273
_cell_length_b 18.513273
_cell_length_c 5.288753
_cell_angle_alpha 90.000000
_cell_angle_beta 90.000000
_cell_angle_gamma 90.000000
_cell_volume 1812.673958
_symmetry_space_group_name_H-M "P 42 2 2"
_symmetry_group_IT_number 93
_symmetry_cell_setting 'tetragonal'
loop_
_space_group_symop_operation_xyz
x,y,z
-y,x,1/2+z
-x,-y,z
y,-x,1/2+z
x,-y,-z
-x,y,-z
y,x,1/2-z
-y,-x,1/2-z
loop_
_atom_site_type_symbol
_atom_site_label
_atom_site_fract_x
_atom_site_fract_y
_atom_site_fract_z
Si Si1 0.529413 0.081274 0.744368
Si Si2 0.349097 0.414918 0.498786
Si Si3 0.956286 0.160407 0.761552
Si Si4 0.768132 0.703471 0.501152
Si Si5 0.686514 0.925794 0.145805
O O1 0.500000 0.124031 0.500000
O O2 0.614617 0.084922 0.693371
O O3 0.500000 0.000000 0.745940
O O4 0.500000 0.119613 0.000000
O O5 0.333552 0.500000 0.500000
O O6 0.393112 0.393112 0.750000
O O7 0.271929 0.373973 0.491453
O O8 0.395156 0.395156 0.250000
O O9 0.882754 0.117247 0.750000
O O10 0.934738 0.243013 0.820428
O O11 0.000000 0.153229 0.500000
O O12 0.000000 0.129374 0.000000
O O13 0.746498 0.746498 0.750000
O O14 0.854604 0.694365 0.528093
O O15 0.748785 0.748785 0.250000
O O16 0.674409 0.000000 0.000000
#
# Coordination Sequence:
#
# PCOD8305564 Si02
#       5
#     8   8   8   8   8
#     4  10  21  38  58  86 131 161 201 259 312 371
#     4  10  21  39  64  95 130 165 214 264 325 389
#     4  11  26  44  69  98 128 166 216 271 335 395
#     4  10  24  45  65  91 132 178 214 265 324 392
#     4  11  24  42  68  97 129 173 222 272 319 382
#
# _framework density 22.066846000000002
#
# number of rings (size 3 to 8) (size 9 to 14) (size 15 to 20)
#    0.000    1.600    2.000    1.800    2.800   11.200 
#    0.000    4.000    0.000    0.000    0.000    0.000 
#    0.000    0.000    0.000    0.000    0.000    0.000 
#
# Total GULP energy -495759.916945 kJ/mol
# GULP energy per Si atom -12393.997924 kJ/mol
# Density = 2.201662 g / cm^3
# Si number density = 22.066846 Si / 1000 Ang^3
#
#
#
# Elastic Constant Matrix: (Units=GPa)
#
#
# Indices 1 2 3 4 5 6 
#
# 1 147.3069 42.2967 50.3152 0.0000 0.0000 0.0000
# 2 42.2967 147.2992 50.3134 0.0000 0.0000 0.0000
# 3 50.3152 50.3134 184.0603 0.0000 0.0000 0.0000
# 4 0.0000 0.0000 0.0000 11.3548 0.0000 0.0000
# 5 0.0000 0.0000 0.0000 0.0000 11.3646 0.0000
# 6 0.0000 0.0000 0.0000 0.0000 0.0000 28.1843
#
#
#
# Elastic Compliance Matrix: (Units=1/GPa)
#
#
# Indices 1 2 3 4 5 6 
#
# 1 0.007846 -0.001677 -0.001686 0.000000 0.000000 0.000000
# 2 -0.001677 0.007846 -0.001686 0.000000 0.000000 0.000000
# 3 -0.001686 -0.001686 0.006355 0.000000 0.000000 0.000000
# 4 0.000000 0.000000 0.000000 0.088069 0.000000 0.000000
# 5 0.000000 0.000000 0.000000 0.000000 0.087992 0.000000
# 6 0.000000 0.000000 0.000000 0.000000 0.000000 0.035481
#
#
# Mechanical properties :
#
#
# Convention : Reuss Voigt Hill
#
# Bulk Modulus (GPa) = 83.69653 84.94634 84.32143
# Shear Modulus (GPa) = 20.18804 32.56349 26.37576
#
# Velocity S-wave (km/s) = 3.02794 3.84562 3.46101
# Velocity P-wave (km/s) = 7.08771 7.63524 7.36656
#
# Compressibility (1/GPa) = 0.01194793
#
# Stress axis : x y z
#
# Youngs Moduli (GPa) = 127.45210 127.44567 157.35634
#
# Poissons Ratio (x) = 0.21372 0.26537
# Poissons Ratio (y) = 0.21373 0.26537
# Poissons Ratio (z) = 0.21494 0.21493
#
# Static dielectric constant tensor:
#      x y z
#    x 4.083430 0.000000 0.000000 
#    y 0.000000 4.083420 0.000000 
#    z 0.000000 0.000000 5.738220 
# 
# 
# High freq. dielectric constant tensor:
#      x y z
#    x 1.869340 0.000000 0.000000 
#    y 0.000000 1.869340 0.000000 
#    z 0.000000 0.000000 1.871290 
# 
# From -- ./inp_files/496.got.cif
#   From: 2010.03.12/outbox.cif.g09.slc.cpg/sg93_1_cif.got.tgz:496.got - 2010.04.08 20:44:19.
