data_PCOD8305174
_publ_section_title
;
Structure prediction by ZEFSAII (Michael W. Deem and Ramdas Pophale) SiO2 
 PCOD8305174
Probable space group: P 41 2 2
;
_chemical_formula_sum "Si O2"
_cell_formula_units_Z 32
_cell_length_a 9.768119
_cell_length_b 9.768119
_cell_length_c 16.965202
_cell_angle_alpha 90.000000
_cell_angle_beta 90.000000
_cell_angle_gamma 90.000000
_cell_volume 1618.754238
_symmetry_space_group_name_H-M "P 41 2 2"
_symmetry_group_IT_number 91
_symmetry_cell_setting 'tetragonal'
loop_
_space_group_symop_operation_xyz
x,y,z
-y,x,1/4+z
-x,-y,1/2+z
y,-x,3/4+z
x,-y,1/2-z
-x,y,-z
y,x,3/4-z
-y,-x,1/4-z
loop_
_atom_site_type_symbol
_atom_site_label
_atom_site_fract_x
_atom_site_fract_y
_atom_site_fract_z
Si Si1 0.600065 0.356217 0.215673
Si Si2 0.910790 0.476541 0.429827
Si Si3 0.130020 0.254990 0.697092
Si Si4 0.232465 0.012576 0.891372
O O1 0.543720 0.500000 0.250000
O O2 0.636628 0.363373 0.125000
O O3 0.483064 0.241049 0.218316
O O4 0.731465 0.309761 0.264326
O O5 0.924161 0.372181 0.359135
O O6 0.000000 0.417043 0.500000
O O7 0.968828 0.621674 0.400035
O O8 0.157113 0.117946 0.646671
O O9 0.009509 0.238274 0.762808
O O10 0.148298 0.148298 0.875000
#
# Coordination Sequence:
#
# PCOD8305174 Si02
#       4
#     8   8   8   8
#     4  12  21  38  67  96 123 167 223 269 309 390
#     4  12  23  42  67  98 131 172 221 278 329 385
#     4  12  24  40  67  98 130 170 223 273 330 387
#     4  12  22  41  68  94 126 172 227 264 317 403
#
# _framework density 19.768287000000001
#
# number of rings (size 3 to 8) (size 9 to 14) (size 15 to 20)
#    0.000    0.000   10.000    1.500    0.000    2.000 
#    0.000    5.000    0.000    0.000    0.000    0.000 
#    0.000    0.000    0.000    0.000    0.000    0.000 
#
# Total GULP energy -396668.712880 kJ/mol
# GULP energy per Si atom -12395.897278 kJ/mol
# Density = 1.972329 g / cm^3
# Si number density = 19.768287 Si / 1000 Ang^3
#
#
#
# Elastic Constant Matrix: (Units=GPa)
#
#
# Indices 1 2 3 4 5 6 
#
# 1 83.0653 7.2646 52.8095 0.0000 0.0000 0.0000
# 2 7.2646 83.0657 52.8095 0.0000 0.0000 0.0000
# 3 52.8095 52.8095 158.1188 0.0000 0.0000 0.0000
# 4 0.0000 0.0000 0.0000 28.0190 0.0000 0.0000
# 5 0.0000 0.0000 0.0000 0.0000 28.0211 0.0000
# 6 0.0000 0.0000 0.0000 0.0000 0.0000 8.4756
#
#
#
# Elastic Compliance Matrix: (Units=1/GPa)
#
#
# Indices 1 2 3 4 5 6 
#
# 1 0.015678 0.002486 -0.006066 0.000000 0.000000 0.000000
# 2 0.002486 0.015678 -0.006066 0.000000 0.000000 0.000000
# 3 -0.006066 -0.006066 0.010377 0.000000 0.000000 0.000000
# 4 0.000000 0.000000 0.000000 0.035690 0.000000 0.000000
# 5 0.000000 0.000000 0.000000 0.000000 0.035687 0.000000
# 6 0.000000 0.000000 0.000000 0.000000 0.000000 0.117986
#
#
# Mechanical properties :
#
#
# Convention : Reuss Voigt Hill
#
# Bulk Modulus (GPa) = 44.56670 61.11301 52.83985
# Shear Modulus (GPa) = 19.38964 26.99421 23.19193
#
# Velocity S-wave (km/s) = 3.13524 3.69932 3.42890
# Velocity P-wave (km/s) = 5.97493 7.01629 6.51645
#
# Compressibility (1/GPa) = 0.02243828
#
# Stress axis : x y z
#
# Youngs Moduli (GPa) = 63.78313 63.78343 96.37101
#
# Poissons Ratio (x) = -0.15854 0.58463
# Poissons Ratio (y) = -0.15854 0.58463
# Poissons Ratio (z) = 0.38694 0.38694
#
# Static dielectric constant tensor:
#      x y z
#    x 3.511290 0.000000 0.000000 
#    y 0.000000 3.511280 0.000000 
#    z 0.000000 0.000000 1.687740 
# 
# 
# High freq. dielectric constant tensor:
#      x y z
#    x 1.758130 0.000000 0.000000 
#    y 0.000000 1.758130 0.000000 
#    z 0.000000 0.000000 1.792760 
# 
# From -- ./inp_files/12227.got.cif
#   From: 2010.03.12/outbox.cif.g09.slc.cpg/sg91_7_cif.got.tgz:12227.got - 2010.04.08 20:27:58.
