data_PCOD8305178
_publ_section_title
;
Structure prediction by ZEFSAII (Michael W. Deem and Ramdas Pophale) SiO2 
 PCOD8305178
Probable space group: P 41 2 2
;
_chemical_formula_sum "Si O2"
_cell_formula_units_Z 48
_cell_length_a 11.060267
_cell_length_b 11.060267
_cell_length_c 17.758137
_cell_angle_alpha 90.000000
_cell_angle_beta 90.000000
_cell_angle_gamma 90.000000
_cell_volume 2172.344129
_symmetry_space_group_name_H-M "P 41 2 2"
_symmetry_group_IT_number 91
_symmetry_cell_setting 'tetragonal'
loop_
_space_group_symop_operation_xyz
x,y,z
-y,x,1/4+z
-x,-y,1/2+z
y,-x,3/4+z
x,-y,1/2-z
-x,y,-z
y,x,3/4-z
-y,-x,1/4-z
loop_
_atom_site_type_symbol
_atom_site_label
_atom_site_fract_x
_atom_site_fract_y
_atom_site_fract_z
Si Si1 0.450412 0.615875 0.708747
Si Si2 0.199391 0.071304 0.173860
Si Si3 0.000000 0.236799 0.000000
Si Si4 0.665635 0.725549 0.038518
Si Si5 0.862110 0.337031 0.642037
Si Si6 0.929366 0.070635 0.125000
Si Si7 0.825339 0.423602 0.937556
O O1 0.394477 0.500000 0.750000
O O2 0.404889 0.595112 0.625000
O O3 0.591279 0.624055 0.731922
O O4 0.399264 0.743096 0.738917
O O5 0.271708 0.191888 0.193858
O O6 0.068415 0.100577 0.141419
O O7 0.180365 0.000000 0.250000
O O8 0.270353 0.992025 0.110988
O O9 0.931583 0.325978 0.942271
O O10 0.092862 0.154969 0.949048
O O11 0.594360 0.746605 0.114269
O O12 0.621644 0.826468 0.976934
O O13 0.754702 0.245299 0.625000
O O14 0.872213 0.439179 0.576424
#
# Coordination Sequence:
#
# PCOD8305178 Si02
#       7
#     8   8   4   8   8   4   8
#     4  12  25  44  73 102 140 188 238 291 351 429
#     4  12  22  42  73 107 137 176 240 299 363 423
#     4  12  30  46  70  98 148 190 232 292 362 442
#     4  12  25  44  69 107 141 181 236 296 356 423
#     4  12  24  41  73 106 140 181 233 303 356 418
#     4  12  24  48  70  98 140 190 236 290 358 440
#     4  12  27  46  67 103 145 186 232 291 364 423
#
# _framework density 22.095948
#
# number of rings (size 3 to 8) (size 9 to 14) (size 15 to 20)
#    0.000    0.000    8.333    1.500    4.667    0.000 
#    0.000    0.000    3.667    0.000    0.000    0.000 
#    0.000    0.000    0.000    0.000    0.000    0.000 
#
# Total GULP energy -594840.923437 kJ/mol
# GULP energy per Si atom -12392.519238 kJ/mol
# Density = 2.204566 g / cm^3
# Si number density = 22.095948 Si / 1000 Ang^3
#
#
#
# Elastic Constant Matrix: (Units=GPa)
#
#
# Indices 1 2 3 4 5 6 
#
# 1 89.9976 37.0112 28.9917 0.0000 0.0000 0.0000
# 2 37.0112 89.9970 28.9915 0.0000 0.0000 0.0000
# 3 28.9917 28.9915 115.9724 0.0000 0.0000 0.0000
# 4 0.0000 0.0000 0.0000 42.2276 0.0000 0.0000
# 5 0.0000 0.0000 0.0000 0.0000 42.2279 0.0000
# 6 0.0000 0.0000 0.0000 0.0000 0.0000 36.1156
#
#
#
# Elastic Compliance Matrix: (Units=1/GPa)
#
#
# Indices 1 2 3 4 5 6 
#
# 1 0.013880 -0.004993 -0.002222 0.000000 0.000000 0.000000
# 2 -0.004993 0.013880 -0.002222 0.000000 0.000000 0.000000
# 3 -0.002222 -0.002222 0.009734 0.000000 0.000000 0.000000
# 4 0.000000 0.000000 0.000000 0.023681 0.000000 0.000000
# 5 0.000000 0.000000 0.000000 0.000000 0.023681 0.000000
# 6 0.000000 0.000000 0.000000 0.000000 0.000000 0.027689
#
#
# Mechanical properties :
#
#
# Convention : Reuss Voigt Hill
#
# Bulk Modulus (GPa) = 53.70024 53.99509 53.84766
# Shear Modulus (GPa) = 36.33057 37.51238 36.92148
#
# Velocity S-wave (km/s) = 4.05930 4.12479 4.09217
# Velocity P-wave (km/s) = 6.80636 6.86840 6.83745
#
# Compressibility (1/GPa) = 0.01862189
#
# Stress axis : x y z
#
# Youngs Moduli (GPa) = 72.04451 72.04402 102.73687
#
# Poissons Ratio (x) = 0.35968 0.22827
# Poissons Ratio (y) = 0.35968 0.22826
# Poissons Ratio (z) = 0.16007 0.16007
#
# Static dielectric constant tensor:
#      x y z
#    x 5.180850 0.000000 0.000000 
#    y 0.000000 5.180920 0.000000 
#    z 0.000000 0.000000 6.745610 
# 
# 
# High freq. dielectric constant tensor:
#      x y z
#    x 1.865490 0.000000 0.000000 
#    y 0.000000 1.865490 0.000000 
#    z 0.000000 0.000000 1.879810 
# 
# From -- ./inp_files/5663.got.cif
#   From: 2010.03.12/outbox.cif.g09.slc.cpg/sg91_3_cif.got.tgz:5663.got - 2010.04.08 20:27:58.
