data_PCOD8305285
_publ_section_title
;
Structure prediction by ZEFSAII (Michael W. Deem and Ramdas Pophale) SiO2 
 PCOD8305285
Probable space group: P 41 21 2
;
_chemical_formula_sum "Si O2"
_cell_formula_units_Z 24
_cell_length_a 9.167166
_cell_length_b 9.167166
_cell_length_c 14.638979
_cell_angle_alpha 90.000000
_cell_angle_beta 90.000000
_cell_angle_gamma 90.000000
_cell_volume 1230.214890
_symmetry_space_group_name_H-M "P 41 21 2"
_symmetry_group_IT_number 92
_symmetry_cell_setting 'tetragonal'
loop_
_space_group_symop_operation_xyz
x,y,z
1/2-y,1/2+x,1/4+z
-x,-y,1/2+z
1/2+y,1/2-x,3/4+z
1/2+x,1/2-y,3/4-z
1/2-x,1/2+y,1/4-z
y,x,-z
-y,-x,1/2-z
loop_
_atom_site_type_symbol
_atom_site_label
_atom_site_fract_x
_atom_site_fract_y
_atom_site_fract_z
Si Si1 0.277575 0.401618 0.414846
Si Si2 0.201816 0.701848 0.470699
Si Si3 0.004829 0.867616 0.334022
O O1 0.290379 0.290379 0.500000
O O2 0.167839 0.534396 0.441233
O O3 0.217075 0.313864 0.329096
O O4 0.438630 0.471185 0.393829
O O5 0.369617 0.739565 0.443261
O O6 0.087577 0.807655 0.421896
O O7 0.118751 0.881250 0.250000
#
# Coordination Sequence:
#
# PCOD8305285 Si02
#       3
#     8   8   8
#     4   9  21  42  56  89 126 163 203 262 310 356
#     4  10  20  40  63  86 124 162 209 254 302 380
#     4   9  21  38  63  89 122 166 203 254 315 359
#
# _framework density 19.508785
#
# number of rings (size 3 to 8) (size 9 to 14) (size 15 to 20)
#    2.000    0.667    0.000    1.000    4.667    0.000 
#   12.000    0.000    0.000    0.000    0.000    0.000 
#    0.000    0.000    0.000    0.000    0.000    0.000 
#
# Total GULP energy -297346.412545 kJ/mol
# GULP energy per Si atom -12389.433856 kJ/mol
# Density = 1.946438 g / cm^3
# Si number density = 19.508785 Si / 1000 Ang^3
#
#
#
# Elastic Constant Matrix: (Units=GPa)
#
#
# Indices 1 2 3 4 5 6 
#
# 1 33.8526 46.0081 46.9141 0.0000 0.0000 0.0000
# 2 46.0081 33.8537 46.9140 0.0000 0.0000 0.0000
# 3 46.9141 46.9140 155.2074 0.0000 0.0000 0.0000
# 4 0.0000 0.0000 0.0000 14.2604 0.0000 0.0000
# 5 0.0000 0.0000 0.0000 0.0000 14.2607 0.0000
# 6 0.0000 0.0000 0.0000 0.0000 0.0000 21.2212
#
#
#
# Elastic Compliance Matrix: (Units=1/GPa)
#
#
# Indices 1 2 3 4 5 6 
#
# 1 -0.031428 0.050844 -0.005869 0.000000 0.000000 0.000000
# 2 0.050844 -0.031426 -0.005870 0.000000 0.000000 0.000000
# 3 -0.005869 -0.005870 0.009991 0.000000 0.000000 0.000000
# 4 0.000000 0.000000 0.000000 0.070124 0.000000 0.000000
# 5 0.000000 0.000000 0.000000 0.000000 0.070123 0.000000
# 6 0.000000 0.000000 0.000000 0.000000 0.000000 0.047123
#
#
# Mechanical properties :
#
#
# Convention : Reuss Voigt Hill
#
# Bulk Modulus (GPa) = 39.44925 55.84290 47.64607
# Shear Modulus (GPa) = 77.22514 15.48696 46.35605
#
# Velocity S-wave (km/s) = 6.29847 2.82058 4.87988
# Velocity P-wave (km/s) = 8.55333 6.26851 7.49846
#
# Compressibility (1/GPa) = 0.02534902
#
# Stress axis : x y z
#
# Youngs Moduli (GPa) = -31.81922 -31.82101 100.08862
#
# Poissons Ratio (x) = 1.61791 0.58742
# Poissons Ratio (y) = 1.61782 0.58747
# Poissons Ratio (z) = -0.18675 -0.18677
#
# Static dielectric constant tensor:
#      x y z
#    x 3.244800 0.000000 0.000000 
#    y 0.000000 3.244800 0.000000 
#    z 0.000000 0.000000 3.376790 
# 
# 
# High freq. dielectric constant tensor:
#      x y z
#    x 1.734720 0.000000 0.000000 
#    y 0.000000 1.734720 0.000000 
#    z 0.000000 0.000000 1.765280 
# 
# From -- ./inp_files/1808.got.cif
#   From: 2010.03.12/outbox.cif.g09.slc.cpg/sg92_1_cif.got.tgz:1808.got - 2010.04.08 20:41:11.
