data_PCOD8305187
_publ_section_title
;
Structure prediction by ZEFSAII (Michael W. Deem and Ramdas Pophale) SiO2 
 PCOD8305187
Probable space group: P 41 2 2
;
_chemical_formula_sum "Si O2"
_cell_formula_units_Z 40
_cell_length_a 10.964548
_cell_length_b 10.964548
_cell_length_c 14.397048
_cell_angle_alpha 90.000000
_cell_angle_beta 90.000000
_cell_angle_gamma 90.000000
_cell_volume 1730.832012
_symmetry_space_group_name_H-M "P 41 2 2"
_symmetry_group_IT_number 91
_symmetry_cell_setting 'tetragonal'
loop_
_space_group_symop_operation_xyz
x,y,z
-y,x,1/4+z
-x,-y,1/2+z
y,-x,3/4+z
x,-y,1/2-z
-x,y,-z
y,x,3/4-z
-y,-x,1/4-z
loop_
_atom_site_type_symbol
_atom_site_label
_atom_site_fract_x
_atom_site_fract_y
_atom_site_fract_z
Si Si1 0.037331 0.375093 0.308380
Si Si2 0.394574 0.736783 0.192734
Si Si3 0.123618 0.020603 0.558271
Si Si4 0.183533 0.724027 0.880761
Si Si5 0.358987 0.633540 0.518556
O O1 0.035965 0.500000 0.250000
O O2 0.155154 0.369971 0.371430
O O3 0.012727 0.251730 0.247385
O O4 0.927509 0.373160 0.383000
O O5 0.380322 0.619679 0.125000
O O6 0.293551 0.738206 0.274961
O O7 0.525119 0.731182 0.239369
O O8 0.138149 0.137021 0.626836
O O9 0.000000 0.046075 0.500000
O O10 0.097344 0.902657 0.625000
O O11 0.253249 0.688666 0.788083
O O12 0.500000 0.601199 0.500000
O O13 0.336960 0.663040 0.625000
#
# Coordination Sequence:
#
# PCOD8305187 Si02
#       5
#     8   8   8   8   8
#     4  12  27  48  75 114 158 204 270 344 414 486
#     4  12  26  44  79 109 150 201 263 325 406 491
#     4  12  25  49  78 112 160 218 280 340 412 504
#     4  12  26  47  73 111 156 207 267 341 412 494
#     4  12  26  49  77 115 162 212 269 339 428 511
#
# _framework density 23.110274
#
# number of rings (size 3 to 8) (size 9 to 14) (size 15 to 20)
#    0.000    0.000    6.000    4.200    0.000    0.800 
#    0.000    0.000    0.000    0.000    0.000    0.000 
#    0.000    0.000    0.000    0.000    0.000    0.000 
#
# Total GULP energy -495705.161465 kJ/mol
# GULP energy per Si atom -12392.629037 kJ/mol
# Density = 2.305767 g / cm^3
# Si number density = 23.110274 Si / 1000 Ang^3
#
#
#
# Elastic Constant Matrix: (Units=GPa)
#
#
# Indices 1 2 3 4 5 6 
#
# 1 104.2331 38.0823 49.1860 0.0000 0.0000 0.0000
# 2 38.0823 104.2315 49.1841 0.0000 0.0000 0.0000
# 3 49.1860 49.1841 142.7330 0.0000 0.0000 0.0000
# 4 0.0000 0.0000 0.0000 151.7832 0.0000 0.0000
# 5 0.0000 0.0000 0.0000 0.0000 151.8474 0.0000
# 6 0.0000 0.0000 0.0000 0.0000 0.0000 -6.4154
#
#
#
# Elastic Compliance Matrix: (Units=1/GPa)
#
#
# Indices 1 2 3 4 5 6 
#
# 1 0.012170 -0.002947 -0.003179 0.000000 0.000000 0.000000
# 2 -0.002947 0.012170 -0.003178 0.000000 0.000000 0.000000
# 3 -0.003179 -0.003178 0.009197 0.000000 0.000000 0.000000
# 4 0.000000 0.000000 0.000000 0.006588 0.000000 0.000000
# 5 0.000000 0.000000 0.000000 0.000000 0.006586 0.000000
# 6 0.000000 0.000000 0.000000 0.000000 0.000000 -0.155874
#
#
# Mechanical properties :
#
#
# Convention : Reuss Voigt Hill
#
# Bulk Modulus (GPa) = 66.97814 69.34473 68.16143
# Shear Modulus (GPa) = -58.42586 73.75937 7.66675
#
# Velocity S-wave (km/s) = -5.03351 5.65558 1.82337
# Velocity P-wave (km/s) = 2.17640 8.52752 5.83017
#
# Compressibility (1/GPa) = 0.01493025
#
# Stress axis : x y z
#
# Youngs Moduli (GPa) = 82.16662 82.16630 108.73551
#
# Poissons Ratio (x) = 0.24212 0.34562
# Poissons Ratio (y) = 0.24212 0.34560
# Poissons Ratio (z) = 0.26117 0.26115
#
# Static dielectric constant tensor:
#      x y z
#    x 3.203000 0.000000 0.000000 
#    y 0.000000 3.202230 0.000000 
#    z 0.000000 0.000000 4.413640 
# 
# 
# High freq. dielectric constant tensor:
#      x y z
#    x 1.918100 0.000000 0.000000 
#    y 0.000000 1.918100 0.000000 
#    z 0.000000 0.000000 1.933000 
# 
# From -- ./inp_files/20658.got.cif
#   From: 2010.03.12/outbox.cif.g09.slc.cpg/sg91_11_cif.got.tgz:20658.got - 2010.04.08 20:27:58.
