data_PCOD8305042
_publ_section_title
;
Structure prediction by ZEFSAII (Michael W. Deem and Ramdas Pophale) SiO2 
 PCOD8305042
Probable space group: P 41 2 2
;
_chemical_formula_sum "Si O2"
_cell_formula_units_Z 40
_cell_length_a 15.417215
_cell_length_b 15.417215
_cell_length_c 8.211405
_cell_angle_alpha 90.000000
_cell_angle_beta 90.000000
_cell_angle_gamma 90.000000
_cell_volume 1951.773111
_symmetry_space_group_name_H-M "P 41 2 2"
_symmetry_group_IT_number 91
_symmetry_cell_setting 'tetragonal'
loop_
_space_group_symop_operation_xyz
x,y,z
-y,x,1/4+z
-x,-y,1/2+z
y,-x,3/4+z
x,-y,1/2-z
-x,y,-z
y,x,3/4-z
-y,-x,1/4-z
loop_
_atom_site_type_symbol
_atom_site_label
_atom_site_fract_x
_atom_site_fract_y
_atom_site_fract_z
Si Si1 0.280422 0.379893 0.500964
Si Si2 0.384366 0.500000 0.750000
Si Si3 0.294337 0.000000 0.250000
Si Si4 0.406781 0.116998 0.465804
Si Si5 0.242422 0.164535 0.087871
Si Si6 0.102944 0.714659 0.500553
O O1 0.357434 0.357434 0.375000
O O2 0.320588 0.440939 0.640348
O O3 0.199883 0.421792 0.402108
O O4 0.244138 0.290789 0.575425
O O5 0.443427 0.556574 0.625000
O O6 0.353969 0.962950 0.107603
O O7 0.233127 0.921708 0.305399
O O8 0.500000 0.076766 0.500000
O O9 0.361693 0.140449 0.637158
O O10 0.300516 0.140766 0.930476
O O11 0.143714 0.193728 0.057945
O O12 0.000000 0.722310 0.500000
#
# Coordination Sequence:
#
# PCOD8305042 Si02
#       6
#     8   4   4   8   8   8
#     4  11  25  44  70  96 132 178 232 271 344 403
#     4  12  30  48  70  98 138 176 228 290 338 402
#     4  10  22  42  60  98 136 178 216 288 340 406
#     4  11  25  40  65  97 133 172 222 283 337 401
#     4  10  23  41  69  96 132 182 227 272 342 407
#     4  11  22  42  69  95 132 177 227 280 335 409
#
# _framework density 20.494185999999999
#
# number of rings (size 3 to 8) (size 9 to 14) (size 15 to 20)
#    0.000    1.200    4.000    0.600    9.800    0.000 
#    3.600    0.000    8.800    0.000    0.000    0.000 
#    0.000    0.000    0.000    0.000    0.000    0.000 
#
# Total GULP energy -495770.584374 kJ/mol
# GULP energy per Si atom -12394.264609 kJ/mol
# Density = 2.044754 g / cm^3
# Si number density = 20.494186 Si / 1000 Ang^3
#
#
#
# Elastic Constant Matrix: (Units=GPa)
#
#
# Indices 1 2 3 4 5 6 
#
# 1 94.5526 39.8969 42.4747 0.0000 0.0000 0.0000
# 2 39.8969 94.5530 42.4747 0.0000 0.0000 0.0000
# 3 42.4747 42.4747 112.8750 0.0000 0.0000 0.0000
# 4 0.0000 0.0000 0.0000 28.1028 0.0000 0.0000
# 5 0.0000 0.0000 0.0000 0.0000 28.1030 0.0000
# 6 0.0000 0.0000 0.0000 0.0000 0.0000 0.5600
#
#
#
# Elastic Compliance Matrix: (Units=1/GPa)
#
#
# Indices 1 2 3 4 5 6 
#
# 1 0.014027 -0.004269 -0.003672 0.000000 0.000000 0.000000
# 2 -0.004269 0.014027 -0.003672 0.000000 0.000000 0.000000
# 3 -0.003672 -0.003672 0.011623 0.000000 0.000000 0.000000
# 4 0.000000 0.000000 0.000000 0.035584 0.000000 0.000000
# 5 0.000000 0.000000 0.000000 0.000000 0.035583 0.000000
# 6 0.000000 0.000000 0.000000 0.000000 0.000000 1.785749
#
#
# Mechanical properties :
#
#
# Convention : Reuss Voigt Hill
#
# Bulk Modulus (GPa) = 60.78692 61.29700 61.04196
# Shear Modulus (GPa) = 2.59700 23.16212 12.87956
#
# Velocity S-wave (km/s) = 1.12691 3.36546 2.50961
# Velocity P-wave (km/s) = 5.60519 6.71388 6.18443
#
# Compressibility (1/GPa) = 0.01645091
#
# Stress axis : x y z
#
# Youngs Moduli (GPa) = 71.29102 71.29141 86.03818
#
# Poissons Ratio (x) = 0.30436 0.31592
# Poissons Ratio (y) = 0.30436 0.31591
# Poissons Ratio (z) = 0.26177 0.26177
#
# Static dielectric constant tensor:
#      x y z
#    x 3.594190 0.000000 0.000000 
#    y 0.000000 3.594190 0.000000 
#    z 0.000000 0.000000 4.112030 
# 
# 
# High freq. dielectric constant tensor:
#      x y z
#    x 1.793880 0.000000 0.000000 
#    y 0.000000 1.793880 0.000000 
#    z 0.000000 0.000000 1.825980 
# 
# From -- ./inp_files/2457.got.cif
#   From: 2010.03.12/outbox.cif.g09.slc.cpg/sg91_2_cif.got.tgz:2457.got - 2010.04.08 20:27:58.
