data_PCOD8305886
_publ_section_title
;
Structure prediction by ZEFSAII (Michael W. Deem and Ramdas Pophale) SiO2 
 PCOD8305886
Probable space group: P 43 21 2
;
_chemical_formula_sum "Si O2"
_cell_formula_units_Z 60
_cell_length_a 12.739991
_cell_length_b 12.739991
_cell_length_c 18.373702
_cell_angle_alpha 90.000000
_cell_angle_beta 90.000000
_cell_angle_gamma 90.000000
_cell_volume 2982.187261
_symmetry_space_group_name_H-M "P 43 21 2"
_symmetry_group_IT_number 96
_symmetry_cell_setting 'tetragonal'
loop_
_space_group_symop_operation_xyz
x,y,z
1/2-y,1/2+x,3/4+z
-x,-y,1/2+z
1/2+y,1/2-x,1/4+z
1/2+x,1/2-y,1/4-z
1/2-x,1/2+y,3/4-z
y,x,-z
-y,-x,1/2-z
loop_
_atom_site_type_symbol
_atom_site_label
_atom_site_fract_x
_atom_site_fract_y
_atom_site_fract_z
Si Si1 0.002490 0.758553 0.753937
Si Si2 0.349748 0.705983 0.053939
Si Si3 0.366996 0.388543 0.882722
Si Si4 0.008701 0.926750 0.116448
Si Si5 0.849662 0.536526 0.974198
Si Si6 0.358852 0.297053 0.732558
Si Si7 0.641663 0.641663 0.000000
Si Si8 0.950494 0.412689 0.557378
O O1 0.890699 0.818953 0.751199
O O2 0.991468 0.638311 0.777827
O O3 0.051934 0.771084 0.673252
O O4 0.079680 0.808455 0.812343
O O5 0.409690 0.654653 0.123456
O O6 0.426356 0.789452 0.016402
O O7 0.240737 0.768354 0.070068
O O8 0.454623 0.471481 0.856620
O O9 0.320489 0.325372 0.813877
O O10 0.074470 0.895466 0.045552
O O11 0.089541 0.918518 0.182721
O O12 0.898639 0.554214 0.894297
O O13 0.766442 0.627506 0.992545
O O14 0.938619 0.538367 0.035342
O O15 0.437035 0.198161 0.733382
#
# Coordination Sequence:
#
# PCOD8305886 Si02
#       8
#     8   8   8   8   8   8   4   8
#     4   9  20  39  60  82 118 157 210 244 305 353
#     4   9  20  38  56  86 120 159 189 240 313 370
#     4  10  19  36  62  85 109 162 203 256 292 355
#     4  10  19  36  58  89 119 152 195 246 308 361
#     4  11  23  38  61  90 123 164 200 244 319 367
#     4  11  21  35  58  90 123 149 203 251 298 359
#     4  10  20  38  62  88 126 156 194 248 314 386
#     4  11  23  39  57  90 123 161 198 253 302 375
#
# _framework density 20.119463
#
# number of rings (size 3 to 8) (size 9 to 14) (size 15 to 20)
#    0.000    1.867    2.667    3.600    1.867    1.067 
#    2.400    0.000    0.000    0.000    0.000    0.000 
#    0.000    0.000    0.000    0.000    0.000    0.000 
#
# Total GULP energy -743668.144858 kJ/mol
# GULP energy per Si atom -12394.469081 kJ/mol
# Density = 2.007367 g / cm^3
# Si number density = 20.119463 Si / 1000 Ang^3
#
#
#
# Elastic Constant Matrix: (Units=GPa)
#
#
# Indices 1 2 3 4 5 6 
#
# 1 82.6488 30.5424 19.2955 0.0000 0.0000 0.0000
# 2 30.5424 82.6488 19.2955 0.0000 0.0000 0.0000
# 3 19.2955 19.2955 81.6843 0.0000 0.0000 0.0000
# 4 0.0000 0.0000 0.0000 24.0989 0.0000 0.0000
# 5 0.0000 0.0000 0.0000 0.0000 24.0989 0.0000
# 6 0.0000 0.0000 0.0000 0.0000 0.0000 19.8676
#
#
#
# Elastic Compliance Matrix: (Units=1/GPa)
#
#
# Indices 1 2 3 4 5 6 
#
# 1 0.014400 -0.004792 -0.002270 0.000000 0.000000 0.000000
# 2 -0.004792 0.014400 -0.002270 0.000000 0.000000 0.000000
# 3 -0.002270 -0.002270 0.013315 0.000000 0.000000 0.000000
# 4 0.000000 0.000000 0.000000 0.041496 0.000000 0.000000
# 5 0.000000 0.000000 0.000000 0.000000 0.041496 0.000000
# 6 0.000000 0.000000 0.000000 0.000000 0.000000 0.050333
#
#
# Mechanical properties :
#
#
# Convention : Reuss Voigt Hill
#
# Bulk Modulus (GPa) = 42.63920 42.80541 42.72231
# Shear Modulus (GPa) = 24.76247 25.46964 25.11606
#
# Velocity S-wave (km/s) = 3.51204 3.56184 3.53703
# Velocity P-wave (km/s) = 6.13881 6.18364 6.16126
#
# Compressibility (1/GPa) = 0.02345260
#
# Stress axis : x y z
#
# Youngs Moduli (GPa) = 69.44461 69.44461 75.10578
#
# Poissons Ratio (x) = 0.33275 0.17047
# Poissons Ratio (y) = 0.33275 0.17047
# Poissons Ratio (z) = 0.15762 0.15762
#
# Static dielectric constant tensor:
#      x y z
#    x 3.701580 0.000000 0.000000 
#    y 0.000000 3.701580 0.000000 
#    z 0.000000 0.000000 3.531060 
# 
# 
# High freq. dielectric constant tensor:
#      x y z
#    x 1.780920 0.000000 0.000000 
#    y 0.000000 1.780920 0.000000 
#    z 0.000000 0.000000 1.768080 
# 
# From -- ./inp_files/3623.got.cif
#   From: 2010.03.12/outbox.cif.g09.slc.cpg/sg96_2_cif.got.tgz:3623.got - 2010.04.08 20:56:49.
