data_PCOD8305361
_publ_section_title
;
Structure prediction by ZEFSAII (Michael W. Deem and Ramdas Pophale) SiO2 
 PCOD8305361
Probable space group: P 41 21 2
;
_chemical_formula_sum "Si O2"
_cell_formula_units_Z 60
_cell_length_a 17.477909
_cell_length_b 17.477909
_cell_length_c 8.997251
_cell_angle_alpha 90.000000
_cell_angle_beta 90.000000
_cell_angle_gamma 90.000000
_cell_volume 2748.455970
_symmetry_space_group_name_H-M "P 41 21 2"
_symmetry_group_IT_number 92
_symmetry_cell_setting 'tetragonal'
loop_
_space_group_symop_operation_xyz
x,y,z
1/2-y,1/2+x,1/4+z
-x,-y,1/2+z
1/2+y,1/2-x,3/4+z
1/2+x,1/2-y,3/4-z
1/2-x,1/2+y,1/4-z
y,x,-z
-y,-x,1/2-z
loop_
_atom_site_type_symbol
_atom_site_label
_atom_site_fract_x
_atom_site_fract_y
_atom_site_fract_z
Si Si1 0.840788 0.737395 0.400809
Si Si2 0.326786 0.512437 0.231216
Si Si3 0.524103 0.075336 0.093972
Si Si4 0.442146 0.562496 0.024679
Si Si5 0.693544 0.851849 0.914480
Si Si6 0.306343 0.924459 0.896416
Si Si7 0.088679 0.379974 0.101615
Si Si8 0.139252 0.139252 0.500000
O O1 0.776936 0.776936 0.500000
O O2 0.919965 0.783243 0.395609
O O3 0.808029 0.725003 0.233310
O O4 0.860738 0.657075 0.473638
O O5 0.396120 0.495722 0.116451
O O6 0.359705 0.545817 0.383896
O O7 0.274787 0.438235 0.269596
O O8 0.497241 0.067933 0.267123
O O9 0.573529 0.151992 0.098414
O O10 0.465367 0.081957 0.957102
O O11 0.525587 0.525587 0.000000
O O12 0.395150 0.591285 0.884739
O O13 0.630639 0.799263 0.001324
O O14 0.768477 0.873805 0.012357
O O15 0.340050 0.008153 0.858120
O O16 0.365057 0.877920 0.996485
#
# Coordination Sequence:
#
# PCOD8305361 Si02
#       8
#     8   8   8   8   8   8   8   4
#     4  11  21  44  71  91 129 190 236 279 345 437
#     4  10  21  46  69  95 136 176 226 288 356 427
#     4  12  23  41  65 101 141 182 235 288 346 426
#     4  11  23  45  80 105 130 178 243 306 368 422
#     4  12  27  41  67 102 144 185 237 291 360 429
#     4  11  26  39  67 102 143 185 233 291 347 422
#     4  11  23  41  66 100 137 187 235 277 348 419
#     4  12  26  44  70 108 140 182 242 298 358 444
#
# _framework density 21.830438000000001
#
# number of rings (size 3 to 8) (size 9 to 14) (size 15 to 20)
#    0.000    0.800    5.333    2.400    7.467    0.000 
#    1.200    0.667    2.933    0.000    0.000    0.000 
#    0.000    0.000    0.000    0.000    0.000    0.000 
#
# Total GULP energy -743366.067127 kJ/mol
# GULP energy per Si atom -12389.434452 kJ/mol
# Density = 2.178075 g / cm^3
# Si number density = 21.830438 Si / 1000 Ang^3
#
#
#
# Elastic Constant Matrix: (Units=GPa)
#
#
# Indices 1 2 3 4 5 6 
#
# 1 71.1309 40.8280 42.0934 0.0000 0.0000 0.0000
# 2 40.8280 71.1309 42.0934 0.0000 0.0000 0.0000
# 3 42.0934 42.0934 114.7063 0.0000 0.0000 0.0000
# 4 0.0000 0.0000 0.0000 30.6676 0.0000 0.0000
# 5 0.0000 0.0000 0.0000 0.0000 30.6676 0.0000
# 6 0.0000 0.0000 0.0000 0.0000 0.0000 14.5340
#
#
#
# Elastic Compliance Matrix: (Units=1/GPa)
#
#
# Indices 1 2 3 4 5 6 
#
# 1 0.022668 -0.010332 -0.004527 0.000000 0.000000 0.000000
# 2 -0.010332 0.022668 -0.004527 0.000000 0.000000 0.000000
# 3 -0.004527 -0.004527 0.012040 0.000000 0.000000 0.000000
# 4 0.000000 0.000000 0.000000 0.032608 0.000000 0.000000
# 5 0.000000 0.000000 0.000000 0.000000 0.032608 0.000000
# 6 0.000000 0.000000 0.000000 0.000000 0.000000 0.068804
#
#
# Mechanical properties :
#
#
# Convention : Reuss Voigt Hill
#
# Bulk Modulus (GPa) = 53.75025 56.33307 55.04166
# Shear Modulus (GPa) = 21.15340 23.97075 22.56207
#
# Velocity S-wave (km/s) = 3.11623 3.31727 3.21832
# Velocity P-wave (km/s) = 6.13376 6.36657 6.25125
#
# Compressibility (1/GPa) = 0.01860457
#
# Stress axis : x y z
#
# Youngs Moduli (GPa) = 44.11515 44.11515 83.05441
#
# Poissons Ratio (x) = 0.45581 0.37597
# Poissons Ratio (y) = 0.45581 0.37597
# Poissons Ratio (z) = 0.19970 0.19970
#
# Static dielectric constant tensor:
#      x y z
#    x 4.043150 0.000000 0.000000 
#    y 0.000000 4.043150 0.000000 
#    z 0.000000 0.000000 4.166220 
# 
# 
# High freq. dielectric constant tensor:
#      x y z
#    x 1.845260 0.000000 0.000000 
#    y 0.000000 1.845260 0.000000 
#    z 0.000000 0.000000 1.875300 
# 
# From -- ./inp_files/1648.got.cif
#   From: 2010.03.12/outbox.cif.g09.slc.cpg/sg92_1_cif.got.tgz:1648.got - 2010.04.08 20:41:11.
