data_PCOD8305613
_publ_section_title
;
Structure prediction by ZEFSAII (Michael W. Deem and Ramdas Pophale) SiO2 
 PCOD8305613
Probable space group: P 42 21 2
;
_chemical_formula_sum "Si O2"
_cell_formula_units_Z 34
_cell_length_a 9.280439
_cell_length_b 9.280439
_cell_length_c 17.477562
_cell_angle_alpha 90.000000
_cell_angle_beta 90.000000
_cell_angle_gamma 90.000000
_cell_volume 1505.282083
_symmetry_space_group_name_H-M "P 42 21 2"
_symmetry_group_IT_number 94
_symmetry_cell_setting 'tetragonal'
loop_
_space_group_symop_operation_xyz
x,y,z
1/2-y,1/2+x,1/2+z
-x,-y,z
1/2+y,1/2-x,1/2+z
1/2+x,1/2-y,1/2-z
1/2-x,1/2+y,1/2-z
y,x,-z
-y,-x,-z
loop_
_atom_site_type_symbol
_atom_site_label
_atom_site_fract_x
_atom_site_fract_y
_atom_site_fract_z
Si Si1 0.333744 0.333744 0.000000
Si Si2 0.388549 0.277130 0.610666
Si Si3 0.159387 0.159387 0.500000
Si Si4 0.495748 0.667261 0.268729
Si Si5 0.000000 0.000000 0.000000
Si Si6 0.323100 0.806553 0.657690
O O1 0.312593 0.497904 0.028370
O O2 0.292851 0.236167 0.071890
O O3 0.267336 0.183407 0.570334
O O4 0.305961 0.395668 0.661001
O O5 0.496652 0.357413 0.551787
O O6 0.501985 0.178037 0.657188
O O7 0.500000 0.500000 0.244889
O O8 0.549521 0.759893 0.196574
O O9 0.336107 0.719259 0.292871
#
# Coordination Sequence:
#
# PCOD8305613 Si02
#       6
#     4   8   4   8   2   8
#     4  11  27  46  68  98 148 184 234 296 370 420
#     4  10  21  43  74 100 133 184 239 287 350 417
#     4  10  26  44  70  98 142 184 224 306 350 418
#     4  10  24  44  70 102 145 186 230 294 355 421
#     4  10  14  38  74  98 134 168 234 294 346 394
#     4  11  24  45  73 103 140 191 239 292 356 433
#
# _framework density 22.587129999999998
#
# number of rings (size 3 to 8) (size 9 to 14) (size 15 to 20)
#    0.000    1.647    3.529    0.706    9.882    2.824 
#    4.235    4.706    0.000    0.000    0.000    0.000 
#    0.000    0.000    0.000    0.000    0.000    0.000 
#
# Total GULP energy -421582.398077 kJ/mol
# GULP energy per Si atom -12399.482296 kJ/mol
# Density = 2.253572 g / cm^3
# Si number density = 22.587130 Si / 1000 Ang^3
#
#
#
# Elastic Constant Matrix: (Units=GPa)
#
#
# Indices 1 2 3 4 5 6 
#
# 1 95.3155 54.9761 34.9652 0.0000 0.0000 0.0000
# 2 54.9761 95.3155 34.9652 0.0000 0.0000 0.0000
# 3 34.9652 34.9652 99.9645 0.0000 0.0000 0.0000
# 4 0.0000 0.0000 0.0000 23.7513 0.0000 0.0000
# 5 0.0000 0.0000 0.0000 0.0000 23.7513 0.0000
# 6 0.0000 0.0000 0.0000 0.0000 0.0000 39.2464
#
#
#
# Elastic Compliance Matrix: (Units=1/GPa)
#
#
# Indices 1 2 3 4 5 6 
#
# 1 0.016368 -0.008421 -0.002780 0.000000 0.000000 0.000000
# 2 -0.008421 0.016368 -0.002780 0.000000 0.000000 0.000000
# 3 -0.002780 -0.002780 0.011948 0.000000 0.000000 0.000000
# 4 0.000000 0.000000 0.000000 0.042103 0.000000 0.000000
# 5 0.000000 0.000000 0.000000 0.000000 0.042103 0.000000
# 6 0.000000 0.000000 0.000000 0.000000 0.000000 0.025480
#
#
# Mechanical properties :
#
#
# Convention : Reuss Voigt Hill
#
# Bulk Modulus (GPa) = 59.79609 60.04539 59.92074
# Shear Modulus (GPa) = 26.60894 28.39574 27.50234
#
# Velocity S-wave (km/s) = 3.43601 3.54950 3.49321
# Velocity P-wave (km/s) = 6.50173 6.59092 6.54648
#
# Compressibility (1/GPa) = 0.01672350
#
# Stress axis : x y z
#
# Youngs Moduli (GPa) = 61.09331 61.09331 83.69521
#
# Poissons Ratio (x) = 0.51448 0.23265
# Poissons Ratio (y) = 0.51448 0.23265
# Poissons Ratio (z) = 0.16982 0.16982
#
# Static dielectric constant tensor:
#      x y z
#    x 4.274590 0.000000 0.000000 
#    y 0.000000 4.274590 0.000000 
#    z 0.000000 0.000000 4.119340 
# 
# 
# High freq. dielectric constant tensor:
#      x y z
#    x 1.890700 0.000000 0.000000 
#    y 0.000000 1.890700 0.000000 
#    z 0.000000 0.000000 1.890880 
# 
# From -- ./inp_files/4582.got.cif
#   From: 2010.03.12/outbox.cif.g09.slc.cpg/sg94_3_cif.got.tgz:4582.got - 2010.04.08 20:48:32.
