data_PCOD8305593
_publ_section_title
;
Structure prediction by ZEFSAII (Michael W. Deem and Ramdas Pophale) SiO2 
 PCOD8305593
Probable space group: P 42 2 2
;
_chemical_formula_sum "Si O2"
_cell_formula_units_Z 32
_cell_length_a 14.172247
_cell_length_b 14.172247
_cell_length_c 8.424633
_cell_angle_alpha 90.000000
_cell_angle_beta 90.000000
_cell_angle_gamma 90.000000
_cell_volume 1692.109316
_symmetry_space_group_name_H-M "P 42 2 2"
_symmetry_group_IT_number 93
_symmetry_cell_setting 'tetragonal'
loop_
_space_group_symop_operation_xyz
x,y,z
-y,x,1/2+z
-x,-y,z
y,-x,1/2+z
x,-y,-z
-x,y,-z
y,x,1/2-z
-y,-x,1/2-z
loop_
_atom_site_type_symbol
_atom_site_label
_atom_site_fract_x
_atom_site_fract_y
_atom_site_fract_z
Si Si1 0.417563 0.202518 0.620436
Si Si2 0.530138 0.658201 0.172447
Si Si3 0.401868 0.104782 0.932622
Si Si4 0.720613 0.246866 0.911698
O O1 0.500000 0.173924 0.500000
O O2 0.446485 0.293515 0.725567
O O3 0.402504 0.113652 0.740224
O O4 0.323219 0.227758 0.523164
O O5 0.558912 0.558912 0.250000
O O6 0.620619 0.724972 0.164594
O O7 0.500000 0.629647 0.000000
O O8 0.500000 0.152198 0.000000
O O9 0.304705 0.155096 0.985600
O O10 0.397863 0.000000 0.000000
O O11 0.779623 0.220378 0.750000
#
# Coordination Sequence:
#
# PCOD8305593 Si02
#       4
#     8   8   8   8
#     4  12  20  35  60  82 110 157 192 239 295 343
#     4  11  21  35  50  76 113 150 200 238 283 333
#     4  11  22  38  57  79 113 151 195 243 287 340
#     4  11  20  36  57  78 114 150 194 244 289 338
#
# _framework density 18.911308999999999
#
# number of rings (size 3 to 8) (size 9 to 14) (size 15 to 20)
#    0.000    0.750   10.000    0.750    0.000    0.000 
#    0.000   17.500    0.000    0.000    0.000    0.000 
#    0.000   12.000    0.000    0.000    0.000    0.000 
#
# Total GULP energy -396437.801453 kJ/mol
# GULP energy per Si atom -12388.681295 kJ/mol
# Density = 1.886827 g / cm^3
# Si number density = 18.911309 Si / 1000 Ang^3
#
#
#
# Elastic Constant Matrix: (Units=GPa)
#
#
# Indices 1 2 3 4 5 6 
#
# 1 40.6403 55.1800 48.9570 0.0000 0.0000 0.0000
# 2 55.1800 40.6409 48.9569 0.0000 0.0000 0.0000
# 3 48.9570 48.9569 179.8652 0.0000 0.0000 0.0000
# 4 0.0000 0.0000 0.0000 -2.3157 0.0000 0.0000
# 5 0.0000 0.0000 0.0000 0.0000 -2.3175 0.0000
# 6 0.0000 0.0000 0.0000 0.0000 0.0000 10.0938
#
#
#
# Elastic Compliance Matrix: (Units=1/GPa)
#
#
# Indices 1 2 3 4 5 6 
#
# 1 -0.027161 0.041618 -0.003935 0.000000 0.000000 0.000000
# 2 0.041618 -0.027160 -0.003935 0.000000 0.000000 0.000000
# 3 -0.003935 -0.003935 0.007702 0.000000 0.000000 0.000000
# 4 0.000000 0.000000 0.000000 -0.431834 0.000000 0.000000
# 5 0.000000 0.000000 0.000000 0.000000 -0.431500 0.000000
# 6 0.000000 0.000000 0.000000 0.000000 0.000000 0.099071
#
#
# Mechanical properties :
#
#
# Convention : Reuss Voigt Hill
#
# Bulk Modulus (GPa) = 47.90184 63.03713 55.46949
# Shear Modulus (GPa) = -5.73777 8.29561 1.27892
#
# Velocity S-wave (km/s) = -1.74374 2.09669 0.82325
# Velocity P-wave (km/s) = 4.61850 6.26633 5.50443
#
# Compressibility (1/GPa) = 0.02087603
#
# Stress axis : x y z
#
# Youngs Moduli (GPa) = -36.81743 -36.81824 129.83864
#
# Poissons Ratio (x) = 1.53230 0.51091
# Poissons Ratio (y) = 1.53227 0.51094
# Poissons Ratio (z) = -0.14488 -0.14489
#
# Static dielectric constant tensor:
#      x y z
#    x 3.979230 0.000000 0.000000 
#    y 0.000000 3.979280 0.000000 
#    z 0.000000 0.000000 4.525840 
# 
# 
# High freq. dielectric constant tensor:
#      x y z
#    x 1.689610 0.000000 0.000000 
#    y 0.000000 1.689610 0.000000 
#    z 0.000000 0.000000 1.770670 
# 
# From -- ./inp_files/1537.got.cif
#   From: 2010.03.12/outbox.cif.g09.slc.cpg/sg93_1_cif.got.tgz:1537.got - 2010.04.08 20:44:19.
