data_PCOD8305293
_publ_section_title
;
Structure prediction by ZEFSAII (Michael W. Deem and Ramdas Pophale) SiO2 
 PCOD8305293
Probable space group: P 41 21 2
;
_chemical_formula_sum "Si O2"
_cell_formula_units_Z 60
_cell_length_a 12.338829
_cell_length_b 12.338829
_cell_length_c 19.748874
_cell_angle_alpha 90.000000
_cell_angle_beta 90.000000
_cell_angle_gamma 90.000000
_cell_volume 3006.700917
_symmetry_space_group_name_H-M "P 41 21 2"
_symmetry_group_IT_number 92
_symmetry_cell_setting 'tetragonal'
loop_
_space_group_symop_operation_xyz
x,y,z
1/2-y,1/2+x,1/4+z
-x,-y,1/2+z
1/2+y,1/2-x,3/4+z
1/2+x,1/2-y,3/4-z
1/2-x,1/2+y,1/4-z
y,x,-z
-y,-x,1/2-z
loop_
_atom_site_type_symbol
_atom_site_label
_atom_site_fract_x
_atom_site_fract_y
_atom_site_fract_z
Si Si1 0.611873 0.714043 0.937100
Si Si2 0.593905 0.398194 0.393201
Si Si3 0.524253 0.475748 0.250000
Si Si4 0.010631 0.432960 0.313190
Si Si5 0.293651 0.385638 0.932809
Si Si6 0.540053 0.091188 0.820636
Si Si7 0.694912 0.779824 0.171042
Si Si8 0.100837 0.795554 0.446240
O O1 0.501422 0.646031 0.941266
O O2 0.583941 0.842129 0.935694
O O3 0.672507 0.667472 0.871064
O O4 0.689532 0.689532 0.000000
O O5 0.558102 0.403273 0.314523
O O6 0.632299 0.509145 0.425606
O O7 0.694027 0.316865 0.399180
O O8 0.400162 0.457285 0.228446
O O9 0.978634 0.535249 0.357671
O O10 0.024809 0.477308 0.237364
O O11 0.120794 0.385200 0.345603
O O12 0.167840 0.410790 0.940298
O O13 0.321446 0.313489 0.867616
O O14 0.322826 0.322826 0.000000
O O15 0.495801 0.213804 0.823359
O O16 0.684576 0.754968 0.250278
#
# Coordination Sequence:
#
# PCOD8305293 Si02
#       8
#     8   8   4   8   8   8   8   8
#     4  11  21  37  62  91 125 171 211 262 321 379
#     4  10  22  39  62  91 131 161 211 269 314 389
#     4  10  20  42  62  94 120 166 210 266 320 384
#     4  10  23  40  62  93 127 164 214 262 320 385
#     4  11  24  41  63  93 123 165 216 260 324 379
#     4  11  23  43  62  88 128 162 207 268 314 380
#     4  10  21  39  61  95 125 169 211 258 324 383
#     4  10  23  41  65  91 124 166 216 260 321 391
#
# _framework density 19.955427
#
# number of rings (size 3 to 8) (size 9 to 14) (size 15 to 20)
#    0.000    1.600    1.333    2.800    1.867    3.200 
#    2.400    2.667    0.000    0.000    0.000    0.000 
#    0.000    0.000    0.000    0.000    0.000    0.000 
#
# Total GULP energy -744046.939994 kJ/mol
# GULP energy per Si atom -12400.782333 kJ/mol
# Density = 1.991001 g / cm^3
# Si number density = 19.955427 Si / 1000 Ang^3
#
#
#
# Elastic Constant Matrix: (Units=GPa)
#
#
# Indices 1 2 3 4 5 6 
#
# 1 89.9158 33.6183 43.5060 0.0000 0.0000 0.0000
# 2 33.6183 89.9162 43.5062 0.0000 0.0000 0.0000
# 3 43.5060 43.5062 96.4273 0.0000 0.0000 0.0000
# 4 0.0000 0.0000 0.0000 34.3090 0.0000 0.0000
# 5 0.0000 0.0000 0.0000 0.0000 34.3089 0.0000
# 6 0.0000 0.0000 0.0000 0.0000 0.0000 26.3826
#
#
#
# Elastic Compliance Matrix: (Units=1/GPa)
#
#
# Indices 1 2 3 4 5 6 
#
# 1 0.014814 -0.002948 -0.005354 0.000000 0.000000 0.000000
# 2 -0.002948 0.014814 -0.005354 0.000000 0.000000 0.000000
# 3 -0.005354 -0.005354 0.015201 0.000000 0.000000 0.000000
# 4 0.000000 0.000000 0.000000 0.029147 0.000000 0.000000
# 5 0.000000 0.000000 0.000000 0.000000 0.029147 0.000000
# 6 0.000000 0.000000 0.000000 0.000000 0.000000 0.037904
#
#
# Mechanical properties :
#
#
# Convention : Reuss Voigt Hill
#
# Bulk Modulus (GPa) = 57.08246 57.50224 57.29235
# Shear Modulus (GPa) = 28.70621 29.37534 29.04078
#
# Velocity S-wave (km/s) = 3.79689 3.84089 3.81895
# Velocity P-wave (km/s) = 6.92018 6.96763 6.94394
#
# Compressibility (1/GPa) = 0.01751852
#
# Stress axis : x y z
#
# Youngs Moduli (GPa) = 67.50259 67.50271 65.78347
#
# Poissons Ratio (x) = 0.19903 0.35218
# Poissons Ratio (y) = 0.19903 0.35218
# Poissons Ratio (z) = 0.36138 0.36138
#
# Static dielectric constant tensor:
#      x y z
#    x 3.679840 0.000000 0.000000 
#    y 0.000000 3.679830 0.000000 
#    z 0.000000 0.000000 3.655810 
# 
# 
# High freq. dielectric constant tensor:
#      x y z
#    x 1.783970 0.000000 0.000000 
#    y 0.000000 1.783970 0.000000 
#    z 0.000000 0.000000 1.785470 
# 
# From -- ./inp_files/3621.got.cif
#   From: 2010.03.12/outbox.cif.g09.slc.cpg/sg92_2_cif.got.tgz:3621.got - 2010.04.08 20:41:11.
