data_PCOD8305367
_publ_section_title
;
Structure prediction by ZEFSAII (Michael W. Deem and Ramdas Pophale) SiO2 
 PCOD8305367
Probable space group: P 41 21 2
;
_chemical_formula_sum "Si O2"
_cell_formula_units_Z 40
_cell_length_a 8.743548
_cell_length_b 8.743548
_cell_length_c 23.209638
_cell_angle_alpha 90.000000
_cell_angle_beta 90.000000
_cell_angle_gamma 90.000000
_cell_volume 1774.368275
_symmetry_space_group_name_H-M "P 41 21 2"
_symmetry_group_IT_number 92
_symmetry_cell_setting 'tetragonal'
loop_
_space_group_symop_operation_xyz
x,y,z
1/2-y,1/2+x,1/4+z
-x,-y,1/2+z
1/2+y,1/2-x,3/4+z
1/2+x,1/2-y,3/4-z
1/2-x,1/2+y,1/4-z
y,x,-z
-y,-x,1/2-z
loop_
_atom_site_type_symbol
_atom_site_label
_atom_site_fract_x
_atom_site_fract_y
_atom_site_fract_z
Si Si1 0.168657 0.770021 0.576557
Si Si2 0.950909 0.821510 0.242637
Si Si3 0.398923 0.215354 0.119832
Si Si4 0.600685 0.871219 0.408784
Si Si5 0.164265 0.135937 0.565916
O O1 0.277375 0.696824 0.527827
O O2 0.170728 0.952859 0.572570
O O3 0.214712 0.717642 0.641331
O O4 0.004465 0.698708 0.561274
O O5 0.988085 0.722518 0.298671
O O6 0.065145 0.761309 0.194668
O O7 0.998328 0.001673 0.250000
O O8 0.434076 0.033590 0.117749
O O9 0.225003 0.275104 0.127950
O O10 0.496843 0.305863 0.167016
O O11 0.190146 0.190146 0.500000
#
# Coordination Sequence:
#
# PCOD8305367 Si02
#       5
#     8   8   8   8   8
#     4  11  23  42  68  97 131 174 224 281 338 401
#     4   9  21  40  59  86 126 164 206 259 323 396
#     4  10  22  40  60  91 127 166 217 261 321 404
#     4  11  22  40  65  92 127 170 216 272 329 392
#     4  11  24  44  65  94 134 170 217 277 337 403
#
# _framework density 22.543234999999999
#
# number of rings (size 3 to 8) (size 9 to 14) (size 15 to 20)
#    0.000    1.600    0.000    4.800    0.000    5.600 
#    0.000   29.000    0.000    0.000    0.000    0.000 
#    0.000    0.000    0.000    0.000    0.000    0.000 
#
# Total GULP energy -495646.627385 kJ/mol
# GULP energy per Si atom -12391.165685 kJ/mol
# Density = 2.249193 g / cm^3
# Si number density = 22.543235 Si / 1000 Ang^3
#
#
#
# Elastic Constant Matrix: (Units=GPa)
#
#
# Indices 1 2 3 4 5 6 
#
# 1 69.3026 53.5159 0.3522 0.0000 0.0000 0.0000
# 2 53.5159 69.3031 0.3539 0.0000 0.0000 0.0000
# 3 0.3522 0.3539 71.3540 0.0000 0.0000 0.0000
# 4 0.0000 0.0000 0.0000 19.2865 0.0000 0.0000
# 5 0.0000 0.0000 0.0000 0.0000 19.2873 0.0000
# 6 0.0000 0.0000 0.0000 0.0000 0.0000 37.2538
#
#
#
# Elastic Compliance Matrix: (Units=1/GPa)
#
#
# Indices 1 2 3 4 5 6 
#
# 1 0.035743 -0.027601 -0.000040 0.000000 0.000000 0.000000
# 2 -0.027601 0.035743 -0.000041 0.000000 0.000000 0.000000
# 3 -0.000040 -0.000041 0.014015 0.000000 0.000000 0.000000
# 4 0.000000 0.000000 0.000000 0.051850 0.000000 0.000000
# 5 0.000000 0.000000 0.000000 0.000000 0.051848 0.000000
# 6 0.000000 0.000000 0.000000 0.000000 0.000000 0.026843
#
#
# Mechanical properties :
#
#
# Convention : Reuss Voigt Hill
#
# Bulk Modulus (GPa) = 33.18015 35.37819 34.27917
# Shear Modulus (GPa) = 17.76514 25.54803 21.65659
#
# Velocity S-wave (km/s) = 2.81026 3.37009 3.10283
# Velocity P-wave (km/s) = 5.02797 5.55616 5.29865
#
# Compressibility (1/GPa) = 0.03013850
#
# Stress axis : x y z
#
# Youngs Moduli (GPa) = 27.97738 27.97758 71.35197
#
# Poissons Ratio (x) = 0.77220 0.00282
# Poissons Ratio (y) = 0.77220 0.00293
# Poissons Ratio (z) = 0.00111 0.00115
#
# Static dielectric constant tensor:
#      x y z
#    x 4.330800 0.000000 0.000000 
#    y 0.000000 4.330810 0.000000 
#    z 0.000000 0.000000 4.048150 
# 
# 
# High freq. dielectric constant tensor:
#      x y z
#    x 1.894280 0.000000 0.000000 
#    y 0.000000 1.894280 0.000000 
#    z 0.000000 0.000000 1.886930 
# 
# From -- ./inp_files/3755.got.cif
#   From: 2010.03.12/outbox.cif.g09.slc.cpg/sg92_2_cif.got.tgz:3755.got - 2010.04.08 20:41:11.
