data_PCOD8305053
_publ_section_title
;
Structure prediction by ZEFSAII (Michael W. Deem and Ramdas Pophale) SiO2 
 PCOD8305053
Probable space group: P 41 2 2
;
_chemical_formula_sum "Si O2"
_cell_formula_units_Z 44
_cell_length_a 9.260380
_cell_length_b 9.260380
_cell_length_c 25.775100
_cell_angle_alpha 90.000000
_cell_angle_beta 90.000000
_cell_angle_gamma 90.000000
_cell_volume 2210.334363
_symmetry_space_group_name_H-M "P 41 2 2"
_symmetry_group_IT_number 91
_symmetry_cell_setting 'tetragonal'
loop_
_space_group_symop_operation_xyz
x,y,z
-y,x,1/4+z
-x,-y,1/2+z
y,-x,3/4+z
x,-y,1/2-z
-x,y,-z
y,x,3/4-z
-y,-x,1/4-z
loop_
_atom_site_type_symbol
_atom_site_label
_atom_site_fract_x
_atom_site_fract_y
_atom_site_fract_z
Si Si1 0.159252 0.779319 0.018996
Si Si2 0.025707 0.379824 0.705941
Si Si3 0.775557 0.519198 0.045812
Si Si4 0.538817 0.926232 0.844005
Si Si5 0.452908 0.547093 0.625000
Si Si6 0.689998 0.359144 0.946177
O O1 0.243837 0.928182 0.027892
O O2 0.150264 0.684119 0.071836
O O3 0.245125 0.682591 0.976021
O O4 0.000000 0.823842 0.000000
O O5 0.021469 0.500000 0.750000
O O6 0.964554 0.446492 0.653539
O O7 0.188736 0.332568 0.694740
O O8 0.703455 0.487210 0.101213
O O9 0.944323 0.499457 0.055402
O O10 0.715745 0.401895 0.005637
O O11 0.398661 0.824854 0.840084
O O12 0.461289 0.438457 0.673654
#
# Coordination Sequence:
#
# PCOD8305053 Si02
#       6
#     8   8   8   8   4   8
#     4   9  22  41  66  92 128 172 215 260 319 390
#     4  12  25  40  64  99 131 158 225 275 314 377
#     4  10  22  43  64  92 132 170 212 258 326 386
#     4  10  23  44  65  90 130 177 207 263 327 390
#     4  12  22  38  66  94 130 158 216 270 322 378
#     4  11  25  40  64  94 126 173 210 263 325 384
#
# _framework density 19.906488
#
# number of rings (size 3 to 8) (size 9 to 14) (size 15 to 20)
#    0.000    1.455    1.818    3.818    7.636    1.455 
#    0.000    0.000    4.000    0.000    0.000    0.000 
#    0.000    0.000    0.000    0.000    0.000    0.000 
#
# Total GULP energy -545386.827938 kJ/mol
# GULP energy per Si atom -12395.155180 kJ/mol
# Density = 1.986118 g / cm^3
# Si number density = 19.906488 Si / 1000 Ang^3
#
#
#
# Elastic Constant Matrix: (Units=GPa)
#
#
# Indices 1 2 3 4 5 6 
#
# 1 109.1585 72.6017 58.3143 0.0000 0.0000 0.0000
# 2 72.6017 109.1591 58.3140 0.0000 0.0000 0.0000
# 3 58.3143 58.3140 116.5159 0.0000 0.0000 0.0000
# 4 0.0000 0.0000 0.0000 29.0432 0.0000 0.0000
# 5 0.0000 0.0000 0.0000 0.0000 29.0428 0.0000
# 6 0.0000 0.0000 0.0000 0.0000 0.0000 28.0319
#
#
#
# Elastic Compliance Matrix: (Units=1/GPa)
#
#
# Indices 1 2 3 4 5 6 
#
# 1 0.017730 -0.009625 -0.004056 0.000000 0.000000 0.000000
# 2 -0.009625 0.017729 -0.004056 0.000000 0.000000 0.000000
# 3 -0.004056 -0.004056 0.012643 0.000000 0.000000 0.000000
# 4 0.000000 0.000000 0.000000 0.034431 0.000000 0.000000
# 5 0.000000 0.000000 0.000000 0.000000 0.034432 0.000000
# 6 0.000000 0.000000 0.000000 0.000000 0.000000 0.035674
#
#
# Mechanical properties :
#
#
# Convention : Reuss Voigt Hill
#
# Bulk Modulus (GPa) = 79.19604 79.25483 79.22544
# Shear Modulus (GPa) = 25.99807 26.93047 26.46427
#
# Velocity S-wave (km/s) = 3.61780 3.68210 3.65009
# Velocity P-wave (km/s) = 7.57111 7.61427 7.59272
#
# Compressibility (1/GPa) = 0.01262689
#
# Stress axis : x y z
#
# Youngs Moduli (GPa) = 56.40304 56.40366 79.09807
#
# Poissons Ratio (x) = 0.54289 0.32084
# Poissons Ratio (y) = 0.54288 0.32082
# Poissons Ratio (z) = 0.22878 0.22877
#
# Static dielectric constant tensor:
#      x y z
#    x 3.618330 0.000000 0.000000 
#    y 0.000000 3.618330 0.000000 
#    z 0.000000 0.000000 3.841410 
# 
# 
# High freq. dielectric constant tensor:
#      x y z
#    x 1.772840 0.000000 0.000000 
#    y 0.000000 1.772840 0.000000 
#    z 0.000000 0.000000 1.795280 
# 
# From -- ./inp_files/18064.got.cif
#   From: 2010.03.12/outbox.cif.g09.slc.cpg/sg91_10_cif.got.tgz:18064.got - 2010.04.08 20:27:58.
