data_PCOD8305102
_publ_section_title
;
Structure prediction by ZEFSAII (Michael W. Deem and Ramdas Pophale) SiO2 
 PCOD8305102
Probable space group: P 41 2 2
;
_chemical_formula_sum "Si O2"
_cell_formula_units_Z 48
_cell_length_a 9.079367
_cell_length_b 9.079367
_cell_length_c 24.607803
_cell_angle_alpha 90.000000
_cell_angle_beta 90.000000
_cell_angle_gamma 90.000000
_cell_volume 2028.541906
_symmetry_space_group_name_H-M "P 41 2 2"
_symmetry_group_IT_number 91
_symmetry_cell_setting 'tetragonal'
loop_
_space_group_symop_operation_xyz
x,y,z
-y,x,1/4+z
-x,-y,1/2+z
y,-x,3/4+z
x,-y,1/2-z
-x,y,-z
y,x,3/4-z
-y,-x,1/4-z
loop_
_atom_site_type_symbol
_atom_site_label
_atom_site_fract_x
_atom_site_fract_y
_atom_site_fract_z
Si Si1 0.677488 0.904783 0.200454
Si Si2 0.515536 0.664650 0.740237
Si Si3 0.315645 0.158507 0.530316
Si Si4 0.587915 0.183760 0.136764
Si Si5 0.157572 0.078802 0.130840
Si Si6 0.582615 0.012405 0.572128
O O1 0.565490 0.780470 0.221234
O O2 0.807210 0.824487 0.168594
O O3 0.744080 0.000000 0.250000
O O4 0.595177 0.020353 0.161736
O O5 0.455131 0.500000 0.750000
O O6 0.689277 0.671644 0.752495
O O7 0.495964 0.703716 0.676399
O O8 0.159322 0.154545 0.560957
O O9 0.452872 0.137338 0.572336
O O10 0.330216 0.026278 0.485669
O O11 0.750167 0.249834 0.125000
O O12 0.495596 0.149866 0.081346
O O13 0.298975 0.970871 0.122005
O O14 0.005833 0.994168 0.125000
#
# Coordination Sequence:
#
# PCOD8305102 Si02
#       6
#     8   8   8   8   8   8
#     4  10  25  44  71 105 150 198 255 312 393 477
#     4  11  24  46  73 110 151 201 259 331 394 470
#     4  11  25  48  73 108 150 197 264 318 392 471
#     4  11  24  46  74 111 152 199 255 324 396 482
#     4  12  27  47  73 110 149 201 252 314 397 463
#     4  11  25  45  73 108 146 202 254 324 383 479
#
# _framework density 23.662313999999999
#
# number of rings (size 3 to 8) (size 9 to 14) (size 15 to 20)
#    0.000    1.000    5.000    0.500    4.667    5.333 
#    3.000    0.000    0.000    0.000    0.000    0.000 
#    0.000    0.000    0.000    0.000    0.000    0.000 
#
# Total GULP energy -594787.354209 kJ/mol
# GULP energy per Si atom -12391.403213 kJ/mol
# Density = 2.360846 g / cm^3
# Si number density = 23.662314 Si / 1000 Ang^3
#
#
#
# Elastic Constant Matrix: (Units=GPa)
#
#
# Indices 1 2 3 4 5 6 
#
# 1 135.2846 56.2905 58.5818 0.0000 0.0000 0.0000
# 2 56.2905 135.2834 58.5819 0.0000 0.0000 0.0000
# 3 58.5818 58.5819 101.9634 0.0000 0.0000 0.0000
# 4 0.0000 0.0000 0.0000 47.3449 0.0000 0.0000
# 5 0.0000 0.0000 0.0000 0.0000 47.3448 0.0000
# 6 0.0000 0.0000 0.0000 0.0000 0.0000 43.0593
#
#
#
# Elastic Compliance Matrix: (Units=1/GPa)
#
#
# Indices 1 2 3 4 5 6 
#
# 1 0.010353 -0.002306 -0.004624 0.000000 0.000000 0.000000
# 2 -0.002306 0.010354 -0.004624 0.000000 0.000000 0.000000
# 3 -0.004624 -0.004624 0.015120 0.000000 0.000000 0.000000
# 4 0.000000 0.000000 0.000000 0.021122 0.000000 0.000000
# 5 0.000000 0.000000 0.000000 0.000000 0.021122 0.000000
# 6 0.000000 0.000000 0.000000 0.000000 0.000000 0.023224
#
#
# Mechanical properties :
#
#
# Convention : Reuss Voigt Hill
#
# Bulk Modulus (GPa) = 78.61024 79.93774 79.27399
# Shear Modulus (GPa) = 38.86784 40.82162 39.84473
#
# Velocity S-wave (km/s) = 4.05730 4.15803 4.10797
# Velocity P-wave (km/s) = 7.43255 7.54376 7.48836
#
# Compressibility (1/GPa) = 0.01272099
#
# Stress axis : x y z
#
# Youngs Moduli (GPa) = 96.58658 96.58532 66.13577
#
# Poissons Ratio (x) = 0.22271 0.30579
# Poissons Ratio (y) = 0.22271 0.30579
# Poissons Ratio (z) = 0.44658 0.44658
#
# Static dielectric constant tensor:
#      x y z
#    x 4.242220 0.000000 0.000000 
#    y 0.000000 4.242220 0.000000 
#    z 0.000000 0.000000 4.417670 
# 
# 
# High freq. dielectric constant tensor:
#      x y z
#    x 1.936350 0.000000 0.000000 
#    y 0.000000 1.936350 0.000000 
#    z 0.000000 0.000000 1.931800 
# 
# From -- ./inp_files/22263.got.cif
#   From: 2010.03.12/outbox.cif.g09.slc.cpg/sg91_12_cif.got.tgz:22263.got - 2010.04.08 20:27:58.
