data_PCOD8305781
_publ_section_title
;
Structure prediction by ZEFSAII (Michael W. Deem and Ramdas Pophale) SiO2 
 PCOD8305781
Probable space group: P 42 21 2
;
_chemical_formula_sum "Si O2"
_cell_formula_units_Z 52
_cell_length_a 19.522514
_cell_length_b 19.522514
_cell_length_c 5.739976
_cell_angle_alpha 90.000000
_cell_angle_beta 90.000000
_cell_angle_gamma 90.000000
_cell_volume 2187.668746
_symmetry_space_group_name_H-M "P 42 21 2"
_symmetry_group_IT_number 94
_symmetry_cell_setting 'tetragonal'
loop_
_space_group_symop_operation_xyz
x,y,z
1/2-y,1/2+x,1/2+z
-x,-y,z
1/2+y,1/2-x,1/2+z
1/2+x,1/2-y,1/2-z
1/2-x,1/2+y,1/2-z
y,x,-z
-y,-x,-z
loop_
_atom_site_type_symbol
_atom_site_label
_atom_site_fract_x
_atom_site_fract_y
_atom_site_fract_z
Si Si1 0.544391 0.599767 0.754216
Si Si2 0.291980 0.624028 0.688945
Si Si3 0.589054 0.410947 0.000000
Si Si4 0.412951 0.156023 0.233568
Si Si5 0.814460 0.284102 0.924474
Si Si6 0.959352 0.668491 0.972698
Si Si7 0.947002 0.256123 0.652757
O O1 0.571962 0.571962 0.500000
O O2 0.466185 0.575538 0.793626
O O3 0.543041 0.681203 0.746218
O O4 0.582826 0.582826 0.000000
O O5 0.343990 0.656011 0.500000
O O6 0.336675 0.581069 0.878552
O O7 0.254853 0.686325 0.815651
O O8 0.234771 0.573014 0.595282
O O9 0.341109 0.169999 0.362171
O O10 0.477239 0.134226 0.389947
O O11 0.393607 0.094381 0.058807
O O12 0.438264 0.228582 0.120603
O O13 0.874784 0.283710 0.742308
O O14 0.793340 0.206661 0.000000
O O15 0.989639 0.696298 0.730087
#
# Coordination Sequence:
#
# PCOD8305781 Si02
#       7
#     8   8   4   8   8   8   8
#     4  12  31  52  78 113 162 216 266 323 399 488
#     4  12  25  44  79 114 151 198 257 327 400 474
#     4  12  29  48  76 110 158 208 266 328 391 476
#     4  11  26  46  76 105 152 199 259 324 393 481
#     4  11  24  41  72 112 144 186 246 321 392 474
#     4  11  26  47  73 109 148 196 258 318 398 466
#     4  11  26  46  75 103 151 201 251 329 391 472
#
# _framework density 23.769594999999999
#
# number of rings (size 3 to 8) (size 9 to 14) (size 15 to 20)
#    0.000    0.615    2.308    3.462   15.077    0.615 
#    0.000    2.308    0.000    0.000    0.000    0.000 
#    0.000    0.000    0.000    0.000    0.000    0.000 
#
# Total GULP energy -644266.069987 kJ/mol
# GULP energy per Si atom -12389.732115 kJ/mol
# Density = 2.371549 g / cm^3
# Si number density = 23.769595 Si / 1000 Ang^3
#
#
#
# Elastic Constant Matrix: (Units=GPa)
#
#
# Indices 1 2 3 4 5 6 
#
# 1 275.7524 -125.1492 38.7481 0.0000 0.0000 0.0000
# 2 -125.1492 275.7745 38.7416 0.0000 0.0000 0.0000
# 3 38.7481 38.7416 110.5168 0.0000 0.0000 0.0000
# 4 0.0000 0.0000 0.0000 14.3054 0.0000 0.0000
# 5 0.0000 0.0000 0.0000 0.0000 14.3039 0.0000
# 6 0.0000 0.0000 0.0000 0.0000 0.0000 37.6713
#
#
#
# Elastic Compliance Matrix: (Units=1/GPa)
#
#
# Indices 1 2 3 4 5 6 
#
# 1 0.005298 0.002803 -0.002840 0.000000 0.000000 0.000000
# 2 0.002803 0.005297 -0.002840 0.000000 0.000000 0.000000
# 3 -0.002840 -0.002840 0.011040 0.000000 0.000000 0.000000
# 4 0.000000 0.000000 0.000000 0.069904 0.000000 0.000000
# 5 0.000000 0.000000 0.000000 0.000000 0.069911 0.000000
# 6 0.000000 0.000000 0.000000 0.000000 0.000000 0.026545
#
#
# Mechanical properties :
#
#
# Convention : Reuss Voigt Hill
#
# Bulk Modulus (GPa) = 62.96751 62.96939 62.96845
# Shear Modulus (GPa) = 25.12038 60.56967 42.84502
#
# Velocity S-wave (km/s) = 3.25442 5.05345 4.25021
# Velocity P-wave (km/s) = 6.37730 7.78453 7.11578
#
# Compressibility (1/GPa) = 0.01588121
#
# Stress axis : x y z
#
# Youngs Moduli (GPa) = 188.76071 188.77984 90.58288
#
# Poissons Ratio (x) = -0.52918 0.25726
# Poissons Ratio (y) = -0.52912 0.25723
# Poissons Ratio (z) = 0.53609 0.53608
#
# Static dielectric constant tensor:
#      x y z
#    x 4.355240 0.000000 0.000000 
#    y 0.000000 4.355220 0.000000 
#    z 0.000000 0.000000 4.565800 
# 
# 
# High freq. dielectric constant tensor:
#      x y z
#    x 1.948110 0.000000 0.000000 
#    y 0.000000 1.948110 0.000000 
#    z 0.000000 0.000000 1.947940 
# 
# From -- ./inp_files/569.got.cif
#   From: 2010.03.12/outbox.cif.g09.slc.cpg/sg94_1_cif.got.tgz:569.got - 2010.04.08 20:48:32.
