data_PCOD8305695
_publ_section_title
;
Structure prediction by ZEFSAII (Michael W. Deem and Ramdas Pophale) SiO2 
 PCOD8305695
Probable space group: P 42 21 2
;
_chemical_formula_sum "Si O2"
_cell_formula_units_Z 32
_cell_length_a 12.398761
_cell_length_b 12.398761
_cell_length_c 9.518875
_cell_angle_alpha 90.000000
_cell_angle_beta 90.000000
_cell_angle_gamma 90.000000
_cell_volume 1463.329746
_symmetry_space_group_name_H-M "P 42 21 2"
_symmetry_group_IT_number 94
_symmetry_cell_setting 'tetragonal'
loop_
_space_group_symop_operation_xyz
x,y,z
1/2-y,1/2+x,1/2+z
-x,-y,z
1/2+y,1/2-x,1/2+z
1/2+x,1/2-y,1/2-z
1/2-x,1/2+y,1/2-z
y,x,-z
-y,-x,-z
loop_
_atom_site_type_symbol
_atom_site_label
_atom_site_fract_x
_atom_site_fract_y
_atom_site_fract_z
Si Si1 0.771892 0.349814 0.118633
Si Si2 0.604780 0.692284 0.221674
Si Si3 0.812883 0.885399 0.855547
Si Si4 0.411277 0.208127 0.921413
O O1 0.862895 0.258423 0.137203
O O2 0.716588 0.353147 0.269637
O O3 0.830734 0.464596 0.090337
O O4 0.685368 0.314633 0.000000
O O5 0.487566 0.649381 0.263500
O O6 0.686751 0.595602 0.181886
O O7 0.606512 0.767181 0.084241
O O8 0.681335 0.877834 0.875766
O O9 0.879334 0.879334 0.000000
#
# Coordination Sequence:
#
# PCOD8305695 Si02
#       4
#     8   8   8   8
#     4  11  22  40  67  95 122 169 219 257 317 393
#     4  10  22  42  65  92 130 170 207 263 324 379
#     4  11  22  42  65  95 133 162 215 273 314 379
#     4  10  21  43  65  90 132 170 205 264 328 379
#
# _framework density 21.867933000000001
#
# number of rings (size 3 to 8) (size 9 to 14) (size 15 to 20)
#    0.000    1.500    7.500    0.000    0.000    6.000 
#    0.000    3.750    0.000    0.000    0.000    0.000 
#    0.000    0.000    0.000    0.000    0.000    0.000 
#
# Total GULP energy -396445.486462 kJ/mol
# GULP energy per Si atom -12388.921452 kJ/mol
# Density = 2.181816 g / cm^3
# Si number density = 21.867933 Si / 1000 Ang^3
#
#
#
# Elastic Constant Matrix: (Units=GPa)
#
#
# Indices 1 2 3 4 5 6 
#
# 1 66.2733 4.2902 14.1788 0.0000 0.0000 0.0000
# 2 4.2902 66.2729 14.1784 0.0000 0.0000 0.0000
# 3 14.1788 14.1784 93.0513 0.0000 0.0000 0.0000
# 4 0.0000 0.0000 0.0000 32.2214 0.0000 0.0000
# 5 0.0000 0.0000 0.0000 0.0000 32.2215 0.0000
# 6 0.0000 0.0000 0.0000 0.0000 0.0000 13.8983
#
#
#
# Elastic Compliance Matrix: (Units=1/GPa)
#
#
# Indices 1 2 3 4 5 6 
#
# 1 0.015615 -0.000519 -0.002300 0.000000 0.000000 0.000000
# 2 -0.000519 0.015615 -0.002300 0.000000 0.000000 0.000000
# 3 -0.002300 -0.002300 0.011448 0.000000 0.000000 0.000000
# 4 0.000000 0.000000 0.000000 0.031035 0.000000 0.000000
# 5 0.000000 0.000000 0.000000 0.000000 0.031035 0.000000
# 6 0.000000 0.000000 0.000000 0.000000 0.000000 0.071951
#
#
# Mechanical properties :
#
#
# Convention : Reuss Voigt Hill
#
# Bulk Modulus (GPa) = 30.82717 32.32136 31.57427
# Shear Modulus (GPa) = 25.28438 28.53158 26.90798
#
# Velocity S-wave (km/s) = 3.40403 3.61601 3.51162
# Velocity P-wave (km/s) = 5.43852 5.67859 5.55985
#
# Compressibility (1/GPa) = 0.03243892
#
# Stress axis : x y z
#
# Youngs Moduli (GPa) = 64.04205 64.04175 87.35340
#
# Poissons Ratio (x) = 0.03322 0.20094
# Poissons Ratio (y) = 0.03322 0.20093
# Poissons Ratio (z) = 0.14731 0.14731
#
# Static dielectric constant tensor:
#      x y z
#    x 3.935000 0.000000 0.000000 
#    y 0.000000 3.935000 0.000000 
#    z 0.000000 0.000000 4.019580 
# 
# 
# High freq. dielectric constant tensor:
#      x y z
#    x 1.838090 0.000000 0.000000 
#    y 0.000000 1.838090 0.000000 
#    z 0.000000 0.000000 1.873060 
# 
# From -- ./inp_files/1212.got.cif
#   From: 2010.03.12/outbox.cif.g09.slc.cpg/sg94_1_cif.got.tgz:1212.got - 2010.04.08 20:48:32.
