data_PCOD8305104
_publ_section_title
;
Structure prediction by ZEFSAII (Michael W. Deem and Ramdas Pophale) SiO2 
 PCOD8305104
Probable space group: P 41 2 2
;
_chemical_formula_sum "Si O2"
_cell_formula_units_Z 40
_cell_length_a 11.070452
_cell_length_b 11.070452
_cell_length_c 16.639197
_cell_angle_alpha 90.000000
_cell_angle_beta 90.000000
_cell_angle_gamma 90.000000
_cell_volume 2039.215249
_symmetry_space_group_name_H-M "P 41 2 2"
_symmetry_group_IT_number 91
_symmetry_cell_setting 'tetragonal'
loop_
_space_group_symop_operation_xyz
x,y,z
-y,x,1/4+z
-x,-y,1/2+z
y,-x,3/4+z
x,-y,1/2-z
-x,y,-z
y,x,3/4-z
-y,-x,1/4-z
loop_
_atom_site_type_symbol
_atom_site_label
_atom_site_fract_x
_atom_site_fract_y
_atom_site_fract_z
Si Si1 0.000000 0.439317 0.500000
Si Si2 0.748083 0.927054 0.626946
Si Si3 0.193796 0.806205 0.625000
Si Si4 0.409364 0.716284 0.430694
Si Si5 0.242250 0.430806 0.970858
Si Si6 0.977958 0.868629 0.729668
O O1 0.995464 0.360106 0.420160
O O2 0.877892 0.515348 0.510217
O O3 0.697504 0.812536 0.579043
O O4 0.844962 0.880013 0.692324
O O5 0.800898 0.025788 0.565276
O O6 0.302988 0.798596 0.686384
O O7 0.065529 0.797310 0.669775
O O8 0.500000 0.763235 0.500000
O O9 0.345159 0.591829 0.460978
O O10 0.482840 0.699031 0.347606
O O11 0.033229 0.000000 0.750000
#
# Coordination Sequence:
#
# PCOD8305104 Si02
#       6
#     4   8   4   8   8   8
#     4  10  26  40  62  92 134 174 204 274 320 388
#     4  11  23  40  62  95 136 166 202 260 333 386
#     4  12  22  36  68 102 118 162 214 274 308 382
#     4  11  21  42  66  92 121 168 215 271 312 368
#     4  11  23  41  68  93 129 163 221 267 321 375
#     4  12  22  36  63  97 131 166 204 252 327 402
#
# _framework density 19.615390000000001
#
# number of rings (size 3 to 8) (size 9 to 14) (size 15 to 20)
#    0.000    0.800    7.000    0.000    4.200    0.000 
#    0.000    0.000   22.000    0.000    0.000    0.000 
#    0.000    0.000    0.000    0.000    0.000    0.000 
#
# Total GULP energy -495958.832834 kJ/mol
# GULP energy per Si atom -12398.970821 kJ/mol
# Density = 1.957074 g / cm^3
# Si number density = 19.615390 Si / 1000 Ang^3
#
#
#
# Elastic Constant Matrix: (Units=GPa)
#
#
# Indices 1 2 3 4 5 6 
#
# 1 105.5502 59.3972 56.4554 0.0000 0.0000 0.0000
# 2 59.3972 105.5510 56.4557 0.0000 0.0000 0.0000
# 3 56.4554 56.4557 98.1048 0.0000 0.0000 0.0000
# 4 0.0000 0.0000 0.0000 38.1005 0.0000 0.0000
# 5 0.0000 0.0000 0.0000 0.0000 38.1003 0.0000
# 6 0.0000 0.0000 0.0000 0.0000 0.0000 19.8444
#
#
#
# Elastic Compliance Matrix: (Units=1/GPa)
#
#
# Indices 1 2 3 4 5 6 
#
# 1 0.015835 -0.005832 -0.005756 0.000000 0.000000 0.000000
# 2 -0.005832 0.015835 -0.005756 0.000000 0.000000 0.000000
# 3 -0.005756 -0.005756 0.016818 0.000000 0.000000 0.000000
# 4 0.000000 0.000000 0.000000 0.026246 0.000000 0.000000
# 5 0.000000 0.000000 0.000000 0.000000 0.026246 0.000000
# 6 0.000000 0.000000 0.000000 0.000000 0.000000 0.050392
#
#
# Mechanical properties :
#
#
# Convention : Reuss Voigt Hill
#
# Bulk Modulus (GPa) = 72.46977 72.64695 72.55836
# Shear Modulus (GPa) = 26.22451 28.33558 27.28004
#
# Velocity S-wave (km/s) = 3.66038 3.80486 3.73332
# Velocity P-wave (km/s) = 7.40878 7.51124 7.46019
#
# Compressibility (1/GPa) = 0.01379886
#
# Stress axis : x y z
#
# Youngs Moduli (GPa) = 63.15165 63.15207 59.45956
#
# Poissons Ratio (x) = 0.36830 0.34226
# Poissons Ratio (y) = 0.36830 0.34226
# Poissons Ratio (z) = 0.36352 0.36352
#
# Static dielectric constant tensor:
#      x y z
#    x 3.683730 0.000000 0.000000 
#    y 0.000000 3.683740 0.000000 
#    z 0.000000 0.000000 3.787200 
# 
# 
# High freq. dielectric constant tensor:
#      x y z
#    x 1.759100 0.000000 0.000000 
#    y 0.000000 1.759100 0.000000 
#    z 0.000000 0.000000 1.775320 
# 
# From -- ./inp_files/11406.got.cif
#   From: 2010.03.12/outbox.cif.g09.slc.cpg/sg91_6_cif.got.tgz:11406.got - 2010.04.08 20:27:58.
