data_PCOD8305195
_publ_section_title
;
Structure prediction by ZEFSAII (Michael W. Deem and Ramdas Pophale) SiO2 
 PCOD8305195
Probable space group: P 41 21 2
;
_chemical_formula_sum "Si O2"
_cell_formula_units_Z 56
_cell_length_a 13.187749
_cell_length_b 13.187749
_cell_length_c 19.376591
_cell_angle_alpha 90.000000
_cell_angle_beta 90.000000
_cell_angle_gamma 90.000000
_cell_volume 3369.913223
_symmetry_space_group_name_H-M "P 41 21 2"
_symmetry_group_IT_number 92
_symmetry_cell_setting 'tetragonal'
loop_
_space_group_symop_operation_xyz
x,y,z
1/2-y,1/2+x,1/4+z
-x,-y,1/2+z
1/2+y,1/2-x,3/4+z
1/2+x,1/2-y,3/4-z
1/2-x,1/2+y,1/4-z
y,x,-z
-y,-x,1/2-z
loop_
_atom_site_type_symbol
_atom_site_label
_atom_site_fract_x
_atom_site_fract_y
_atom_site_fract_z
Si Si1 0.540902 0.987095 0.846000
Si Si2 0.112201 0.506828 0.515884
Si Si3 0.886994 0.722598 0.987308
Si Si4 0.267198 0.928991 0.411677
Si Si5 0.303421 0.147543 0.273817
Si Si6 0.783685 0.886035 0.163821
Si Si7 0.864936 0.997869 0.797501
O O1 0.460718 0.044657 0.796399
O O2 0.589233 0.889783 0.805390
O O3 0.629546 0.062803 0.867894
O O4 0.481954 0.950369 0.913516
O O5 0.145115 0.392424 0.499798
O O6 0.214639 0.572140 0.523175
O O7 0.923282 0.738144 0.908506
O O8 0.788854 0.788854 0.000000
O O9 0.973857 0.754525 0.040550
O O10 0.281297 0.827846 0.457681
O O11 0.173407 0.926057 0.358375
O O12 0.237987 0.213917 0.328917
O O13 0.232876 0.048679 0.255638
O O14 0.900199 0.925908 0.171731
O O15 0.938697 0.061304 0.750000
#
# Coordination Sequence:
#
# PCOD8305195 Si02
#       7
#     8   8   8   8   8   8   8
#     4  10  17  31  55  77 105 138 178 227 271 318
#     4  11  19  31  52  81 114 135 179 228 282 317
#     4  11  18  31  55  82 106 140 182 220 281 336
#     4  10  18  34  58  79 100 145 190 227 257 333
#     4   9  18  35  53  76 108 137 188 216 266 327
#     4  10  20  33  50  81 115 139 176 233 274 338
#     4   9  20  36  55  77 108 147 187 216 280 330
#
# _framework density 16.617637999999999
#
# number of rings (size 3 to 8) (size 9 to 14) (size 15 to 20)
#    0.857    1.143    5.714    0.857    0.000    0.571 
#    2.571    0.000    0.000    0.000    3.714    0.000 
#    0.000    0.000    0.000    0.000    0.000    0.000 
#
# Total GULP energy -693744.077470 kJ/mol
# GULP energy per Si atom -12388.287098 kJ/mol
# Density = 1.657982 g / cm^3
# Si number density = 16.617638 Si / 1000 Ang^3
#
#
#
# Elastic Constant Matrix: (Units=GPa)
#
#
# Indices 1 2 3 4 5 6 
#
# 1 44.7461 16.5376 32.6991 0.0000 0.0000 0.0000
# 2 16.5376 44.7467 32.6997 0.0000 0.0000 0.0000
# 3 32.6991 32.6997 95.9381 0.0000 0.0000 0.0000
# 4 0.0000 0.0000 0.0000 28.8999 0.0000 0.0000
# 5 0.0000 0.0000 0.0000 0.0000 28.8998 0.0000
# 6 0.0000 0.0000 0.0000 0.0000 0.0000 25.6663
#
#
#
# Elastic Compliance Matrix: (Units=1/GPa)
#
#
# Indices 1 2 3 4 5 6 
#
# 1 0.030548 -0.004902 -0.008741 0.000000 0.000000 0.000000
# 2 -0.004902 0.030548 -0.008741 0.000000 0.000000 0.000000
# 3 -0.008741 -0.008741 0.016382 0.000000 0.000000 0.000000
# 4 0.000000 0.000000 0.000000 0.034602 0.000000 0.000000
# 5 0.000000 0.000000 0.000000 0.000000 0.034602 0.000000
# 6 0.000000 0.000000 0.000000 0.000000 0.000000 0.038962
#
#
# Mechanical properties :
#
#
# Convention : Reuss Voigt Hill
#
# Bulk Modulus (GPa) = 30.57281 38.81150 34.69216
# Shear Modulus (GPa) = 20.71985 23.59281 22.15633
#
# Velocity S-wave (km/s) = 3.53492 3.77204 3.65540
# Velocity P-wave (km/s) = 5.92441 6.50979 6.22398
#
# Compressibility (1/GPa) = 0.03270880
#
# Stress axis : x y z
#
# Youngs Moduli (GPa) = 32.73567 32.73586 61.04320
#
# Poissons Ratio (x) = 0.16048 0.53357
# Poissons Ratio (y) = 0.16048 0.53358
# Poissons Ratio (z) = 0.28614 0.28614
#
# Static dielectric constant tensor:
#      x y z
#    x 2.929840 0.000000 0.000000 
#    y 0.000000 2.929840 0.000000 
#    z 0.000000 0.000000 3.245970 
# 
# 
# High freq. dielectric constant tensor:
#      x y z
#    x 1.617470 0.000000 0.000000 
#    y 0.000000 1.617470 0.000000 
#    z 0.000000 0.000000 1.642850 
# 
# From -- ./inp_files/3221.got.cif
#   From: 2010.03.12/outbox.cif.g09.slc.cpg/sg92_2_cif.got.tgz:3221.got - 2010.04.08 20:41:11.
