data_PCOD8305230
_publ_section_title
;
Structure prediction by ZEFSAII (Michael W. Deem and Ramdas Pophale) SiO2 
 PCOD8305230
Probable space group: P 41 21 2
;
_chemical_formula_sum "Si O2"
_cell_formula_units_Z 48
_cell_length_a 8.753589
_cell_length_b 8.753589
_cell_length_c 31.536370
_cell_angle_alpha 90.000000
_cell_angle_beta 90.000000
_cell_angle_gamma 90.000000
_cell_volume 2416.484455
_symmetry_space_group_name_H-M "P 41 21 2"
_symmetry_group_IT_number 92
_symmetry_cell_setting 'tetragonal'
loop_
_space_group_symop_operation_xyz
x,y,z
1/2-y,1/2+x,1/4+z
-x,-y,1/2+z
1/2+y,1/2-x,3/4+z
1/2+x,1/2-y,3/4-z
1/2-x,1/2+y,1/4-z
y,x,-z
-y,-x,1/2-z
loop_
_atom_site_type_symbol
_atom_site_label
_atom_site_fract_x
_atom_site_fract_y
_atom_site_fract_z
Si Si1 0.605010 0.917859 0.457012
Si Si2 0.574357 0.570510 0.790561
Si Si3 0.568366 0.585697 0.366796
Si Si4 0.404456 0.442795 0.956225
Si Si5 0.076133 0.416543 0.709958
Si Si6 0.594504 0.930743 0.621522
O O1 0.643325 0.737427 0.459863
O O2 0.520770 0.976421 0.499700
O O3 0.498535 0.952673 0.416677
O O4 0.753797 0.020187 0.449631
O O5 0.522710 0.477291 0.750000
O O6 0.468240 0.537445 0.831170
O O7 0.552874 0.747758 0.780753
O O8 0.498445 0.533835 0.413012
O O9 0.490900 0.744086 0.354026
O O10 0.748748 0.605239 0.373682
O O11 0.262463 0.554315 0.954055
O O12 0.491114 0.491114 0.000000
O O13 0.023073 0.488442 0.664947
#
# Coordination Sequence:
#
# PCOD8305230 Si02
#       6
#     8   8   8   8   8   8
#     4  10  20  38  62  85 110 147 197 241 285 343
#     4  12  23  36  58  84 114 152 195 238 288 346
#     4  10  19  34  57  88 116 150 193 234 280 339
#     4   8  16  34  59  82 108 141 184 233 277 331
#     4  10  21  36  57  84 114 148 188 239 290 338
#     4  10  20  36  60  87 119 152 192 237 284 341
#
# _framework density 19.863568000000001
#
# number of rings (size 3 to 8) (size 9 to 14) (size 15 to 20)
#    0.000    2.000    0.000    6.500    0.000    2.667 
#    0.000    1.667    0.000   15.000    0.000    0.000 
#    0.000    0.000    0.000    0.000    0.000    0.000 
#
# Total GULP energy -594849.192716 kJ/mol
# GULP energy per Si atom -12392.691515 kJ/mol
# Density = 1.981836 g / cm^3
# Si number density = 19.863568 Si / 1000 Ang^3
#
#
#
# Elastic Constant Matrix: (Units=GPa)
#
#
# Indices 1 2 3 4 5 6 
#
# 1 67.9376 19.1647 29.9722 0.0000 0.0000 0.0000
# 2 19.1647 67.9390 29.9723 0.0000 0.0000 0.0000
# 3 29.9722 29.9723 173.0800 0.0000 0.0000 0.0000
# 4 0.0000 0.0000 0.0000 31.5662 0.0000 0.0000
# 5 0.0000 0.0000 0.0000 0.0000 31.5662 0.0000
# 6 0.0000 0.0000 0.0000 0.0000 0.0000 17.8126
#
#
#
# Elastic Compliance Matrix: (Units=1/GPa)
#
#
# Indices 1 2 3 4 5 6 
#
# 1 0.016769 -0.003734 -0.002257 0.000000 0.000000 0.000000
# 2 -0.003734 0.016768 -0.002257 0.000000 0.000000 0.000000
# 3 -0.002257 -0.002257 0.006559 0.000000 0.000000 0.000000
# 4 0.000000 0.000000 0.000000 0.031679 0.000000 0.000000
# 5 0.000000 0.000000 0.000000 0.000000 0.031679 0.000000
# 6 0.000000 0.000000 0.000000 0.000000 0.000000 0.056140
#
#
# Mechanical properties :
#
#
# Convention : Reuss Voigt Hill
#
# Bulk Modulus (GPa) = 42.37468 51.90835 47.14151
# Shear Modulus (GPa) = 27.17999 31.51215 29.34607
#
# Velocity S-wave (km/s) = 3.70311 3.98732 3.84784
# Velocity P-wave (km/s) = 6.29787 6.88386 6.59737
#
# Compressibility (1/GPa) = 0.02359900
#
# Stress axis : x y z
#
# Youngs Moduli (GPa) = 59.63513 59.63644 152.45300
#
# Poissons Ratio (x) = 0.22271 0.34410
# Poissons Ratio (y) = 0.22270 0.34410
# Poissons Ratio (z) = 0.13460 0.13460
#
# Static dielectric constant tensor:
#      x y z
#    x 3.342140 0.000000 0.000000 
#    y 0.000000 3.342140 0.000000 
#    z 0.000000 0.000000 4.394250 
# 
# 
# High freq. dielectric constant tensor:
#      x y z
#    x 1.746190 0.000000 0.000000 
#    y 0.000000 1.746190 0.000000 
#    z 0.000000 0.000000 1.812780 
# 
# From -- ./inp_files/4493.got.cif
#   From: 2010.03.12/outbox.cif.g09.slc.cpg/sg92_3_cif.got.tgz:4493.got - 2010.04.08 20:41:11.
