data_PCOD8305563
_publ_section_title
;
Structure prediction by ZEFSAII (Michael W. Deem and Ramdas Pophale) SiO2 
 PCOD8305563
Probable space group: P 42 2 2
;
_chemical_formula_sum "Si O2"
_cell_formula_units_Z 32
_cell_length_a 17.885000
_cell_length_b 17.885000
_cell_length_c 5.002558
_cell_angle_alpha 90.000000
_cell_angle_beta 90.000000
_cell_angle_gamma 90.000000
_cell_volume 1600.184361
_symmetry_space_group_name_H-M "P 42 2 2"
_symmetry_group_IT_number 93
_symmetry_cell_setting 'tetragonal'
loop_
_space_group_symop_operation_xyz
x,y,z
-y,x,1/2+z
-x,-y,z
y,-x,1/2+z
x,-y,-z
-x,y,-z
y,x,1/2-z
-y,-x,1/2-z
loop_
_atom_site_type_symbol
_atom_site_label
_atom_site_fract_x
_atom_site_fract_y
_atom_site_fract_z
Si Si1 0.671225 0.450474 0.760698
Si Si2 0.549709 0.841875 0.257606
Si Si3 0.841115 0.915486 0.494187
Si Si4 0.318096 0.951687 0.731375
O O1 0.662211 0.500000 0.500000
O O2 0.626160 0.373841 0.750000
O O3 0.756646 0.427076 0.817069
O O4 0.638690 0.500000 0.000000
O O5 0.500000 0.874495 0.500000
O O6 0.625335 0.886308 0.193318
O O7 0.500000 0.848666 0.000000
O O8 0.879104 0.879104 0.250000
O O9 0.752841 0.916722 0.427417
O O10 0.871485 0.000000 0.500000
O O11 0.865117 0.865117 0.750000
O O12 0.358767 0.000000 0.500000
O O13 0.296581 0.000000 0.000000
#
# Coordination Sequence:
#
# PCOD8305563 Si02
#       4
#     8   8   8   8
#     4  10  21  37  56  82 114 148 191 239 287 345
#     4  10  22  39  59  86 119 154 196 245 296 356
#     4  11  23  40  60  86 118 152 194 243 294 352
#     4  11  23  40  61  88 120 154 198 247 296 357
#
# _framework density 19.997696000000001
#
# number of rings (size 3 to 8) (size 9 to 14) (size 15 to 20)
#    0.000    1.500    0.000    6.000    0.000    7.000 
#    0.000    5.000    0.000    0.000    0.000    0.000 
#    0.000    0.000    0.000    0.000    0.000    0.000 
#
# Total GULP energy -396580.689825 kJ/mol
# GULP energy per Si atom -12393.146557 kJ/mol
# Density = 1.995218 g / cm^3
# Si number density = 19.997696 Si / 1000 Ang^3
#
#
#
# Elastic Constant Matrix: (Units=GPa)
#
#
# Indices 1 2 3 4 5 6 
#
# 1 97.6015 64.9981 43.1122 0.0000 0.0000 0.0000
# 2 64.9981 97.6041 43.1116 0.0000 0.0000 0.0000
# 3 43.1122 43.1116 135.3045 0.0000 0.0000 0.0000
# 4 0.0000 0.0000 0.0000 36.2823 0.0000 0.0000
# 5 0.0000 0.0000 0.0000 0.0000 36.2837 0.0000
# 6 0.0000 0.0000 0.0000 0.0000 0.0000 43.9710
#
#
#
# Elastic Compliance Matrix: (Units=1/GPa)
#
#
# Indices 1 2 3 4 5 6 
#
# 1 0.019036 -0.011635 -0.002358 0.000000 0.000000 0.000000
# 2 -0.011635 0.019035 -0.002358 0.000000 0.000000 0.000000
# 3 -0.002358 -0.002358 0.008893 0.000000 0.000000 0.000000
# 4 0.000000 0.000000 0.000000 0.027562 0.000000 0.000000
# 5 0.000000 0.000000 0.000000 0.000000 0.027561 0.000000
# 6 0.000000 0.000000 0.000000 0.000000 0.000000 0.022742
#
#
# Mechanical properties :
#
#
# Convention : Reuss Voigt Hill
#
# Bulk Modulus (GPa) = 70.11503 70.32820 70.22162
# Shear Modulus (GPa) = 30.81004 35.25994 33.03499
#
# Velocity S-wave (km/s) = 3.92941 4.20360 4.06882
# Velocity P-wave (km/s) = 7.46490 7.66843 7.56735
#
# Compressibility (1/GPa) = 0.01426228
#
# Stress axis : x y z
#
# Youngs Moduli (GPa) = 52.53273 52.53464 112.44321
#
# Poissons Ratio (x) = 0.61124 0.26516
# Poissons Ratio (y) = 0.61122 0.26512
# Poissons Ratio (z) = 0.12388 0.12387
#
# Static dielectric constant tensor:
#      x y z
#    x 3.522430 0.000000 0.000000 
#    y 0.000000 3.522430 0.000000 
#    z 0.000000 0.000000 3.904460 
# 
# 
# High freq. dielectric constant tensor:
#      x y z
#    x 1.777770 0.000000 0.000000 
#    y 0.000000 1.777770 0.000000 
#    z 0.000000 0.000000 1.806750 
# 
# From -- ./inp_files/429.got.cif
#   From: 2010.03.12/outbox.cif.g09.slc.cpg/sg93_1_cif.got.tgz:429.got - 2010.04.08 20:44:19.
