data_PCOD8305760
_publ_section_title
;
Structure prediction by ZEFSAII (Michael W. Deem and Ramdas Pophale) SiO2 
 PCOD8305760
Probable space group: P 42 21 2
;
_chemical_formula_sum "Si O2"
_cell_formula_units_Z 40
_cell_length_a 19.454403
_cell_length_b 19.454403
_cell_length_c 4.812570
_cell_angle_alpha 90.000000
_cell_angle_beta 90.000000
_cell_angle_gamma 90.000000
_cell_volume 1821.431637
_symmetry_space_group_name_H-M "P 42 21 2"
_symmetry_group_IT_number 94
_symmetry_cell_setting 'tetragonal'
loop_
_space_group_symop_operation_xyz
x,y,z
1/2-y,1/2+x,1/2+z
-x,-y,z
1/2+y,1/2-x,1/2+z
1/2+x,1/2-y,1/2-z
1/2-x,1/2+y,1/2-z
y,x,-z
-y,-x,-z
loop_
_atom_site_type_symbol
_atom_site_label
_atom_site_fract_x
_atom_site_fract_y
_atom_site_fract_z
Si Si1 0.762872 0.408293 0.031286
Si Si2 0.319086 0.795147 0.461823
Si Si3 0.118867 0.058229 0.743751
Si Si4 0.174038 0.932384 0.035929
Si Si5 0.556379 0.764657 0.043959
O O1 0.793167 0.346374 0.851261
O O2 0.686193 0.422273 0.929255
O O3 0.765723 0.380145 0.345018
O O4 0.802666 0.482552 0.011385
O O5 0.248349 0.751652 0.500000
O O6 0.310150 0.876776 0.495466
O O7 0.060321 0.060321 0.500000
O O8 0.119206 0.985079 0.901466
O O9 0.111350 0.111350 0.000000
O O10 0.244673 0.939668 0.866821
O O11 0.143892 0.856109 0.000000
O O12 0.194445 0.944504 0.356444
#
# Coordination Sequence:
#
# PCOD8305760 Si02
#       5
#     8   8   8   8   8
#     4  11  23  39  60  86 121 156 191 251 318 363
#     4  12  23  38  66  95 118 154 211 259 295 368
#     4  11  21  36  56  81 117 159 202 246 297 361
#     4  11  22  38  57  81 119 163 202 245 300 363
#     4  11  24  41  61  88 124 159 195 255 324 369
#
# _framework density 21.960746
#
# number of rings (size 3 to 8) (size 9 to 14) (size 15 to 20)
#    0.000    0.800    0.000   11.400    0.000    0.400 
#    0.000    3.000    0.000    3.600    0.000    0.000 
#    0.000    0.000    0.000    0.000    0.000    0.000 
#
# Total GULP energy -495640.726315 kJ/mol
# GULP energy per Si atom -12391.018158 kJ/mol
# Density = 2.191076 g / cm^3
# Si number density = 21.960746 Si / 1000 Ang^3
#
#
#
# Elastic Constant Matrix: (Units=GPa)
#
#
# Indices 1 2 3 4 5 6 
#
# 1 68.8271 30.7724 8.9410 0.0000 0.0000 0.0000
# 2 30.7724 68.8275 8.9427 0.0000 0.0000 0.0000
# 3 8.9410 8.9427 82.1216 0.0000 0.0000 0.0000
# 4 0.0000 0.0000 0.0000 27.6664 0.0000 0.0000
# 5 0.0000 0.0000 0.0000 0.0000 27.6660 0.0000
# 6 0.0000 0.0000 0.0000 0.0000 0.0000 31.0341
#
#
#
# Elastic Compliance Matrix: (Units=1/GPa)
#
#
# Indices 1 2 3 4 5 6 
#
# 1 0.018259 -0.008019 -0.001115 0.000000 0.000000 0.000000
# 2 -0.008019 0.018259 -0.001115 0.000000 0.000000 0.000000
# 3 -0.001115 -0.001115 0.012420 0.000000 0.000000 0.000000
# 4 0.000000 0.000000 0.000000 0.036145 0.000000 0.000000
# 5 0.000000 0.000000 0.000000 0.000000 0.036145 0.000000
# 6 0.000000 0.000000 0.000000 0.000000 0.000000 0.032223
#
#
# Mechanical properties :
#
#
# Convention : Reuss Voigt Hill
#
# Bulk Modulus (GPa) = 35.16105 35.23205 35.19655
# Shear Modulus (GPa) = 27.25853 28.68131 27.96992
#
# Velocity S-wave (km/s) = 3.52694 3.61782 3.57267
# Velocity P-wave (km/s) = 5.71239 5.79047 5.75156
#
# Compressibility (1/GPa) = 0.02844056
#
# Stress axis : x y z
#
# Youngs Moduli (GPa) = 54.76717 54.76716 80.51607
#
# Poissons Ratio (x) = 0.43916 0.08976
# Poissons Ratio (y) = 0.43916 0.08980
# Poissons Ratio (z) = 0.06105 0.06108
#
# Static dielectric constant tensor:
#      x y z
#    x 3.876620 0.000000 0.000000 
#    y 0.000000 3.876620 0.000000 
#    z 0.000000 0.000000 4.315360 
# 
# 
# High freq. dielectric constant tensor:
#      x y z
#    x 1.837910 0.000000 0.000000 
#    y 0.000000 1.837910 0.000000 
#    z 0.000000 0.000000 1.896150 
# 
# From -- ./inp_files/352.got.cif
#   From: 2010.03.12/outbox.cif.g09.slc.cpg/sg94_1_cif.got.tgz:352.got - 2010.04.08 20:48:32.
