data_PCOD8305546
_publ_section_title
;
Structure prediction by ZEFSAII (Michael W. Deem and Ramdas Pophale) SiO2 
 PCOD8305546
Probable space group: P 42 2 2
;
_chemical_formula_sum "Si O2"
_cell_formula_units_Z 40
_cell_length_a 14.186131
_cell_length_b 14.186131
_cell_length_c 9.617900
_cell_angle_alpha 90.000000
_cell_angle_beta 90.000000
_cell_angle_gamma 90.000000
_cell_volume 1935.566911
_symmetry_space_group_name_H-M "P 42 2 2"
_symmetry_group_IT_number 93
_symmetry_cell_setting 'tetragonal'
loop_
_space_group_symop_operation_xyz
x,y,z
-y,x,1/2+z
-x,-y,z
y,-x,1/2+z
x,-y,-z
-x,y,-z
y,x,1/2-z
-y,-x,1/2-z
loop_
_atom_site_type_symbol
_atom_site_label
_atom_site_fract_x
_atom_site_fract_y
_atom_site_fract_z
Si Si1 0.556434 0.694931 0.786537
Si Si2 0.611021 0.791564 0.517797
Si Si3 0.771415 0.087753 0.580604
Si Si4 0.371213 0.732210 0.912488
Si Si5 0.088732 0.745068 0.602802
O O1 0.586657 0.586657 0.750000
O O2 0.616604 0.758209 0.677877
O O3 0.442841 0.704424 0.786181
O O4 0.583099 0.727342 0.938202
O O5 0.500000 0.806556 0.500000
O O6 0.669955 0.886284 0.489341
O O7 0.658778 0.716390 0.409812
O O8 0.847903 0.168232 0.552107
O O9 0.761652 0.055261 0.740054
O O10 0.813788 0.000000 0.500000
O O11 0.344296 0.841507 0.891246
O O12 0.000000 0.728932 0.500000
#
# Coordination Sequence:
#
# PCOD8305546 Si02
#       5
#     8   8   8   8   8
#     4   9  18  34  57  85 117 159 203 248 296 356
#     4  10  20  35  58  83 119 164 197 251 313 357
#     4  10  23  40  60  91 121 150 205 260 306 386
#     4   9  19  37  57  85 122 155 208 251 299 373
#     4  10  22  40  64  88 117 163 199 250 325 375
#
# _framework density 20.665782
#
# number of rings (size 3 to 8) (size 9 to 14) (size 15 to 20)
#    0.000    2.400    0.000    1.200    2.800    4.000 
#    0.000   15.000    0.000    0.000    0.000    0.000 
#    0.000    0.000    0.000    0.000    0.000    0.000 
#
# Total GULP energy -495529.032665 kJ/mol
# GULP energy per Si atom -12388.225817 kJ/mol
# Density = 2.061875 g / cm^3
# Si number density = 20.665782 Si / 1000 Ang^3
#
#
#
# Elastic Constant Matrix: (Units=GPa)
#
#
# Indices 1 2 3 4 5 6 
#
# 1 118.2960 44.3986 42.5632 0.0000 0.0000 0.0000
# 2 44.3986 118.2960 42.5632 0.0000 0.0000 0.0000
# 3 42.5632 42.5632 73.9654 0.0000 0.0000 0.0000
# 4 0.0000 0.0000 0.0000 25.0639 0.0000 0.0000
# 5 0.0000 0.0000 0.0000 0.0000 25.0639 0.0000
# 6 0.0000 0.0000 0.0000 0.0000 0.0000 20.4261
#
#
#
# Elastic Compliance Matrix: (Units=1/GPa)
#
#
# Indices 1 2 3 4 5 6 
#
# 1 0.011163 -0.002369 -0.005061 0.000000 0.000000 0.000000
# 2 -0.002369 0.011163 -0.005061 0.000000 0.000000 0.000000
# 3 -0.005061 -0.005061 0.019344 0.000000 0.000000 0.000000
# 4 0.000000 0.000000 0.000000 0.039898 0.000000 0.000000
# 5 0.000000 0.000000 0.000000 0.000000 0.039898 0.000000
# 6 0.000000 0.000000 0.000000 0.000000 0.000000 0.048957
#
#
# Mechanical properties :
#
#
# Convention : Reuss Voigt Hill
#
# Bulk Modulus (GPa) = 59.91567 63.28971 61.60269
# Shear Modulus (GPa) = 24.87956 26.17959 25.52957
#
# Velocity S-wave (km/s) = 3.47349 3.56309 3.51857
# Velocity P-wave (km/s) = 6.71882 6.90067 6.81035
#
# Compressibility (1/GPa) = 0.01669013
#
# Stress axis : x y z
#
# Youngs Moduli (GPa) = 89.57898 89.57898 51.69509
#
# Poissons Ratio (x) = 0.21221 0.26161
# Poissons Ratio (y) = 0.21221 0.26161
# Poissons Ratio (z) = 0.45333 0.45333
#
# Static dielectric constant tensor:
#      x y z
#    x 3.827590 0.000000 0.000000 
#    y 0.000000 3.827590 0.000000 
#    z 0.000000 0.000000 3.898320 
# 
# 
# High freq. dielectric constant tensor:
#      x y z
#    x 1.795320 0.000000 0.000000 
#    y 0.000000 1.795320 0.000000 
#    z 0.000000 0.000000 1.829210 
# 
# From -- ./inp_files/1805.got.cif
#   From: 2010.03.12/outbox.cif.g09.slc.cpg/sg93_1_cif.got.tgz:1805.got - 2010.04.08 20:44:19.
