data_PCOD8305999
_publ_section_title
;
Structure prediction by ZEFSAII (Michael W. Deem and Ramdas Pophale) SiO2 
 PCOD8305999
Probable space group: P 43 21 2
;
_chemical_formula_sum "Si O2"
_cell_formula_units_Z 40
_cell_length_a 7.551511
_cell_length_b 7.551511
_cell_length_c 26.130676
_cell_angle_alpha 90.000000
_cell_angle_beta 90.000000
_cell_angle_gamma 90.000000
_cell_volume 1490.110118
_symmetry_space_group_name_H-M "P 43 21 2"
_symmetry_group_IT_number 96
_symmetry_cell_setting 'tetragonal'
loop_
_space_group_symop_operation_xyz
x,y,z
1/2-y,1/2+x,3/4+z
-x,-y,1/2+z
1/2+y,1/2-x,1/4+z
1/2+x,1/2-y,1/4-z
1/2-x,1/2+y,3/4-z
y,x,-z
-y,-x,1/2-z
loop_
_atom_site_type_symbol
_atom_site_label
_atom_site_fract_x
_atom_site_fract_y
_atom_site_fract_z
Si Si1 0.242992 0.874819 0.446578
Si Si2 0.357490 0.566115 0.131676
Si Si3 0.883176 0.248737 0.179414
Si Si4 0.380503 0.619498 0.750000
Si Si5 0.464249 0.464249 0.500000
Si Si6 0.418268 0.076519 0.533722
O O1 0.353281 0.712305 0.422081
O O2 0.382826 0.992562 0.477945
O O3 0.084354 0.831789 0.486988
O O4 0.159181 0.956736 0.394556
O O5 0.370075 0.350388 0.125568
O O6 0.259549 0.604646 0.184616
O O7 0.683827 0.256121 0.202777
O O8 0.955760 0.451303 0.180637
O O9 0.020805 0.123242 0.209604
O O10 0.271197 0.497022 0.475167
#
# Coordination Sequence:
#
# PCOD8305999 Si02
#       6
#     8   8   8   4   4   8
#     4  12  26  50  82 110 157 210 268 328 407 474
#     4  12  27  49  75 123 151 207 277 326 405 490
#     4  11  29  46  79 121 153 209 268 328 404 481
#     4  11  25  50  74 114 163 207 256 334 398 475
#     4  11  23  54  74 114 155 207 266 320 398 475
#     4  12  26  52  80 111 164 214 261 341 405 474
#
# _framework density 26.843651000000001
#
# number of rings (size 3 to 8) (size 9 to 14) (size 15 to 20)
#    0.000    0.400    4.000    3.600   11.200    0.000 
#    3.600    0.000    0.000    0.000    0.000    0.000 
#    0.000    0.000    0.000    0.000    0.000    0.000 
#
# Total GULP energy -495554.448247 kJ/mol
# GULP energy per Si atom -12388.861206 kJ/mol
# Density = 2.678255 g / cm^3
# Si number density = 26.843651 Si / 1000 Ang^3
#
#
#
# Elastic Constant Matrix: (Units=GPa)
#
#
# Indices 1 2 3 4 5 6 
#
# 1 101.1403 54.4911 18.9955 0.0000 0.0000 0.0000
# 2 54.4911 101.1399 18.9953 0.0000 0.0000 0.0000
# 3 18.9955 18.9953 75.1519 0.0000 0.0000 0.0000
# 4 0.0000 0.0000 0.0000 44.4133 0.0000 0.0000
# 5 0.0000 0.0000 0.0000 0.0000 44.4133 0.0000
# 6 0.0000 0.0000 0.0000 0.0000 0.0000 46.3058
#
#
#
# Elastic Compliance Matrix: (Units=1/GPa)
#
#
# Indices 1 2 3 4 5 6 
#
# 1 0.014142 -0.007294 -0.001731 0.000000 0.000000 0.000000
# 2 -0.007294 0.014142 -0.001731 0.000000 0.000000 0.000000
# 3 -0.001731 -0.001731 0.014181 0.000000 0.000000 0.000000
# 4 0.000000 0.000000 0.000000 0.022516 0.000000 0.000000
# 5 0.000000 0.000000 0.000000 0.000000 0.022516 0.000000
# 6 0.000000 0.000000 0.000000 0.000000 0.000000 0.021596
#
#
# Mechanical properties :
#
#
# Convention : Reuss Voigt Hill
#
# Bulk Modulus (GPa) = 47.72414 51.37731 49.55073
# Shear Modulus (GPa) = 36.33983 39.35649 37.84816
#
# Velocity S-wave (km/s) = 3.68334 3.83317 3.75900
# Velocity P-wave (km/s) = 5.99220 6.22671 6.11058
#
# Compressibility (1/GPa) = 0.02095376
#
# Stress axis : x y z
#
# Youngs Moduli (GPa) = 70.70975 70.70953 70.51502
#
# Poissons Ratio (x) = 0.51578 0.12206
# Poissons Ratio (y) = 0.51578 0.12205
# Poissons Ratio (z) = 0.12239 0.12239
#
# Static dielectric constant tensor:
#      x y z
#    x 5.096140 0.000000 0.000000 
#    y 0.000000 5.096150 0.000000 
#    z 0.000000 0.000000 4.712150 
# 
# 
# High freq. dielectric constant tensor:
#      x y z
#    x 2.086970 0.000000 0.000000 
#    y 0.000000 2.086970 0.000000 
#    z 0.000000 0.000000 2.069320 
# 
# From -- ./inp_files/4171.got.cif
#   From: 2010.03.12/outbox.cif.g09.slc.cpg/sg96_3_cif.got.tgz:4171.got - 2010.04.08 20:56:49.
