data_PCOD8305140
_publ_section_title
;
Structure prediction by ZEFSAII (Michael W. Deem and Ramdas Pophale) SiO2 
 PCOD8305140
Probable space group: P 41 2 2
;
_chemical_formula_sum "Si O2"
_cell_formula_units_Z 36
_cell_length_a 11.960207
_cell_length_b 11.960207
_cell_length_c 11.889207
_cell_angle_alpha 90.000000
_cell_angle_beta 90.000000
_cell_angle_gamma 90.000000
_cell_volume 1700.710061
_symmetry_space_group_name_H-M "P 41 2 2"
_symmetry_group_IT_number 91
_symmetry_cell_setting 'tetragonal'
loop_
_space_group_symop_operation_xyz
x,y,z
-y,x,1/4+z
-x,-y,1/2+z
y,-x,3/4+z
x,-y,1/2-z
-x,y,-z
y,x,3/4-z
-y,-x,1/4-z
loop_
_atom_site_type_symbol
_atom_site_label
_atom_site_fract_x
_atom_site_fract_y
_atom_site_fract_z
Si Si1 0.454756 0.731983 0.376263
Si Si2 0.676310 0.045071 0.875027
Si Si3 0.756662 0.389617 0.926586
Si Si4 0.131659 0.168138 0.001159
Si Si5 0.500000 0.099371 0.500000
O O1 0.500000 0.713699 0.500000
O O2 0.410014 0.855649 0.359263
O O3 0.555251 0.710476 0.290691
O O4 0.351002 0.648866 0.355192
O O5 0.700824 0.000000 0.750000
O O6 0.612527 0.966175 0.964797
O O7 0.796610 0.076451 0.929195
O O8 0.823925 0.480369 0.857534
O O9 0.843457 0.289275 0.948163
O O10 0.174718 0.174718 0.875000
O O11 0.000000 0.138106 0.000000
#
# Coordination Sequence:
#
# PCOD8305140 Si02
#       5
#     8   8   8   8   4
#     4  11  22  43  67  99 135 178 231 283 347 424
#     4  11  23  42  73 104 137 186 235 293 358 423
#     4  11  25  42  67 100 135 180 232 287 350 423
#     4  11  25  44  70 107 139 184 238 286 358 436
#     4  12  24  44  72  96 138 182 234 294 356 424
#
# _framework density 21.167628000000001
#
# number of rings (size 3 to 8) (size 9 to 14) (size 15 to 20)
#    0.000    0.889    3.333    4.667    3.111    1.778 
#    6.000    2.222    0.000    0.000    0.000    0.000 
#    0.000    0.000    0.000    0.000    0.000    0.000 
#
# Total GULP energy -446345.294845 kJ/mol
# GULP energy per Si atom -12398.480412 kJ/mol
# Density = 2.111945 g / cm^3
# Si number density = 21.167628 Si / 1000 Ang^3
#
#
#
# Elastic Constant Matrix: (Units=GPa)
#
#
# Indices 1 2 3 4 5 6 
#
# 1 83.4682 74.5932 36.7502 0.0000 0.0000 0.0000
# 2 74.5932 83.4682 36.7502 0.0000 0.0000 0.0000
# 3 36.7502 36.7502 114.5690 0.0000 0.0000 0.0000
# 4 0.0000 0.0000 0.0000 37.3179 0.0000 0.0000
# 5 0.0000 0.0000 0.0000 0.0000 37.3179 0.0000
# 6 0.0000 0.0000 0.0000 0.0000 0.0000 12.9526
#
#
#
# Elastic Compliance Matrix: (Units=1/GPa)
#
#
# Indices 1 2 3 4 5 6 
#
# 1 0.060056 -0.052620 -0.002385 0.000000 0.000000 0.000000
# 2 -0.052620 0.060056 -0.002385 0.000000 0.000000 0.000000
# 3 -0.002385 -0.002385 0.010259 0.000000 0.000000 0.000000
# 4 0.000000 0.000000 0.000000 0.026797 0.000000 0.000000
# 5 0.000000 0.000000 0.000000 0.000000 0.026797 0.000000
# 6 0.000000 0.000000 0.000000 0.000000 0.000000 0.077204
#
#
# Mechanical properties :
#
#
# Convention : Reuss Voigt Hill
#
# Bulk Modulus (GPa) = 64.14601 64.18806 64.16704
# Shear Modulus (GPa) = 13.11835 26.41183 19.76509
#
# Velocity S-wave (km/s) = 2.49215 3.53618 3.05903
# Velocity P-wave (km/s) = 6.21697 6.86019 6.54649
#
# Compressibility (1/GPa) = 0.01558943
#
# Stress axis : x y z
#
# Youngs Moduli (GPa) = 16.65118 16.65118 97.47978
#
# Poissons Ratio (x) = 0.87619 0.23251
# Poissons Ratio (y) = 0.87619 0.23251
# Poissons Ratio (z) = 0.03972 0.03972
#
# Static dielectric constant tensor:
#      x y z
#    x 3.890640 0.000000 0.000000 
#    y 0.000000 3.890640 0.000000 
#    z 0.000000 0.000000 3.775240 
# 
# 
# High freq. dielectric constant tensor:
#      x y z
#    x 1.833300 0.000000 0.000000 
#    y 0.000000 1.833300 0.000000 
#    z 0.000000 0.000000 1.838930 
# 
# From -- ./inp_files/3500.got.cif
#   From: 2010.03.12/outbox.cif.g09.slc.cpg/sg91_2_cif.got.tgz:3500.got - 2010.04.08 20:27:58.
