data_PCOD8305763
_publ_section_title
;
Structure prediction by ZEFSAII (Michael W. Deem and Ramdas Pophale) SiO2 
 PCOD8305763
Probable space group: P 42 21 2
;
_chemical_formula_sum "Si O2"
_cell_formula_units_Z 48
_cell_length_a 9.052400
_cell_length_b 9.052400
_cell_length_c 27.690891
_cell_angle_alpha 90.000000
_cell_angle_beta 90.000000
_cell_angle_gamma 90.000000
_cell_volume 2269.156252
_symmetry_space_group_name_H-M "P 42 21 2"
_symmetry_group_IT_number 94
_symmetry_cell_setting 'tetragonal'
loop_
_space_group_symop_operation_xyz
x,y,z
1/2-y,1/2+x,1/2+z
-x,-y,z
1/2+y,1/2-x,1/2+z
1/2+x,1/2-y,1/2-z
1/2-x,1/2+y,1/2-z
y,x,-z
-y,-x,-z
loop_
_atom_site_type_symbol
_atom_site_label
_atom_site_fract_x
_atom_site_fract_y
_atom_site_fract_z
Si Si1 0.751217 0.310396 0.446878
Si Si2 0.075304 0.842028 0.218656
Si Si3 0.156222 0.575855 0.800165
Si Si4 0.345523 0.222774 0.548539
Si Si5 0.477251 0.330227 0.384682
Si Si6 0.175285 0.002159 0.604162
O O1 0.762068 0.237933 0.500000
O O2 0.805434 0.479535 0.449961
O O3 0.586885 0.284112 0.427218
O O4 0.835343 0.224794 0.404531
O O5 0.254045 0.861307 0.216977
O O6 0.015037 0.762333 0.169243
O O7 0.027866 0.730538 0.260218
O O8 0.000000 0.000000 0.228958
O O9 0.258826 0.571035 0.847401
O O10 0.000000 0.500000 0.812858
O O11 0.307778 0.307778 0.500000
O O12 0.296256 0.316732 0.594829
O O13 0.246046 0.077619 0.555756
O O14 0.500000 0.500000 0.373438
O O15 0.000000 0.000000 0.605439
#
# Coordination Sequence:
#
# PCOD8305763 Si02
#       6
#     8   8   8   8   8   8
#     4  11  23  41  69 103 133 186 233 285 339 412
#     4  11  24  45  73 106 143 178 232 291 354 419
#     4  12  26  47  76 103 136 188 234 290 356 421
#     4  11  21  42  70  98 137 180 232 285 338 411
#     4   9  20  39  69 101 133 172 230 286 335 399
#     4  12  29  46  65  97 147 185 229 283 353 410
#
# _framework density 21.153234999999999
#
# number of rings (size 3 to 8) (size 9 to 14) (size 15 to 20)
#    0.000    1.000    3.333    3.000    9.333    0.000 
#    0.000    0.833    0.000    0.000    0.000    0.000 
#    0.000    0.000    0.000    0.000    0.000    0.000 
#
# Total GULP energy -594799.441276 kJ/mol
# GULP energy per Si atom -12391.655027 kJ/mol
# Density = 2.110509 g / cm^3
# Si number density = 21.153235 Si / 1000 Ang^3
#
#
#
# Elastic Constant Matrix: (Units=GPa)
#
#
# Indices 1 2 3 4 5 6 
#
# 1 104.3099 53.1764 36.6019 0.0000 0.0000 0.0000
# 2 53.1764 104.3098 36.6017 0.0000 0.0000 0.0000
# 3 36.6019 36.6017 113.2004 0.0000 0.0000 0.0000
# 4 0.0000 0.0000 0.0000 37.3349 0.0000 0.0000
# 5 0.0000 0.0000 0.0000 0.0000 37.3348 0.0000
# 6 0.0000 0.0000 0.0000 0.0000 0.0000 28.8862
#
#
#
# Elastic Compliance Matrix: (Units=1/GPa)
#
#
# Indices 1 2 3 4 5 6 
#
# 1 0.013515 -0.006042 -0.002416 0.000000 0.000000 0.000000
# 2 -0.006042 0.013515 -0.002416 0.000000 0.000000 0.000000
# 3 -0.002416 -0.002416 0.010396 0.000000 0.000000 0.000000
# 4 0.000000 0.000000 0.000000 0.026785 0.000000 0.000000
# 5 0.000000 0.000000 0.000000 0.000000 0.026785 0.000000
# 6 0.000000 0.000000 0.000000 0.000000 0.000000 0.034619
#
#
# Mechanical properties :
#
#
# Convention : Reuss Voigt Hill
#
# Bulk Modulus (GPa) = 63.78698 63.84223 63.81461
# Shear Modulus (GPa) = 32.76790 33.74053 33.25421
#
# Velocity S-wave (km/s) = 3.94010 3.99814 3.96923
# Velocity P-wave (km/s) = 7.13578 7.18052 7.15818
#
# Compressibility (1/GPa) = 0.01567718
#
# Stress axis : x y z
#
# Youngs Moduli (GPa) = 73.99300 73.99299 96.18701
#
# Poissons Ratio (x) = 0.44706 0.23241
# Poissons Ratio (y) = 0.44706 0.23241
# Poissons Ratio (z) = 0.17879 0.17879
#
# Static dielectric constant tensor:
#      x y z
#    x 3.758760 0.000000 0.000000 
#    y 0.000000 3.758760 0.000000 
#    z 0.000000 0.000000 4.003480 
# 
# 
# High freq. dielectric constant tensor:
#      x y z
#    x 1.824890 0.000000 0.000000 
#    y 0.000000 1.824890 0.000000 
#    z 0.000000 0.000000 1.847530 
# 
# From -- ./inp_files/5556.got.cif
#   From: 2010.03.12/outbox.cif.g09.slc.cpg/sg94_3_cif.got.tgz:5556.got - 2010.04.08 20:48:32.
