data_PCOD8305926
_publ_section_title
;
Structure prediction by ZEFSAII (Michael W. Deem and Ramdas Pophale) SiO2 
 PCOD8305926
Probable space group: P 43 21 2
;
_chemical_formula_sum "Si O2"
_cell_formula_units_Z 40
_cell_length_a 8.951910
_cell_length_b 8.951910
_cell_length_c 25.393205
_cell_angle_alpha 90.000000
_cell_angle_beta 90.000000
_cell_angle_gamma 90.000000
_cell_volume 2034.927464
_symmetry_space_group_name_H-M "P 43 21 2"
_symmetry_group_IT_number 96
_symmetry_cell_setting 'tetragonal'
loop_
_space_group_symop_operation_xyz
x,y,z
1/2-y,1/2+x,3/4+z
-x,-y,1/2+z
1/2+y,1/2-x,1/4+z
1/2+x,1/2-y,1/4-z
1/2-x,1/2+y,3/4-z
y,x,-z
-y,-x,1/2-z
loop_
_atom_site_type_symbol
_atom_site_label
_atom_site_fract_x
_atom_site_fract_y
_atom_site_fract_z
Si Si1 0.136866 0.253782 0.799171
Si Si2 0.383119 0.387999 0.731377
Si Si3 0.733430 0.032966 0.261494
Si Si4 0.514389 0.096850 0.694836
Si Si5 0.652214 0.979906 0.597090
O O1 0.292606 0.327686 0.781466
O O2 0.994602 0.349191 0.776503
O O3 0.129731 0.257324 0.862924
O O4 0.136869 0.084407 0.777811
O O5 0.460510 0.539491 0.750000
O O6 0.508957 0.269205 0.712761
O O7 0.270140 0.417668 0.683497
O O8 0.808142 0.191859 0.250000
O O9 0.616258 0.049343 0.308687
O O10 0.644524 0.978663 0.209735
O O11 0.540706 0.085498 0.631661
#
# Coordination Sequence:
#
# PCOD8305926 Si02
#       5
#     8   8   8   8   8
#     4   9  23  40  59  93 123 158 211 254 319 371
#     4  11  22  43  65  91 128 168 209 268 319 372
#     4  11  22  39  65  90 124 166 204 272 308 367
#     4   9  23  42  59  91 126 164 203 263 313 379
#     4  10  21  40  64  93 121 165 212 258 305 396
#
# _framework density 19.656718999999999
#
# number of rings (size 3 to 8) (size 9 to 14) (size 15 to 20)
#    1.200    0.800    2.000    0.600    5.600    0.800 
#   14.400    0.000    0.000    0.000    0.000    0.000 
#    0.000    0.000    0.000    0.000    0.000    0.000 
#
# Total GULP energy -495730.552614 kJ/mol
# GULP energy per Si atom -12393.263815 kJ/mol
# Density = 1.961198 g / cm^3
# Si number density = 19.656719 Si / 1000 Ang^3
#
#
#
# Elastic Constant Matrix: (Units=GPa)
#
#
# Indices 1 2 3 4 5 6 
#
# 1 78.8206 41.1786 31.4589 0.0000 0.0000 0.0000
# 2 41.1786 78.8172 31.4581 0.0000 0.0000 0.0000
# 3 31.4589 31.4581 80.8155 0.0000 0.0000 0.0000
# 4 0.0000 0.0000 0.0000 31.6880 0.0000 0.0000
# 5 0.0000 0.0000 0.0000 0.0000 31.6876 0.0000
# 6 0.0000 0.0000 0.0000 0.0000 0.0000 49.9281
#
#
#
# Elastic Compliance Matrix: (Units=1/GPa)
#
#
# Indices 1 2 3 4 5 6 
#
# 1 0.018519 -0.008048 -0.004076 0.000000 0.000000 0.000000
# 2 -0.008048 0.018519 -0.004076 0.000000 0.000000 0.000000
# 3 -0.004076 -0.004076 0.015547 0.000000 0.000000 0.000000
# 4 0.000000 0.000000 0.000000 0.031558 0.000000 0.000000
# 5 0.000000 0.000000 0.000000 0.000000 0.031558 0.000000
# 6 0.000000 0.000000 0.000000 0.000000 0.000000 0.020029
#
#
# Mechanical properties :
#
#
# Convention : Reuss Voigt Hill
#
# Bulk Modulus (GPa) = 49.54206 49.62715 49.58461
# Shear Modulus (GPa) = 28.59469 31.61791 30.10630
#
# Velocity S-wave (km/s) = 3.81819 4.01497 3.91782
# Velocity P-wave (km/s) = 6.68554 6.84069 6.76356
#
# Compressibility (1/GPa) = 0.02018487
#
# Stress axis : x y z
#
# Youngs Moduli (GPa) = 54.00004 53.99772 64.32115
#
# Poissons Ratio (x) = 0.43459 0.26216
# Poissons Ratio (y) = 0.43461 0.26216
# Poissons Ratio (z) = 0.22009 0.22009
#
# Static dielectric constant tensor:
#      x y z
#    x 3.450840 0.000000 0.000000 
#    y 0.000000 3.450840 0.000000 
#    z 0.000000 0.000000 3.465790 
# 
# 
# High freq. dielectric constant tensor:
#      x y z
#    x 1.759700 0.000000 0.000000 
#    y 0.000000 1.759700 0.000000 
#    z 0.000000 0.000000 1.757870 
# 
# From -- ./inp_files/4132.got.cif
#   From: 2010.03.12/outbox.cif.g09.slc.cpg/sg96_3_cif.got.tgz:4132.got - 2010.04.08 20:56:49.
