data_PCOD8305765
_publ_section_title
;
Structure prediction by ZEFSAII (Michael W. Deem and Ramdas Pophale) SiO2 
 PCOD8305765
Probable space group: P 42 21 2
;
_chemical_formula_sum "Si O2"
_cell_formula_units_Z 24
_cell_length_a 7.835704
_cell_length_b 7.835704
_cell_length_c 17.252196
_cell_angle_alpha 90.000000
_cell_angle_beta 90.000000
_cell_angle_gamma 90.000000
_cell_volume 1059.254767
_symmetry_space_group_name_H-M "P 42 21 2"
_symmetry_group_IT_number 94
_symmetry_cell_setting 'tetragonal'
loop_
_space_group_symop_operation_xyz
x,y,z
1/2-y,1/2+x,1/2+z
-x,-y,z
1/2+y,1/2-x,1/2+z
1/2+x,1/2-y,1/2-z
1/2-x,1/2+y,1/2-z
y,x,-z
-y,-x,-z
loop_
_atom_site_type_symbol
_atom_site_label
_atom_site_fract_x
_atom_site_fract_y
_atom_site_fract_z
Si Si1 0.636932 0.313585 0.411700
Si Si2 0.829343 0.191749 0.836152
Si Si3 0.688057 0.558369 0.829843
O O1 0.628011 0.371990 0.500000
O O2 0.449863 0.233852 0.391172
O O3 0.669434 0.469638 0.351903
O O4 0.798309 0.190269 0.397606
O O5 0.795769 0.391128 0.854116
O O6 0.759317 0.149621 0.750398
O O7 0.500000 0.500000 0.817576
#
# Coordination Sequence:
#
# PCOD8305765 Si02
#       3
#     8   8   8
#     4  11  25  47  68  98 141 185 232 290 355 411
#     4  11  21  44  73  95 135 185 229 284 345 423
#     4  12  23  41  70 103 135 177 237 285 343 424
#
# _framework density 22.657436000000001
#
# number of rings (size 3 to 8) (size 9 to 14) (size 15 to 20)
#    0.000    0.667    6.667    3.000    0.000    2.000 
#   18.000    0.000    0.000    0.000    0.000    0.000 
#    0.000    0.000    0.000    0.000    0.000    0.000 
#
# Total GULP energy -297318.472777 kJ/mol
# GULP energy per Si atom -12388.269699 kJ/mol
# Density = 2.260587 g / cm^3
# Si number density = 22.657436 Si / 1000 Ang^3
#
#
#
# Elastic Constant Matrix: (Units=GPa)
#
#
# Indices 1 2 3 4 5 6 
#
# 1 84.5132 4.9300 29.5850 0.0000 0.0000 0.0000
# 2 4.9300 84.5130 29.5851 0.0000 0.0000 0.0000
# 3 29.5850 29.5851 114.1221 0.0000 0.0000 0.0000
# 4 0.0000 0.0000 0.0000 17.8780 0.0000 0.0000
# 5 0.0000 0.0000 0.0000 0.0000 17.8776 0.0000
# 6 0.0000 0.0000 0.0000 0.0000 0.0000 30.4576
#
#
#
# Elastic Compliance Matrix: (Units=1/GPa)
#
#
# Indices 1 2 3 4 5 6 
#
# 1 0.013030 0.000465 -0.003498 0.000000 0.000000 0.000000
# 2 0.000465 0.013030 -0.003498 0.000000 0.000000 0.000000
# 3 -0.003498 -0.003498 0.010576 0.000000 0.000000 0.000000
# 4 0.000000 0.000000 0.000000 0.055935 0.000000 0.000000
# 5 0.000000 0.000000 0.000000 0.000000 0.055936 0.000000
# 6 0.000000 0.000000 0.000000 0.000000 0.000000 0.032833
#
#
# Mechanical properties :
#
#
# Convention : Reuss Voigt Hill
#
# Bulk Modulus (GPa) = 42.42293 45.70541 44.06417
# Shear Modulus (GPa) = 24.72052 27.84586 26.28319
#
# Velocity S-wave (km/s) = 3.30670 3.50950 3.40961
# Velocity P-wave (km/s) = 5.77436 6.05296 5.91530
#
# Compressibility (1/GPa) = 0.02357216
#
# Stress axis : x y z
#
# Youngs Moduli (GPa) = 76.74594 76.74567 94.55046
#
# Poissons Ratio (x) = -0.03565 0.33077
# Poissons Ratio (y) = -0.03565 0.33077
# Poissons Ratio (z) = 0.26848 0.26848
#
# Static dielectric constant tensor:
#      x y z
#    x 6.194490 0.000000 0.000000 
#    y 0.000000 6.194510 0.000000 
#    z 0.000000 0.000000 3.892770 
# 
# 
# High freq. dielectric constant tensor:
#      x y z
#    x 1.895230 0.000000 0.000000 
#    y 0.000000 1.895230 0.000000 
#    z 0.000000 0.000000 1.878450 
# 
# From -- ./inp_files/3060.got.cif
#   From: 2010.03.12/outbox.cif.g09.slc.cpg/sg94_2_cif.got.tgz:3060.got - 2010.04.08 20:48:32.
