data_PCOD8305640
_publ_section_title
;
Structure prediction by ZEFSAII (Michael W. Deem and Ramdas Pophale) SiO2 
 PCOD8305640
Probable space group: P 42 21 2
;
_chemical_formula_sum "Si O2"
_cell_formula_units_Z 48
_cell_length_a 11.579584
_cell_length_b 11.579584
_cell_length_c 19.580239
_cell_angle_alpha 90.000000
_cell_angle_beta 90.000000
_cell_angle_gamma 90.000000
_cell_volume 2625.450917
_symmetry_space_group_name_H-M "P 42 21 2"
_symmetry_group_IT_number 94
_symmetry_cell_setting 'tetragonal'
loop_
_space_group_symop_operation_xyz
x,y,z
1/2-y,1/2+x,1/2+z
-x,-y,z
1/2+y,1/2-x,1/2+z
1/2+x,1/2-y,1/2-z
1/2-x,1/2+y,1/2-z
y,x,-z
-y,-x,-z
loop_
_atom_site_type_symbol
_atom_site_label
_atom_site_fract_x
_atom_site_fract_y
_atom_site_fract_z
Si Si1 0.139200 0.366142 0.179257
Si Si2 0.740376 0.795930 0.071338
Si Si3 0.682966 0.776610 0.676545
Si Si4 0.610890 0.880580 0.295348
Si Si5 0.875963 0.527483 0.855036
Si Si6 0.125351 0.965255 0.071626
O O1 0.194353 0.289055 0.121799
O O2 0.218929 0.367306 0.247016
O O3 0.124913 0.501294 0.161889
O O4 0.009366 0.315239 0.187298
O O5 0.608708 0.806533 0.094479
O O6 0.802118 0.918675 0.060080
O O7 0.731451 0.731451 0.000000
O O8 0.808898 0.721904 0.682681
O O9 0.608816 0.696326 0.626330
O O10 0.695611 0.908594 0.651260
O O11 0.600906 0.903118 0.213951
O O12 0.000000 0.500000 0.887975
O O13 0.104672 0.895329 0.000000
O O14 0.000000 0.000000 0.101985
#
# Coordination Sequence:
#
# PCOD8305640 Si02
#       6
#     8   8   8   8   8   8
#     4  10  21  38  62  89 120 162 204 255 317 368
#     4  12  23  41  61  86 127 164 209 258 317 385
#     4  11  21  38  65  88 125 163 207 259 309 378
#     4  10  19  38  62  92 122 153 208 263 304 372
#     4  11  20  40  62  90 125 168 202 254 319 377
#     4  11  22  39  60  95 129 159 204 270 323 368
#
# _framework density 18.282574
#
# number of rings (size 3 to 8) (size 9 to 14) (size 15 to 20)
#    0.000    1.167    8.333    1.000    0.000    0.000 
#    6.000    0.833    0.000    1.000    0.000    0.000 
#    0.000    0.000    0.000    0.000    0.000    0.000 
#
# Total GULP energy -594820.797716 kJ/mol
# GULP energy per Si atom -12392.099952 kJ/mol
# Density = 1.824096 g / cm^3
# Si number density = 18.282574 Si / 1000 Ang^3
#
#
#
# Elastic Constant Matrix: (Units=GPa)
#
#
# Indices 1 2 3 4 5 6 
#
# 1 166.3082 -9.0259 51.9773 0.0000 0.0000 0.0000
# 2 -9.0259 166.3091 51.9773 0.0000 0.0000 0.0000
# 3 51.9773 51.9773 114.4660 0.0000 0.0000 0.0000
# 4 0.0000 0.0000 0.0000 20.6995 0.0000 0.0000
# 5 0.0000 0.0000 0.0000 0.0000 20.6994 0.0000
# 6 0.0000 0.0000 0.0000 0.0000 0.0000 30.9722
#
#
#
# Elastic Compliance Matrix: (Units=1/GPa)
#
#
# Indices 1 2 3 4 5 6 
#
# 1 0.007394 0.001691 -0.004125 0.000000 0.000000 0.000000
# 2 0.001691 0.007394 -0.004125 0.000000 0.000000 0.000000
# 3 -0.004125 -0.004125 0.012483 0.000000 0.000000 0.000000
# 4 0.000000 0.000000 0.000000 0.048310 0.000000 0.000000
# 5 0.000000 0.000000 0.000000 0.000000 0.048311 0.000000
# 6 0.000000 0.000000 0.000000 0.000000 0.000000 0.032287
#
#
# Mechanical properties :
#
#
# Convention : Reuss Voigt Hill
#
# Bulk Modulus (GPa) = 70.66662 70.77120 70.71891
# Shear Modulus (GPa) = 28.73321 37.95119 33.34220
#
# Velocity S-wave (km/s) = 3.96866 4.56105 4.27513
# Velocity P-wave (km/s) = 7.72896 8.15667 7.94569
#
# Compressibility (1/GPa) = 0.01415095
#
# Stress axis : x y z
#
# Youngs Moduli (GPa) = 135.24615 135.24698 80.11202
#
# Poissons Ratio (x) = -0.22864 0.33047
# Poissons Ratio (y) = -0.22864 0.33047
# Poissons Ratio (z) = 0.55791 0.55791
#
# Static dielectric constant tensor:
#      x y z
#    x 3.498940 0.000000 0.000000 
#    y 0.000000 3.498940 0.000000 
#    z 0.000000 0.000000 3.346190 
# 
# 
# High freq. dielectric constant tensor:
#      x y z
#    x 1.710990 0.000000 0.000000 
#    y 0.000000 1.710990 0.000000 
#    z 0.000000 0.000000 1.692350 
# 
# From -- ./inp_files/4089.got.cif
#   From: 2010.03.12/outbox.cif.g09.slc.cpg/sg94_3_cif.got.tgz:4089.got - 2010.04.08 20:48:32.
