data_PCOD8305394
_publ_section_title
;
Structure prediction by ZEFSAII (Michael W. Deem and Ramdas Pophale) SiO2 
 PCOD8305394
Probable space group: P 41 21 2
;
_chemical_formula_sum "Si O2"
_cell_formula_units_Z 32
_cell_length_a 9.858623
_cell_length_b 9.858623
_cell_length_c 16.814225
_cell_angle_alpha 90.000000
_cell_angle_beta 90.000000
_cell_angle_gamma 90.000000
_cell_volume 1634.215680
_symmetry_space_group_name_H-M "P 41 21 2"
_symmetry_group_IT_number 92
_symmetry_cell_setting 'tetragonal'
loop_
_space_group_symop_operation_xyz
x,y,z
1/2-y,1/2+x,1/4+z
-x,-y,1/2+z
1/2+y,1/2-x,3/4+z
1/2+x,1/2-y,3/4-z
1/2-x,1/2+y,1/4-z
y,x,-z
-y,-x,1/2-z
loop_
_atom_site_type_symbol
_atom_site_label
_atom_site_fract_x
_atom_site_fract_y
_atom_site_fract_z
Si Si1 0.223290 0.658011 0.042547
Si Si2 0.600671 0.819794 0.204810
Si Si3 0.482924 0.275817 0.537981
Si Si4 0.172965 0.377018 0.965578
O O1 0.382702 0.642217 0.067309
O O2 0.130881 0.666792 0.120550
O O3 0.206402 0.796922 0.991395
O O4 0.174271 0.533982 0.988978
O O5 0.586899 0.802075 0.110854
O O6 0.456619 0.802047 0.247288
O O7 0.663117 0.969662 0.223146
O O8 0.377287 0.377287 0.500000
O O9 0.307142 0.307142 0.000000
#
# Coordination Sequence:
#
# PCOD8305394 Si02
#       4
#     8   8   8   8
#     4  10  24  39  69 102 130 183 224 287 336 413
#     4  10  23  42  64 101 138 176 225 288 336 407
#     4  10  22  44  66  97 142 174 228 287 342 407
#     4  12  20  42  71  98 138 178 234 277 343 409
#
# _framework density 19.581258999999999
#
# number of rings (size 3 to 8) (size 9 to 14) (size 15 to 20)
#    1.500    0.000    2.500    3.750    0.000    4.000 
#    0.000    0.000    0.000    0.000    0.000    0.000 
#    0.000    0.000    0.000    0.000    0.000    0.000 
#
# Total GULP energy -396662.194560 kJ/mol
# GULP energy per Si atom -12395.693580 kJ/mol
# Density = 1.953669 g / cm^3
# Si number density = 19.581259 Si / 1000 Ang^3
#
#
#
# Elastic Constant Matrix: (Units=GPa)
#
#
# Indices 1 2 3 4 5 6 
#
# 1 82.4230 37.0073 59.7704 0.0000 0.0000 0.0000
# 2 37.0073 82.4230 59.7704 0.0000 0.0000 0.0000
# 3 59.7704 59.7704 157.3921 0.0000 0.0000 0.0000
# 4 0.0000 0.0000 0.0000 32.0976 0.0000 0.0000
# 5 0.0000 0.0000 0.0000 0.0000 32.0976 0.0000
# 6 0.0000 0.0000 0.0000 0.0000 0.0000 28.6364
#
#
#
# Elastic Compliance Matrix: (Units=1/GPa)
#
#
# Indices 1 2 3 4 5 6 
#
# 1 0.017763 -0.004256 -0.005129 0.000000 0.000000 0.000000
# 2 -0.004256 0.017763 -0.005129 0.000000 0.000000 0.000000
# 3 -0.005129 -0.005129 0.010249 0.000000 0.000000 0.000000
# 4 0.000000 0.000000 0.000000 0.031155 0.000000 0.000000
# 5 0.000000 0.000000 0.000000 0.000000 0.031155 0.000000
# 6 0.000000 0.000000 0.000000 0.000000 0.000000 0.034921
#
#
# Mechanical properties :
#
#
# Convention : Reuss Voigt Hill
#
# Bulk Modulus (GPa) = 59.71514 70.59272 65.15393
# Shear Modulus (GPa) = 28.15038 29.61232 28.88135
#
# Velocity S-wave (km/s) = 3.79571 3.89302 3.84467
# Velocity P-wave (km/s) = 7.05494 7.50579 7.28385
#
# Compressibility (1/GPa) = 0.01674617
#
# Stress axis : x y z
#
# Youngs Moduli (GPa) = 56.29665 56.29665 97.56641
#
# Poissons Ratio (x) = 0.23959 0.50046
# Poissons Ratio (y) = 0.23959 0.50046
# Poissons Ratio (z) = 0.28877 0.28877
#
# Static dielectric constant tensor:
#      x y z
#    x 3.465040 0.000000 0.000000 
#    y 0.000000 3.465040 0.000000 
#    z 0.000000 0.000000 3.544890 
# 
# 
# High freq. dielectric constant tensor:
#      x y z
#    x 1.755830 0.000000 0.000000 
#    y 0.000000 1.755830 0.000000 
#    z 0.000000 0.000000 1.762560 
# 
# From -- ./inp_files/2501.got.cif
#   From: 2010.03.12/outbox.cif.g09.slc.cpg/sg92_2_cif.got.tgz:2501.got - 2010.04.08 20:41:11.
