data_PCOD8305620
_publ_section_title
;
Structure prediction by ZEFSAII (Michael W. Deem and Ramdas Pophale) SiO2 
 PCOD8305620
Probable space group: P 42 21 2
;
_chemical_formula_sum "Si O2"
_cell_formula_units_Z 56
_cell_length_a 12.648144
_cell_length_b 12.648144
_cell_length_c 21.858032
_cell_angle_alpha 90.000000
_cell_angle_beta 90.000000
_cell_angle_gamma 90.000000
_cell_volume 3496.750618
_symmetry_space_group_name_H-M "P 42 21 2"
_symmetry_group_IT_number 94
_symmetry_cell_setting 'tetragonal'
loop_
_space_group_symop_operation_xyz
x,y,z
1/2-y,1/2+x,1/2+z
-x,-y,z
1/2+y,1/2-x,1/2+z
1/2+x,1/2-y,1/2-z
1/2-x,1/2+y,1/2-z
y,x,-z
-y,-x,-z
loop_
_atom_site_type_symbol
_atom_site_label
_atom_site_fract_x
_atom_site_fract_y
_atom_site_fract_z
Si Si1 0.873513 0.396708 0.784317
Si Si2 0.577238 0.588513 0.647285
Si Si3 0.255855 0.811548 0.783898
Si Si4 0.538850 0.280915 0.439025
Si Si5 0.379513 0.109229 0.176122
Si Si6 0.731061 0.429447 0.424862
Si Si7 0.512879 0.879222 0.340838
O O1 0.784891 0.307323 0.799790
O O2 0.861176 0.496606 0.829843
O O3 0.848569 0.440639 0.716919
O O4 0.996088 0.359625 0.789563
O O5 0.500000 0.500000 0.674290
O O6 0.653578 0.614439 0.704027
O O7 0.635965 0.546586 0.586249
O O8 0.514056 0.690282 0.624677
O O9 0.299592 0.817845 0.714774
O O10 0.346090 0.863456 0.828362
O O11 0.654440 0.330403 0.432625
O O12 0.515150 0.251224 0.509588
O O13 0.534669 0.175010 0.400368
O O14 0.339295 0.110765 0.106164
O O15 0.500000 0.000000 0.356066
#
# Coordination Sequence:
#
# PCOD8305620 Si02
#       7
#     8   8   8   8   8   8   8
#     4  10  18  33  49  71 101 130 162 200 252 304
#     4   9  17  29  48  73 100 128 167 212 257 306
#     4  10  18  31  51  70  98 136 160 203 256 306
#     4   9  19  29  49  72  97 129 169 210 253 310
#     4  10  19  31  49  72 100 135 163 204 252 303
#     4  10  17  32  47  70 100 132 167 210 258 300
#     4  10  18  34  48  72 101 128 164 206 255 299
#
# _framework density 16.014869000000001
#
# number of rings (size 3 to 8) (size 9 to 14) (size 15 to 20)
#    0.000    2.286    4.286    1.286    0.000    2.857 
#    2.571    0.000    0.000    0.000    0.000    0.000 
#    0.000    2.286    0.000    0.000    0.000    0.000 
#
# Total GULP energy -693771.760825 kJ/mol
# GULP energy per Si atom -12388.781443 kJ/mol
# Density = 1.597842 g / cm^3
# Si number density = 16.014869 Si / 1000 Ang^3
#
#
#
# Elastic Constant Matrix: (Units=GPa)
#
#
# Indices 1 2 3 4 5 6 
#
# 1 87.5625 41.2851 27.1467 0.0000 0.0000 0.0000
# 2 41.2851 87.5625 27.1467 0.0000 0.0000 0.0000
# 3 27.1467 27.1467 56.3314 0.0000 0.0000 0.0000
# 4 0.0000 0.0000 0.0000 16.2878 0.0000 0.0000
# 5 0.0000 0.0000 0.0000 0.0000 16.2878 0.0000
# 6 0.0000 0.0000 0.0000 0.0000 0.0000 24.1696
#
#
#
# Elastic Compliance Matrix: (Units=1/GPa)
#
#
# Indices 1 2 3 4 5 6 
#
# 1 0.015674 -0.005935 -0.004693 0.000000 0.000000 0.000000
# 2 -0.005935 0.015674 -0.004693 0.000000 0.000000 0.000000
# 3 -0.004693 -0.004693 0.022275 0.000000 0.000000 0.000000
# 4 0.000000 0.000000 0.000000 0.061396 0.000000 0.000000
# 5 0.000000 0.000000 0.000000 0.000000 0.061396 0.000000
# 6 0.000000 0.000000 0.000000 0.000000 0.000000 0.041374
#
#
# Mechanical properties :
#
#
# Convention : Reuss Voigt Hill
#
# Bulk Modulus (GPa) = 43.51581 46.95704 45.23643
# Shear Modulus (GPa) = 19.52426 20.40756 19.96591
#
# Velocity S-wave (km/s) = 3.49540 3.57359 3.53471
# Velocity P-wave (km/s) = 6.59708 6.81263 6.70572
#
# Compressibility (1/GPa) = 0.02298015
#
# Stress axis : x y z
#
# Youngs Moduli (GPa) = 63.80095 63.80095 44.89245
#
# Poissons Ratio (x) = 0.37866 0.21069
# Poissons Ratio (y) = 0.37866 0.21069
# Poissons Ratio (z) = 0.29943 0.29943
#
# Static dielectric constant tensor:
#      x y z
#    x 3.075590 0.000000 0.000000 
#    y 0.000000 3.075590 0.000000 
#    z 0.000000 0.000000 2.948580 
# 
# 
# High freq. dielectric constant tensor:
#      x y z
#    x 1.610120 0.000000 0.000000 
#    y 0.000000 1.610120 0.000000 
#    z 0.000000 0.000000 1.595650 
# 
# From -- ./inp_files/5116.got.cif
#   From: 2010.03.12/outbox.cif.g09.slc.cpg/sg94_3_cif.got.tgz:5116.got - 2010.04.08 20:48:32.
