data_PCOD8305599
_publ_section_title
;
Structure prediction by ZEFSAII (Michael W. Deem and Ramdas Pophale) SiO2 
 PCOD8305599
Probable space group: P 42 2 2
;
_chemical_formula_sum "Si O2"
_cell_formula_units_Z 64
_cell_length_a 11.540334
_cell_length_b 11.540334
_cell_length_c 22.746902
_cell_angle_alpha 90.000000
_cell_angle_beta 90.000000
_cell_angle_gamma 90.000000
_cell_volume 3029.416686
_symmetry_space_group_name_H-M "P 42 2 2"
_symmetry_group_IT_number 93
_symmetry_cell_setting 'tetragonal'
loop_
_space_group_symop_operation_xyz
x,y,z
-y,x,1/2+z
-x,-y,z
y,-x,1/2+z
x,-y,-z
-x,y,-z
y,x,1/2-z
-y,-x,1/2-z
loop_
_atom_site_type_symbol
_atom_site_label
_atom_site_fract_x
_atom_site_fract_y
_atom_site_fract_z
Si Si1 0.707300 0.002586 0.189411
Si Si2 0.015513 0.738049 0.179342
Si Si3 0.135243 0.749954 0.012667
Si Si4 0.620297 0.245175 0.800461
Si Si5 0.210825 0.324427 0.111186
Si Si6 0.935902 0.884084 0.600882
Si Si7 0.597250 0.806446 0.619330
Si Si8 0.641461 0.741520 0.806815
O O1 0.796501 0.977204 0.135090
O O2 0.644427 0.123670 0.174010
O O3 0.771115 0.011182 0.252313
O O4 0.619678 0.895121 0.197051
O O5 0.887773 0.728732 0.152960
O O6 0.089538 0.837393 0.148388
O O7 0.089211 0.620766 0.166110
O O8 0.169624 0.873409 0.043016
O O9 0.161577 0.643860 0.055313
O O10 0.205495 0.732609 0.952989
O O11 0.000000 0.748948 0.000000
O O12 0.703368 0.296633 0.750000
O O13 0.664850 0.289989 0.863166
O O14 0.490435 0.290891 0.790721
O O15 0.205418 0.461800 0.110850
O O16 0.000000 0.000000 0.580635
O O17 0.657958 0.687411 0.641266
O O18 0.721706 0.721706 0.750000
#
# Coordination Sequence:
#
# PCOD8305599 Si02
#       8
#     8   8   8   8   8   8   8   8
#     4  12  23  43  67  97 138 178 223 270 338 417
#     4  11  21  38  61 101 136 172 222 270 336 409
#     4  11  23  42  65 101 134 173 229 278 340 400
#     4  12  28  43  65 101 139 179 224 282 345 408
#     4  12  24  42  64 101 140 173 221 286 343 402
#     4  11  23  39  64  97 139 182 216 274 340 411
#     4  11  23  40  69  98 133 178 225 278 346 404
#     4  12  24  45  70  97 135 182 229 279 338 411
#
# _framework density 21.126177999999999
#
# number of rings (size 3 to 8) (size 9 to 14) (size 15 to 20)
#    0.000    0.500    7.500    3.000    0.000    4.000 
#    0.000    0.625    0.000    1.500    3.250    0.000 
#    0.000    0.000    0.000    0.000    0.000    0.000 
#
# Total GULP energy -793573.573545 kJ/mol
# GULP energy per Si atom -12399.587087 kJ/mol
# Density = 2.107809 g / cm^3
# Si number density = 21.126178 Si / 1000 Ang^3
#
#
#
# Elastic Constant Matrix: (Units=GPa)
#
#
# Indices 1 2 3 4 5 6 
#
# 1 81.5695 8.4616 31.2701 0.0000 0.0000 0.0000
# 2 8.4616 81.5699 31.2699 0.0000 0.0000 0.0000
# 3 31.2701 31.2699 115.6920 0.0000 0.0000 0.0000
# 4 0.0000 0.0000 0.0000 -55.2375 0.0000 0.0000
# 5 0.0000 0.0000 0.0000 0.0000 -55.2635 0.0000
# 6 0.0000 0.0000 0.0000 0.0000 0.0000 20.0990
#
#
#
# Elastic Compliance Matrix: (Units=1/GPa)
#
#
# Indices 1 2 3 4 5 6 
#
# 1 0.013677 -0.000002 -0.003696 0.000000 0.000000 0.000000
# 2 -0.000002 0.013677 -0.003696 0.000000 0.000000 0.000000
# 3 -0.003696 -0.003696 0.010642 0.000000 0.000000 0.000000
# 4 0.000000 0.000000 0.000000 -0.018104 0.000000 0.000000
# 5 0.000000 0.000000 0.000000 0.000000 -0.018095 0.000000
# 6 0.000000 0.000000 0.000000 0.000000 0.000000 0.049754
#
#
# Mechanical properties :
#
#
# Convention : Reuss Voigt Hill
#
# Bulk Modulus (GPa) = 43.09095 46.75941 44.92518
# Shear Modulus (GPa) = 67.50076 -4.22508 31.63784
#
# Velocity S-wave (km/s) = 5.65868 -1.41572 3.87404
# Velocity P-wave (km/s) = 7.94578 4.41691 6.42824
#
# Compressibility (1/GPa) = 0.02320673
#
# Stress axis : x y z
#
# Youngs Moduli (GPa) = 73.11755 73.11807 93.97039
#
# Poissons Ratio (x) = 0.00013 0.34733
# Poissons Ratio (y) = 0.00013 0.34732
# Poissons Ratio (z) = 0.27025 0.27025
#
# Static dielectric constant tensor:
#      x y z
#    x 3.853490 0.000000 0.000000 
#    y 0.000000 3.853490 0.000000 
#    z 0.000000 0.000000 4.708900 
# 
# 
# High freq. dielectric constant tensor:
#      x y z
#    x 1.820480 0.000000 0.000000 
#    y 0.000000 1.820480 0.000000 
#    z 0.000000 0.000000 1.827950 
# 
# From -- ./inp_files/6974.got.cif
#   From: 2010.03.12/outbox.cif.g09.slc.cpg/sg93_4_cif.got.tgz:6974.got - 2010.04.08 20:44:19.
