data_PCOD8305455
_publ_section_title
;
Structure prediction by ZEFSAII (Michael W. Deem and Ramdas Pophale) SiO2 
 PCOD8305455
Probable space group: P 41 21 2
;
_chemical_formula_sum "Si O2"
_cell_formula_units_Z 56
_cell_length_a 13.677768
_cell_length_b 13.677768
_cell_length_c 13.365466
_cell_angle_alpha 90.000000
_cell_angle_beta 90.000000
_cell_angle_gamma 90.000000
_cell_volume 2500.429255
_symmetry_space_group_name_H-M "P 41 21 2"
_symmetry_group_IT_number 92
_symmetry_cell_setting 'tetragonal'
loop_
_space_group_symop_operation_xyz
x,y,z
1/2-y,1/2+x,1/4+z
-x,-y,1/2+z
1/2+y,1/2-x,3/4+z
1/2+x,1/2-y,3/4-z
1/2-x,1/2+y,1/4-z
y,x,-z
-y,-x,1/2-z
loop_
_atom_site_type_symbol
_atom_site_label
_atom_site_fract_x
_atom_site_fract_y
_atom_site_fract_z
Si Si1 0.423769 0.055735 0.754993
Si Si2 0.808841 0.683564 0.870504
Si Si3 0.582045 0.378201 0.357634
Si Si4 0.192678 0.944455 0.316945
Si Si5 0.127726 0.509283 0.050369
Si Si6 0.756565 0.069615 0.206494
Si Si7 0.842707 0.277197 0.502370
O O1 0.410990 0.125003 0.657154
O O2 0.448242 0.127168 0.847313
O O3 0.516587 0.984166 0.741254
O O4 0.319736 0.002344 0.761146
O O5 0.872404 0.771794 0.917145
O O6 0.760799 0.724789 0.768162
O O7 0.727654 0.649321 0.952703
O O8 0.567525 0.432476 0.250000
O O9 0.647683 0.446767 0.428453
O O10 0.482196 0.357409 0.420693
O O11 0.124807 0.875194 0.250000
O O12 0.202373 0.904828 0.430142
O O13 0.301426 0.948954 0.272326
O O14 0.168109 0.619762 0.059928
O O15 0.703411 0.112854 0.108208
#
# Coordination Sequence:
#
# PCOD8305455 Si02
#       7
#     8   8   8   8   8   8   8
#     4  11  23  41  69 104 142 175 233 296 370 420
#     4  11  24  42  70 106 141 181 232 308 357 428
#     4  11  23  45  69 100 146 184 235 298 353 427
#     4  12  27  46  70  94 142 199 235 281 366 438
#     4  12  23  42  68 101 138 186 232 302 356 434
#     4  11  24  40  72 105 140 183 233 298 370 425
#     4  12  24  41  70 101 138 183 238 290 362 419
#
# _framework density 22.396153999999999
#
# number of rings (size 3 to 8) (size 9 to 14) (size 15 to 20)
#    0.000    0.571    5.714    3.000    2.000    1.143 
#    0.000    0.000    0.000    0.000    0.000    0.000 
#    0.000    0.000    0.000    0.000    0.000    0.000 
#
# Total GULP energy -693978.594100 kJ/mol
# GULP energy per Si atom -12392.474895 kJ/mol
# Density = 2.234518 g / cm^3
# Si number density = 22.396154 Si / 1000 Ang^3
#
#
#
# Elastic Constant Matrix: (Units=GPa)
#
#
# Indices 1 2 3 4 5 6 
#
# 1 74.5151 14.7443 23.1677 0.0000 0.0000 0.0000
# 2 14.7443 74.5153 23.1684 0.0000 0.0000 0.0000
# 3 23.1677 23.1684 103.1727 0.0000 0.0000 0.0000
# 4 0.0000 0.0000 0.0000 39.0609 0.0000 0.0000
# 5 0.0000 0.0000 0.0000 0.0000 39.0611 0.0000
# 6 0.0000 0.0000 0.0000 0.0000 0.0000 37.7080
#
#
#
# Elastic Compliance Matrix: (Units=1/GPa)
#
#
# Indices 1 2 3 4 5 6 
#
# 1 0.014706 -0.002024 -0.002848 0.000000 0.000000 0.000000
# 2 -0.002024 0.014706 -0.002848 0.000000 0.000000 0.000000
# 3 -0.002848 -0.002848 0.010971 0.000000 0.000000 0.000000
# 4 0.000000 0.000000 0.000000 0.025601 0.000000 0.000000
# 5 0.000000 0.000000 0.000000 0.000000 0.025601 0.000000
# 6 0.000000 0.000000 0.000000 0.000000 0.000000 0.026520
#
#
# Mechanical properties :
#
#
# Convention : Reuss Voigt Hill
#
# Bulk Modulus (GPa) = 40.09028 41.59600 40.84314
# Shear Modulus (GPa) = 35.24613 35.90752 35.57683
#
# Velocity S-wave (km/s) = 3.97137 4.00845 3.98995
# Velocity P-wave (km/s) = 6.24247 6.32746 6.28511
#
# Compressibility (1/GPa) = 0.02494370
#
# Stress axis : x y z
#
# Youngs Moduli (GPa) = 67.99921 67.99907 91.14576
#
# Poissons Ratio (x) = 0.13766 0.25955
# Poissons Ratio (y) = 0.13766 0.25956
# Poissons Ratio (z) = 0.19364 0.19365
#
# Static dielectric constant tensor:
#      x y z
#    x 4.020000 0.000000 0.000000 
#    y 0.000000 4.020000 0.000000 
#    z 0.000000 0.000000 4.257550 
# 
# 
# High freq. dielectric constant tensor:
#      x y z
#    x 1.878800 0.000000 0.000000 
#    y 0.000000 1.878800 0.000000 
#    z 0.000000 0.000000 1.888970 
# 
# From -- ./inp_files/2277.got.cif
#   From: 2010.03.12/outbox.cif.g09.slc.cpg/sg92_2_cif.got.tgz:2277.got - 2010.04.08 20:41:11.
