data_PCOD8305023
_publ_section_title
;
Structure prediction by ZEFSAII (Michael W. Deem and Ramdas Pophale) SiO2 
 PCOD8305023
Probable space group: P 41 2 2
;
_chemical_formula_sum "Si O2"
_cell_formula_units_Z 40
_cell_length_a 7.655197
_cell_length_b 7.655197
_cell_length_c 27.343829
_cell_angle_alpha 90.000000
_cell_angle_beta 90.000000
_cell_angle_gamma 90.000000
_cell_volume 1602.404191
_symmetry_space_group_name_H-M "P 41 2 2"
_symmetry_group_IT_number 91
_symmetry_cell_setting 'tetragonal'
loop_
_space_group_symop_operation_xyz
x,y,z
-y,x,1/4+z
-x,-y,1/2+z
y,-x,3/4+z
x,-y,1/2-z
-x,y,-z
y,x,3/4-z
-y,-x,1/4-z
loop_
_atom_site_type_symbol
_atom_site_label
_atom_site_fract_x
_atom_site_fract_y
_atom_site_fract_z
Si Si1 0.162107 0.732212 0.203777
Si Si2 0.081540 0.653261 0.310609
Si Si3 0.821294 0.890662 0.161612
Si Si4 0.463867 0.191844 0.730495
Si Si5 0.709353 0.293544 0.072196
O O1 0.121805 0.756699 0.261036
O O2 0.174919 0.532958 0.186340
O O3 0.361655 0.794851 0.198334
O O4 0.025157 0.845995 0.171888
O O5 0.143950 0.777931 0.354760
O O6 0.877715 0.598640 0.309550
O O7 0.699321 0.766308 0.194896
O O8 0.778896 0.091696 0.173412
O O9 0.441805 0.313263 0.779796
O O10 0.446502 0.000000 0.750000
O O11 0.638769 0.361232 0.125000
#
# Coordination Sequence:
#
# PCOD8305023 Si02
#       5
#     8   8   8   8   8
#     4  11  24  43  70 101 149 191 246 312 374 452
#     4  10  23  43  64  99 141 191 238 299 381 449
#     4  10  22  43  71 101 141 187 251 309 372 444
#     4  10  22  39  71 106 140 188 253 311 371 444
#     4   9  19  41  70 100 139 193 246 299 380 451
#
# _framework density 24.962489999999999
#
# number of rings (size 3 to 8) (size 9 to 14) (size 15 to 20)
#    0.000    2.000    2.000    0.000    2.800    5.600 
#   14.400    0.000    0.000    0.000    0.000    0.000 
#    0.000    0.000    0.000    0.000    0.000    0.000 
#
# Total GULP energy -495685.000802 kJ/mol
# GULP energy per Si atom -12392.125020 kJ/mol
# Density = 2.490567 g / cm^3
# Si number density = 24.962490 Si / 1000 Ang^3
#
#
#
# Elastic Constant Matrix: (Units=GPa)
#
#
# Indices 1 2 3 4 5 6 
#
# 1 73.4793 10.4856 64.5217 0.0000 0.0000 0.0000
# 2 10.4856 73.4793 64.5218 0.0000 0.0000 0.0000
# 3 64.5217 64.5218 144.1459 0.0000 0.0000 0.0000
# 4 0.0000 0.0000 0.0000 34.1331 0.0000 0.0000
# 5 0.0000 0.0000 0.0000 0.0000 34.1331 0.0000
# 6 0.0000 0.0000 0.0000 0.0000 0.0000 27.3013
#
#
#
# Elastic Compliance Matrix: (Units=1/GPa)
#
#
# Indices 1 2 3 4 5 6 
#
# 1 0.027019 0.011144 -0.017082 0.000000 0.000000 0.000000
# 2 0.011144 0.027019 -0.017082 0.000000 0.000000 0.000000
# 3 -0.017082 -0.017082 0.022230 0.000000 0.000000 0.000000
# 4 0.000000 0.000000 0.000000 0.029297 0.000000 0.000000
# 5 0.000000 0.000000 0.000000 0.000000 0.029297 0.000000
# 6 0.000000 0.000000 0.000000 0.000000 0.000000 0.036628
#
#
# Mechanical properties :
#
#
# Convention : Reuss Voigt Hill
#
# Bulk Modulus (GPa) = 33.08309 63.35139 48.21724
# Shear Modulus (GPa) = 21.96769 29.21852 25.59311
#
# Velocity S-wave (km/s) = 2.96974 3.42496 3.20545
# Velocity P-wave (km/s) = 5.00411 6.40892 5.74958
#
# Compressibility (1/GPa) = 0.03022692
#
# Stress axis : x y z
#
# Youngs Moduli (GPa) = 37.01117 37.01107 44.98413
#
# Poissons Ratio (x) = -0.41246 0.76844
# Poissons Ratio (y) = -0.41246 0.76844
# Poissons Ratio (z) = 0.63224 0.63224
#
# Static dielectric constant tensor:
#      x y z
#    x 4.356100 0.000000 0.000000 
#    y 0.000000 4.356100 0.000000 
#    z 0.000000 0.000000 5.086240 
# 
# 
# High freq. dielectric constant tensor:
#      x y z
#    x 1.979190 0.000000 0.000000 
#    y 0.000000 1.979190 0.000000 
#    z 0.000000 0.000000 2.007420 
# 
# From -- ./inp_files/17789.got.cif
#   From: 2010.03.12/outbox.cif.g09.slc.cpg/sg91_9_cif.got.tgz:17789.got - 2010.04.08 20:27:58.
