data_PCOD8305342
_publ_section_title
;
Structure prediction by ZEFSAII (Michael W. Deem and Ramdas Pophale) SiO2 
 PCOD8305342
Probable space group: P 41 21 2
;
_chemical_formula_sum "Si O2"
_cell_formula_units_Z 40
_cell_length_a 13.445436
_cell_length_b 13.445436
_cell_length_c 9.911020
_cell_angle_alpha 90.000000
_cell_angle_beta 90.000000
_cell_angle_gamma 90.000000
_cell_volume 1791.711710
_symmetry_space_group_name_H-M "P 41 21 2"
_symmetry_group_IT_number 92
_symmetry_cell_setting 'tetragonal'
loop_
_space_group_symop_operation_xyz
x,y,z
1/2-y,1/2+x,1/4+z
-x,-y,1/2+z
1/2+y,1/2-x,3/4+z
1/2+x,1/2-y,3/4-z
1/2-x,1/2+y,1/4-z
y,x,-z
-y,-x,1/2-z
loop_
_atom_site_type_symbol
_atom_site_label
_atom_site_fract_x
_atom_site_fract_y
_atom_site_fract_z
Si Si1 0.022315 0.187644 0.484013
Si Si2 0.059571 0.240654 0.774285
Si Si3 0.966934 0.129194 0.995385
Si Si4 0.097243 0.242447 0.202991
Si Si5 0.461751 0.080544 0.850760
O O1 0.096866 0.096866 0.500000
O O2 0.034510 0.255568 0.616902
O O3 0.049074 0.249595 0.351462
O O4 0.908590 0.145326 0.472829
O O5 0.168350 0.192090 0.802535
O O6 0.975418 0.171370 0.843459
O O7 0.049547 0.347029 0.846205
O O8 0.007952 0.209303 0.103015
O O9 0.031504 0.031504 0.000000
O O10 0.133128 0.352726 0.160522
O O11 0.488567 0.041264 0.703139
#
# Coordination Sequence:
#
# PCOD8305342 Si02
#       5
#     8   8   8   8   8
#     4   9  18  34  66 101 132 167 215 280 339 386
#     4  10  21  42  67  98 129 174 223 284 325 399
#     4   9  16  34  62  99 134 164 211 277 336 385
#     4  10  21  42  67  94 136 173 220 276 338 397
#     4  12  28  48  67  92 134 180 221 275 340 407
#
# _framework density 22.325019999999999
#
# number of rings (size 3 to 8) (size 9 to 14) (size 15 to 20)
#    0.000    2.000    2.000    1.200    2.800    4.800 
#    7.200    0.000    0.000    0.000    0.000    0.000 
#    0.000    0.000    0.000    0.000    0.000    0.000 
#
# Total GULP energy -495699.334905 kJ/mol
# GULP energy per Si atom -12392.483373 kJ/mol
# Density = 2.227421 g / cm^3
# Si number density = 22.325020 Si / 1000 Ang^3
#
#
#
# Elastic Constant Matrix: (Units=GPa)
#
#
# Indices 1 2 3 4 5 6 
#
# 1 -55.3404 174.2987 34.1305 0.0000 0.0000 0.0000
# 2 174.2987 -55.3404 34.1305 0.0000 0.0000 0.0000
# 3 34.1305 34.1305 143.8190 0.0000 0.0000 0.0000
# 4 0.0000 0.0000 0.0000 43.5941 0.0000 0.0000
# 5 0.0000 0.0000 0.0000 0.0000 43.5941 0.0000
# 6 0.0000 0.0000 0.0000 0.0000 0.0000 24.8585
#
#
#
# Elastic Compliance Matrix: (Units=1/GPa)
#
#
# Indices 1 2 3 4 5 6 
#
# 1 0.002688 0.007043 -0.002309 0.000000 0.000000 0.000000
# 2 0.007043 0.002688 -0.002309 0.000000 0.000000 0.000000
# 3 -0.002309 -0.002309 0.008049 0.000000 0.000000 0.000000
# 4 0.000000 0.000000 0.000000 0.022939 0.000000 0.000000
# 5 0.000000 0.000000 0.000000 0.000000 0.022939 0.000000
# 6 0.000000 0.000000 0.000000 0.000000 0.000000 0.040228
#
#
# Mechanical properties :
#
#
# Convention : Reuss Voigt Hill
#
# Bulk Modulus (GPa) = 54.72084 57.58421 56.15253
# Shear Modulus (GPa) = 49.61558 8.44789 29.03173
#
# Velocity S-wave (km/s) = 4.71937 1.94737 3.61004
# Velocity P-wave (km/s) = 7.36619 5.55931 6.52559
#
# Compressibility (1/GPa) = 0.01827457
#
# Stress axis : x y z
#
# Youngs Moduli (GPa) = 371.96477 371.96477 124.23411
#
# Poissons Ratio (x) = -2.61978 0.28691
# Poissons Ratio (y) = -2.61978 0.28691
# Poissons Ratio (z) = 0.85903 0.85903
#
# Static dielectric constant tensor:
#      x y z
#    x 3.699600 0.000000 0.000000 
#    y 0.000000 3.699600 0.000000 
#    z 0.000000 0.000000 4.239280 
# 
# 
# High freq. dielectric constant tensor:
#      x y z
#    x 1.854270 0.000000 0.000000 
#    y 0.000000 1.854270 0.000000 
#    z 0.000000 0.000000 1.896690 
# 
# From -- ./inp_files/1326.got.cif
#   From: 2010.03.12/outbox.cif.g09.slc.cpg/sg92_1_cif.got.tgz:1326.got - 2010.04.08 20:41:11.
