data_PCOD8305696
_publ_section_title
;
Structure prediction by ZEFSAII (Michael W. Deem and Ramdas Pophale) SiO2 
 PCOD8305696
Probable space group: P 42 21 2
;
_chemical_formula_sum "Si O2"
_cell_formula_units_Z 40
_cell_length_a 9.075964
_cell_length_b 9.075964
_cell_length_c 23.550640
_cell_angle_alpha 90.000000
_cell_angle_beta 90.000000
_cell_angle_gamma 90.000000
_cell_volume 1939.939754
_symmetry_space_group_name_H-M "P 42 21 2"
_symmetry_group_IT_number 94
_symmetry_cell_setting 'tetragonal'
loop_
_space_group_symop_operation_xyz
x,y,z
1/2-y,1/2+x,1/2+z
-x,-y,z
1/2+y,1/2-x,1/2+z
1/2+x,1/2-y,1/2-z
1/2-x,1/2+y,1/2-z
y,x,-z
-y,-x,-z
loop_
_atom_site_type_symbol
_atom_site_label
_atom_site_fract_x
_atom_site_fract_y
_atom_site_fract_z
Si Si1 0.110313 0.865587 0.720936
Si Si2 0.136198 0.601924 0.208638
Si Si3 0.325815 0.674186 0.500000
Si Si4 0.652637 0.668243 0.096655
Si Si5 0.841369 0.817553 0.596381
Si Si6 0.833580 0.166421 0.000000
O O1 0.249456 0.913934 0.758734
O O2 0.168117 0.792134 0.661980
O O3 0.004320 0.739292 0.748469
O O4 0.000000 0.000000 0.706630
O O5 0.230920 0.658027 0.155531
O O6 0.000000 0.500000 0.189395
O O7 0.278601 0.757673 0.557178
O O8 0.295277 0.503341 0.507666
O O9 0.676695 0.505623 0.069681
O O10 0.483323 0.717467 0.102239
O O11 0.726855 0.739751 0.556100
#
# Coordination Sequence:
#
# PCOD8305696 Si02
#       6
#     8   8   4   8   8   4
#     4  11  22  45  63  99 134 172 224 273 324 407
#     4  11  24  39  69  99 135 179 220 277 338 389
#     4  11  26  43  62  94 132 171 206 279 336 384
#     4  10  21  43  68  89 125 172 220 259 319 394
#     4  10  22  42  65  94 123 169 220 264 317 401
#     4  11  26  43  60  98 134 157 218 275 338 388
#
# _framework density 20.619195000000001
#
# number of rings (size 3 to 8) (size 9 to 14) (size 15 to 20)
#    0.000    1.400    4.000    2.400    5.600    5.600 
#    3.600    0.000    0.000    0.000    0.000    0.000 
#    0.000    0.000    0.000    0.000    0.000    0.000 
#
# Total GULP energy -495736.693089 kJ/mol
# GULP energy per Si atom -12393.417327 kJ/mol
# Density = 2.057227 g / cm^3
# Si number density = 20.619195 Si / 1000 Ang^3
#
#
#
# Elastic Constant Matrix: (Units=GPa)
#
#
# Indices 1 2 3 4 5 6 
#
# 1 151.8981 9.5916 52.5542 0.0000 0.0000 0.0000
# 2 9.5916 151.8932 52.5506 0.0000 0.0000 0.0000
# 3 52.5542 52.5506 93.6540 0.0000 0.0000 0.0000
# 4 0.0000 0.0000 0.0000 24.6092 0.0000 0.0000
# 5 0.0000 0.0000 0.0000 0.0000 24.6101 0.0000
# 6 0.0000 0.0000 0.0000 0.0000 0.0000 40.5399
#
#
#
# Elastic Compliance Matrix: (Units=1/GPa)
#
#
# Indices 1 2 3 4 5 6 
#
# 1 0.008391 0.001364 -0.005474 0.000000 0.000000 0.000000
# 2 0.001364 0.008391 -0.005474 0.000000 0.000000 0.000000
# 3 -0.005474 -0.005474 0.016821 0.000000 0.000000 0.000000
# 4 0.000000 0.000000 0.000000 0.040635 0.000000 0.000000
# 5 0.000000 0.000000 0.000000 0.000000 0.040634 0.000000
# 6 0.000000 0.000000 0.000000 0.000000 0.000000 0.024667
#
#
# Mechanical properties :
#
#
# Convention : Reuss Voigt Hill
#
# Bulk Modulus (GPa) = 69.27426 69.64869 69.46147
# Shear Modulus (GPa) = 30.57748 36.80176 33.68962
#
# Velocity S-wave (km/s) = 3.85510 4.22931 4.04653
# Velocity P-wave (km/s) = 7.31339 7.59614 7.45610
#
# Compressibility (1/GPa) = 0.01443538
#
# Stress axis : x y z
#
# Youngs Moduli (GPa) = 119.17283 119.17196 59.44995
#
# Poissons Ratio (x) = -0.16255 0.32543
# Poissons Ratio (y) = -0.16255 0.32542
# Poissons Ratio (z) = 0.65236 0.65233
#
# Static dielectric constant tensor:
#      x y z
#    x 3.876620 0.000000 0.000000 
#    y 0.000000 3.876640 0.000000 
#    z 0.000000 0.000000 3.474150 
# 
# 
# High freq. dielectric constant tensor:
#      x y z
#    x 1.814670 0.000000 0.000000 
#    y 0.000000 1.814670 0.000000 
#    z 0.000000 0.000000 1.790590 
# 
# From -- ./inp_files/5024.got.cif
#   From: 2010.03.12/outbox.cif.g09.slc.cpg/sg94_3_cif.got.tgz:5024.got - 2010.04.08 20:48:32.
