data_PCOD8305204
_publ_section_title
;
Structure prediction by ZEFSAII (Michael W. Deem and Ramdas Pophale) SiO2 
 PCOD8305204
Probable space group: P 41 21 2
;
_chemical_formula_sum "Si O2"
_cell_formula_units_Z 56
_cell_length_a 10.724357
_cell_length_b 10.724357
_cell_length_c 25.386160
_cell_angle_alpha 90.000000
_cell_angle_beta 90.000000
_cell_angle_gamma 90.000000
_cell_volume 2919.708796
_symmetry_space_group_name_H-M "P 41 21 2"
_symmetry_group_IT_number 92
_symmetry_cell_setting 'tetragonal'
loop_
_space_group_symop_operation_xyz
x,y,z
1/2-y,1/2+x,1/4+z
-x,-y,1/2+z
1/2+y,1/2-x,3/4+z
1/2+x,1/2-y,3/4-z
1/2-x,1/2+y,1/4-z
y,x,-z
-y,-x,1/2-z
loop_
_atom_site_type_symbol
_atom_site_label
_atom_site_fract_x
_atom_site_fract_y
_atom_site_fract_z
Si Si1 0.114222 0.367152 0.666536
Si Si2 0.986820 0.986820 0.000000
Si Si3 0.398099 0.011242 0.883865
Si Si4 0.361454 0.283932 0.706231
Si Si5 0.190143 0.563644 0.475817
Si Si6 0.454228 0.941920 0.477168
Si Si7 0.584710 0.266035 0.184422
Si Si8 0.814412 0.185589 0.250000
O O1 0.084019 0.498814 0.639093
O O2 0.261613 0.371531 0.677265
O O3 0.041412 0.349690 0.722574
O O4 0.076279 0.252579 0.628665
O O5 0.909104 0.939963 0.948944
O O6 0.132164 0.962735 0.987721
O O7 0.290706 0.932713 0.911235
O O8 0.466571 0.104845 0.926064
O O9 0.337419 0.088872 0.836043
O O10 0.281135 0.196147 0.746627
O O11 0.070056 0.517691 0.506580
O O12 0.297840 0.458882 0.482491
O O13 0.311468 0.973684 0.462673
O O14 0.722441 0.220637 0.201895
#
# Coordination Sequence:
#
# PCOD8305204 Si02
#       8
#     8   4   8   8   8   8   8   4
#     4  10  18  31  55  84 108 135 188 241 295 339
#     4  11  22  36  50  80 127 144 186 234 291 358
#     4   9  19  34  55  77 108 151 193 230 284 348
#     4  11  22  33  54  84 117 151 189 230 297 356
#     4   9  18  33  51  81 112 149 189 228 281 348
#     4   8  15  31  51  80 103 136 184 236 273 341
#     4   9  17  30  53  79 109 141 170 241 303 332
#     4   9  16  30  52  78 115 138 188 236 285 334
#
# _framework density 19.179994000000001
#
# number of rings (size 3 to 8) (size 9 to 14) (size 15 to 20)
#    0.000    2.571    1.429    1.714    4.000    0.000 
#    0.000    1.429    3.143    0.000    0.000    1.000 
#    0.000    0.000    0.000    0.000    0.000    0.000 
#
# Total GULP energy -693914.643318 kJ/mol
# GULP energy per Si atom -12391.332916 kJ/mol
# Density = 1.913634 g / cm^3
# Si number density = 19.179994 Si / 1000 Ang^3
#
#
#
# Elastic Constant Matrix: (Units=GPa)
#
#
# Indices 1 2 3 4 5 6 
#
# 1 61.4630 20.8274 36.1856 0.0000 0.0000 0.0000
# 2 20.8274 61.4627 36.1855 0.0000 0.0000 0.0000
# 3 36.1856 36.1855 132.9343 0.0000 0.0000 0.0000
# 4 0.0000 0.0000 0.0000 24.1229 0.0000 0.0000
# 5 0.0000 0.0000 0.0000 0.0000 24.1229 0.0000
# 6 0.0000 0.0000 0.0000 0.0000 0.0000 16.5771
#
#
#
# Elastic Compliance Matrix: (Units=1/GPa)
#
#
# Indices 1 2 3 4 5 6 
#
# 1 0.020293 -0.004316 -0.004349 0.000000 0.000000 0.000000
# 2 -0.004316 0.020293 -0.004349 0.000000 0.000000 0.000000
# 3 -0.004349 -0.004349 0.009890 0.000000 0.000000 0.000000
# 4 0.000000 0.000000 0.000000 0.041454 0.000000 0.000000
# 5 0.000000 0.000000 0.000000 0.000000 0.041454 0.000000
# 6 0.000000 0.000000 0.000000 0.000000 0.000000 0.060324
#
#
# Mechanical properties :
#
#
# Convention : Reuss Voigt Hill
#
# Bulk Modulus (GPa) = 40.90327 49.13966 45.02146
# Shear Modulus (GPa) = 21.94074 23.80868 22.87471
#
# Velocity S-wave (km/s) = 3.38589 3.52707 3.45720
# Velocity P-wave (km/s) = 6.05458 6.50099 6.28175
#
# Compressibility (1/GPa) = 0.02444792
#
# Stress axis : x y z
#
# Youngs Moduli (GPa) = 49.27828 49.27801 101.11049
#
# Poissons Ratio (x) = 0.21269 0.43973
# Poissons Ratio (y) = 0.21269 0.43973
# Poissons Ratio (z) = 0.21431 0.21431
#
# Static dielectric constant tensor:
#      x y z
#    x 3.316740 0.000000 0.000000 
#    y 0.000000 3.316750 0.000000 
#    z 0.000000 0.000000 3.933810 
# 
# 
# High freq. dielectric constant tensor:
#      x y z
#    x 1.710900 0.000000 0.000000 
#    y 0.000000 1.710900 0.000000 
#    z 0.000000 0.000000 1.762030 
# 
# From -- ./inp_files/4227.got.cif
#   From: 2010.03.12/outbox.cif.g09.slc.cpg/sg92_3_cif.got.tgz:4227.got - 2010.04.08 20:41:11.
