data_PCOD8305945
_publ_section_title
;
Structure prediction by ZEFSAII (Michael W. Deem and Ramdas Pophale) SiO2 
 PCOD8305945
Probable space group: P 43 21 2
;
_chemical_formula_sum "Si O2"
_cell_formula_units_Z 48
_cell_length_a 8.814278
_cell_length_b 8.814278
_cell_length_c 29.161318
_cell_angle_alpha 90.000000
_cell_angle_beta 90.000000
_cell_angle_gamma 90.000000
_cell_volume 2265.586440
_symmetry_space_group_name_H-M "P 43 21 2"
_symmetry_group_IT_number 96
_symmetry_cell_setting 'tetragonal'
loop_
_space_group_symop_operation_xyz
x,y,z
1/2-y,1/2+x,3/4+z
-x,-y,1/2+z
1/2+y,1/2-x,1/4+z
1/2+x,1/2-y,1/4-z
1/2-x,1/2+y,3/4-z
y,x,-z
-y,-x,1/2-z
loop_
_atom_site_type_symbol
_atom_site_label
_atom_site_fract_x
_atom_site_fract_y
_atom_site_fract_z
Si Si1 0.876195 0.055715 0.535106
Si Si2 0.041749 0.511526 0.684594
Si Si3 0.766768 0.310518 0.481925
Si Si4 0.971608 0.181743 0.711264
Si Si5 0.185213 0.696071 0.611462
Si Si6 0.960737 0.984341 0.373556
O O1 0.701665 0.013026 0.541649
O O2 0.889687 0.221787 0.512546
O O3 0.931457 0.931457 0.500000
O O4 0.978190 0.064949 0.581063
O O5 0.955383 0.349683 0.688874
O O6 0.071199 0.565863 0.631768
O O7 0.952837 0.648571 0.709287
O O8 0.630741 0.360875 0.514994
O O9 0.696930 0.193992 0.443838
O O10 0.951814 0.060103 0.670894
O O11 0.841137 0.158864 0.750000
O O12 0.352907 0.664714 0.630720
O O13 0.140196 0.865473 0.628984
#
# Coordination Sequence:
#
# PCOD8305945 Si02
#       6
#     8   8   8   8   8   8
#     4  10  22  41  64  94 129 160 219 272 324 389
#     4  10  24  41  64  99 125 172 219 267 333 391
#     4  11  22  44  65  93 130 174 220 266 332 401
#     4  11  23  46  66  95 137 175 217 278 337 403
#     4  11  20  42  66  94 127 168 223 267 318 401
#     4  11  23  42  67  97 131 174 219 275 328 398
#
# _framework density 21.186568000000001
#
# number of rings (size 3 to 8) (size 9 to 14) (size 15 to 20)
#    0.000    1.333    5.000    0.000    0.000    4.000 
#   15.000    0.000    0.000    0.000    0.000    0.000 
#    0.000    0.000    0.000    0.000    0.000    0.000 
#
# Total GULP energy -594819.357267 kJ/mol
# GULP energy per Si atom -12392.069943 kJ/mol
# Density = 2.113835 g / cm^3
# Si number density = 21.186568 Si / 1000 Ang^3
#
#
#
# Elastic Constant Matrix: (Units=GPa)
#
#
# Indices 1 2 3 4 5 6 
#
# 1 59.7254 38.0267 30.0315 0.0000 0.0000 0.0000
# 2 38.0267 59.7249 30.0315 0.0000 0.0000 0.0000
# 3 30.0315 30.0315 127.8544 0.0000 0.0000 0.0000
# 4 0.0000 0.0000 0.0000 27.8131 0.0000 0.0000
# 5 0.0000 0.0000 0.0000 0.0000 27.8133 0.0000
# 6 0.0000 0.0000 0.0000 0.0000 0.0000 28.8534
#
#
#
# Elastic Compliance Matrix: (Units=1/GPa)
#
#
# Indices 1 2 3 4 5 6 
#
# 1 0.029021 -0.017065 -0.002808 0.000000 0.000000 0.000000
# 2 -0.017065 0.029021 -0.002808 0.000000 0.000000 0.000000
# 3 -0.002808 -0.002808 0.009141 0.000000 0.000000 0.000000
# 4 0.000000 0.000000 0.000000 0.035954 0.000000 0.000000
# 5 0.000000 0.000000 0.000000 0.000000 0.035954 0.000000
# 6 0.000000 0.000000 0.000000 0.000000 0.000000 0.034658
#
#
# Mechanical properties :
#
#
# Convention : Reuss Voigt Hill
#
# Bulk Modulus (GPa) = 45.83213 49.27602 47.55407
# Shear Modulus (GPa) = 22.08625 26.84363 24.46494
#
# Velocity S-wave (km/s) = 3.23223 3.56337 3.40183
# Velocity P-wave (km/s) = 5.96735 6.34341 6.15825
#
# Compressibility (1/GPa) = 0.02181876
#
# Stress axis : x y z
#
# Youngs Moduli (GPa) = 34.45811 34.45779 109.40176
#
# Poissons Ratio (x) = 0.58804 0.30722
# Poissons Ratio (y) = 0.58804 0.30722
# Poissons Ratio (z) = 0.09676 0.09676
#
# Static dielectric constant tensor:
#      x y z
#    x 3.846520 0.000000 0.000000 
#    y 0.000000 3.846520 0.000000 
#    z 0.000000 0.000000 4.209900 
# 
# 
# High freq. dielectric constant tensor:
#      x y z
#    x 1.821400 0.000000 0.000000 
#    y 0.000000 1.821400 0.000000 
#    z 0.000000 0.000000 1.841610 
# 
# From -- ./inp_files/4492.got.cif
#   From: 2010.03.12/outbox.cif.g09.slc.cpg/sg96_3_cif.got.tgz:4492.got - 2010.04.08 20:56:49.
