data_PCOD8305775
_publ_section_title
;
Structure prediction by ZEFSAII (Michael W. Deem and Ramdas Pophale) SiO2 
 PCOD8305775
Probable space group: P 42 21 2
;
_chemical_formula_sum "Si O2"
_cell_formula_units_Z 40
_cell_length_a 9.153400
_cell_length_b 9.153400
_cell_length_c 21.103153
_cell_angle_alpha 90.000000
_cell_angle_beta 90.000000
_cell_angle_gamma 90.000000
_cell_volume 1768.122009
_symmetry_space_group_name_H-M "P 42 21 2"
_symmetry_group_IT_number 94
_symmetry_cell_setting 'tetragonal'
loop_
_space_group_symop_operation_xyz
x,y,z
1/2-y,1/2+x,1/2+z
-x,-y,z
1/2+y,1/2-x,1/2+z
1/2+x,1/2-y,1/2-z
1/2-x,1/2+y,1/2-z
y,x,-z
-y,-x,-z
loop_
_atom_site_type_symbol
_atom_site_label
_atom_site_fract_x
_atom_site_fract_y
_atom_site_fract_z
Si Si1 0.993934 0.760917 0.006595
Si Si2 0.081071 0.151607 0.650572
Si Si3 0.400027 0.878615 0.366543
Si Si4 0.638562 0.082391 0.120361
Si Si5 0.916689 0.851725 0.791733
O O1 0.994248 0.679220 0.073774
O O2 0.836046 0.836046 0.000000
O O3 0.020765 0.646286 0.950919
O O4 0.120200 0.879801 0.000000
O O5 0.241417 0.133757 0.619559
O O6 0.100124 0.217606 0.721818
O O7 0.969356 0.256139 0.611971
O O8 0.000000 0.000000 0.650301
O O9 0.362724 0.745859 0.320045
O O10 0.500000 0.000000 0.331128
O O11 0.500000 0.000000 0.151184
O O12 0.772611 0.026918 0.161366
O O13 0.000000 0.000000 0.781105
#
# Coordination Sequence:
#
# PCOD8305775 Si02
#       5
#     8   8   8   8   8
#     4  11  23  43  72  99 133 183 241 292 350 437
#     4  11  26  44  67 104 145 182 233 296 370 431
#     4  12  24  42  70 102 140 183 239 302 360 425
#     4  12  25  43  70  99 138 186 238 296 362 435
#     4  11  23  43  69 100 139 189 238 290 355 444
#
# _framework density 22.622872000000001
#
# number of rings (size 3 to 8) (size 9 to 14) (size 15 to 20)
#    0.000    0.600    2.000    6.600    0.000    6.400 
#    0.000    0.000    0.000    0.000    0.000    0.000 
#    0.000    0.000    0.000    0.000    0.000    0.000 
#
# Total GULP energy -495801.607942 kJ/mol
# GULP energy per Si atom -12395.040199 kJ/mol
# Density = 2.257138 g / cm^3
# Si number density = 22.622872 Si / 1000 Ang^3
#
#
#
# Elastic Constant Matrix: (Units=GPa)
#
#
# Indices 1 2 3 4 5 6 
#
# 1 117.8679 65.2281 24.6300 0.0000 0.0000 0.0000
# 2 65.2281 117.8680 24.6298 0.0000 0.0000 0.0000
# 3 24.6300 24.6298 98.4873 0.0000 0.0000 0.0000
# 4 0.0000 0.0000 0.0000 61.7000 0.0000 0.0000
# 5 0.0000 0.0000 0.0000 0.0000 61.6946 0.0000
# 6 0.0000 0.0000 0.0000 0.0000 0.0000 50.2649
#
#
#
# Elastic Compliance Matrix: (Units=1/GPa)
#
#
# Indices 1 2 3 4 5 6 
#
# 1 0.012426 -0.006571 -0.001464 0.000000 0.000000 0.000000
# 2 -0.006571 0.012426 -0.001464 0.000000 0.000000 0.000000
# 3 -0.001464 -0.001464 0.010886 0.000000 0.000000 0.000000
# 4 0.000000 0.000000 0.000000 0.016207 0.000000 0.000000
# 5 0.000000 0.000000 0.000000 0.000000 0.016209 0.000000
# 6 0.000000 0.000000 0.000000 0.000000 0.000000 0.019895
#
#
# Mechanical properties :
#
#
# Convention : Reuss Voigt Hill
#
# Bulk Modulus (GPa) = 59.73827 62.57767 61.15797
# Shear Modulus (GPa) = 44.39380 49.38094 46.88737
#
# Velocity S-wave (km/s) = 4.43464 4.67710 4.55748
# Velocity P-wave (km/s) = 7.25843 7.54243 7.40179
#
# Compressibility (1/GPa) = 0.01673969
#
# Stress axis : x y z
#
# Youngs Moduli (GPa) = 80.47442 80.47455 91.86096
#
# Poissons Ratio (x) = 0.52878 0.13452
# Poissons Ratio (y) = 0.52877 0.13452
# Poissons Ratio (z) = 0.11785 0.11784
#
# Static dielectric constant tensor:
#      x y z
#    x 4.219860 0.000000 0.000000 
#    y 0.000000 4.219860 0.000000 
#    z 0.000000 0.000000 4.101880 
# 
# 
# High freq. dielectric constant tensor:
#      x y z
#    x 1.907710 0.000000 0.000000 
#    y 0.000000 1.907710 0.000000 
#    z 0.000000 0.000000 1.881180 
# 
# From -- ./inp_files/4938.got.cif
#   From: 2010.03.12/outbox.cif.g09.slc.cpg/sg94_3_cif.got.tgz:4938.got - 2010.04.08 20:48:32.
