data_PCOD8305655
_publ_section_title
;
Structure prediction by ZEFSAII (Michael W. Deem and Ramdas Pophale) SiO2 
 PCOD8305655
Probable space group: P 42 21 2
;
_chemical_formula_sum "Si O2"
_cell_formula_units_Z 56
_cell_length_a 15.611728
_cell_length_b 15.611728
_cell_length_c 12.574542
_cell_angle_alpha 90.000000
_cell_angle_beta 90.000000
_cell_angle_gamma 90.000000
_cell_volume 3064.743467
_symmetry_space_group_name_H-M "P 42 21 2"
_symmetry_group_IT_number 94
_symmetry_cell_setting 'tetragonal'
loop_
_space_group_symop_operation_xyz
x,y,z
1/2-y,1/2+x,1/2+z
-x,-y,z
1/2+y,1/2-x,1/2+z
1/2+x,1/2-y,1/2-z
1/2-x,1/2+y,1/2-z
y,x,-z
-y,-x,-z
loop_
_atom_site_type_symbol
_atom_site_label
_atom_site_fract_x
_atom_site_fract_y
_atom_site_fract_z
Si Si1 0.689606 0.685246 0.372027
Si Si2 0.991662 0.400610 0.629790
Si Si3 0.865055 0.677706 0.245070
Si Si4 0.021037 0.912606 0.886454
Si Si5 0.099426 0.492199 0.882615
Si Si6 0.164048 0.171966 0.881475
Si Si7 0.159016 0.651637 0.250431
O O1 0.695082 0.695082 0.500000
O O2 0.781780 0.685036 0.318154
O O3 0.644666 0.596038 0.335466
O O4 0.636951 0.765647 0.323225
O O5 0.901549 0.359466 0.663347
O O6 0.000000 0.500000 0.664872
O O7 0.004193 0.391484 0.506037
O O8 0.067269 0.344788 0.679132
O O9 0.939931 0.660226 0.326831
O O10 0.887144 0.763239 0.175294
O O11 0.931540 0.863563 0.895201
O O12 0.057824 0.942177 0.000000
O O13 0.000000 0.000000 0.820051
O O14 0.140335 0.402572 0.850495
O O15 0.000000 0.500000 0.847079
O O16 0.160564 0.249355 0.801142
O O17 0.196403 0.196403 0.000000
#
# Coordination Sequence:
#
# PCOD8305655 Si02
#       7
#     8   8   8   8   8   8   8
#     4  10  23  37  58  85 117 154 196 252 297 350
#     4  11  21  37  59  87 121 155 190 240 299 365
#     4  11  21  38  57  85 121 154 194 239 302 359
#     4  10  20  36  55  82 110 147 195 240 291 337
#     4  11  22  36  58  87 118 154 192 235 297 364
#     4  11  23  37  58  85 118 153 198 251 295 347
#     4  11  21  38  57  85 121 154 194 239 302 359
#
# _framework density 18.272328000000002
#
# number of rings (size 3 to 8) (size 9 to 14) (size 15 to 20)
#    0.000    1.286    4.286    2.571    2.000    0.000 
#    2.571    0.000    0.000    0.000    0.000    0.000 
#    0.000    0.000    0.000    0.000    0.000    0.000 
#
# Total GULP energy -693896.239474 kJ/mol
# GULP energy per Si atom -12391.004276 kJ/mol
# Density = 1.823074 g / cm^3
# Si number density = 18.272328 Si / 1000 Ang^3
#
#
#
# Elastic Constant Matrix: (Units=GPa)
#
#
# Indices 1 2 3 4 5 6 
#
# 1 94.3223 39.4951 38.3130 0.0000 0.0000 0.0000
# 2 39.4951 94.3224 38.3129 0.0000 0.0000 0.0000
# 3 38.3130 38.3129 110.2617 0.0000 0.0000 0.0000
# 4 0.0000 0.0000 0.0000 -5.3551 0.0000 0.0000
# 5 0.0000 0.0000 0.0000 0.0000 -5.3584 0.0000
# 6 0.0000 0.0000 0.0000 0.0000 0.0000 33.6305
#
#
#
# Elastic Compliance Matrix: (Units=1/GPa)
#
#
# Indices 1 2 3 4 5 6 
#
# 1 0.013784 -0.004455 -0.003242 0.000000 0.000000 0.000000
# 2 -0.004455 0.013784 -0.003242 0.000000 0.000000 0.000000
# 3 -0.003242 -0.003242 0.011322 0.000000 0.000000 0.000000
# 4 0.000000 0.000000 0.000000 -0.186736 0.000000 0.000000
# 5 0.000000 0.000000 0.000000 0.000000 -0.186624 0.000000
# 6 0.000000 0.000000 0.000000 0.000000 0.000000 0.029735
#
#
# Mechanical properties :
#
#
# Convention : Reuss Voigt Hill
#
# Bulk Modulus (GPa) = 58.77582 59.01648 58.89615
# Shear Modulus (GPa) = -18.03832 16.76909 -0.63462
#
# Velocity S-wave (km/s) = -3.14537 3.03269 -0.58997
# Velocity P-wave (km/s) = 4.36409 6.68067 5.64254
#
# Compressibility (1/GPa) = 0.01701380
#
# Stress axis : x y z
#
# Youngs Moduli (GPa) = 72.54734 72.54754 88.32313
#
# Poissons Ratio (x) = 0.32320 0.28631
# Poissons Ratio (y) = 0.32320 0.28631
# Poissons Ratio (z) = 0.23517 0.23517
#
# Static dielectric constant tensor:
#      x y z
#    x 3.764110 0.000000 0.000000 
#    y 0.000000 3.764180 0.000000 
#    z 0.000000 0.000000 3.438110 
# 
# 
# High freq. dielectric constant tensor:
#      x y z
#    x 1.713740 0.000000 0.000000 
#    y 0.000000 1.713740 0.000000 
#    z 0.000000 0.000000 1.710040 
# 
# From -- ./inp_files/2741.got.cif
#   From: 2010.03.12/outbox.cif.g09.slc.cpg/sg94_2_cif.got.tgz:2741.got - 2010.04.08 20:48:32.
