data_PCOD8305746
_publ_section_title
;
Structure prediction by ZEFSAII (Michael W. Deem and Ramdas Pophale) SiO2 
 PCOD8305746
Probable space group: P 42 21 2
;
_chemical_formula_sum "Si O2"
_cell_formula_units_Z 32
_cell_length_a 10.862391
_cell_length_b 10.862391
_cell_length_c 11.887628
_cell_angle_alpha 90.000000
_cell_angle_beta 90.000000
_cell_angle_gamma 90.000000
_cell_volume 1402.639514
_symmetry_space_group_name_H-M "P 42 21 2"
_symmetry_group_IT_number 94
_symmetry_cell_setting 'tetragonal'
loop_
_space_group_symop_operation_xyz
x,y,z
1/2-y,1/2+x,1/2+z
-x,-y,z
1/2+y,1/2-x,1/2+z
1/2+x,1/2-y,1/2-z
1/2-x,1/2+y,1/2-z
y,x,-z
-y,-x,-z
loop_
_atom_site_type_symbol
_atom_site_label
_atom_site_fract_x
_atom_site_fract_y
_atom_site_fract_z
Si Si1 0.947153 0.187732 0.686426
Si Si2 0.114973 0.713179 0.931142
Si Si3 0.196880 0.056284 0.681238
Si Si4 0.437579 0.875685 0.386025
O O1 0.919943 0.231466 0.811962
O O2 0.907739 0.293754 0.599134
O O3 0.092465 0.161760 0.683171
O O4 0.866434 0.071447 0.649355
O O5 0.206095 0.596684 0.914301
O O6 0.178300 0.821701 0.000000
O O7 0.993938 0.663458 0.994191
O O8 0.262657 0.042374 0.801241
O O9 0.500000 0.000000 0.337366
#
# Coordination Sequence:
#
# PCOD8305746 Si02
#       4
#     8   8   8   8
#     4  10  23  45  75 102 146 192 241 304 370 430
#     4  11  22  43  71 104 146 191 250 301 367 441
#     4  10  23  46  73 100 148 190 236 314 355 434
#     4  11  24  43  68 106 144 188 244 293 375 434
#
# _framework density 22.814129000000001
#
# number of rings (size 3 to 8) (size 9 to 14) (size 15 to 20)
#    0.000    1.500    2.500    1.500    3.500    5.000 
#    4.500    7.500    0.000    0.000    0.000    0.000 
#    0.000    0.000    0.000    0.000    0.000    0.000 
#
# Total GULP energy -396861.959017 kJ/mol
# GULP energy per Si atom -12401.936219 kJ/mol
# Density = 2.276220 g / cm^3
# Si number density = 22.814129 Si / 1000 Ang^3
#
#
#
# Elastic Constant Matrix: (Units=GPa)
#
#
# Indices 1 2 3 4 5 6 
#
# 1 135.1762 68.5186 47.7520 0.0000 0.0000 0.0000
# 2 68.5186 135.1773 47.7515 0.0000 0.0000 0.0000
# 3 47.7520 47.7515 86.5342 0.0000 0.0000 0.0000
# 4 0.0000 0.0000 0.0000 34.3517 0.0000 0.0000
# 5 0.0000 0.0000 0.0000 0.0000 34.3524 0.0000
# 6 0.0000 0.0000 0.0000 0.0000 0.0000 39.5542
#
#
#
# Elastic Compliance Matrix: (Units=1/GPa)
#
#
# Indices 1 2 3 4 5 6 
#
# 1 0.010812 -0.004190 -0.003655 0.000000 0.000000 0.000000
# 2 -0.004190 0.010812 -0.003655 0.000000 0.000000 0.000000
# 3 -0.003655 -0.003655 0.015590 0.000000 0.000000 0.000000
# 4 0.000000 0.000000 0.000000 0.029111 0.000000 0.000000
# 5 0.000000 0.000000 0.000000 0.000000 0.029110 0.000000
# 6 0.000000 0.000000 0.000000 0.000000 0.000000 0.025282
#
#
# Mechanical properties :
#
#
# Convention : Reuss Voigt Hill
#
# Bulk Modulus (GPa) = 70.34013 76.10355 73.22184
# Shear Modulus (GPa) = 33.68067 34.50938 34.09502
#
# Velocity S-wave (km/s) = 3.84644 3.89348 3.87003
# Velocity P-wave (km/s) = 7.11517 7.32412 7.22040
#
# Compressibility (1/GPa) = 0.01421664
#
# Stress axis : x y z
#
# Youngs Moduli (GPa) = 92.48616 92.48756 64.14552
#
# Poissons Ratio (x) = 0.38748 0.23443
# Poissons Ratio (y) = 0.38748 0.23442
# Poissons Ratio (z) = 0.33801 0.33800
#
# Static dielectric constant tensor:
#      x y z
#    x 4.394420 0.000000 0.000000 
#    y 0.000000 4.394420 0.000000 
#    z 0.000000 0.000000 3.848680 
# 
# 
# High freq. dielectric constant tensor:
#      x y z
#    x 1.914620 0.000000 0.000000 
#    y 0.000000 1.914620 0.000000 
#    z 0.000000 0.000000 1.891860 
# 
# From -- ./inp_files/2252.got.cif
#   From: 2010.03.12/outbox.cif.g09.slc.cpg/sg94_2_cif.got.tgz:2252.got - 2010.04.08 20:48:32.
