data_PCOD8305341
_publ_section_title
;
Structure prediction by ZEFSAII (Michael W. Deem and Ramdas Pophale) SiO2 
 PCOD8305341
Probable space group: P 41 21 2
;
_chemical_formula_sum "Si O2"
_cell_formula_units_Z 36
_cell_length_a 13.000689
_cell_length_b 13.000689
_cell_length_c 10.413676
_cell_angle_alpha 90.000000
_cell_angle_beta 90.000000
_cell_angle_gamma 90.000000
_cell_volume 1760.097800
_symmetry_space_group_name_H-M "P 41 21 2"
_symmetry_group_IT_number 92
_symmetry_cell_setting 'tetragonal'
loop_
_space_group_symop_operation_xyz
x,y,z
1/2-y,1/2+x,1/4+z
-x,-y,1/2+z
1/2+y,1/2-x,3/4+z
1/2+x,1/2-y,3/4-z
1/2-x,1/2+y,1/4-z
y,x,-z
-y,-x,1/2-z
loop_
_atom_site_type_symbol
_atom_site_label
_atom_site_fract_x
_atom_site_fract_y
_atom_site_fract_z
Si Si1 0.968012 0.734237 0.713622
Si Si2 0.885512 0.260347 0.977208
Si Si3 0.646167 0.408062 0.392307
Si Si4 0.380434 0.380434 0.000000
Si Si5 0.716804 0.170269 0.136050
O O1 0.878484 0.650103 0.722897
O O2 0.921885 0.843746 0.755346
O O3 0.013681 0.744755 0.569129
O O4 0.054583 0.696239 0.816104
O O5 0.900233 0.224485 0.830397
O O6 0.800818 0.177299 0.023891
O O7 0.619435 0.380566 0.250000
O O8 0.616700 0.525802 0.402482
O O9 0.769399 0.385907 0.411695
O O10 0.762946 0.237055 0.250000
#
# Coordination Sequence:
#
# PCOD8305341 Si02
#       5
#     8   8   8   4   8
#     4  10  21  42  67  90 125 179 217 277 334 402
#     4  10  23  40  60  95 132 164 221 276 332 397
#     4  10  22  37  62  95 123 169 223 269 325 397
#     4  12  26  36  58  96 132 170 210 282 338 398
#     4   8  17  38  65  87 117 161 219 266 314 395
#
# _framework density 20.453409000000001
#
# number of rings (size 3 to 8) (size 9 to 14) (size 15 to 20)
#    0.000    2.222    0.000    2.667    7.778    3.556 
#    4.000    0.000    0.000    0.000    0.000    0.000 
#    0.000    0.000    0.000    0.000    0.000    0.000 
#
# Total GULP energy -446033.191147 kJ/mol
# GULP energy per Si atom -12389.810865 kJ/mol
# Density = 2.040686 g / cm^3
# Si number density = 20.453409 Si / 1000 Ang^3
#
#
#
# Elastic Constant Matrix: (Units=GPa)
#
#
# Indices 1 2 3 4 5 6 
#
# 1 83.4086 86.1947 39.2021 0.0000 0.0000 0.0000
# 2 86.1947 83.4229 39.2004 0.0000 0.0000 0.0000
# 3 39.2021 39.2004 96.9627 0.0000 0.0000 0.0000
# 4 0.0000 0.0000 0.0000 42.7254 0.0000 0.0000
# 5 0.0000 0.0000 0.0000 0.0000 42.7263 0.0000
# 6 0.0000 0.0000 0.0000 0.0000 0.0000 19.7980
#
#
#
# Elastic Compliance Matrix: (Units=1/GPa)
#
#
# Indices 1 2 3 4 5 6 
#
# 1 -0.176322 0.183553 -0.002920 0.000000 0.000000 0.000000
# 2 0.183553 -0.176282 -0.002943 0.000000 0.000000 0.000000
# 3 -0.002920 -0.002943 0.012684 0.000000 0.000000 0.000000
# 4 0.000000 0.000000 0.000000 0.023405 0.000000 0.000000
# 5 0.000000 0.000000 0.000000 0.000000 0.023405 0.000000
# 6 0.000000 0.000000 0.000000 0.000000 0.000000 0.050510
#
#
# Mechanical properties :
#
#
# Convention : Reuss Voigt Hill
#
# Bulk Modulus (GPa) = 64.68511 65.88760 65.28635
# Shear Modulus (GPa) = -8.43416 27.66309 9.61446
#
# Velocity S-wave (km/s) = -2.03287 3.68161 2.17045
# Velocity P-wave (km/s) = 5.11705 7.09618 6.18628
#
# Compressibility (1/GPa) = 0.01545951
#
# Stress axis : x y z
#
# Youngs Moduli (GPa) = -5.67143 -5.67274 78.84197
#
# Poissons Ratio (x) = 1.04125 0.23022
# Poissons Ratio (y) = 1.04101 0.23203
# Poissons Ratio (z) = -0.01656 -0.01669
#
# Static dielectric constant tensor:
#      x y z
#    x 3.776940 0.000000 0.000000 
#    y 0.000000 3.776940 0.000000 
#    z 0.000000 0.000000 3.728650 
# 
# 
# High freq. dielectric constant tensor:
#      x y z
#    x 1.790710 0.000000 0.000000 
#    y 0.000000 1.790710 0.000000 
#    z 0.000000 0.000000 1.801080 
# 
# From -- ./inp_files/2023.got.cif
#   From: 2010.03.12/outbox.cif.g09.slc.cpg/sg92_2_cif.got.tgz:2023.got - 2010.04.08 20:41:11.
