data_PCOD8305690
_publ_section_title
;
Structure prediction by ZEFSAII (Michael W. Deem and Ramdas Pophale) SiO2 
 PCOD8305690
Probable space group: P 42 21 2
;
_chemical_formula_sum "Si O2"
_cell_formula_units_Z 32
_cell_length_a 12.723748
_cell_length_b 12.723748
_cell_length_c 9.540828
_cell_angle_alpha 90.000000
_cell_angle_beta 90.000000
_cell_angle_gamma 90.000000
_cell_volume 1544.600549
_symmetry_space_group_name_H-M "P 42 21 2"
_symmetry_group_IT_number 94
_symmetry_cell_setting 'tetragonal'
loop_
_space_group_symop_operation_xyz
x,y,z
1/2-y,1/2+x,1/2+z
-x,-y,z
1/2+y,1/2-x,1/2+z
1/2+x,1/2-y,1/2-z
1/2-x,1/2+y,1/2-z
y,x,-z
-y,-x,-z
loop_
_atom_site_type_symbol
_atom_site_label
_atom_site_fract_x
_atom_site_fract_y
_atom_site_fract_z
Si Si1 0.546076 0.883173 0.162212
Si Si2 0.220509 0.059395 0.179437
Si Si3 0.240772 0.900635 0.421071
Si Si4 0.741879 0.414714 0.634341
O O1 0.667089 0.886394 0.208668
O O2 0.488894 0.819413 0.282766
O O3 0.500000 0.000000 0.143078
O O4 0.528731 0.818172 0.018179
O O5 0.119693 0.134316 0.212636
O O6 0.208076 0.959056 0.278703
O O7 0.217881 0.028629 0.014378
O O8 0.133207 0.866794 0.500000
O O9 0.301397 0.794603 0.384641
#
# Coordination Sequence:
#
# PCOD8305690 Si02
#       4
#     8   8   8   8
#     4  11  22  35  65  96 121 162 219 265 320 380
#     4  10  22  39  64  89 128 167 208 268 320 380
#     4  11  22  41  63  92 131 166 207 271 324 385
#     4  10  21  41  60  94 129 165 212 270 324 376
#
# _framework density 20.717328999999999
#
# number of rings (size 3 to 8) (size 9 to 14) (size 15 to 20)
#    0.000    1.500    7.500    0.000    7.000    1.000 
#    0.000    3.750    0.000    3.000    0.000    0.000 
#    0.000    0.000    0.000    0.000    0.000    0.000 
#
# Total GULP energy -396574.110847 kJ/mol
# GULP energy per Si atom -12392.940964 kJ/mol
# Density = 2.067018 g / cm^3
# Si number density = 20.717329 Si / 1000 Ang^3
#
#
#
# Elastic Constant Matrix: (Units=GPa)
#
#
# Indices 1 2 3 4 5 6 
#
# 1 51.2169 51.3963 52.6966 0.0000 0.0000 0.0000
# 2 51.3963 51.2168 52.6965 0.0000 0.0000 0.0000
# 3 52.6966 52.6965 112.0346 0.0000 0.0000 0.0000
# 4 0.0000 0.0000 0.0000 36.5023 0.0000 0.0000
# 5 0.0000 0.0000 0.0000 0.0000 36.5029 0.0000
# 6 0.0000 0.0000 0.0000 0.0000 0.0000 26.4053
#
#
#
# Elastic Compliance Matrix: (Units=1/GPa)
#
#
# Indices 1 2 3 4 5 6 
#
# 1 -2.777175 2.796028 -0.008866 0.000000 0.000000 0.000000
# 2 2.796028 -2.777174 -0.008870 0.000000 0.000000 0.000000
# 3 -0.008866 -0.008870 0.017268 0.000000 0.000000 0.000000
# 4 0.000000 0.000000 0.000000 0.027396 0.000000 0.000000
# 5 0.000000 0.000000 0.000000 0.000000 0.027395 0.000000
# 6 0.000000 0.000000 0.000000 0.000000 0.000000 0.037871
#
#
# Mechanical properties :
#
#
# Convention : Reuss Voigt Hill
#
# Bulk Modulus (GPa) = 51.27323 58.67191 54.97257
# Shear Modulus (GPa) = -0.45477 23.72735 11.63629
#
# Velocity S-wave (km/s) = -0.46903 3.38788 2.37253
# Velocity P-wave (km/s) = 4.95069 6.60949 5.83930
#
# Compressibility (1/GPa) = 0.01950336
#
# Stress axis : x y z
#
# Youngs Moduli (GPa) = -0.36008 -0.36008 57.91036
#
# Poissons Ratio (x) = 1.00679 0.51341
# Poissons Ratio (y) = 1.00679 0.51368
# Poissons Ratio (z) = -0.00319 -0.00319
#
# Static dielectric constant tensor:
#      x y z
#    x 3.737510 0.000000 0.000000 
#    y 0.000000 3.737510 0.000000 
#    z 0.000000 0.000000 4.126540 
# 
# 
# High freq. dielectric constant tensor:
#      x y z
#    x 1.802590 0.000000 0.000000 
#    y 0.000000 1.802590 0.000000 
#    z 0.000000 0.000000 1.809180 
# 
# From -- ./inp_files/1202.got.cif
#   From: 2010.03.12/outbox.cif.g09.slc.cpg/sg94_1_cif.got.tgz:1202.got - 2010.04.08 20:48:32.
