data_PCOD8305905
_publ_section_title
;
Structure prediction by ZEFSAII (Michael W. Deem and Ramdas Pophale) SiO2 
 PCOD8305905
Probable space group: P 43 21 2
;
_chemical_formula_sum "Si O2"
_cell_formula_units_Z 44
_cell_length_a 9.236767
_cell_length_b 9.236767
_cell_length_c 27.465630
_cell_angle_alpha 90.000000
_cell_angle_beta 90.000000
_cell_angle_gamma 90.000000
_cell_volume 2343.308902
_symmetry_space_group_name_H-M "P 43 21 2"
_symmetry_group_IT_number 96
_symmetry_cell_setting 'tetragonal'
loop_
_space_group_symop_operation_xyz
x,y,z
1/2-y,1/2+x,3/4+z
-x,-y,1/2+z
1/2+y,1/2-x,1/4+z
1/2+x,1/2-y,1/4-z
1/2-x,1/2+y,3/4-z
y,x,-z
-y,-x,1/2-z
loop_
_atom_site_type_symbol
_atom_site_label
_atom_site_fract_x
_atom_site_fract_y
_atom_site_fract_z
Si Si1 0.075841 0.924160 0.750000
Si Si2 0.136793 0.493526 0.961234
Si Si3 0.220759 0.377642 0.127532
Si Si4 0.013196 0.173730 0.070492
Si Si5 0.555383 0.728694 0.788533
Si Si6 0.383653 0.759317 0.445872
O O1 0.087669 0.793909 0.709877
O O2 0.927144 0.899994 0.780394
O O3 0.125384 0.631693 0.927033
O O4 0.018301 0.377807 0.944611
O O5 0.117947 0.556093 0.016510
O O6 0.385254 0.328912 0.139743
O O7 0.221897 0.540675 0.106348
O O8 0.144383 0.274835 0.088113
O O9 0.946901 0.229912 0.019896
O O10 0.085795 0.017486 0.061334
O O11 0.714193 0.730436 0.811108
#
# Coordination Sequence:
#
# PCOD8305905 Si02
#       6
#     4   8   8   8   8   8
#     4   8  16  38  58  82 114 148 196 254 284 340
#     4  10  20  38  60  88 116 156 201 252 290 359
#     4  12  22  37  63  91 114 153 210 245 294 363
#     4  11  22  36  62  89 112 156 201 244 293 359
#     4  11  21  39  59  83 124 157 189 245 311 348
#     4  10  21  36  61  86 119 150 197 251 292 351
#
# _framework density 18.776865999999998
#
# number of rings (size 3 to 8) (size 9 to 14) (size 15 to 20)
#    1.091    0.364    3.636    4.364    0.000    1.455 
#    0.000    0.000    4.000    0.000    0.000    0.000 
#    0.000    0.000    0.000    0.000    0.000    0.000 
#
# Total GULP energy -545154.771915 kJ/mol
# GULP energy per Si atom -12389.881180 kJ/mol
# Density = 1.873413 g / cm^3
# Si number density = 18.776866 Si / 1000 Ang^3
#
#
#
# Elastic Constant Matrix: (Units=GPa)
#
#
# Indices 1 2 3 4 5 6 
#
# 1 102.4280 34.9782 17.0316 0.0000 0.0000 0.0000
# 2 34.9782 102.4275 17.0314 0.0000 0.0000 0.0000
# 3 17.0316 17.0314 59.4587 0.0000 0.0000 0.0000
# 4 0.0000 0.0000 0.0000 29.9527 0.0000 0.0000
# 5 0.0000 0.0000 0.0000 0.0000 29.9527 0.0000
# 6 0.0000 0.0000 0.0000 0.0000 0.0000 12.0576
#
#
#
# Elastic Compliance Matrix: (Units=1/GPa)
#
#
# Indices 1 2 3 4 5 6 
#
# 1 0.011330 -0.003496 -0.002244 0.000000 0.000000 0.000000
# 2 -0.003496 0.011330 -0.002244 0.000000 0.000000 0.000000
# 3 -0.002244 -0.002244 0.018104 0.000000 0.000000 0.000000
# 4 0.000000 0.000000 0.000000 0.033386 0.000000 0.000000
# 5 0.000000 0.000000 0.000000 0.000000 0.033386 0.000000
# 6 0.000000 0.000000 0.000000 0.000000 0.000000 0.082935
#
#
# Mechanical properties :
#
#
# Convention : Reuss Voigt Hill
#
# Bulk Modulus (GPa) = 40.32913 44.71074 42.51993
# Shear Modulus (GPa) = 23.28784 27.41080 25.34932
#
# Velocity S-wave (km/s) = 3.52553 3.82490 3.67826
# Velocity P-wave (km/s) = 6.17229 6.58557 6.38228
#
# Compressibility (1/GPa) = 0.02479597
#
# Stress axis : x y z
#
# Youngs Moduli (GPa) = 88.26183 88.26156 55.23656
#
# Poissons Ratio (x) = 0.30856 0.12395
# Poissons Ratio (y) = 0.30856 0.12395
# Poissons Ratio (z) = 0.19806 0.19806
#
# Static dielectric constant tensor:
#      x y z
#    x 3.243880 0.000000 0.000000 
#    y 0.000000 3.243880 0.000000 
#    z 0.000000 0.000000 3.415300 
# 
# 
# High freq. dielectric constant tensor:
#      x y z
#    x 1.712470 0.000000 0.000000 
#    y 0.000000 1.712470 0.000000 
#    z 0.000000 0.000000 1.734920 
# 
# From -- ./inp_files/4369.got.cif
#   From: 2010.03.12/outbox.cif.g09.slc.cpg/sg96_3_cif.got.tgz:4369.got - 2010.04.08 20:56:49.
