data_PCOD8305407
_publ_section_title
;
Structure prediction by ZEFSAII (Michael W. Deem and Ramdas Pophale) SiO2 
 PCOD8305407
Probable space group: P 41 21 2
;
_chemical_formula_sum "Si O2"
_cell_formula_units_Z 40
_cell_length_a 8.344245
_cell_length_b 8.344245
_cell_length_c 23.218343
_cell_angle_alpha 90.000000
_cell_angle_beta 90.000000
_cell_angle_gamma 90.000000
_cell_volume 1616.610209
_symmetry_space_group_name_H-M "P 41 21 2"
_symmetry_group_IT_number 92
_symmetry_cell_setting 'tetragonal'
loop_
_space_group_symop_operation_xyz
x,y,z
1/2-y,1/2+x,1/4+z
-x,-y,1/2+z
1/2+y,1/2-x,3/4+z
1/2+x,1/2-y,3/4-z
1/2-x,1/2+y,1/4-z
y,x,-z
-y,-x,1/2-z
loop_
_atom_site_type_symbol
_atom_site_label
_atom_site_fract_x
_atom_site_fract_y
_atom_site_fract_z
Si Si1 0.751562 0.248439 0.250000
Si Si2 0.057326 0.815359 0.935446
Si Si3 0.176146 0.823855 0.250000
Si Si4 0.728704 0.403494 0.849719
Si Si5 0.038713 0.595909 0.832702
Si Si6 0.725786 0.831325 0.712637
O O1 0.717643 0.372850 0.198966
O O2 0.927885 0.282437 0.277780
O O3 0.107241 0.684019 0.888484
O O4 0.063983 0.999685 0.912477
O O5 0.176908 0.799570 0.990118
O O6 0.257009 0.748404 0.307392
O O7 0.987261 0.791279 0.253659
O O8 0.737830 0.353849 0.916795
O O9 0.853641 0.547923 0.837540
O O10 0.131509 0.430312 0.825072
#
# Coordination Sequence:
#
# PCOD8305407 Si02
#       6
#     4   8   4   8   8   8
#     4  10  23  42  63  90 126 168 209 262 325 390
#     4  11  23  41  64  93 129 168 215 271 329 390
#     4  10  23  44  69  96 132 176 225 276 333 406
#     4  11  24  41  68  99 131 173 223 276 335 402
#     4  10  23  43  66  92 129 172 218 272 329 395
#     4  10  24  42  65  95 132 173 220 273 331 398
#
# _framework density 24.743133
#
# number of rings (size 3 to 8) (size 9 to 14) (size 15 to 20)
#    0.000    1.600    0.000    3.000    0.000   19.200 
#    0.000    1.000    0.000    0.000    0.000    0.000 
#    0.000    0.000    0.000    0.000    0.000    0.000 
#
# Total GULP energy -495808.514250 kJ/mol
# GULP energy per Si atom -12395.212856 kJ/mol
# Density = 2.468682 g / cm^3
# Si number density = 24.743133 Si / 1000 Ang^3
#
#
#
# Elastic Constant Matrix: (Units=GPa)
#
#
# Indices 1 2 3 4 5 6 
#
# 1 58.8631 27.3341 33.1511 0.0000 0.0000 0.0000
# 2 27.3341 58.8634 33.1519 0.0000 0.0000 0.0000
# 3 33.1511 33.1519 124.9423 0.0000 0.0000 0.0000
# 4 0.0000 0.0000 0.0000 42.5716 0.0000 0.0000
# 5 0.0000 0.0000 0.0000 0.0000 42.5716 0.0000
# 6 0.0000 0.0000 0.0000 0.0000 0.0000 36.6992
#
#
#
# Elastic Compliance Matrix: (Units=1/GPa)
#
#
# Indices 1 2 3 4 5 6 
#
# 1 0.023146 -0.008570 -0.003867 0.000000 0.000000 0.000000
# 2 -0.008570 0.023146 -0.003868 0.000000 0.000000 0.000000
# 3 -0.003867 -0.003868 0.010056 0.000000 0.000000 0.000000
# 4 0.000000 0.000000 0.000000 0.023490 0.000000 0.000000
# 5 0.000000 0.000000 0.000000 0.000000 0.023490 0.000000
# 6 0.000000 0.000000 0.000000 0.000000 0.000000 0.027249
#
#
# Mechanical properties :
#
#
# Convention : Reuss Voigt Hill
#
# Bulk Modulus (GPa) = 42.12610 47.77142 44.94876
# Shear Modulus (GPa) = 29.22256 34.30393 31.76325
#
# Velocity S-wave (km/s) = 3.44035 3.72748 3.58679
# Velocity P-wave (km/s) = 5.73094 6.15421 5.94634
#
# Compressibility (1/GPa) = 0.02373825
#
# Stress axis : x y z
#
# Youngs Moduli (GPa) = 43.20327 43.20314 99.44217
#
# Poissons Ratio (x) = 0.37026 0.38459
# Poissons Ratio (y) = 0.37026 0.38461
# Poissons Ratio (z) = 0.16709 0.16710
#
# Static dielectric constant tensor:
#      x y z
#    x 4.472280 0.000000 0.000000 
#    y 0.000000 4.472270 0.000000 
#    z 0.000000 0.000000 4.474160 
# 
# 
# High freq. dielectric constant tensor:
#      x y z
#    x 1.980920 0.000000 0.000000 
#    y 0.000000 1.980920 0.000000 
#    z 0.000000 0.000000 1.993070 
# 
# From -- ./inp_files/3818.got.cif
#   From: 2010.03.12/outbox.cif.g09.slc.cpg/sg92_2_cif.got.tgz:3818.got - 2010.04.08 20:41:11.
