data_PCOD8305255
_publ_section_title
;
Structure prediction by ZEFSAII (Michael W. Deem and Ramdas Pophale) SiO2 
 PCOD8305255
Probable space group: P 41 21 2
;
_chemical_formula_sum "Si O2"
_cell_formula_units_Z 64
_cell_length_a 12.098265
_cell_length_b 12.098265
_cell_length_c 22.499580
_cell_angle_alpha 90.000000
_cell_angle_beta 90.000000
_cell_angle_gamma 90.000000
_cell_volume 3293.218886
_symmetry_space_group_name_H-M "P 41 21 2"
_symmetry_group_IT_number 92
_symmetry_cell_setting 'tetragonal'
loop_
_space_group_symop_operation_xyz
x,y,z
1/2-y,1/2+x,1/4+z
-x,-y,1/2+z
1/2+y,1/2-x,3/4+z
1/2+x,1/2-y,3/4-z
1/2-x,1/2+y,1/4-z
y,x,-z
-y,-x,1/2-z
loop_
_atom_site_type_symbol
_atom_site_label
_atom_site_fract_x
_atom_site_fract_y
_atom_site_fract_z
Si Si1 0.616303 0.727180 0.792557
Si Si2 0.129075 0.687136 0.603474
Si Si3 0.542704 0.376072 0.013910
Si Si4 0.911599 0.852387 0.891057
Si Si5 0.038270 0.796845 0.716914
Si Si6 0.358798 0.027448 0.304732
Si Si7 0.493308 0.937367 0.978911
Si Si8 0.777194 0.503457 0.321822
O O1 0.737787 0.678015 0.800815
O O2 0.527216 0.646356 0.823608
O O3 0.609501 0.847726 0.824326
O O4 0.602589 0.737907 0.721052
O O5 0.225236 0.622767 0.637240
O O6 0.067547 0.766475 0.649587
O O7 0.047966 0.596864 0.573515
O O8 0.587976 0.421595 0.077413
O O9 0.539420 0.243278 0.008104
O O10 0.419124 0.419124 0.000000
O O11 0.621849 0.432542 0.964851
O O12 0.819637 0.913834 0.929743
O O13 0.142775 0.857226 0.750000
O O14 0.991080 0.686623 0.747402
O O15 0.465832 0.967006 0.277167
O O16 0.310736 0.958848 0.361293
O O17 0.616431 0.949668 0.956735
#
# Coordination Sequence:
#
# PCOD8305255 Si02
#       8
#     8   8   8   8   8   8   8   8
#     4  11  20  34  56  89 126 148 189 247 310 362
#     4  12  22  34  59  90 131 151 192 256 306 361
#     4  10  20  37  60  81 115 158 210 240 282 360
#     4  11  20  35  58  89 123 154 190 246 312 364
#     4  11  21  33  58  94 124 154 190 244 320 367
#     4  10  21  37  58  79 120 160 204 241 283 359
#     4  11  21  36  58  90 124 156 195 242 307 359
#     4  10  20  34  57  84 118 160 192 235 299 364
#
# _framework density 19.433872999999998
#
# number of rings (size 3 to 8) (size 9 to 14) (size 15 to 20)
#    0.000    1.250    3.750    5.625    0.000    0.000 
#    0.000    0.000   27.500    1.500    0.000    0.000 
#    0.000    0.000    0.000    0.000    0.000    0.000 
#
# Total GULP energy -793244.371537 kJ/mol
# GULP energy per Si atom -12394.443305 kJ/mol
# Density = 1.938964 g / cm^3
# Si number density = 19.433873 Si / 1000 Ang^3
#
#
#
# Elastic Constant Matrix: (Units=GPa)
#
#
# Indices 1 2 3 4 5 6 
#
# 1 66.9472 20.5022 19.9637 0.0000 0.0000 0.0000
# 2 20.5022 66.9474 19.9638 0.0000 0.0000 0.0000
# 3 19.9637 19.9638 70.6531 0.0000 0.0000 0.0000
# 4 0.0000 0.0000 0.0000 32.1160 0.0000 0.0000
# 5 0.0000 0.0000 0.0000 0.0000 32.1159 0.0000
# 6 0.0000 0.0000 0.0000 0.0000 0.0000 21.3521
#
#
#
# Elastic Compliance Matrix: (Units=1/GPa)
#
#
# Indices 1 2 3 4 5 6 
#
# 1 0.017330 -0.004201 -0.003710 0.000000 0.000000 0.000000
# 2 -0.004201 0.017330 -0.003710 0.000000 0.000000 0.000000
# 3 -0.003710 -0.003710 0.016250 0.000000 0.000000 0.000000
# 4 0.000000 0.000000 0.000000 0.031137 0.000000 0.000000
# 5 0.000000 0.000000 0.000000 0.000000 0.031137 0.000000
# 6 0.000000 0.000000 0.000000 0.000000 0.000000 0.046834
#
#
# Mechanical properties :
#
#
# Convention : Reuss Voigt Hill
#
# Bulk Modulus (GPa) = 36.14135 36.15632 36.14884
# Shear Modulus (GPa) = 25.97651 26.72468 26.35059
#
# Velocity S-wave (km/s) = 3.66000 3.71234 3.68626
# Velocity P-wave (km/s) = 6.04138 6.08444 6.06295
#
# Compressibility (1/GPa) = 0.02766914
#
# Stress axis : x y z
#
# Youngs Moduli (GPa) = 57.70377 57.70390 61.53815
#
# Poissons Ratio (x) = 0.24241 0.22829
# Poissons Ratio (y) = 0.24241 0.22829
# Poissons Ratio (z) = 0.21406 0.21407
#
# Static dielectric constant tensor:
#      x y z
#    x 3.550940 0.000000 0.000000 
#    y 0.000000 3.550940 0.000000 
#    z 0.000000 0.000000 3.630070 
# 
# 
# High freq. dielectric constant tensor:
#      x y z
#    x 1.745270 0.000000 0.000000 
#    y 0.000000 1.745270 0.000000 
#    z 0.000000 0.000000 1.747060 
# 
# From -- ./inp_files/4001.got.cif
#   From: 2010.03.12/outbox.cif.g09.slc.cpg/sg92_3_cif.got.tgz:4001.got - 2010.04.08 20:41:11.
