data_PCOD8305575
_publ_section_title
;
Structure prediction by ZEFSAII (Michael W. Deem and Ramdas Pophale) SiO2 
 PCOD8305575
Probable space group: P 42 2 2
;
_chemical_formula_sum "Si O2"
_cell_formula_units_Z 34
_cell_length_a 9.021032
_cell_length_b 9.021032
_cell_length_c 18.852370
_cell_angle_alpha 90.000000
_cell_angle_beta 90.000000
_cell_angle_gamma 90.000000
_cell_volume 1534.187364
_symmetry_space_group_name_H-M "P 42 2 2"
_symmetry_group_IT_number 93
_symmetry_cell_setting 'tetragonal'
loop_
_space_group_symop_operation_xyz
x,y,z
-y,x,1/2+z
-x,-y,z
y,-x,1/2+z
x,-y,-z
-x,y,-z
y,x,1/2-z
-y,-x,1/2-z
loop_
_atom_site_type_symbol
_atom_site_label
_atom_site_fract_x
_atom_site_fract_y
_atom_site_fract_z
Si Si1 0.037002 0.334215 0.918197
Si Si2 0.187424 0.847924 0.833602
Si Si3 0.000000 0.500000 0.500000
Si Si4 0.450348 0.651995 0.826970
Si Si5 0.691005 0.843498 0.883595
O O1 0.957559 0.205032 0.873999
O O2 0.000000 0.500000 0.889625
O O3 0.208142 0.294448 0.907759
O O4 0.000000 0.320333 0.000000
O O5 0.165947 0.834054 0.750000
O O6 0.314919 0.738268 0.863960
O O7 0.221489 0.018798 0.850075
O O8 0.894193 0.398552 0.452526
O O9 0.500000 0.500000 0.867983
O O10 0.397747 0.602254 0.750000
O O11 0.582646 0.772859 0.824068
#
# Coordination Sequence:
#
# PCOD8305575 Si02
#       5
#     8   8   2   8   8
#     4  11  26  46  69 102 143 186 233 295 358 424
#     4  11  24  43  70 106 139 182 236 289 356 421
#     4  12  24  44  72 100 132 184 242 280 356 420
#     4  10  22  41  66  98 138 177 226 284 351 415
#     4  12  24  44  70  98 137 185 235 290 346 436
#
# _framework density 22.161570000000001
#
# number of rings (size 3 to 8) (size 9 to 14) (size 15 to 20)
#    0.000    0.941    2.353    3.529    0.000   10.353 
#    0.000    0.000    0.000    0.000    0.000    0.000 
#    0.000    0.000    0.000    0.000    0.000    0.000 
#
# Total GULP energy -421459.999012 kJ/mol
# GULP energy per Si atom -12395.882324 kJ/mol
# Density = 2.211113 g / cm^3
# Si number density = 22.161570 Si / 1000 Ang^3
#
#
#
# Elastic Constant Matrix: (Units=GPa)
#
#
# Indices 1 2 3 4 5 6 
#
# 1 143.7611 67.0937 45.0618 0.0000 0.0000 0.0000
# 2 67.0937 143.7612 45.0618 0.0000 0.0000 0.0000
# 3 45.0618 45.0618 91.2752 0.0000 0.0000 0.0000
# 4 0.0000 0.0000 0.0000 4.0499 0.0000 0.0000
# 5 0.0000 0.0000 0.0000 0.0000 4.0546 0.0000
# 6 0.0000 0.0000 0.0000 0.0000 0.0000 65.1852
#
#
#
# Elastic Compliance Matrix: (Units=1/GPa)
#
#
# Indices 1 2 3 4 5 6 
#
# 1 0.009527 -0.003516 -0.002968 0.000000 0.000000 0.000000
# 2 -0.003516 0.009527 -0.002968 0.000000 0.000000 0.000000
# 3 -0.002968 -0.002968 0.013886 0.000000 0.000000 0.000000
# 4 0.000000 0.000000 0.000000 0.246919 0.000000 0.000000
# 5 0.000000 0.000000 0.000000 0.000000 0.246632 0.000000
# 6 0.000000 0.000000 0.000000 0.000000 0.000000 0.015341
#
#
# Mechanical properties :
#
#
# Convention : Reuss Voigt Hill
#
# Bulk Modulus (GPa) = 71.23674 77.02578 74.13126
# Shear Modulus (GPa) = 8.84308 29.42997 19.13653
#
# Velocity S-wave (km/s) = 1.99974 3.64809 2.94173
# Velocity P-wave (km/s) = 6.12748 7.25098 6.71277
#
# Compressibility (1/GPa) = 0.01403770
#
# Stress axis : x y z
#
# Youngs Moduli (GPa) = 104.96285 104.96293 72.01492
#
# Poissons Ratio (x) = 0.36907 0.21371
# Poissons Ratio (y) = 0.36907 0.21371
# Poissons Ratio (z) = 0.31149 0.31149
#
# Static dielectric constant tensor:
#      x y z
#    x 4.695800 0.000000 0.000000 
#    y 0.000000 4.695770 0.000000 
#    z 0.000000 0.000000 3.674040 
# 
# 
# High freq. dielectric constant tensor:
#      x y z
#    x 1.893700 0.000000 0.000000 
#    y 0.000000 1.893700 0.000000 
#    z 0.000000 0.000000 1.847320 
# 
# From -- ./inp_files/6075.got.cif
#   From: 2010.03.12/outbox.cif.g09.slc.cpg/sg93_4_cif.got.tgz:6075.got - 2010.04.08 20:44:19.
