data_PCOD8305476
_publ_section_title
;
Structure prediction by ZEFSAII (Michael W. Deem and Ramdas Pophale) SiO2 
 PCOD8305476
Probable space group: P 41 21 2
;
_chemical_formula_sum "Si O2"
_cell_formula_units_Z 40
_cell_length_a 8.931265
_cell_length_b 8.931265
_cell_length_c 22.150713
_cell_angle_alpha 90.000000
_cell_angle_beta 90.000000
_cell_angle_gamma 90.000000
_cell_volume 1766.906877
_symmetry_space_group_name_H-M "P 41 21 2"
_symmetry_group_IT_number 92
_symmetry_cell_setting 'tetragonal'
loop_
_space_group_symop_operation_xyz
x,y,z
1/2-y,1/2+x,1/4+z
-x,-y,1/2+z
1/2+y,1/2-x,3/4+z
1/2+x,1/2-y,3/4-z
1/2-x,1/2+y,1/4-z
y,x,-z
-y,-x,1/2-z
loop_
_atom_site_type_symbol
_atom_site_label
_atom_site_fract_x
_atom_site_fract_y
_atom_site_fract_z
Si Si1 0.864931 0.757435 0.696401
Si Si2 0.934473 0.065528 0.750000
Si Si3 0.579929 0.958609 0.106222
Si Si4 0.839094 0.319431 0.662200
Si Si5 0.676758 0.688322 0.190486
Si Si6 0.600977 0.399024 0.750000
O O1 0.785612 0.745301 0.630777
O O2 0.734842 0.732530 0.744170
O O3 0.004142 0.639715 0.697595
O O4 0.935276 0.918451 0.709031
O O5 0.932958 0.196908 0.699990
O O6 0.645553 0.842098 0.154419
O O7 0.447156 0.072420 0.127585
O O8 0.711786 0.069672 0.088234
O O9 0.757633 0.416609 0.714318
O O10 0.526389 0.592293 0.199160
#
# Coordination Sequence:
#
# PCOD8305476 Si02
#       6
#     8   4   8   8   8   4
#     4  12  26  46  75 105 148 202 247 307 369 451
#     4  11  26  45  74 110 140 199 247 306 380 444
#     4  12  28  49  73 112 155 197 245 318 370 456
#     4  11  24  47  77 104 146 195 259 303 368 451
#     4  12  29  48  75 111 156 197 251 307 391 440
#     4  11  24  47  74 110 144 203 249 306 364 456
#
# _framework density 22.638432000000002
#
# number of rings (size 3 to 8) (size 9 to 14) (size 15 to 20)
#    0.000    0.400    6.000    1.200    8.400    2.400 
#    0.000    0.000    0.000    0.000    0.000    0.000 
#    0.000    0.000    0.000    0.000    0.000    0.000 
#
# Total GULP energy -495716.084173 kJ/mol
# GULP energy per Si atom -12392.902104 kJ/mol
# Density = 2.258691 g / cm^3
# Si number density = 22.638432 Si / 1000 Ang^3
#
#
#
# Elastic Constant Matrix: (Units=GPa)
#
#
# Indices 1 2 3 4 5 6 
#
# 1 117.0727 78.1818 36.8112 0.0000 0.0000 0.0000
# 2 78.1818 117.0736 36.8111 0.0000 0.0000 0.0000
# 3 36.8112 36.8111 85.7757 0.0000 0.0000 0.0000
# 4 0.0000 0.0000 0.0000 34.1141 0.0000 0.0000
# 5 0.0000 0.0000 0.0000 0.0000 34.1144 0.0000
# 6 0.0000 0.0000 0.0000 0.0000 0.0000 52.7117
#
#
#
# Elastic Compliance Matrix: (Units=1/GPa)
#
#
# Indices 1 2 3 4 5 6 
#
# 1 0.015912 -0.009801 -0.002622 0.000000 0.000000 0.000000
# 2 -0.009801 0.015911 -0.002622 0.000000 0.000000 0.000000
# 3 -0.002622 -0.002622 0.013909 0.000000 0.000000 0.000000
# 4 0.000000 0.000000 0.000000 0.029313 0.000000 0.000000
# 5 0.000000 0.000000 0.000000 0.000000 0.029313 0.000000
# 6 0.000000 0.000000 0.000000 0.000000 0.000000 0.018971
#
#
# Mechanical properties :
#
#
# Convention : Reuss Voigt Hill
#
# Bulk Modulus (GPa) = 63.93651 69.28114 66.60882
# Shear Modulus (GPa) = 31.51901 35.39592 33.45746
#
# Velocity S-wave (km/s) = 3.73537 3.95844 3.84852
# Velocity P-wave (km/s) = 6.84893 7.18068 7.01676
#
# Compressibility (1/GPa) = 0.01564052
#
# Stress axis : x y z
#
# Youngs Moduli (GPa) = 62.84753 62.84811 71.89580
#
# Poissons Ratio (x) = 0.61599 0.18853
# Poissons Ratio (y) = 0.61598 0.18853
# Poissons Ratio (z) = 0.16480 0.16480
#
# Static dielectric constant tensor:
#      x y z
#    x 4.263250 0.000000 0.000000 
#    y 0.000000 4.263260 0.000000 
#    z 0.000000 0.000000 3.932980 
# 
# 
# High freq. dielectric constant tensor:
#      x y z
#    x 1.906750 0.000000 0.000000 
#    y 0.000000 1.906750 0.000000 
#    z 0.000000 0.000000 1.877720 
# 
# From -- ./inp_files/3829.got.cif
#   From: 2010.03.12/outbox.cif.g09.slc.cpg/sg92_2_cif.got.tgz:3829.got - 2010.04.08 20:41:11.
