data_PCOD8305421
_publ_section_title
;
Structure prediction by ZEFSAII (Michael W. Deem and Ramdas Pophale) SiO2 
 PCOD8305421
Probable space group: P 41 21 2
;
_chemical_formula_sum "Si O2"
_cell_formula_units_Z 60
_cell_length_a 11.849864
_cell_length_b 11.849864
_cell_length_c 19.485063
_cell_angle_alpha 90.000000
_cell_angle_beta 90.000000
_cell_angle_gamma 90.000000
_cell_volume 2736.078455
_symmetry_space_group_name_H-M "P 41 21 2"
_symmetry_group_IT_number 92
_symmetry_cell_setting 'tetragonal'
loop_
_space_group_symop_operation_xyz
x,y,z
1/2-y,1/2+x,1/4+z
-x,-y,1/2+z
1/2+y,1/2-x,3/4+z
1/2+x,1/2-y,3/4-z
1/2-x,1/2+y,1/4-z
y,x,-z
-y,-x,1/2-z
loop_
_atom_site_type_symbol
_atom_site_label
_atom_site_fract_x
_atom_site_fract_y
_atom_site_fract_z
Si Si1 0.495374 0.081750 0.231112
Si Si2 0.547078 0.452923 0.250000
Si Si3 0.594951 0.943939 0.588234
Si Si4 0.089053 0.795119 0.451167
Si Si5 0.744141 0.603164 0.053644
Si Si6 0.115972 0.814186 0.178435
Si Si7 0.234043 0.313962 0.697190
Si Si8 0.386298 0.601115 0.600651
O O1 0.428412 0.024317 0.167591
O O2 0.621485 0.115732 0.207689
O O3 0.420372 0.187087 0.258017
O O4 0.512013 0.993730 0.292271
O O5 0.417622 0.441020 0.229492
O O6 0.624208 0.419238 0.183569
O O7 0.571409 0.812083 0.580414
O O8 0.719442 0.978466 0.562212
O O9 0.158584 0.794274 0.380475
O O10 0.173892 0.744437 0.508324
O O11 0.705843 0.640813 0.129180
O O12 0.695061 0.475861 0.053277
O O13 0.681244 0.681244 0.000000
O O14 0.178547 0.821454 0.250000
O O15 0.017032 0.908420 0.171941
O O16 0.139178 0.229594 0.670178
#
# Coordination Sequence:
#
# PCOD8305421 Si02
#       8
#     8   4   8   8   8   8   8   8
#     4  12  25  49  71 111 147 197 250 306 383 459
#     4  10  24  46  72 106 146 188 244 312 380 446
#     4  12  25  46  72 106 142 193 247 298 377 451
#     4  11  25  43  69 105 143 185 246 303 367 442
#     4  12  28  44  77 112 151 196 256 317 380 454
#     4  11  23  43  72  98 141 191 236 298 370 436
#     4  12  25  46  72 105 149 198 241 306 374 452
#     4  11  24  47  73 106 147 193 246 303 375 455
#
# _framework density 21.929196999999998
#
# number of rings (size 3 to 8) (size 9 to 14) (size 15 to 20)
#    0.000    0.533    5.333    2.000    5.600    1.067 
#    0.000    1.333    0.000    0.000    0.000    0.000 
#    0.000    0.000    0.000    0.000    0.000    0.000 
#
# Total GULP energy -743737.416735 kJ/mol
# GULP energy per Si atom -12395.623612 kJ/mol
# Density = 2.187929 g / cm^3
# Si number density = 21.929197 Si / 1000 Ang^3
#
#
#
# Elastic Constant Matrix: (Units=GPa)
#
#
# Indices 1 2 3 4 5 6 
#
# 1 94.3066 35.9643 46.7176 0.0000 0.0000 0.0000
# 2 35.9643 94.3077 46.7182 0.0000 0.0000 0.0000
# 3 46.7176 46.7182 163.9391 0.0000 0.0000 0.0000
# 4 0.0000 0.0000 0.0000 36.8453 0.0000 0.0000
# 5 0.0000 0.0000 0.0000 0.0000 36.8454 0.0000
# 6 0.0000 0.0000 0.0000 0.0000 0.0000 36.9881
#
#
#
# Elastic Compliance Matrix: (Units=1/GPa)
#
#
# Indices 1 2 3 4 5 6 
#
# 1 0.013394 -0.003746 -0.002749 0.000000 0.000000 0.000000
# 2 -0.003746 0.013394 -0.002750 0.000000 0.000000 0.000000
# 3 -0.002749 -0.002750 0.007667 0.000000 0.000000 0.000000
# 4 0.000000 0.000000 0.000000 0.027141 0.000000 0.000000
# 5 0.000000 0.000000 0.000000 0.000000 0.027140 0.000000
# 6 0.000000 0.000000 0.000000 0.000000 0.000000 0.027036
#
#
# Mechanical properties :
#
#
# Convention : Reuss Voigt Hill
#
# Bulk Modulus (GPa) = 62.63484 67.92817 65.28151
# Shear Modulus (GPa) = 35.82085 37.01264 36.41675
#
# Velocity S-wave (km/s) = 4.04602 4.11277 4.07953
# Velocity P-wave (km/s) = 7.10291 7.32097 7.21276
#
# Compressibility (1/GPa) = 0.01596555
#
# Stress axis : x y z
#
# Youngs Moduli (GPa) = 74.65886 74.65952 130.43116
#
# Poissons Ratio (x) = 0.27967 0.35862
# Poissons Ratio (y) = 0.27966 0.35862
# Poissons Ratio (z) = 0.20527 0.20528
#
# Static dielectric constant tensor:
#      x y z
#    x 3.841490 0.000000 0.000000 
#    y 0.000000 3.841480 0.000000 
#    z 0.000000 0.000000 4.408650 
# 
# 
# High freq. dielectric constant tensor:
#      x y z
#    x 1.855350 0.000000 0.000000 
#    y 0.000000 1.855350 0.000000 
#    z 0.000000 0.000000 1.883180 
# 
# From -- ./inp_files/3641.got.cif
#   From: 2010.03.12/outbox.cif.g09.slc.cpg/sg92_2_cif.got.tgz:3641.got - 2010.04.08 20:41:11.
