data_PCOD8305072
_publ_section_title
;
Structure prediction by ZEFSAII (Michael W. Deem and Ramdas Pophale) SiO2 
 PCOD8305072
Probable space group: P 41 2 2
;
_chemical_formula_sum "Si O2"
_cell_formula_units_Z 64
_cell_length_a 11.612821
_cell_length_b 11.612821
_cell_length_c 22.461594
_cell_angle_alpha 90.000000
_cell_angle_beta 90.000000
_cell_angle_gamma 90.000000
_cell_volume 3029.116919
_symmetry_space_group_name_H-M "P 41 2 2"
_symmetry_group_IT_number 91
_symmetry_cell_setting 'tetragonal'
loop_
_space_group_symop_operation_xyz
x,y,z
-y,x,1/4+z
-x,-y,1/2+z
y,-x,3/4+z
x,-y,1/2-z
-x,y,-z
y,x,3/4-z
-y,-x,1/4-z
loop_
_atom_site_type_symbol
_atom_site_label
_atom_site_fract_x
_atom_site_fract_y
_atom_site_fract_z
Si Si1 0.797023 0.730140 0.044998
Si Si2 0.992814 0.639807 0.562875
Si Si3 0.752842 0.619105 0.611285
Si Si4 0.036948 0.062815 0.186407
Si Si5 0.771195 0.615738 0.218602
Si Si6 0.355899 0.194893 0.339324
Si Si7 0.811080 0.811616 0.438429
Si Si8 0.055272 0.420544 0.623121
O O1 0.666906 0.753889 0.070307
O O2 0.882293 0.835986 0.060894
O O3 0.847694 0.619921 0.077914
O O4 0.792547 0.690245 0.977342
O O5 0.064597 0.754784 0.550426
O O6 0.040682 0.557895 0.615089
O O7 0.000000 0.568833 0.500000
O O8 0.863188 0.675028 0.578586
O O9 0.640959 0.671385 0.579224
O O10 0.751411 0.481352 0.603699
O O11 0.948945 0.170115 0.184525
O O12 0.016202 0.000000 0.250000
O O13 0.015377 0.984624 0.125000
O O14 0.731612 0.500000 0.250000
O O15 0.775585 0.720154 0.263561
O O16 0.898330 0.601480 0.189670
O O17 0.260712 0.260712 0.375000
O O18 0.353982 0.063508 0.361024
O O19 0.765133 0.765133 0.375000
#
# Coordination Sequence:
#
# PCOD8305072 Si02
#       8
#     8   8   8   8   8   8   8   8
#     4  11  24  42  68  98 135 175 228 282 342 417
#     4  11  19  39  69  91 124 174 229 272 333 415
#     4  10  23  45  68  97 130 175 238 285 339 407
#     4  11  25  39  64 102 143 181 225 286 363 429
#     4  11  24  42  63  97 137 173 220 290 342 402
#     4  11  25  46  69  98 134 187 232 284 349 414
#     4  11  23  37  62  95 131 172 220 274 346 414
#     4  10  23  41  67  95 128 174 228 271 332 409
#
# _framework density 21.128270000000001
#
# number of rings (size 3 to 8) (size 9 to 14) (size 15 to 20)
#    0.000    1.250    1.250    5.250    5.250    2.500 
#    2.250    0.000    0.000    0.000    0.000    0.000 
#    0.000    0.000    0.000    0.000    0.000    0.000 
#
# Total GULP energy -793076.056070 kJ/mol
# GULP energy per Si atom -12391.813376 kJ/mol
# Density = 2.108018 g / cm^3
# Si number density = 21.128270 Si / 1000 Ang^3
#
#
#
# Elastic Constant Matrix: (Units=GPa)
#
#
# Indices 1 2 3 4 5 6 
#
# 1 79.7841 26.3899 29.5203 0.0000 0.0000 0.0000
# 2 26.3899 79.7839 29.5202 0.0000 0.0000 0.0000
# 3 29.5203 29.5202 105.3997 0.0000 0.0000 0.0000
# 4 0.0000 0.0000 0.0000 86.3571 0.0000 0.0000
# 5 0.0000 0.0000 0.0000 0.0000 86.3556 0.0000
# 6 0.0000 0.0000 0.0000 0.0000 0.0000 21.0056
#
#
#
# Elastic Compliance Matrix: (Units=1/GPa)
#
#
# Indices 1 2 3 4 5 6 
#
# 1 0.014942 -0.003786 -0.003125 0.000000 0.000000 0.000000
# 2 -0.003786 0.014942 -0.003125 0.000000 0.000000 0.000000
# 3 -0.003125 -0.003125 0.011238 0.000000 0.000000 0.000000
# 4 0.000000 0.000000 0.000000 0.011580 0.000000 0.000000
# 5 0.000000 0.000000 0.000000 0.000000 0.011580 0.000000
# 6 0.000000 0.000000 0.000000 0.000000 0.000000 0.047606
#
#
# Mechanical properties :
#
#
# Convention : Reuss Voigt Hill
#
# Bulk Modulus (GPa) = 47.50212 48.42539 47.96376
# Shear Modulus (GPa) = 35.97723 50.71284 43.34503
#
# Velocity S-wave (km/s) = 4.13098 4.90454 4.53428
# Velocity P-wave (km/s) = 6.72940 7.41904 7.08262
#
# Compressibility (1/GPa) = 0.02105169
#
# Stress axis : x y z
#
# Youngs Moduli (GPa) = 66.92406 66.92397 88.98429
#
# Poissons Ratio (x) = 0.25340 0.27804
# Poissons Ratio (y) = 0.25340 0.27804
# Poissons Ratio (z) = 0.20911 0.20911
#
# Static dielectric constant tensor:
#      x y z
#    x 3.766310 0.000000 0.000000 
#    y 0.000000 3.766310 0.000000 
#    z 0.000000 0.000000 4.800950 
# 
# 
# High freq. dielectric constant tensor:
#      x y z
#    x 1.823630 0.000000 0.000000 
#    y 0.000000 1.823630 0.000000 
#    z 0.000000 0.000000 1.843760 
# 
# From -- ./inp_files/12939.got.cif
#   From: 2010.03.12/outbox.cif.g09.slc.cpg/sg91_7_cif.got.tgz:12939.got - 2010.04.08 20:27:58.
