data_PCOD8305073
_publ_section_title
;
Structure prediction by ZEFSAII (Michael W. Deem and Ramdas Pophale) SiO2 
 PCOD8305073
Probable space group: P 41 2 2
;
_chemical_formula_sum "Si O2"
_cell_formula_units_Z 32
_cell_length_a 13.509141
_cell_length_b 13.509141
_cell_length_c 8.939978
_cell_angle_alpha 90.000000
_cell_angle_beta 90.000000
_cell_angle_gamma 90.000000
_cell_volume 1631.518187
_symmetry_space_group_name_H-M "P 41 2 2"
_symmetry_group_IT_number 91
_symmetry_cell_setting 'tetragonal'
loop_
_space_group_symop_operation_xyz
x,y,z
-y,x,1/4+z
-x,-y,1/2+z
y,-x,3/4+z
x,-y,1/2-z
-x,y,-z
y,x,3/4-z
-y,-x,1/4-z
loop_
_atom_site_type_symbol
_atom_site_label
_atom_site_fract_x
_atom_site_fract_y
_atom_site_fract_z
Si Si1 0.261583 0.611802 0.712293
Si Si2 0.330543 0.113852 0.710004
Si Si3 0.000000 0.644661 0.000000
Si Si4 0.500000 0.931181 0.000000
Si Si5 0.253722 0.205998 0.212697
O O1 0.247120 0.500000 0.750000
O O2 0.364072 0.635929 0.625000
O O3 0.171052 0.654886 0.615144
O O4 0.264780 0.663020 0.872961
O O5 0.428341 0.133562 0.606844
O O6 0.230974 0.150110 0.623179
O O7 0.316705 0.000000 0.750000
O O8 0.090576 0.719969 0.976093
O O9 0.996105 0.573158 0.854726
O O10 0.253306 0.253306 0.375000
#
# Coordination Sequence:
#
# PCOD8305073 Si02
#       5
#     8   8   4   4   8
#     4  10  23  42  63  90 129 169 211 267 329 388
#     4  11  23  39  64  98 131 170 214 272 327 385
#     4  12  24  40  68  94 134 166 216 272 326 392
#     4  12  22  36  68 100 120 166 222 272 322 388
#     4  11  24  41  64  96 133 165 213 271 325 382
#
# _framework density 19.613634000000001
#
# number of rings (size 3 to 8) (size 9 to 14) (size 15 to 20)
#    0.000    1.000    3.750    3.000    3.500    0.000 
#    0.000    1.250    2.750    0.000    0.000    0.000 
#    0.000    0.000    0.000    0.000    0.000    0.000 
#
# Total GULP energy -396584.496109 kJ/mol
# GULP energy per Si atom -12393.265503 kJ/mol
# Density = 1.956899 g / cm^3
# Si number density = 19.613634 Si / 1000 Ang^3
#
#
#
# Elastic Constant Matrix: (Units=GPa)
#
#
# Indices 1 2 3 4 5 6 
#
# 1 100.5533 63.8130 55.9773 0.0000 0.0000 0.0000
# 2 63.8130 100.5587 55.9784 0.0000 0.0000 0.0000
# 3 55.9773 55.9784 139.6156 0.0000 0.0000 0.0000
# 4 0.0000 0.0000 0.0000 -5.4042 0.0000 0.0000
# 5 0.0000 0.0000 0.0000 0.0000 -5.3130 0.0000
# 6 0.0000 0.0000 0.0000 0.0000 0.0000 20.2121
#
#
#
# Elastic Compliance Matrix: (Units=1/GPa)
#
#
# Indices 1 2 3 4 5 6 
#
# 1 0.017793 -0.009423 -0.003356 0.000000 0.000000 0.000000
# 2 -0.009423 0.017792 -0.003356 0.000000 0.000000 0.000000
# 3 -0.003356 -0.003356 0.009853 0.000000 0.000000 0.000000
# 4 0.000000 0.000000 0.000000 -0.185041 0.000000 0.000000
# 5 0.000000 0.000000 0.000000 0.000000 -0.188218 0.000000
# 6 0.000000 0.000000 0.000000 0.000000 0.000000 0.049475
#
#
# Mechanical properties :
#
#
# Convention : Reuss Voigt Hill
#
# Bulk Modulus (GPa) = 75.93212 76.91833 76.42523
# Shear Modulus (GPa) = -20.68810 12.89624 -3.89593
#
# Velocity S-wave (km/s) = -3.25126 2.56699 -1.41090
# Velocity P-wave (km/s) = 4.97028 6.93454 6.03289
#
# Compressibility (1/GPa) = 0.01316966
#
# Stress axis : x y z
#
# Youngs Moduli (GPa) = 56.20089 56.20415 101.48780
#
# Poissons Ratio (x) = 0.52963 0.34057
# Poissons Ratio (y) = 0.52960 0.34055
# Poissons Ratio (z) = 0.18860 0.18860
#
# Static dielectric constant tensor:
#      x y z
#    x 3.697950 0.000000 0.000000 
#    y 0.000000 3.697810 0.000000 
#    z 0.000000 0.000000 4.106410 
# 
# 
# High freq. dielectric constant tensor:
#      x y z
#    x 1.748080 0.000000 0.000000 
#    y 0.000000 1.748080 0.000000 
#    z 0.000000 0.000000 1.799890 
# 
# From -- ./inp_files/19258.got.cif
#   From: 2010.03.12/outbox.cif.g09.slc.cpg/sg91_10_cif.got.tgz:19258.got - 2010.04.08 20:27:58.
