data_PCOD8305363
_publ_section_title
;
Structure prediction by ZEFSAII (Michael W. Deem and Ramdas Pophale) SiO2 
 PCOD8305363
Probable space group: P 41 21 2
;
_chemical_formula_sum "Si O2"
_cell_formula_units_Z 36
_cell_length_a 12.486082
_cell_length_b 12.486082
_cell_length_c 10.722075
_cell_angle_alpha 90.000000
_cell_angle_beta 90.000000
_cell_angle_gamma 90.000000
_cell_volume 1671.595550
_symmetry_space_group_name_H-M "P 41 21 2"
_symmetry_group_IT_number 92
_symmetry_cell_setting 'tetragonal'
loop_
_space_group_symop_operation_xyz
x,y,z
1/2-y,1/2+x,1/4+z
-x,-y,1/2+z
1/2+y,1/2-x,3/4+z
1/2+x,1/2-y,3/4-z
1/2-x,1/2+y,1/4-z
y,x,-z
-y,-x,1/2-z
loop_
_atom_site_type_symbol
_atom_site_label
_atom_site_fract_x
_atom_site_fract_y
_atom_site_fract_z
Si Si1 0.072260 0.168948 0.665254
Si Si2 0.523376 0.696489 0.849766
Si Si3 0.701000 0.746176 0.240995
Si Si4 0.462466 0.916780 0.945731
Si Si5 0.842914 0.157087 0.750000
O O1 0.176028 0.234924 0.705179
O O2 0.037264 0.214941 0.531403
O O3 0.970442 0.180957 0.755651
O O4 0.104263 0.043229 0.669350
O O5 0.644256 0.654780 0.834489
O O6 0.529503 0.809120 0.921967
O O7 0.617598 0.839668 0.213891
O O8 0.708287 0.717973 0.385161
O O9 0.472465 0.994823 0.823966
#
# Coordination Sequence:
#
# PCOD8305363 Si02
#       5
#     8   8   8   8   4
#     4   9  19  37  60  87 120 161 205 255 316 375
#     4   9  19  38  62  85 115 158 210 260 307 373
#     4  10  22  39  62  90 123 165 213 258 314 378
#     4  11  25  41  62  92 126 166 210 261 319 382
#     4  10  22  38  60  92 128 162 200 262 316 368
#
# _framework density 21.53631
#
# number of rings (size 3 to 8) (size 9 to 14) (size 15 to 20)
#    0.000    2.222    0.000    1.333    0.000   13.333 
#    0.000    2.222    0.000    0.000    0.000    0.000 
#    0.000    0.000    0.000    0.000    0.000    0.000 
#
# Total GULP energy -446230.969529 kJ/mol
# GULP energy per Si atom -12395.304709 kJ/mol
# Density = 2.148729 g / cm^3
# Si number density = 21.536310 Si / 1000 Ang^3
#
#
#
# Elastic Constant Matrix: (Units=GPa)
#
#
# Indices 1 2 3 4 5 6 
#
# 1 94.9800 22.3016 41.4781 0.0000 0.0000 0.0000
# 2 22.3016 94.9799 41.4777 0.0000 0.0000 0.0000
# 3 41.4781 41.4777 81.2558 0.0000 0.0000 0.0000
# 4 0.0000 0.0000 0.0000 30.2433 0.0000 0.0000
# 5 0.0000 0.0000 0.0000 0.0000 30.2436 0.0000
# 6 0.0000 0.0000 0.0000 0.0000 0.0000 14.9529
#
#
#
# Elastic Compliance Matrix: (Units=1/GPa)
#
#
# Indices 1 2 3 4 5 6 
#
# 1 0.013552 -0.000207 -0.006812 0.000000 0.000000 0.000000
# 2 -0.000207 0.013552 -0.006812 0.000000 0.000000 0.000000
# 3 -0.006812 -0.006812 0.019261 0.000000 0.000000 0.000000
# 4 0.000000 0.000000 0.000000 0.033065 0.000000 0.000000
# 5 0.000000 0.000000 0.000000 0.000000 0.033065 0.000000
# 6 0.000000 0.000000 0.000000 0.000000 0.000000 0.066877
#
#
# Mechanical properties :
#
#
# Convention : Reuss Voigt Hill
#
# Bulk Modulus (GPa) = 53.46762 53.52562 53.49662
# Shear Modulus (GPa) = 23.44462 26.15186 24.79824
#
# Velocity S-wave (km/s) = 3.30299 3.48848 3.39700
# Velocity P-wave (km/s) = 6.27909 6.41355 6.34667
#
# Compressibility (1/GPa) = 0.01870291
#
# Stress axis : x y z
#
# Youngs Moduli (GPa) = 73.78969 73.78993 51.91755
#
# Poissons Ratio (x) = 0.01529 0.35366
# Poissons Ratio (y) = 0.01529 0.35366
# Poissons Ratio (z) = 0.50266 0.50265
#
# Static dielectric constant tensor:
#      x y z
#    x 3.852290 0.000000 0.000000 
#    y 0.000000 3.852310 0.000000 
#    z 0.000000 0.000000 3.884820 
# 
# 
# High freq. dielectric constant tensor:
#      x y z
#    x 1.846240 0.000000 0.000000 
#    y 0.000000 1.846240 0.000000 
#    z 0.000000 0.000000 1.843020 
# 
# From -- ./inp_files/1990.got.cif
#   From: 2010.03.12/outbox.cif.g09.slc.cpg/sg92_1_cif.got.tgz:1990.got - 2010.04.08 20:41:11.
