data_PCOD8305090
_publ_section_title
;
Structure prediction by ZEFSAII (Michael W. Deem and Ramdas Pophale) SiO2 
 PCOD8305090
Probable space group: P 41 2 2
;
_chemical_formula_sum "Si O2"
_cell_formula_units_Z 40
_cell_length_a 9.327405
_cell_length_b 9.327405
_cell_length_c 21.891472
_cell_angle_alpha 90.000000
_cell_angle_beta 90.000000
_cell_angle_gamma 90.000000
_cell_volume 1904.568660
_symmetry_space_group_name_H-M "P 41 2 2"
_symmetry_group_IT_number 91
_symmetry_cell_setting 'tetragonal'
loop_
_space_group_symop_operation_xyz
x,y,z
-y,x,1/4+z
-x,-y,1/2+z
y,-x,3/4+z
x,-y,1/2-z
-x,y,-z
y,x,3/4-z
-y,-x,1/4-z
loop_
_atom_site_type_symbol
_atom_site_label
_atom_site_fract_x
_atom_site_fract_y
_atom_site_fract_z
Si Si1 0.141322 0.679779 0.398660
Si Si2 0.657931 0.173205 0.493033
Si Si3 0.831884 0.388094 0.096098
Si Si4 0.609647 0.132554 0.950305
Si Si5 0.565400 0.161613 0.732202
O O1 0.164094 0.704909 0.327374
O O2 0.246148 0.778845 0.438739
O O3 0.175500 0.515584 0.417458
O O4 0.973792 0.709758 0.416275
O O5 0.500000 0.238108 0.500000
O O6 0.761587 0.283535 0.526516
O O7 0.665627 0.019604 0.525180
O O8 0.706014 0.293987 0.125000
O O9 0.884406 0.517866 0.139159
O O10 0.771289 0.460828 0.034462
O O11 0.500000 0.202461 0.000000
O O12 0.599409 0.000000 0.750000
#
# Coordination Sequence:
#
# PCOD8305090 Si02
#       5
#     8   8   8   8   8
#     4  11  23  45  67  98 135 176 226 282 342 405
#     4  11  23  44  67  97 136 173 223 282 340 410
#     4  11  22  43  68  97 137 179 226 287 341 412
#     4  11  22  43  71  97 134 180 226 283 344 415
#     4  10  24  43  63  97 135 172 223 280 339 406
#
# _framework density 21.002132
#
# number of rings (size 3 to 8) (size 9 to 14) (size 15 to 20)
#    0.000    1.200    6.000    1.200    0.000    3.200 
#    3.600    0.000    0.000    0.000    0.000    0.000 
#    0.000    0.000    0.000    0.000    0.000    0.000 
#
# Total GULP energy -495846.108369 kJ/mol
# GULP energy per Si atom -12396.152709 kJ/mol
# Density = 2.095433 g / cm^3
# Si number density = 21.002132 Si / 1000 Ang^3
#
#
#
# Elastic Constant Matrix: (Units=GPa)
#
#
# Indices 1 2 3 4 5 6 
#
# 1 93.7394 66.9617 18.1620 0.0000 0.0000 0.0000
# 2 66.9617 93.7383 18.1615 0.0000 0.0000 0.0000
# 3 18.1620 18.1615 59.2970 0.0000 0.0000 0.0000
# 4 0.0000 0.0000 0.0000 28.3945 0.0000 0.0000
# 5 0.0000 0.0000 0.0000 0.0000 28.3948 0.0000
# 6 0.0000 0.0000 0.0000 0.0000 0.0000 42.4433
#
#
#
# Elastic Compliance Matrix: (Units=1/GPa)
#
#
# Indices 1 2 3 4 5 6 
#
# 1 0.022015 -0.015330 -0.002048 0.000000 0.000000 0.000000
# 2 -0.015330 0.022016 -0.002048 0.000000 0.000000 0.000000
# 3 -0.002048 -0.002048 0.018119 0.000000 0.000000 0.000000
# 4 0.000000 0.000000 0.000000 0.035218 0.000000 0.000000
# 5 0.000000 0.000000 0.000000 0.000000 0.035218 0.000000
# 6 0.000000 0.000000 0.000000 0.000000 0.000000 0.023561
#
#
# Mechanical properties :
#
#
# Convention : Reuss Voigt Hill
#
# Bulk Modulus (GPa) = 42.92023 50.37167 46.64595
# Shear Modulus (GPa) = 24.65934 29.41248 27.03591
#
# Velocity S-wave (km/s) = 3.43028 3.74632 3.59178
# Velocity P-wave (km/s) = 6.01412 6.53830 6.28168
#
# Compressibility (1/GPa) = 0.02329904
#
# Stress axis : x y z
#
# Youngs Moduli (GPa) = 45.42293 45.42246 55.19184
#
# Poissons Ratio (x) = 0.69632 0.11302
# Poissons Ratio (y) = 0.69633 0.11301
# Poissons Ratio (z) = 0.09302 0.09301
#
# Static dielectric constant tensor:
#      x y z
#    x 3.766760 0.000000 0.000000 
#    y 0.000000 3.766770 0.000000 
#    z 0.000000 0.000000 4.086030 
# 
# 
# High freq. dielectric constant tensor:
#      x y z
#    x 1.814000 0.000000 0.000000 
#    y 0.000000 1.814000 0.000000 
#    z 0.000000 0.000000 1.837910 
# 
# From -- ./inp_files/12731.got.cif
#   From: 2010.03.12/outbox.cif.g09.slc.cpg/sg91_7_cif.got.tgz:12731.got - 2010.04.08 20:27:58.
