data_PCOD8305629
_publ_section_title
;
Structure prediction by ZEFSAII (Michael W. Deem and Ramdas Pophale) SiO2 
 PCOD8305629
Probable space group: P 42 21 2
;
_chemical_formula_sum "Si O2"
_cell_formula_units_Z 34
_cell_length_a 13.232258
_cell_length_b 13.232258
_cell_length_c 10.112707
_cell_angle_alpha 90.000000
_cell_angle_beta 90.000000
_cell_angle_gamma 90.000000
_cell_volume 1770.660685
_symmetry_space_group_name_H-M "P 42 21 2"
_symmetry_group_IT_number 94
_symmetry_cell_setting 'tetragonal'
loop_
_space_group_symop_operation_xyz
x,y,z
1/2-y,1/2+x,1/2+z
-x,-y,z
1/2+y,1/2-x,1/2+z
1/2+x,1/2-y,1/2-z
1/2-x,1/2+y,1/2-z
y,x,-z
-y,-x,-z
loop_
_atom_site_type_symbol
_atom_site_label
_atom_site_fract_x
_atom_site_fract_y
_atom_site_fract_z
Si Si1 0.041589 0.669734 0.319569
Si Si2 0.223220 0.007917 0.414158
Si Si3 0.849431 0.293467 0.069170
Si Si4 0.500000 0.500000 0.000000
Si Si5 0.045942 0.645520 0.820162
O O1 0.097179 0.563268 0.323902
O O2 0.047279 0.732655 0.455217
O O3 0.927380 0.639608 0.279021
O O4 0.096658 0.736263 0.207047
O O5 0.261678 0.123238 0.410320
O O6 0.262118 0.949841 0.283428
O O7 0.101365 0.002779 0.410697
O O8 0.938446 0.328371 0.972995
O O9 0.804568 0.195433 0.000000
#
# Coordination Sequence:
#
# PCOD8305629 Si02
#       5
#     8   8   8   2   8
#     4   9  18  34  59  83 103 130 178 231 275 307
#     4  10  21  36  54  76 108 145 178 215 261 326
#     4  10  19  33  52  82 110 134 172 226 267 306
#     4  12  24  36  48  74 112 160 178 200 244 348
#     4   9  18  34  59  83 103 130 178 231 275 307
#
# _framework density 19.20187
#
# number of rings (size 3 to 8) (size 9 to 14) (size 15 to 20)
#    0.000    2.353    1.176    1.412    3.294    5.647 
#    0.000    0.000    0.000    2.824    0.000    0.000 
#    0.000    0.000    0.000    0.000    0.000    0.000 
#
# Total GULP energy -421307.787122 kJ/mol
# GULP energy per Si atom -12391.405504 kJ/mol
# Density = 1.915817 g / cm^3
# Si number density = 19.201870 Si / 1000 Ang^3
#
#
#
# Elastic Constant Matrix: (Units=GPa)
#
#
# Indices 1 2 3 4 5 6 
#
# 1 51.9358 15.8132 24.1822 0.0000 0.0000 0.0000
# 2 15.8132 51.9367 24.1831 0.0000 0.0000 0.0000
# 3 24.1822 24.1831 83.7243 0.0000 0.0000 0.0000
# 4 0.0000 0.0000 0.0000 14.0094 0.0000 0.0000
# 5 0.0000 0.0000 0.0000 0.0000 14.0076 0.0000
# 6 0.0000 0.0000 0.0000 0.0000 0.0000 19.0682
#
#
#
# Elastic Compliance Matrix: (Units=1/GPa)
#
#
# Indices 1 2 3 4 5 6 
#
# 1 0.023139 -0.004544 -0.005371 0.000000 0.000000 0.000000
# 2 -0.004544 0.023139 -0.005371 0.000000 0.000000 0.000000
# 3 -0.005371 -0.005371 0.015046 0.000000 0.000000 0.000000
# 4 0.000000 0.000000 0.000000 0.071381 0.000000 0.000000
# 5 0.000000 0.000000 0.000000 0.000000 0.071390 0.000000
# 6 0.000000 0.000000 0.000000 0.000000 0.000000 0.052443
#
#
# Mechanical properties :
#
#
# Convention : Reuss Voigt Hill
#
# Bulk Modulus (GPa) = 32.51790 35.10597 33.81193
# Shear Modulus (GPa) = 16.81461 17.64492 17.22976
#
# Velocity S-wave (km/s) = 2.96239 3.03465 2.99874
# Velocity P-wave (km/s) = 5.35467 5.53182 5.44397
#
# Compressibility (1/GPa) = 0.03075229
#
# Stress axis : x y z
#
# Youngs Moduli (GPa) = 43.21738 43.21770 66.46070
#
# Poissons Ratio (x) = 0.19640 0.35693
# Poissons Ratio (y) = 0.19640 0.35695
# Poissons Ratio (z) = 0.23210 0.23212
#
# Static dielectric constant tensor:
#      x y z
#    x 3.466990 0.000000 0.000000 
#    y 0.000000 3.466990 0.000000 
#    z 0.000000 0.000000 3.796130 
# 
# 
# High freq. dielectric constant tensor:
#      x y z
#    x 1.733720 0.000000 0.000000 
#    y 0.000000 1.733720 0.000000 
#    z 0.000000 0.000000 1.747480 
# 
# From -- ./inp_files/1252.got.cif
#   From: 2010.03.12/outbox.cif.g09.slc.cpg/sg94_1_cif.got.tgz:1252.got - 2010.04.08 20:48:32.
