data_PCOD8305127
_publ_section_title
;
Structure prediction by ZEFSAII (Michael W. Deem and Ramdas Pophale) SiO2 
 PCOD8305127
Probable space group: P 41 2 2
;
_chemical_formula_sum "Si O2"
_cell_formula_units_Z 64
_cell_length_a 11.908990
_cell_length_b 11.908990
_cell_length_c 23.216452
_cell_angle_alpha 90.000000
_cell_angle_beta 90.000000
_cell_angle_gamma 90.000000
_cell_volume 3292.651083
_symmetry_space_group_name_H-M "P 41 2 2"
_symmetry_group_IT_number 91
_symmetry_cell_setting 'tetragonal'
loop_
_space_group_symop_operation_xyz
x,y,z
-y,x,1/4+z
-x,-y,1/2+z
y,-x,3/4+z
x,-y,1/2-z
-x,y,-z
y,x,3/4-z
-y,-x,1/4-z
loop_
_atom_site_type_symbol
_atom_site_label
_atom_site_fract_x
_atom_site_fract_y
_atom_site_fract_z
Si Si1 0.588890 0.262943 0.084056
Si Si2 0.930313 0.636914 0.417326
Si Si3 0.250183 0.047020 0.099469
Si Si4 0.851276 0.027362 0.384798
Si Si5 0.867936 0.095255 0.505744
Si Si6 0.742931 0.347156 0.294021
Si Si7 0.662121 0.907112 0.792454
Si Si8 0.158711 0.572416 0.458816
O O1 0.644531 0.355470 0.125000
O O2 0.586166 0.143431 0.116086
O O3 0.464234 0.302989 0.068637
O O4 0.658868 0.251744 0.025229
O O5 0.868206 0.620655 0.477907
O O6 0.955095 0.768465 0.405464
O O7 0.051418 0.578682 0.416695
O O8 0.158139 0.136056 0.120532
O O9 0.335798 0.129036 0.066555
O O10 0.189521 0.956432 0.060571
O O11 0.308153 0.972315 0.148722
O O12 0.809818 0.034636 0.451073
O O13 0.972556 0.972556 0.375000
O O14 0.850496 0.229596 0.512271
O O15 0.000000 0.069538 0.500000
O O16 0.650510 0.257390 0.316170
O O17 0.561968 0.813264 0.795255
O O18 0.609386 0.000000 0.750000
#
# Coordination Sequence:
#
# PCOD8305127 Si02
#       8
#     8   8   8   8   8   8   8   8
#     4  11  23  44  64  87 126 163 207 257 320 371
#     4  11  22  36  60  89 125 161 194 262 306 368
#     4  12  22  38  57  92 126 161 205 252 302 382
#     4  12  22  32  55  90 131 163 194 239 307 377
#     4  11  22  35  55  87 127 171 200 240 306 376
#     4  11  25  40  64  94 119 164 207 260 319 370
#     4  11  21  38  60  84 119 168 209 247 300 370
#     4  11  23  39  61  93 117 157 221 253 313 365
#
# _framework density 19.437224000000001
#
# number of rings (size 3 to 8) (size 9 to 14) (size 15 to 20)
#    0.000    0.750    7.500    2.250    1.750    0.000 
#    0.000    1.250    0.000    0.000    0.000    0.000 
#    0.000    0.000    0.000    0.000    0.000    0.000 
#
# Total GULP energy -793123.518769 kJ/mol
# GULP energy per Si atom -12392.554981 kJ/mol
# Density = 1.939298 g / cm^3
# Si number density = 19.437224 Si / 1000 Ang^3
#
#
#
# Elastic Constant Matrix: (Units=GPa)
#
#
# Indices 1 2 3 4 5 6 
#
# 1 90.2968 44.2293 43.2280 0.0000 0.0000 0.0000
# 2 44.2293 90.2965 43.2277 0.0000 0.0000 0.0000
# 3 43.2280 43.2277 109.2580 0.0000 0.0000 0.0000
# 4 0.0000 0.0000 0.0000 16.8247 0.0000 0.0000
# 5 0.0000 0.0000 0.0000 0.0000 16.8244 0.0000
# 6 0.0000 0.0000 0.0000 0.0000 0.0000 52.8073
#
#
#
# Elastic Compliance Matrix: (Units=1/GPa)
#
#
# Indices 1 2 3 4 5 6 
#
# 1 0.015838 -0.005870 -0.003944 0.000000 0.000000 0.000000
# 2 -0.005870 0.015838 -0.003944 0.000000 0.000000 0.000000
# 3 -0.003944 -0.003944 0.012273 0.000000 0.000000 0.000000
# 4 0.000000 0.000000 0.000000 0.059436 0.000000 0.000000
# 5 0.000000 0.000000 0.000000 0.000000 0.059437 0.000000
# 6 0.000000 0.000000 0.000000 0.000000 0.000000 0.018937
#
#
# Mechanical properties :
#
#
# Convention : Reuss Voigt Hill
#
# Bulk Modulus (GPa) = 60.84889 61.24682 61.04785
# Shear Modulus (GPa) = 23.28265 27.90238 25.59251
#
# Velocity S-wave (km/s) = 3.46473 3.79293 3.63254
# Velocity P-wave (km/s) = 6.88325 7.12462 7.00497
#
# Compressibility (1/GPa) = 0.01643415
#
# Stress axis : x y z
#
# Youngs Moduli (GPa) = 63.14038 63.14032 81.47680
#
# Poissons Ratio (x) = 0.37061 0.32134
# Poissons Ratio (y) = 0.37061 0.32133
# Poissons Ratio (z) = 0.24902 0.24902
#
# Static dielectric constant tensor:
#      x y z
#    x 3.477800 0.000000 0.000000 
#    y 0.000000 3.477800 0.000000 
#    z 0.000000 0.000000 3.692360 
# 
# 
# High freq. dielectric constant tensor:
#      x y z
#    x 1.746240 0.000000 0.000000 
#    y 0.000000 1.746240 0.000000 
#    z 0.000000 0.000000 1.762990 
# 
# From -- ./inp_files/21867.got.cif
#   From: 2010.03.12/outbox.cif.g09.slc.cpg/sg91_11_cif.got.tgz:21867.got - 2010.04.08 20:27:58.
