data_PCOD8305369
_publ_section_title
;
Structure prediction by ZEFSAII (Michael W. Deem and Ramdas Pophale) SiO2 
 PCOD8305369
Probable space group: P 41 21 2
;
_chemical_formula_sum "Si O2"
_cell_formula_units_Z 36
_cell_length_a 9.576732
_cell_length_b 9.576732
_cell_length_c 19.230670
_cell_angle_alpha 90.000000
_cell_angle_beta 90.000000
_cell_angle_gamma 90.000000
_cell_volume 1763.717741
_symmetry_space_group_name_H-M "P 41 21 2"
_symmetry_group_IT_number 92
_symmetry_cell_setting 'tetragonal'
loop_
_space_group_symop_operation_xyz
x,y,z
1/2-y,1/2+x,1/4+z
-x,-y,1/2+z
1/2+y,1/2-x,3/4+z
1/2+x,1/2-y,3/4-z
1/2-x,1/2+y,1/4-z
y,x,-z
-y,-x,1/2-z
loop_
_atom_site_type_symbol
_atom_site_label
_atom_site_fract_x
_atom_site_fract_y
_atom_site_fract_z
Si Si1 0.837422 0.475373 0.916291
Si Si2 0.268843 0.763471 0.646343
Si Si3 0.426936 0.573065 0.750000
Si Si4 0.464779 0.011238 0.452213
Si Si5 0.803369 0.236894 0.512318
O O1 0.730065 0.606156 0.920564
O O2 0.895146 0.468941 0.837878
O O3 0.773607 0.327510 0.936436
O O4 0.968384 0.499705 0.967212
O O5 0.342796 0.629366 0.682342
O O6 0.343691 0.905562 0.670440
O O7 0.279848 0.746341 0.563283
O O8 0.398765 0.406345 0.756483
O O9 0.354933 0.888271 0.447565
#
# Coordination Sequence:
#
# PCOD8305369 Si02
#       5
#     8   8   4   8   8
#     4  12  22  39  68  95 129 172 213 272 332 385
#     4  11  19  38  69  92 120 172 226 262 314 389
#     4  10  22  40  62  94 134 170 216 284 320 384
#     4  11  22  42  63  97 132 165 217 279 317 388
#     4  11  24  38  66  97 130 171 222 271 330 391
#
# _framework density 20.411428999999998
#
# number of rings (size 3 to 8) (size 9 to 14) (size 15 to 20)
#    0.000    0.889    8.889    0.000    0.000    1.778 
#    0.000    0.000    0.000    0.000    0.000    0.000 
#    0.000    0.000    0.000    0.000    0.000    0.000 
#
# Total GULP energy -446271.524672 kJ/mol
# GULP energy per Si atom -12396.431241 kJ/mol
# Density = 2.036497 g / cm^3
# Si number density = 20.411429 Si / 1000 Ang^3
#
#
#
# Elastic Constant Matrix: (Units=GPa)
#
#
# Indices 1 2 3 4 5 6 
#
# 1 105.7740 42.0215 24.2926 0.0000 0.0000 0.0000
# 2 42.0215 105.7736 24.2924 0.0000 0.0000 0.0000
# 3 24.2926 24.2924 86.7049 0.0000 0.0000 0.0000
# 4 0.0000 0.0000 0.0000 26.8837 0.0000 0.0000
# 5 0.0000 0.0000 0.0000 0.0000 26.8835 0.0000
# 6 0.0000 0.0000 0.0000 0.0000 0.0000 24.0044
#
#
#
# Elastic Compliance Matrix: (Units=1/GPa)
#
#
# Indices 1 2 3 4 5 6 
#
# 1 0.011569 -0.004117 -0.002088 0.000000 0.000000 0.000000
# 2 -0.004117 0.011569 -0.002088 0.000000 0.000000 0.000000
# 3 -0.002088 -0.002088 0.012703 0.000000 0.000000 0.000000
# 4 0.000000 0.000000 0.000000 0.037197 0.000000 0.000000
# 5 0.000000 0.000000 0.000000 0.000000 0.037197 0.000000
# 6 0.000000 0.000000 0.000000 0.000000 0.000000 0.041659
#
#
# Mechanical properties :
#
#
# Convention : Reuss Voigt Hill
#
# Bulk Modulus (GPa) = 51.93082 53.27395 52.60239
# Shear Modulus (GPa) = 28.58787 29.39739 28.99263
#
# Velocity S-wave (km/s) = 3.74649 3.79917 3.77292
# Velocity P-wave (km/s) = 6.64923 6.73807 6.69380
#
# Compressibility (1/GPa) = 0.01925639
#
# Stress axis : x y z
#
# Youngs Moduli (GPa) = 86.43717 86.43698 78.71915
#
# Poissons Ratio (x) = 0.35583 0.16437
# Poissons Ratio (y) = 0.35583 0.16436
# Poissons Ratio (z) = 0.18048 0.18048
#
# Static dielectric constant tensor:
#      x y z
#    x 3.632600 0.000000 0.000000 
#    y 0.000000 3.632610 0.000000 
#    z 0.000000 0.000000 3.762710 
# 
# 
# High freq. dielectric constant tensor:
#      x y z
#    x 1.783430 0.000000 0.000000 
#    y 0.000000 1.783430 0.000000 
#    z 0.000000 0.000000 1.806600 
# 
# From -- ./inp_files/3479.got.cif
#   From: 2010.03.12/outbox.cif.g09.slc.cpg/sg92_2_cif.got.tgz:3479.got - 2010.04.08 20:41:11.
