data_PCOD8305115
_publ_section_title
;
Structure prediction by ZEFSAII (Michael W. Deem and Ramdas Pophale) SiO2 
 PCOD8305115
Probable space group: P 41 2 2
;
_chemical_formula_sum "Si O2"
_cell_formula_units_Z 32
_cell_length_a 12.815585
_cell_length_b 12.815585
_cell_length_c 10.266293
_cell_angle_alpha 90.000000
_cell_angle_beta 90.000000
_cell_angle_gamma 90.000000
_cell_volume 1686.127943
_symmetry_space_group_name_H-M "P 41 2 2"
_symmetry_group_IT_number 91
_symmetry_cell_setting 'tetragonal'
loop_
_space_group_symop_operation_xyz
x,y,z
-y,x,1/4+z
-x,-y,1/2+z
y,-x,3/4+z
x,-y,1/2-z
-x,y,-z
y,x,3/4-z
-y,-x,1/4-z
loop_
_atom_site_type_symbol
_atom_site_label
_atom_site_fract_x
_atom_site_fract_y
_atom_site_fract_z
Si Si1 0.217514 0.144414 0.011867
Si Si2 0.075876 0.873465 0.255391
Si Si3 0.333163 0.496681 0.108554
Si Si4 0.732273 0.407740 0.348540
O O1 0.131831 0.173176 0.119276
O O2 0.328504 0.173007 0.073804
O O3 0.203443 0.203443 0.875000
O O4 0.202727 0.022203 0.992710
O O5 0.049996 0.000000 0.250000
O O6 0.145334 0.854667 0.125000
O O7 0.275193 0.500000 0.250000
O O8 0.443825 0.556176 0.125000
O O9 0.353745 0.378101 0.065998
O O10 0.263295 0.551916 0.998021
O O11 0.751725 0.500000 0.250000
#
# Coordination Sequence:
#
# PCOD8305115 Si02
#       4
#     8   8   8   8
#     4  11  20  32  56  82 108 139 175 228 283 335
#     4   9  19  37  59  81 102 134 188 241 279 326
#     4   9  18  33  53  75 105 143 182 223 258 315
#     4  11  20  32  52  82 112 142 180 222 276 332
#
# _framework density 18.978396
#
# number of rings (size 3 to 8) (size 9 to 14) (size 15 to 20)
#    0.000    2.000    0.000    7.500    0.000    3.000 
#    0.000    0.000    0.000   22.500    0.000    0.000 
#    0.000    0.000    0.000    0.000    0.000    0.000 
#
# Total GULP energy -396423.891251 kJ/mol
# GULP energy per Si atom -12388.246602 kJ/mol
# Density = 1.893520 g / cm^3
# Si number density = 18.978396 Si / 1000 Ang^3
#
#
#
# Elastic Constant Matrix: (Units=GPa)
#
#
# Indices 1 2 3 4 5 6 
#
# 1 81.8471 59.8938 57.8794 0.0000 0.0000 0.0000
# 2 59.8938 81.8461 57.8780 0.0000 0.0000 0.0000
# 3 57.8794 57.8780 183.5571 0.0000 0.0000 0.0000
# 4 0.0000 0.0000 0.0000 13.3746 0.0000 0.0000
# 5 0.0000 0.0000 0.0000 0.0000 13.3743 0.0000
# 6 0.0000 0.0000 0.0000 0.0000 0.0000 19.8422
#
#
#
# Elastic Compliance Matrix: (Units=1/GPa)
#
#
# Indices 1 2 3 4 5 6 
#
# 1 0.027527 -0.018025 -0.002996 0.000000 0.000000 0.000000
# 2 -0.018025 0.027527 -0.002996 0.000000 0.000000 0.000000
# 3 -0.002996 -0.002996 0.007337 0.000000 0.000000 0.000000
# 4 0.000000 0.000000 0.000000 0.074769 0.000000 0.000000
# 5 0.000000 0.000000 0.000000 0.000000 0.074770 0.000000
# 6 0.000000 0.000000 0.000000 0.000000 0.000000 0.050398
#
#
# Mechanical properties :
#
#
# Convention : Reuss Voigt Hill
#
# Bulk Modulus (GPa) = 69.65309 77.61698 73.63504
# Shear Modulus (GPa) = 15.86552 20.75815 18.31184
#
# Velocity S-wave (km/s) = 2.89446 3.31082 3.10962
# Velocity P-wave (km/s) = 6.92470 7.45665 7.19560
#
# Compressibility (1/GPa) = 0.01435687
#
# Stress axis : x y z
#
# Youngs Moduli (GPa) = 36.32779 36.32774 136.28840
#
# Poissons Ratio (x) = 0.65481 0.40837
# Poissons Ratio (y) = 0.65481 0.40832
# Poissons Ratio (z) = 0.10885 0.10884
#
# Static dielectric constant tensor:
#      x y z
#    x 3.323600 0.000000 0.000000 
#    y 0.000000 3.323520 0.000000 
#    z 0.000000 0.000000 4.443070 
# 
# 
# High freq. dielectric constant tensor:
#      x y z
#    x 1.702560 0.000000 0.000000 
#    y 0.000000 1.702560 0.000000 
#    z 0.000000 0.000000 1.778780 
# 
# From -- ./inp_files/3374.got.cif
#   From: 2010.03.12/outbox.cif.g09.slc.cpg/sg91_2_cif.got.tgz:3374.got - 2010.04.08 20:27:58.
