data_PCOD8305109
_publ_section_title
;
Structure prediction by ZEFSAII (Michael W. Deem and Ramdas Pophale) SiO2 
 PCOD8305109
Probable space group: P 41 2 2
;
_chemical_formula_sum "Si O2"
_cell_formula_units_Z 56
_cell_length_a 14.766759
_cell_length_b 14.766759
_cell_length_c 14.942327
_cell_angle_alpha 90.000000
_cell_angle_beta 90.000000
_cell_angle_gamma 90.000000
_cell_volume 3258.281559
_symmetry_space_group_name_H-M "P 41 2 2"
_symmetry_group_IT_number 91
_symmetry_cell_setting 'tetragonal'
loop_
_space_group_symop_operation_xyz
x,y,z
-y,x,1/4+z
-x,-y,1/2+z
y,-x,3/4+z
x,-y,1/2-z
-x,y,-z
y,x,3/4-z
-y,-x,1/4-z
loop_
_atom_site_type_symbol
_atom_site_label
_atom_site_fract_x
_atom_site_fract_y
_atom_site_fract_z
Si Si1 0.600543 0.738642 0.344872
Si Si2 0.367008 0.243074 0.648839
Si Si3 0.082474 0.392966 0.235798
Si Si4 0.385627 0.776090 0.334552
Si Si5 0.394055 0.880279 0.507462
Si Si6 0.187600 0.323135 0.387675
Si Si7 0.330250 0.460417 0.343398
O O1 0.638798 0.638798 0.375000
O O2 0.652080 0.771053 0.254070
O O3 0.490241 0.741629 0.339938
O O4 0.637577 0.808958 0.418498
O O5 0.360178 0.149080 0.593881
O O6 0.308559 0.320263 0.600988
O O7 0.468617 0.282010 0.657794
O O8 0.095987 0.500000 0.250000
O O9 0.097186 0.342497 0.331318
O O10 0.980426 0.363059 0.211674
O O11 0.359549 0.851097 0.408885
O O12 0.360685 0.820357 0.238716
O O13 0.500000 0.881800 0.500000
O O14 0.217324 0.217324 0.375000
O O15 0.264244 0.375580 0.330613
O O16 0.351848 0.500000 0.250000
O O17 0.428595 0.428595 0.375000
#
# Coordination Sequence:
#
# PCOD8305109 Si02
#       7
#     8   8   8   8   8   8   8
#     4  11  22  37  52  73 107 151 183 220 263 307
#     4  12  20  33  54  72 103 145 181 222 266 305
#     4  11  19  35  55  77 104 140 175 223 271 316
#     4  11  21  36  50  77 106 141 182 221 262 316
#     4   9  22  37  52  74 107 137 181 224 265 318
#     4  11  18  31  53  75 102 135 172 218 266 312
#     4  11  20  33  45  71 104 136 183 224 257 306
#
# _framework density 17.186973999999999
#
# number of rings (size 3 to 8) (size 9 to 14) (size 15 to 20)
#    0.000    1.143    7.143    0.857    0.000    1.714 
#    0.000    4.286    0.000    0.000    0.000    0.000 
#    0.000    3.429    0.000    0.000    0.000    0.000 
#
# Total GULP energy -693745.971137 kJ/mol
# GULP energy per Si atom -12388.320913 kJ/mol
# Density = 1.714786 g / cm^3
# Si number density = 17.186974 Si / 1000 Ang^3
#
#
#
# Elastic Constant Matrix: (Units=GPa)
#
#
# Indices 1 2 3 4 5 6 
#
# 1 86.0856 1.4145 29.6278 0.0000 0.0000 0.0000
# 2 1.4145 86.0856 29.6278 0.0000 0.0000 0.0000
# 3 29.6278 29.6278 127.2483 0.0000 0.0000 0.0000
# 4 0.0000 0.0000 0.0000 18.7224 0.0000 0.0000
# 5 0.0000 0.0000 0.0000 0.0000 18.7224 0.0000
# 6 0.0000 0.0000 0.0000 0.0000 0.0000 5.9282
#
#
#
# Elastic Compliance Matrix: (Units=1/GPa)
#
#
# Indices 1 2 3 4 5 6 
#
# 1 0.012689 0.000879 -0.003159 0.000000 0.000000 0.000000
# 2 0.000879 0.012689 -0.003159 0.000000 0.000000 0.000000
# 3 -0.003159 -0.003159 0.009330 0.000000 0.000000 0.000000
# 4 0.000000 0.000000 0.000000 0.053412 0.000000 0.000000
# 5 0.000000 0.000000 0.000000 0.000000 0.053412 0.000000
# 6 0.000000 0.000000 0.000000 0.000000 0.000000 0.168684
#
#
# Mechanical properties :
#
#
# Convention : Reuss Voigt Hill
#
# Bulk Modulus (GPa) = 41.96524 46.75107 44.35816
# Shear Modulus (GPa) = 15.19581 24.59122 19.89352
#
# Velocity S-wave (km/s) = 2.97669 3.78670 3.40586
# Velocity P-wave (km/s) = 6.02363 6.81024 6.42898
#
# Compressibility (1/GPa) = 0.02382924
#
# Stress axis : x y z
#
# Youngs Moduli (GPa) = 78.80741 78.80741 107.18411
#
# Poissons Ratio (x) = -0.06925 0.33860
# Poissons Ratio (y) = -0.06925 0.33860
# Poissons Ratio (z) = 0.24896 0.24896
#
# Static dielectric constant tensor:
#      x y z
#    x 4.423590 0.000000 0.000000 
#    y 0.000000 4.423590 0.000000 
#    z 0.000000 0.000000 2.677870 
# 
# 
# High freq. dielectric constant tensor:
#      x y z
#    x 1.631190 0.000000 0.000000 
#    y 0.000000 1.631190 0.000000 
#    z 0.000000 0.000000 1.688500 
# 
# From -- ./inp_files/4958.got.cif
#   From: 2010.03.12/outbox.cif.g09.slc.cpg/sg91_3_cif.got.tgz:4958.got - 2010.04.08 20:27:58.
