data_PCOD8305673
_publ_section_title
;
Structure prediction by ZEFSAII (Michael W. Deem and Ramdas Pophale) SiO2 
 PCOD8305673
Probable space group: P 42 21 2
;
_chemical_formula_sum "Si O2"
_cell_formula_units_Z 60
_cell_length_a 11.537220
_cell_length_b 11.537220
_cell_length_c 21.546766
_cell_angle_alpha 90.000000
_cell_angle_beta 90.000000
_cell_angle_gamma 90.000000
_cell_volume 2868.034977
_symmetry_space_group_name_H-M "P 42 21 2"
_symmetry_group_IT_number 94
_symmetry_cell_setting 'tetragonal'
loop_
_space_group_symop_operation_xyz
x,y,z
1/2-y,1/2+x,1/2+z
-x,-y,z
1/2+y,1/2-x,1/2+z
1/2+x,1/2-y,1/2-z
1/2-x,1/2+y,1/2-z
y,x,-z
-y,-x,-z
loop_
_atom_site_type_symbol
_atom_site_label
_atom_site_fract_x
_atom_site_fract_y
_atom_site_fract_z
Si Si1 0.341179 0.217498 0.059268
Si Si2 0.124138 0.739747 0.660963
Si Si3 0.791357 0.531052 0.384080
Si Si4 0.387037 0.429250 0.278191
Si Si5 0.212177 0.611110 0.972822
Si Si6 0.985848 0.309365 0.198350
Si Si7 0.500000 0.000000 0.205111
Si Si8 0.116137 0.567035 0.097618
O O1 0.317074 0.284771 0.123244
O O2 0.479433 0.233001 0.049920
O O3 0.302677 0.083438 0.071789
O O4 0.268806 0.268806 0.000000
O O5 0.069757 0.794332 0.722811
O O6 0.187779 0.620342 0.678738
O O7 0.015395 0.723691 0.614548
O O8 0.671909 0.534016 0.344161
O O9 0.803853 0.650326 0.423596
O O10 0.896040 0.541723 0.336971
O O11 0.500000 0.500000 0.262373
O O12 0.450078 0.309066 0.273734
O O13 0.330528 0.669473 0.000000
O O14 0.117955 0.604541 0.027107
O O15 0.953044 0.399492 0.251423
O O16 0.894535 0.321842 0.141455
O O17 0.000000 0.500000 0.114912
#
# Coordination Sequence:
#
# PCOD8305673 Si02
#       8
#     8   8   8   8   8   8   4   8
#     4  12  25  45  72 104 141 187 234 298 360 424
#     4  11  23  41  68 101 135 185 224 284 362 412
#     4  12  25  48  71 102 139 190 244 290 355 438
#     4  12  27  44  67 107 148 179 231 301 364 420
#     4  12  26  44  70  98 138 186 238 290 345 426
#     4  11  22  42  70  97 137 181 235 285 343 430
#     4  12  20  44  74 102 130 190 244 282 344 432
#     4  10  20  41  66  92 127 176 238 276 337 420
#
# _framework density 20.920247
#
# number of rings (size 3 to 8) (size 9 to 14) (size 15 to 20)
#    0.000    0.533    6.000    3.200    1.867    2.400 
#    2.400    0.000    0.000    0.000    0.000    0.000 
#    0.000    0.000    0.000    0.000    0.000    0.000 
#
# Total GULP energy -743440.485620 kJ/mol
# GULP energy per Si atom -12390.674760 kJ/mol
# Density = 2.087263 g / cm^3
# Si number density = 20.920247 Si / 1000 Ang^3
#
#
#
# Elastic Constant Matrix: (Units=GPa)
#
#
# Indices 1 2 3 4 5 6 
#
# 1 96.7868 36.5229 37.8345 0.0000 0.0000 0.0000
# 2 36.5229 96.7870 37.8344 0.0000 0.0000 0.0000
# 3 37.8345 37.8344 114.2018 0.0000 0.0000 0.0000
# 4 0.0000 0.0000 0.0000 83.1038 0.0000 0.0000
# 5 0.0000 0.0000 0.0000 0.0000 83.2029 0.0000
# 6 0.0000 0.0000 0.0000 0.0000 0.0000 28.9649
#
#
#
# Elastic Compliance Matrix: (Units=1/GPa)
#
#
# Indices 1 2 3 4 5 6 
#
# 1 0.012916 -0.003678 -0.003061 0.000000 0.000000 0.000000
# 2 -0.003678 0.012916 -0.003061 0.000000 0.000000 0.000000
# 3 -0.003061 -0.003061 0.010784 0.000000 0.000000 0.000000
# 4 0.000000 0.000000 0.000000 0.012033 0.000000 0.000000
# 5 0.000000 0.000000 0.000000 0.000000 0.012019 0.000000
# 6 0.000000 0.000000 0.000000 0.000000 0.000000 0.034525
#
#
# Mechanical properties :
#
#
# Convention : Reuss Voigt Hill
#
# Bulk Modulus (GPa) = 58.75837 59.12880 58.94358
# Shear Modulus (GPa) = 41.50615 52.09323 46.79969
#
# Velocity S-wave (km/s) = 4.45906 4.99549 4.73488
# Velocity P-wave (km/s) = 7.39316 7.84847 7.62422
#
# Compressibility (1/GPa) = 0.01701885
#
# Stress axis : x y z
#
# Youngs Moduli (GPa) = 77.42235 77.42259 92.72637
#
# Poissons Ratio (x) = 0.28472 0.28381
# Poissons Ratio (y) = 0.28472 0.28381
# Poissons Ratio (z) = 0.23697 0.23697
#
# Static dielectric constant tensor:
#      x y z
#    x 2.528540 0.000000 0.000000 
#    y 0.000000 2.525770 0.000000 
#    z 0.000000 0.000000 4.651290 
# 
# 
# High freq. dielectric constant tensor:
#      x y z
#    x 1.819990 0.000000 0.000000 
#    y 0.000000 1.819990 0.000000 
#    z 0.000000 0.000000 1.837060 
# 
# From -- ./inp_files/4784.got.cif
#   From: 2010.03.12/outbox.cif.g09.slc.cpg/sg94_3_cif.got.tgz:4784.got - 2010.04.08 20:48:32.
