data_PCOD8305478
_publ_section_title
;
Structure prediction by ZEFSAII (Michael W. Deem and Ramdas Pophale) SiO2 
 PCOD8305478
Probable space group: P 41 21 2
;
_chemical_formula_sum "Si O2"
_cell_formula_units_Z 40
_cell_length_a 8.792758
_cell_length_b 8.792758
_cell_length_c 21.662576
_cell_angle_alpha 90.000000
_cell_angle_beta 90.000000
_cell_angle_gamma 90.000000
_cell_volume 1674.789927
_symmetry_space_group_name_H-M "P 41 21 2"
_symmetry_group_IT_number 92
_symmetry_cell_setting 'tetragonal'
loop_
_space_group_symop_operation_xyz
x,y,z
1/2-y,1/2+x,1/4+z
-x,-y,1/2+z
1/2+y,1/2-x,3/4+z
1/2+x,1/2-y,3/4-z
1/2-x,1/2+y,1/4-z
y,x,-z
-y,-x,1/2-z
loop_
_atom_site_type_symbol
_atom_site_label
_atom_site_fract_x
_atom_site_fract_y
_atom_site_fract_z
Si Si1 0.361088 0.638913 0.250000
Si Si2 0.645621 0.100574 0.939067
Si Si3 0.316852 0.322153 0.695350
Si Si4 0.713574 0.639067 0.590127
Si Si5 0.012395 0.987606 0.750000
Si Si6 0.213416 0.490759 0.579573
O O1 0.539014 0.659017 0.239528
O O2 0.296380 0.736131 0.307303
O O3 0.799967 0.157547 0.905870
O O4 0.485959 0.153177 0.908443
O O5 0.632408 0.918677 0.933591
O O6 0.666336 0.156313 0.010457
O O7 0.308593 0.444047 0.640190
O O8 0.339404 0.163062 0.660161
O O9 0.577469 0.545156 0.559469
O O10 0.995102 0.810955 0.766574
#
# Coordination Sequence:
#
# PCOD8305478 Si02
#       6
#     4   8   8   8   4   8
#     4  11  26  49  78 110 154 201 262 309 386 454
#     4  12  27  48  79 111 154 196 259 316 386 459
#     4  12  29  49  74 115 153 201 254 316 380 464
#     4  11  25  49  80 111 147 201 252 321 379 458
#     4  11  26  49  72 106 152 197 242 305 380 456
#     4  12  29  49  75 112 151 200 250 315 383 448
#
# _framework density 23.883593000000001
#
# number of rings (size 3 to 8) (size 9 to 14) (size 15 to 20)
#    0.000    0.400    4.000    2.400   14.000    1.600 
#    0.000    0.000    0.000    0.000    0.000    0.000 
#    0.000    0.000    0.000    0.000    0.000    0.000 
#
# Total GULP energy -495742.427563 kJ/mol
# GULP energy per Si atom -12393.560689 kJ/mol
# Density = 2.382923 g / cm^3
# Si number density = 23.883593 Si / 1000 Ang^3
#
#
#
# Elastic Constant Matrix: (Units=GPa)
#
#
# Indices 1 2 3 4 5 6 
#
# 1 123.4934 51.8211 46.8743 0.0000 0.0000 0.0000
# 2 51.8211 123.4925 46.8738 0.0000 0.0000 0.0000
# 3 46.8743 46.8738 99.9600 0.0000 0.0000 0.0000
# 4 0.0000 0.0000 0.0000 31.4114 0.0000 0.0000
# 5 0.0000 0.0000 0.0000 0.0000 31.4108 0.0000
# 6 0.0000 0.0000 0.0000 0.0000 0.0000 39.4098
#
#
#
# Elastic Compliance Matrix: (Units=1/GPa)
#
#
# Indices 1 2 3 4 5 6 
#
# 1 0.010783 -0.003170 -0.003570 0.000000 0.000000 0.000000
# 2 -0.003170 0.010783 -0.003570 0.000000 0.000000 0.000000
# 3 -0.003570 -0.003570 0.013352 0.000000 0.000000 0.000000
# 4 0.000000 0.000000 0.000000 0.031836 0.000000 0.000000
# 5 0.000000 0.000000 0.000000 0.000000 0.031836 0.000000
# 6 0.000000 0.000000 0.000000 0.000000 0.000000 0.025374
#
#
# Mechanical properties :
#
#
# Convention : Reuss Voigt Hill
#
# Bulk Modulus (GPa) = 69.93815 70.89825 70.41820
# Shear Modulus (GPa) = 33.47856 33.87151 33.67503
#
# Velocity S-wave (km/s) = 3.74804 3.76997 3.75902
# Velocity P-wave (km/s) = 6.93375 6.97851 6.95617
#
# Compressibility (1/GPa) = 0.01429835
#
# Stress axis : x y z
#
# Youngs Moduli (GPa) = 92.74062 92.74019 74.89437
#
# Poissons Ratio (x) = 0.29396 0.26737
# Poissons Ratio (y) = 0.29396 0.26737
# Poissons Ratio (z) = 0.33108 0.33108
#
# Static dielectric constant tensor:
#      x y z
#    x 4.319220 0.000000 0.000000 
#    y 0.000000 4.319240 0.000000 
#    z 0.000000 0.000000 4.097310 
# 
# 
# High freq. dielectric constant tensor:
#      x y z
#    x 1.954330 0.000000 0.000000 
#    y 0.000000 1.954330 0.000000 
#    z 0.000000 0.000000 1.939080 
# 
# From -- ./inp_files/3825.got.cif
#   From: 2010.03.12/outbox.cif.g09.slc.cpg/sg92_2_cif.got.tgz:3825.got - 2010.04.08 20:41:11.
