data_PCOD8305335
_publ_section_title
;
Structure prediction by ZEFSAII (Michael W. Deem and Ramdas Pophale) SiO2 
 PCOD8305335
Probable space group: P 41 21 2
;
_chemical_formula_sum "Si O2"
_cell_formula_units_Z 48
_cell_length_a 10.878664
_cell_length_b 10.878664
_cell_length_c 17.891328
_cell_angle_alpha 90.000000
_cell_angle_beta 90.000000
_cell_angle_gamma 90.000000
_cell_volume 2117.355124
_symmetry_space_group_name_H-M "P 41 21 2"
_symmetry_group_IT_number 92
_symmetry_cell_setting 'tetragonal'
loop_
_space_group_symop_operation_xyz
x,y,z
1/2-y,1/2+x,1/4+z
-x,-y,1/2+z
1/2+y,1/2-x,3/4+z
1/2+x,1/2-y,3/4-z
1/2-x,1/2+y,1/4-z
y,x,-z
-y,-x,1/2-z
loop_
_atom_site_type_symbol
_atom_site_label
_atom_site_fract_x
_atom_site_fract_y
_atom_site_fract_z
Si Si1 0.369925 0.441023 0.765995
Si Si2 0.198000 0.106375 0.074843
Si Si3 0.554216 0.814571 0.608358
Si Si4 0.811648 0.188353 0.250000
Si Si5 0.205671 0.718956 0.910075
Si Si6 0.897535 0.102466 0.750000
Si Si7 0.907439 0.827384 0.720137
O O1 0.423918 0.576083 0.750000
O O2 0.473144 0.363986 0.810833
O O3 0.240233 0.453340 0.808318
O O4 0.330061 0.382746 0.686306
O O5 0.341885 0.079463 0.098834
O O6 0.138101 0.202138 0.136097
O O7 0.186109 0.186109 0.000000
O O8 0.417811 0.855412 0.582194
O O9 0.613963 0.705732 0.561287
O O10 0.761756 0.258911 0.323207
O O11 0.955552 0.215935 0.238094
O O12 0.326411 0.726537 0.962100
O O13 0.027650 0.109717 0.790007
#
# Coordination Sequence:
#
# PCOD8305335 Si02
#       7
#     8   8   8   4   8   4   8
#     4  11  24  43  73  98 138 189 240 286 356 441
#     4  11  21  39  70 106 132 180 235 297 351 417
#     4  11  22  40  68  96 142 172 235 295 347 414
#     4  11  24  44  68  97 144 188 232 301 362 430
#     4  11  26  42  68 107 134 188 237 291 366 427
#     4   9  18  36  64  93 122 172 218 289 342 398
#     4  10  21  41  69  99 130 178 244 282 350 430
#
# _framework density 22.669792999999999
#
# number of rings (size 3 to 8) (size 9 to 14) (size 15 to 20)
#    0.000    1.333    4.167    2.000    5.833    0.000 
#    0.000    3.333    0.000    0.000    0.000    0.000 
#    0.000    0.000    0.000    0.000    0.000    0.000 
#
# Total GULP energy -594689.772099 kJ/mol
# GULP energy per Si atom -12389.370252 kJ/mol
# Density = 2.261820 g / cm^3
# Si number density = 22.669793 Si / 1000 Ang^3
#
#
#
# Elastic Constant Matrix: (Units=GPa)
#
#
# Indices 1 2 3 4 5 6 
#
# 1 71.8513 30.2595 34.1637 0.0000 0.0000 0.0000
# 2 30.2595 71.8485 34.1647 0.0000 0.0000 0.0000
# 3 34.1637 34.1647 163.3600 0.0000 0.0000 0.0000
# 4 0.0000 0.0000 0.0000 33.1019 0.0000 0.0000
# 5 0.0000 0.0000 0.0000 0.0000 33.1020 0.0000
# 6 0.0000 0.0000 0.0000 0.0000 0.0000 34.5678
#
#
#
# Elastic Compliance Matrix: (Units=1/GPa)
#
#
# Indices 1 2 3 4 5 6 
#
# 1 0.017715 -0.006329 -0.002381 0.000000 0.000000 0.000000
# 2 -0.006329 0.017716 -0.002382 0.000000 0.000000 0.000000
# 3 -0.002381 -0.002382 0.007118 0.000000 0.000000 0.000000
# 4 0.000000 0.000000 0.000000 0.030210 0.000000 0.000000
# 5 0.000000 0.000000 0.000000 0.000000 0.030210 0.000000
# 6 0.000000 0.000000 0.000000 0.000000 0.000000 0.028929
#
#
# Mechanical properties :
#
#
# Convention : Reuss Voigt Hill
#
# Bulk Modulus (GPa) = 49.10183 56.02619 52.56401
# Shear Modulus (GPa) = 31.08142 34.05247 32.56695
#
# Velocity S-wave (km/s) = 3.70679 3.87991 3.79433
# Velocity P-wave (km/s) = 6.32669 6.69621 6.51407
#
# Compressibility (1/GPa) = 0.02036584
#
# Stress axis : x y z
#
# Youngs Moduli (GPa) = 56.44921 56.44640 140.49845
#
# Poissons Ratio (x) = 0.35722 0.33456
# Poissons Ratio (y) = 0.35724 0.33461
# Poissons Ratio (z) = 0.13442 0.13443
#
# Static dielectric constant tensor:
#      x y z
#    x 4.114220 0.000000 0.000000 
#    y 0.000000 4.114230 0.000000 
#    z 0.000000 0.000000 3.379570 
# 
# 
# High freq. dielectric constant tensor:
#      x y z
#    x 1.873980 0.000000 0.000000 
#    y 0.000000 1.873980 0.000000 
#    z 0.000000 0.000000 1.917170 
# 
# From -- ./inp_files/3164.got.cif
#   From: 2010.03.12/outbox.cif.g09.slc.cpg/sg92_2_cif.got.tgz:3164.got - 2010.04.08 20:41:11.
