data_PCOD8305088
_publ_section_title
;
Structure prediction by ZEFSAII (Michael W. Deem and Ramdas Pophale) SiO2 
 PCOD8305088
Probable space group: P 41 2 2
;
_chemical_formula_sum "Si O2"
_cell_formula_units_Z 48
_cell_length_a 9.211056
_cell_length_b 9.211056
_cell_length_c 28.304115
_cell_angle_alpha 90.000000
_cell_angle_beta 90.000000
_cell_angle_gamma 90.000000
_cell_volume 2401.421671
_symmetry_space_group_name_H-M "P 41 2 2"
_symmetry_group_IT_number 91
_symmetry_cell_setting 'tetragonal'
loop_
_space_group_symop_operation_xyz
x,y,z
-y,x,1/4+z
-x,-y,1/2+z
y,-x,3/4+z
x,-y,1/2-z
-x,y,-z
y,x,3/4-z
-y,-x,1/4-z
loop_
_atom_site_type_symbol
_atom_site_label
_atom_site_fract_x
_atom_site_fract_y
_atom_site_fract_z
Si Si1 0.722741 0.322006 0.815391
Si Si2 0.502449 0.909954 0.643475
Si Si3 0.351008 0.503844 0.486305
Si Si4 0.038170 0.617451 0.707969
Si Si5 0.434988 0.231792 0.359209
Si Si6 0.857033 0.278743 0.027814
O O1 0.635113 0.196639 0.843408
O O2 0.644078 0.355222 0.766327
O O3 0.890930 0.290880 0.802621
O O4 0.729669 0.462031 0.847722
O O5 0.349331 0.882507 0.670387
O O6 0.470995 0.903716 0.587648
O O7 0.559163 0.068064 0.658616
O O8 0.500000 0.590394 0.500000
O O9 0.347446 0.472989 0.431274
O O10 0.207480 0.593255 0.496534
O O11 0.018356 0.500000 0.750000
O O12 0.149283 0.743509 0.720834
O O13 0.269882 0.269882 0.375000
O O14 0.000000 0.224464 0.000000
#
# Coordination Sequence:
#
# PCOD8305088 Si02
#       6
#     8   8   8   8   8   8
#     4  10  24  41  62  93 128 164 208 271 318 377
#     4  10  24  44  64  88 130 168 212 262 324 385
#     4  11  21  38  65  92 123 162 214 259 322 372
#     4  11  25  42  65  96 129 167 217 269 323 390
#     4  11  22  39  64  93 125 163 212 265 316 379
#     4  11  23  42  63  95 127 170 211 268 319 397
#
# _framework density 19.988161000000002
#
# number of rings (size 3 to 8) (size 9 to 14) (size 15 to 20)
#    0.000    1.333    3.333    1.500    7.000    0.000 
#    3.000    3.333    0.000    0.000    0.000    0.000 
#    0.000    0.000    0.000    0.000    0.000    0.000 
#
# Total GULP energy -594842.649121 kJ/mol
# GULP energy per Si atom -12392.555190 kJ/mol
# Density = 1.994267 g / cm^3
# Si number density = 19.988161 Si / 1000 Ang^3
#
#
#
# Elastic Constant Matrix: (Units=GPa)
#
#
# Indices 1 2 3 4 5 6 
#
# 1 103.4571 52.9822 19.1659 0.0000 0.0000 0.0000
# 2 52.9822 103.4571 19.1659 0.0000 0.0000 0.0000
# 3 19.1659 19.1659 61.9367 0.0000 0.0000 0.0000
# 4 0.0000 0.0000 0.0000 19.7988 0.0000 0.0000
# 5 0.0000 0.0000 0.0000 0.0000 19.7988 0.0000
# 6 0.0000 0.0000 0.0000 0.0000 0.0000 22.0998
#
#
#
# Elastic Compliance Matrix: (Units=1/GPa)
#
#
# Indices 1 2 3 4 5 6 
#
# 1 0.013364 -0.006448 -0.002140 0.000000 0.000000 0.000000
# 2 -0.006448 0.013364 -0.002140 0.000000 0.000000 0.000000
# 3 -0.002140 -0.002140 0.017470 0.000000 0.000000 0.000000
# 4 0.000000 0.000000 0.000000 0.050508 0.000000 0.000000
# 5 0.000000 0.000000 0.000000 0.000000 0.050508 0.000000
# 6 0.000000 0.000000 0.000000 0.000000 0.000000 0.045249
#
#
# Mechanical properties :
#
#
# Convention : Reuss Voigt Hill
#
# Bulk Modulus (GPa) = 43.97110 50.16433 47.06771
# Shear Modulus (GPa) = 22.77893 24.17530 23.47711
#
# Velocity S-wave (km/s) = 3.37949 3.48153 3.43089
# Velocity P-wave (km/s) = 6.10527 6.42751 6.26846
#
# Compressibility (1/GPa) = 0.02274221
#
# Stress axis : x y z
#
# Youngs Moduli (GPa) = 74.82651 74.82651 57.24056
#
# Poissons Ratio (x) = 0.48245 0.12251
# Poissons Ratio (y) = 0.48245 0.12251
# Poissons Ratio (z) = 0.16015 0.16015
#
# Static dielectric constant tensor:
#      x y z
#    x 3.780630 0.000000 0.000000 
#    y 0.000000 3.780630 0.000000 
#    z 0.000000 0.000000 3.827170 
# 
# 
# High freq. dielectric constant tensor:
#      x y z
#    x 1.778030 0.000000 0.000000 
#    y 0.000000 1.778030 0.000000 
#    z 0.000000 0.000000 1.797300 
# 
# From -- ./inp_files/13593.got.cif
#   From: 2010.03.12/outbox.cif.g09.slc.cpg/sg91_7_cif.got.tgz:13593.got - 2010.04.08 20:27:58.
