data_PCOD8305833
_publ_section_title
;
Structure prediction by ZEFSAII (Michael W. Deem and Ramdas Pophale) SiO2 
 PCOD8305833
Probable space group: P 43 2 2
;
_chemical_formula_sum "Si O2"
_cell_formula_units_Z 44
_cell_length_a 11.484052
_cell_length_b 11.484052
_cell_length_c 19.108767
_cell_angle_alpha 90.000000
_cell_angle_beta 90.000000
_cell_angle_gamma 90.000000
_cell_volume 2520.130124
_symmetry_space_group_name_H-M "P 43 2 2"
_symmetry_group_IT_number 95
_symmetry_cell_setting 'tetragonal'
loop_
_space_group_symop_operation_xyz
x,y,z
-y,x,3/4+z
-x,-y,1/2+z
y,-x,1/4+z
x,-y,1/2-z
-x,y,-z
y,x,1/4-z
-y,-x,3/4-z
loop_
_atom_site_type_symbol
_atom_site_label
_atom_site_fract_x
_atom_site_fract_y
_atom_site_fract_z
Si Si1 0.814043 0.620260 0.787513
Si Si2 0.931879 0.315802 0.326563
Si Si3 0.369420 0.292841 0.811895
Si Si4 0.620976 0.393125 0.957556
Si Si5 0.777200 0.500000 0.250000
Si Si6 0.228863 0.880837 0.777969
O O1 0.850179 0.500000 0.750000
O O2 0.735495 0.606204 0.857106
O O3 0.726746 0.686351 0.732352
O O4 0.933273 0.686853 0.803680
O O5 0.860493 0.426283 0.299991
O O6 0.881418 0.195522 0.298179
O O7 0.913245 0.317138 0.409575
O O8 0.493242 0.304470 0.772110
O O9 0.300102 0.414459 0.798913
O O10 0.302744 0.183422 0.780930
O O11 0.601007 0.398994 0.875000
O O12 0.500000 0.394049 0.000000
O O13 0.174350 0.000000 0.750000
#
# Coordination Sequence:
#
# PCOD8305833 Si02
#       6
#     8   8   8   8   4   8
#     4  11  21  36  58  80 119 160 184 231 288 359
#     4  10  21  38  58  82 111 149 198 245 285 347
#     4  11  21  35  55  86 119 148 188 238 291 353
#     4  11  21  34  54  84 122 160 184 225 287 364
#     4  10  22  34  56  86 114 146 194 240 288 334
#     4  10  21  37  60  81 107 150 196 248 294 334
#
# _framework density 17.459415
#
# number of rings (size 3 to 8) (size 9 to 14) (size 15 to 20)
#    0.000    1.455    7.273    0.000    2.545    0.000 
#    0.000    0.000    4.000    3.273    0.000    0.000 
#    0.000    0.000    0.000    0.000    0.000    0.000 
#
# Total GULP energy -545131.465410 kJ/mol
# GULP energy per Si atom -12389.351487 kJ/mol
# Density = 1.741968 g / cm^3
# Si number density = 17.459415 Si / 1000 Ang^3
#
#
#
# Elastic Constant Matrix: (Units=GPa)
#
#
# Indices 1 2 3 4 5 6 
#
# 1 114.5484 42.0565 39.4832 0.0000 0.0000 0.0000
# 2 42.0565 114.5483 39.4831 0.0000 0.0000 0.0000
# 3 39.4832 39.4831 110.0315 0.0000 0.0000 0.0000
# 4 0.0000 0.0000 0.0000 25.5676 0.0000 0.0000
# 5 0.0000 0.0000 0.0000 0.0000 25.5676 0.0000
# 6 0.0000 0.0000 0.0000 0.0000 0.0000 13.9530
#
#
#
# Elastic Compliance Matrix: (Units=1/GPa)
#
#
# Indices 1 2 3 4 5 6 
#
# 1 0.010795 -0.002999 -0.002798 0.000000 0.000000 0.000000
# 2 -0.002999 0.010795 -0.002798 0.000000 0.000000 0.000000
# 3 -0.002798 -0.002798 0.011096 0.000000 0.000000 0.000000
# 4 0.000000 0.000000 0.000000 0.039112 0.000000 0.000000
# 5 0.000000 0.000000 0.000000 0.000000 0.039112 0.000000
# 6 0.000000 0.000000 0.000000 0.000000 0.000000 0.071669
#
#
# Mechanical properties :
#
#
# Convention : Reuss Voigt Hill
#
# Bulk Modulus (GPa) = 64.52376 64.57484 64.54930
# Shear Modulus (GPa) = 24.39804 27.55800 25.97802
#
# Velocity S-wave (km/s) = 3.74226 3.97722 3.86153
# Velocity P-wave (km/s) = 7.46387 7.62608 7.54541
#
# Compressibility (1/GPa) = 0.01549817
#
# Stress axis : x y z
#
# Youngs Moduli (GPa) = 92.63216 92.63211 90.12253
#
# Poissons Ratio (x) = 0.27783 0.25212
# Poissons Ratio (y) = 0.27783 0.25212
# Poissons Ratio (z) = 0.25914 0.25914
#
# Static dielectric constant tensor:
#      x y z
#    x 3.328670 0.000000 0.000000 
#    y 0.000000 3.328670 0.000000 
#    z 0.000000 0.000000 3.403130 
# 
# 
# High freq. dielectric constant tensor:
#      x y z
#    x 1.667960 0.000000 0.000000 
#    y 0.000000 1.667960 0.000000 
#    z 0.000000 0.000000 1.685780 
# 
# From -- ./inp_files/5559.got.cif
#   From: 2010.03.12/outbox.cif.g09.slc.cpg/sg95_3_cif.got.tgz:5559.got - 2010.04.08 20:51:55.
