data_PCOD8305934
_publ_section_title
;
Structure prediction by ZEFSAII (Michael W. Deem and Ramdas Pophale) SiO2 
 PCOD8305934
Probable space group: P 43 21 2
;
_chemical_formula_sum "Si O2"
_cell_formula_units_Z 32
_cell_length_a 8.657799
_cell_length_b 8.657799
_cell_length_c 18.925559
_cell_angle_alpha 90.000000
_cell_angle_beta 90.000000
_cell_angle_gamma 90.000000
_cell_volume 1418.612277
_symmetry_space_group_name_H-M "P 43 21 2"
_symmetry_group_IT_number 96
_symmetry_cell_setting 'tetragonal'
loop_
_space_group_symop_operation_xyz
x,y,z
1/2-y,1/2+x,3/4+z
-x,-y,1/2+z
1/2+y,1/2-x,1/4+z
1/2+x,1/2-y,1/4-z
1/2-x,1/2+y,3/4-z
y,x,-z
-y,-x,1/2-z
loop_
_atom_site_type_symbol
_atom_site_label
_atom_site_fract_x
_atom_site_fract_y
_atom_site_fract_z
Si Si1 0.090255 0.177326 0.924617
Si Si2 0.981708 0.242979 0.177906
Si Si3 0.913440 0.814966 0.823665
Si Si4 0.369784 0.288509 0.579155
O O1 0.118580 0.360269 0.930090
O O2 0.932798 0.164062 0.881025
O O3 0.241352 0.102737 0.886241
O O4 0.088601 0.088601 0.000000
O O5 0.087628 0.264275 0.247248
O O6 0.891502 0.080798 0.169194
O O7 0.869375 0.694073 0.885548
O O8 0.779035 0.945320 0.823751
O O9 0.302521 0.302521 0.500000
#
# Coordination Sequence:
#
# PCOD8305934 Si02
#       4
#     8   8   8   8
#     4  11  23  41  71  98 131 180 226 273 343 400
#     4  10  22  45  66  96 136 170 225 280 326 400
#     4  10  21  46  65  91 139 174 210 284 334 387
#     4  11  24  45  67 101 138 174 227 283 335 411
#
# _framework density 22.557254
#
# number of rings (size 3 to 8) (size 9 to 14) (size 15 to 20)
#    0.000    1.500    7.500    0.000    3.500    6.000 
#    4.500    0.000    0.000    0.000    0.000    0.000 
#    0.000    0.000    0.000    0.000    0.000    0.000 
#
# Total GULP energy -396437.356400 kJ/mol
# GULP energy per Si atom -12388.667388 kJ/mol
# Density = 2.250591 g / cm^3
# Si number density = 22.557254 Si / 1000 Ang^3
#
#
#
# Elastic Constant Matrix: (Units=GPa)
#
#
# Indices 1 2 3 4 5 6 
#
# 1 45.0521 15.4153 33.5407 0.0000 0.0000 0.0000
# 2 15.4153 45.0521 33.5407 0.0000 0.0000 0.0000
# 3 33.5407 33.5407 180.5159 0.0000 0.0000 0.0000
# 4 0.0000 0.0000 0.0000 35.1417 0.0000 0.0000
# 5 0.0000 0.0000 0.0000 0.0000 35.1417 0.0000
# 6 0.0000 0.0000 0.0000 0.0000 0.0000 22.4433
#
#
#
# Elastic Compliance Matrix: (Units=1/GPa)
#
#
# Indices 1 2 3 4 5 6 
#
# 1 0.027287 -0.006455 -0.003871 0.000000 0.000000 0.000000
# 2 -0.006455 0.027287 -0.003871 0.000000 0.000000 0.000000
# 3 -0.003871 -0.003871 0.006978 0.000000 0.000000 0.000000
# 4 0.000000 0.000000 0.000000 0.028456 0.000000 0.000000
# 5 0.000000 0.000000 0.000000 0.000000 0.028456 0.000000
# 6 0.000000 0.000000 0.000000 0.000000 0.000000 0.044557
#
#
# Mechanical properties :
#
#
# Convention : Reuss Voigt Hill
#
# Bulk Modulus (GPa) = 30.15754 48.40146 39.27950
# Shear Modulus (GPa) = 24.69544 31.08691 27.89117
#
# Velocity S-wave (km/s) = 3.31235 3.71635 3.52015
# Velocity P-wave (km/s) = 5.29408 6.31813 5.82864
#
# Compressibility (1/GPa) = 0.03315920
#
# Stress axis : x y z
#
# Youngs Moduli (GPa) = 36.64765 36.64765 143.30651
#
# Poissons Ratio (x) = 0.23656 0.55469
# Poissons Ratio (y) = 0.23656 0.55469
# Poissons Ratio (z) = 0.14185 0.14185
#
# Static dielectric constant tensor:
#      x y z
#    x 4.070800 0.000000 0.000000 
#    y 0.000000 4.070800 0.000000 
#    z 0.000000 0.000000 4.460430 
# 
# 
# High freq. dielectric constant tensor:
#      x y z
#    x 1.875260 0.000000 0.000000 
#    y 0.000000 1.875260 0.000000 
#    z 0.000000 0.000000 1.903950 
# 
# From -- ./inp_files/3326.got.cif
#   From: 2010.03.12/outbox.cif.g09.slc.cpg/sg96_2_cif.got.tgz:3326.got - 2010.04.08 20:56:49.
