data_PCOD8305334
_publ_section_title
;
Structure prediction by ZEFSAII (Michael W. Deem and Ramdas Pophale) SiO2 
 PCOD8305334
Probable space group: P 41 21 2
;
_chemical_formula_sum "Si O2"
_cell_formula_units_Z 40
_cell_length_a 13.719479
_cell_length_b 13.719479
_cell_length_c 10.047528
_cell_angle_alpha 90.000000
_cell_angle_beta 90.000000
_cell_angle_gamma 90.000000
_cell_volume 1891.186956
_symmetry_space_group_name_H-M "P 41 21 2"
_symmetry_group_IT_number 92
_symmetry_cell_setting 'tetragonal'
loop_
_space_group_symop_operation_xyz
x,y,z
1/2-y,1/2+x,1/4+z
-x,-y,1/2+z
1/2+y,1/2-x,3/4+z
1/2+x,1/2-y,3/4-z
1/2-x,1/2+y,1/4-z
y,x,-z
-y,-x,1/2-z
loop_
_atom_site_type_symbol
_atom_site_label
_atom_site_fract_x
_atom_site_fract_y
_atom_site_fract_z
Si Si1 0.727738 0.154806 0.051562
Si Si2 0.767641 0.475453 0.998839
Si Si3 0.890889 0.843609 0.148530
Si Si4 0.739977 0.585898 0.471922
Si Si5 0.799455 0.598324 0.756641
O O1 0.696323 0.103253 0.912154
O O2 0.832201 0.206910 0.035785
O O3 0.647793 0.232768 0.096341
O O4 0.733928 0.072467 0.163560
O O5 0.786087 0.502267 0.845492
O O6 0.850684 0.400772 0.048211
O O7 0.665575 0.417487 0.004641
O O8 0.001959 0.839851 0.195988
O O9 0.884368 0.884368 0.000000
O O10 0.686600 0.686600 0.500000
O O11 0.804995 0.563762 0.602396
#
# Coordination Sequence:
#
# PCOD8305334 Si02
#       5
#     8   8   8   8   8
#     4  10  21  41  69  89 129 169 213 271 320 382
#     4  11  22  42  65  95 129 166 222 262 316 396
#     4  11  22  41  69  95 123 175 221 262 328 388
#     4  10  23  42  61  95 132 165 211 272 327 380
#     4  10  24  41  61  97 131 170 213 265 331 381
#
# _framework density 21.150738
#
# number of rings (size 3 to 8) (size 9 to 14) (size 15 to 20)
#    0.000    1.600    2.000    3.000    2.800    2.400 
#    3.600    0.000    0.000    0.000    0.000    0.000 
#    0.000    0.000    0.000    0.000    0.000    0.000 
#
# Total GULP energy -496015.829517 kJ/mol
# GULP energy per Si atom -12400.395738 kJ/mol
# Density = 2.110260 g / cm^3
# Si number density = 21.150738 Si / 1000 Ang^3
#
#
#
# Elastic Constant Matrix: (Units=GPa)
#
#
# Indices 1 2 3 4 5 6 
#
# 1 72.0023 2.4566 26.6384 0.0000 0.0000 0.0000
# 2 2.4566 72.0023 26.6384 0.0000 0.0000 0.0000
# 3 26.6384 26.6384 122.1227 0.0000 0.0000 0.0000
# 4 0.0000 0.0000 0.0000 32.5284 0.0000 0.0000
# 5 0.0000 0.0000 0.0000 0.0000 32.5284 0.0000
# 6 0.0000 0.0000 0.0000 0.0000 0.0000 15.7577
#
#
#
# Elastic Compliance Matrix: (Units=1/GPa)
#
#
# Indices 1 2 3 4 5 6 
#
# 1 0.015147 0.000767 -0.003471 0.000000 0.000000 0.000000
# 2 0.000767 0.015147 -0.003471 0.000000 0.000000 0.000000
# 3 -0.003471 -0.003471 0.009703 0.000000 0.000000 0.000000
# 4 0.000000 0.000000 0.000000 0.030742 0.000000 0.000000
# 5 0.000000 0.000000 0.000000 0.000000 0.030742 0.000000
# 6 0.000000 0.000000 0.000000 0.000000 0.000000 0.063461
#
#
# Mechanical properties :
#
#
# Convention : Reuss Voigt Hill
#
# Bulk Modulus (GPa) = 36.17200 41.95491 39.06345
# Shear Modulus (GPa) = 26.80862 30.18916 28.49889
#
# Velocity S-wave (km/s) = 3.56406 3.78211 3.67470
# Velocity P-wave (km/s) = 5.83745 6.24112 6.04266
#
# Compressibility (1/GPa) = 0.02764570
#
# Stress axis : x y z
#
# Youngs Moduli (GPa) = 66.02175 66.02175 103.06230
#
# Poissons Ratio (x) = -0.05067 0.35776
# Poissons Ratio (y) = -0.05067 0.35776
# Poissons Ratio (z) = 0.22918 0.22918
#
# Static dielectric constant tensor:
#      x y z
#    x 3.702540 0.000000 0.000000 
#    y 0.000000 3.702540 0.000000 
#    z 0.000000 0.000000 4.204410 
# 
# 
# High freq. dielectric constant tensor:
#      x y z
#    x 1.816560 0.000000 0.000000 
#    y 0.000000 1.816560 0.000000 
#    z 0.000000 0.000000 1.845970 
# 
# From -- ./inp_files/1298.got.cif
#   From: 2010.03.12/outbox.cif.g09.slc.cpg/sg92_1_cif.got.tgz:1298.got - 2010.04.08 20:41:11.
