data_PCOD8305937
_publ_section_title
;
Structure prediction by ZEFSAII (Michael W. Deem and Ramdas Pophale) SiO2 
 PCOD8305937
Probable space group: P 43 21 2
;
_chemical_formula_sum "Si O2"
_cell_formula_units_Z 56
_cell_length_a 11.451170
_cell_length_b 11.451170
_cell_length_c 20.655341
_cell_angle_alpha 90.000000
_cell_angle_beta 90.000000
_cell_angle_gamma 90.000000
_cell_volume 2708.520290
_symmetry_space_group_name_H-M "P 43 21 2"
_symmetry_group_IT_number 96
_symmetry_cell_setting 'tetragonal'
loop_
_space_group_symop_operation_xyz
x,y,z
1/2-y,1/2+x,3/4+z
-x,-y,1/2+z
1/2+y,1/2-x,1/4+z
1/2+x,1/2-y,1/4-z
1/2-x,1/2+y,3/4-z
y,x,-z
-y,-x,1/2-z
loop_
_atom_site_type_symbol
_atom_site_label
_atom_site_fract_x
_atom_site_fract_y
_atom_site_fract_z
Si Si1 0.702855 0.297146 0.750000
Si Si2 0.448195 0.298214 0.719100
Si Si3 0.356605 0.546908 0.495032
Si Si4 0.668667 0.431763 0.383410
Si Si5 0.929507 0.158954 0.313781
Si Si6 0.433911 0.566090 0.750000
Si Si7 0.577124 0.820954 0.085708
Si Si8 0.136927 0.420535 0.158569
O O1 0.586077 0.293304 0.708079
O O2 0.708132 0.196156 0.801092
O O3 0.408553 0.431619 0.730029
O O4 0.400085 0.241622 0.653795
O O5 0.408381 0.219350 0.779252
O O6 0.422567 0.422567 0.500000
O O7 0.342200 0.602916 0.566903
O O8 0.435490 0.636323 0.453936
O O9 0.233602 0.528360 0.457815
O O10 0.612542 0.560333 0.386239
O O11 0.647324 0.391891 0.309702
O O12 0.805552 0.442539 0.402026
O O13 0.848670 0.151331 0.250000
O O14 0.922424 0.285525 0.344059
O O15 0.557993 0.961510 0.090382
#
# Coordination Sequence:
#
# PCOD8305937 Si02
#       8
#     4   8   8   8   8   4   8   8
#     4   9  22  38  60  97 128 156 210 263 332 390
#     4  10  22  38  66  93 126 165 213 270 335 383
#     4   9  19  38  68  95 117 162 217 258 320 394
#     4  10  22  39  66  92 127 169 221 262 321 400
#     4   9  20  40  67  84 118 172 217 257 315 393
#     4  11  20  40  68  97 120 168 226 283 314 386
#     4  11  22  37  67  94 131 160 208 271 331 391
#     4  11  24  40  61  96 131 172 214 268 334 391
#
# _framework density 20.675495000000002
#
# number of rings (size 3 to 8) (size 9 to 14) (size 15 to 20)
#    0.000    2.286    2.143    1.714    9.000    0.000 
#    0.000    2.857    9.429    0.000    0.000    0.000 
#    0.000    0.000    0.000    0.000    0.000    0.000 
#
# Total GULP energy -694099.945108 kJ/mol
# GULP energy per Si atom -12394.641877 kJ/mol
# Density = 2.062844 g / cm^3
# Si number density = 20.675495 Si / 1000 Ang^3
#
#
#
# Elastic Constant Matrix: (Units=GPa)
#
#
# Indices 1 2 3 4 5 6 
#
# 1 80.8765 32.1097 44.0566 0.0000 0.0000 0.0000
# 2 32.1097 80.8758 44.0555 0.0000 0.0000 0.0000
# 3 44.0566 44.0555 126.2541 0.0000 0.0000 0.0000
# 4 0.0000 0.0000 0.0000 24.7017 0.0000 0.0000
# 5 0.0000 0.0000 0.0000 0.0000 24.7017 0.0000
# 6 0.0000 0.0000 0.0000 0.0000 0.0000 17.9105
#
#
#
# Elastic Compliance Matrix: (Units=1/GPa)
#
#
# Indices 1 2 3 4 5 6 
#
# 1 0.016333 -0.004173 -0.004243 0.000000 0.000000 0.000000
# 2 -0.004173 0.016333 -0.004243 0.000000 0.000000 0.000000
# 3 -0.004243 -0.004243 0.010882 0.000000 0.000000 0.000000
# 4 0.000000 0.000000 0.000000 0.040483 0.000000 0.000000
# 5 0.000000 0.000000 0.000000 0.000000 0.040483 0.000000
# 6 0.000000 0.000000 0.000000 0.000000 0.000000 0.055833
#
#
# Mechanical properties :
#
#
# Convention : Reuss Voigt Hill
#
# Bulk Modulus (GPa) = 54.85847 58.71665 56.78756
# Shear Modulus (GPa) = 23.61372 24.64843 24.13107
#
# Velocity S-wave (km/s) = 3.38318 3.45651 3.42004
# Velocity P-wave (km/s) = 6.46930 6.66264 6.56668
#
# Compressibility (1/GPa) = 0.01822873
#
# Stress axis : x y z
#
# Youngs Moduli (GPa) = 61.22664 61.22668 91.89703
#
# Poissons Ratio (x) = 0.25551 0.38993
# Poissons Ratio (y) = 0.25551 0.38992
# Poissons Ratio (z) = 0.25979 0.25978
#
# Static dielectric constant tensor:
#      x y z
#    x 3.668700 0.000000 0.000000 
#    y 0.000000 3.668710 0.000000 
#    z 0.000000 0.000000 3.835790 
# 
# 
# High freq. dielectric constant tensor:
#      x y z
#    x 1.787940 0.000000 0.000000 
#    y 0.000000 1.787940 0.000000 
#    z 0.000000 0.000000 1.826350 
# 
# From -- ./inp_files/3586.got.cif
#   From: 2010.03.12/outbox.cif.g09.slc.cpg/sg96_2_cif.got.tgz:3586.got - 2010.04.08 20:56:49.
