data_PCOD8305473
_publ_section_title
;
Structure prediction by ZEFSAII (Michael W. Deem and Ramdas Pophale) SiO2 
 PCOD8305473
Probable space group: P 41 21 2
;
_chemical_formula_sum "Si O2"
_cell_formula_units_Z 48
_cell_length_a 9.051789
_cell_length_b 9.051789
_cell_length_c 26.908926
_cell_angle_alpha 90.000000
_cell_angle_beta 90.000000
_cell_angle_gamma 90.000000
_cell_volume 2204.779733
_symmetry_space_group_name_H-M "P 41 21 2"
_symmetry_group_IT_number 92
_symmetry_cell_setting 'tetragonal'
loop_
_space_group_symop_operation_xyz
x,y,z
1/2-y,1/2+x,1/4+z
-x,-y,1/2+z
1/2+y,1/2-x,3/4+z
1/2+x,1/2-y,3/4-z
1/2-x,1/2+y,1/4-z
y,x,-z
-y,-x,1/2-z
loop_
_atom_site_type_symbol
_atom_site_label
_atom_site_fract_x
_atom_site_fract_y
_atom_site_fract_z
Si Si1 0.264617 0.458245 0.404243
Si Si2 0.072774 0.663558 0.085679
Si Si3 0.241733 0.384096 0.115521
Si Si4 0.308612 0.072740 0.517638
Si Si5 0.424881 0.496132 0.947076
Si Si6 0.689963 0.183670 0.090492
O O1 0.206137 0.592755 0.371468
O O2 0.177095 0.434918 0.456933
O O3 0.440392 0.473652 0.409547
O O4 0.234801 0.317968 0.370077
O O5 0.200837 0.556498 0.108155
O O6 0.144967 0.829907 0.089882
O O7 0.932169 0.635577 0.119914
O O8 0.020095 0.627868 0.029405
O O9 0.339080 0.346235 0.066225
O O10 0.170184 0.170184 0.500000
O O11 0.254072 0.956399 0.558993
O O12 0.305830 0.626001 0.946903
O O13 0.497412 0.497412 0.000000
#
# Coordination Sequence:
#
# PCOD8305473 Si02
#       6
#     8   8   8   8   8   8
#     4  12  24  44  72 102 141 189 231 299 358 417
#     4  11  24  46  69  99 149 187 240 296 357 429
#     4  11  24  45  69  98 143 187 228 288 366 418
#     4  12  25  44  73 108 141 184 246 295 352 437
#     4  11  25  45  68 101 138 186 239 288 351 429
#     4  11  25  43  71 103 143 186 235 300 360 419
#
# _framework density 21.770883999999999
#
# number of rings (size 3 to 8) (size 9 to 14) (size 15 to 20)
#    0.000    0.667    5.000    2.500    2.333    0.000 
#    0.000    0.833    0.000    0.000    0.000    0.000 
#    0.000    0.000    0.000    0.000    0.000    0.000 
#
# Total GULP energy -594686.514802 kJ/mol
# GULP energy per Si atom -12389.302392 kJ/mol
# Density = 2.172133 g / cm^3
# Si number density = 21.770884 Si / 1000 Ang^3
#
#
#
# Elastic Constant Matrix: (Units=GPa)
#
#
# Indices 1 2 3 4 5 6 
#
# 1 116.0848 42.3574 45.5074 0.0000 0.0000 0.0000
# 2 42.3574 116.0848 45.5074 0.0000 0.0000 0.0000
# 3 45.5074 45.5074 95.0749 0.0000 0.0000 0.0000
# 4 0.0000 0.0000 0.0000 34.5303 0.0000 0.0000
# 5 0.0000 0.0000 0.0000 0.0000 34.5303 0.0000
# 6 0.0000 0.0000 0.0000 0.0000 0.0000 41.1209
#
#
#
# Elastic Compliance Matrix: (Units=1/GPa)
#
#
# Indices 1 2 3 4 5 6 
#
# 1 0.011134 -0.002429 -0.004167 0.000000 0.000000 0.000000
# 2 -0.002429 0.011134 -0.004167 0.000000 0.000000 0.000000
# 3 -0.004167 -0.004167 0.014507 0.000000 0.000000 0.000000
# 4 0.000000 0.000000 0.000000 0.028960 0.000000 0.000000
# 5 0.000000 0.000000 0.000000 0.000000 0.028960 0.000000
# 6 0.000000 0.000000 0.000000 0.000000 0.000000 0.024319
#
#
# Mechanical properties :
#
#
# Convention : Reuss Voigt Hill
#
# Bulk Modulus (GPa) = 65.57323 65.99879 65.78601
# Shear Modulus (GPa) = 34.33545 34.96109 34.64827
#
# Velocity S-wave (km/s) = 3.97561 4.01167 3.99368
# Velocity P-wave (km/s) = 7.15955 7.19993 7.17977
#
# Compressibility (1/GPa) = 0.01525013
#
# Stress axis : x y z
#
# Youngs Moduli (GPa) = 89.81353 89.81353 68.93384
#
# Poissons Ratio (x) = 0.21818 0.28722
# Poissons Ratio (y) = 0.21818 0.28722
# Poissons Ratio (z) = 0.37421 0.37421
#
# Static dielectric constant tensor:
#      x y z
#    x 4.123550 0.000000 0.000000 
#    y 0.000000 4.123550 0.000000 
#    z 0.000000 0.000000 3.914850 
# 
# 
# High freq. dielectric constant tensor:
#      x y z
#    x 1.863440 0.000000 0.000000 
#    y 0.000000 1.863440 0.000000 
#    z 0.000000 0.000000 1.841140 
# 
# From -- ./inp_files/4471.got.cif
#   From: 2010.03.12/outbox.cif.g09.slc.cpg/sg92_3_cif.got.tgz:4471.got - 2010.04.08 20:41:11.
