data_PCOD8305624
_publ_section_title
;
Structure prediction by ZEFSAII (Michael W. Deem and Ramdas Pophale) SiO2 
 PCOD8305624
Probable space group: P 42 21 2
;
_chemical_formula_sum "Si O2"
_cell_formula_units_Z 36
_cell_length_a 9.561424
_cell_length_b 9.561424
_cell_length_c 19.726252
_cell_angle_alpha 90.000000
_cell_angle_beta 90.000000
_cell_angle_gamma 90.000000
_cell_volume 1803.390309
_symmetry_space_group_name_H-M "P 42 21 2"
_symmetry_group_IT_number 94
_symmetry_cell_setting 'tetragonal'
loop_
_space_group_symop_operation_xyz
x,y,z
1/2-y,1/2+x,1/2+z
-x,-y,z
1/2+y,1/2-x,1/2+z
1/2+x,1/2-y,1/2-z
1/2-x,1/2+y,1/2-z
y,x,-z
-y,-x,-z
loop_
_atom_site_type_symbol
_atom_site_label
_atom_site_fract_x
_atom_site_fract_y
_atom_site_fract_z
Si Si1 0.247698 0.247698 0.000000
Si Si2 0.750643 0.915395 0.791306
Si Si3 0.772959 0.251875 0.165931
Si Si4 0.471481 0.155787 0.899762
Si Si5 0.845659 0.973549 0.102456
O O1 0.390127 0.243098 0.957110
O O2 0.113469 0.244958 0.950872
O O3 0.748455 0.860979 0.714645
O O4 0.617533 0.855068 0.830905
O O5 0.891766 0.862540 0.826719
O O6 0.745605 0.084034 0.790298
O O7 0.762883 0.386192 0.117113
O O8 0.766212 0.118097 0.116758
O O9 0.500000 0.000000 0.927984
O O10 0.000000 0.000000 0.071546
#
# Coordination Sequence:
#
# PCOD8305624 Si02
#       5
#     4   8   8   8   8
#     4  10  19  36  56  74 103 144 194 228 257 320
#     4   9  18  32  53  79 108 137 173 219 273 331
#     4  10  18  33  55  81 108 136 174 223 277 323
#     4   9  19  34  54  79 109 145 181 225 275 325
#     4   9  18  31  53  78  98 138 185 219 258 320
#
# _framework density 19.962399999999999
#
# number of rings (size 3 to 8) (size 9 to 14) (size 15 to 20)
#    0.000    2.667    0.000    3.000    0.000    0.000 
#    0.000    4.444    0.000    5.333    0.000    0.000 
#    0.000    0.000    0.000    0.000    0.000    0.000 
#
# Total GULP energy -446471.325171 kJ/mol
# GULP energy per Si atom -12401.981255 kJ/mol
# Density = 1.991696 g / cm^3
# Si number density = 19.962400 Si / 1000 Ang^3
#
#
#
# Elastic Constant Matrix: (Units=GPa)
#
#
# Indices 1 2 3 4 5 6 
#
# 1 111.7576 33.6680 51.0852 0.0000 0.0000 0.0000
# 2 33.6680 111.7576 51.0852 0.0000 0.0000 0.0000
# 3 51.0852 51.0852 93.0297 0.0000 0.0000 0.0000
# 4 0.0000 0.0000 0.0000 17.7893 0.0000 0.0000
# 5 0.0000 0.0000 0.0000 0.0000 17.7893 0.0000
# 6 0.0000 0.0000 0.0000 0.0000 0.0000 20.9391
#
#
#
# Elastic Compliance Matrix: (Units=1/GPa)
#
#
# Indices 1 2 3 4 5 6 
#
# 1 0.012001 -0.000805 -0.006148 0.000000 0.000000 0.000000
# 2 -0.000805 0.012001 -0.006148 0.000000 0.000000 0.000000
# 3 -0.006148 -0.006148 0.017501 0.000000 0.000000 0.000000
# 4 0.000000 0.000000 0.000000 0.056214 0.000000 0.000000
# 5 0.000000 0.000000 0.000000 0.000000 0.056214 0.000000
# 6 0.000000 0.000000 0.000000 0.000000 0.000000 0.047757
#
#
# Mechanical properties :
#
#
# Convention : Reuss Voigt Hill
#
# Bulk Modulus (GPa) = 65.35497 65.35797 65.35647
# Shear Modulus (GPa) = 21.46026 23.35066 22.40546
#
# Velocity S-wave (km/s) = 3.28233 3.42384 3.35383
# Velocity P-wave (km/s) = 6.86841 6.96002 6.91437
#
# Compressibility (1/GPa) = 0.01530106
#
# Stress axis : x y z
#
# Youngs Moduli (GPa) = 83.32858 83.32858 57.13930
#
# Poissons Ratio (x) = 0.06709 0.35128
# Poissons Ratio (y) = 0.06709 0.35128
# Poissons Ratio (z) = 0.51229 0.51229
#
# Static dielectric constant tensor:
#      x y z
#    x 3.598760 0.000000 0.000000 
#    y 0.000000 3.598760 0.000000 
#    z 0.000000 0.000000 3.306310 
# 
# 
# High freq. dielectric constant tensor:
#      x y z
#    x 1.770350 0.000000 0.000000 
#    y 0.000000 1.770350 0.000000 
#    z 0.000000 0.000000 1.760910 
# 
# From -- ./inp_files/4531.got.cif
#   From: 2010.03.12/outbox.cif.g09.slc.cpg/sg94_3_cif.got.tgz:4531.got - 2010.04.08 20:48:32.
