data_PCOD8305080
_publ_section_title
;
Structure prediction by ZEFSAII (Michael W. Deem and Ramdas Pophale) SiO2 
 PCOD8305080
Probable space group: P 41 2 2
;
_chemical_formula_sum "Si O2"
_cell_formula_units_Z 64
_cell_length_a 11.493563
_cell_length_b 11.493563
_cell_length_c 23.739436
_cell_angle_alpha 90.000000
_cell_angle_beta 90.000000
_cell_angle_gamma 90.000000
_cell_volume 3136.026747
_symmetry_space_group_name_H-M "P 41 2 2"
_symmetry_group_IT_number 91
_symmetry_cell_setting 'tetragonal'
loop_
_space_group_symop_operation_xyz
x,y,z
-y,x,1/4+z
-x,-y,1/2+z
y,-x,3/4+z
x,-y,1/2-z
-x,y,-z
y,x,3/4-z
-y,-x,1/4-z
loop_
_atom_site_type_symbol
_atom_site_label
_atom_site_fract_x
_atom_site_fract_y
_atom_site_fract_z
Si Si1 0.214891 0.502743 0.898634
Si Si2 0.887287 0.284272 0.651518
Si Si3 0.282791 0.073603 0.193063
Si Si4 0.076093 0.243263 0.221533
Si Si5 0.627604 0.637313 0.259588
Si Si6 0.704045 0.841149 0.421611
Si Si7 0.470019 0.190706 0.559683
Si Si8 0.616272 0.426726 0.892527
O O1 0.141363 0.597042 0.932886
O O2 0.309609 0.446348 0.940044
O O3 0.130682 0.414172 0.864459
O O4 0.302453 0.551119 0.851082
O O5 0.771236 0.228765 0.625000
O O6 0.919929 0.226564 0.711189
O O7 0.863754 0.421020 0.657574
O O8 0.992789 0.258888 0.610106
O O9 0.173025 0.159706 0.195162
O O10 0.295810 0.000000 0.250000
O O11 0.091143 0.377364 0.203944
O O12 0.948709 0.220914 0.195967
O O13 0.608928 0.500000 0.250000
O O14 0.760513 0.674135 0.273895
O O15 0.568430 0.686438 0.201925
O O16 0.785214 0.785214 0.375000
O O17 0.500000 0.250161 0.500000
O O18 0.408133 0.289401 0.594793
O O19 0.536283 0.536283 0.875000
#
# Coordination Sequence:
#
# PCOD8305080 Si02
#       8
#     8   8   8   8   8   8   8   8
#     4  11  23  42  64  97 136 172 218 271 334 405
#     4  11  24  44  66  97 128 170 223 274 330 395
#     4  12  26  44  67  93 132 175 215 276 338 393
#     4  11  24  45  69  93 127 174 227 272 330 396
#     4  11  22  37  64  98 135 171 213 268 338 399
#     4  10  23  45  68  96 129 172 230 287 330 392
#     4  10  24  40  63  95 130 171 215 263 318 401
#     4  12  22  34  62  97 134 171 204 260 328 405
#
# _framework density 20.407990000000002
#
# number of rings (size 3 to 8) (size 9 to 14) (size 15 to 20)
#    0.000    1.000    5.000    1.500    5.250    2.000 
#    0.000    0.000    0.000    0.000    0.000    0.000 
#    0.000    0.000    0.000    0.000    0.000    0.000 
#
# Total GULP energy -793061.986507 kJ/mol
# GULP energy per Si atom -12391.593539 kJ/mol
# Density = 2.036154 g / cm^3
# Si number density = 20.407990 Si / 1000 Ang^3
#
#
#
# Elastic Constant Matrix: (Units=GPa)
#
#
# Indices 1 2 3 4 5 6 
#
# 1 94.4844 36.9281 51.0387 0.0000 0.0000 0.0000
# 2 36.9281 94.4827 51.0380 0.0000 0.0000 0.0000
# 3 51.0387 51.0380 138.3754 0.0000 0.0000 0.0000
# 4 0.0000 0.0000 0.0000 35.0073 0.0000 0.0000
# 5 0.0000 0.0000 0.0000 0.0000 35.0076 0.0000
# 6 0.0000 0.0000 0.0000 0.0000 0.0000 25.0650
#
#
#
# Elastic Compliance Matrix: (Units=1/GPa)
#
#
# Indices 1 2 3 4 5 6 
#
# 1 0.014020 -0.003355 -0.003934 0.000000 0.000000 0.000000
# 2 -0.003355 0.014020 -0.003934 0.000000 0.000000 0.000000
# 3 -0.003934 -0.003934 0.010129 0.000000 0.000000 0.000000
# 4 0.000000 0.000000 0.000000 0.028566 0.000000 0.000000
# 5 0.000000 0.000000 0.000000 0.000000 0.028565 0.000000
# 6 0.000000 0.000000 0.000000 0.000000 0.000000 0.039896
#
#
# Mechanical properties :
#
#
# Convention : Reuss Voigt Hill
#
# Bulk Modulus (GPa) = 63.59677 67.26136 65.42907
# Shear Modulus (GPa) = 30.69719 31.57180 31.13449
#
# Velocity S-wave (km/s) = 3.88258 3.93750 3.91013
# Velocity P-wave (km/s) = 7.16446 7.32815 7.24677
#
# Compressibility (1/GPa) = 0.01572407
#
# Stress axis : x y z
#
# Youngs Moduli (GPa) = 71.32751 71.32637 98.73022
#
# Poissons Ratio (x) = 0.23927 0.38839
# Poissons Ratio (y) = 0.23928 0.38839
# Poissons Ratio (z) = 0.28059 0.28058
#
# Static dielectric constant tensor:
#      x y z
#    x 3.648960 0.000000 0.000000 
#    y 0.000000 3.648960 0.000000 
#    z 0.000000 0.000000 4.252940 
# 
# 
# High freq. dielectric constant tensor:
#      x y z
#    x 1.788790 0.000000 0.000000 
#    y 0.000000 1.788790 0.000000 
#    z 0.000000 0.000000 1.820710 
# 
# From -- ./inp_files/21868.got.cif
#   From: 2010.03.12/outbox.cif.g09.slc.cpg/sg91_11_cif.got.tgz:21868.got - 2010.04.08 20:27:58.
