data_PCOD8305137
_publ_section_title
;
Structure prediction by ZEFSAII (Michael W. Deem and Ramdas Pophale) SiO2 
 PCOD8305137
Probable space group: P 41 2 2
;
_chemical_formula_sum "Si O2"
_cell_formula_units_Z 56
_cell_length_a 14.356975
_cell_length_b 14.356975
_cell_length_c 13.006354
_cell_angle_alpha 90.000000
_cell_angle_beta 90.000000
_cell_angle_gamma 90.000000
_cell_volume 2680.905209
_symmetry_space_group_name_H-M "P 41 2 2"
_symmetry_group_IT_number 91
_symmetry_cell_setting 'tetragonal'
loop_
_space_group_symop_operation_xyz
x,y,z
-y,x,1/4+z
-x,-y,1/2+z
y,-x,3/4+z
x,-y,1/2-z
-x,y,-z
y,x,3/4-z
-y,-x,1/4-z
loop_
_atom_site_type_symbol
_atom_site_label
_atom_site_fract_x
_atom_site_fract_y
_atom_site_fract_z
Si Si1 0.831711 0.979918 0.367245
Si Si2 0.895129 0.480888 0.030823
Si Si3 0.826613 0.313854 0.169770
Si Si4 0.645042 0.339182 0.481130
Si Si5 0.318855 0.842780 0.342404
Si Si6 0.720441 0.507156 0.903344
Si Si7 0.896679 0.135817 0.506936
O O1 0.932569 0.932569 0.375000
O O2 0.752842 0.914071 0.410175
O O3 0.806439 0.000000 0.250000
O O4 0.828810 0.071730 0.438017
O O5 0.850528 0.411507 0.114937
O O6 0.898055 0.585648 0.073129
O O7 0.826948 0.481988 0.931772
O O8 0.000000 0.449659 0.000000
O O9 0.732600 0.267400 0.125000
O O10 0.811325 0.323976 0.290283
O O11 0.749071 0.300109 0.473110
O O12 0.587251 0.279810 0.565217
O O13 0.658280 0.449390 0.504788
O O14 0.587519 0.331990 0.376172
O O15 0.234408 0.906292 0.302852
O O16 0.860129 0.139872 0.625000
O O17 0.000000 0.092675 0.500000
#
# Coordination Sequence:
#
# PCOD8305137 Si02
#       7
#     8   8   8   8   8   8   8
#     4  11  22  39  63  89 125 167 214 275 334 407
#     4  11  24  42  65  93 136 172 228 278 340 418
#     4  11  23  42  66  91 129 172 227 279 341 410
#     4   9  19  38  66  88 126 161 217 265 334 399
#     4  11  24  41  63  91 134 177 220 276 341 411
#     4   9  19  38  66  92 123 169 211 282 325 404
#     4  12  24  39  63  96 134 174 223 281 346 411
#
# _framework density 20.888466999999999
#
# number of rings (size 3 to 8) (size 9 to 14) (size 15 to 20)
#    0.000    1.429    0.000    6.429    4.000    1.143 
#    5.143    0.000   72.286    0.000    0.000    0.000 
#    0.000    0.000    0.000    0.000    0.000    0.000 
#
# Total GULP energy -694108.475664 kJ/mol
# GULP energy per Si atom -12394.794208 kJ/mol
# Density = 2.084092 g / cm^3
# Si number density = 20.888467 Si / 1000 Ang^3
#
#
#
# Elastic Constant Matrix: (Units=GPa)
#
#
# Indices 1 2 3 4 5 6 
#
# 1 111.9436 14.5241 29.6625 0.0000 0.0000 0.0000
# 2 14.5241 111.9434 29.6623 0.0000 0.0000 0.0000
# 3 29.6625 29.6623 100.1328 0.0000 0.0000 0.0000
# 4 0.0000 0.0000 0.0000 39.3607 0.0000 0.0000
# 5 0.0000 0.0000 0.0000 0.0000 39.3608 0.0000
# 6 0.0000 0.0000 0.0000 0.0000 0.0000 16.4405
#
#
#
# Elastic Compliance Matrix: (Units=1/GPa)
#
#
# Indices 1 2 3 4 5 6 
#
# 1 0.009724 -0.000541 -0.002720 0.000000 0.000000 0.000000
# 2 -0.000541 0.009724 -0.002720 0.000000 0.000000 0.000000
# 3 -0.002720 -0.002720 0.011598 0.000000 0.000000 0.000000
# 4 0.000000 0.000000 0.000000 0.025406 0.000000 0.000000
# 5 0.000000 0.000000 0.000000 0.000000 0.025406 0.000000
# 6 0.000000 0.000000 0.000000 0.000000 0.000000 0.060826
#
#
# Mechanical properties :
#
#
# Convention : Reuss Voigt Hill
#
# Bulk Modulus (GPa) = 52.40125 52.41308 52.40717
# Shear Modulus (GPa) = 31.05427 35.71046 33.38237
#
# Velocity S-wave (km/s) = 3.85992 4.13919 4.00199
# Velocity P-wave (km/s) = 6.70865 6.92750 6.81895
#
# Compressibility (1/GPa) = 0.01908351
#
# Stress axis : x y z
#
# Youngs Moduli (GPa) = 102.83750 102.83749 86.21840
#
# Poissons Ratio (x) = 0.05562 0.23455
# Poissons Ratio (y) = 0.05562 0.23454
# Poissons Ratio (z) = 0.27976 0.27975
#
# Static dielectric constant tensor:
#      x y z
#    x 3.789170 0.000000 0.000000 
#    y 0.000000 3.789170 0.000000 
#    z 0.000000 0.000000 3.607790 
# 
# 
# High freq. dielectric constant tensor:
#      x y z
#    x 1.817410 0.000000 0.000000 
#    y 0.000000 1.817410 0.000000 
#    z 0.000000 0.000000 1.823570 
# 
# From -- ./inp_files/3944.got.cif
#   From: 2010.03.12/outbox.cif.g09.slc.cpg/sg91_2_cif.got.tgz:3944.got - 2010.04.08 20:27:58.
