data_PCOD8305820
_publ_section_title
;
Structure prediction by ZEFSAII (Michael W. Deem and Ramdas Pophale) SiO2 
 PCOD8305820
Probable space group: P 43 2 2
;
_chemical_formula_sum "Si O2"
_cell_formula_units_Z 56
_cell_length_a 15.348218
_cell_length_b 15.348218
_cell_length_c 13.236781
_cell_angle_alpha 90.000000
_cell_angle_beta 90.000000
_cell_angle_gamma 90.000000
_cell_volume 3118.159323
_symmetry_space_group_name_H-M "P 43 2 2"
_symmetry_group_IT_number 95
_symmetry_cell_setting 'tetragonal'
loop_
_space_group_symop_operation_xyz
x,y,z
-y,x,3/4+z
-x,-y,1/2+z
y,-x,1/4+z
x,-y,1/2-z
-x,y,-z
y,x,1/4-z
-y,-x,3/4-z
loop_
_atom_site_type_symbol
_atom_site_label
_atom_site_fract_x
_atom_site_fract_y
_atom_site_fract_z
Si Si1 0.124615 0.410251 0.191225
Si Si2 0.568384 0.069321 0.590151
Si Si3 0.144788 0.144788 0.625000
Si Si4 0.217671 0.000000 0.750000
Si Si5 0.317515 0.845684 0.638597
Si Si6 0.308397 0.438842 0.655422
Si Si7 0.294603 0.199454 0.486824
Si Si8 0.819147 0.499464 0.992945
O O1 0.123056 0.500000 0.250000
O O2 0.151345 0.331525 0.266596
O O3 0.027055 0.392753 0.151466
O O4 0.188836 0.423645 0.093928
O O5 0.500000 0.082455 0.500000
O O6 0.649143 0.134958 0.580866
O O7 0.518268 0.094409 0.691964
O O8 0.150387 0.054131 0.682635
O O9 0.228444 0.143733 0.552954
O O10 0.275487 0.065076 0.818806
O O11 0.262086 0.759478 0.662220
O O12 0.409089 0.835042 0.691422
O O13 0.321457 0.500000 0.750000
O O14 0.403750 0.403750 0.625000
O O15 0.249835 0.356060 0.684461
O O16 0.266441 0.495275 0.564004
#
# Coordination Sequence:
#
# PCOD8305820 Si02
#       8
#     8   8   4   4   8   8   8   8
#     4   9  21  32  46  77 116 148 174 221 287 347
#     4  11  20  30  51  81 111 146 187 228 283 346
#     4  10  20  32  54  90 110 146 176 244 288 330
#     4  10  20  32  56  84 116 142 194 234 286 338
#     4  10  21  33  53  80 117 148 181 237 283 337
#     4  12  21  37  61  81 109 142 188 238 278 332
#     4  11  18  32  54  82 111 142 184 227 287 327
#     4  11  19  32  53  80 109 147 178 229 293 335
#
# _framework density 17.959313000000002
#
# number of rings (size 3 to 8) (size 9 to 14) (size 15 to 20)
#    0.000    1.429    5.000    2.143    6.000    0.000 
#    0.000    0.714    3.143    0.000   22.286    0.000 
#    0.000    0.000    0.000    0.000    0.000    0.000 
#
# Total GULP energy -694130.104247 kJ/mol
# GULP energy per Si atom -12395.180433 kJ/mol
# Density = 1.791844 g / cm^3
# Si number density = 17.959313 Si / 1000 Ang^3
#
#
#
# Elastic Constant Matrix: (Units=GPa)
#
#
# Indices 1 2 3 4 5 6 
#
# 1 80.8819 44.6365 55.7075 0.0000 0.0000 0.0000
# 2 44.6365 80.8819 55.7075 0.0000 0.0000 0.0000
# 3 55.7075 55.7075 125.2897 0.0000 0.0000 0.0000
# 4 0.0000 0.0000 0.0000 20.8372 0.0000 0.0000
# 5 0.0000 0.0000 0.0000 0.0000 20.8372 0.0000
# 6 0.0000 0.0000 0.0000 0.0000 0.0000 -29.3445
#
#
#
# Elastic Compliance Matrix: (Units=1/GPa)
#
#
# Indices 1 2 3 4 5 6 
#
# 1 0.020376 -0.007214 -0.005852 0.000000 0.000000 0.000000
# 2 -0.007214 0.020376 -0.005852 0.000000 0.000000 0.000000
# 3 -0.005852 -0.005852 0.013185 0.000000 0.000000 0.000000
# 4 0.000000 0.000000 0.000000 0.047991 0.000000 0.000000
# 5 0.000000 0.000000 0.000000 0.000000 0.047991 0.000000
# 6 0.000000 0.000000 0.000000 0.000000 0.000000 -0.034078
#
#
# Mechanical properties :
#
#
# Convention : Reuss Voigt Hill
#
# Bulk Modulus (GPa) = 62.11031 66.57294 64.34163
# Shear Modulus (GPa) = 31.43793 11.19944 21.31868
#
# Velocity S-wave (km/s) = 4.18845 2.49991 3.44910
# Velocity P-wave (km/s) = 7.61904 6.74403 7.19485
#
# Compressibility (1/GPa) = 0.01610039
#
# Stress axis : x y z
#
# Youngs Moduli (GPa) = 49.07851 49.07851 75.84154
#
# Poissons Ratio (x) = 0.35406 0.44382
# Poissons Ratio (y) = 0.35406 0.44382
# Poissons Ratio (z) = 0.28720 0.28720
#
# Static dielectric constant tensor:
#      x y z
#    x 3.441260 0.000000 0.000000 
#    y 0.000000 3.441260 0.000000 
#    z 0.000000 0.000000 3.552450 
# 
# 
# High freq. dielectric constant tensor:
#      x y z
#    x 1.678470 0.000000 0.000000 
#    y 0.000000 1.678470 0.000000 
#    z 0.000000 0.000000 1.702450 
# 
# From -- ./inp_files/5018.got.cif
#   From: 2010.03.12/outbox.cif.g09.slc.cpg/sg95_3_cif.got.tgz:5018.got - 2010.04.08 20:51:55.
