data_PCOD8305583
_publ_section_title
;
Structure prediction by ZEFSAII (Michael W. Deem and Ramdas Pophale) SiO2 
 PCOD8305583
Probable space group: P 42 2 2
;
_chemical_formula_sum "Si O2"
_cell_formula_units_Z 30
_cell_length_a 9.106396
_cell_length_b 9.106396
_cell_length_c 18.734807
_cell_angle_alpha 90.000000
_cell_angle_beta 90.000000
_cell_angle_gamma 90.000000
_cell_volume 1553.611001
_symmetry_space_group_name_H-M "P 42 2 2"
_symmetry_group_IT_number 93
_symmetry_cell_setting 'tetragonal'
loop_
_space_group_symop_operation_xyz
x,y,z
-y,x,1/2+z
-x,-y,z
y,-x,1/2+z
x,-y,-z
-x,y,-z
y,x,1/2-z
-y,-x,1/2-z
loop_
_atom_site_type_symbol
_atom_site_label
_atom_site_fract_x
_atom_site_fract_y
_atom_site_fract_z
Si Si1 0.500000 0.000000 0.818911
Si Si2 0.662673 0.435699 0.928703
Si Si3 0.000000 0.000000 0.500000
Si Si4 0.274582 0.490754 0.225831
Si Si5 0.903029 0.288337 0.563485
O O1 0.538617 0.868954 0.766570
O O2 0.350799 0.975327 0.864168
O O3 0.500000 0.500000 0.919941
O O4 0.754234 0.486674 0.859454
O O5 0.652722 0.261748 0.938148
O O6 0.739017 0.500000 0.000000
O O7 0.906422 0.108762 0.553073
O O8 0.328511 0.328511 0.250000
O O9 0.395873 0.604128 0.250000
O O10 0.000000 0.359434 0.500000
#
# Coordination Sequence:
#
# PCOD8305583 Si02
#       5
#     4   8   2   8   8
#     4  12  23  40  71  94 126 188 220 274 331 406
#     4  11  23  40  69  96 127 170 221 284 335 381
#     4   8  24  42  66  94 148 170 216 280 320 410
#     4  11  22  43  60  93 136 163 217 280 330 393
#     4  10  23  42  67  97 133 171 230 265 339 409
#
# _framework density 19.309854000000001
#
# number of rings (size 3 to 8) (size 9 to 14) (size 15 to 20)
#    0.800    0.533    5.333    0.400   11.200    0.000 
#    9.600    0.000    0.000    0.000    0.000    0.000 
#    0.000    0.000    0.000    0.000    0.000    0.000 
#
# Total GULP energy -371682.993523 kJ/mol
# GULP energy per Si atom -12389.433117 kJ/mol
# Density = 1.926590 g / cm^3
# Si number density = 19.309854 Si / 1000 Ang^3
#
#
#
# Elastic Constant Matrix: (Units=GPa)
#
#
# Indices 1 2 3 4 5 6 
#
# 1 109.4048 59.0988 56.7969 0.0000 0.0000 0.0000
# 2 59.0988 109.4078 56.7969 0.0000 0.0000 0.0000
# 3 56.7969 56.7969 195.5678 0.0000 0.0000 0.0000
# 4 0.0000 0.0000 0.0000 46.2775 0.0000 0.0000
# 5 0.0000 0.0000 0.0000 0.0000 46.2823 0.0000
# 6 0.0000 0.0000 0.0000 0.0000 0.0000 17.8071
#
#
#
# Elastic Compliance Matrix: (Units=1/GPa)
#
#
# Indices 1 2 3 4 5 6 
#
# 1 0.013629 -0.006249 -0.002143 0.000000 0.000000 0.000000
# 2 -0.006249 0.013628 -0.002143 0.000000 0.000000 0.000000
# 3 -0.002143 -0.002143 0.006358 0.000000 0.000000 0.000000
# 4 0.000000 0.000000 0.000000 0.021609 0.000000 0.000000
# 5 0.000000 0.000000 0.000000 0.000000 0.021607 0.000000
# 6 0.000000 0.000000 0.000000 0.000000 0.000000 0.056157
#
#
# Mechanical properties :
#
#
# Convention : Reuss Voigt Hill
#
# Bulk Modulus (GPa) = 79.71768 84.41839 82.06804
# Shear Modulus (GPa) = 31.59756 38.18589 34.89172
#
# Velocity S-wave (km/s) = 4.04956 4.45177 4.25542
# Velocity P-wave (km/s) = 7.95225 8.38075 8.16931
#
# Compressibility (1/GPa) = 0.01254427
#
# Stress axis : x y z
#
# Youngs Moduli (GPa) = 73.37450 73.37680 157.27949
#
# Poissons Ratio (x) = 0.45855 0.33707
# Poissons Ratio (y) = 0.45854 0.33705
# Poissons Ratio (z) = 0.15725 0.15725
#
# Static dielectric constant tensor:
#      x y z
#    x 0.321190 0.000000 0.000000 
#    y 0.000000 0.320670 0.000000 
#    z 0.000000 0.000000 3.992180 
# 
# 
# High freq. dielectric constant tensor:
#      x y z
#    x 1.736510 0.000000 0.000000 
#    y 0.000000 1.736510 0.000000 
#    z 0.000000 0.000000 1.767160 
# 
# From -- ./inp_files/5928.got.cif
#   From: 2010.03.12/outbox.cif.g09.slc.cpg/sg93_3_cif.got.tgz:5928.got - 2010.04.08 20:44:19.
