data_PCOD8305717
_publ_section_title
;
Structure prediction by ZEFSAII (Michael W. Deem and Ramdas Pophale) SiO2 
 PCOD8305717
Probable space group: P 42 21 2
;
_chemical_formula_sum "Si O2"
_cell_formula_units_Z 38
_cell_length_a 16.861536
_cell_length_b 16.861536
_cell_length_c 5.726013
_cell_angle_alpha 90.000000
_cell_angle_beta 90.000000
_cell_angle_gamma 90.000000
_cell_volume 1627.970751
_symmetry_space_group_name_H-M "P 42 21 2"
_symmetry_group_IT_number 94
_symmetry_cell_setting 'tetragonal'
loop_
_space_group_symop_operation_xyz
x,y,z
1/2-y,1/2+x,1/2+z
-x,-y,z
1/2+y,1/2-x,1/2+z
1/2+x,1/2-y,1/2-z
1/2-x,1/2+y,1/2-z
y,x,-z
-y,-x,-z
loop_
_atom_site_type_symbol
_atom_site_label
_atom_site_fract_x
_atom_site_fract_y
_atom_site_fract_z
Si Si1 0.536800 0.359097 0.662826
Si Si2 0.210585 0.789416 0.500000
Si Si3 0.521413 0.212178 0.968240
Si Si4 0.085187 0.785084 0.150952
Si Si5 0.661790 0.127879 0.223262
Si Si6 0.000000 0.000000 0.500000
O O1 0.609264 0.390737 0.500000
O O2 0.562688 0.275007 0.786045
O O3 0.458766 0.348076 0.508222
O O4 0.504162 0.421718 0.846008
O O5 0.163657 0.820932 0.271326
O O6 0.300764 0.810357 0.417678
O O7 0.459805 0.152604 0.838456
O O8 0.472736 0.266783 0.138804
O O9 0.579271 0.162162 0.132677
O O10 0.116089 0.709218 0.013631
#
# Coordination Sequence:
#
# PCOD8305717 Si02
#       6
#     8   4   8   8   8   2
#     4  11  25  42  64  96 142 184 236 289 348 427
#     4  10  22  41  70  99 132 185 228 283 356 428
#     4  10  24  46  69 100 140 180 241 295 358 423
#     4  10  23  44  64  97 138 182 229 287 347 427
#     4  10  23  45  69 102 136 181 234 294 357 421
#     4  12  26  42  60 106 140 200 234 286 362 408
#
# _framework density 23.341940999999998
#
# number of rings (size 3 to 8) (size 9 to 14) (size 15 to 20)
#    0.000    1.684    0.000    2.211    0.000   26.947 
#   18.947    3.158    0.000    0.000    0.000    0.000 
#    0.000    0.000    0.000    0.000    0.000    0.000 
#
# Total GULP energy -470785.900821 kJ/mol
# GULP energy per Si atom -12389.102653 kJ/mol
# Density = 2.328881 g / cm^3
# Si number density = 23.341941 Si / 1000 Ang^3
#
#
#
# Elastic Constant Matrix: (Units=GPa)
#
#
# Indices 1 2 3 4 5 6 
#
# 1 87.5588 52.7236 31.9218 0.0000 0.0000 0.0000
# 2 52.7236 87.5574 31.9219 0.0000 0.0000 0.0000
# 3 31.9218 31.9219 103.1628 0.0000 0.0000 0.0000
# 4 0.0000 0.0000 0.0000 28.7325 0.0000 0.0000
# 5 0.0000 0.0000 0.0000 0.0000 28.7359 0.0000
# 6 0.0000 0.0000 0.0000 0.0000 0.0000 22.9173
#
#
#
# Elastic Compliance Matrix: (Units=1/GPa)
#
#
# Indices 1 2 3 4 5 6 
#
# 1 0.018502 -0.010205 -0.002567 0.000000 0.000000 0.000000
# 2 -0.010205 0.018502 -0.002567 0.000000 0.000000 0.000000
# 3 -0.002567 -0.002567 0.011282 0.000000 0.000000 0.000000
# 4 0.000000 0.000000 0.000000 0.034804 0.000000 0.000000
# 5 0.000000 0.000000 0.000000 0.000000 0.034800 0.000000
# 6 0.000000 0.000000 0.000000 0.000000 0.000000 0.043635
#
#
# Mechanical properties :
#
#
# Convention : Reuss Voigt Hill
#
# Bulk Modulus (GPa) = 56.79632 56.82374 56.81003
# Shear Modulus (GPa) = 25.24317 26.85793 26.05055
#
# Velocity S-wave (km/s) = 3.29211 3.39577 3.34434
# Velocity P-wave (km/s) = 6.23184 6.30650 6.26928
#
# Compressibility (1/GPa) = 0.01760677
#
# Stress axis : x y z
#
# Youngs Moduli (GPa) = 54.04859 54.04756 88.63483
#
# Poissons Ratio (x) = 0.55156 0.22755
# Poissons Ratio (y) = 0.55157 0.22756
# Poissons Ratio (z) = 0.13876 0.13876
#
# Static dielectric constant tensor:
#      x y z
#    x 4.894120 0.000000 0.000000 
#    y 0.000000 4.894000 0.000000 
#    z 0.000000 0.000000 5.048710 
# 
# 
# High freq. dielectric constant tensor:
#      x y z
#    x 1.907310 0.000000 0.000000 
#    y 0.000000 1.907310 0.000000 
#    z 0.000000 0.000000 1.959950 
# 
# From -- ./inp_files/378.got.cif
#   From: 2010.03.12/outbox.cif.g09.slc.cpg/sg94_1_cif.got.tgz:378.got - 2010.04.08 20:48:32.
