data_PCOD8305818
_publ_section_title
;
Structure prediction by ZEFSAII (Michael W. Deem and Ramdas Pophale) SiO2 
 PCOD8305818
Probable space group: P 43 2 2
;
_chemical_formula_sum "Si O2"
_cell_formula_units_Z 48
_cell_length_a 9.340370
_cell_length_b 9.340370
_cell_length_c 29.180566
_cell_angle_alpha 90.000000
_cell_angle_beta 90.000000
_cell_angle_gamma 90.000000
_cell_volume 2545.785872
_symmetry_space_group_name_H-M "P 43 2 2"
_symmetry_group_IT_number 95
_symmetry_cell_setting 'tetragonal'
loop_
_space_group_symop_operation_xyz
x,y,z
-y,x,3/4+z
-x,-y,1/2+z
y,-x,1/4+z
x,-y,1/2-z
-x,y,-z
y,x,1/4-z
-y,-x,3/4-z
loop_
_atom_site_type_symbol
_atom_site_label
_atom_site_fract_x
_atom_site_fract_y
_atom_site_fract_z
Si Si1 0.768488 0.435829 0.396082
Si Si2 0.479811 0.920853 0.364316
Si Si3 0.708909 0.284985 0.163425
Si Si4 0.138174 0.280609 0.030077
Si Si5 0.334052 0.518846 0.998056
Si Si6 0.032874 0.792480 0.337083
O O1 0.711580 0.288421 0.375000
O O2 0.719916 0.564276 0.362413
O O3 0.711405 0.437132 0.447533
O O4 0.938472 0.429985 0.397532
O O5 0.597184 0.797777 0.369251
O O6 0.359774 0.892523 0.326925
O O7 0.377859 0.931665 0.408406
O O8 0.641114 0.291248 0.214613
O O9 0.859767 0.198517 0.165938
O O10 0.170413 0.112448 0.039274
O O11 0.268574 0.362275 0.006400
O O12 0.000000 0.294017 0.000000
O O13 0.500000 0.495230 0.000000
O O14 0.096565 0.903436 0.375000
#
# Coordination Sequence:
#
# PCOD8305818 Si02
#       6
#     8   8   8   8   8   8
#     4  11  21  37  58  83 117 151 192 244 295 345
#     4   9  20  37  58  79 112 150 191 231 289 351
#     4  10  22  38  60  86 118 154 195 244 298 352
#     4  10  19  37  58  83 111 148 192 237 284 347
#     4  11  22  37  60  87 115 152 199 242 296 357
#     4   9  20  38  59  85 115 151 195 242 287 348
#
# _framework density 18.854686999999998
#
# number of rings (size 3 to 8) (size 9 to 14) (size 15 to 20)
#    0.000    2.000    3.333    0.000    2.333    1.333 
#    3.000    2.500    0.000    0.000    0.000    0.000 
#    0.000    0.000    0.000    0.000    0.000    0.000 
#
# Total GULP energy -594664.337850 kJ/mol
# GULP energy per Si atom -12388.840372 kJ/mol
# Density = 1.881177 g / cm^3
# Si number density = 18.854687 Si / 1000 Ang^3
#
#
#
# Elastic Constant Matrix: (Units=GPa)
#
#
# Indices 1 2 3 4 5 6 
#
# 1 88.0012 21.3414 3.2912 0.0000 0.0000 0.0000
# 2 21.3414 88.0017 3.2908 0.0000 0.0000 0.0000
# 3 3.2912 3.2908 57.1279 0.0000 0.0000 0.0000
# 4 0.0000 0.0000 0.0000 26.3197 0.0000 0.0000
# 5 0.0000 0.0000 0.0000 0.0000 26.3196 0.0000
# 6 0.0000 0.0000 0.0000 0.0000 0.0000 55.3968
#
#
#
# Elastic Compliance Matrix: (Units=1/GPa)
#
#
# Indices 1 2 3 4 5 6 
#
# 1 0.012089 -0.002912 -0.000529 0.000000 0.000000 0.000000
# 2 -0.002912 0.012089 -0.000529 0.000000 0.000000 0.000000
# 3 -0.000529 -0.000529 0.017565 0.000000 0.000000 0.000000
# 4 0.000000 0.000000 0.000000 0.037994 0.000000 0.000000
# 5 0.000000 0.000000 0.000000 0.000000 0.037994 0.000000
# 6 0.000000 0.000000 0.000000 0.000000 0.000000 0.018052
#
#
# Mechanical properties :
#
#
# Convention : Reuss Voigt Hill
#
# Bulk Modulus (GPa) = 29.58100 32.10863 30.84482
# Shear Modulus (GPa) = 32.25972 35.28774 33.77373
#
# Velocity S-wave (km/s) = 4.14087 4.33085 4.23692
# Velocity P-wave (km/s) = 6.21171 6.48651 6.35060
#
# Compressibility (1/GPa) = 0.03380548
#
# Stress axis : x y z
#
# Youngs Moduli (GPa) = 82.71668 82.71715 56.92983
#
# Poissons Ratio (x) = 0.24088 0.03010
# Poissons Ratio (y) = 0.24088 0.03009
# Poissons Ratio (z) = 0.04374 0.04373
#
# Static dielectric constant tensor:
#      x y z
#    x 3.545010 0.000000 0.000000 
#    y 0.000000 3.545010 0.000000 
#    z 0.000000 0.000000 3.524410 
# 
# 
# High freq. dielectric constant tensor:
#      x y z
#    x 1.735980 0.000000 0.000000 
#    y 0.000000 1.735980 0.000000 
#    z 0.000000 0.000000 1.723560 
# 
# From -- ./inp_files/7906.got.cif
#   From: 2010.03.12/outbox.cif.g09.slc.cpg/sg95_4_cif.got.tgz:7906.got - 2010.04.08 20:51:55.
