data_PCOD8305904
_publ_section_title
;
Structure prediction by ZEFSAII (Michael W. Deem and Ramdas Pophale) SiO2 
 PCOD8305904
Probable space group: P 43 21 2
;
_chemical_formula_sum "Si O2"
_cell_formula_units_Z 56
_cell_length_a 14.763116
_cell_length_b 14.763116
_cell_length_c 12.258346
_cell_angle_alpha 90.000000
_cell_angle_beta 90.000000
_cell_angle_gamma 90.000000
_cell_volume 2671.701534
_symmetry_space_group_name_H-M "P 43 21 2"
_symmetry_group_IT_number 96
_symmetry_cell_setting 'tetragonal'
loop_
_space_group_symop_operation_xyz
x,y,z
1/2-y,1/2+x,3/4+z
-x,-y,1/2+z
1/2+y,1/2-x,1/4+z
1/2+x,1/2-y,1/4-z
1/2-x,1/2+y,3/4-z
y,x,-z
-y,-x,1/2-z
loop_
_atom_site_type_symbol
_atom_site_label
_atom_site_fract_x
_atom_site_fract_y
_atom_site_fract_z
Si Si1 0.698620 0.275460 0.870482
Si Si2 0.381342 0.900421 0.358910
Si Si3 0.505616 0.611148 0.667137
Si Si4 0.010381 0.683885 0.541627
Si Si5 0.058380 0.645177 0.776602
Si Si6 0.353337 0.099700 0.363900
Si Si7 0.506091 0.338816 0.921042
O O1 0.737754 0.262247 0.750000
O O2 0.684055 0.173665 0.920579
O O3 0.772919 0.336286 0.934473
O O4 0.602742 0.326461 0.865493
O O5 0.472400 0.914075 0.430685
O O6 0.403844 0.854340 0.244069
O O7 0.332790 0.995292 0.334166
O O8 0.437340 0.562661 0.750000
O O9 0.520421 0.708700 0.722324
O O10 0.471315 0.623768 0.542652
O O11 0.596812 0.552547 0.656977
O O12 0.063928 0.650534 0.646905
O O13 0.052220 0.633868 0.436411
O O14 0.905765 0.651719 0.558294
O O15 0.051643 0.745923 0.825519
#
# Coordination Sequence:
#
# PCOD8305904 Si02
#       7
#     8   8   8   8   8   8   8
#     4   9  20  38  58  88 113 157 212 244 297 384
#     4  10  20  37  61  84 119 161 203 247 307 370
#     4  10  22  41  58  86 122 159 203 256 316 378
#     4  11  22  37  58  94 126 153 201 257 323 371
#     4  10  20  38  61  88 117 161 209 245 303 385
#     4  11  21  36  58  90 127 152 195 265 314 360
#     4   9  20  41  62  82 116 162 213 249 300 378
#
# _framework density 20.960424
#
# number of rings (size 3 to 8) (size 9 to 14) (size 15 to 20)
#    0.000    2.000    0.000    3.857    0.000    2.286 
#   23.143    0.000    0.000    0.000    0.000    0.000 
#    0.000    0.000    0.000    0.000    0.000    0.000 
#
# Total GULP energy -693967.147090 kJ/mol
# GULP energy per Si atom -12392.270484 kJ/mol
# Density = 2.091272 g / cm^3
# Si number density = 20.960424 Si / 1000 Ang^3
#
#
#
# Elastic Constant Matrix: (Units=GPa)
#
#
# Indices 1 2 3 4 5 6 
#
# 1 134.0978 75.0025 24.1280 0.0000 0.0000 0.0000
# 2 75.0025 134.0973 24.1279 0.0000 0.0000 0.0000
# 3 24.1280 24.1279 43.3328 0.0000 0.0000 0.0000
# 4 0.0000 0.0000 0.0000 25.0249 0.0000 0.0000
# 5 0.0000 0.0000 0.0000 0.0000 25.0251 0.0000
# 6 0.0000 0.0000 0.0000 0.0000 0.0000 35.2288
#
#
#
# Elastic Compliance Matrix: (Units=1/GPa)
#
#
# Indices 1 2 3 4 5 6 
#
# 1 0.011205 -0.005717 -0.003055 0.000000 0.000000 0.000000
# 2 -0.005717 0.011205 -0.003056 0.000000 0.000000 0.000000
# 3 -0.003055 -0.003056 0.026480 0.000000 0.000000 0.000000
# 4 0.000000 0.000000 0.000000 0.039960 0.000000 0.000000
# 5 0.000000 0.000000 0.000000 0.000000 0.039960 0.000000
# 6 0.000000 0.000000 0.000000 0.000000 0.000000 0.028386
#
#
# Mechanical properties :
#
#
# Convention : Reuss Voigt Hill
#
# Bulk Modulus (GPa) = 39.63070 62.00497 50.81783
# Shear Modulus (GPa) = 26.41831 29.60705 28.01268
#
# Velocity S-wave (km/s) = 3.55405 3.76243 3.65972
# Velocity P-wave (km/s) = 5.98248 6.96568 6.49272
#
# Compressibility (1/GPa) = 0.02523296
#
# Stress axis : x y z
#
# Youngs Moduli (GPa) = 89.24832 89.24796 37.76453
#
# Poissons Ratio (x) = 0.51025 0.11539
# Poissons Ratio (y) = 0.51025 0.11539
# Poissons Ratio (z) = 0.27270 0.27270
#
# Static dielectric constant tensor:
#      x y z
#    x 3.905900 0.000000 0.000000 
#    y 0.000000 3.905910 0.000000 
#    z 0.000000 0.000000 3.669810 
# 
# 
# High freq. dielectric constant tensor:
#      x y z
#    x 1.817250 0.000000 0.000000 
#    y 0.000000 1.817250 0.000000 
#    z 0.000000 0.000000 1.814560 
# 
# From -- ./inp_files/2301.got.cif
#   From: 2010.03.12/outbox.cif.g09.slc.cpg/sg96_2_cif.got.tgz:2301.got - 2010.04.08 20:56:49.
