data_PCOD8305106
_publ_section_title
;
Structure prediction by ZEFSAII (Michael W. Deem and Ramdas Pophale) SiO2 
 PCOD8305106
Probable space group: P 41 2 2
;
_chemical_formula_sum "Si O2"
_cell_formula_units_Z 60
_cell_length_a 11.386744
_cell_length_b 11.386744
_cell_length_c 19.946262
_cell_angle_alpha 90.000000
_cell_angle_beta 90.000000
_cell_angle_gamma 90.000000
_cell_volume 2586.191220
_symmetry_space_group_name_H-M "P 41 2 2"
_symmetry_group_IT_number 91
_symmetry_cell_setting 'tetragonal'
loop_
_space_group_symop_operation_xyz
x,y,z
-y,x,1/4+z
-x,-y,1/2+z
y,-x,3/4+z
x,-y,1/2-z
-x,y,-z
y,x,3/4-z
-y,-x,1/4-z
loop_
_atom_site_type_symbol
_atom_site_label
_atom_site_fract_x
_atom_site_fract_y
_atom_site_fract_z
Si Si1 0.777333 0.381592 0.486848
Si Si2 0.536133 0.906321 0.858270
Si Si3 0.615563 0.683031 0.308300
Si Si4 0.080565 0.053404 0.677176
Si Si5 0.105296 0.677937 0.850302
Si Si6 0.319944 0.049108 0.824100
Si Si7 0.427512 0.678055 0.064129
Si Si8 0.500000 0.784407 0.500000
O O1 0.880850 0.442957 0.529169
O O2 0.685984 0.486331 0.471636
O O3 0.819882 0.318382 0.419428
O O4 0.704536 0.293943 0.535714
O O5 0.513034 0.793332 0.904531
O O6 0.654526 0.969980 0.882366
O O7 0.423301 0.989494 0.866832
O O8 0.606136 0.606136 0.375000
O O9 0.665617 0.811698 0.325749
O O10 0.706253 0.615028 0.262116
O O11 0.109326 0.193819 0.684405
O O12 0.048446 0.000000 0.750000
O O13 0.194683 0.989302 0.645218
O O14 0.973994 0.026006 0.625000
O O15 0.138738 0.559273 0.808640
O O16 0.321216 0.000000 0.750000
O O17 0.417192 0.582809 0.125000
O O18 0.500000 0.632040 0.000000
#
# Coordination Sequence:
#
# PCOD8305106 Si02
#       8
#     8   8   8   8   8   8   8   4
#     4  11  24  45  68 108 144 199 243 309 387 462
#     4  11  23  45  72 105 143 198 257 305 381 465
#     4  12  23  43  69 103 150 192 241 307 374 458
#     4  11  28  48  72 110 148 201 258 320 390 453
#     4  12  26  45  76 104 146 195 250 315 381 458
#     4  11  20  42  73 105 144 194 247 308 379 453
#     4  10  26  44  69 103 149 195 248 312 385 459
#     4  12  26  42  70 120 146 190 250 304 394 458
#
# _framework density 23.200140999999999
#
# number of rings (size 3 to 8) (size 9 to 14) (size 15 to 20)
#    0.000    0.800    4.000    2.400    3.733    6.400 
#    0.000    0.000    0.000    0.000    0.000    0.000 
#    0.000    0.000    0.000    0.000    0.000    0.000 
#
# Total GULP energy -743399.797187 kJ/mol
# GULP energy per Si atom -12389.996620 kJ/mol
# Density = 2.314734 g / cm^3
# Si number density = 23.200141 Si / 1000 Ang^3
#
#
#
# Elastic Constant Matrix: (Units=GPa)
#
#
# Indices 1 2 3 4 5 6 
#
# 1 73.3374 85.4927 38.2727 0.0000 0.0000 0.0000
# 2 85.4927 73.3373 38.2728 0.0000 0.0000 0.0000
# 3 38.2727 38.2728 135.1615 0.0000 0.0000 0.0000
# 4 0.0000 0.0000 0.0000 29.0353 0.0000 0.0000
# 5 0.0000 0.0000 0.0000 0.0000 29.0355 0.0000
# 6 0.0000 0.0000 0.0000 0.0000 0.0000 -8.7653
#
#
#
# Elastic Compliance Matrix: (Units=1/GPa)
#
#
# Indices 1 2 3 4 5 6 
#
# 1 -0.037488 0.044779 -0.002065 0.000000 0.000000 0.000000
# 2 0.044779 -0.037489 -0.002064 0.000000 0.000000 0.000000
# 3 -0.002065 -0.002064 0.008568 0.000000 0.000000 0.000000
# 4 0.000000 0.000000 0.000000 0.034441 0.000000 0.000000
# 5 0.000000 0.000000 0.000000 0.000000 0.034441 0.000000
# 6 0.000000 0.000000 0.000000 0.000000 0.000000 -0.114086
#
#
# Mechanical properties :
#
#
# Convention : Reuss Voigt Hill
#
# Bulk Modulus (GPa) = 67.15191 67.32360 67.23775
# Shear Modulus (GPa) = -26.60275 17.84763 -4.37756
#
# Velocity S-wave (km/s) = -3.38992 2.77662 -1.37512
# Velocity P-wave (km/s) = 3.69938 6.27384 5.15007
#
# Compressibility (1/GPa) = 0.01489161
#
# Stress axis : x y z
#
# Youngs Moduli (GPa) = -26.67489 -26.67483 116.71659
#
# Poissons Ratio (x) = 1.19449 0.24097
# Poissons Ratio (y) = 1.19449 0.24096
# Poissons Ratio (z) = -0.05507 -0.05507
#
# Static dielectric constant tensor:
#      x y z
#    x 4.176620 0.000000 0.000000 
#    y 0.000000 4.176630 0.000000 
#    z 0.000000 0.000000 4.181640 
# 
# 
# High freq. dielectric constant tensor:
#      x y z
#    x 1.917000 0.000000 0.000000 
#    y 0.000000 1.917000 0.000000 
#    z 0.000000 0.000000 1.920560 
# 
# From -- ./inp_files/21584.got.cif
#   From: 2010.03.12/outbox.cif.g09.slc.cpg/sg91_11_cif.got.tgz:21584.got - 2010.04.08 20:27:58.
