data_PCOD8305302
_publ_section_title
;
Structure prediction by ZEFSAII (Michael W. Deem and Ramdas Pophale) SiO2 
 PCOD8305302
Probable space group: P 41 21 2
;
_chemical_formula_sum "Si O2"
_cell_formula_units_Z 32
_cell_length_a 18.419572
_cell_length_b 18.419572
_cell_length_c 4.943564
_cell_angle_alpha 90.000000
_cell_angle_beta 90.000000
_cell_angle_gamma 90.000000
_cell_volume 1677.255522
_symmetry_space_group_name_H-M "P 41 21 2"
_symmetry_group_IT_number 92
_symmetry_cell_setting 'tetragonal'
loop_
_space_group_symop_operation_xyz
x,y,z
1/2-y,1/2+x,1/4+z
-x,-y,1/2+z
1/2+y,1/2-x,3/4+z
1/2+x,1/2-y,3/4-z
1/2-x,1/2+y,1/4-z
y,x,-z
-y,-x,1/2-z
loop_
_atom_site_type_symbol
_atom_site_label
_atom_site_fract_x
_atom_site_fract_y
_atom_site_fract_z
Si Si1 0.000676 0.302010 0.168751
Si Si2 0.608761 0.992914 0.838689
Si Si3 0.776878 0.660229 0.975443
Si Si4 0.152584 0.268449 0.979423
O O1 0.035765 0.331915 0.447506
O O2 0.926325 0.260205 0.247581
O O3 0.066165 0.256163 0.029627
O O4 0.976568 0.361715 0.945198
O O5 0.555822 0.927957 0.764664
O O6 0.811062 0.676167 0.686274
O O7 0.698893 0.698893 0.000000
O O8 0.833727 0.691989 0.194223
O O9 0.189142 0.189142 0.000000
#
# Coordination Sequence:
#
# PCOD8305302 Si02
#       4
#     8   8   8   8
#     4  12  21  34  54  74 101 138 176 210 254 302
#     4  12  23  32  46  74 109 138 166 202 250 312
#     4  10  21  36  53  76 105 136 173 214 255 304
#     4  10  21  36  53  76 105 136 173 214 255 304
#
# _framework density 19.078786999999998
#
# number of rings (size 3 to 8) (size 9 to 14) (size 15 to 20)
#    0.000    1.000    0.000   10.500    0.000    0.000 
#    0.000    0.000    0.000    0.000    0.000   14.000 
#    0.000    0.000    0.000    0.000    0.000    0.000 
#
# Total GULP energy -396587.812425 kJ/mol
# GULP energy per Si atom -12393.369138 kJ/mol
# Density = 1.903536 g / cm^3
# Si number density = 19.078787 Si / 1000 Ang^3
#
#
#
# Elastic Constant Matrix: (Units=GPa)
#
#
# Indices 1 2 3 4 5 6 
#
# 1 105.8473 52.5586 19.3440 0.0000 0.0000 0.0000
# 2 52.5586 105.8473 19.3440 0.0000 0.0000 0.0000
# 3 19.3440 19.3440 101.5337 0.0000 0.0000 0.0000
# 4 0.0000 0.0000 0.0000 25.4352 0.0000 0.0000
# 5 0.0000 0.0000 0.0000 0.0000 25.4352 0.0000
# 6 0.0000 0.0000 0.0000 0.0000 0.0000 21.1163
#
#
#
# Elastic Compliance Matrix: (Units=1/GPa)
#
#
# Indices 1 2 3 4 5 6 
#
# 1 0.012693 -0.006072 -0.001261 0.000000 0.000000 0.000000
# 2 -0.006072 0.012693 -0.001261 0.000000 0.000000 0.000000
# 3 -0.001261 -0.001261 0.010330 0.000000 0.000000 0.000000
# 4 0.000000 0.000000 0.000000 0.039316 0.000000 0.000000
# 5 0.000000 0.000000 0.000000 0.000000 0.039316 0.000000
# 6 0.000000 0.000000 0.000000 0.000000 0.000000 0.047357
#
#
# Mechanical properties :
#
#
# Convention : Reuss Voigt Hill
#
# Bulk Modulus (GPa) = 53.97852 55.08015 54.52934
# Shear Modulus (GPa) = 27.01681 29.19612 28.10647
#
# Velocity S-wave (km/s) = 3.76715 3.91614 3.84237
# Velocity P-wave (km/s) = 6.87573 7.02714 6.95185
#
# Compressibility (1/GPa) = 0.01852589
#
# Stress axis : x y z
#
# Youngs Moduli (GPa) = 78.78148 78.78148 96.80929
#
# Poissons Ratio (x) = 0.47839 0.12212
# Poissons Ratio (y) = 0.47839 0.12212
# Poissons Ratio (z) = 0.09938 0.09938
#
# Static dielectric constant tensor:
#      x y z
#    x 3.421020 0.000000 0.000000 
#    y 0.000000 3.421020 0.000000 
#    z 0.000000 0.000000 3.906070 
# 
# 
# High freq. dielectric constant tensor:
#      x y z
#    x 1.713320 0.000000 0.000000 
#    y 0.000000 1.713320 0.000000 
#    z 0.000000 0.000000 1.779660 
# 
# From -- ./inp_files/341.got.cif
#   From: 2010.03.12/outbox.cif.g09.slc.cpg/sg92_1_cif.got.tgz:341.got - 2010.04.08 20:41:11.
