data_PCOD8305821
_publ_section_title
;
Structure prediction by ZEFSAII (Michael W. Deem and Ramdas Pophale) SiO2 
 PCOD8305821
Probable space group: P 43 2 2
;
_chemical_formula_sum "Si O2"
_cell_formula_units_Z 44
_cell_length_a 15.130587
_cell_length_b 15.130587
_cell_length_c 10.398505
_cell_angle_alpha 90.000000
_cell_angle_beta 90.000000
_cell_angle_gamma 90.000000
_cell_volume 2380.578238
_symmetry_space_group_name_H-M "P 43 2 2"
_symmetry_group_IT_number 95
_symmetry_cell_setting 'tetragonal'
loop_
_space_group_symop_operation_xyz
x,y,z
-y,x,3/4+z
-x,-y,1/2+z
y,-x,1/4+z
x,-y,1/2-z
-x,y,-z
y,x,1/4-z
-y,-x,3/4-z
loop_
_atom_site_type_symbol
_atom_site_label
_atom_site_fract_x
_atom_site_fract_y
_atom_site_fract_z
Si Si1 0.872484 0.546417 0.378338
Si Si2 0.841580 0.904696 0.759535
Si Si3 0.327589 0.021296 0.018236
Si Si4 0.316210 0.194269 0.193365
Si Si5 0.414458 0.000000 0.750000
Si Si6 0.842892 0.011449 0.385295
O O1 0.831463 0.500000 0.250000
O O2 0.797573 0.597736 0.463479
O O3 0.950682 0.614473 0.344220
O O4 0.913746 0.471426 0.466751
O O5 0.886010 0.886010 0.625000
O O6 0.765705 0.832175 0.786487
O O7 0.922456 0.903408 0.860021
O O8 0.794102 0.000000 0.750000
O O9 0.360699 0.033280 0.873123
O O10 0.226574 0.984213 0.004132
O O11 0.330199 0.116282 0.088150
O O12 0.287941 0.287941 0.125000
O O13 0.901878 0.098123 0.375000
O O14 0.790588 0.000000 0.250000
#
# Coordination Sequence:
#
# PCOD8305821 Si02
#       6
#     8   8   8   8   4   8
#     4  10  21  36  58  77 100 140 199 253 295 348
#     4  11  20  31  45  64  95 147 201 241 274 318
#     4  11  20  35  52  77 104 141 202 248 290 339
#     4  11  21  33  56  77 105 140 191 252 299 345
#     4  10  20  36  56  76 100 138 200 250 288 342
#     4  12  24  33  44  67 106 150 194 243 284 328
#
# _framework density 18.482904999999999
#
# number of rings (size 3 to 8) (size 9 to 14) (size 15 to 20)
#    0.000    1.091    6.364    3.273    2.545    0.000 
#    0.000    0.000    0.000    0.000    0.000    0.000 
#    0.000    0.000    0.000    0.000   27.636    8.364 
#
# Total GULP energy -545096.869719 kJ/mol
# GULP energy per Si atom -12388.565221 kJ/mol
# Density = 1.844084 g / cm^3
# Si number density = 18.482905 Si / 1000 Ang^3
#
#
#
# Elastic Constant Matrix: (Units=GPa)
#
#
# Indices 1 2 3 4 5 6 
#
# 1 73.3280 20.7314 26.9721 0.0000 0.0000 0.0000
# 2 20.7314 73.3272 26.9719 0.0000 0.0000 0.0000
# 3 26.9721 26.9719 78.6583 0.0000 0.0000 0.0000
# 4 0.0000 0.0000 0.0000 26.9844 0.0000 0.0000
# 5 0.0000 0.0000 0.0000 0.0000 26.9847 0.0000
# 6 0.0000 0.0000 0.0000 0.0000 0.0000 16.8203
#
#
#
# Elastic Compliance Matrix: (Units=1/GPa)
#
#
# Indices 1 2 3 4 5 6 
#
# 1 0.016123 -0.002889 -0.004538 0.000000 0.000000 0.000000
# 2 -0.002889 0.016124 -0.004538 0.000000 0.000000 0.000000
# 3 -0.004538 -0.004538 0.015825 0.000000 0.000000 0.000000
# 4 0.000000 0.000000 0.000000 0.037058 0.000000 0.000000
# 5 0.000000 0.000000 0.000000 0.000000 0.037058 0.000000
# 6 0.000000 0.000000 0.000000 0.000000 0.000000 0.059452
#
#
# Mechanical properties :
#
#
# Convention : Reuss Voigt Hill
#
# Bulk Modulus (GPa) = 41.42202 41.62939 41.52570
# Shear Modulus (GPa) = 23.40617 24.20041 23.80329
#
# Velocity S-wave (km/s) = 3.56247 3.62241 3.59256
# Velocity P-wave (km/s) = 6.27545 6.32992 6.30274
#
# Compressibility (1/GPa) = 0.02414175
#
# Stress axis : x y z
#
# Youngs Moduli (GPa) = 62.02150 62.02092 63.18952
#
# Poissons Ratio (x) = 0.17920 0.28676
# Poissons Ratio (y) = 0.17920 0.28676
# Poissons Ratio (z) = 0.28146 0.28145
#
# Static dielectric constant tensor:
#      x y z
#    x 3.418210 0.000000 0.000000 
#    y 0.000000 3.418210 0.000000 
#    z 0.000000 0.000000 3.881480 
# 
# 
# High freq. dielectric constant tensor:
#      x y z
#    x 1.679690 0.000000 0.000000 
#    y 0.000000 1.679690 0.000000 
#    z 0.000000 0.000000 1.749210 
# 
# From -- ./inp_files/3759.got.cif
#   From: 2010.03.12/outbox.cif.g09.slc.cpg/sg95_2_cif.got.tgz:3759.got - 2010.04.08 20:51:55.
