data_PCOD8305942
_publ_section_title
;
Structure prediction by ZEFSAII (Michael W. Deem and Ramdas Pophale) SiO2 
 PCOD8305942
Probable space group: P 43 21 2
;
_chemical_formula_sum "Si O2"
_cell_formula_units_Z 48
_cell_length_a 11.253766
_cell_length_b 11.253766
_cell_length_c 18.701793
_cell_angle_alpha 90.000000
_cell_angle_beta 90.000000
_cell_angle_gamma 90.000000
_cell_volume 2368.530638
_symmetry_space_group_name_H-M "P 43 21 2"
_symmetry_group_IT_number 96
_symmetry_cell_setting 'tetragonal'
loop_
_space_group_symop_operation_xyz
x,y,z
1/2-y,1/2+x,3/4+z
-x,-y,1/2+z
1/2+y,1/2-x,1/4+z
1/2+x,1/2-y,1/4-z
1/2-x,1/2+y,3/4-z
y,x,-z
-y,-x,1/2-z
loop_
_atom_site_type_symbol
_atom_site_label
_atom_site_fract_x
_atom_site_fract_y
_atom_site_fract_z
Si Si1 0.671058 0.135014 0.601572
Si Si2 0.371566 0.400418 0.114064
Si Si3 0.176279 0.991715 0.998603
Si Si4 0.307043 0.966012 0.253237
Si Si5 0.781404 0.867580 0.070600
Si Si6 0.028293 0.971708 0.250000
Si Si7 0.254589 0.745412 0.750000
O O1 0.795763 0.095287 0.565199
O O2 0.646394 0.056094 0.672402
O O3 0.570530 0.117645 0.540694
O O4 0.673765 0.273841 0.620626
O O5 0.423870 0.312023 0.173728
O O6 0.286017 0.500616 0.147760
O O7 0.477004 0.462262 0.069737
O O8 0.290171 0.313427 0.069019
O O9 0.267723 0.103150 0.004750
O O10 0.039896 0.039896 0.000000
O O11 0.328213 0.850801 0.301038
O O12 0.167991 0.997550 0.252405
O O13 0.863534 0.863534 0.000000
#
# Coordination Sequence:
#
# PCOD8305942 Si02
#       7
#     8   8   8   8   8   4   4
#     4  11  23  40  67  97 133 179 222 279 332 399
#     4  11  22  42  68  93 132 175 212 287 315 409
#     4  10  24  42  66  90 132 173 225 256 333 407
#     4  11  23  39  65  98 136 169 222 279 333 398
#     4  10  22  39  64 102 128 164 232 266 335 395
#     4  11  20  38  69  94 130 166 219 268 334 385
#     4   9  26  44  59 102 126 170 237 250 344 403
#
# _framework density 20.265729
#
# number of rings (size 3 to 8) (size 9 to 14) (size 15 to 20)
#    0.500    1.000    4.167    1.500    2.333    4.000 
#    0.000    0.000    0.000    0.000    0.000    0.000 
#    0.000    0.000    0.000    0.000    0.000    0.000 
#
# Total GULP energy -595075.607690 kJ/mol
# GULP energy per Si atom -12397.408494 kJ/mol
# Density = 2.021960 g / cm^3
# Si number density = 20.265729 Si / 1000 Ang^3
#
#
#
# Elastic Constant Matrix: (Units=GPa)
#
#
# Indices 1 2 3 4 5 6 
#
# 1 63.2172 48.5716 48.1034 0.0000 0.0000 0.0000
# 2 48.5716 63.2156 48.1031 0.0000 0.0000 0.0000
# 3 48.1034 48.1031 138.0583 0.0000 0.0000 0.0000
# 4 0.0000 0.0000 0.0000 29.3424 0.0000 0.0000
# 5 0.0000 0.0000 0.0000 0.0000 29.3429 0.0000
# 6 0.0000 0.0000 0.0000 0.0000 0.0000 31.8770
#
#
#
# Elastic Compliance Matrix: (Units=1/GPa)
#
#
# Indices 1 2 3 4 5 6 
#
# 1 0.040530 -0.027753 -0.004452 0.000000 0.000000 0.000000
# 2 -0.027753 0.040531 -0.004452 0.000000 0.000000 0.000000
# 3 -0.004452 -0.004452 0.010346 0.000000 0.000000 0.000000
# 4 0.000000 0.000000 0.000000 0.034080 0.000000 0.000000
# 5 0.000000 0.000000 0.000000 0.000000 0.034080 0.000000
# 6 0.000000 0.000000 0.000000 0.000000 0.000000 0.031371
#
#
# Mechanical properties :
#
#
# Convention : Reuss Voigt Hill
#
# Bulk Modulus (GPa) = 55.27307 61.56081 58.41694
# Shear Modulus (GPa) = 18.49923 26.09332 22.29628
#
# Velocity S-wave (km/s) = 3.02459 3.59215 3.32052
# Velocity P-wave (km/s) = 6.28736 6.90272 6.60221
#
# Compressibility (1/GPa) = 0.01809199
#
# Stress axis : x y z
#
# Youngs Moduli (GPa) = 24.67331 24.67255 96.65994
#
# Poissons Ratio (x) = 0.68475 0.43029
# Poissons Ratio (y) = 0.68477 0.43032
# Poissons Ratio (z) = 0.10984 0.10984
#
# Static dielectric constant tensor:
#      x y z
#    x 3.529700 0.000000 0.000000 
#    y 0.000000 3.529720 0.000000 
#    z 0.000000 0.000000 3.883210 
# 
# 
# High freq. dielectric constant tensor:
#      x y z
#    x 1.782120 0.000000 0.000000 
#    y 0.000000 1.782130 0.000000 
#    z 0.000000 0.000000 1.807230 
# 
# From -- ./inp_files/3179.got.cif
#   From: 2010.03.12/outbox.cif.g09.slc.cpg/sg96_2_cif.got.tgz:3179.got - 2010.04.08 20:56:49.
