data_PCOD8305559
_publ_section_title
;
Structure prediction by ZEFSAII (Michael W. Deem and Ramdas Pophale) SiO2 
 PCOD8305559
Probable space group: P 42 2 2
;
_chemical_formula_sum "Si O2"
_cell_formula_units_Z 38
_cell_length_a 11.571941
_cell_length_b 11.571941
_cell_length_c 14.292185
_cell_angle_alpha 90.000000
_cell_angle_beta 90.000000
_cell_angle_gamma 90.000000
_cell_volume 1913.863899
_symmetry_space_group_name_H-M "P 42 2 2"
_symmetry_group_IT_number 93
_symmetry_cell_setting 'tetragonal'
loop_
_space_group_symop_operation_xyz
x,y,z
-y,x,1/2+z
-x,-y,z
y,-x,1/2+z
x,-y,-z
-x,y,-z
y,x,1/2-z
-y,-x,1/2-z
loop_
_atom_site_type_symbol
_atom_site_label
_atom_site_fract_x
_atom_site_fract_y
_atom_site_fract_z
Si Si1 0.000000 0.000000 0.750000
Si Si2 0.087959 0.399186 0.164139
Si Si3 0.880745 0.322438 0.633390
Si Si4 0.655647 0.389257 0.847014
Si Si5 0.500000 0.000000 0.000000
Si Si6 0.500000 0.500000 0.000000
Si Si7 0.845845 0.932368 0.407776
O O1 0.996842 0.887114 0.816392
O O2 0.058521 0.352113 0.268124
O O3 0.218432 0.450965 0.154349
O O4 0.074316 0.293040 0.092280
O O5 0.000000 0.500000 0.135750
O O6 0.745846 0.322897 0.650794
O O7 0.909181 0.193495 0.596146
O O8 0.916715 0.419140 0.559866
O O9 0.585786 0.414215 0.750000
O O10 0.581099 0.422188 0.936228
O O11 0.886892 0.000000 0.500000
#
# Coordination Sequence:
#
# PCOD8305559 Si02
#       7
#     2   8   8   8   2   2   8
#     4  12  22  40  60  82 128 158 196 248 308 370
#     4  10  20  42  64  86 123 162 199 249 308 358
#     4  10  21  40  57  90 124 161 200 250 305 355
#     4   9  21  38  61  84 122 160 196 250 310 353
#     4  12  22  32  66  90 118 164 218 246 288 382
#     4  12  20  36  62  88 116 160 204 250 292 364
#     4  11  24  39  64  90 122 164 202 250 309 366
#
# _framework density 19.855119999999999
#
# number of rings (size 3 to 8) (size 9 to 14) (size 15 to 20)
#    0.000    1.684    3.158    2.526    2.947    3.789 
#    0.000    0.000    4.632    0.000    0.000    0.000 
#    0.000    0.000    0.000    0.000    0.000    0.000 
#
# Total GULP energy -471084.955631 kJ/mol
# GULP energy per Si atom -12396.972517 kJ/mol
# Density = 1.980993 g / cm^3
# Si number density = 19.855120 Si / 1000 Ang^3
#
#
#
# Elastic Constant Matrix: (Units=GPa)
#
#
# Indices 1 2 3 4 5 6 
#
# 1 77.7130 49.4718 33.6315 0.0000 0.0000 0.0000
# 2 49.4718 77.7128 33.6315 0.0000 0.0000 0.0000
# 3 33.6315 33.6315 126.0599 0.0000 0.0000 0.0000
# 4 0.0000 0.0000 0.0000 31.5047 0.0000 0.0000
# 5 0.0000 0.0000 0.0000 0.0000 31.5050 0.0000
# 6 0.0000 0.0000 0.0000 0.0000 0.0000 32.3807
#
#
#
# Elastic Compliance Matrix: (Units=1/GPa)
#
#
# Indices 1 2 3 4 5 6 
#
# 1 0.022282 -0.013128 -0.002442 0.000000 0.000000 0.000000
# 2 -0.013128 0.022282 -0.002442 0.000000 0.000000 0.000000
# 3 -0.002442 -0.002442 0.009236 0.000000 0.000000 0.000000
# 4 0.000000 0.000000 0.000000 0.031741 0.000000 0.000000
# 5 0.000000 0.000000 0.000000 0.000000 0.031741 0.000000
# 6 0.000000 0.000000 0.000000 0.000000 0.000000 0.030883
#
#
# Mechanical properties :
#
#
# Convention : Reuss Voigt Hill
#
# Bulk Modulus (GPa) = 56.25792 57.21723 56.73758
# Shear Modulus (GPa) = 26.30006 30.06148 28.18077
#
# Velocity S-wave (km/s) = 3.64345 3.89529 3.77147
# Velocity P-wave (km/s) = 6.78936 7.00792 6.89951
#
# Compressibility (1/GPa) = 0.01777528
#
# Stress axis : x y z
#
# Youngs Moduli (GPa) = 44.87974 44.87961 108.27352
#
# Poissons Ratio (x) = 0.58916 0.26443
# Poissons Ratio (y) = 0.58916 0.26443
# Poissons Ratio (z) = 0.10961 0.10961
#
# Static dielectric constant tensor:
#      x y z
#    x 3.594430 0.000000 0.000000 
#    y 0.000000 3.594420 0.000000 
#    z 0.000000 0.000000 4.012190 
# 
# 
# High freq. dielectric constant tensor:
#      x y z
#    x 1.766090 0.000000 0.000000 
#    y 0.000000 1.766090 0.000000 
#    z 0.000000 0.000000 1.784220 
# 
# From -- ./inp_files/4434.got.cif
#   From: 2010.03.12/outbox.cif.g09.slc.cpg/sg93_3_cif.got.tgz:4434.got - 2010.04.08 20:44:19.
