data_PCOD8305087
_publ_section_title
;
Structure prediction by ZEFSAII (Michael W. Deem and Ramdas Pophale) SiO2 
 PCOD8305087
Probable space group: P 41 2 2
;
_chemical_formula_sum "Si O2"
_cell_formula_units_Z 56
_cell_length_a 14.228871
_cell_length_b 14.228871
_cell_length_c 12.631629
_cell_angle_alpha 90.000000
_cell_angle_beta 90.000000
_cell_angle_gamma 90.000000
_cell_volume 2557.409333
_symmetry_space_group_name_H-M "P 41 2 2"
_symmetry_group_IT_number 91
_symmetry_cell_setting 'tetragonal'
loop_
_space_group_symop_operation_xyz
x,y,z
-y,x,1/4+z
-x,-y,1/2+z
y,-x,3/4+z
x,-y,1/2-z
-x,y,-z
y,x,3/4-z
-y,-x,1/4-z
loop_
_atom_site_type_symbol
_atom_site_label
_atom_site_fract_x
_atom_site_fract_y
_atom_site_fract_z
Si Si1 0.724874 0.874106 0.488541
Si Si2 0.339339 0.508291 0.627824
Si Si3 0.732400 0.827494 0.132255
Si Si4 0.140041 0.004096 0.629961
Si Si5 0.704918 0.336947 0.508234
Si Si6 0.387284 0.091389 0.192613
Si Si7 0.409593 0.847450 0.701514
O O1 0.756434 0.771270 0.527386
O O2 0.661345 0.918489 0.579408
O O3 0.665425 0.873398 0.384559
O O4 0.817548 0.932369 0.456699
O O5 0.304395 0.500000 0.750000
O O6 0.439103 0.560898 0.625000
O O7 0.351027 0.406625 0.571761
O O8 0.262694 0.564534 0.559110
O O9 0.820203 0.893789 0.093896
O O10 0.639265 0.873299 0.185232
O O11 0.695307 0.770049 0.031502
O O12 0.178531 0.000000 0.750000
O O13 0.027341 0.972660 0.625000
O O14 0.659145 0.340856 0.625000
O O15 0.815552 0.361147 0.508638
O O16 0.499790 0.088016 0.182573
O O17 0.348740 0.000000 0.250000
#
# Coordination Sequence:
#
# PCOD8305087 Si02
#       7
#     8   8   8   8   8   8   8
#     4  11  21  39  64  90 130 172 222 285 349 418
#     4  11  22  40  68 102 136 180 238 291 348 425
#     4  11  23  41  69  92 131 183 223 290 361 420
#     4  12  23  41  64 102 133 168 235 295 352 424
#     4  10  24  46  67  96 142 191 236 286 369 437
#     4  10  24  40  60  95 136 178 229 282 343 438
#     4  11  20  38  65  97 128 168 228 284 350 416
#
# _framework density 21.89716
#
# number of rings (size 3 to 8) (size 9 to 14) (size 15 to 20)
#    0.000    1.143    2.857    5.143    4.000    0.571 
#    0.000    9.286    0.000    0.000    0.000    0.000 
#    0.000    0.000    0.000    0.000    0.000    0.000 
#
# Total GULP energy -693855.916606 kJ/mol
# GULP energy per Si atom -12390.284225 kJ/mol
# Density = 2.184732 g / cm^3
# Si number density = 21.897160 Si / 1000 Ang^3
#
#
#
# Elastic Constant Matrix: (Units=GPa)
#
#
# Indices 1 2 3 4 5 6 
#
# 1 90.3096 22.6977 33.7470 0.0000 0.0000 0.0000
# 2 22.6977 90.3092 33.7466 0.0000 0.0000 0.0000
# 3 33.7470 33.7466 99.8063 0.0000 0.0000 0.0000
# 4 0.0000 0.0000 0.0000 39.8423 0.0000 0.0000
# 5 0.0000 0.0000 0.0000 0.0000 39.8416 0.0000
# 6 0.0000 0.0000 0.0000 0.0000 0.0000 36.8314
#
#
#
# Elastic Compliance Matrix: (Units=1/GPa)
#
#
# Indices 1 2 3 4 5 6 
#
# 1 0.012939 -0.001851 -0.003749 0.000000 0.000000 0.000000
# 2 -0.001851 0.012939 -0.003749 0.000000 0.000000 0.000000
# 3 -0.003749 -0.003749 0.012555 0.000000 0.000000 0.000000
# 4 0.000000 0.000000 0.000000 0.025099 0.000000 0.000000
# 5 0.000000 0.000000 0.000000 0.000000 0.025099 0.000000
# 6 0.000000 0.000000 0.000000 0.000000 0.000000 0.027151
#
#
# Mechanical properties :
#
#
# Convention : Reuss Voigt Hill
#
# Bulk Modulus (GPa) = 50.67276 51.20087 50.93681
# Shear Modulus (GPa) = 35.44606 35.98531 35.71568
#
# Velocity S-wave (km/s) = 4.02774 4.05826 4.04303
# Velocity P-wave (km/s) = 6.69490 6.73739 6.71618
#
# Compressibility (1/GPa) = 0.01973447
#
# Stress axis : x y z
#
# Youngs Moduli (GPa) = 77.28417 77.28407 79.65096
#
# Poissons Ratio (x) = 0.14306 0.29863
# Poissons Ratio (y) = 0.14306 0.29862
# Poissons Ratio (z) = 0.28975 0.28975
#
# Static dielectric constant tensor:
#      x y z
#    x 3.902700 0.000000 0.000000 
#    y 0.000000 3.902700 0.000000 
#    z 0.000000 0.000000 3.986950 
# 
# 
# High freq. dielectric constant tensor:
#      x y z
#    x 1.854340 0.000000 0.000000 
#    y 0.000000 1.854340 0.000000 
#    z 0.000000 0.000000 1.852360 
# 
# From -- ./inp_files/3910.got.cif
#   From: 2010.03.12/outbox.cif.g09.slc.cpg/sg91_2_cif.got.tgz:3910.got - 2010.04.08 20:27:58.
