data_PCOD8305179
_publ_section_title
;
Structure prediction by ZEFSAII (Michael W. Deem and Ramdas Pophale) SiO2 
 PCOD8305179
Probable space group: P 41 2 2
;
_chemical_formula_sum "Si O2"
_cell_formula_units_Z 40
_cell_length_a 11.273985
_cell_length_b 11.273985
_cell_length_c 13.470238
_cell_angle_alpha 90.000000
_cell_angle_beta 90.000000
_cell_angle_gamma 90.000000
_cell_volume 1712.104128
_symmetry_space_group_name_H-M "P 41 2 2"
_symmetry_group_IT_number 91
_symmetry_cell_setting 'tetragonal'
loop_
_space_group_symop_operation_xyz
x,y,z
-y,x,1/4+z
-x,-y,1/2+z
y,-x,3/4+z
x,-y,1/2-z
-x,y,-z
y,x,3/4-z
-y,-x,1/4-z
loop_
_atom_site_type_symbol
_atom_site_label
_atom_site_fract_x
_atom_site_fract_y
_atom_site_fract_z
Si Si1 0.720601 0.000000 0.250000
Si Si2 0.855882 0.144119 0.125000
Si Si3 0.500000 0.075821 0.500000
Si Si4 0.940073 0.718512 0.201404
Si Si5 0.213714 0.435233 0.069210
Si Si6 0.751916 0.344708 0.447410
Si Si7 0.822932 0.822932 0.875000
O O1 0.813359 0.012024 0.156001
O O2 0.641166 0.116601 0.259588
O O3 0.839889 0.217053 0.229038
O O4 0.479629 0.152495 0.400965
O O5 0.381493 0.000973 0.519746
O O6 0.872906 0.648639 0.114713
O O7 0.037098 0.805760 0.150068
O O8 0.311232 0.356502 0.125173
O O9 0.275871 0.525064 0.992030
O O10 0.771957 0.245749 0.530299
#
# Coordination Sequence:
#
# PCOD8305179 Si02
#       7
#     4   4   4   8   8   8   4
#     4  12  24  48  70 108 154 204 258 324 392 472
#     4  12  26  45  68 105 160 198 252 310 393 458
#     4  12  22  44  74 102 142 198 256 312 380 456
#     4  12  26  44  72 110 154 206 257 318 384 487
#     4  12  24  45  76 112 149 202 256 327 386 469
#     4  12  25  47  77 111 155 198 266 320 390 467
#     4  12  24  45  68 115 152 198 256 320 393 468
#
# _framework density 23.363064000000001
#
# number of rings (size 3 to 8) (size 9 to 14) (size 15 to 20)
#    0.000    0.000    8.000    1.800    0.000    0.800 
#    0.000    0.000    0.000   16.800    0.000    0.000 
#    0.000    0.000    0.000    0.000    0.000    0.000 
#
# Total GULP energy -495608.749640 kJ/mol
# GULP energy per Si atom -12390.218741 kJ/mol
# Density = 2.330989 g / cm^3
# Si number density = 23.363064 Si / 1000 Ang^3
#
#
#
# Elastic Constant Matrix: (Units=GPa)
#
#
# Indices 1 2 3 4 5 6 
#
# 1 118.8541 74.9151 58.1898 0.0000 0.0000 0.0000
# 2 74.9151 118.8539 58.1899 0.0000 0.0000 0.0000
# 3 58.1898 58.1899 112.2616 0.0000 0.0000 0.0000
# 4 0.0000 0.0000 0.0000 49.0287 0.0000 0.0000
# 5 0.0000 0.0000 0.0000 0.0000 49.0285 0.0000
# 6 0.0000 0.0000 0.0000 0.0000 0.0000 32.9976
#
#
#
# Elastic Compliance Matrix: (Units=1/GPa)
#
#
# Indices 1 2 3 4 5 6 
#
# 1 0.015126 -0.007633 -0.003884 0.000000 0.000000 0.000000
# 2 -0.007633 0.015126 -0.003884 0.000000 0.000000 0.000000
# 3 -0.003884 -0.003884 0.012935 0.000000 0.000000 0.000000
# 4 0.000000 0.000000 0.000000 0.020396 0.000000 0.000000
# 5 0.000000 0.000000 0.000000 0.000000 0.020396 0.000000
# 6 0.000000 0.000000 0.000000 0.000000 0.000000 0.030305
#
#
# Mechanical properties :
#
#
# Convention : Reuss Voigt Hill
#
# Bulk Modulus (GPa) = 80.74423 81.39547 81.06985
# Shear Modulus (GPa) = 33.50856 36.78929 35.14892
#
# Velocity S-wave (km/s) = 3.79126 3.97253 3.88295
# Velocity P-wave (km/s) = 7.33489 7.48039 7.40800
#
# Compressibility (1/GPa) = 0.01238479
#
# Stress axis : x y z
#
# Youngs Moduli (GPa) = 66.11011 66.10986 77.31217
#
# Poissons Ratio (x) = 0.50459 0.30030
# Poissons Ratio (y) = 0.50459 0.30031
# Poissons Ratio (z) = 0.25679 0.25679
#
# Static dielectric constant tensor:
#      x y z
#    x 4.058380 0.000000 0.000000 
#    y 0.000000 4.058390 0.000000 
#    z 0.000000 0.000000 4.479770 
# 
# 
# High freq. dielectric constant tensor:
#      x y z
#    x 1.913310 0.000000 0.000000 
#    y 0.000000 1.913310 0.000000 
#    z 0.000000 0.000000 1.948490 
# 
# From -- ./inp_files/11428.got.cif
#   From: 2010.03.12/outbox.cif.g09.slc.cpg/sg91_6_cif.got.tgz:11428.got - 2010.04.08 20:27:58.
