data_PCOD8305440
_publ_section_title
;
Structure prediction by ZEFSAII (Michael W. Deem and Ramdas Pophale) SiO2 
 PCOD8305440
Probable space group: P 41 21 2
;
_chemical_formula_sum "Si O2"
_cell_formula_units_Z 48
_cell_length_a 9.538734
_cell_length_b 9.538734
_cell_length_c 25.374037
_cell_angle_alpha 90.000000
_cell_angle_beta 90.000000
_cell_angle_gamma 90.000000
_cell_volume 2308.718830
_symmetry_space_group_name_H-M "P 41 21 2"
_symmetry_group_IT_number 92
_symmetry_cell_setting 'tetragonal'
loop_
_space_group_symop_operation_xyz
x,y,z
1/2-y,1/2+x,1/4+z
-x,-y,1/2+z
1/2+y,1/2-x,3/4+z
1/2+x,1/2-y,3/4-z
1/2-x,1/2+y,1/4-z
y,x,-z
-y,-x,1/2-z
loop_
_atom_site_type_symbol
_atom_site_label
_atom_site_fract_x
_atom_site_fract_y
_atom_site_fract_z
Si Si1 0.562395 0.704742 0.080275
Si Si2 0.736611 0.454388 0.807435
Si Si3 0.228236 0.609984 0.822593
Si Si4 0.158445 0.557352 0.523600
Si Si5 0.466538 0.533463 0.750000
Si Si6 0.687159 0.687159 0.500000
Si Si7 0.371318 0.563122 0.928866
O O1 0.493370 0.770549 0.132418
O O2 0.722879 0.752322 0.075282
O O3 0.534013 0.537893 0.078751
O O4 0.489818 0.776659 0.030944
O O5 0.578689 0.504887 0.795998
O O6 0.774965 0.292419 0.797924
O O7 0.833195 0.534355 0.764776
O O8 0.065511 0.589917 0.809199
O O9 0.314311 0.529169 0.777121
O O10 0.277182 0.539253 0.877034
O O11 0.275455 0.643240 0.555603
O O12 0.697031 0.533238 0.474262
#
# Coordination Sequence:
#
# PCOD8305440 Si02
#       7
#     8   8   8   8   4   4   8
#     4  11  21  42  68  95 130 170 217 268 326 389
#     4  11  26  42  63  95 137 167 215 271 326 390
#     4  11  21  39  72  98 121 170 223 260 328 388
#     4  11  23  41  67 101 124 166 219 278 313 386
#     4  11  22  43  64  94 132 171 206 271 326 386
#     4  11  26  47  60  94 136 177 214 263 338 398
#     4  11  21  42  70  91 130 174 213 268 328 382
#
# _framework density 20.790751
#
# number of rings (size 3 to 8) (size 9 to 14) (size 15 to 20)
#    0.000    1.000    6.667    1.000    0.000    4.000 
#    3.000    0.000    0.000    0.000    0.000    0.000 
#    0.000    0.000    0.000    0.000    0.000    0.000 
#
# Total GULP energy -594896.889521 kJ/mol
# GULP energy per Si atom -12393.685198 kJ/mol
# Density = 2.074343 g / cm^3
# Si number density = 20.790751 Si / 1000 Ang^3
#
#
#
# Elastic Constant Matrix: (Units=GPa)
#
#
# Indices 1 2 3 4 5 6 
#
# 1 49.9755 60.2383 15.0880 0.0000 0.0000 0.0000
# 2 60.2383 49.9765 15.0887 0.0000 0.0000 0.0000
# 3 15.0880 15.0887 88.7829 0.0000 0.0000 0.0000
# 4 0.0000 0.0000 0.0000 27.3178 0.0000 0.0000
# 5 0.0000 0.0000 0.0000 0.0000 27.3175 0.0000
# 6 0.0000 0.0000 0.0000 0.0000 0.0000 31.6033
#
#
#
# Elastic Compliance Matrix: (Units=1/GPa)
#
#
# Indices 1 2 3 4 5 6 
#
# 1 -0.043964 0.053480 -0.001618 0.000000 0.000000 0.000000
# 2 0.053480 -0.043964 -0.001617 0.000000 0.000000 0.000000
# 3 -0.001618 -0.001617 0.011813 0.000000 0.000000 0.000000
# 4 0.000000 0.000000 0.000000 0.036606 0.000000 0.000000
# 5 0.000000 0.000000 0.000000 0.000000 0.036607 0.000000
# 6 0.000000 0.000000 0.000000 0.000000 0.000000 0.031642
#
#
# Mechanical properties :
#
#
# Convention : Reuss Voigt Hill
#
# Bulk Modulus (GPa) = 41.02345 41.06276 41.04310
# Shear Modulus (GPa) = -78.58422 23.80238 -27.39092
#
# Velocity S-wave (km/s) = -6.15465 3.38724 -3.63362
# Velocity P-wave (km/s) = 5.54364 5.92379 1.47637
#
# Compressibility (1/GPa) = 0.02437630
#
# Stress axis : x y z
#
# Youngs Moduli (GPa) = -22.74565 -22.74602 84.65170
#
# Poissons Ratio (x) = 1.21646 0.13693
# Poissons Ratio (y) = 1.21644 0.13687
# Poissons Ratio (z) = -0.03679 -0.03678
#
# Static dielectric constant tensor:
#      x y z
#    x 3.732490 0.000000 0.000000 
#    y 0.000000 3.732490 0.000000 
#    z 0.000000 0.000000 3.809090 
# 
# 
# High freq. dielectric constant tensor:
#      x y z
#    x 1.807640 0.000000 0.000000 
#    y 0.000000 1.807640 0.000000 
#    z 0.000000 0.000000 1.820750 
# 
# From -- ./inp_files/4580.got.cif
#   From: 2010.03.12/outbox.cif.g09.slc.cpg/sg92_3_cif.got.tgz:4580.got - 2010.04.08 20:41:11.
