data_PCOD8305893
_publ_section_title
;
Structure prediction by ZEFSAII (Michael W. Deem and Ramdas Pophale) SiO2 
 PCOD8305893
Probable space group: P 43 21 2
;
_chemical_formula_sum "Si O2"
_cell_formula_units_Z 40
_cell_length_a 16.137777
_cell_length_b 16.137777
_cell_length_c 7.598549
_cell_angle_alpha 90.000000
_cell_angle_beta 90.000000
_cell_angle_gamma 90.000000
_cell_volume 1978.873753
_symmetry_space_group_name_H-M "P 43 21 2"
_symmetry_group_IT_number 96
_symmetry_cell_setting 'tetragonal'
loop_
_space_group_symop_operation_xyz
x,y,z
1/2-y,1/2+x,3/4+z
-x,-y,1/2+z
1/2+y,1/2-x,1/4+z
1/2+x,1/2-y,1/4-z
1/2-x,1/2+y,3/4-z
y,x,-z
-y,-x,1/2-z
loop_
_atom_site_type_symbol
_atom_site_label
_atom_site_fract_x
_atom_site_fract_y
_atom_site_fract_z
Si Si1 0.064664 0.700450 0.564678
Si Si2 0.336562 0.314106 0.707456
Si Si3 0.821318 0.787687 0.803821
Si Si4 0.572662 0.204571 0.478839
Si Si5 0.249013 0.000142 0.590494
O O1 0.113907 0.786878 0.556344
O O2 0.121003 0.624488 0.509495
O O3 0.036120 0.687202 0.766108
O O4 0.987285 0.703968 0.435267
O O5 0.333545 0.333545 0.500000
O O6 0.297257 0.223421 0.762986
O O7 0.430721 0.317571 0.779859
O O8 0.785075 0.867951 0.701842
O O9 0.921063 0.791766 0.807271
O O10 0.788785 0.788785 0.000000
O O11 0.525438 0.203473 0.664326
#
# Coordination Sequence:
#
# PCOD8305893 Si02
#       5
#     8   8   8   8   8
#     4  11  24  40  65  98 122 175 215 258 328 392
#     4  10  19  40  66  89 126 169 210 263 321 385
#     4   8  19  38  65  89 119 167 209 253 324 381
#     4  10  23  43  62  92 133 167 214 262 324 384
#     4  11  22  38  70  92 123 161 221 267 310 392
#
# _framework density 20.213519000000002
#
# number of rings (size 3 to 8) (size 9 to 14) (size 15 to 20)
#    0.000    2.000    2.000    1.800    2.800    0.800 
#    3.600    0.000   26.400    0.000    0.000    0.000 
#    0.000    0.000    0.000    0.000    0.000    0.000 
#
# Total GULP energy -495687.523462 kJ/mol
# GULP energy per Si atom -12392.188087 kJ/mol
# Density = 2.016751 g / cm^3
# Si number density = 20.213519 Si / 1000 Ang^3
#
#
#
# Elastic Constant Matrix: (Units=GPa)
#
#
# Indices 1 2 3 4 5 6 
#
# 1 97.7587 43.2822 32.8524 0.0000 0.0000 0.0000
# 2 43.2822 97.7587 32.8524 0.0000 0.0000 0.0000
# 3 32.8524 32.8524 110.9084 0.0000 0.0000 0.0000
# 4 0.0000 0.0000 0.0000 -3.1408 0.0000 0.0000
# 5 0.0000 0.0000 0.0000 0.0000 -3.1408 0.0000
# 6 0.0000 0.0000 0.0000 0.0000 0.0000 13.4349
#
#
#
# Elastic Compliance Matrix: (Units=1/GPa)
#
#
# Indices 1 2 3 4 5 6 
#
# 1 0.013291 -0.005066 -0.002436 0.000000 0.000000 0.000000
# 2 -0.005066 0.013291 -0.002436 0.000000 0.000000 0.000000
# 3 -0.002436 -0.002436 0.010460 0.000000 0.000000 0.000000
# 4 0.000000 0.000000 0.000000 -0.318387 0.000000 0.000000
# 5 0.000000 0.000000 0.000000 0.000000 -0.318387 0.000000
# 6 0.000000 0.000000 0.000000 0.000000 0.000000 0.074433
#
#
# Mechanical properties :
#
#
# Convention : Reuss Voigt Hill
#
# Bulk Modulus (GPa) = 58.25953 58.26663 58.26308
# Shear Modulus (GPa) = -10.00598 14.59323 2.29362
#
# Velocity S-wave (km/s) = -2.22731 2.68984 1.06638
# Velocity P-wave (km/s) = 4.71912 6.20767 5.51386
#
# Compressibility (1/GPa) = 0.01716457
#
# Stress axis : x y z
#
# Youngs Moduli (GPa) = 75.23973 75.23973 95.60392
#
# Poissons Ratio (x) = 0.38114 0.23293
# Poissons Ratio (y) = 0.38114 0.23293
# Poissons Ratio (z) = 0.18331 0.18331
#
# Static dielectric constant tensor:
#      x y z
#    x 3.961910 0.000000 0.000000 
#    y 0.000000 3.961910 0.000000 
#    z 0.000000 0.000000 3.796580 
# 
# 
# High freq. dielectric constant tensor:
#      x y z
#    x 1.777610 0.000000 0.000000 
#    y 0.000000 1.777610 0.000000 
#    z 0.000000 0.000000 1.806500 
# 
# From -- ./inp_files/1307.got.cif
#   From: 2010.03.12/outbox.cif.g09.slc.cpg/sg96_1_cif.got.tgz:1307.got - 2010.04.08 20:56:49.
