data_PCOD8305788
_publ_section_title
;
Structure prediction by ZEFSAII (Michael W. Deem and Ramdas Pophale) SiO2 
 PCOD8305788
Probable space group: P 42 21 2
;
_chemical_formula_sum "Si O2"
_cell_formula_units_Z 48
_cell_length_a 8.981811
_cell_length_b 8.981811
_cell_length_c 27.221602
_cell_angle_alpha 90.000000
_cell_angle_beta 90.000000
_cell_angle_gamma 90.000000
_cell_volume 2196.046361
_symmetry_space_group_name_H-M "P 42 21 2"
_symmetry_group_IT_number 94
_symmetry_cell_setting 'tetragonal'
loop_
_space_group_symop_operation_xyz
x,y,z
1/2-y,1/2+x,1/2+z
-x,-y,z
1/2+y,1/2-x,1/2+z
1/2+x,1/2-y,1/2-z
1/2-x,1/2+y,1/2-z
y,x,-z
-y,-x,-z
loop_
_atom_site_type_symbol
_atom_site_label
_atom_site_fract_x
_atom_site_fract_y
_atom_site_fract_z
Si Si1 0.974991 0.327158 0.781981
Si Si2 0.360611 0.780595 0.617697
Si Si3 0.754629 0.348122 0.191489
Si Si4 0.342436 0.557803 0.902338
Si Si5 0.857415 0.202620 0.945265
Si Si6 0.334240 0.004545 0.881263
O O1 0.803828 0.290488 0.783667
O O2 0.000000 0.500000 0.774635
O O3 0.049646 0.271225 0.831931
O O4 0.031807 0.238045 0.734440
O O5 0.285372 0.939317 0.609693
O O6 0.476410 0.746348 0.573208
O O7 0.218491 0.673380 0.622841
O O8 0.645903 0.388468 0.146762
O O9 0.924509 0.343626 0.171744
O O10 0.500000 0.500000 0.924676
O O11 0.261304 0.662868 0.941918
O O12 0.795244 0.070089 0.912582
O O13 0.861922 0.138079 0.000000
O O14 0.500000 0.000000 0.905792
#
# Coordination Sequence:
#
# PCOD8305788 Si02
#       6
#     8   8   8   8   8   8
#     4  12  25  43  64 102 138 188 239 287 342 413
#     4  12  23  45  73  98 141 185 233 293 351 422
#     4  11  26  42  65  97 140 188 237 284 342 417
#     4  11  24  46  70 103 143 182 232 294 362 423
#     4  11  25  47  72 102 135 180 238 293 365 437
#     4  11  25  44  65 101 140 180 228 295 347 418
#
# _framework density 21.857462999999999
#
# number of rings (size 3 to 8) (size 9 to 14) (size 15 to 20)
#    0.000    0.667    5.000    3.500    7.000    3.000 
#    0.000    1.667    0.000    0.000    0.000    0.000 
#    0.000    0.000    0.000    0.000    0.000    0.000 
#
# Total GULP energy -595182.046767 kJ/mol
# GULP energy per Si atom -12399.625974 kJ/mol
# Density = 2.180771 g / cm^3
# Si number density = 21.857463 Si / 1000 Ang^3
#
#
#
# Elastic Constant Matrix: (Units=GPa)
#
#
# Indices 1 2 3 4 5 6 
#
# 1 89.2017 19.8123 11.3075 0.0000 0.0000 0.0000
# 2 19.8123 89.2017 11.3075 0.0000 0.0000 0.0000
# 3 11.3075 11.3075 87.0178 0.0000 0.0000 0.0000
# 4 0.0000 0.0000 0.0000 24.0922 0.0000 0.0000
# 5 0.0000 0.0000 0.0000 0.0000 24.0927 0.0000
# 6 0.0000 0.0000 0.0000 0.0000 0.0000 43.2443
#
#
#
# Elastic Compliance Matrix: (Units=1/GPa)
#
#
# Indices 1 2 3 4 5 6 
#
# 1 0.011919 -0.002492 -0.001225 0.000000 0.000000 0.000000
# 2 -0.002492 0.011919 -0.001225 0.000000 0.000000 0.000000
# 3 -0.001225 -0.001225 0.011810 0.000000 0.000000 0.000000
# 4 0.000000 0.000000 0.000000 0.041507 0.000000 0.000000
# 5 0.000000 0.000000 0.000000 0.000000 0.041506 0.000000
# 6 0.000000 0.000000 0.000000 0.000000 0.000000 0.023124
#
#
# Mechanical properties :
#
#
# Convention : Reuss Voigt Hill
#
# Bulk Modulus (GPa) = 38.81277 38.91953 38.86615
# Shear Modulus (GPa) = 31.19942 33.15210 32.17576
#
# Velocity S-wave (km/s) = 3.78220 3.89876 3.84092
# Velocity P-wave (km/s) = 6.07200 6.17348 6.12295
#
# Compressibility (1/GPa) = 0.02576472
#
# Stress axis : x y z
#
# Youngs Moduli (GPa) = 83.89725 83.89724 84.67204
#
# Poissons Ratio (x) = 0.20908 0.10372
# Poissons Ratio (y) = 0.20908 0.10372
# Poissons Ratio (z) = 0.10278 0.10278
#
# Static dielectric constant tensor:
#      x y z
#    x 4.053680 0.000000 0.000000 
#    y 0.000000 4.053680 0.000000 
#    z 0.000000 0.000000 3.793380 
# 
# 
# High freq. dielectric constant tensor:
#      x y z
#    x 1.874690 0.000000 0.000000 
#    y 0.000000 1.874690 0.000000 
#    z 0.000000 0.000000 1.840520 
# 
# From -- ./inp_files/5575.got.cif
#   From: 2010.03.12/outbox.cif.g09.slc.cpg/sg94_3_cif.got.tgz:5575.got - 2010.04.08 20:48:32.
