data_PCOD8305736
_publ_section_title
;
Structure prediction by ZEFSAII (Michael W. Deem and Ramdas Pophale) SiO2 
 PCOD8305736
Probable space group: P 42 21 2
;
_chemical_formula_sum "Si O2"
_cell_formula_units_Z 48
_cell_length_a 8.765254
_cell_length_b 8.765254
_cell_length_c 28.621519
_cell_angle_alpha 90.000000
_cell_angle_beta 90.000000
_cell_angle_gamma 90.000000
_cell_volume 2198.982080
_symmetry_space_group_name_H-M "P 42 21 2"
_symmetry_group_IT_number 94
_symmetry_cell_setting 'tetragonal'
loop_
_space_group_symop_operation_xyz
x,y,z
1/2-y,1/2+x,1/2+z
-x,-y,z
1/2+y,1/2-x,1/2+z
1/2+x,1/2-y,1/2-z
1/2-x,1/2+y,1/2-z
y,x,-z
-y,-x,-z
loop_
_atom_site_type_symbol
_atom_site_label
_atom_site_fract_x
_atom_site_fract_y
_atom_site_fract_z
Si Si1 0.441508 0.837591 0.295876
Si Si2 0.588893 0.234635 0.036060
Si Si3 0.745267 0.863241 0.142401
Si Si4 0.911570 0.732095 0.963382
Si Si5 0.741459 0.663721 0.294776
Si Si6 0.445358 0.672341 0.137332
O O1 0.355697 0.769503 0.340403
O O2 0.573376 0.719670 0.280593
O O3 0.330716 0.866945 0.252599
O O4 0.500000 0.000000 0.313353
O O5 0.409841 0.202829 0.031210
O O6 0.629024 0.300756 0.086877
O O7 0.684911 0.083319 0.025062
O O8 0.633981 0.366020 0.000000
O O9 0.793836 0.904405 0.089658
O O10 0.573291 0.801756 0.144788
O O11 0.762250 0.009460 0.175378
O O12 0.862682 0.862682 0.000000
O O13 0.816878 0.800739 0.323955
O O14 0.500000 0.500000 0.142942
#
# Coordination Sequence:
#
# PCOD8305736 Si02
#       6
#     8   8   8   8   8   8
#     4  12  26  43  69 101 135 177 231 286 345 416
#     4  10  23  41  66 100 131 177 226 281 342 404
#     4  11  24  46  69  98 140 185 228 287 357 420
#     4  10  23  45  68  97 138 183 228 280 346 414
#     4  12  24  45  70  99 137 180 227 285 353 424
#     4  11  23  40  69  98 134 177 227 283 346 411
#
# _framework density 21.828282000000002
#
# number of rings (size 3 to 8) (size 9 to 14) (size 15 to 20)
#    0.000    1.000    1.667    5.000    4.667    3.000 
#    6.000    0.000    0.000    0.000    0.000    0.000 
#    0.000    0.000    0.000    0.000    0.000    0.000 
#
# Total GULP energy -595515.982989 kJ/mol
# GULP energy per Si atom -12406.582979 kJ/mol
# Density = 2.177860 g / cm^3
# Si number density = 21.828282 Si / 1000 Ang^3
#
#
#
# Elastic Constant Matrix: (Units=GPa)
#
#
# Indices 1 2 3 4 5 6 
#
# 1 84.6980 21.4807 38.6193 0.0000 0.0000 0.0000
# 2 21.4807 84.6972 38.6196 0.0000 0.0000 0.0000
# 3 38.6193 38.6196 92.4584 0.0000 0.0000 0.0000
# 4 0.0000 0.0000 0.0000 37.1798 0.0000 0.0000
# 5 0.0000 0.0000 0.0000 0.0000 37.1799 0.0000
# 6 0.0000 0.0000 0.0000 0.0000 0.0000 42.0697
#
#
#
# Elastic Compliance Matrix: (Units=1/GPa)
#
#
# Indices 1 2 3 4 5 6 
#
# 1 0.014674 -0.001145 -0.005651 0.000000 0.000000 0.000000
# 2 -0.001145 0.014674 -0.005651 0.000000 0.000000 0.000000
# 3 -0.005651 -0.005651 0.015536 0.000000 0.000000 0.000000
# 4 0.000000 0.000000 0.000000 0.026896 0.000000 0.000000
# 5 0.000000 0.000000 0.000000 0.000000 0.026896 0.000000
# 6 0.000000 0.000000 0.000000 0.000000 0.000000 0.023770
#
#
# Mechanical properties :
#
#
# Convention : Reuss Voigt Hill
#
# Bulk Modulus (GPa) = 50.02407 51.03255 50.52831
# Shear Modulus (GPa) = 32.46680 34.16148 33.31414
#
# Velocity S-wave (km/s) = 3.86083 3.96031 3.91089
# Velocity P-wave (km/s) = 6.54534 6.65898 6.60240
#
# Compressibility (1/GPa) = 0.01999037
#
# Stress axis : x y z
#
# Youngs Moduli (GPa) = 68.14959 68.14849 64.36488
#
# Poissons Ratio (x) = 0.07802 0.36372
# Poissons Ratio (y) = 0.07802 0.36373
# Poissons Ratio (z) = 0.38510 0.38511
#
# Static dielectric constant tensor:
#      x y z
#    x 3.965530 0.000000 0.000000 
#    y 0.000000 3.965530 0.000000 
#    z 0.000000 0.000000 3.973950 
# 
# 
# High freq. dielectric constant tensor:
#      x y z
#    x 1.864090 0.000000 0.000000 
#    y 0.000000 1.864090 0.000000 
#    z 0.000000 0.000000 1.863600 
# 
# From -- ./inp_files/5581.got.cif
#   From: 2010.03.12/outbox.cif.g09.slc.cpg/sg94_3_cif.got.tgz:5581.got - 2010.04.08 20:48:32.
