data_PCOD8305611
_publ_section_title
;
Structure prediction by ZEFSAII (Michael W. Deem and Ramdas Pophale) SiO2 
 PCOD8305611
Probable space group: P 42 2 2
;
_chemical_formula_sum "Si O2"
_cell_formula_units_Z 16
_cell_length_a 5.055145
_cell_length_b 5.055145
_cell_length_c 25.066129
_cell_angle_alpha 90.000000
_cell_angle_beta 90.000000
_cell_angle_gamma 90.000000
_cell_volume 640.552167
_symmetry_space_group_name_H-M "P 42 2 2"
_symmetry_group_IT_number 93
_symmetry_cell_setting 'tetragonal'
loop_
_space_group_symop_operation_xyz
x,y,z
-y,x,1/2+z
-x,-y,z
y,-x,1/2+z
x,-y,-z
-x,y,-z
y,x,1/2-z
-y,-x,1/2-z
loop_
_atom_site_type_symbol
_atom_site_label
_atom_site_fract_x
_atom_site_fract_y
_atom_site_fract_z
Si Si1 0.739901 0.181490 0.907791
Si Si2 0.000000 0.500000 0.824799
Si Si3 0.500000 0.500000 0.500000
Si Si4 0.000000 0.000000 0.250000
O O1 0.760926 0.420103 0.864702
O O2 0.500000 0.000000 0.888656
O O3 0.688939 0.312793 0.965110
O O4 0.000000 0.000000 0.910578
O O5 0.961203 0.749776 0.787427
#
# Coordination Sequence:
#
# PCOD8305611 Si02
#       4
#     8   4   2   2
#     4  12  29  53  81 123 170 225 275 348 414 515
#     4  12  30  57  82 124 160 219 284 356 424 510
#     4  12  30  46  88 126 180 220 288 324 440 490
#     4  12  32  52  92 110 166 214 284 358 436 484
#
# _framework density 24.978445000000001
#
# number of rings (size 3 to 8) (size 9 to 14) (size 15 to 20)
#    0.000    0.000    2.500    3.750    3.500   20.000 
#    0.000    0.000    0.000    0.000    0.000    0.000 
#    0.000    0.000    0.000    0.000    0.000    0.000 
#
# Total GULP energy -198303.242494 kJ/mol
# GULP energy per Si atom -12393.952656 kJ/mol
# Density = 2.492159 g / cm^3
# Si number density = 24.978445 Si / 1000 Ang^3
#
#
#
# Elastic Constant Matrix: (Units=GPa)
#
#
# Indices 1 2 3 4 5 6 
#
# 1 203.5608 94.9977 99.1346 0.0000 0.0000 0.0000
# 2 94.9977 203.5608 99.1346 0.0000 0.0000 0.0000
# 3 99.1346 99.1346 218.5497 0.0000 0.0000 0.0000
# 4 0.0000 0.0000 0.0000 131.2405 0.0000 0.0000
# 5 0.0000 0.0000 0.0000 0.0000 131.2405 0.0000
# 6 0.0000 0.0000 0.0000 0.0000 0.0000 33.4780
#
#
#
# Elastic Compliance Matrix: (Units=1/GPa)
#
#
# Indices 1 2 3 4 5 6 
#
# 1 0.007002 -0.002209 -0.002174 0.000000 0.000000 0.000000
# 2 -0.002209 0.007002 -0.002174 0.000000 0.000000 0.000000
# 3 -0.002174 -0.002174 0.006548 0.000000 0.000000 0.000000
# 4 0.000000 0.000000 0.000000 0.007620 0.000000 0.000000
# 5 0.000000 0.000000 0.000000 0.000000 0.007620 0.000000
# 6 0.000000 0.000000 0.000000 0.000000 0.000000 0.029870
#
#
# Mechanical properties :
#
#
# Convention : Reuss Voigt Hill
#
# Bulk Modulus (GPa) = 134.44975 134.68946 134.56961
# Shear Modulus (GPa) = 61.53358 81.35211 71.44285
#
# Velocity S-wave (km/s) = 4.96872 5.71311 5.35387
# Velocity P-wave (km/s) = 9.31991 9.87719 9.60259
#
# Compressibility (1/GPa) = 0.00743772
#
# Stress axis : x y z
#
# Youngs Moduli (GPa) = 142.81062 142.81062 152.71552
#
# Poissons Ratio (x) = 0.31546 0.33204
# Poissons Ratio (y) = 0.31546 0.33204
# Poissons Ratio (z) = 0.31051 0.31051
#
# Static dielectric constant tensor:
#      x y z
#    x 4.917950 0.000000 0.000000 
#    y 0.000000 4.917950 0.000000 
#    z 0.000000 0.000000 5.220690 
# 
# 
# High freq. dielectric constant tensor:
#      x y z
#    x 2.010270 0.000000 0.000000 
#    y 0.000000 2.010270 0.000000 
#    z 0.000000 0.000000 2.017990 
# 
# From -- ./inp_files/6377.got.cif
#   From: 2010.03.12/outbox.cif.g09.slc.cpg/sg93_4_cif.got.tgz:6377.got - 2010.04.08 20:44:19.
