data_PCOD8305724
_publ_section_title
;
Structure prediction by ZEFSAII (Michael W. Deem and Ramdas Pophale) SiO2 
 PCOD8305724
Probable space group: P 42 21 2
;
_chemical_formula_sum "Si O2"
_cell_formula_units_Z 32
_cell_length_a 9.162509
_cell_length_b 9.162509
_cell_length_c 18.687166
_cell_angle_alpha 90.000000
_cell_angle_beta 90.000000
_cell_angle_gamma 90.000000
_cell_volume 1568.816947
_symmetry_space_group_name_H-M "P 42 21 2"
_symmetry_group_IT_number 94
_symmetry_cell_setting 'tetragonal'
loop_
_space_group_symop_operation_xyz
x,y,z
1/2-y,1/2+x,1/2+z
-x,-y,z
1/2+y,1/2-x,1/2+z
1/2+x,1/2-y,1/2-z
1/2-x,1/2+y,1/2-z
y,x,-z
-y,-x,-z
loop_
_atom_site_type_symbol
_atom_site_label
_atom_site_fract_x
_atom_site_fract_y
_atom_site_fract_z
Si Si1 0.120212 0.371592 0.786872
Si Si2 0.360855 0.408715 0.302222
Si Si3 0.880678 0.306565 0.446812
Si Si4 0.624961 0.802215 0.552412
O O1 0.257629 0.407563 0.736027
O O2 0.194796 0.331537 0.863391
O O3 0.000000 0.500000 0.795319
O O4 0.025200 0.235143 0.755543
O O5 0.500000 0.500000 0.328156
O O6 0.258666 0.367785 0.368000
O O7 0.809513 0.190488 0.500000
O O8 0.840123 0.465055 0.476571
O O9 0.053351 0.275739 0.449971
O O10 0.680012 0.680012 0.500000
#
# Coordination Sequence:
#
# PCOD8305724 Si02
#       4
#     8   8   8   8
#     4  11  22  46  64  95 139 166 222 278 327 406
#     4  11  24  39  69  96 125 180 215 272 340 392
#     4  10  22  43  65  87 129 173 206 270 326 378
#     4  10  23  42  61  95 127 161 220 264 315 393
#
# _framework density 20.397537
#
# number of rings (size 3 to 8) (size 9 to 14) (size 15 to 20)
#    0.000    1.500    5.000    1.500    7.000    2.500 
#    4.500    0.000    0.000    0.000    0.000    0.000 
#    0.000    0.000    0.000    0.000    0.000    0.000 
#
# Total GULP energy -396462.935743 kJ/mol
# GULP energy per Si atom -12389.466742 kJ/mol
# Density = 2.035111 g / cm^3
# Si number density = 20.397537 Si / 1000 Ang^3
#
#
#
# Elastic Constant Matrix: (Units=GPa)
#
#
# Indices 1 2 3 4 5 6 
#
# 1 113.0252 62.3593 55.6909 0.0000 0.0000 0.0000
# 2 62.3593 113.0251 55.6918 0.0000 0.0000 0.0000
# 3 55.6909 55.6918 75.6650 0.0000 0.0000 0.0000
# 4 0.0000 0.0000 0.0000 23.4528 0.0000 0.0000
# 5 0.0000 0.0000 0.0000 0.0000 23.4524 0.0000
# 6 0.0000 0.0000 0.0000 0.0000 0.0000 40.1370
#
#
#
# Elastic Compliance Matrix: (Units=1/GPa)
#
#
# Indices 1 2 3 4 5 6 
#
# 1 0.015222 -0.004515 -0.007880 0.000000 0.000000 0.000000
# 2 -0.004515 0.015222 -0.007880 0.000000 0.000000 0.000000
# 3 -0.007880 -0.007880 0.024816 0.000000 0.000000 0.000000
# 4 0.000000 0.000000 0.000000 0.042639 0.000000 0.000000
# 5 0.000000 0.000000 0.000000 0.000000 0.042640 0.000000
# 6 0.000000 0.000000 0.000000 0.000000 0.000000 0.024915
#
#
# Mechanical properties :
#
#
# Convention : Reuss Voigt Hill
#
# Bulk Modulus (GPa) = 67.98921 72.13328 70.06124
# Shear Modulus (GPa) = 23.70722 25.93999 24.82361
#
# Velocity S-wave (km/s) = 3.41289 3.56999 3.49232
# Velocity P-wave (km/s) = 6.99535 7.24110 7.11929
#
# Compressibility (1/GPa) = 0.01470822
#
# Stress axis : x y z
#
# Youngs Moduli (GPa) = 65.69652 65.69509 40.29671
#
# Poissons Ratio (x) = 0.29665 0.31753
# Poissons Ratio (y) = 0.29665 0.31755
# Poissons Ratio (z) = 0.51767 0.51769
#
# Static dielectric constant tensor:
#      x y z
#    x 4.152830 0.000000 0.000000 
#    y 0.000000 4.152830 0.000000 
#    z 0.000000 0.000000 3.467320 
# 
# 
# High freq. dielectric constant tensor:
#      x y z
#    x 1.806310 0.000000 0.000000 
#    y 0.000000 1.806310 0.000000 
#    z 0.000000 0.000000 1.773700 
# 
# From -- ./inp_files/4368.got.cif
#   From: 2010.03.12/outbox.cif.g09.slc.cpg/sg94_3_cif.got.tgz:4368.got - 2010.04.08 20:48:32.
