data_PCOD8305590
_publ_section_title
;
Structure prediction by ZEFSAII (Michael W. Deem and Ramdas Pophale) SiO2 
 PCOD8305590
Probable space group: P 42 2 2
;
_chemical_formula_sum "Si O2"
_cell_formula_units_Z 16
_cell_length_a 5.019924
_cell_length_b 5.019924
_cell_length_c 25.222220
_cell_angle_alpha 90.000000
_cell_angle_beta 90.000000
_cell_angle_gamma 90.000000
_cell_volume 635.590787
_symmetry_space_group_name_H-M "P 42 2 2"
_symmetry_group_IT_number 93
_symmetry_cell_setting 'tetragonal'
loop_
_space_group_symop_operation_xyz
x,y,z
-y,x,1/2+z
-x,-y,z
y,-x,1/2+z
x,-y,-z
-x,y,-z
y,x,1/2-z
-y,-x,1/2-z
loop_
_atom_site_type_symbol
_atom_site_label
_atom_site_fract_x
_atom_site_fract_y
_atom_site_fract_z
Si Si1 0.000000 0.500000 0.175248
Si Si2 0.000000 0.000000 0.250000
Si Si3 0.000000 0.500000 0.000000
Si Si4 0.755783 0.814555 0.091832
O O1 0.249823 0.424163 0.135864
O O2 0.961371 0.252914 0.213227
O O3 0.802913 0.315827 0.965609
O O4 0.500000 0.000000 0.091125
O O5 0.000000 0.000000 0.108721
#
# Coordination Sequence:
#
# PCOD8305590 Si02
#       4
#     4   2   2   8
#     4  11  28  51  78 120 154 207 262 331 394 480
#     4  12  28  48  84 110 158 202 264 326 404 464
#     4  10  26  46  80 116 160 212 272 330 404 482
#     4  11  26  49  78 113 159 207 263 329 397 479
#
# _framework density 25.173428000000001
#
# number of rings (size 3 to 8) (size 9 to 14) (size 15 to 20)
#    0.000    1.000    2.500    0.750    3.500   19.000 
#    0.000    0.000    5.500    0.000    0.000    0.000 
#    0.000    0.000    0.000    0.000    0.000    0.000 
#
# Total GULP energy -198213.257136 kJ/mol
# GULP energy per Si atom -12388.328571 kJ/mol
# Density = 2.511613 g / cm^3
# Si number density = 25.173428 Si / 1000 Ang^3
#
#
#
# Elastic Constant Matrix: (Units=GPa)
#
#
# Indices 1 2 3 4 5 6 
#
# 1 199.8925 95.7691 103.1888 0.0000 0.0000 0.0000
# 2 95.7691 199.8925 103.1888 0.0000 0.0000 0.0000
# 3 103.1888 103.1888 232.7146 0.0000 0.0000 0.0000
# 4 0.0000 0.0000 0.0000 8.5369 0.0000 0.0000
# 5 0.0000 0.0000 0.0000 0.0000 8.5369 0.0000
# 6 0.0000 0.0000 0.0000 0.0000 0.0000 60.3216
#
#
#
# Elastic Compliance Matrix: (Units=1/GPa)
#
#
# Indices 1 2 3 4 5 6 
#
# 1 0.007251 -0.002353 -0.002172 0.000000 0.000000 0.000000
# 2 -0.002353 0.007251 -0.002172 0.000000 0.000000 0.000000
# 3 -0.002172 -0.002172 0.006223 0.000000 0.000000 0.000000
# 4 0.000000 0.000000 0.000000 0.117139 0.000000 0.000000
# 5 0.000000 0.000000 0.000000 0.000000 0.117139 0.000000
# 6 0.000000 0.000000 0.000000 0.000000 0.000000 0.016578
#
#
# Mechanical properties :
#
#
# Convention : Reuss Voigt Hill
#
# Bulk Modulus (GPa) = 136.38834 137.42145 136.90489
# Shear Modulus (GPa) = 17.39620 37.50260 27.44940
#
# Velocity S-wave (km/s) = 2.63164 3.86394 3.30572
# Velocity P-wave (km/s) = 7.97064 8.63800 8.31102
#
# Compressibility (1/GPa) = 0.00733200
#
# Stress axis : x y z
#
# Youngs Moduli (GPa) = 137.90898 137.90898 160.68677
#
# Poissons Ratio (x) = 0.32448 0.34901
# Poissons Ratio (y) = 0.32448 0.34901
# Poissons Ratio (z) = 0.29954 0.29954
#
# Static dielectric constant tensor:
#      x y z
#    x 5.504930 0.000000 0.000000 
#    y 0.000000 5.504930 0.000000 
#    z 0.000000 0.000000 5.148920 
# 
# 
# High freq. dielectric constant tensor:
#      x y z
#    x 2.008350 0.000000 0.000000 
#    y 0.000000 2.008350 0.000000 
#    z 0.000000 0.000000 2.033820 
# 
# From -- ./inp_files/6388.got.cif
#   From: 2010.03.12/outbox.cif.g09.slc.cpg/sg93_4_cif.got.tgz:6388.got - 2010.04.08 20:44:19.
