data_PCOD8305858
_publ_section_title
;
Structure prediction by ZEFSAII (Michael W. Deem and Ramdas Pophale) SiO2 
 PCOD8305858
Probable space group: P 43 2 2
;
_chemical_formula_sum "Si O2"
_cell_formula_units_Z 56
_cell_length_a 19.438430
_cell_length_b 19.438430
_cell_length_c 9.832812
_cell_angle_alpha 90.000000
_cell_angle_beta 90.000000
_cell_angle_gamma 90.000000
_cell_volume 3715.353195
_symmetry_space_group_name_H-M "P 43 2 2"
_symmetry_group_IT_number 95
_symmetry_cell_setting 'tetragonal'
loop_
_space_group_symop_operation_xyz
x,y,z
-y,x,3/4+z
-x,-y,1/2+z
y,-x,1/4+z
x,-y,1/2-z
-x,y,-z
y,x,1/4-z
-y,-x,3/4-z
loop_
_atom_site_type_symbol
_atom_site_label
_atom_site_fract_x
_atom_site_fract_y
_atom_site_fract_z
Si Si1 0.338433 0.549995 0.881710
Si Si2 0.817001 0.555182 0.069599
Si Si3 0.649015 0.460842 0.885808
Si Si4 0.560614 0.007416 0.597821
Si Si5 0.578107 0.862087 0.470078
Si Si6 0.349503 0.761730 0.338000
Si Si7 0.149935 0.399481 0.856894
O O1 0.334313 0.500000 0.750000
O O2 0.376113 0.623888 0.875000
O O3 0.264280 0.559992 0.951128
O O4 0.378769 0.511336 0.998812
O O5 0.827999 0.603226 0.200833
O O6 0.840578 0.476301 0.083284
O O7 0.858152 0.588509 0.942541
O O8 0.672026 0.500000 0.750000
O O9 0.581128 0.418873 0.875000
O O10 0.710622 0.412569 0.937175
O O11 0.500000 0.034988 0.500000
O O12 0.617905 0.067963 0.609287
O O13 0.530038 0.000000 0.750000
O O14 0.591570 0.937949 0.532600
O O15 0.500000 0.838449 0.500000
O O16 0.633574 0.811622 0.536746
O O17 0.279032 0.720969 0.375000
O O18 0.344782 0.806871 0.198189
#
# Coordination Sequence:
#
# PCOD8305858 Si02
#       7
#     8   8   8   8   8   8   8
#     4  12  23  36  51  65  86 122 166 215 271 313
#     4  11  20  34  50  66  96 119 149 197 258 316
#     4  11  22  34  47  61  79 108 150 203 260 304
#     4  11  20  30  51  78 101 121 147 190 258 304
#     4  11  20  32  50  74  97 118 156 197 248 300
#     4  11  21  35  51  65  88 126 162 196 242 300
#     4  11  19  34  50  69  95 122 149 196 248 309
#
# _framework density 15.072592
#
# number of rings (size 3 to 8) (size 9 to 14) (size 15 to 20)
#    0.000    0.857    7.143    3.000    0.000    5.143 
#    0.000    0.000    0.000    0.000    0.000    0.000 
#    0.000    0.000    0.000    0.000    0.000    0.000 
#
# Total GULP energy -693822.688743 kJ/mol
# GULP energy per Si atom -12389.690870 kJ/mol
# Density = 1.503829 g / cm^3
# Si number density = 15.072592 Si / 1000 Ang^3
#
#
#
# Elastic Constant Matrix: (Units=GPa)
#
#
# Indices 1 2 3 4 5 6 
#
# 1 73.5501 34.8708 29.5881 0.0000 0.0000 0.0000
# 2 34.8708 73.5457 29.5869 0.0000 0.0000 0.0000
# 3 29.5881 29.5869 127.5124 0.0000 0.0000 0.0000
# 4 0.0000 0.0000 0.0000 12.5186 0.0000 0.0000
# 5 0.0000 0.0000 0.0000 0.0000 12.5537 0.0000
# 6 0.0000 0.0000 0.0000 0.0000 0.0000 11.0677
#
#
#
# Elastic Compliance Matrix: (Units=1/GPa)
#
#
# Indices 1 2 3 4 5 6 
#
# 1 0.018208 -0.007647 -0.002451 0.000000 0.000000 0.000000
# 2 -0.007647 0.018209 -0.002451 0.000000 0.000000 0.000000
# 3 -0.002451 -0.002451 0.008980 0.000000 0.000000 0.000000
# 4 0.000000 0.000000 0.000000 0.079881 0.000000 0.000000
# 5 0.000000 0.000000 0.000000 0.000000 0.079658 0.000000
# 6 0.000000 0.000000 0.000000 0.000000 0.000000 0.090353
#
#
# Mechanical properties :
#
#
# Convention : Reuss Voigt Hill
#
# Bulk Modulus (GPa) = 49.26234 51.41105 50.33670
# Shear Modulus (GPa) = 15.28348 19.26549 17.27448
#
# Velocity S-wave (km/s) = 3.18778 3.57904 3.38906
# Velocity P-wave (km/s) = 6.80467 7.15978 6.98448
#
# Compressibility (1/GPa) = 0.02029948
#
# Stress axis : x y z
#
# Youngs Moduli (GPa) = 54.92235 54.91925 111.36351
#
# Poissons Ratio (x) = 0.41997 0.27290
# Poissons Ratio (y) = 0.41999 0.27290
# Poissons Ratio (z) = 0.13459 0.13458
#
# Static dielectric constant tensor:
#      x y z
#    x 2.882220 0.000000 0.000000 
#    y 0.000000 2.882060 0.000000 
#    z 0.000000 0.000000 3.189760 
# 
# 
# High freq. dielectric constant tensor:
#      x y z
#    x 1.541880 0.000000 0.000000 
#    y 0.000000 1.541880 0.000000 
#    z 0.000000 0.000000 1.605700 
# 
# From -- ./inp_files/2921.got.cif
#   From: 2010.03.12/outbox.cif.g09.slc.cpg/sg95_2_cif.got.tgz:2921.got - 2010.04.08 20:51:55.
