data_PCOD8305854
_publ_section_title
;
Structure prediction by ZEFSAII (Michael W. Deem and Ramdas Pophale) SiO2 
 PCOD8305854
Probable space group: P 43 2 2
;
_chemical_formula_sum "Si O2"
_cell_formula_units_Z 48
_cell_length_a 8.549710
_cell_length_b 8.549710
_cell_length_c 28.275901
_cell_angle_alpha 90.000000
_cell_angle_beta 90.000000
_cell_angle_gamma 90.000000
_cell_volume 2066.898835
_symmetry_space_group_name_H-M "P 43 2 2"
_symmetry_group_IT_number 95
_symmetry_cell_setting 'tetragonal'
loop_
_space_group_symop_operation_xyz
x,y,z
-y,x,3/4+z
-x,-y,1/2+z
y,-x,1/4+z
x,-y,1/2-z
-x,y,-z
y,x,1/4-z
-y,-x,3/4-z
loop_
_atom_site_type_symbol
_atom_site_label
_atom_site_fract_x
_atom_site_fract_y
_atom_site_fract_z
Si Si1 0.268962 0.500000 0.250000
Si Si2 0.053689 0.474691 0.335334
Si Si3 0.160313 0.027362 0.078625
Si Si4 0.768179 0.519628 0.486174
Si Si5 0.545260 0.283920 0.445967
Si Si6 0.798183 0.327079 0.573046
Si Si7 0.235134 0.000000 0.250000
O O1 0.164569 0.427977 0.291858
O O2 0.385779 0.637176 0.266146
O O3 0.116231 0.401108 0.382850
O O4 0.061143 0.660318 0.340026
O O5 0.881129 0.402142 0.326407
O O6 0.141415 0.847743 0.065044
O O7 0.059185 0.059185 0.125000
O O8 0.104033 0.130719 0.034517
O O9 0.686378 0.413702 0.444439
O O10 0.853030 0.412384 0.525165
O O11 0.891212 0.649581 0.467245
O O12 0.500000 0.250190 0.500000
O O13 0.389454 0.341095 0.418816
#
# Coordination Sequence:
#
# PCOD8305854 Si02
#       7
#     4   8   8   8   8   8   4
#     4  12  22  38  72 108 130 192 248 296 360 432
#     4  11  23  41  75 101 141 190 240 298 372 429
#     4  11  26  46  69 103 148 186 241 300 365 448
#     4  11  23  44  71 106 140 186 245 297 360 442
#     4   9  19  44  71 102 139 182 243 304 357 431
#     4  10  23  44  71 103 139 184 242 305 361 429
#     4  12  26  46  74 106 146 200 240 298 378 448
#
# _framework density 23.223196999999999
#
# number of rings (size 3 to 8) (size 9 to 14) (size 15 to 20)
#    0.000    1.333    5.000    1.000    2.333    0.667 
#    3.000    0.000    0.000    0.000    0.000    0.000 
#    0.000    0.000    0.000    0.000    0.000    0.000 
#
# Total GULP energy -595007.742781 kJ/mol
# GULP energy per Si atom -12395.994641 kJ/mol
# Density = 2.317034 g / cm^3
# Si number density = 23.223197 Si / 1000 Ang^3
#
#
#
# Elastic Constant Matrix: (Units=GPa)
#
#
# Indices 1 2 3 4 5 6 
#
# 1 140.7785 76.5279 47.4733 0.0000 0.0000 0.0000
# 2 76.5279 140.7785 47.4733 0.0000 0.0000 0.0000
# 3 47.4733 47.4733 55.3889 0.0000 0.0000 0.0000
# 4 0.0000 0.0000 0.0000 37.4929 0.0000 0.0000
# 5 0.0000 0.0000 0.0000 0.0000 37.4929 0.0000
# 6 0.0000 0.0000 0.0000 0.0000 0.0000 33.7777
#
#
#
# Elastic Compliance Matrix: (Units=1/GPa)
#
#
# Indices 1 2 3 4 5 6 
#
# 1 0.011460 -0.004104 -0.006305 0.000000 0.000000 0.000000
# 2 -0.004104 0.011460 -0.006305 0.000000 0.000000 0.000000
# 3 -0.006305 -0.006305 0.028863 0.000000 0.000000 0.000000
# 4 0.000000 0.000000 0.000000 0.026672 0.000000 0.000000
# 5 0.000000 0.000000 0.000000 0.000000 0.026672 0.000000
# 6 0.000000 0.000000 0.000000 0.000000 0.000000 0.029605
#
#
# Mechanical properties :
#
#
# Convention : Reuss Voigt Hill
#
# Bulk Modulus (GPa) = 54.48209 75.54389 65.01299
# Shear Modulus (GPa) = 28.68950 32.78412 30.73681
#
# Velocity S-wave (km/s) = 3.51861 3.76133 3.64199
# Velocity P-wave (km/s) = 6.32603 7.17381 6.76322
#
# Compressibility (1/GPa) = 0.01835465
#
# Stress axis : x y z
#
# Youngs Moduli (GPa) = 87.25672 87.25672 34.64661
#
# Poissons Ratio (x) = 0.35807 0.21846
# Poissons Ratio (y) = 0.35807 0.21846
# Poissons Ratio (z) = 0.55019 0.55019
#
# Static dielectric constant tensor:
#      x y z
#    x 4.605850 0.000000 0.000000 
#    y 0.000000 4.605850 0.000000 
#    z 0.000000 0.000000 3.872150 
# 
# 
# High freq. dielectric constant tensor:
#      x y z
#    x 1.931860 0.000000 0.000000 
#    y 0.000000 1.931860 0.000000 
#    z 0.000000 0.000000 1.888770 
# 
# From -- ./inp_files/8020.got.cif
#   From: 2010.03.12/outbox.cif.g09.slc.cpg/sg95_5_cif.got.tgz:8020.got - 2010.04.08 20:51:55.
