data_PCOD8305309
_publ_section_title
;
Structure prediction by ZEFSAII (Michael W. Deem and Ramdas Pophale) SiO2 
 PCOD8305309
Probable space group: P 41 21 2
;
_chemical_formula_sum "Si O2"
_cell_formula_units_Z 28
_cell_length_a 13.475372
_cell_length_b 13.475372
_cell_length_c 7.693189
_cell_angle_alpha 90.000000
_cell_angle_beta 90.000000
_cell_angle_gamma 90.000000
_cell_volume 1396.972729
_symmetry_space_group_name_H-M "P 41 21 2"
_symmetry_group_IT_number 92
_symmetry_cell_setting 'tetragonal'
loop_
_space_group_symop_operation_xyz
x,y,z
1/2-y,1/2+x,1/4+z
-x,-y,1/2+z
1/2+y,1/2-x,3/4+z
1/2+x,1/2-y,3/4-z
1/2-x,1/2+y,1/4-z
y,x,-z
-y,-x,1/2-z
loop_
_atom_site_type_symbol
_atom_site_label
_atom_site_fract_x
_atom_site_fract_y
_atom_site_fract_z
Si Si1 0.117986 0.439737 0.086058
Si Si2 0.751403 0.786629 0.303301
Si Si3 0.625155 0.374846 0.250000
Si Si4 0.424949 0.306894 0.133346
O O1 0.087428 0.529197 0.207999
O O2 0.144971 0.346407 0.209604
O O3 0.212971 0.469811 0.970467
O O4 0.792579 0.792579 0.500000
O O5 0.833988 0.824795 0.173319
O O6 0.726438 0.671871 0.256289
O O7 0.507868 0.352664 0.259834
O O8 0.392729 0.392729 0.000000
#
# Coordination Sequence:
#
# PCOD8305309 Si02
#       4
#     8   8   4   8
#     4  10  21  37  62  91 127 158 202 265 319 367
#     4   9  22  42  60  91 132 158 201 275 307 362
#     4  12  22  40  74  90 114 184 216 240 320 398
#     4   9  21  43  57  91 132 158 206 270 313 362
#
# _framework density 20.043340000000001
#
# number of rings (size 3 to 8) (size 9 to 14) (size 15 to 20)
#    0.000    2.857    0.000    3.429    4.000    2.286 
#   15.429    0.000    0.000    0.000    0.000    0.000 
#    0.000    0.000    0.000    0.000    0.000    0.000 
#
# Total GULP energy -347146.213019 kJ/mol
# GULP energy per Si atom -12398.079036 kJ/mol
# Density = 1.999772 g / cm^3
# Si number density = 20.043340 Si / 1000 Ang^3
#
#
#
# Elastic Constant Matrix: (Units=GPa)
#
#
# Indices 1 2 3 4 5 6 
#
# 1 129.2203 62.7409 53.9260 0.0000 0.0000 0.0000
# 2 62.7409 129.2205 53.9248 0.0000 0.0000 0.0000
# 3 53.9260 53.9248 66.9302 0.0000 0.0000 0.0000
# 4 0.0000 0.0000 0.0000 25.6482 0.0000 0.0000
# 5 0.0000 0.0000 0.0000 0.0000 25.6484 0.0000
# 6 0.0000 0.0000 0.0000 0.0000 0.0000 24.6741
#
#
#
# Elastic Compliance Matrix: (Units=1/GPa)
#
#
# Indices 1 2 3 4 5 6 
#
# 1 0.012280 -0.002762 -0.007669 0.000000 0.000000 0.000000
# 2 -0.002762 0.012280 -0.007668 0.000000 0.000000 0.000000
# 3 -0.007669 -0.007668 0.027298 0.000000 0.000000 0.000000
# 4 0.000000 0.000000 0.000000 0.038989 0.000000 0.000000
# 5 0.000000 0.000000 0.000000 0.000000 0.038989 0.000000
# 6 0.000000 0.000000 0.000000 0.000000 0.000000 0.040528
#
#
# Mechanical properties :
#
#
# Convention : Reuss Voigt Hill
#
# Bulk Modulus (GPa) = 63.85857 74.06161 68.96009
# Shear Modulus (GPa) = 23.60917 25.51277 24.56097
#
# Velocity S-wave (km/s) = 3.43579 3.57161 3.50436
# Velocity P-wave (km/s) = 6.90427 7.35116 7.13121
#
# Compressibility (1/GPa) = 0.01565961
#
# Stress axis : x y z
#
# Youngs Moduli (GPa) = 81.43208 81.43423 36.63297
#
# Poissons Ratio (x) = 0.22494 0.28093
# Poissons Ratio (y) = 0.22493 0.28091
# Poissons Ratio (z) = 0.62448 0.62445
#
# Static dielectric constant tensor:
#      x y z
#    x 3.745720 0.000000 0.000000 
#    y 0.000000 3.745700 0.000000 
#    z 0.000000 0.000000 3.282260 
# 
# 
# High freq. dielectric constant tensor:
#      x y z
#    x 1.791940 0.000000 0.000000 
#    y 0.000000 1.791940 0.000000 
#    z 0.000000 0.000000 1.753500 
# 
# From -- ./inp_files/1085.got.cif
#   From: 2010.03.12/outbox.cif.g09.slc.cpg/sg92_1_cif.got.tgz:1085.got - 2010.04.08 20:41:11.
