data_PCOD8305475
_publ_section_title
;
Structure prediction by ZEFSAII (Michael W. Deem and Ramdas Pophale) SiO2 
 PCOD8305475
Probable space group: P 41 21 2
;
_chemical_formula_sum "Si O2"
_cell_formula_units_Z 48
_cell_length_a 11.509986
_cell_length_b 11.509986
_cell_length_c 16.960202
_cell_angle_alpha 90.000000
_cell_angle_beta 90.000000
_cell_angle_gamma 90.000000
_cell_volume 2246.883791
_symmetry_space_group_name_H-M "P 41 21 2"
_symmetry_group_IT_number 92
_symmetry_cell_setting 'tetragonal'
loop_
_space_group_symop_operation_xyz
x,y,z
1/2-y,1/2+x,1/4+z
-x,-y,1/2+z
1/2+y,1/2-x,3/4+z
1/2+x,1/2-y,3/4-z
1/2-x,1/2+y,1/4-z
y,x,-z
-y,-x,1/2-z
loop_
_atom_site_type_symbol
_atom_site_label
_atom_site_fract_x
_atom_site_fract_y
_atom_site_fract_z
Si Si1 0.323156 0.676159 0.843156
Si Si2 0.070091 0.598022 0.322909
Si Si3 0.012497 0.983689 0.841654
Si Si4 0.177468 0.861039 0.087086
Si Si5 0.407365 0.258202 0.666439
Si Si6 0.661910 0.021479 0.850539
O O1 0.334748 0.665253 0.750000
O O2 0.441067 0.629933 0.882538
O O3 0.308633 0.809430 0.867224
O O4 0.213664 0.601699 0.873096
O O5 0.122457 0.693614 0.380952
O O6 0.169408 0.505014 0.303933
O O7 0.026038 0.659178 0.243743
O O8 0.966000 0.530590 0.364755
O O9 0.968824 0.096471 0.888692
O O10 0.147648 0.965145 0.858798
O O11 0.992708 0.007293 0.750000
O O12 0.127582 0.740335 0.119194
O O13 0.179572 0.852963 0.992619
#
# Coordination Sequence:
#
# PCOD8305475 Si02
#       6
#     8   8   8   8   8   8
#     4  11  26  46  71 100 139 187 232 285 350 408
#     4  12  26  42  70 106 136 180 229 285 344 413
#     4  11  25  45  72 100 137 181 232 285 350 414
#     4  11  24  46  68  99 136 182 228 280 353 408
#     4  12  27  42  72 102 139 181 234 290 338 422
#     4  11  25  45  70  96 141 179 226 290 342 410
#
# _framework density 21.362921
#
# number of rings (size 3 to 8) (size 9 to 14) (size 15 to 20)
#    0.000    0.667    1.667    6.500    9.333    1.333 
#    0.000    0.000    0.000    0.000    0.000    0.000 
#    0.000    0.000    0.000    0.000    0.000    0.000 
#
# Total GULP energy -595663.187435 kJ/mol
# GULP energy per Si atom -12409.649738 kJ/mol
# Density = 2.131430 g / cm^3
# Si number density = 21.362921 Si / 1000 Ang^3
#
#
#
# Elastic Constant Matrix: (Units=GPa)
#
#
# Indices 1 2 3 4 5 6 
#
# 1 87.9860 30.6006 15.2824 0.0000 0.0000 0.0000
# 2 30.6006 87.9863 15.2826 0.0000 0.0000 0.0000
# 3 15.2824 15.2826 110.5022 0.0000 0.0000 0.0000
# 4 0.0000 0.0000 0.0000 32.8158 0.0000 0.0000
# 5 0.0000 0.0000 0.0000 0.0000 32.8159 0.0000
# 6 0.0000 0.0000 0.0000 0.0000 0.0000 44.9636
#
#
#
# Elastic Compliance Matrix: (Units=1/GPa)
#
#
# Indices 1 2 3 4 5 6 
#
# 1 0.013085 -0.004341 -0.001209 0.000000 0.000000 0.000000
# 2 -0.004341 0.013085 -0.001209 0.000000 0.000000 0.000000
# 3 -0.001209 -0.001209 0.009384 0.000000 0.000000 0.000000
# 4 0.000000 0.000000 0.000000 0.030473 0.000000 0.000000
# 5 0.000000 0.000000 0.000000 0.000000 0.030473 0.000000
# 6 0.000000 0.000000 0.000000 0.000000 0.000000 0.022240
#
#
# Mechanical properties :
#
#
# Convention : Reuss Voigt Hill
#
# Bulk Modulus (GPa) = 45.38151 45.42286 45.40219
# Shear Modulus (GPa) = 35.81534 37.13965 36.47750
#
# Velocity S-wave (km/s) = 4.09897 4.17407 4.13669
# Velocity P-wave (km/s) = 6.60994 6.67376 6.64193
#
# Compressibility (1/GPa) = 0.02203540
#
# Stress axis : x y z
#
# Youngs Moduli (GPa) = 76.42231 76.42247 106.56319
#
# Poissons Ratio (x) = 0.33174 0.12887
# Poissons Ratio (y) = 0.33174 0.12887
# Poissons Ratio (z) = 0.09242 0.09242
#
# Static dielectric constant tensor:
#      x y z
#    x 3.832220 0.000000 0.000000 
#    y 0.000000 3.832220 0.000000 
#    z 0.000000 0.000000 3.937470 
# 
# 
# High freq. dielectric constant tensor:
#      x y z
#    x 1.843920 0.000000 0.000000 
#    y 0.000000 1.843920 0.000000 
#    z 0.000000 0.000000 1.854810 
# 
# From -- ./inp_files/3113.got.cif
#   From: 2010.03.12/outbox.cif.g09.slc.cpg/sg92_2_cif.got.tgz:3113.got - 2010.04.08 20:41:11.
