data_PCOD8305764
_publ_section_title
;
Structure prediction by ZEFSAII (Michael W. Deem and Ramdas Pophale) SiO2 
 PCOD8305764
Probable space group: P 42 21 2
;
_chemical_formula_sum "Si O2"
_cell_formula_units_Z 60
_cell_length_a 14.180910
_cell_length_b 14.180910
_cell_length_c 13.402065
_cell_angle_alpha 90.000000
_cell_angle_beta 90.000000
_cell_angle_gamma 90.000000
_cell_volume 2695.131261
_symmetry_space_group_name_H-M "P 42 21 2"
_symmetry_group_IT_number 94
_symmetry_cell_setting 'tetragonal'
loop_
_space_group_symop_operation_xyz
x,y,z
1/2-y,1/2+x,1/2+z
-x,-y,z
1/2+y,1/2-x,1/2+z
1/2+x,1/2-y,1/2-z
1/2-x,1/2+y,1/2-z
y,x,-z
-y,-x,-z
loop_
_atom_site_type_symbol
_atom_site_label
_atom_site_fract_x
_atom_site_fract_y
_atom_site_fract_z
Si Si1 0.205703 0.715908 0.322601
Si Si2 0.550454 0.208764 0.835301
Si Si3 0.461971 0.333632 0.439790
Si Si4 0.169930 0.675031 0.985617
Si Si5 0.829968 0.829968 0.000000
Si Si6 0.431966 0.584725 0.883637
Si Si7 0.642848 0.141137 0.245490
Si Si8 0.723119 0.513284 0.768352
O O1 0.202058 0.640360 0.235294
O O2 0.242059 0.671166 0.425066
O O3 0.270780 0.803238 0.293521
O O4 0.098744 0.750501 0.342276
O O5 0.520975 0.318537 0.845888
O O6 0.465161 0.148636 0.788230
O O7 0.582474 0.169754 0.943769
O O8 0.425724 0.425724 0.500000
O O9 0.416225 0.242191 0.487493
O O10 0.573928 0.325734 0.439466
O O11 0.438389 0.337041 0.321788
O O12 0.147730 0.644604 0.873781
O O13 0.269550 0.730451 0.000000
O O14 0.500000 0.500000 0.853557
O O15 0.333291 0.567112 0.828158
O O16 0.411215 0.588786 0.000000
O O17 0.541342 0.185289 0.276744
#
# Coordination Sequence:
#
# PCOD8305764 Si02
#       8
#     8   8   8   8   4   8   8   8
#     4  12  25  45  68 102 148 190 241 303 368 441
#     4  12  23  44  75 102 146 197 245 304 368 444
#     4  11  23  44  73 104 139 187 247 303 365 431
#     4  11  21  43  75 102 142 195 243 296 369 445
#     4  12  25  42  68 108 149 184 240 314 374 419
#     4  11  24  42  71 109 141 185 247 298 367 436
#     4  12  25  44  73 109 142 193 247 304 371 441
#     4  12  24  46  70 100 149 192 238 303 364 442
#
# _framework density 22.262367999999999
#
# number of rings (size 3 to 8) (size 9 to 14) (size 15 to 20)
#    0.000    0.400    5.333    3.800    0.000    5.867 
#    0.000    0.000    0.000    0.000    0.000    0.000 
#    0.000    0.000    0.000    0.000    0.000    0.000 
#
# Total GULP energy -744155.125888 kJ/mol
# GULP energy per Si atom -12402.585431 kJ/mol
# Density = 2.221170 g / cm^3
# Si number density = 22.262368 Si / 1000 Ang^3
#
#
#
# Elastic Constant Matrix: (Units=GPa)
#
#
# Indices 1 2 3 4 5 6 
#
# 1 85.4233 37.2037 22.8634 0.0000 0.0000 0.0000
# 2 37.2037 85.4216 22.8635 0.0000 0.0000 0.0000
# 3 22.8634 22.8635 99.2301 0.0000 0.0000 0.0000
# 4 0.0000 0.0000 0.0000 26.7935 0.0000 0.0000
# 5 0.0000 0.0000 0.0000 0.0000 26.7939 0.0000
# 6 0.0000 0.0000 0.0000 0.0000 0.0000 37.5034
#
#
#
# Elastic Compliance Matrix: (Units=1/GPa)
#
#
# Indices 1 2 3 4 5 6 
#
# 1 0.014830 -0.005909 -0.002056 0.000000 0.000000 0.000000
# 2 -0.005909 0.014830 -0.002056 0.000000 0.000000 0.000000
# 3 -0.002056 -0.002056 0.011025 0.000000 0.000000 0.000000
# 4 0.000000 0.000000 0.000000 0.037323 0.000000 0.000000
# 5 0.000000 0.000000 0.000000 0.000000 0.037322 0.000000
# 6 0.000000 0.000000 0.000000 0.000000 0.000000 0.026664
#
#
# Mechanical properties :
#
#
# Convention : Reuss Voigt Hill
#
# Bulk Modulus (GPa) = 48.43708 48.43736 48.43722
# Shear Modulus (GPa) = 29.60066 30.69445 30.14756
#
# Velocity S-wave (km/s) = 3.65036 3.71719 3.68393
# Velocity P-wave (km/s) = 6.29059 6.34256 6.31663
#
# Compressibility (1/GPa) = 0.02064534
#
# Stress axis : x y z
#
# Youngs Moduli (GPa) = 67.43116 67.42969 90.70436
#
# Poissons Ratio (x) = 0.39842 0.18644
# Poissons Ratio (y) = 0.39843 0.18645
# Poissons Ratio (z) = 0.13861 0.13861
#
# Static dielectric constant tensor:
#      x y z
#    x 4.124810 0.000000 0.000000 
#    y 0.000000 4.124800 0.000000 
#    z 0.000000 0.000000 4.077160 
# 
# 
# High freq. dielectric constant tensor:
#      x y z
#    x 1.876250 0.000000 0.000000 
#    y 0.000000 1.876250 0.000000 
#    z 0.000000 0.000000 1.883990 
# 
# From -- ./inp_files/3604.got.cif
#   From: 2010.03.12/outbox.cif.g09.slc.cpg/sg94_2_cif.got.tgz:3604.got - 2010.04.08 20:48:32.
