data_PCOD8305660
_publ_section_title
;
Structure prediction by ZEFSAII (Michael W. Deem and Ramdas Pophale) SiO2 
 PCOD8305660
Probable space group: P 42 21 2
;
_chemical_formula_sum "Si O2"
_cell_formula_units_Z 48
_cell_length_a 11.445318
_cell_length_b 11.445318
_cell_length_c 17.633801
_cell_angle_alpha 90.000000
_cell_angle_beta 90.000000
_cell_angle_gamma 90.000000
_cell_volume 2309.945125
_symmetry_space_group_name_H-M "P 42 21 2"
_symmetry_group_IT_number 94
_symmetry_cell_setting 'tetragonal'
loop_
_space_group_symop_operation_xyz
x,y,z
1/2-y,1/2+x,1/2+z
-x,-y,z
1/2+y,1/2-x,1/2+z
1/2+x,1/2-y,1/2-z
1/2-x,1/2+y,1/2-z
y,x,-z
-y,-x,-z
loop_
_atom_site_type_symbol
_atom_site_label
_atom_site_fract_x
_atom_site_fract_y
_atom_site_fract_z
Si Si1 0.861833 0.330186 0.512887
Si Si2 0.271119 0.377286 0.329053
Si Si3 0.138175 0.511360 0.869864
Si Si4 0.820694 0.562307 0.712095
Si Si5 0.680644 0.507179 0.475055
Si Si6 0.833133 0.568629 0.177322
O O1 0.756356 0.243645 0.500000
O O2 0.962900 0.318146 0.450129
O O3 0.805468 0.462499 0.509855
O O4 0.920489 0.290720 0.591233
O O5 0.372607 0.280729 0.333533
O O6 0.306248 0.486307 0.383297
O O7 0.266608 0.417441 0.241242
O O8 0.147388 0.326277 0.359862
O O9 0.196411 0.432395 0.803441
O O10 0.000000 0.500000 0.858874
O O11 0.826463 0.426234 0.689221
O O12 0.941592 0.616447 0.686807
O O13 0.638713 0.638713 0.500000
O O14 0.581658 0.418343 0.500000
#
# Coordination Sequence:
#
# PCOD8305660 Si02
#       6
#     8   8   8   8   8   8
#     4  11  22  36  59  85 121 164 204 255 319 376
#     4  11  21  37  64  87 123 165 206 262 323 386
#     4  11  20  39  62  90 123 157 212 264 315 384
#     4  10  20  37  58  87 118 159 202 256 319 375
#     4  10  21  36  56  91 127 159 205 268 325 382
#     4  10  21  37  57  87 119 157 209 258 303 397
#
# _framework density 20.779714999999999
#
# number of rings (size 3 to 8) (size 9 to 14) (size 15 to 20)
#    0.000    1.500    5.000    2.000    2.333    2.667 
#    0.000    1.667    0.000    6.000    0.000    0.000 
#    0.000    0.000    0.000    0.000    0.000    0.000 
#
# Total GULP energy -594783.147253 kJ/mol
# GULP energy per Si atom -12391.315568 kJ/mol
# Density = 2.073242 g / cm^3
# Si number density = 20.779715 Si / 1000 Ang^3
#
#
#
# Elastic Constant Matrix: (Units=GPa)
#
#
# Indices 1 2 3 4 5 6 
#
# 1 48.5343 19.7232 32.6311 0.0000 0.0000 0.0000
# 2 19.7232 48.5331 32.6293 0.0000 0.0000 0.0000
# 3 32.6311 32.6293 171.5468 0.0000 0.0000 0.0000
# 4 0.0000 0.0000 0.0000 30.8341 0.0000 0.0000
# 5 0.0000 0.0000 0.0000 0.0000 30.8341 0.0000
# 6 0.0000 0.0000 0.0000 0.0000 0.0000 22.7685
#
#
#
# Elastic Compliance Matrix: (Units=1/GPa)
#
#
# Indices 1 2 3 4 5 6 
#
# 1 0.026308 -0.008401 -0.003406 0.000000 0.000000 0.000000
# 2 -0.008401 0.026308 -0.003406 0.000000 0.000000 0.000000
# 3 -0.003406 -0.003406 0.007125 0.000000 0.000000 0.000000
# 4 0.000000 0.000000 0.000000 0.032432 0.000000 0.000000
# 5 0.000000 0.000000 0.000000 0.000000 0.032432 0.000000
# 6 0.000000 0.000000 0.000000 0.000000 0.000000 0.043920
#
#
# Mechanical properties :
#
#
# Convention : Reuss Voigt Hill
#
# Bulk Modulus (GPa) = 34.11244 48.73126 41.42185
# Shear Modulus (GPa) = 23.95508 29.12937 26.54222
#
# Velocity S-wave (km/s) = 3.39899 3.74815 3.57783
# Velocity P-wave (km/s) = 5.64412 6.49875 6.08645
#
# Compressibility (1/GPa) = 0.02931482
#
# Stress axis : x y z
#
# Youngs Moduli (GPa) = 38.01095 38.01056 140.34903
#
# Poissons Ratio (x) = 0.31933 0.47807
# Poissons Ratio (y) = 0.31934 0.47803
# Poissons Ratio (z) = 0.12948 0.12946
#
# Static dielectric constant tensor:
#      x y z
#    x 3.799640 0.000000 0.000000 
#    y 0.000000 3.799650 0.000000 
#    z 0.000000 0.000000 4.099710 
# 
# 
# High freq. dielectric constant tensor:
#      x y z
#    x 1.789500 0.000000 0.000000 
#    y 0.000000 1.789500 0.000000 
#    z 0.000000 0.000000 1.832220 
# 
# From -- ./inp_files/4092.got.cif
#   From: 2010.03.12/outbox.cif.g09.slc.cpg/sg94_3_cif.got.tgz:4092.got - 2010.04.08 20:48:32.
