data_PCOD8305405
_publ_section_title
;
Structure prediction by ZEFSAII (Michael W. Deem and Ramdas Pophale) SiO2 
 PCOD8305405
Probable space group: P 41 21 2
;
_chemical_formula_sum "Si O2"
_cell_formula_units_Z 40
_cell_length_a 7.887507
_cell_length_b 7.887507
_cell_length_c 29.377321
_cell_angle_alpha 90.000000
_cell_angle_beta 90.000000
_cell_angle_gamma 90.000000
_cell_volume 1827.644417
_symmetry_space_group_name_H-M "P 41 21 2"
_symmetry_group_IT_number 92
_symmetry_cell_setting 'tetragonal'
loop_
_space_group_symop_operation_xyz
x,y,z
1/2-y,1/2+x,1/4+z
-x,-y,1/2+z
1/2+y,1/2-x,3/4+z
1/2+x,1/2-y,3/4-z
1/2-x,1/2+y,1/4-z
y,x,-z
-y,-x,1/2-z
loop_
_atom_site_type_symbol
_atom_site_label
_atom_site_fract_x
_atom_site_fract_y
_atom_site_fract_z
Si Si1 0.479326 0.370476 0.124640
Si Si2 0.242694 0.112807 0.869334
Si Si3 0.810226 0.313728 0.071154
Si Si4 0.939344 0.836512 0.955990
Si Si5 0.752205 0.501382 0.982245
O O1 0.419970 0.557288 0.137658
O O2 0.305140 0.273971 0.112984
O O3 0.622085 0.374525 0.085627
O O4 0.576144 0.306255 0.170476
O O5 0.361511 0.966036 0.893581
O O6 0.244112 0.106587 0.814350
O O7 0.798768 0.112952 0.069129
O O8 0.843764 0.390934 0.021336
O O9 0.870021 0.659950 0.973414
O O10 0.958814 0.958814 0.000000
O O11 0.567552 0.567552 0.000000
#
# Coordination Sequence:
#
# PCOD8305405 Si02
#       5
#     8   8   8   8   8
#     4  11  24  42  68 100 134 179 235 287 354 422
#     4  11  25  42  70 100 139 182 230 296 357 420
#     4  11  24  44  66 103 137 178 244 288 357 434
#     4  10  23  41  66  93 132 179 222 285 353 422
#     4  11  22  42  68  94 135 181 227 285 353 423
#
# _framework density 21.886095999999998
#
# number of rings (size 3 to 8) (size 9 to 14) (size 15 to 20)
#    0.000    1.200    4.000    1.200    2.800    4.800 
#    0.000    0.000    0.000    0.000    0.000    0.000 
#    0.000    0.000    0.000    0.000    0.000    0.000 
#
# Total GULP energy -495548.703502 kJ/mol
# GULP energy per Si atom -12388.717588 kJ/mol
# Density = 2.183628 g / cm^3
# Si number density = 21.886096 Si / 1000 Ang^3
#
#
#
# Elastic Constant Matrix: (Units=GPa)
#
#
# Indices 1 2 3 4 5 6 
#
# 1 85.5342 24.4065 12.2622 0.0000 0.0000 0.0000
# 2 24.4065 85.5342 12.2622 0.0000 0.0000 0.0000
# 3 12.2622 12.2622 110.2261 0.0000 0.0000 0.0000
# 4 0.0000 0.0000 0.0000 31.6461 0.0000 0.0000
# 5 0.0000 0.0000 0.0000 0.0000 31.6461 0.0000
# 6 0.0000 0.0000 0.0000 0.0000 0.0000 32.7187
#
#
#
# Elastic Compliance Matrix: (Units=1/GPa)
#
#
# Indices 1 2 3 4 5 6 
#
# 1 0.012843 -0.003516 -0.001038 0.000000 0.000000 0.000000
# 2 -0.003516 0.012843 -0.001038 0.000000 0.000000 0.000000
# 3 -0.001038 -0.001038 0.009303 0.000000 0.000000 0.000000
# 4 0.000000 0.000000 0.000000 0.031599 0.000000 0.000000
# 5 0.000000 0.000000 0.000000 0.000000 0.031599 0.000000
# 6 0.000000 0.000000 0.000000 0.000000 0.000000 0.030564
#
#
# Mechanical properties :
#
#
# Convention : Reuss Voigt Hill
#
# Bulk Modulus (GPa) = 42.00412 42.12848 42.06630
# Shear Modulus (GPa) = 33.81342 34.69307 34.25325
#
# Velocity S-wave (km/s) = 3.93488 3.98573 3.96039
# Velocity P-wave (km/s) = 6.31492 6.36177 6.33839
#
# Compressibility (1/GPa) = 0.02380719
#
# Stress axis : x y z
#
# Youngs Moduli (GPa) = 77.86195 77.86195 107.49072
#
# Poissons Ratio (x) = 0.27376 0.11153
# Poissons Ratio (y) = 0.27376 0.11153
# Poissons Ratio (z) = 0.08079 0.08079
#
# Static dielectric constant tensor:
#      x y z
#    x 4.043990 0.000000 0.000000 
#    y 0.000000 4.043990 0.000000 
#    z 0.000000 0.000000 4.715120 
# 
# 
# High freq. dielectric constant tensor:
#      x y z
#    x 1.851610 0.000000 0.000000 
#    y 0.000000 1.851610 0.000000 
#    z 0.000000 0.000000 1.875450 
# 
# From -- ./inp_files/4167.got.cif
#   From: 2010.03.12/outbox.cif.g09.slc.cpg/sg92_3_cif.got.tgz:4167.got - 2010.04.08 20:41:11.
