data_PCOD8305108
_publ_section_title
;
Structure prediction by ZEFSAII (Michael W. Deem and Ramdas Pophale) SiO2 
 PCOD8305108
Probable space group: P 41 2 2
;
_chemical_formula_sum "Si O2"
_cell_formula_units_Z 32
_cell_length_a 11.637384
_cell_length_b 11.637384
_cell_length_c 11.187558
_cell_angle_alpha 90.000000
_cell_angle_beta 90.000000
_cell_angle_gamma 90.000000
_cell_volume 1515.116507
_symmetry_space_group_name_H-M "P 41 2 2"
_symmetry_group_IT_number 91
_symmetry_cell_setting 'tetragonal'
loop_
_space_group_symop_operation_xyz
x,y,z
-y,x,1/4+z
-x,-y,1/2+z
y,-x,3/4+z
x,-y,1/2-z
-x,y,-z
y,x,3/4-z
-y,-x,1/4-z
loop_
_atom_site_type_symbol
_atom_site_label
_atom_site_fract_x
_atom_site_fract_y
_atom_site_fract_z
Si Si1 0.053895 0.053895 0.875000
Si Si2 0.392580 0.744679 0.928625
Si Si3 0.686346 0.985246 0.116366
Si Si4 0.500173 0.670188 0.689738
Si Si5 0.135478 0.500000 0.750000
O O1 0.036545 0.188243 0.863881
O O2 0.005264 0.000000 0.750000
O O3 0.303886 0.850577 0.921398
O O4 0.414938 0.703191 0.794409
O O5 0.354119 0.627166 0.994463
O O6 0.500000 0.796502 0.000000
O O7 0.633303 0.000000 0.250000
O O8 0.610247 0.054947 0.021334
O O9 0.441243 0.558758 0.625000
O O10 0.520064 0.782734 0.611692
#
# Coordination Sequence:
#
# PCOD8305108 Si02
#       5
#     4   8   8   8   4
#     4  10  26  50  74  98 134 182 244 292 346 406
#     4  12  24  43  63 101 140 171 214 281 345 403
#     4  11  25  45  68  94 135 184 227 281 337 406
#     4  12  24  40  70 100 133 176 219 272 342 416
#     4  12  24  40  66 100 126 178 234 262 332 416
#
# _framework density 21.120488999999999
#
# number of rings (size 3 to 8) (size 9 to 14) (size 15 to 20)
#    0.000    0.500    6.250    2.250    8.750    0.000 
#    4.500    1.250    0.000    0.000    0.000    0.000 
#    0.000    0.000    0.000    0.000    0.000    0.000 
#
# Total GULP energy -396647.663082 kJ/mol
# GULP energy per Si atom -12395.239471 kJ/mol
# Density = 2.107242 g / cm^3
# Si number density = 21.120489 Si / 1000 Ang^3
#
#
#
# Elastic Constant Matrix: (Units=GPa)
#
#
# Indices 1 2 3 4 5 6 
#
# 1 130.7437 51.2490 14.5016 0.0000 0.0000 0.0000
# 2 51.2490 130.7445 14.5022 0.0000 0.0000 0.0000
# 3 14.5016 14.5022 69.3585 0.0000 0.0000 0.0000
# 4 0.0000 0.0000 0.0000 31.7957 0.0000 0.0000
# 5 0.0000 0.0000 0.0000 0.0000 31.7955 0.0000
# 6 0.0000 0.0000 0.0000 0.0000 0.0000 36.6598
#
#
#
# Elastic Compliance Matrix: (Units=1/GPa)
#
#
# Indices 1 2 3 4 5 6 
#
# 1 0.009132 -0.003448 -0.001188 0.000000 0.000000 0.000000
# 2 -0.003448 0.009132 -0.001189 0.000000 0.000000 0.000000
# 3 -0.001188 -0.001189 0.014915 0.000000 0.000000 0.000000
# 4 0.000000 0.000000 0.000000 0.031451 0.000000 0.000000
# 5 0.000000 0.000000 0.000000 0.000000 0.031451 0.000000
# 6 0.000000 0.000000 0.000000 0.000000 0.000000 0.027278
#
#
# Mechanical properties :
#
#
# Convention : Reuss Voigt Hill
#
# Bulk Modulus (GPa) = 46.44858 54.59470 50.52164
# Shear Modulus (GPa) = 35.16583 36.75646 35.96114
#
# Velocity S-wave (km/s) = 4.08488 4.17624 4.13081
# Velocity P-wave (km/s) = 6.65494 7.01142 6.83550
#
# Compressibility (1/GPa) = 0.02152918
#
# Stress axis : x y z
#
# Youngs Moduli (GPa) = 109.50769 109.50817 67.04737
#
# Poissons Ratio (x) = 0.37754 0.07968
# Poissons Ratio (y) = 0.37754 0.07969
# Poissons Ratio (z) = 0.13014 0.13015
#
# Static dielectric constant tensor:
#      x y z
#    x 3.884810 0.000000 0.000000 
#    y 0.000000 3.884810 0.000000 
#    z 0.000000 0.000000 4.170290 
# 
# 
# High freq. dielectric constant tensor:
#      x y z
#    x 1.827540 0.000000 0.000000 
#    y 0.000000 1.827540 0.000000 
#    z 0.000000 0.000000 1.832790 
# 
# From -- ./inp_files/3406.got.cif
#   From: 2010.03.12/outbox.cif.g09.slc.cpg/sg91_2_cif.got.tgz:3406.got - 2010.04.08 20:27:58.
