data_PCOD8305353
_publ_section_title
;
Structure prediction by ZEFSAII (Michael W. Deem and Ramdas Pophale) SiO2 
 PCOD8305353
Probable space group: P 41 21 2
;
_chemical_formula_sum "Si O2"
_cell_formula_units_Z 40
_cell_length_a 7.936123
_cell_length_b 7.936123
_cell_length_c 25.939277
_cell_angle_alpha 90.000000
_cell_angle_beta 90.000000
_cell_angle_gamma 90.000000
_cell_volume 1633.708796
_symmetry_space_group_name_H-M "P 41 21 2"
_symmetry_group_IT_number 92
_symmetry_cell_setting 'tetragonal'
loop_
_space_group_symop_operation_xyz
x,y,z
1/2-y,1/2+x,1/4+z
-x,-y,1/2+z
1/2+y,1/2-x,3/4+z
1/2+x,1/2-y,3/4-z
1/2-x,1/2+y,1/4-z
y,x,-z
-y,-x,1/2-z
loop_
_atom_site_type_symbol
_atom_site_label
_atom_site_fract_x
_atom_site_fract_y
_atom_site_fract_z
Si Si1 0.989539 0.911662 0.439958
Si Si2 0.639813 0.796515 0.452397
Si Si3 0.791075 0.841458 0.311600
Si Si4 0.157046 0.842307 0.628936
Si Si5 0.578716 0.180866 0.452540
O O1 0.961813 0.961813 0.500000
O O2 0.817539 0.810775 0.420931
O O3 0.156258 0.805686 0.430151
O O4 0.999345 0.079037 0.404515
O O5 0.673843 0.673843 0.500000
O O6 0.480610 0.718849 0.421603
O O7 0.591420 0.986767 0.470308
O O8 0.798439 0.896990 0.251859
O O9 0.738298 0.004796 0.344064
O O10 0.243173 0.719559 0.588033
O O11 0.285348 0.901945 0.673365
#
# Coordination Sequence:
#
# PCOD8305353 Si02
#       5
#     8   8   8   8   8
#     4  10  22  49  68 103 147 188 245 307 369 437
#     4  10  21  44  73 101 142 193 236 299 367 437
#     4  12  24  46  78 101 148 197 246 312 379 449
#     4  11  26  43  70 109 146 193 257 304 381 461
#     4  11  25  48  65 110 150 186 250 319 367 459
#
# _framework density 24.484165000000001
#
# number of rings (size 3 to 8) (size 9 to 14) (size 15 to 20)
#    0.000    1.200    6.000    1.800    8.400    1.600 
#    3.600    0.000    0.000    0.000    0.000    0.000 
#    0.000    0.000    0.000    0.000    0.000    0.000 
#
# Total GULP energy -495703.228491 kJ/mol
# GULP energy per Si atom -12392.580712 kJ/mol
# Density = 2.442844 g / cm^3
# Si number density = 24.484165 Si / 1000 Ang^3
#
#
#
# Elastic Constant Matrix: (Units=GPa)
#
#
# Indices 1 2 3 4 5 6 
#
# 1 76.6896 -1.5833 14.6053 0.0000 0.0000 0.0000
# 2 -1.5833 76.6896 14.6053 0.0000 0.0000 0.0000
# 3 14.6053 14.6053 78.6169 0.0000 0.0000 0.0000
# 4 0.0000 0.0000 0.0000 36.9925 0.0000 0.0000
# 5 0.0000 0.0000 0.0000 0.0000 36.9925 0.0000
# 6 0.0000 0.0000 0.0000 0.0000 0.0000 43.6127
#
#
#
# Elastic Compliance Matrix: (Units=1/GPa)
#
#
# Indices 1 2 3 4 5 6 
#
# 1 0.013564 0.000788 -0.002666 0.000000 0.000000 0.000000
# 2 0.000788 0.013564 -0.002666 0.000000 0.000000 0.000000
# 3 -0.002666 -0.002666 0.013711 0.000000 0.000000 0.000000
# 4 0.000000 0.000000 0.000000 0.027033 0.000000 0.000000
# 5 0.000000 0.000000 0.000000 0.000000 0.027033 0.000000
# 6 0.000000 0.000000 0.000000 0.000000 0.000000 0.022929
#
#
# Mechanical properties :
#
#
# Convention : Reuss Voigt Hill
#
# Bulk Modulus (GPa) = 31.49742 31.91676 31.70709
# Shear Modulus (GPa) = 36.36261 37.14413 36.75337
#
# Velocity S-wave (km/s) = 3.85794 3.89918 3.87862
# Velocity P-wave (km/s) = 5.72165 5.77369 5.74773
#
# Compressibility (1/GPa) = 0.03174863
#
# Stress axis : x y z
#
# Youngs Moduli (GPa) = 73.72674 73.72674 72.93661
#
# Poissons Ratio (x) = -0.05808 0.19446
# Poissons Ratio (y) = -0.05808 0.19446
# Poissons Ratio (z) = 0.19657 0.19657
#
# Static dielectric constant tensor:
#      x y z
#    x 4.244480 0.000000 0.000000 
#    y 0.000000 4.244480 0.000000 
#    z 0.000000 0.000000 4.725370 
# 
# 
# High freq. dielectric constant tensor:
#      x y z
#    x 1.959130 0.000000 0.000000 
#    y 0.000000 1.959130 0.000000 
#    z 0.000000 0.000000 1.993450 
# 
# From -- ./inp_files/4176.got.cif
#   From: 2010.03.12/outbox.cif.g09.slc.cpg/sg92_3_cif.got.tgz:4176.got - 2010.04.08 20:41:11.
