data_PCOD8305508
_publ_section_title
;
Structure prediction by ZEFSAII (Michael W. Deem and Ramdas Pophale) SiO2 
 PCOD8305508
Probable space group: P 42 2 2
;
_chemical_formula_sum "Si O2"
_cell_formula_units_Z 40
_cell_length_a 15.044988
_cell_length_b 15.044988
_cell_length_c 7.961138
_cell_angle_alpha 90.000000
_cell_angle_beta 90.000000
_cell_angle_gamma 90.000000
_cell_volume 1802.016833
_symmetry_space_group_name_H-M "P 42 2 2"
_symmetry_group_IT_number 93
_symmetry_cell_setting 'tetragonal'
loop_
_space_group_symop_operation_xyz
x,y,z
-y,x,1/2+z
-x,-y,z
y,-x,1/2+z
x,-y,-z
-x,y,-z
y,x,1/2-z
-y,-x,1/2-z
loop_
_atom_site_type_symbol
_atom_site_label
_atom_site_fract_x
_atom_site_fract_y
_atom_site_fract_z
Si Si1 0.823874 0.070215 0.864654
Si Si2 0.380570 0.814518 0.321095
Si Si3 0.816166 0.553478 0.327235
Si Si4 0.642526 0.993111 0.202497
Si Si5 0.277759 0.760075 0.992428
O O1 0.908613 0.091388 0.750000
O O2 0.745181 0.027101 0.753580
O O3 0.790733 0.163037 0.945316
O O4 0.858318 0.000000 0.000000
O O5 0.481309 0.774964 0.303905
O O6 0.319802 0.783749 0.168942
O O7 0.334099 0.776199 0.491456
O O8 0.386983 0.921563 0.309901
O O9 0.833005 0.500000 0.500000
O O10 0.910790 0.580607 0.247191
O O11 0.754656 0.641409 0.355436
O O12 0.637302 0.000000 0.000000
#
# Coordination Sequence:
#
# PCOD8305508 Si02
#       5
#     8   8   8   8   8
#     4  10  19  36  58  78 105 154 211 255 298 358
#     4  10  16  26  50  76 116 148 197 247 296 359
#     4   9  15  24  46  79 109 150 202 238 292 374
#     4  10  15  27  48  76 106 139 202 251 294 359
#     4   9  18  29  47  78 116 149 201 242 300 363
#
# _framework density 22.197348999999999
#
# number of rings (size 3 to 8) (size 9 to 14) (size 15 to 20)
#    0.000    2.400    8.000    0.600    0.000    0.000 
#    0.000    1.000    0.000   14.400    0.000    5.600 
#    0.000    0.000    0.000  820.800  115.200    2.800 
#
# Total GULP energy -495530.060703 kJ/mol
# GULP energy per Si atom -12388.251518 kJ/mol
# Density = 2.214683 g / cm^3
# Si number density = 22.197349 Si / 1000 Ang^3
#
#
#
# Elastic Constant Matrix: (Units=GPa)
#
#
# Indices 1 2 3 4 5 6 
#
# 1 114.6647 84.8359 46.1982 0.0000 0.0000 0.0000
# 2 84.8359 114.6668 46.1979 0.0000 0.0000 0.0000
# 3 46.1982 46.1979 49.5569 0.0000 0.0000 0.0000
# 4 0.0000 0.0000 0.0000 12.3987 0.0000 0.0000
# 5 0.0000 0.0000 0.0000 0.0000 12.3986 0.0000
# 6 0.0000 0.0000 0.0000 0.0000 0.0000 23.2810
#
#
#
# Elastic Compliance Matrix: (Units=1/GPa)
#
#
# Indices 1 2 3 4 5 6 
#
# 1 0.021172 -0.012351 -0.008223 0.000000 0.000000 0.000000
# 2 -0.012351 0.021172 -0.008223 0.000000 0.000000 0.000000
# 3 -0.008223 -0.008223 0.035510 0.000000 0.000000 0.000000
# 4 0.000000 0.000000 0.000000 0.080654 0.000000 0.000000
# 5 0.000000 0.000000 0.000000 0.000000 0.080655 0.000000
# 6 0.000000 0.000000 0.000000 0.000000 0.000000 0.042954
#
#
# Mechanical properties :
#
#
# Convention : Reuss Voigt Hill
#
# Bulk Modulus (GPa) = 49.35862 70.37248 59.86555
# Shear Modulus (GPa) = 14.43151 16.39274 15.41212
#
# Velocity S-wave (km/s) = 2.55256 2.72048 2.63786
# Velocity P-wave (km/s) = 5.56525 6.45290 6.02544
#
# Compressibility (1/GPa) = 0.02025988
#
# Stress axis : x y z
#
# Youngs Moduli (GPa) = 47.23111 47.23276 28.16094
#
# Poissons Ratio (x) = 0.58338 0.23158
# Poissons Ratio (y) = 0.58336 0.23156
# Poissons Ratio (z) = 0.38840 0.38838
#
# Static dielectric constant tensor:
#      x y z
#    x 4.429120 0.000000 0.000000 
#    y 0.000000 4.429120 0.000000 
#    z 0.000000 0.000000 5.798110 
# 
# 
# High freq. dielectric constant tensor:
#      x y z
#    x 1.862070 0.000000 0.000000 
#    y 0.000000 1.862060 0.000000 
#    z 0.000000 0.000000 1.849760 
# 
# From -- ./inp_files/1841.got.cif
#   From: 2010.03.12/outbox.cif.g09.slc.cpg/sg93_1_cif.got.tgz:1841.got - 2010.04.08 20:44:19.
