data_PCOD8305103
_publ_section_title
;
Structure prediction by ZEFSAII (Michael W. Deem and Ramdas Pophale) SiO2 
 PCOD8305103
Probable space group: P 41 2 2
;
_chemical_formula_sum "Si O2"
_cell_formula_units_Z 36
_cell_length_a 12.033113
_cell_length_b 12.033113
_cell_length_c 10.861938
_cell_angle_alpha 90.000000
_cell_angle_beta 90.000000
_cell_angle_gamma 90.000000
_cell_volume 1572.763094
_symmetry_space_group_name_H-M "P 41 2 2"
_symmetry_group_IT_number 91
_symmetry_cell_setting 'tetragonal'
loop_
_space_group_symop_operation_xyz
x,y,z
-y,x,1/4+z
-x,-y,1/2+z
y,-x,3/4+z
x,-y,1/2-z
-x,y,-z
y,x,3/4-z
-y,-x,1/4-z
loop_
_atom_site_type_symbol
_atom_site_label
_atom_site_fract_x
_atom_site_fract_y
_atom_site_fract_z
Si Si1 0.264908 0.335378 0.505521
Si Si2 0.723841 0.062889 0.918468
Si Si3 0.776494 0.223506 0.125000
Si Si4 0.939027 0.939027 0.875000
Si Si5 0.420508 0.224471 0.688037
Si Si6 0.954022 0.500000 0.750000
O O1 0.277214 0.277214 0.375000
O O2 0.151132 0.284598 0.558142
O O3 0.369222 0.311750 0.592897
O O4 0.269335 0.466999 0.495254
O O5 0.805916 0.961543 0.884417
O O6 0.598016 0.026521 0.942475
O O7 0.782032 0.119762 0.034773
O O8 0.661231 0.208743 0.197508
O O9 0.983420 0.000000 0.750000
O O10 0.444758 0.112821 0.611915
#
# Coordination Sequence:
#
# PCOD8305103 Si02
#       6
#     8   8   4   4   8   4
#     4  11  23  48  70 108 147 191 241 312 369 459
#     4  11  28  45  78 105 151 196 256 312 387 453
#     4  10  25  52  68 109 152 192 248 318 377 470
#     4  12  31  48  74 115 156 204 256 324 391 464
#     4  11  25  44  75 102 148 191 251 305 383 448
#     4  12  26  48  76 108 136 208 256 320 380 466
#
# _framework density 22.88965
#
# number of rings (size 3 to 8) (size 9 to 14) (size 15 to 20)
#    0.000    0.889    2.222    2.000   10.889    5.333 
#    6.000    0.000    0.000    0.000    0.000    0.000 
#    0.000    0.000    0.000    0.000    0.000    0.000 
#
# Total GULP energy -446396.064410 kJ/mol
# GULP energy per Si atom -12399.890678 kJ/mol
# Density = 2.283755 g / cm^3
# Si number density = 22.889650 Si / 1000 Ang^3
#
#
#
# Elastic Constant Matrix: (Units=GPa)
#
#
# Indices 1 2 3 4 5 6 
#
# 1 164.5165 22.6546 58.6178 0.0000 0.0000 0.0000
# 2 22.6546 164.5165 58.6178 0.0000 0.0000 0.0000
# 3 58.6178 58.6178 144.7570 0.0000 0.0000 0.0000
# 4 0.0000 0.0000 0.0000 0.8909 0.0000 0.0000
# 5 0.0000 0.0000 0.0000 0.0000 0.8909 0.0000
# 6 0.0000 0.0000 0.0000 0.0000 0.0000 36.1944
#
#
#
# Elastic Compliance Matrix: (Units=1/GPa)
#
#
# Indices 1 2 3 4 5 6 
#
# 1 0.007104 0.000055 -0.002899 0.000000 0.000000 0.000000
# 2 0.000055 0.007104 -0.002899 0.000000 0.000000 0.000000
# 3 -0.002899 -0.002899 0.009256 0.000000 0.000000 0.000000
# 4 0.000000 0.000000 0.000000 1.122415 0.000000 0.000000
# 5 0.000000 0.000000 0.000000 0.000000 1.122415 0.000000
# 6 0.000000 0.000000 0.000000 0.000000 0.000000 0.027629
#
#
# Mechanical properties :
#
#
# Convention : Reuss Voigt Hill
#
# Bulk Modulus (GPa) = 83.48916 83.73005 83.60960
# Shear Modulus (GPa) = 2.16319 29.85524 16.00921
#
# Velocity S-wave (km/s) = 0.97319 3.61544 2.64750
# Velocity P-wave (km/s) = 6.14952 7.35444 6.77881
#
# Compressibility (1/GPa) = 0.01197760
#
# Stress axis : x y z
#
# Youngs Moduli (GPa) = 140.77147 140.77147 108.04136
#
# Poissons Ratio (x) = -0.00769 0.31318
# Poissons Ratio (y) = -0.00769 0.31318
# Poissons Ratio (z) = 0.40805 0.40805
#
# Static dielectric constant tensor:
#      x y z
#    x 4.158110 0.000000 0.000000 
#    y 0.000000 4.158110 0.000000 
#    z 0.000000 0.000000 4.676130 
# 
# 
# High freq. dielectric constant tensor:
#      x y z
#    x 1.907010 0.000000 0.000000 
#    y 0.000000 1.907010 0.000000 
#    z 0.000000 0.000000 1.933490 
# 
# From -- ./inp_files/10551.got.cif
#   From: 2010.03.12/outbox.cif.g09.slc.cpg/sg91_6_cif.got.tgz:10551.got - 2010.04.08 20:27:58.
