data_PCOD8305908
_publ_section_title
;
Structure prediction by ZEFSAII (Michael W. Deem and Ramdas Pophale) SiO2 
 PCOD8305908
Probable space group: P 43 21 2
;
_chemical_formula_sum "Si O2"
_cell_formula_units_Z 48
_cell_length_a 10.775192
_cell_length_b 10.775192
_cell_length_c 19.439944
_cell_angle_alpha 90.000000
_cell_angle_beta 90.000000
_cell_angle_gamma 90.000000
_cell_volume 2257.070084
_symmetry_space_group_name_H-M "P 43 21 2"
_symmetry_group_IT_number 96
_symmetry_cell_setting 'tetragonal'
loop_
_space_group_symop_operation_xyz
x,y,z
1/2-y,1/2+x,3/4+z
-x,-y,1/2+z
1/2+y,1/2-x,1/4+z
1/2+x,1/2-y,1/4-z
1/2-x,1/2+y,3/4-z
y,x,-z
-y,-x,1/2-z
loop_
_atom_site_type_symbol
_atom_site_label
_atom_site_fract_x
_atom_site_fract_y
_atom_site_fract_z
Si Si1 0.976468 0.666620 0.227441
Si Si2 0.873691 0.934550 0.193589
Si Si3 0.807261 0.023977 0.330777
Si Si4 0.792240 0.806337 0.580741
Si Si5 0.739462 0.813252 0.071749
Si Si6 0.701660 0.050092 0.626603
O O1 0.102011 0.638804 0.187479
O O2 0.992482 0.628617 0.307440
O O3 0.941127 0.811896 0.222442
O O4 0.882370 0.575335 0.189885
O O5 0.775043 0.985342 0.251418
O O6 0.801876 0.906661 0.123947
O O7 0.971389 0.041781 0.172573
O O8 0.752455 0.916292 0.381559
O O9 0.754046 0.159400 0.353685
O O10 0.797703 0.797703 0.500000
O O11 0.800176 0.949935 0.601552
O O12 0.729133 0.674273 0.100914
O O13 0.815064 0.815064 0.000000
#
# Coordination Sequence:
#
# PCOD8305908 Si02
#       6
#     8   8   8   8   8   8
#     4  10  20  38  66  93 128 167 218 274 341 397
#     4  10  20  42  65  92 129 175 220 270 337 410
#     4  11  25  43  68  93 132 184 221 273 342 406
#     4  12  26  43  66  97 134 176 228 274 333 411
#     4   9  20  37  65  97 128 166 219 281 338 400
#     4  10  22  37  62  95 126 167 217 272 332 404
#
# _framework density 21.266508999999999
#
# number of rings (size 3 to 8) (size 9 to 14) (size 15 to 20)
#    0.000    1.667    3.333    1.000    7.000    3.333 
#    0.000    5.000    0.000    0.000    0.000    0.000 
#    0.000    0.000    0.000    0.000    0.000    0.000 
#
# Total GULP energy -594747.146009 kJ/mol
# GULP energy per Si atom -12390.565542 kJ/mol
# Density = 2.121811 g / cm^3
# Si number density = 21.266509 Si / 1000 Ang^3
#
#
#
# Elastic Constant Matrix: (Units=GPa)
#
#
# Indices 1 2 3 4 5 6 
#
# 1 68.7581 29.5201 39.6381 0.0000 0.0000 0.0000
# 2 29.5201 68.7581 39.6381 0.0000 0.0000 0.0000
# 3 39.6381 39.6381 79.7195 0.0000 0.0000 0.0000
# 4 0.0000 0.0000 0.0000 33.7123 0.0000 0.0000
# 5 0.0000 0.0000 0.0000 0.0000 33.7123 0.0000
# 6 0.0000 0.0000 0.0000 0.0000 0.0000 25.4455
#
#
#
# Elastic Compliance Matrix: (Units=1/GPa)
#
#
# Indices 1 2 3 4 5 6 
#
# 1 0.021237 -0.004248 -0.008447 0.000000 0.000000 0.000000
# 2 -0.004248 0.021237 -0.008447 0.000000 0.000000 0.000000
# 3 -0.008447 -0.008447 0.020944 0.000000 0.000000 0.000000
# 4 0.000000 0.000000 0.000000 0.029663 0.000000 0.000000
# 5 0.000000 0.000000 0.000000 0.000000 0.029663 0.000000
# 6 0.000000 0.000000 0.000000 0.000000 0.000000 0.039300
#
#
# Mechanical properties :
#
#
# Convention : Reuss Voigt Hill
#
# Bulk Modulus (GPa) = 47.31851 48.31425 47.81638
# Shear Modulus (GPa) = 23.65467 25.80330 24.72899
#
# Velocity S-wave (km/s) = 3.33873 3.48707 3.41370
# Velocity P-wave (km/s) = 6.09601 6.24345 6.17017
#
# Compressibility (1/GPa) = 0.02113338
#
# Stress axis : x y z
#
# Youngs Moduli (GPa) = 47.08677 47.08677 47.74545
#
# Poissons Ratio (x) = 0.20003 0.40333
# Poissons Ratio (y) = 0.20003 0.40333
# Poissons Ratio (z) = 0.39776 0.39776
#
# Static dielectric constant tensor:
#      x y z
#    x 3.811800 0.000000 0.000000 
#    y 0.000000 3.811800 0.000000 
#    z 0.000000 0.000000 4.105740 
# 
# 
# High freq. dielectric constant tensor:
#      x y z
#    x 1.822600 0.000000 0.000000 
#    y 0.000000 1.822600 0.000000 
#    z 0.000000 0.000000 1.848910 
# 
# From -- ./inp_files/3136.got.cif
#   From: 2010.03.12/outbox.cif.g09.slc.cpg/sg96_2_cif.got.tgz:3136.got - 2010.04.08 20:56:49.
