data_PCOD8305545
_publ_section_title
;
Structure prediction by ZEFSAII (Michael W. Deem and Ramdas Pophale) SiO2 
 PCOD8305545
Probable space group: P 42 2 2
;
_chemical_formula_sum "Si O2"
_cell_formula_units_Z 52
_cell_length_a 22.422522
_cell_length_b 22.422522
_cell_length_c 5.195379
_cell_angle_alpha 90.000000
_cell_angle_beta 90.000000
_cell_angle_gamma 90.000000
_cell_volume 2612.078065
_symmetry_space_group_name_H-M "P 42 2 2"
_symmetry_group_IT_number 93
_symmetry_cell_setting 'tetragonal'
loop_
_space_group_symop_operation_xyz
x,y,z
-y,x,1/2+z
-x,-y,z
y,-x,1/2+z
x,-y,-z
-x,y,-z
y,x,1/2-z
-y,-x,1/2-z
loop_
_atom_site_type_symbol
_atom_site_label
_atom_site_fract_x
_atom_site_fract_y
_atom_site_fract_z
Si Si1 0.054650 0.257559 0.328910
Si Si2 0.718286 0.332503 0.497384
Si Si3 0.569860 0.883943 0.514910
Si Si4 0.429767 0.810721 0.991590
Si Si5 0.963592 0.132101 0.764753
Si Si6 0.640305 0.000000 0.500000
Si Si7 0.766564 0.182172 0.003554
O O1 0.057481 0.199166 0.148178
O O2 0.036568 0.319709 0.201048
O O3 0.116055 0.262414 0.490981
O O4 0.000000 0.238434 0.500000
O O5 0.679603 0.320398 0.750000
O O6 0.746045 0.398551 0.524118
O O7 0.774009 0.288771 0.470385
O O8 0.675066 0.324935 0.250000
O O9 0.500000 0.895707 0.500000
O O10 0.590108 0.854177 0.244327
O O11 0.598478 0.947097 0.601011
O O12 0.589918 0.839737 0.739804
O O13 0.500000 0.798872 0.000000
O O14 0.901951 0.098050 0.750000
O O15 0.000000 0.126454 0.500000
O O16 0.000000 0.103803 0.000000
O O17 0.809975 0.190026 0.250000
O O18 0.804321 0.195680 0.750000
#
# Coordination Sequence:
#
# PCOD8305545 Si02
#       7
#     8   8   8   8   8   4   8
#     4  11  26  39  57  84 113 145 186 230 303 358
#     4  10  20  35  57  89 118 151 197 249 290 344
#     4  10  23  39  60  85 116 162 209 247 290 344
#     4  10  21  40  61  86 122 164 203 244 295 350
#     4  11  24  43  62  82 105 129 171 224 282 359
#     4  12  25  38  60  82 121 152 194 254 296 356
#     4  10  23  39  60  79 110 148 187 233 297 359
#
# _framework density 19.907522
#
# number of rings (size 3 to 8) (size 9 to 14) (size 15 to 20)
#    0.000    1.538    0.769    3.000    6.462    4.615 
#    0.000    2.308    0.000    0.000    0.000    0.000 
#    0.000    1.846    0.000    0.000    0.000    0.000 
#
# Total GULP energy -644391.121138 kJ/mol
# GULP energy per Si atom -12392.136945 kJ/mol
# Density = 1.986221 g / cm^3
# Si number density = 19.907522 Si / 1000 Ang^3
#
#
#
# Elastic Constant Matrix: (Units=GPa)
#
#
# Indices 1 2 3 4 5 6 
#
# 1 78.6743 37.2066 37.6523 0.0000 0.0000 0.0000
# 2 37.2066 78.6737 37.6519 0.0000 0.0000 0.0000
# 3 37.6523 37.6519 139.9836 0.0000 0.0000 0.0000
# 4 0.0000 0.0000 0.0000 12.7885 0.0000 0.0000
# 5 0.0000 0.0000 0.0000 0.0000 12.9028 0.0000
# 6 0.0000 0.0000 0.0000 0.0000 0.0000 52.3687
#
#
#
# Elastic Compliance Matrix: (Units=1/GPa)
#
#
# Indices 1 2 3 4 5 6 
#
# 1 0.017286 -0.006829 -0.002813 0.000000 0.000000 0.000000
# 2 -0.006829 0.017286 -0.002813 0.000000 0.000000 0.000000
# 3 -0.002813 -0.002813 0.008657 0.000000 0.000000 0.000000
# 4 0.000000 0.000000 0.000000 0.078195 0.000000 0.000000
# 5 0.000000 0.000000 0.000000 0.000000 0.077502 0.000000
# 6 0.000000 0.000000 0.000000 0.000000 0.000000 0.019095
#
#
# Mechanical properties :
#
#
# Convention : Reuss Voigt Hill
#
# Bulk Modulus (GPa) = 54.58352 58.03927 56.31139
# Shear Modulus (GPa) = 20.07724 27.93340 24.00532
#
# Velocity S-wave (km/s) = 3.17917 3.74994 3.47629
# Velocity P-wave (km/s) = 6.39955 6.92583 6.66788
#
# Compressibility (1/GPa) = 0.01832055
#
# Stress axis : x y z
#
# Youngs Moduli (GPa) = 57.84913 57.84883 115.51559
#
# Poissons Ratio (x) = 0.39505 0.32492
# Poissons Ratio (y) = 0.39505 0.32492
# Poissons Ratio (z) = 0.16272 0.16272
#
# Static dielectric constant tensor:
#      x y z
#    x 3.547620 0.000000 0.000000 
#    y 0.000000 3.547590 0.000000 
#    z 0.000000 0.000000 3.635430 
# 
# 
# High freq. dielectric constant tensor:
#      x y z
#    x 1.767890 0.000000 0.000000 
#    y 0.000000 1.767890 0.000000 
#    z 0.000000 0.000000 1.781140 
# 
# From -- ./inp_files/734.got.cif
#   From: 2010.03.12/outbox.cif.g09.slc.cpg/sg93_1_cif.got.tgz:734.got - 2010.04.08 20:44:19.
