data_PCOD8305921
_publ_section_title
;
Structure prediction by ZEFSAII (Michael W. Deem and Ramdas Pophale) SiO2 
 PCOD8305921
Probable space group: P 43 21 2
;
_chemical_formula_sum "Si O2"
_cell_formula_units_Z 60
_cell_length_a 17.335204
_cell_length_b 17.335204
_cell_length_c 10.235673
_cell_angle_alpha 90.000000
_cell_angle_beta 90.000000
_cell_angle_gamma 90.000000
_cell_volume 3075.914905
_symmetry_space_group_name_H-M "P 43 21 2"
_symmetry_group_IT_number 96
_symmetry_cell_setting 'tetragonal'
loop_
_space_group_symop_operation_xyz
x,y,z
1/2-y,1/2+x,3/4+z
-x,-y,1/2+z
1/2+y,1/2-x,1/4+z
1/2+x,1/2-y,1/4-z
1/2-x,1/2+y,3/4-z
y,x,-z
-y,-x,1/2-z
loop_
_atom_site_type_symbol
_atom_site_label
_atom_site_fract_x
_atom_site_fract_y
_atom_site_fract_z
Si Si1 0.496309 0.926932 0.073081
Si Si2 0.526545 0.346883 0.961140
Si Si3 0.213125 0.185309 0.644707
Si Si4 0.163243 0.345576 0.713998
Si Si5 0.206303 0.880081 0.856342
Si Si6 0.021977 0.978024 0.250000
Si Si7 0.568405 0.642669 0.206352
Si Si8 0.613536 0.794874 0.071700
O O1 0.423919 0.874802 0.030953
O O2 0.565288 0.869950 0.114469
O O3 0.478749 0.980401 0.198157
O O4 0.606641 0.301665 0.972327
O O5 0.499420 0.348640 0.811299
O O6 0.464461 0.301380 0.045991
O O7 0.536549 0.431535 0.021349
O O8 0.178415 0.178415 0.500000
O O9 0.166644 0.252882 0.717956
O O10 0.304289 0.202173 0.643956
O O11 0.206173 0.374837 0.844103
O O12 0.206664 0.376043 0.584291
O O13 0.185877 0.814124 0.750000
O O14 0.151144 0.868212 0.979229
O O15 0.065715 0.948372 0.376846
O O16 0.568797 0.717568 0.113098
#
# Coordination Sequence:
#
# PCOD8305921 Si02
#       8
#     8   8   8   8   8   4   8   8
#     4  10  24  44  65  98 130 165 219 275 331 387
#     4  11  24  37  57  94 125 163 198 256 309 381
#     4  10  21  38  63  91 119 152 212 260 299 362
#     4  10  21  42  62  91 124 156 216 266 310 375
#     4  10  21  41  59  83 127 165 202 245 313 393
#     4  12  22  34  60  90 126 154 202 246 324 354
#     4  11  21  37  61  86 120 167 199 249 309 373
#     4  10  22  39  67  92 112 167 216 265 308 375
#
# _framework density 19.506391000000001
#
# number of rings (size 3 to 8) (size 9 to 14) (size 15 to 20)
#    0.000    1.600    3.333    2.000    8.400    1.067 
#    2.400    2.667    0.000    0.000    0.000    0.000 
#    0.000    0.000    0.000    0.000    0.000    0.000 
#
# Total GULP energy -744168.715128 kJ/mol
# GULP energy per Si atom -12402.811919 kJ/mol
# Density = 1.946199 g / cm^3
# Si number density = 19.506391 Si / 1000 Ang^3
#
#
#
# Elastic Constant Matrix: (Units=GPa)
#
#
# Indices 1 2 3 4 5 6 
#
# 1 105.2260 44.2443 42.3585 0.0000 0.0000 0.0000
# 2 44.2443 105.2266 42.3586 0.0000 0.0000 0.0000
# 3 42.3585 42.3586 75.1110 0.0000 0.0000 0.0000
# 4 0.0000 0.0000 0.0000 -135.3694 0.0000 0.0000
# 5 0.0000 0.0000 0.0000 0.0000 -134.9445 0.0000
# 6 0.0000 0.0000 0.0000 0.0000 0.0000 34.6164
#
#
#
# Elastic Compliance Matrix: (Units=1/GPa)
#
#
# Indices 1 2 3 4 5 6 
#
# 1 0.013116 -0.003282 -0.005545 0.000000 0.000000 0.000000
# 2 -0.003282 0.013116 -0.005545 0.000000 0.000000 0.000000
# 3 -0.005545 -0.005545 0.019568 0.000000 0.000000 0.000000
# 4 0.000000 0.000000 0.000000 -0.007387 0.000000 0.000000
# 5 0.000000 0.000000 0.000000 0.000000 -0.007410 0.000000
# 6 0.000000 0.000000 0.000000 0.000000 0.000000 0.028888
#
#
# Mechanical properties :
#
#
# Convention : Reuss Voigt Hill
#
# Bulk Modulus (GPa) = 58.64031 60.38739 59.51385
# Shear Modulus (GPa) = 53.01016 -36.69936 8.15540
#
# Velocity S-wave (km/s) = 5.21870 -4.34222 2.04694
# Velocity P-wave (km/s) = 8.15110 2.42593 6.01355
#
# Compressibility (1/GPa) = 0.01705311
#
# Stress axis : x y z
#
# Youngs Moduli (GPa) = 76.24361 76.24406 51.10298
#
# Poissons Ratio (x) = 0.25027 0.28339
# Poissons Ratio (y) = 0.25027 0.28339
# Poissons Ratio (z) = 0.42281 0.42281
#
# Static dielectric constant tensor:
#      x y z
#    x 3.595070 0.000000 0.000000 
#    y 0.000000 3.594980 0.000000 
#    z 0.000000 0.000000 3.474200 
# 
# 
# High freq. dielectric constant tensor:
#      x y z
#    x 1.763240 0.000000 0.000000 
#    y 0.000000 1.763240 0.000000 
#    z 0.000000 0.000000 1.749460 
# 
# From -- ./inp_files/1616.got.cif
#   From: 2010.03.12/outbox.cif.g09.slc.cpg/sg96_1_cif.got.tgz:1616.got - 2010.04.08 20:56:49.
