data_PCOD8305718
_publ_section_title
;
Structure prediction by ZEFSAII (Michael W. Deem and Ramdas Pophale) SiO2 
 PCOD8305718
Probable space group: P 42 21 2
;
_chemical_formula_sum "Si O2"
_cell_formula_units_Z 40
_cell_length_a 14.034142
_cell_length_b 14.034142
_cell_length_c 8.931507
_cell_angle_alpha 90.000000
_cell_angle_beta 90.000000
_cell_angle_gamma 90.000000
_cell_volume 1759.124090
_symmetry_space_group_name_H-M "P 42 21 2"
_symmetry_group_IT_number 94
_symmetry_cell_setting 'tetragonal'
loop_
_space_group_symop_operation_xyz
x,y,z
1/2-y,1/2+x,1/2+z
-x,-y,z
1/2+y,1/2-x,1/2+z
1/2+x,1/2-y,1/2-z
1/2-x,1/2+y,1/2-z
y,x,-z
-y,-x,-z
loop_
_atom_site_type_symbol
_atom_site_label
_atom_site_fract_x
_atom_site_fract_y
_atom_site_fract_z
Si Si1 0.866391 0.578423 0.814438
Si Si2 0.765741 0.472097 0.167660
Si Si3 0.612692 0.143439 0.356526
Si Si4 0.393937 0.630812 0.339460
Si Si5 0.539295 0.669285 0.103102
O O1 0.910009 0.638878 0.678818
O O2 0.882593 0.469247 0.763690
O O3 0.752983 0.602728 0.823422
O O4 0.914131 0.605848 0.974941
O O5 0.792344 0.584535 0.193530
O O6 0.694007 0.432833 0.288991
O O7 0.721822 0.460402 0.001633
O O8 0.632576 0.256834 0.353706
O O9 0.415209 0.584792 0.500000
O O10 0.484021 0.611830 0.231826
O O11 0.598563 0.598563 0.000000
#
# Coordination Sequence:
#
# PCOD8305718 Si02
#       5
#     8   8   8   8   8
#     4  10  22  41  71 100 145 185 240 305 374 435
#     4  11  23  38  73 102 139 193 236 298 368 439
#     4  10  23  41  67 103 144 185 241 302 377 429
#     4  11  23  46  72 102 144 190 248 305 356 442
#     4  10  25  47  72 102 142 198 241 300 373 439
#
# _framework density 22.738589999999999
#
# number of rings (size 3 to 8) (size 9 to 14) (size 15 to 20)
#    0.000    1.600    2.000    1.200    5.600    9.600 
#    0.000    2.000    0.000    0.000    0.000    0.000 
#    0.000    0.000    0.000    0.000    0.000    0.000 
#
# Total GULP energy -495647.139245 kJ/mol
# GULP energy per Si atom -12391.178481 kJ/mol
# Density = 2.268684 g / cm^3
# Si number density = 22.738590 Si / 1000 Ang^3
#
#
#
# Elastic Constant Matrix: (Units=GPa)
#
#
# Indices 1 2 3 4 5 6 
#
# 1 85.3866 49.0632 62.9804 0.0000 0.0000 0.0000
# 2 49.0632 85.3869 62.9804 0.0000 0.0000 0.0000
# 3 62.9804 62.9804 139.9402 0.0000 0.0000 0.0000
# 4 0.0000 0.0000 0.0000 43.9885 0.0000 0.0000
# 5 0.0000 0.0000 0.0000 0.0000 43.9884 0.0000
# 6 0.0000 0.0000 0.0000 0.0000 0.0000 42.9608
#
#
#
# Elastic Compliance Matrix: (Units=1/GPa)
#
#
# Indices 1 2 3 4 5 6 
#
# 1 0.020195 -0.007335 -0.005788 0.000000 0.000000 0.000000
# 2 -0.007335 0.020195 -0.005788 0.000000 0.000000 0.000000
# 3 -0.005788 -0.005788 0.012355 0.000000 0.000000 0.000000
# 4 0.000000 0.000000 0.000000 0.022733 0.000000 0.000000
# 5 0.000000 0.000000 0.000000 0.000000 0.022733 0.000000
# 6 0.000000 0.000000 0.000000 0.000000 0.000000 0.023277
#
#
# Mechanical properties :
#
#
# Convention : Reuss Voigt Hill
#
# Bulk Modulus (GPa) = 67.00312 73.41798 70.21055
# Shear Modulus (GPa) = 30.43491 35.23353 32.83422
#
# Velocity S-wave (km/s) = 3.66248 3.94064 3.80410
# Velocity P-wave (km/s) = 6.88590 7.28442 7.08797
#
# Compressibility (1/GPa) = 0.01492468
#
# Stress axis : x y z
#
# Youngs Moduli (GPa) = 49.51677 49.51702 80.93631
#
# Poissons Ratio (x) = 0.36322 0.46843
# Poissons Ratio (y) = 0.36322 0.46843
# Poissons Ratio (z) = 0.28659 0.28659
#
# Static dielectric constant tensor:
#      x y z
#    x 4.185400 0.000000 0.000000 
#    y 0.000000 4.185400 0.000000 
#    z 0.000000 0.000000 4.337420 
# 
# 
# High freq. dielectric constant tensor:
#      x y z
#    x 1.890670 0.000000 0.000000 
#    y 0.000000 1.890670 0.000000 
#    z 0.000000 0.000000 1.902770 
# 
# From -- ./inp_files/1457.got.cif
#   From: 2010.03.12/outbox.cif.g09.slc.cpg/sg94_1_cif.got.tgz:1457.got - 2010.04.08 20:48:32.
