data_PCOD8305632
_publ_section_title
;
Structure prediction by ZEFSAII (Michael W. Deem and Ramdas Pophale) SiO2 
 PCOD8305632
Probable space group: P 42 21 2
;
_chemical_formula_sum "Si O2"
_cell_formula_units_Z 50
_cell_length_a 14.629637
_cell_length_b 14.629637
_cell_length_c 12.179616
_cell_angle_alpha 90.000000
_cell_angle_beta 90.000000
_cell_angle_gamma 90.000000
_cell_volume 2606.757889
_symmetry_space_group_name_H-M "P 42 21 2"
_symmetry_group_IT_number 94
_symmetry_cell_setting 'tetragonal'
loop_
_space_group_symop_operation_xyz
x,y,z
1/2-y,1/2+x,1/2+z
-x,-y,z
1/2+y,1/2-x,1/2+z
1/2+x,1/2-y,1/2-z
1/2-x,1/2+y,1/2-z
y,x,-z
-y,-x,-z
loop_
_atom_site_type_symbol
_atom_site_label
_atom_site_fract_x
_atom_site_fract_y
_atom_site_fract_z
Si Si1 0.149878 0.910384 0.892638
Si Si2 0.670402 0.059995 0.546329
Si Si3 0.040821 0.899573 0.686689
Si Si4 0.399993 0.730293 0.931579
Si Si5 0.158677 0.399459 0.697947
Si Si6 0.500000 0.500000 0.500000
Si Si7 0.500000 0.000000 0.422593
Si Si8 0.840610 0.159391 0.500000
O O1 0.248494 0.941667 0.851579
O O2 0.086511 0.862787 0.799368
O O3 0.156498 0.843503 0.000000
O O4 0.093497 0.001825 0.928152
O O5 0.662947 0.088619 0.672333
O O6 0.568920 0.058981 0.497045
O O7 0.732647 0.137945 0.486668
O O8 0.714550 0.960382 0.521483
O O9 0.962847 0.832178 0.645050
O O10 0.125480 0.901199 0.602490
O O11 0.000000 0.000000 0.699189
O O12 0.346916 0.795176 0.845087
O O13 0.327696 0.672305 0.000000
O O14 0.069923 0.450683 0.656885
#
# Coordination Sequence:
#
# PCOD8305632 Si02
#       8
#     8   8   8   8   8   2   4   4
#     4  10  20  36  60  88 127 165 204 256 323 384
#     4  10  21  41  61  89 124 160 215 262 318 374
#     4  11  18  34  61  88 124 156 195 260 319 372
#     4  10  23  38  61  96 122 161 216 260 323 390
#     4  11  22  42  62  86 127 169 212 262 322 381
#     4   8  20  36  54  90 128 158 206 244 320 388
#     4  10  24  42  62  84 124 176 216 256 318 392
#     4  10  19  34  59  92 116 149 201 264 308 370
#
# _framework density 19.180914999999999
#
# number of rings (size 3 to 8) (size 9 to 14) (size 15 to 20)
#    0.480    1.280    2.400    3.120    0.000    1.280 
#    2.880    4.000    0.000    0.000    0.000    0.000 
#    0.000    0.000    0.000    0.000    0.000    0.000 
#
# Total GULP energy -619539.023031 kJ/mol
# GULP energy per Si atom -12390.780461 kJ/mol
# Density = 1.913726 g / cm^3
# Si number density = 19.180915 Si / 1000 Ang^3
#
#
#
# Elastic Constant Matrix: (Units=GPa)
#
#
# Indices 1 2 3 4 5 6 
#
# 1 84.5937 33.7446 35.2412 0.0000 0.0000 0.0000
# 2 33.7446 84.5947 35.2408 0.0000 0.0000 0.0000
# 3 35.2412 35.2408 137.9776 0.0000 0.0000 0.0000
# 4 0.0000 0.0000 0.0000 18.2190 0.0000 0.0000
# 5 0.0000 0.0000 0.0000 0.0000 18.2201 0.0000
# 6 0.0000 0.0000 0.0000 0.0000 0.0000 28.8380
#
#
#
# Elastic Compliance Matrix: (Units=1/GPa)
#
#
# Indices 1 2 3 4 5 6 
#
# 1 0.014816 -0.004850 -0.002546 0.000000 0.000000 0.000000
# 2 -0.004850 0.014816 -0.002545 0.000000 0.000000 0.000000
# 3 -0.002546 -0.002545 0.008548 0.000000 0.000000 0.000000
# 4 0.000000 0.000000 0.000000 0.054888 0.000000 0.000000
# 5 0.000000 0.000000 0.000000 0.000000 0.054884 0.000000
# 6 0.000000 0.000000 0.000000 0.000000 0.000000 0.034676
#
#
# Mechanical properties :
#
#
# Convention : Reuss Voigt Hill
#
# Bulk Modulus (GPa) = 54.64907 57.29103 55.97005
# Shear Modulus (GPa) = 23.96818 26.58471 25.27645
#
# Velocity S-wave (km/s) = 3.53878 3.72694 3.63408
# Velocity P-wave (km/s) = 6.72685 6.96087 6.84486
#
# Compressibility (1/GPa) = 0.01829857
#
# Stress axis : x y z
#
# Youngs Moduli (GPa) = 67.49352 67.49456 116.98820
#
# Poissons Ratio (x) = 0.32733 0.29780
# Poissons Ratio (y) = 0.32732 0.29779
# Poissons Ratio (z) = 0.17181 0.17181
#
# Static dielectric constant tensor:
#      x y z
#    x 3.561150 0.000000 0.000000 
#    y 0.000000 3.561150 0.000000 
#    z 0.000000 0.000000 3.676260 
# 
# 
# High freq. dielectric constant tensor:
#      x y z
#    x 1.738370 0.000000 0.000000 
#    y 0.000000 1.738370 0.000000 
#    z 0.000000 0.000000 1.757830 
# 
# From -- ./inp_files/2704.got.cif
#   From: 2010.03.12/outbox.cif.g09.slc.cpg/sg94_2_cif.got.tgz:2704.got - 2010.04.08 20:48:32.
