data_PCOD8305095
_publ_section_title
;
Structure prediction by ZEFSAII (Michael W. Deem and Ramdas Pophale) SiO2 
 PCOD8305095
Probable space group: P 41 2 2
;
_chemical_formula_sum "Si O2"
_cell_formula_units_Z 24
_cell_length_a 5.158324
_cell_length_b 5.158324
_cell_length_c 40.163571
_cell_angle_alpha 90.000000
_cell_angle_beta 90.000000
_cell_angle_gamma 90.000000
_cell_volume 1068.684607
_symmetry_space_group_name_H-M "P 41 2 2"
_symmetry_group_IT_number 91
_symmetry_cell_setting 'tetragonal'
loop_
_space_group_symop_operation_xyz
x,y,z
-y,x,1/4+z
-x,-y,1/2+z
y,-x,3/4+z
x,-y,1/2-z
-x,y,-z
y,x,3/4-z
-y,-x,1/4-z
loop_
_atom_site_type_symbol
_atom_site_label
_atom_site_fract_x
_atom_site_fract_y
_atom_site_fract_z
Si Si1 0.123682 0.951140 0.464792
Si Si2 0.850677 0.321010 0.089516
Si Si3 0.336270 0.535873 0.062291
O O1 0.893734 0.909674 0.437551
O O2 0.295435 0.687371 0.466041
O O3 0.000000 0.018453 0.500000
O O4 0.313946 0.184236 0.454497
O O5 0.808244 0.191757 0.125000
O O6 0.111170 0.497914 0.090398
O O7 0.613957 0.506507 0.079358
#
# Coordination Sequence:
#
# PCOD8305095 Si02
#       3
#     8   8   8
#     4  10  24  46  67 101 133 178 224 279 337 400
#     4  10  26  42  68  96 135 175 222 271 335 399
#     4  10  25  40  67  96 131 173 222 274 331 394
#
# _framework density 22.457515000000001
#
# number of rings (size 3 to 8) (size 9 to 14) (size 15 to 20)
#    2.000    0.000    0.000    1.000    9.333    2.667 
#    0.000    0.000    0.000    0.000    0.000    0.000 
#    0.000    0.000    0.000    0.000    0.000    0.000 
#
# Total GULP energy -297392.041338 kJ/mol
# GULP energy per Si atom -12391.335056 kJ/mol
# Density = 2.240640 g / cm^3
# Si number density = 22.457515 Si / 1000 Ang^3
#
#
#
# Elastic Constant Matrix: (Units=GPa)
#
#
# Indices 1 2 3 4 5 6 
#
# 1 121.4576 40.5822 27.9632 0.0000 0.0000 0.0000
# 2 40.5822 121.4578 27.9630 0.0000 0.0000 0.0000
# 3 27.9632 27.9630 128.2656 0.0000 0.0000 0.0000
# 4 0.0000 0.0000 0.0000 15.8777 0.0000 0.0000
# 5 0.0000 0.0000 0.0000 0.0000 15.8777 0.0000
# 6 0.0000 0.0000 0.0000 0.0000 0.0000 19.0320
#
#
#
# Elastic Compliance Matrix: (Units=1/GPa)
#
#
# Indices 1 2 3 4 5 6 
#
# 1 0.009519 -0.002846 -0.001455 0.000000 0.000000 0.000000
# 2 -0.002846 0.009519 -0.001455 0.000000 0.000000 0.000000
# 3 -0.001455 -0.001455 0.008431 0.000000 0.000000 0.000000
# 4 0.000000 0.000000 0.000000 0.062981 0.000000 0.000000
# 5 0.000000 0.000000 0.000000 0.000000 0.062981 0.000000
# 6 0.000000 0.000000 0.000000 0.000000 0.000000 0.052543
#
#
# Mechanical properties :
#
#
# Convention : Reuss Voigt Hill
#
# Bulk Modulus (GPa) = 62.66418 62.68864 62.67641
# Shear Modulus (GPa) = 22.44120 28.46900 25.45510
#
# Velocity S-wave (km/s) = 3.16456 3.56432 3.37037
# Velocity P-wave (km/s) = 6.42780 6.70180 6.56623
#
# Compressibility (1/GPa) = 0.01595808
#
# Stress axis : x y z
#
# Youngs Moduli (GPa) = 105.05217 105.05241 118.61446
#
# Poissons Ratio (x) = 0.29894 0.17257
# Poissons Ratio (y) = 0.29894 0.17257
# Poissons Ratio (z) = 0.15284 0.15284
#
# Static dielectric constant tensor:
#      x y z
#    x 3.862840 0.000000 0.000000 
#    y 0.000000 3.862840 0.000000 
#    z 0.000000 0.000000 3.820860 
# 
# 
# High freq. dielectric constant tensor:
#      x y z
#    x 1.884130 0.000000 0.000000 
#    y 0.000000 1.884130 0.000000 
#    z 0.000000 0.000000 1.863290 
# 
# From -- ./inp_files/22079.got.cif
#   From: 2010.03.12/outbox.cif.g09.slc.cpg/sg91_12_cif.got.tgz:22079.got - 2010.04.08 20:27:58.
