data_PCOD8305511
_publ_section_title
;
Structure prediction by ZEFSAII (Michael W. Deem and Ramdas Pophale) SiO2 
 PCOD8305511
Probable space group: P 42 2 2
;
_chemical_formula_sum "Si O2"
_cell_formula_units_Z 56
_cell_length_a 26.858920
_cell_length_b 26.858920
_cell_length_c 5.243810
_cell_angle_alpha 90.000000
_cell_angle_beta 90.000000
_cell_angle_gamma 90.000000
_cell_volume 3782.892838
_symmetry_space_group_name_H-M "P 42 2 2"
_symmetry_group_IT_number 93
_symmetry_cell_setting 'tetragonal'
loop_
_space_group_symop_operation_xyz
x,y,z
-y,x,1/2+z
-x,-y,z
y,-x,1/2+z
x,-y,-z
-x,y,-z
y,x,1/2-z
-y,-x,1/2-z
loop_
_atom_site_type_symbol
_atom_site_label
_atom_site_fract_x
_atom_site_fract_y
_atom_site_fract_z
Si Si1 0.836433 0.755683 0.250000
Si Si2 0.639311 0.033089 0.250000
Si Si3 0.714237 0.124504 0.250000
Si Si4 0.525742 0.934934 0.750000
Si Si5 0.820009 0.523852 0.750000
Si Si6 0.751493 0.327316 0.750000
Si Si7 0.211008 0.634355 0.250000
O O1 0.809999 0.809999 0.250000
O O2 0.871355 0.749281 0.499586
O O3 0.794426 0.713745 0.250000
O O4 0.871355 0.749281 0.000414
O O5 0.683004 0.073767 0.250000
O O6 0.585139 0.058477 0.250000
O O7 0.645810 0.000000 0.500000
O O8 0.645810 0.000000 0.000000
O O9 0.676893 0.170224 0.250000
O O10 0.500000 0.959664 0.500000
O O11 0.509861 0.877680 0.750000
O O12 0.500000 0.959664 0.000000
O O13 0.794207 0.500000 0.500000
O O14 0.816692 0.582577 0.750000
O O15 0.794207 0.500000 0.000000
O O16 0.697710 0.302291 0.750000
O O17 0.754929 0.361556 0.500231
O O18 0.754929 0.361556 0.999769
#
# Coordination Sequence:
#
# PCOD8305511 Si02
#       7
#     8   8   8   8   8   8   8
#     4   9  17  29  48  67  84 102 125 160 206 257
#     4  12  24  35  47  62  83 112 145 179 228 272
#     4  10  19  32  45  63  85 106 134 166 211 263
#     4  10  21  35  48  59  74  99 143 194 233 268
#     4  10  19  30  44  60  76  99 138 177 217 259
#     4   9  17  26  41  64  83  99 122 151 196 264
#     4  10  17  29  45  57  79 106 126 162 217 248
#
# _framework density 14.803483999999999
#
# number of rings (size 3 to 8) (size 9 to 14) (size 15 to 20)
#    0.000    2.000    1.429    3.429    0.000    5.143 
#    0.000    0.000    0.000    0.000    0.000    0.000 
#    0.000    0.000    0.000    0.000    0.000    0.000 
#
# Total GULP energy -694216.629858 kJ/mol
# GULP energy per Si atom -12396.725533 kJ/mol
# Density = 1.476979 g / cm^3
# Si number density = 14.803484 Si / 1000 Ang^3
#
#
#
# Elastic Constant Matrix: (Units=GPa)
#
#
# Indices 1 2 3 4 5 6 
#
# 1 37.2947 24.5914 37.1886 0.0000 0.0000 0.0000
# 2 24.5914 37.2944 37.1883 0.0000 0.0000 0.0000
# 3 37.1886 37.1883 169.8404 0.0000 0.0000 0.0000
# 4 0.0000 0.0000 0.0000 7.8655 0.0000 0.0000
# 5 0.0000 0.0000 0.0000 0.0000 7.8467 0.0000
# 6 0.0000 0.0000 0.0000 0.0000 0.0000 25.9484
#
#
#
# Elastic Compliance Matrix: (Units=1/GPa)
#
#
# Indices 1 2 3 4 5 6 
#
# 1 0.050325 -0.028396 -0.004802 0.000000 0.000000 0.000000
# 2 -0.028396 0.050325 -0.004802 0.000000 0.000000 0.000000
# 3 -0.004802 -0.004802 0.007991 0.000000 0.000000 0.000000
# 4 0.000000 0.000000 0.000000 0.127138 0.000000 0.000000
# 5 0.000000 0.000000 0.000000 0.000000 0.127442 0.000000
# 6 0.000000 0.000000 0.000000 0.000000 0.000000 0.038538
#
#
# Mechanical properties :
#
#
# Convention : Reuss Voigt Hill
#
# Bulk Modulus (GPa) = 30.63440 49.15178 39.89309
# Shear Modulus (GPa) = 10.23251 18.02952 14.13101
#
# Velocity S-wave (km/s) = 2.63196 3.49366 3.09297
# Velocity P-wave (km/s) = 5.47497 7.03912 6.30573
#
# Compressibility (1/GPa) = 0.03264304
#
# Stress axis : x y z
#
# Youngs Moduli (GPa) = 19.87078 19.87070 125.14597
#
# Poissons Ratio (x) = 0.56424 0.60093
# Poissons Ratio (y) = 0.56424 0.60091
# Poissons Ratio (z) = 0.09542 0.09541
#
# Static dielectric constant tensor:
#      x y z
#    x 2.610970 0.000000 0.000000 
#    y 0.000000 2.610970 0.000000 
#    z 0.000000 0.000000 3.270070 
# 
# 
# High freq. dielectric constant tensor:
#      x y z
#    x 1.527310 0.000000 0.000000 
#    y 0.000000 1.527310 0.000000 
#    z 0.000000 0.000000 1.599060 
# 
# From -- ./inp_files/794.got.cif
#   From: 2010.03.12/outbox.cif.g09.slc.cpg/sg93_1_cif.got.tgz:794.got - 2010.04.08 20:44:19.
