data_PCOD8305699
_publ_section_title
;
Structure prediction by ZEFSAII (Michael W. Deem and Ramdas Pophale) SiO2 
 PCOD8305699
Probable space group: P 42 21 2
;
_chemical_formula_sum "Si O2"
_cell_formula_units_Z 28
_cell_length_a 9.030283
_cell_length_b 9.030283
_cell_length_c 16.609396
_cell_angle_alpha 90.000000
_cell_angle_beta 90.000000
_cell_angle_gamma 90.000000
_cell_volume 1354.429990
_symmetry_space_group_name_H-M "P 42 21 2"
_symmetry_group_IT_number 94
_symmetry_cell_setting 'tetragonal'
loop_
_space_group_symop_operation_xyz
x,y,z
1/2-y,1/2+x,1/2+z
-x,-y,z
1/2+y,1/2-x,1/2+z
1/2+x,1/2-y,1/2-z
1/2-x,1/2+y,1/2-z
y,x,-z
-y,-x,-z
loop_
_atom_site_type_symbol
_atom_site_label
_atom_site_fract_x
_atom_site_fract_y
_atom_site_fract_z
Si Si1 0.867857 0.900533 0.797649
Si Si2 0.000000 0.500000 0.045495
Si Si3 0.280480 0.461304 0.440913
Si Si4 0.184067 0.330051 0.659991
O O1 0.851298 0.765939 0.737226
O O2 0.905261 0.838001 0.885923
O O3 0.725206 0.004537 0.808862
O O4 0.000000 0.000000 0.762589
O O5 0.856288 0.457729 0.101090
O O6 0.028189 0.359349 0.988253
O O7 0.412163 0.412163 0.500000
O O8 0.244588 0.316611 0.386317
#
# Coordination Sequence:
#
# PCOD8305699 Si02
#       4
#     8   4   8   8
#     4  10  23  40  65  90 129 165 218 266 323 390
#     4  10  22  36  64  92 130 168 216 260 332 394
#     4   9  21  42  62  91 126 167 212 264 323 400
#     4  10  23  39  63  97 125 170 218 269 327 392
#
# _framework density 20.672902000000001
#
# number of rings (size 3 to 8) (size 9 to 14) (size 15 to 20)
#    0.000    2.286    0.000    0.000   12.000   13.143 
#    0.000    2.857    0.000    6.000    0.000    0.000 
#    0.000    0.000    0.000    0.000    0.000    0.000 
#
# Total GULP energy -346981.233407 kJ/mol
# GULP energy per Si atom -12392.186907 kJ/mol
# Density = 2.062585 g / cm^3
# Si number density = 20.672902 Si / 1000 Ang^3
#
#
#
# Elastic Constant Matrix: (Units=GPa)
#
#
# Indices 1 2 3 4 5 6 
#
# 1 99.1019 75.0098 75.5493 0.0000 0.0000 0.0000
# 2 75.0098 99.1019 75.5493 0.0000 0.0000 0.0000
# 3 75.5493 75.5493 161.9153 0.0000 0.0000 0.0000
# 4 0.0000 0.0000 0.0000 31.7654 0.0000 0.0000
# 5 0.0000 0.0000 0.0000 0.0000 31.7654 0.0000
# 6 0.0000 0.0000 0.0000 0.0000 0.0000 22.3053
#
#
#
# Elastic Compliance Matrix: (Units=1/GPa)
#
#
# Indices 1 2 3 4 5 6 
#
# 1 0.025579 -0.015928 -0.004503 0.000000 0.000000 0.000000
# 2 -0.015928 0.025579 -0.004503 0.000000 0.000000 0.000000
# 3 -0.004503 -0.004503 0.010379 0.000000 0.000000 0.000000
# 4 0.000000 0.000000 0.000000 0.031481 0.000000 0.000000
# 5 0.000000 0.000000 0.000000 0.000000 0.031481 0.000000
# 6 0.000000 0.000000 0.000000 0.000000 0.000000 0.044832
#
#
# Mechanical properties :
#
#
# Convention : Reuss Voigt Hill
#
# Bulk Modulus (GPa) = 85.70306 90.25955 87.98131
# Shear Modulus (GPa) = 22.41247 26.10129 24.25688
#
# Velocity S-wave (km/s) = 3.29621 3.55714 3.42916
# Velocity P-wave (km/s) = 7.48555 7.78631 7.63741
#
# Compressibility (1/GPa) = 0.01166819
#
# Stress axis : x y z
#
# Youngs Moduli (GPa) = 39.09390 39.09390 96.35171
#
# Poissons Ratio (x) = 0.62268 0.43391
# Poissons Ratio (y) = 0.62268 0.43391
# Poissons Ratio (z) = 0.17606 0.17606
#
# Static dielectric constant tensor:
#      x y z
#    x 3.736800 0.000000 0.000000 
#    y 0.000000 3.736800 0.000000 
#    z 0.000000 0.000000 3.978020 
# 
# 
# High freq. dielectric constant tensor:
#      x y z
#    x 1.795940 0.000000 0.000000 
#    y 0.000000 1.795940 0.000000 
#    z 0.000000 0.000000 1.827090 
# 
# From -- ./inp_files/3809.got.cif
#   From: 2010.03.12/outbox.cif.g09.slc.cpg/sg94_2_cif.got.tgz:3809.got - 2010.04.08 20:48:32.
