data_PCOD8305271
_publ_section_title
;
Structure prediction by ZEFSAII (Michael W. Deem and Ramdas Pophale) SiO2 
 PCOD8305271
Probable space group: P 41 21 2
;
_chemical_formula_sum "Si O2"
_cell_formula_units_Z 48
_cell_length_a 12.089191
_cell_length_b 12.089191
_cell_length_c 17.480932
_cell_angle_alpha 90.000000
_cell_angle_beta 90.000000
_cell_angle_gamma 90.000000
_cell_volume 2554.812673
_symmetry_space_group_name_H-M "P 41 21 2"
_symmetry_group_IT_number 92
_symmetry_cell_setting 'tetragonal'
loop_
_space_group_symop_operation_xyz
x,y,z
1/2-y,1/2+x,1/4+z
-x,-y,1/2+z
1/2+y,1/2-x,3/4+z
1/2+x,1/2-y,3/4-z
1/2-x,1/2+y,1/4-z
y,x,-z
-y,-x,1/2-z
loop_
_atom_site_type_symbol
_atom_site_label
_atom_site_fract_x
_atom_site_fract_y
_atom_site_fract_z
Si Si1 0.042427 0.437055 0.961379
Si Si2 0.212021 0.584646 0.464635
Si Si3 0.813343 0.178865 0.030271
Si Si4 0.719345 0.436431 0.797730
Si Si5 0.038292 0.649055 0.055422
Si Si6 0.221350 0.364015 0.554100
O O1 0.115717 0.412597 0.887274
O O2 0.913967 0.432448 0.938220
O O3 0.070824 0.347868 0.025748
O O4 0.072460 0.557894 0.992868
O O5 0.229156 0.697678 0.511359
O O6 0.288843 0.584583 0.388874
O O7 0.247443 0.485343 0.520598
O O8 0.776714 0.143280 0.113889
O O9 0.945049 0.169890 0.025047
O O10 0.764745 0.093244 0.968447
O O11 0.654583 0.345418 0.750000
O O12 0.907509 0.660704 0.060690
O O13 0.270493 0.270493 0.500000
#
# Coordination Sequence:
#
# PCOD8305271 Si02
#       6
#     8   8   8   8   8   8
#     4  10  20  37  65  88 113 152 205 251 297 348
#     4  10  22  39  62  86 118 163 204 243 303 366
#     4  11  24  39  60  92 120 158 203 245 306 363
#     4  11  22  40  61  83 123 165 196 243 301 368
#     4  11  21  38  62  93 115 148 200 258 296 351
#     4  11  23  38  62  86 121 157 195 249 305 358
#
# _framework density 18.788070999999999
#
# number of rings (size 3 to 8) (size 9 to 14) (size 15 to 20)
#    0.000    1.333    5.000    1.000    2.333    0.667 
#    0.000    0.000    0.000    0.000    0.000    0.000 
#    0.000    0.000    0.000    0.000    0.000    0.000 
#
# Total GULP energy -595393.417220 kJ/mol
# GULP energy per Si atom -12404.029525 kJ/mol
# Density = 1.874531 g / cm^3
# Si number density = 18.788071 Si / 1000 Ang^3
#
#
#
# Elastic Constant Matrix: (Units=GPa)
#
#
# Indices 1 2 3 4 5 6 
#
# 1 177.8453 -99.6151 18.0781 0.0000 0.0000 0.0000
# 2 -99.6151 177.8328 18.0692 0.0000 0.0000 0.0000
# 3 18.0781 18.0692 100.4294 0.0000 0.0000 0.0000
# 4 0.0000 0.0000 0.0000 34.0009 0.0000 0.0000
# 5 0.0000 0.0000 0.0000 0.0000 34.0009 0.0000
# 6 0.0000 0.0000 0.0000 0.0000 0.0000 31.7211
#
#
#
# Elastic Compliance Matrix: (Units=1/GPa)
#
#
# Indices 1 2 3 4 5 6 
#
# 1 0.008774 0.005170 -0.002509 0.000000 0.000000 0.000000
# 2 0.005170 0.008774 -0.002509 0.000000 0.000000 0.000000
# 3 -0.002509 -0.002509 0.010860 0.000000 0.000000 0.000000
# 4 0.000000 0.000000 0.000000 0.029411 0.000000 0.000000
# 5 0.000000 0.000000 0.000000 0.000000 0.029411 0.000000
# 6 0.000000 0.000000 0.000000 0.000000 0.000000 0.031525
#
#
# Mechanical properties :
#
#
# Convention : Reuss Voigt Hill
#
# Bulk Modulus (GPa) = 34.83116 36.57466 35.70291
# Shear Modulus (GPa) = 39.05556 54.58293 46.81924
#
# Velocity S-wave (km/s) = 4.56427 5.39583 4.99738
# Velocity P-wave (km/s) = 6.80852 7.63735 7.23482
#
# Compressibility (1/GPa) = 0.02870992
#
# Stress axis : x y z
#
# Youngs Moduli (GPa) = 113.97905 113.97297 92.07755
#
# Poissons Ratio (x) = -0.58919 0.23106
# Poissons Ratio (y) = -0.58922 0.23104
# Poissons Ratio (z) = 0.28602 0.28598
#
# Static dielectric constant tensor:
#      x y z
#    x 3.436770 0.000000 0.000000 
#    y 0.000000 3.436770 0.000000 
#    z 0.000000 0.000000 3.404960 
# 
# 
# High freq. dielectric constant tensor:
#      x y z
#    x 1.723680 0.000000 0.000000 
#    y 0.000000 1.723680 0.000000 
#    z 0.000000 0.000000 1.745560 
# 
# From -- ./inp_files/3108.got.cif
#   From: 2010.03.12/outbox.cif.g09.slc.cpg/sg92_2_cif.got.tgz:3108.got - 2010.04.08 20:41:11.
