data_PCOD8305482
_publ_section_title
;
Structure prediction by ZEFSAII (Michael W. Deem and Ramdas Pophale) SiO2 
 PCOD8305482
Probable space group: P 41 21 2
;
_chemical_formula_sum "Si O2"
_cell_formula_units_Z 60
_cell_length_a 11.893119
_cell_length_b 11.893119
_cell_length_c 19.068742
_cell_angle_alpha 90.000000
_cell_angle_beta 90.000000
_cell_angle_gamma 90.000000
_cell_volume 2697.202612
_symmetry_space_group_name_H-M "P 41 21 2"
_symmetry_group_IT_number 92
_symmetry_cell_setting 'tetragonal'
loop_
_space_group_symop_operation_xyz
x,y,z
1/2-y,1/2+x,1/4+z
-x,-y,1/2+z
1/2+y,1/2-x,3/4+z
1/2+x,1/2-y,3/4-z
1/2-x,1/2+y,1/4-z
y,x,-z
-y,-x,1/2-z
loop_
_atom_site_type_symbol
_atom_site_label
_atom_site_fract_x
_atom_site_fract_y
_atom_site_fract_z
Si Si1 0.641584 0.880875 0.765438
Si Si2 0.215881 0.277465 0.595424
Si Si3 0.875557 0.164889 0.556524
Si Si4 0.892539 0.545501 0.009892
Si Si5 0.945902 0.767479 0.484038
Si Si6 0.390967 0.609034 0.750000
Si Si7 0.895134 0.259028 0.704197
Si Si8 0.933455 0.337808 0.106800
O O1 0.655923 0.860830 0.848458
O O2 0.691389 0.773340 0.723991
O O3 0.514274 0.894940 0.737970
O O4 0.712051 0.993774 0.750923
O O5 0.203997 0.361241 0.527990
O O6 0.167698 0.156255 0.571002
O O7 0.338941 0.256699 0.627190
O O8 0.924467 0.195427 0.632451
O O9 0.976352 0.133477 0.503383
O O10 0.789858 0.060083 0.559502
O O11 0.881341 0.441609 0.062921
O O12 0.875429 0.507532 0.929279
O O13 0.882706 0.882706 0.500000
O O14 0.872657 0.677289 0.439951
O O15 0.969670 0.717270 0.560735
O O16 0.823291 0.176710 0.750000
#
# Coordination Sequence:
#
# PCOD8305482 Si02
#       8
#     8   8   8   8   8   4   8   8
#     4  12  22  43  72 104 136 190 240 299 371 441
#     4  12  23  42  68 110 138 179 241 308 376 428
#     4  12  25  44  77 101 141 199 245 310 375 449
#     4  12  24  42  71 106 144 183 247 309 364 446
#     4  11  26  47  69 102 147 197 244 300 376 451
#     4  12  22  42  72 104 144 182 238 308 374 432
#     4  11  27  46  70 106 147 193 255 309 362 453
#     4  12  25  42  72 103 145 191 243 305 371 441
#
# _framework density 22.245269
#
# number of rings (size 3 to 8) (size 9 to 14) (size 15 to 20)
#    0.000    0.267    8.667    0.000    1.867    2.133 
#    0.000    0.000    0.000    0.000    0.000    0.000 
#    0.000    0.000    0.000    0.000    0.000    0.000 
#
# Total GULP energy -743964.280570 kJ/mol
# GULP energy per Si atom -12399.404676 kJ/mol
# Density = 2.219464 g / cm^3
# Si number density = 22.245269 Si / 1000 Ang^3
#
#
#
# Elastic Constant Matrix: (Units=GPa)
#
#
# Indices 1 2 3 4 5 6 
#
# 1 112.0529 48.6652 35.8821 0.0000 0.0000 0.0000
# 2 48.6652 112.0513 35.8814 0.0000 0.0000 0.0000
# 3 35.8821 35.8814 96.0560 0.0000 0.0000 0.0000
# 4 0.0000 0.0000 0.0000 36.4595 0.0000 0.0000
# 5 0.0000 0.0000 0.0000 0.0000 36.4600 0.0000
# 6 0.0000 0.0000 0.0000 0.0000 0.0000 29.7580
#
#
#
# Elastic Compliance Matrix: (Units=1/GPa)
#
#
# Indices 1 2 3 4 5 6 
#
# 1 0.011622 -0.004154 -0.002790 0.000000 0.000000 0.000000
# 2 -0.004154 0.011622 -0.002790 0.000000 0.000000 0.000000
# 3 -0.002790 -0.002790 0.012495 0.000000 0.000000 0.000000
# 4 0.000000 0.000000 0.000000 0.027428 0.000000 0.000000
# 5 0.000000 0.000000 0.000000 0.000000 0.027427 0.000000
# 6 0.000000 0.000000 0.000000 0.000000 0.000000 0.033604
#
#
# Mechanical properties :
#
#
# Convention : Reuss Voigt Hill
#
# Bulk Modulus (GPa) = 61.45588 62.33527 61.89557
# Shear Modulus (GPa) = 33.53711 33.85093 33.69402
#
# Velocity S-wave (km/s) = 3.88700 3.90515 3.89609
# Velocity P-wave (km/s) = 6.91603 6.95818 6.93714
#
# Compressibility (1/GPa) = 0.01627184
#
# Stress axis : x y z
#
# Youngs Moduli (GPa) = 86.04480 86.04387 80.03406
#
# Poissons Ratio (x) = 0.35744 0.22326
# Poissons Ratio (y) = 0.35745 0.22326
# Poissons Ratio (z) = 0.24003 0.24002
#
# Static dielectric constant tensor:
#      x y z
#    x 4.032040 0.000000 0.000000 
#    y 0.000000 4.032050 0.000000 
#    z 0.000000 0.000000 4.107470 
# 
# 
# High freq. dielectric constant tensor:
#      x y z
#    x 1.873160 0.000000 0.000000 
#    y 0.000000 1.873160 0.000000 
#    z 0.000000 0.000000 1.877040 
# 
# From -- ./inp_files/3617.got.cif
#   From: 2010.03.12/outbox.cif.g09.slc.cpg/sg92_2_cif.got.tgz:3617.got - 2010.04.08 20:41:11.
