data_PCOD8305806
_publ_section_title
;
Structure prediction by ZEFSAII (Michael W. Deem and Ramdas Pophale) SiO2 
 PCOD8305806
Probable space group: P 43 2 2
;
_chemical_formula_sum "Si O2"
_cell_formula_units_Z 40
_cell_length_a 22.344818
_cell_length_b 22.344818
_cell_length_c 5.022004
_cell_angle_alpha 90.000000
_cell_angle_beta 90.000000
_cell_angle_gamma 90.000000
_cell_volume 2507.440854
_symmetry_space_group_name_H-M "P 43 2 2"
_symmetry_group_IT_number 95
_symmetry_cell_setting 'tetragonal'
loop_
_space_group_symop_operation_xyz
x,y,z
-y,x,3/4+z
-x,-y,1/2+z
y,-x,1/4+z
x,-y,1/2-z
-x,y,-z
y,x,1/4-z
-y,-x,3/4-z
loop_
_atom_site_type_symbol
_atom_site_label
_atom_site_fract_x
_atom_site_fract_y
_atom_site_fract_z
Si Si1 0.184630 0.727786 0.950704
Si Si2 0.331135 0.241450 0.201290
Si Si3 0.674854 0.934927 0.283233
Si Si4 0.595942 0.066322 0.713244
Si Si5 0.191922 0.461039 0.003776
O O1 0.204322 0.795678 0.875000
O O2 0.220931 0.686003 0.747389
O O3 0.200000 0.705091 0.245628
O O4 0.113036 0.724014 0.937821
O O5 0.309797 0.309797 0.125000
O O6 0.402022 0.232158 0.201075
O O7 0.651751 0.925674 0.584301
O O8 0.704998 0.000000 0.250000
O O9 0.617808 0.928594 0.089985
O O10 0.549928 0.120291 0.755166
O O11 0.566255 0.000000 0.750000
O O12 0.210156 0.500000 0.250000
O O13 0.211121 0.500000 0.750000
#
# Coordination Sequence:
#
# PCOD8305806 Si02
#       5
#     8   8   8   8   8
#     4  10  17  29  49  67  85 115 157 194 231 277
#     4  10  20  34  50  67  90 117 150 189 236 274
#     4  10  17  29  46  63  89 121 156 194 230 270
#     4  10  20  32  45  61  92 129 161 189 221 259
#     4  12  22  32  49  68  94 120 158 196 225 268
#
# _framework density 15.952519000000001
#
# number of rings (size 3 to 8) (size 9 to 14) (size 15 to 20)
#    0.000    1.600    4.000    2.400    0.000    0.800 
#    0.000    0.000    0.000    0.000    0.000    0.000 
#    0.000    1.600    0.000   10.800    0.000    0.000 
#
# Total GULP energy -495582.713758 kJ/mol
# GULP energy per Si atom -12389.567844 kJ/mol
# Density = 1.591621 g / cm^3
# Si number density = 15.952519 Si / 1000 Ang^3
#
#
#
# Elastic Constant Matrix: (Units=GPa)
#
#
# Indices 1 2 3 4 5 6 
#
# 1 86.1162 52.5565 18.5041 0.0000 0.0000 0.0000
# 2 52.5565 86.1135 18.5036 0.0000 0.0000 0.0000
# 3 18.5041 18.5036 75.7505 0.0000 0.0000 0.0000
# 4 0.0000 0.0000 0.0000 19.1735 0.0000 0.0000
# 5 0.0000 0.0000 0.0000 0.0000 19.1738 0.0000
# 6 0.0000 0.0000 0.0000 0.0000 0.0000 30.6713
#
#
#
# Elastic Compliance Matrix: (Units=1/GPa)
#
#
# Indices 1 2 3 4 5 6 
#
# 1 0.018756 -0.011042 -0.001884 0.000000 0.000000 0.000000
# 2 -0.011042 0.018757 -0.001884 0.000000 0.000000 0.000000
# 3 -0.001884 -0.001884 0.014122 0.000000 0.000000 0.000000
# 4 0.000000 0.000000 0.000000 0.052155 0.000000 0.000000
# 5 0.000000 0.000000 0.000000 0.000000 0.052155 0.000000
# 6 0.000000 0.000000 0.000000 0.000000 0.000000 0.032604
#
#
# Mechanical properties :
#
#
# Convention : Reuss Voigt Hill
#
# Bulk Modulus (GPa) = 45.42826 47.45649 46.44238
# Shear Modulus (GPa) = 22.17214 24.36479 23.26847
#
# Velocity S-wave (km/s) = 3.73216 3.91235 3.82332
# Velocity P-wave (km/s) = 6.86375 7.08673 6.97613
#
# Compressibility (1/GPa) = 0.02201273
#
# Stress axis : x y z
#
# Youngs Moduli (GPa) = 53.31554 53.31395 70.81228
#
# Poissons Ratio (x) = 0.58871 0.13344
# Poissons Ratio (y) = 0.58873 0.13343
# Poissons Ratio (z) = 0.10047 0.10046
#
# Static dielectric constant tensor:
#      x y z
#    x 3.045330 0.000000 0.000000 
#    y 0.000000 3.045330 0.000000 
#    z 0.000000 0.000000 3.315090 
# 
# 
# High freq. dielectric constant tensor:
#      x y z
#    x 1.582010 0.000000 0.000000 
#    y 0.000000 1.582010 0.000000 
#    z 0.000000 0.000000 1.645290 
# 
# From -- ./inp_files/1077.got.cif
#   From: 2010.03.12/outbox.cif.g09.slc.cpg/sg95_1_cif.got.tgz:1077.got - 2010.04.08 20:51:55.
