data_PCOD8305074
_publ_section_title
;
Structure prediction by ZEFSAII (Michael W. Deem and Ramdas Pophale) SiO2 
 PCOD8305074
Probable space group: P 41 2 2
;
_chemical_formula_sum "Si O2"
_cell_formula_units_Z 48
_cell_length_a 12.314863
_cell_length_b 12.314863
_cell_length_c 15.834872
_cell_angle_alpha 90.000000
_cell_angle_beta 90.000000
_cell_angle_gamma 90.000000
_cell_volume 2401.450984
_symmetry_space_group_name_H-M "P 41 2 2"
_symmetry_group_IT_number 91
_symmetry_cell_setting 'tetragonal'
loop_
_space_group_symop_operation_xyz
x,y,z
-y,x,1/4+z
-x,-y,1/2+z
y,-x,3/4+z
x,-y,1/2-z
-x,y,-z
y,x,3/4-z
-y,-x,1/4-z
loop_
_atom_site_type_symbol
_atom_site_label
_atom_site_fract_x
_atom_site_fract_y
_atom_site_fract_z
Si Si1 0.894280 0.342543 0.101215
Si Si2 0.126061 0.550022 0.005901
Si Si3 0.885097 0.056960 0.532066
Si Si4 0.890440 0.566172 0.670749
Si Si5 0.781569 0.171365 0.996127
Si Si6 0.242287 0.235233 0.187842
O O1 0.828598 0.317832 0.187099
O O2 0.021055 0.357948 0.123623
O O3 0.849180 0.451816 0.058611
O O4 0.881365 0.240290 0.036873
O O5 0.155043 0.517336 0.101487
O O6 0.207053 0.647306 0.985232
O O7 0.000000 0.587113 0.000000
O O8 0.890818 0.109183 0.625000
O O9 0.845649 0.148002 0.467294
O O10 0.000000 0.014899 0.500000
O O11 0.808839 0.952486 0.527346
O O12 0.940581 0.500000 0.750000
O O13 0.793630 0.641183 0.707125
O O14 0.738683 0.227722 0.912152
#
# Coordination Sequence:
#
# PCOD8305074 Si02
#       6
#     8   8   8   8   8   8
#     4  10  23  42  66  94 130 174 231 271 319 396
#     4  10  24  41  66  96 132 173 226 277 321 401
#     4  12  26  36  57  95 141 177 207 257 333 415
#     4  11  25  42  65  95 131 180 228 275 335 395
#     4  11  24  39  65  97 133 178 216 275 333 400
#     4  12  25  42  64  94 135 174 225 272 343 400
#
# _framework density 19.987915999999998
#
# number of rings (size 3 to 8) (size 9 to 14) (size 15 to 20)
#    0.000    1.000    5.000    0.500   11.667    0.000 
#    0.000    0.000    0.000    4.000    0.000    0.000 
#    0.000    0.000    0.000    0.000    0.000    0.000 
#
# Total GULP energy -595214.687706 kJ/mol
# GULP energy per Si atom -12400.305994 kJ/mol
# Density = 1.994242 g / cm^3
# Si number density = 19.987916 Si / 1000 Ang^3
#
#
#
# Elastic Constant Matrix: (Units=GPa)
#
#
# Indices 1 2 3 4 5 6 
#
# 1 94.3600 37.1469 35.9623 0.0000 0.0000 0.0000
# 2 37.1469 94.3600 35.9624 0.0000 0.0000 0.0000
# 3 35.9623 35.9624 120.9366 0.0000 0.0000 0.0000
# 4 0.0000 0.0000 0.0000 30.6639 0.0000 0.0000
# 5 0.0000 0.0000 0.0000 0.0000 30.6638 0.0000
# 6 0.0000 0.0000 0.0000 0.0000 0.0000 23.3069
#
#
#
# Elastic Compliance Matrix: (Units=1/GPa)
#
#
# Indices 1 2 3 4 5 6 
#
# 1 0.013280 -0.004199 -0.002700 0.000000 0.000000 0.000000
# 2 -0.004199 0.013280 -0.002700 0.000000 0.000000 0.000000
# 3 -0.002700 -0.002700 0.009875 0.000000 0.000000 0.000000
# 4 0.000000 0.000000 0.000000 0.032612 0.000000 0.000000
# 5 0.000000 0.000000 0.000000 0.000000 0.032612 0.000000
# 6 0.000000 0.000000 0.000000 0.000000 0.000000 0.042906
#
#
# Mechanical properties :
#
#
# Convention : Reuss Voigt Hill
#
# Bulk Modulus (GPa) = 58.02021 58.64443 58.33232
# Shear Modulus (GPa) = 29.49720 30.29927 29.89823
#
# Velocity S-wave (km/s) = 3.84572 3.89765 3.87177
# Velocity P-wave (km/s) = 6.98642 7.04693 7.01674
#
# Compressibility (1/GPa) = 0.01723537
#
# Stress axis : x y z
#
# Youngs Moduli (GPa) = 75.30244 75.30235 101.26781
#
# Poissons Ratio (x) = 0.31617 0.27346
# Poissons Ratio (y) = 0.31617 0.27347
# Poissons Ratio (z) = 0.20335 0.20335
#
# Static dielectric constant tensor:
#      x y z
#    x 3.491290 0.000000 0.000000 
#    y 0.000000 3.491290 0.000000 
#    z 0.000000 0.000000 3.992370 
# 
# 
# High freq. dielectric constant tensor:
#      x y z
#    x 1.757380 0.000000 0.000000 
#    y 0.000000 1.757380 0.000000 
#    z 0.000000 0.000000 1.806380 
# 
# From -- ./inp_files/11948.got.cif
#   From: 2010.03.12/outbox.cif.g09.slc.cpg/sg91_6_cif.got.tgz:11948.got - 2010.04.08 20:27:58.
