data_PCOD8305880
_publ_section_title
;
Structure prediction by ZEFSAII (Michael W. Deem and Ramdas Pophale) SiO2 
 PCOD8305880
Probable space group: P 43 21 2
;
_chemical_formula_sum "Si O2"
_cell_formula_units_Z 48
_cell_length_a 16.173184
_cell_length_b 16.173184
_cell_length_c 8.673009
_cell_angle_alpha 90.000000
_cell_angle_beta 90.000000
_cell_angle_gamma 90.000000
_cell_volume 2268.615275
_symmetry_space_group_name_H-M "P 43 21 2"
_symmetry_group_IT_number 96
_symmetry_cell_setting 'tetragonal'
loop_
_space_group_symop_operation_xyz
x,y,z
1/2-y,1/2+x,3/4+z
-x,-y,1/2+z
1/2+y,1/2-x,1/4+z
1/2+x,1/2-y,1/4-z
1/2-x,1/2+y,3/4-z
y,x,-z
-y,-x,1/2-z
loop_
_atom_site_type_symbol
_atom_site_label
_atom_site_fract_x
_atom_site_fract_y
_atom_site_fract_z
Si Si1 0.964573 0.668615 0.850929
Si Si2 0.180516 0.054346 0.436655
Si Si3 0.566219 0.862601 0.948919
Si Si4 0.712834 0.621628 0.864326
Si Si5 0.887744 0.693064 0.300454
Si Si6 0.826243 0.653019 0.608749
O O1 0.911340 0.665781 0.697484
O O2 0.058636 0.677078 0.801435
O O3 0.932528 0.749943 0.936683
O O4 0.950244 0.591224 0.970921
O O5 0.099771 0.099771 0.500000
O O6 0.217322 0.092810 0.276250
O O7 0.153466 0.957026 0.419894
O O8 0.471275 0.856711 0.897084
O O9 0.630040 0.839700 0.812765
O O10 0.576988 0.797289 0.086778
O O11 0.742668 0.673197 0.711443
O O12 0.678868 0.678868 0.000000
O O13 0.831332 0.708116 0.452603
#
# Coordination Sequence:
#
# PCOD8305880 Si02
#       6
#     8   8   8   8   8   8
#     4   9  18  30  47  77 113 150 183 208 249 310
#     4   9  19  37  58  77 101 135 177 225 276 329
#     4   9  18  30  47  77 113 150 183 208 249 310
#     4   9  19  37  58  77 101 135 177 225 276 329
#     4  10  19  30  49  79 113 146 180 217 256 307
#     4  10  19  30  49  79 113 146 180 217 256 307
#
# _framework density 21.158279
#
# number of rings (size 3 to 8) (size 9 to 14) (size 15 to 20)
#    0.000    2.667    0.000    4.000    0.000   10.000 
#    0.000    3.333    0.000    8.000    0.000    0.000 
#    0.000    0.000    0.000    0.000    0.000    0.000 
#
# Total GULP energy -594739.501372 kJ/mol
# GULP energy per Si atom -12390.406279 kJ/mol
# Density = 2.111012 g / cm^3
# Si number density = 21.158279 Si / 1000 Ang^3
#
#
#
# Elastic Constant Matrix: (Units=GPa)
#
#
# Indices 1 2 3 4 5 6 
#
# 1 28.2985 4.8927 6.7276 0.0000 0.0000 0.0000
# 2 4.8927 28.2985 6.7276 0.0000 0.0000 0.0000
# 3 6.7276 6.7276 103.8771 0.0000 0.0000 0.0000
# 4 0.0000 0.0000 0.0000 32.1425 0.0000 0.0000
# 5 0.0000 0.0000 0.0000 0.0000 32.1425 0.0000
# 6 0.0000 0.0000 0.0000 0.0000 0.0000 24.5319
#
#
#
# Elastic Compliance Matrix: (Units=1/GPa)
#
#
# Indices 1 2 3 4 5 6 
#
# 1 0.036833 -0.005892 -0.002004 0.000000 0.000000 0.000000
# 2 -0.005892 0.036833 -0.002004 0.000000 0.000000 0.000000
# 3 -0.002004 -0.002004 0.009886 0.000000 0.000000 0.000000
# 4 0.000000 0.000000 0.000000 0.031111 0.000000 0.000000
# 5 0.000000 0.000000 0.000000 0.000000 0.031111 0.000000
# 6 0.000000 0.000000 0.000000 0.000000 0.000000 0.040763
#
#
# Mechanical properties :
#
#
# Convention : Reuss Voigt Hill
#
# Bulk Modulus (GPa) = 15.68568 21.90778 18.79673
# Shear Modulus (GPa) = 21.96955 27.23846 24.60401
#
# Velocity S-wave (km/s) = 3.22583 3.59188 3.41377
# Velocity P-wave (km/s) = 4.61565 5.25156 4.94384
#
# Compressibility (1/GPa) = 0.06375242
#
# Stress axis : x y z
#
# Youngs Moduli (GPa) = 27.14983 27.14983 101.14987
#
# Poissons Ratio (x) = 0.15996 0.20269
# Poissons Ratio (y) = 0.15996 0.20269
# Poissons Ratio (z) = 0.05441 0.05441
#
# Static dielectric constant tensor:
#      x y z
#    x 3.569240 0.000000 0.000000 
#    y 0.000000 3.569240 0.000000 
#    z 0.000000 0.000000 3.890810 
# 
# 
# High freq. dielectric constant tensor:
#      x y z
#    x 1.802900 0.000000 0.000000 
#    y 0.000000 1.802900 0.000000 
#    z 0.000000 0.000000 1.836210 
# 
# From -- ./inp_files/1494.got.cif
#   From: 2010.03.12/outbox.cif.g09.slc.cpg/sg96_1_cif.got.tgz:1494.got - 2010.04.08 20:56:49.
