data_PCOD8305710
_publ_section_title
;
Structure prediction by ZEFSAII (Michael W. Deem and Ramdas Pophale) SiO2 
 PCOD8305710
Probable space group: P 42 21 2
;
_chemical_formula_sum "Si O2"
_cell_formula_units_Z 28
_cell_length_a 9.200547
_cell_length_b 9.200547
_cell_length_c 17.826066
_cell_angle_alpha 90.000000
_cell_angle_beta 90.000000
_cell_angle_gamma 90.000000
_cell_volume 1508.977647
_symmetry_space_group_name_H-M "P 42 21 2"
_symmetry_group_IT_number 94
_symmetry_cell_setting 'tetragonal'
loop_
_space_group_symop_operation_xyz
x,y,z
1/2-y,1/2+x,1/2+z
-x,-y,z
1/2+y,1/2-x,1/2+z
1/2+x,1/2-y,1/2-z
1/2-x,1/2+y,1/2-z
y,x,-z
-y,-x,-z
loop_
_atom_site_type_symbol
_atom_site_label
_atom_site_fract_x
_atom_site_fract_y
_atom_site_fract_z
Si Si1 0.000000 0.500000 0.555412
Si Si2 0.860442 0.417839 0.197980
Si Si3 0.928115 0.153063 0.805233
Si Si4 0.781237 0.010955 0.030925
O O1 0.047559 0.364260 0.608689
O O2 0.130829 0.545281 0.502330
O O3 0.860492 0.244111 0.210621
O O4 0.000000 0.500000 0.235700
O O5 0.280744 0.508103 0.233127
O O6 0.971800 0.241882 0.879849
O O7 0.000000 0.000000 0.820425
O O8 0.896496 0.896496 0.000000
O O9 0.831097 0.168904 0.000000
#
# Coordination Sequence:
#
# PCOD8305710 Si02
#       4
#     4   8   8   8
#     4  10  22  40  60  88 124 146 210 250 296 370
#     4  10  23  39  59  88 120 159 199 253 310 358
#     4  12  22  39  63  88 122 160 207 254 306 378
#     4  11  20  39  64  86 115 160 202 245 301 362
#
# _framework density 18.555610000000001
#
# number of rings (size 3 to 8) (size 9 to 14) (size 15 to 20)
#    0.857    0.286    5.714    1.714    6.000    0.000 
#    0.000    0.000    0.000    0.000    0.000    0.000 
#    0.000    0.000    0.000    0.000    0.000    0.000 
#
# Total GULP energy -346909.490997 kJ/mol
# GULP energy per Si atom -12389.624678 kJ/mol
# Density = 1.851338 g / cm^3
# Si number density = 18.555610 Si / 1000 Ang^3
#
#
#
# Elastic Constant Matrix: (Units=GPa)
#
#
# Indices 1 2 3 4 5 6 
#
# 1 110.1284 41.9341 46.8902 0.0000 0.0000 0.0000
# 2 41.9341 110.1277 46.8900 0.0000 0.0000 0.0000
# 3 46.8902 46.8900 103.4109 0.0000 0.0000 0.0000
# 4 0.0000 0.0000 0.0000 23.0135 0.0000 0.0000
# 5 0.0000 0.0000 0.0000 0.0000 23.0138 0.0000
# 6 0.0000 0.0000 0.0000 0.0000 0.0000 28.2659
#
#
#
# Elastic Compliance Matrix: (Units=1/GPa)
#
#
# Indices 1 2 3 4 5 6 
#
# 1 0.011897 -0.002767 -0.004139 0.000000 0.000000 0.000000
# 2 -0.002767 0.011897 -0.004139 0.000000 0.000000 0.000000
# 3 -0.004139 -0.004139 0.013424 0.000000 0.000000 0.000000
# 4 0.000000 0.000000 0.000000 0.043453 0.000000 0.000000
# 5 0.000000 0.000000 0.000000 0.000000 0.043452 0.000000
# 6 0.000000 0.000000 0.000000 0.000000 0.000000 0.035378
#
#
# Mechanical properties :
#
#
# Convention : Reuss Voigt Hill
#
# Bulk Modulus (GPa) = 66.11771 66.12173 66.11972
# Shear Modulus (GPa) = 26.79026 27.38882 27.08954
#
# Velocity S-wave (km/s) = 3.80384 3.84609 3.82502
# Velocity P-wave (km/s) = 7.41632 7.44547 7.43091
#
# Compressibility (1/GPa) = 0.01512454
#
# Stress axis : x y z
#
# Youngs Moduli (GPa) = 84.05776 84.05722 74.49271
#
# Poissons Ratio (x) = 0.23262 0.30836
# Poissons Ratio (y) = 0.23263 0.30836
# Poissons Ratio (z) = 0.34796 0.34795
#
# Static dielectric constant tensor:
#      x y z
#    x 3.465230 0.000000 0.000000 
#    y 0.000000 3.465240 0.000000 
#    z 0.000000 0.000000 3.415390 
# 
# 
# High freq. dielectric constant tensor:
#      x y z
#    x 1.712030 0.000000 0.000000 
#    y 0.000000 1.712030 0.000000 
#    z 0.000000 0.000000 1.724280 
# 
# From -- ./inp_files/4324.got.cif
#   From: 2010.03.12/outbox.cif.g09.slc.cpg/sg94_3_cif.got.tgz:4324.got - 2010.04.08 20:48:32.
