data_PCOD8305570
_publ_section_title
;
Structure prediction by ZEFSAII (Michael W. Deem and Ramdas Pophale) SiO2 
 PCOD8305570
Probable space group: P 42 2 2
;
_chemical_formula_sum "Si O2"
_cell_formula_units_Z 40
_cell_length_a 11.322725
_cell_length_b 11.322725
_cell_length_c 13.791527
_cell_angle_alpha 90.000000
_cell_angle_beta 90.000000
_cell_angle_gamma 90.000000
_cell_volume 1768.130326
_symmetry_space_group_name_H-M "P 42 2 2"
_symmetry_group_IT_number 93
_symmetry_cell_setting 'tetragonal'
loop_
_space_group_symop_operation_xyz
x,y,z
-y,x,1/2+z
-x,-y,z
y,-x,1/2+z
x,-y,-z
-x,y,-z
y,x,1/2-z
-y,-x,1/2-z
loop_
_atom_site_type_symbol
_atom_site_label
_atom_site_fract_x
_atom_site_fract_y
_atom_site_fract_z
Si Si1 0.800208 0.923872 0.098112
Si Si2 0.213336 0.682684 0.161384
Si Si3 0.736998 0.959277 0.309921
Si Si4 0.361394 0.736057 0.981492
Si Si5 0.728816 0.584580 0.175387
O O1 0.776504 0.993671 0.199271
O O2 0.915538 0.844125 0.121185
O O3 0.681790 0.845262 0.084516
O O4 0.823596 0.000000 0.000000
O O5 0.230319 0.769682 0.250000
O O6 0.262973 0.554554 0.186469
O O7 0.073602 0.680749 0.137926
O O8 0.287437 0.745278 0.078518
O O9 0.639859 0.856769 0.305874
O O10 0.324136 0.613521 0.930520
O O11 0.500000 0.745484 0.000000
O O12 0.632744 0.632744 0.250000
#
# Coordination Sequence:
#
# PCOD8305570 Si02
#       5
#     8   8   8   8   8
#     4  10  21  43  74  98 136 188 233 289 353 422
#     4  12  26  40  66 103 136 177 239 284 346 426
#     4  10  22  46  67  98 141 181 231 289 358 420
#     4  11  24  43  65 101 138 178 236 289 353 422
#     4  11  22  44  69  94 138 188 226 289 355 413
#
# _framework density 22.622767
#
# number of rings (size 3 to 8) (size 9 to 14) (size 15 to 20)
#    0.000    1.200    4.000    3.600    0.000    7.200 
#    3.600   14.000    0.000    0.000    0.000    0.000 
#    0.000    0.000    0.000    0.000    0.000    0.000 
#
# Total GULP energy -495840.455270 kJ/mol
# GULP energy per Si atom -12396.011382 kJ/mol
# Density = 2.257128 g / cm^3
# Si number density = 22.622767 Si / 1000 Ang^3
#
#
#
# Elastic Constant Matrix: (Units=GPa)
#
#
# Indices 1 2 3 4 5 6 
#
# 1 127.5167 39.6487 41.2654 0.0000 0.0000 0.0000
# 2 39.6487 127.5148 41.2644 0.0000 0.0000 0.0000
# 3 41.2654 41.2644 120.2136 0.0000 0.0000 0.0000
# 4 0.0000 0.0000 0.0000 35.5084 0.0000 0.0000
# 5 0.0000 0.0000 0.0000 0.0000 35.5085 0.0000
# 6 0.0000 0.0000 0.0000 0.0000 0.0000 20.3921
#
#
#
# Elastic Compliance Matrix: (Units=1/GPa)
#
#
# Indices 1 2 3 4 5 6 
#
# 1 0.009292 -0.002089 -0.002472 0.000000 0.000000 0.000000
# 2 -0.002089 0.009292 -0.002472 0.000000 0.000000 0.000000
# 3 -0.002472 -0.002472 0.010016 0.000000 0.000000 0.000000
# 4 0.000000 0.000000 0.000000 0.028162 0.000000 0.000000
# 5 0.000000 0.000000 0.000000 0.000000 0.028162 0.000000
# 6 0.000000 0.000000 0.000000 0.000000 0.000000 0.049039
#
#
# Mechanical properties :
#
#
# Convention : Reuss Voigt Hill
#
# Bulk Modulus (GPa) = 68.81505 68.84467 68.82986
# Shear Modulus (GPa) = 32.70659 35.15292 33.92975
#
# Velocity S-wave (km/s) = 3.80641 3.94620 3.87693
# Velocity P-wave (km/s) = 7.05712 7.15968 7.10858
#
# Compressibility (1/GPa) = 0.01453170
#
# Stress axis : x y z
#
# Youngs Moduli (GPa) = 107.62225 107.62108 99.84094
#
# Poissons Ratio (x) = 0.22482 0.24685
# Poissons Ratio (y) = 0.22482 0.24685
# Poissons Ratio (z) = 0.26609 0.26609
#
# Static dielectric constant tensor:
#      x y z
#    x 4.029360 0.000000 0.000000 
#    y 0.000000 4.029370 0.000000 
#    z 0.000000 0.000000 4.324200 
# 
# 
# High freq. dielectric constant tensor:
#      x y z
#    x 1.888760 0.000000 0.000000 
#    y 0.000000 1.888760 0.000000 
#    z 0.000000 0.000000 1.907740 
# 
# From -- ./inp_files/4356.got.cif
#   From: 2010.03.12/outbox.cif.g09.slc.cpg/sg93_3_cif.got.tgz:4356.got - 2010.04.08 20:44:19.
