data_PCOD8305493
_publ_section_title
;
Structure prediction by ZEFSAII (Michael W. Deem and Ramdas Pophale) SiO2 
 PCOD8305493
Probable space group: P 41 21 2
;
_chemical_formula_sum "Si O2"
_cell_formula_units_Z 40
_cell_length_a 16.700394
_cell_length_b 16.700394
_cell_length_c 6.105873
_cell_angle_alpha 90.000000
_cell_angle_beta 90.000000
_cell_angle_gamma 90.000000
_cell_volume 1702.947273
_symmetry_space_group_name_H-M "P 41 21 2"
_symmetry_group_IT_number 92
_symmetry_cell_setting 'tetragonal'
loop_
_space_group_symop_operation_xyz
x,y,z
1/2-y,1/2+x,1/4+z
-x,-y,1/2+z
1/2+y,1/2-x,3/4+z
1/2+x,1/2-y,3/4-z
1/2-x,1/2+y,1/4-z
y,x,-z
-y,-x,1/2-z
loop_
_atom_site_type_symbol
_atom_site_label
_atom_site_fract_x
_atom_site_fract_y
_atom_site_fract_z
Si Si1 0.419966 0.754645 0.034269
Si Si2 0.503052 0.607364 0.863483
Si Si3 0.161311 0.694993 0.146644
Si Si4 0.269664 0.730337 0.750000
Si Si5 0.612887 0.021593 0.088429
Si Si6 0.638806 0.638806 0.500000
O O1 0.367050 0.773223 0.251171
O O2 0.477146 0.676364 0.036518
O O3 0.360118 0.744383 0.831327
O O4 0.483202 0.825361 0.006723
O O5 0.421113 0.578888 0.750000
O O6 0.575038 0.629482 0.696444
O O7 0.531729 0.531729 0.000000
O O8 0.133610 0.765770 0.315190
O O9 0.203058 0.739432 0.939773
O O10 0.078969 0.652141 0.090010
O O11 0.551097 0.072335 0.220794
#
# Coordination Sequence:
#
# PCOD8305493 Si02
#       6
#     8   8   8   4   8   4
#     4  12  26  46  78 112 148 203 259 319 390 470
#     4  12  28  47  76 112 159 204 261 332 397 462
#     4  12  27  47  81 112 151 205 261 317 382 482
#     4  12  24  50  73 105 152 196 256 308 378 462
#     4  12  26  47  73 113 156 200 254 325 396 463
#     4  12  26  48  75 117 148 208 262 314 396 470
#
# _framework density 23.488690999999999
#
# number of rings (size 3 to 8) (size 9 to 14) (size 15 to 20)
#    0.000    0.000    8.000    1.200    1.400    6.400 
#    0.000    0.000    0.000    0.000    0.000    0.000 
#    0.000    0.000    0.000    0.000    0.000    0.000 
#
# Total GULP energy -495595.975906 kJ/mol
# GULP energy per Si atom -12389.899398 kJ/mol
# Density = 2.343523 g / cm^3
# Si number density = 23.488691 Si / 1000 Ang^3
#
#
#
# Elastic Constant Matrix: (Units=GPa)
#
#
# Indices 1 2 3 4 5 6 
#
# 1 134.8478 73.9343 42.0660 0.0000 0.0000 0.0000
# 2 73.9343 134.8464 42.0656 0.0000 0.0000 0.0000
# 3 42.0660 42.0656 80.6908 0.0000 0.0000 0.0000
# 4 0.0000 0.0000 0.0000 46.5572 0.0000 0.0000
# 5 0.0000 0.0000 0.0000 0.0000 46.5580 0.0000
# 6 0.0000 0.0000 0.0000 0.0000 0.0000 62.1858
#
#
#
# Elastic Compliance Matrix: (Units=1/GPa)
#
#
# Indices 1 2 3 4 5 6 
#
# 1 0.011240 -0.005177 -0.003161 0.000000 0.000000 0.000000
# 2 -0.005177 0.011240 -0.003161 0.000000 0.000000 0.000000
# 3 -0.003161 -0.003161 0.015689 0.000000 0.000000 0.000000
# 4 0.000000 0.000000 0.000000 0.021479 0.000000 0.000000
# 5 0.000000 0.000000 0.000000 0.000000 0.021479 0.000000
# 6 0.000000 0.000000 0.000000 0.000000 0.000000 0.016081
#
#
# Mechanical properties :
#
#
# Convention : Reuss Voigt Hill
#
# Bulk Modulus (GPa) = 65.91227 74.05743 69.98485
# Shear Modulus (GPa) = 39.91624 43.88147 41.89885
#
# Velocity S-wave (km/s) = 4.12683 4.32695 4.22807
# Velocity P-wave (km/s) = 7.12950 7.52069 7.32771
#
# Compressibility (1/GPa) = 0.01517168
#
# Stress axis : x y z
#
# Youngs Moduli (GPa) = 88.96681 88.96608 63.73973
#
# Poissons Ratio (x) = 0.46055 0.20148
# Poissons Ratio (y) = 0.46056 0.20148
# Poissons Ratio (z) = 0.28123 0.28122
#
# Static dielectric constant tensor:
#      x y z
#    x 4.382070 0.000000 0.000000 
#    y 0.000000 4.382090 0.000000 
#    z 0.000000 0.000000 3.939110 
# 
# 
# High freq. dielectric constant tensor:
#      x y z
#    x 1.953120 0.000000 0.000000 
#    y 0.000000 1.953120 0.000000 
#    z 0.000000 0.000000 1.903230 
# 
# From -- ./inp_files/483.got.cif
#   From: 2010.03.12/outbox.cif.g09.slc.cpg/sg92_1_cif.got.tgz:483.got - 2010.04.08 20:41:11.
