data_PCOD8305931
_publ_section_title
;
Structure prediction by ZEFSAII (Michael W. Deem and Ramdas Pophale) SiO2 
 PCOD8305931
Probable space group: P 43 21 2
;
_chemical_formula_sum "Si O2"
_cell_formula_units_Z 40
_cell_length_a 11.329477
_cell_length_b 11.329477
_cell_length_c 15.100761
_cell_angle_alpha 90.000000
_cell_angle_beta 90.000000
_cell_angle_gamma 90.000000
_cell_volume 1938.289121
_symmetry_space_group_name_H-M "P 43 21 2"
_symmetry_group_IT_number 96
_symmetry_cell_setting 'tetragonal'
loop_
_space_group_symop_operation_xyz
x,y,z
1/2-y,1/2+x,3/4+z
-x,-y,1/2+z
1/2+y,1/2-x,1/4+z
1/2+x,1/2-y,1/4-z
1/2-x,1/2+y,3/4-z
y,x,-z
-y,-x,1/2-z
loop_
_atom_site_type_symbol
_atom_site_label
_atom_site_fract_x
_atom_site_fract_y
_atom_site_fract_z
Si Si1 0.584642 0.836717 0.925765
Si Si2 0.505875 0.119339 0.241090
Si Si3 0.416732 0.416732 0.500000
Si Si4 0.545016 0.751671 0.568424
Si Si5 0.626988 0.501473 0.596174
Si Si6 0.162353 0.162353 0.500000
O O1 0.570132 0.822913 0.820150
O O2 0.723574 0.853330 0.939326
O O3 0.551980 0.718243 0.978326
O O4 0.505925 0.946030 0.962763
O O5 0.637619 0.111528 0.276990
O O6 0.519363 0.206604 0.157674
O O7 0.493221 0.455113 0.585242
O O8 0.633067 0.644688 0.596212
O O9 0.457936 0.703296 0.490137
O O10 0.673523 0.452250 0.688079
#
# Coordination Sequence:
#
# PCOD8305931 Si02
#       6
#     8   8   4   8   8   4
#     4  10  22  39  65  94 124 171 215 266 329 380
#     4  10  21  42  64  97 127 170 213 276 313 396
#     4   9  20  42  58  91 128 164 224 261 324 402
#     4   9  22  43  64  93 133 163 220 259 328 386
#     4  10  23  45  59  98 128 171 214 272 321 400
#     4  11  24  40  66  93 130 176 212 277 328 390
#
# _framework density 20.636755000000001
#
# number of rings (size 3 to 8) (size 9 to 14) (size 15 to 20)
#    0.000    2.400    0.000    1.200    8.400    0.000 
#   36.000    0.000    0.000    0.000    0.000    0.000 
#    0.000    0.000    0.000    0.000    0.000    0.000 
#
# Total GULP energy -495577.529147 kJ/mol
# GULP energy per Si atom -12389.438229 kJ/mol
# Density = 2.058978 g / cm^3
# Si number density = 20.636755 Si / 1000 Ang^3
#
#
#
# Elastic Constant Matrix: (Units=GPa)
#
#
# Indices 1 2 3 4 5 6 
#
# 1 95.2884 56.5520 57.0953 0.0000 0.0000 0.0000
# 2 56.5520 95.2884 57.0953 0.0000 0.0000 0.0000
# 3 57.0953 57.0953 159.3089 0.0000 0.0000 0.0000
# 4 0.0000 0.0000 0.0000 31.7554 0.0000 0.0000
# 5 0.0000 0.0000 0.0000 0.0000 31.7554 0.0000
# 6 0.0000 0.0000 0.0000 0.0000 0.0000 17.7332
#
#
#
# Elastic Compliance Matrix: (Units=1/GPa)
#
#
# Indices 1 2 3 4 5 6 
#
# 1 0.017416 -0.008400 -0.003231 0.000000 0.000000 0.000000
# 2 -0.008400 0.017416 -0.003231 0.000000 0.000000 0.000000
# 3 -0.003231 -0.003231 0.008593 0.000000 0.000000 0.000000
# 4 0.000000 0.000000 0.000000 0.031491 0.000000 0.000000
# 5 0.000000 0.000000 0.000000 0.000000 0.031491 0.000000
# 6 0.000000 0.000000 0.000000 0.000000 0.000000 0.056391
#
#
# Mechanical properties :
#
#
# Convention : Reuss Voigt Hill
#
# Bulk Modulus (GPa) = 72.99240 76.81897 74.90569
# Shear Modulus (GPa) = 25.36932 28.19170 26.78051
#
# Velocity S-wave (km/s) = 3.50998 3.70008 3.60628
# Velocity P-wave (km/s) = 7.20233 7.45381 7.32915
#
# Compressibility (1/GPa) = 0.01370006
#
# Stress axis : x y z
#
# Youngs Moduli (GPa) = 57.41952 57.41952 116.37079
#
# Poissons Ratio (x) = 0.48231 0.37602
# Poissons Ratio (y) = 0.48231 0.37602
# Poissons Ratio (z) = 0.18554 0.18554
#
# Static dielectric constant tensor:
#      x y z
#    x 3.702450 0.000000 0.000000 
#    y 0.000000 3.702450 0.000000 
#    z 0.000000 0.000000 3.997970 
# 
# 
# High freq. dielectric constant tensor:
#      x y z
#    x 1.797540 0.000000 0.000000 
#    y 0.000000 1.797540 0.000000 
#    z 0.000000 0.000000 1.821640 
# 
# From -- ./inp_files/2697.got.cif
#   From: 2010.03.12/outbox.cif.g09.slc.cpg/sg96_2_cif.got.tgz:2697.got - 2010.04.08 20:56:49.
