data_PCOD8305568
_publ_section_title
;
Structure prediction by ZEFSAII (Michael W. Deem and Ramdas Pophale) SiO2 
 PCOD8305568
Probable space group: P 42 2 2
;
_chemical_formula_sum "Si O2"
_cell_formula_units_Z 26
_cell_length_a 7.918808
_cell_length_b 7.918808
_cell_length_c 19.028630
_cell_angle_alpha 90.000000
_cell_angle_beta 90.000000
_cell_angle_gamma 90.000000
_cell_volume 1193.238199
_symmetry_space_group_name_H-M "P 42 2 2"
_symmetry_group_IT_number 93
_symmetry_cell_setting 'tetragonal'
loop_
_space_group_symop_operation_xyz
x,y,z
-y,x,1/2+z
-x,-y,z
y,-x,1/2+z
x,-y,-z
-x,y,-z
y,x,1/2-z
-y,-x,1/2-z
loop_
_atom_site_type_symbol
_atom_site_label
_atom_site_fract_x
_atom_site_fract_y
_atom_site_fract_z
Si Si1 0.838832 0.668294 0.626456
Si Si2 0.008239 0.303881 0.078136
Si Si3 0.204611 0.317515 0.325611
Si Si4 0.500000 0.000000 0.000000
O O1 0.745566 0.847722 0.626678
O O2 0.729786 0.507816 0.655163
O O3 0.001823 0.684929 0.676380
O O4 0.886290 0.623139 0.546699
O O5 0.000000 0.500000 0.068199
O O6 0.183052 0.257972 0.115483
O O7 0.000000 0.219499 0.000000
O O8 0.274566 0.274566 0.250000
#
# Coordination Sequence:
#
# PCOD8305568 Si02
#       4
#     8   8   8   2
#     4  10  21  39  66  92 122 171 211 283 333 394
#     4  11  24  40  63  96 134 173 218 274 337 411
#     4  10  23  42  64  94 126 165 227 276 332 406
#     4   8  16  36  66  90 116 150 226 266 326 392
#
# _framework density 21.789446999999999
#
# number of rings (size 3 to 8) (size 9 to 14) (size 15 to 20)
#    0.000    2.154    0.000    4.615    4.308    4.923 
#    0.000    4.615    0.000    0.000    0.000    0.000 
#    0.000    0.000    0.000    0.000    0.000    0.000 
#
# Total GULP energy -322196.257001 kJ/mol
# GULP energy per Si atom -12392.163731 kJ/mol
# Density = 2.173985 g / cm^3
# Si number density = 21.789447 Si / 1000 Ang^3
#
#
#
# Elastic Constant Matrix: (Units=GPa)
#
#
# Indices 1 2 3 4 5 6 
#
# 1 116.4416 38.9662 38.2978 0.0000 0.0000 0.0000
# 2 38.9662 116.4416 38.2978 0.0000 0.0000 0.0000
# 3 38.2978 38.2978 137.1469 0.0000 0.0000 0.0000
# 4 0.0000 0.0000 0.0000 39.4029 0.0000 0.0000
# 5 0.0000 0.0000 0.0000 0.0000 39.4029 0.0000
# 6 0.0000 0.0000 0.0000 0.0000 0.0000 -14.8678
#
#
#
# Elastic Compliance Matrix: (Units=1/GPa)
#
#
# Indices 1 2 3 4 5 6 
#
# 1 0.010184 -0.002723 -0.002084 0.000000 0.000000 0.000000
# 2 -0.002723 0.010184 -0.002084 0.000000 0.000000 0.000000
# 3 -0.002084 -0.002084 0.008455 0.000000 0.000000 0.000000
# 4 0.000000 0.000000 0.000000 0.025379 0.000000 0.000000
# 5 0.000000 0.000000 0.000000 0.000000 0.025379 0.000000
# 6 0.000000 0.000000 0.000000 0.000000 0.000000 -0.067259
#
#
# Mechanical properties :
#
#
# Convention : Reuss Voigt Hill
#
# Bulk Modulus (GPa) = 66.47219 66.79484 66.63352
# Shear Modulus (GPa) = 160.68189 29.75214 95.21701
#
# Velocity S-wave (km/s) = 8.59669 3.69919 6.61767
# Velocity P-wave (km/s) = 11.36267 6.99761 9.43602
#
# Compressibility (1/GPa) = 0.01504389
#
# Stress axis : x y z
#
# Youngs Moduli (GPa) = 98.18854 98.18854 118.27112
#
# Poissons Ratio (x) = 0.26735 0.24643
# Poissons Ratio (y) = 0.26735 0.24643
# Poissons Ratio (z) = 0.20459 0.20459
#
# Static dielectric constant tensor:
#      x y z
#    x 3.861130 0.000000 0.000000 
#    y 0.000000 3.861130 0.000000 
#    z 0.000000 0.000000 3.883190 
# 
# 
# High freq. dielectric constant tensor:
#      x y z
#    x 1.854730 0.000000 0.000000 
#    y 0.000000 1.854730 0.000000 
#    z 0.000000 0.000000 1.856750 
# 
# From -- ./inp_files/4894.got.cif
#   From: 2010.03.12/outbox.cif.g09.slc.cpg/sg93_3_cif.got.tgz:4894.got - 2010.04.08 20:44:19.
