data_PCOD8305002
_publ_section_title
;
Structure prediction by ZEFSAII (Michael W. Deem and Ramdas Pophale) SiO2 
 PCOD8305002
Probable space group: P 41 2 2
;
_chemical_formula_sum "Si O2"
_cell_formula_units_Z 48
_cell_length_a 9.224886
_cell_length_b 9.224886
_cell_length_c 26.112671
_cell_angle_alpha 90.000000
_cell_angle_beta 90.000000
_cell_angle_gamma 90.000000
_cell_volume 2222.149700
_symmetry_space_group_name_H-M "P 41 2 2"
_symmetry_group_IT_number 91
_symmetry_cell_setting 'tetragonal'
loop_
_space_group_symop_operation_xyz
x,y,z
-y,x,1/4+z
-x,-y,1/2+z
y,-x,3/4+z
x,-y,1/2-z
-x,y,-z
y,x,3/4-z
-y,-x,1/4-z
loop_
_atom_site_type_symbol
_atom_site_label
_atom_site_fract_x
_atom_site_fract_y
_atom_site_fract_z
Si Si1 0.788148 0.261859 0.438436
Si Si2 0.403260 0.769120 0.665405
Si Si3 0.925159 0.309882 0.617114
Si Si4 0.371484 0.097981 0.644623
Si Si5 0.066213 0.665115 0.234069
Si Si6 0.829713 0.784485 0.507159
O O1 0.749586 0.426615 0.425535
O O2 0.674140 0.156423 0.410491
O O3 0.758804 0.210650 0.497792
O O4 0.952932 0.234453 0.419025
O O5 0.352791 0.647210 0.625000
O O6 0.334082 0.754398 0.721150
O O7 0.353789 0.924490 0.643482
O O8 0.789592 0.210409 0.625000
O O9 0.871530 0.460274 0.592093
O O10 0.978148 0.337267 0.674591
O O11 0.272352 0.185906 0.684806
O O12 0.083283 0.500000 0.250000
O O13 0.929910 0.747071 0.258505
O O14 0.000000 0.806351 0.500000
#
# Coordination Sequence:
#
# PCOD8305002 Si02
#       6
#     8   8   8   8   8   8
#     4  11  24  42  66  97 135 168 226 271 328 402
#     4  10  23  41  66  94 128 175 215 271 327 390
#     4  11  26  42  67  97 135 179 215 277 344 385
#     4  10  21  44  63  94 132 165 219 272 322 397
#     4  12  25  44  67  98 133 175 220 280 335 398
#     4  10  23  41  69  96 125 172 222 268 330 393
#
# _framework density 21.600704
#
# number of rings (size 3 to 8) (size 9 to 14) (size 15 to 20)
#    0.000    1.333    3.333    1.000    7.000    1.333 
#    0.000    0.833    0.000    0.000    0.000    0.000 
#    0.000    0.000    0.000    0.000    0.000    0.000 
#
# Total GULP energy -594858.081556 kJ/mol
# GULP energy per Si atom -12392.876699 kJ/mol
# Density = 2.155154 g / cm^3
# Si number density = 21.600704 Si / 1000 Ang^3
#
#
#
# Elastic Constant Matrix: (Units=GPa)
#
#
# Indices 1 2 3 4 5 6 
#
# 1 74.6136 42.2859 15.8459 0.0000 0.0000 0.0000
# 2 42.2859 74.6085 15.8484 0.0000 0.0000 0.0000
# 3 15.8459 15.8484 54.2024 0.0000 0.0000 0.0000
# 4 0.0000 0.0000 0.0000 19.9202 0.0000 0.0000
# 5 0.0000 0.0000 0.0000 0.0000 19.9203 0.0000
# 6 0.0000 0.0000 0.0000 0.0000 0.0000 33.1071
#
#
#
# Elastic Compliance Matrix: (Units=1/GPa)
#
#
# Indices 1 2 3 4 5 6 
#
# 1 0.020112 -0.010822 -0.002715 0.000000 0.000000 0.000000
# 2 -0.010822 0.020114 -0.002717 0.000000 0.000000 0.000000
# 3 -0.002715 -0.002717 0.020038 0.000000 0.000000 0.000000
# 4 0.000000 0.000000 0.000000 0.050200 0.000000 0.000000
# 5 0.000000 0.000000 0.000000 0.000000 0.050200 0.000000
# 6 0.000000 0.000000 0.000000 0.000000 0.000000 0.030205
#
#
# Mechanical properties :
#
#
# Convention : Reuss Voigt Hill
#
# Bulk Modulus (GPa) = 36.03063 39.04277 37.53670
# Shear Modulus (GPa) = 21.49321 23.21914 22.35618
#
# Velocity S-wave (km/s) = 3.15782 3.28216 3.22059
# Velocity P-wave (km/s) = 5.47835 5.69890 5.58971
#
# Compressibility (1/GPa) = 0.02775416
#
# Stress axis : x y z
#
# Youngs Moduli (GPa) = 49.72043 49.71579 49.90580
#
# Poissons Ratio (x) = 0.53804 0.13552
# Poissons Ratio (y) = 0.53809 0.13561
# Poissons Ratio (z) = 0.13501 0.13510
#
# Static dielectric constant tensor:
#      x y z
#    x 3.824790 0.000000 0.000000 
#    y 0.000000 3.824790 0.000000 
#    z 0.000000 0.000000 2.061710 
# 
# 
# High freq. dielectric constant tensor:
#      x y z
#    x 1.845000 0.000000 0.000000 
#    y 0.000000 1.845000 0.000000 
#    z 0.000000 0.000000 1.858660 
# 
# From -- ./inp_files/13584.got.cif
#   From: 2010.03.12/outbox.cif.g09.slc.cpg/sg91_7_cif.got.tgz:13584.got - 2010.04.08 20:27:58.
