data_PCOD8305448
_publ_section_title
;
Structure prediction by ZEFSAII (Michael W. Deem and Ramdas Pophale) SiO2 
 PCOD8305448
Probable space group: P 41 21 2
;
_chemical_formula_sum "Si O2"
_cell_formula_units_Z 56
_cell_length_a 14.628433
_cell_length_b 14.628433
_cell_length_c 11.724566
_cell_angle_alpha 90.000000
_cell_angle_beta 90.000000
_cell_angle_gamma 90.000000
_cell_volume 2508.952213
_symmetry_space_group_name_H-M "P 41 21 2"
_symmetry_group_IT_number 92
_symmetry_cell_setting 'tetragonal'
loop_
_space_group_symop_operation_xyz
x,y,z
1/2-y,1/2+x,1/4+z
-x,-y,1/2+z
1/2+y,1/2-x,3/4+z
1/2+x,1/2-y,3/4-z
1/2-x,1/2+y,1/4-z
y,x,-z
-y,-x,1/2-z
loop_
_atom_site_type_symbol
_atom_site_label
_atom_site_fract_x
_atom_site_fract_y
_atom_site_fract_z
Si Si1 0.662279 0.117271 0.388872
Si Si2 0.820653 0.179348 0.250000
Si Si3 0.459431 0.731995 0.258048
Si Si4 0.475829 0.524172 0.250000
Si Si5 0.230020 0.149558 0.797204
Si Si6 0.382112 0.819998 0.476612
Si Si7 0.975029 0.683470 0.029678
Si Si8 0.508875 0.348529 0.383900
O O1 0.734908 0.187026 0.333402
O O2 0.627710 0.167761 0.503406
O O3 0.578481 0.108059 0.298816
O O4 0.711439 0.023777 0.421407
O O5 0.810471 0.086171 0.180573
O O6 0.494758 0.629517 0.287472
O O7 0.448805 0.788713 0.373783
O O8 0.367348 0.722029 0.182737
O O9 0.499586 0.455196 0.352747
O O10 0.206087 0.255094 0.775570
O O11 0.156882 0.084765 0.732691
O O12 0.433681 0.810529 0.595319
O O13 0.349476 0.922135 0.456350
O O14 0.965451 0.784077 0.973446
#
# Coordination Sequence:
#
# PCOD8305448 Si02
#       8
#     8   4   8   4   8   8   8   8
#     4  11  24  43  77 102 135 188 246 296 357 434
#     4  12  20  41  74 108 139 176 242 302 360 424
#     4  12  26  46  70 110 145 196 234 298 388 441
#     4  12  22  43  70 108 153 180 234 296 370 452
#     4  11  23  46  72 104 148 186 238 303 367 448
#     4  12  27  47  66 102 151 187 242 308 361 442
#     4  11  27  47  71 104 140 193 254 303 360 427
#     4  11  22  41  75 110 137 185 242 302 364 432
#
# _framework density 22.320074999999999
#
# number of rings (size 3 to 8) (size 9 to 14) (size 15 to 20)
#    0.000    0.571    4.286    3.429    4.000    3.429 
#    2.571    0.000    0.000    0.000    0.000    0.000 
#    0.000    0.000    0.000    0.000    0.000    0.000 
#
# Total GULP energy -694416.522309 kJ/mol
# GULP energy per Si atom -12400.295041 kJ/mol
# Density = 2.226927 g / cm^3
# Si number density = 22.320075 Si / 1000 Ang^3
#
#
#
# Elastic Constant Matrix: (Units=GPa)
#
#
# Indices 1 2 3 4 5 6 
#
# 1 110.9778 26.6654 37.2370 0.0000 0.0000 0.0000
# 2 26.6654 110.9784 37.2371 0.0000 0.0000 0.0000
# 3 37.2370 37.2371 134.6256 0.0000 0.0000 0.0000
# 4 0.0000 0.0000 0.0000 32.1701 0.0000 0.0000
# 5 0.0000 0.0000 0.0000 0.0000 32.1700 0.0000
# 6 0.0000 0.0000 0.0000 0.0000 0.0000 35.2836
#
#
#
# Elastic Compliance Matrix: (Units=1/GPa)
#
#
# Indices 1 2 3 4 5 6 
#
# 1 0.010202 -0.001658 -0.002363 0.000000 0.000000 0.000000
# 2 -0.001658 0.010202 -0.002363 0.000000 0.000000 0.000000
# 3 -0.002363 -0.002363 0.008735 0.000000 0.000000 0.000000
# 4 0.000000 0.000000 0.000000 0.031085 0.000000 0.000000
# 5 0.000000 0.000000 0.000000 0.000000 0.031085 0.000000
# 6 0.000000 0.000000 0.000000 0.000000 0.000000 0.028342
#
#
# Mechanical properties :
#
#
# Convention : Reuss Voigt Hill
#
# Bulk Modulus (GPa) = 61.08688 62.09565 61.59127
# Shear Modulus (GPa) = 36.26410 36.95422 36.60916
#
# Velocity S-wave (km/s) = 4.03517 4.07338 4.05432
# Velocity P-wave (km/s) = 7.00986 7.07136 7.04068
#
# Compressibility (1/GPa) = 0.01637013
#
# Stress axis : x y z
#
# Youngs Moduli (GPa) = 98.01787 98.01834 114.47795
#
# Poissons Ratio (x) = 0.16256 0.27053
# Poissons Ratio (y) = 0.16255 0.27053
# Poissons Ratio (z) = 0.23163 0.23164
#
# Static dielectric constant tensor:
#      x y z
#    x 4.048140 0.000000 0.000000 
#    y 0.000000 4.048150 0.000000 
#    z 0.000000 0.000000 4.175860 
# 
# 
# High freq. dielectric constant tensor:
#      x y z
#    x 1.878760 0.000000 0.000000 
#    y 0.000000 1.878760 0.000000 
#    z 0.000000 0.000000 1.890930 
# 
# From -- ./inp_files/2316.got.cif
#   From: 2010.03.12/outbox.cif.g09.slc.cpg/sg92_2_cif.got.tgz:2316.got - 2010.04.08 20:41:11.
