data_PCOD8305492
_publ_section_title
;
Structure prediction by ZEFSAII (Michael W. Deem and Ramdas Pophale) SiO2 
 PCOD8305492
Probable space group: P 41 21 2
;
_chemical_formula_sum "Si O2"
_cell_formula_units_Z 28
_cell_length_a 7.419740
_cell_length_b 7.419740
_cell_length_c 19.636408
_cell_angle_alpha 90.000000
_cell_angle_beta 90.000000
_cell_angle_gamma 90.000000
_cell_volume 1081.034170
_symmetry_space_group_name_H-M "P 41 21 2"
_symmetry_group_IT_number 92
_symmetry_cell_setting 'tetragonal'
loop_
_space_group_symop_operation_xyz
x,y,z
1/2-y,1/2+x,1/4+z
-x,-y,1/2+z
1/2+y,1/2-x,3/4+z
1/2+x,1/2-y,3/4-z
1/2-x,1/2+y,1/4-z
y,x,-z
-y,-x,1/2-z
loop_
_atom_site_type_symbol
_atom_site_label
_atom_site_fract_x
_atom_site_fract_y
_atom_site_fract_z
Si Si1 0.474227 0.412911 0.138215
Si Si2 0.420435 0.125810 0.779727
Si Si3 0.658532 0.781687 0.136055
Si Si4 0.334705 0.334705 0.000000
O O1 0.315911 0.350825 0.188648
O O2 0.573922 0.594770 0.161615
O O3 0.632400 0.261245 0.137169
O O4 0.386602 0.458015 0.064381
O O5 0.336861 0.095764 0.704678
O O6 0.634524 0.131772 0.775519
O O7 0.368629 0.958346 0.826459
#
# Coordination Sequence:
#
# PCOD8305492 Si02
#       4
#     8   8   8   4
#     4  12  25  49  74 118 154 209 270 322 404 478
#     4  12  24  52  79 109 159 216 264 333 405 470
#     4  12  27  48  79 113 157 214 264 331 401 478
#     4  12  24  48  78 110 160 210 256 334 398 468
#
# _framework density 25.901122000000001
#
# number of rings (size 3 to 8) (size 9 to 14) (size 15 to 20)
#    0.000    0.000    5.714    3.429    0.000    0.000 
#   30.857    0.000    0.000    0.000    0.000    0.000 
#    0.000    0.000    0.000    0.000    0.000    0.000 
#
# Total GULP energy -347284.231689 kJ/mol
# GULP energy per Si atom -12403.008275 kJ/mol
# Density = 2.584217 g / cm^3
# Si number density = 25.901122 Si / 1000 Ang^3
#
#
#
# Elastic Constant Matrix: (Units=GPa)
#
#
# Indices 1 2 3 4 5 6 
#
# 1 68.0450 26.5365 12.1562 0.0000 0.0000 0.0000
# 2 26.5365 68.0450 12.1562 0.0000 0.0000 0.0000
# 3 12.1562 12.1562 119.8628 0.0000 0.0000 0.0000
# 4 0.0000 0.0000 0.0000 41.3019 0.0000 0.0000
# 5 0.0000 0.0000 0.0000 0.0000 41.3019 0.0000
# 6 0.0000 0.0000 0.0000 0.0000 0.0000 35.0388
#
#
#
# Elastic Compliance Matrix: (Units=1/GPa)
#
#
# Indices 1 2 3 4 5 6 
#
# 1 0.017474 -0.006618 -0.001101 0.000000 0.000000 0.000000
# 2 -0.006618 0.017474 -0.001101 0.000000 0.000000 0.000000
# 3 -0.001101 -0.001101 0.008566 0.000000 0.000000 0.000000
# 4 0.000000 0.000000 0.000000 0.024212 0.000000 0.000000
# 5 0.000000 0.000000 0.000000 0.000000 0.024212 0.000000
# 6 0.000000 0.000000 0.000000 0.000000 0.000000 0.028540
#
#
# Mechanical properties :
#
#
# Convention : Reuss Voigt Hill
#
# Bulk Modulus (GPa) = 38.64873 39.73896 39.19384
# Shear Modulus (GPa) = 34.07354 37.20211 35.63783
#
# Velocity S-wave (km/s) = 3.63095 3.79398 3.71336
# Velocity P-wave (km/s) = 5.70372 5.87948 5.79227
#
# Compressibility (1/GPa) = 0.02587407
#
# Stress axis : x y z
#
# Youngs Moduli (GPa) = 57.22896 57.22896 116.73802
#
# Poissons Ratio (x) = 0.37873 0.12853
# Poissons Ratio (y) = 0.37873 0.12853
# Poissons Ratio (z) = 0.06301 0.06301
#
# Static dielectric constant tensor:
#      x y z
#    x 4.781670 0.000000 0.000000 
#    y 0.000000 4.781670 0.000000 
#    z 0.000000 0.000000 4.865000 
# 
# 
# High freq. dielectric constant tensor:
#      x y z
#    x 2.037450 0.000000 0.000000 
#    y 0.000000 2.037450 0.000000 
#    z 0.000000 0.000000 2.050020 
# 
# From -- ./inp_files/3305.got.cif
#   From: 2010.03.12/outbox.cif.g09.slc.cpg/sg92_2_cif.got.tgz:3305.got - 2010.04.08 20:41:11.
