data_PCOD8305012
_publ_section_title
;
Structure prediction by ZEFSAII (Michael W. Deem and Ramdas Pophale) SiO2 
 PCOD8305012
Probable space group: P 41 2 2
;
_chemical_formula_sum "Si O2"
_cell_formula_units_Z 48
_cell_length_a 8.959550
_cell_length_b 8.959550
_cell_length_c 30.522770
_cell_angle_alpha 90.000000
_cell_angle_beta 90.000000
_cell_angle_gamma 90.000000
_cell_volume 2450.170683
_symmetry_space_group_name_H-M "P 41 2 2"
_symmetry_group_IT_number 91
_symmetry_cell_setting 'tetragonal'
loop_
_space_group_symop_operation_xyz
x,y,z
-y,x,1/4+z
-x,-y,1/2+z
y,-x,3/4+z
x,-y,1/2-z
-x,y,-z
y,x,3/4-z
-y,-x,1/4-z
loop_
_atom_site_type_symbol
_atom_site_label
_atom_site_fract_x
_atom_site_fract_y
_atom_site_fract_z
Si Si1 0.673828 0.337794 0.503117
Si Si2 0.848599 0.332892 0.416530
Si Si3 0.676898 0.324572 0.253405
Si Si4 0.842636 0.681906 0.414696
Si Si5 0.166062 0.156525 0.670906
Si Si6 0.845713 0.182659 0.576756
O O1 0.500000 0.318428 0.500000
O O2 0.738224 0.293866 0.455970
O O3 0.718374 0.506876 0.516058
O O4 0.725654 0.223210 0.540238
O O5 0.844227 0.506670 0.404127
O O6 0.798377 0.239465 0.374429
O O7 0.011210 0.284068 0.432838
O O8 0.698508 0.500000 0.250000
O O9 0.719911 0.253520 0.207217
O O10 0.789190 0.264321 0.289701
O O11 0.771045 0.771045 0.375000
O O12 0.009407 0.735497 0.423295
O O13 0.992357 0.113844 0.675235
O O14 0.780178 0.219823 0.625000
#
# Coordination Sequence:
#
# PCOD8305012 Si02
#       6
#     8   8   8   8   8   8
#     4  10  22  38  59  85 113 149 191 234 282 339
#     4  10  22  39  58  82 115 152 186 230 286 341
#     4  10  22  40  59  84 117 152 190 233 286 344
#     4  11  22  38  60  85 114 150 191 234 285 339
#     4  11  23  38  60  87 115 150 193 239 286 339
#     4  10  22  39  57  83 115 149 188 232 285 340
#
# _framework density 19.590471999999998
#
# number of rings (size 3 to 8) (size 9 to 14) (size 15 to 20)
#    0.000    1.667    0.000    4.500    0.000   11.333 
#    0.000    1.667    0.000    0.000    0.000    0.000 
#    0.000    0.000    0.000    0.000    0.000    0.000 
#
# Total GULP energy -595442.590685 kJ/mol
# GULP energy per Si atom -12405.053973 kJ/mol
# Density = 1.954588 g / cm^3
# Si number density = 19.590472 Si / 1000 Ang^3
#
#
#
# Elastic Constant Matrix: (Units=GPa)
#
#
# Indices 1 2 3 4 5 6 
#
# 1 74.0172 24.5092 52.3160 0.0000 0.0000 0.0000
# 2 24.5092 74.0171 52.3160 0.0000 0.0000 0.0000
# 3 52.3160 52.3160 122.0472 0.0000 0.0000 0.0000
# 4 0.0000 0.0000 0.0000 36.8542 0.0000 0.0000
# 5 0.0000 0.0000 0.0000 0.0000 36.8543 0.0000
# 6 0.0000 0.0000 0.0000 0.0000 0.0000 30.7615
#
#
#
# Elastic Compliance Matrix: (Units=1/GPa)
#
#
# Indices 1 2 3 4 5 6 
#
# 1 0.019415 -0.000784 -0.007986 0.000000 0.000000 0.000000
# 2 -0.000784 0.019415 -0.007986 0.000000 0.000000 0.000000
# 3 -0.007986 -0.007986 0.015040 0.000000 0.000000 0.000000
# 4 0.000000 0.000000 0.000000 0.027134 0.000000 0.000000
# 5 0.000000 0.000000 0.000000 0.000000 0.027134 0.000000
# 6 0.000000 0.000000 0.000000 0.000000 0.000000 0.032508
#
#
# Mechanical properties :
#
#
# Convention : Reuss Voigt Hill
#
# Bulk Modulus (GPa) = 49.12340 58.70712 53.91526
# Shear Modulus (GPa) = 27.63295 30.29002 28.96148
#
# Velocity S-wave (km/s) = 3.75978 3.93639 3.84910
# Velocity P-wave (km/s) = 6.63155 7.11986 6.88004
#
# Compressibility (1/GPa) = 0.02035690
#
# Stress axis : x y z
#
# Youngs Moduli (GPa) = 51.50754 51.50750 66.48917
#
# Poissons Ratio (x) = 0.04039 0.53098
# Poissons Ratio (y) = 0.04039 0.53099
# Poissons Ratio (z) = 0.41134 0.41134
#
# Static dielectric constant tensor:
#      x y z
#    x 3.634610 0.000000 0.000000 
#    y 0.000000 3.634610 0.000000 
#    z 0.000000 0.000000 3.664460 
# 
# 
# High freq. dielectric constant tensor:
#      x y z
#    x 1.769990 0.000000 0.000000 
#    y 0.000000 1.769990 0.000000 
#    z 0.000000 0.000000 1.777800 
# 
# From -- ./inp_files/7918.got.cif
#   From: 2010.03.12/outbox.cif.g09.slc.cpg/sg91_4_cif.got.tgz:7918.got - 2010.04.08 20:27:58.
