data_PCOD8305019
_publ_section_title
;
Structure prediction by ZEFSAII (Michael W. Deem and Ramdas Pophale) SiO2 
 PCOD8305019
Probable space group: P 41 2 2
;
_chemical_formula_sum "Si O2"
_cell_formula_units_Z 48
_cell_length_a 8.797611
_cell_length_b 8.797611
_cell_length_c 30.951863
_cell_angle_alpha 90.000000
_cell_angle_beta 90.000000
_cell_angle_gamma 90.000000
_cell_volume 2395.611033
_symmetry_space_group_name_H-M "P 41 2 2"
_symmetry_group_IT_number 91
_symmetry_cell_setting 'tetragonal'
loop_
_space_group_symop_operation_xyz
x,y,z
-y,x,1/4+z
-x,-y,1/2+z
y,-x,3/4+z
x,-y,1/2-z
-x,y,-z
y,x,3/4-z
-y,-x,1/4-z
loop_
_atom_site_type_symbol
_atom_site_label
_atom_site_fract_x
_atom_site_fract_y
_atom_site_fract_z
Si Si1 0.678029 0.815512 0.914905
Si Si2 0.308362 0.165047 0.091746
Si Si3 0.125511 0.399693 0.791950
Si Si4 0.658066 0.176366 0.742425
Si Si5 0.175474 0.313744 0.010678
Si Si6 0.805182 0.329078 0.822184
O O1 0.706915 0.706915 0.875000
O O2 0.784558 0.776034 0.955000
O O3 0.507888 0.782448 0.928651
O O4 0.711421 0.986553 0.899766
O O5 0.485566 0.194041 0.078392
O O6 0.200640 0.212640 0.052653
O O7 0.250904 0.256870 0.133085
O O8 0.073304 0.500000 0.750000
O O9 0.254303 0.278620 0.779079
O O10 0.983867 0.302999 0.811326
O O11 0.486983 0.222134 0.729241
O O12 0.697182 0.261998 0.786065
O O13 0.672978 0.000000 0.750000
O O14 0.000000 0.299649 0.000000
#
# Coordination Sequence:
#
# PCOD8305019 Si02
#       6
#     8   8   8   8   8   8
#     4  11  23  39  61  88 117 154 198 240 290 348
#     4  10  22  39  59  86 118 151 192 243 292 349
#     4   9  20  40  60  82 117 155 193 239 292 348
#     4  11  23  39  59  87 120 153 195 242 289 348
#     4  10  22  39  60  86 116 153 196 243 292 345
#     4  11  22  38  61  87 117 152 194 241 293 350
#
# _framework density 20.036640999999999
#
# number of rings (size 3 to 8) (size 9 to 14) (size 15 to 20)
#    0.000    1.667    0.000    5.500    0.000   13.333 
#    0.000    1.667    0.000    0.000    0.000    0.000 
#    0.000    0.000    0.000    0.000    0.000    0.000 
#
# Total GULP energy -595221.713882 kJ/mol
# GULP energy per Si atom -12400.452373 kJ/mol
# Density = 1.999104 g / cm^3
# Si number density = 20.036641 Si / 1000 Ang^3
#
#
#
# Elastic Constant Matrix: (Units=GPa)
#
#
# Indices 1 2 3 4 5 6 
#
# 1 -72.1122 212.7905 29.1229 0.0000 0.0000 0.0000
# 2 212.7905 -72.1122 29.1229 0.0000 0.0000 0.0000
# 3 29.1229 29.1229 90.4256 0.0000 0.0000 0.0000
# 4 0.0000 0.0000 0.0000 33.7756 0.0000 0.0000
# 5 0.0000 0.0000 0.0000 0.0000 33.7756 0.0000
# 6 0.0000 0.0000 0.0000 0.0000 0.0000 35.9322
#
#
#
# Elastic Compliance Matrix: (Units=1/GPa)
#
#
# Indices 1 2 3 4 5 6 
#
# 1 0.002346 0.005856 -0.002642 0.000000 0.000000 0.000000
# 2 0.005856 0.002346 -0.002642 0.000000 0.000000 0.000000
# 3 -0.002642 -0.002642 0.012760 0.000000 0.000000 0.000000
# 4 0.000000 0.000000 0.000000 0.029607 0.000000 0.000000
# 5 0.000000 0.000000 0.000000 0.000000 0.029607 0.000000
# 6 0.000000 0.000000 0.000000 0.000000 0.000000 0.027830
#
#
# Mechanical properties :
#
#
# Convention : Reuss Voigt Hill
#
# Bulk Modulus (GPa) = 53.76874 54.25263 54.01069
# Shear Modulus (GPa) = 45.64091 -0.95900 22.34095
#
# Velocity S-wave (km/s) = 4.77788 -0.69258 3.34279
# Velocity P-wave (km/s) = 7.57173 5.14742 6.47406
#
# Compressibility (1/GPa) = 0.01859817
#
# Stress axis : x y z
#
# Youngs Moduli (GPa) = 426.24214 426.24214 78.36775
#
# Poissons Ratio (x) = -2.49610 0.20702
# Poissons Ratio (y) = -2.49610 0.20702
# Poissons Ratio (z) = 1.12597 1.12597
#
# Static dielectric constant tensor:
#      x y z
#    x 3.744860 0.000000 0.000000 
#    y 0.000000 3.744860 0.000000 
#    z 0.000000 0.000000 3.450710 
# 
# 
# High freq. dielectric constant tensor:
#      x y z
#    x 1.788410 0.000000 0.000000 
#    y 0.000000 1.788410 0.000000 
#    z 0.000000 0.000000 1.786250 
# 
# From -- ./inp_files/13601.got.cif
#   From: 2010.03.12/outbox.cif.g09.slc.cpg/sg91_7_cif.got.tgz:13601.got - 2010.04.08 20:27:58.
