data_PCOD8305884
_publ_section_title
;
Structure prediction by ZEFSAII (Michael W. Deem and Ramdas Pophale) SiO2 
 PCOD8305884
Probable space group: P 43 21 2
;
_chemical_formula_sum "Si O2"
_cell_formula_units_Z 64
_cell_length_a 19.042284
_cell_length_b 19.042284
_cell_length_c 9.527926
_cell_angle_alpha 90.000000
_cell_angle_beta 90.000000
_cell_angle_gamma 90.000000
_cell_volume 3454.907717
_symmetry_space_group_name_H-M "P 43 21 2"
_symmetry_group_IT_number 96
_symmetry_cell_setting 'tetragonal'
loop_
_space_group_symop_operation_xyz
x,y,z
1/2-y,1/2+x,3/4+z
-x,-y,1/2+z
1/2+y,1/2-x,1/4+z
1/2+x,1/2-y,1/4-z
1/2-x,1/2+y,3/4-z
y,x,-z
-y,-x,1/2-z
loop_
_atom_site_type_symbol
_atom_site_label
_atom_site_fract_x
_atom_site_fract_y
_atom_site_fract_z
Si Si1 0.805208 0.777194 0.853381
Si Si2 0.791822 0.309792 0.327187
Si Si3 0.470731 0.565825 0.405067
Si Si4 0.691952 0.053980 0.264709
Si Si5 0.782188 0.465212 0.227337
Si Si6 0.938723 0.465807 0.159139
Si Si7 0.067775 0.188263 0.727594
Si Si8 0.967316 0.783185 0.927875
O O1 0.790980 0.714335 0.743322
O O2 0.784572 0.851585 0.781348
O O3 0.885521 0.781073 0.897001
O O4 0.763158 0.763158 0.000000
O O5 0.729228 0.270773 0.250000
O O6 0.865794 0.285552 0.262964
O O7 0.781096 0.392982 0.313968
O O8 0.525987 0.525987 0.500000
O O9 0.467276 0.532725 0.250000
O O10 0.395701 0.563461 0.482480
O O11 0.497757 0.645744 0.391347
O O12 0.608616 0.043233 0.269982
O O13 0.727093 0.028240 0.410556
O O14 0.716735 0.007582 0.133916
O O15 0.855063 0.474095 0.142687
O O16 0.718444 0.468049 0.117925
O O17 0.971248 0.526808 0.256143
O O18 0.023084 0.216806 0.595656
#
# Coordination Sequence:
#
# PCOD8305884 Si02
#       8
#     8   8   8   8   8   8   8   8
#     4   9  17  33  57  83 105 139 188 237 269 316
#     4  11  20  34  56  82 112 142 185 233 275 333
#     4   9  19  34  51  81 115 144 180 225 264 315
#     4  10  21  34  52  79 113 142 177 225 283 333
#     4  10  19  35  56  81 106 143 184 226 273 328
#     4   9  20  36  53  75 106 136 177 228 273 325
#     4   9  18  33  57  81 107 142 190 228 258 314
#     4   9  18  34  54  77 109 144 183 223 272 322
#
# _framework density 18.524374000000002
#
# number of rings (size 3 to 8) (size 9 to 14) (size 15 to 20)
#    0.000    2.500    2.500    1.500    0.000    2.500 
#    0.000    2.500    2.750    0.750    0.000    0.000 
#    0.000    0.000    0.000    0.000    0.000    0.000 
#
# Total GULP energy -793472.762335 kJ/mol
# GULP energy per Si atom -12398.011911 kJ/mol
# Density = 1.848221 g / cm^3
# Si number density = 18.524374 Si / 1000 Ang^3
#
#
#
# Elastic Constant Matrix: (Units=GPa)
#
#
# Indices 1 2 3 4 5 6 
#
# 1 51.5420 28.5329 42.2663 0.0000 0.0000 0.0000
# 2 28.5329 51.5407 42.2665 0.0000 0.0000 0.0000
# 3 42.2663 42.2665 116.4787 0.0000 0.0000 0.0000
# 4 0.0000 0.0000 0.0000 32.6429 0.0000 0.0000
# 5 0.0000 0.0000 0.0000 0.0000 32.6431 0.0000
# 6 0.0000 0.0000 0.0000 0.0000 0.0000 22.6832
#
#
#
# Elastic Compliance Matrix: (Units=1/GPa)
#
#
# Indices 1 2 3 4 5 6 
#
# 1 0.031852 -0.011610 -0.007345 0.000000 0.000000 0.000000
# 2 -0.011610 0.031853 -0.007346 0.000000 0.000000 0.000000
# 3 -0.007345 -0.007346 0.013916 0.000000 0.000000 0.000000
# 4 0.000000 0.000000 0.000000 0.030634 0.000000 0.000000
# 5 0.000000 0.000000 0.000000 0.000000 0.030634 0.000000
# 6 0.000000 0.000000 0.000000 0.000000 0.000000 0.044085
#
#
# Mechanical properties :
#
#
# Convention : Reuss Voigt Hill
#
# Bulk Modulus (GPa) = 39.96805 49.52142 44.74473
# Shear Modulus (GPa) = 20.49878 24.69357 22.59617
#
# Velocity S-wave (km/s) = 3.33014 3.65503 3.49636
# Velocity P-wave (km/s) = 6.03401 6.67858 6.36446
#
# Compressibility (1/GPa) = 0.02501998
#
# Stress axis : x y z
#
# Youngs Moduli (GPa) = 31.39526 31.39398 71.85877
#
# Poissons Ratio (x) = 0.36447 0.52782
# Poissons Ratio (y) = 0.36449 0.52786
# Poissons Ratio (z) = 0.23061 0.23061
#
# Static dielectric constant tensor:
#      x y z
#    x 3.330570 0.000000 0.000000 
#    y 0.000000 3.330570 0.000000 
#    z 0.000000 0.000000 3.600380 
# 
# 
# High freq. dielectric constant tensor:
#      x y z
#    x 1.700700 0.000000 0.000000 
#    y 0.000000 1.700700 0.000000 
#    z 0.000000 0.000000 1.725760 
# 
# From -- ./inp_files/1721.got.cif
#   From: 2010.03.12/outbox.cif.g09.slc.cpg/sg96_1_cif.got.tgz:1721.got - 2010.04.08 20:56:49.
