data_PCOD8305213
_publ_section_title
;
Structure prediction by ZEFSAII (Michael W. Deem and Ramdas Pophale) SiO2 
 PCOD8305213
Probable space group: P 41 21 2
;
_chemical_formula_sum "Si O2"
_cell_formula_units_Z 48
_cell_length_a 14.811335
_cell_length_b 14.811335
_cell_length_c 10.954616
_cell_angle_alpha 90.000000
_cell_angle_beta 90.000000
_cell_angle_gamma 90.000000
_cell_volume 2403.175945
_symmetry_space_group_name_H-M "P 41 21 2"
_symmetry_group_IT_number 92
_symmetry_cell_setting 'tetragonal'
loop_
_space_group_symop_operation_xyz
x,y,z
1/2-y,1/2+x,1/4+z
-x,-y,1/2+z
1/2+y,1/2-x,3/4+z
1/2+x,1/2-y,3/4-z
1/2-x,1/2+y,1/4-z
y,x,-z
-y,-x,1/2-z
loop_
_atom_site_type_symbol
_atom_site_label
_atom_site_fract_x
_atom_site_fract_y
_atom_site_fract_z
Si Si1 0.352668 0.439266 0.783853
Si Si2 0.918188 0.959692 0.182114
Si Si3 0.820312 0.880288 0.626627
Si Si4 0.572473 0.744650 0.330232
Si Si5 0.860145 0.300721 0.676588
Si Si6 0.428472 0.002147 0.013241
O O1 0.415709 0.489519 0.881805
O O2 0.347233 0.505569 0.668329
O O3 0.395802 0.340991 0.749624
O O4 0.251988 0.425278 0.833631
O O5 0.861051 0.890514 0.264781
O O6 0.950332 0.049668 0.250000
O O7 0.874844 0.874844 0.500000
O O8 0.740152 0.807094 0.630386
O O9 0.777031 0.977799 0.644332
O O10 0.644952 0.752206 0.440658
O O11 0.561475 0.838494 0.255432
O O12 0.903790 0.397408 0.698293
O O13 0.495592 0.968869 0.124103
#
# Coordination Sequence:
#
# PCOD8305213 Si02
#       6
#     8   8   8   8   8   8
#     4  11  20  35  58  84 118 157 191 251 313 362
#     4  11  21  34  56  87 120 153 193 248 316 368
#     4  11  20  33  57  88 115 152 203 251 296 368
#     4  10  18  34  58  86 115 149 201 256 301 354
#     4  10  20  36  59  85 115 156 209 252 294 364
#     4   9  20  38  61  88 116 158 210 259 310 366
#
# _framework density 19.973566999999999
#
# number of rings (size 3 to 8) (size 9 to 14) (size 15 to 20)
#    0.000    1.667    3.333    2.500    0.000    0.000 
#    0.000    8.333    3.667    0.000    0.000    0.000 
#    0.000    0.000    0.000    0.000    0.000    0.000 
#
# Total GULP energy -594878.694590 kJ/mol
# GULP energy per Si atom -12393.306137 kJ/mol
# Density = 1.992811 g / cm^3
# Si number density = 19.973567 Si / 1000 Ang^3
#
#
#
# Elastic Constant Matrix: (Units=GPa)
#
#
# Indices 1 2 3 4 5 6 
#
# 1 74.0545 20.9727 35.6506 0.0000 0.0000 0.0000
# 2 20.9727 74.0545 35.6506 0.0000 0.0000 0.0000
# 3 35.6506 35.6506 100.2317 0.0000 0.0000 0.0000
# 4 0.0000 0.0000 0.0000 32.5575 0.0000 0.0000
# 5 0.0000 0.0000 0.0000 0.0000 32.5575 0.0000
# 6 0.0000 0.0000 0.0000 0.0000 0.0000 30.9088
#
#
#
# Elastic Compliance Matrix: (Units=1/GPa)
#
#
# Indices 1 2 3 4 5 6 
#
# 1 0.016596 -0.002242 -0.005105 0.000000 0.000000 0.000000
# 2 -0.002242 0.016596 -0.005105 0.000000 0.000000 0.000000
# 3 -0.005105 -0.005105 0.013609 0.000000 0.000000 0.000000
# 4 0.000000 0.000000 0.000000 0.030715 0.000000 0.000000
# 5 0.000000 0.000000 0.000000 0.000000 0.030715 0.000000
# 6 0.000000 0.000000 0.000000 0.000000 0.000000 0.032353
#
#
# Mechanical properties :
#
#
# Convention : Reuss Voigt Hill
#
# Bulk Modulus (GPa) = 45.67265 48.09874 46.88570
# Shear Modulus (GPa) = 28.93688 29.60918 29.27303
#
# Velocity S-wave (km/s) = 3.81039 3.85440 3.83245
# Velocity P-wave (km/s) = 6.50192 6.62887 6.56570
#
# Compressibility (1/GPa) = 0.02189494
#
# Stress axis : x y z
#
# Youngs Moduli (GPa) = 60.25377 60.25377 73.48213
#
# Poissons Ratio (x) = 0.13511 0.37516
# Poissons Ratio (y) = 0.13511 0.37516
# Poissons Ratio (z) = 0.30763 0.30763
#
# Static dielectric constant tensor:
#      x y z
#    x 3.689380 0.000000 0.000000 
#    y 0.000000 3.689380 0.000000 
#    z 0.000000 0.000000 3.581180 
# 
# 
# High freq. dielectric constant tensor:
#      x y z
#    x 1.778150 0.000000 0.000000 
#    y 0.000000 1.778150 0.000000 
#    z 0.000000 0.000000 1.754710 
# 
# From -- ./inp_files/2189.got.cif
#   From: 2010.03.12/outbox.cif.g09.slc.cpg/sg92_2_cif.got.tgz:2189.got - 2010.04.08 20:41:11.
