data_PCOD8305713
_publ_section_title
;
Structure prediction by ZEFSAII (Michael W. Deem and Ramdas Pophale) SiO2 
 PCOD8305713
Probable space group: P 42 21 2
;
_chemical_formula_sum "Si O2"
_cell_formula_units_Z 34
_cell_length_a 7.737973
_cell_length_b 7.737973
_cell_length_c 25.313988
_cell_angle_alpha 90.000000
_cell_angle_beta 90.000000
_cell_angle_gamma 90.000000
_cell_volume 1515.706070
_symmetry_space_group_name_H-M "P 42 21 2"
_symmetry_group_IT_number 94
_symmetry_cell_setting 'tetragonal'
loop_
_space_group_symop_operation_xyz
x,y,z
1/2-y,1/2+x,1/2+z
-x,-y,z
1/2+y,1/2-x,1/2+z
1/2+x,1/2-y,1/2-z
1/2-x,1/2+y,1/2-z
y,x,-z
-y,-x,-z
loop_
_atom_site_type_symbol
_atom_site_label
_atom_site_fract_x
_atom_site_fract_y
_atom_site_fract_z
Si Si1 0.444790 0.188430 0.576277
Si Si2 0.380901 0.681787 0.674087
Si Si3 0.612783 0.834877 0.368957
Si Si4 0.500000 0.500000 0.500000
Si Si5 0.473730 0.314075 0.784833
O O1 0.552190 0.186726 0.630518
O O2 0.240950 0.239839 0.590279
O O3 0.510213 0.326764 0.534185
O O4 0.500000 0.000000 0.552721
O O5 0.336321 0.501018 0.644086
O O6 0.518103 0.670594 0.721500
O O7 0.214599 0.751819 0.702576
O O8 0.687504 0.890436 0.312482
O O9 0.500000 0.000000 0.392352
O O10 0.500000 0.500000 0.811300
#
# Coordination Sequence:
#
# PCOD8305713 Si02
#       5
#     8   8   8   2   8
#     4  12  25  47  77  99 131 185 235 298 365 428
#     4  11  21  38  62  96 142 186 228 282 353 422
#     4  10  22  40  66  99 146 188 230 293 355 434
#     4  12  28  52  76 104 140 188 244 318 376 424
#     4  11  21  33  59 101 144 185 230 277 344 436
#
# _framework density 22.431788999999998
#
# number of rings (size 3 to 8) (size 9 to 14) (size 15 to 20)
#    0.000    0.941    2.353    5.647    0.000    3.765 
#    0.000    0.000    0.000    0.000    0.000    0.000 
#    0.000    0.000    0.000    0.000    0.000    0.000 
#
# Total GULP energy -421213.076349 kJ/mol
# GULP energy per Si atom -12388.619893 kJ/mol
# Density = 2.238073 g / cm^3
# Si number density = 22.431789 Si / 1000 Ang^3
#
#
#
# Elastic Constant Matrix: (Units=GPa)
#
#
# Indices 1 2 3 4 5 6 
#
# 1 126.6700 39.0604 44.6792 0.0000 0.0000 0.0000
# 2 39.0604 126.6700 44.6792 0.0000 0.0000 0.0000
# 3 44.6792 44.6792 88.9045 0.0000 0.0000 0.0000
# 4 0.0000 0.0000 0.0000 27.2787 0.0000 0.0000
# 5 0.0000 0.0000 0.0000 0.0000 27.2787 0.0000
# 6 0.0000 0.0000 0.0000 0.0000 0.0000 34.3229
#
#
#
# Elastic Compliance Matrix: (Units=1/GPa)
#
#
# Indices 1 2 3 4 5 6 
#
# 1 0.009845 -0.001569 -0.004159 0.000000 0.000000 0.000000
# 2 -0.001569 0.009845 -0.004159 0.000000 0.000000 0.000000
# 3 -0.004159 -0.004159 0.015429 0.000000 0.000000 0.000000
# 4 0.000000 0.000000 0.000000 0.036659 0.000000 0.000000
# 5 0.000000 0.000000 0.000000 0.000000 0.036659 0.000000
# 6 0.000000 0.000000 0.000000 0.000000 0.000000 0.029135
#
#
# Mechanical properties :
#
#
# Convention : Reuss Voigt Hill
#
# Bulk Modulus (GPa) = 65.17140 66.56469 65.86805
# Shear Modulus (GPa) = 30.77644 32.03110 31.40377
#
# Velocity S-wave (km/s) = 3.70807 3.78290 3.74567
# Velocity P-wave (km/s) = 6.88834 6.98707 6.93788
#
# Compressibility (1/GPa) = 0.01534415
#
# Stress axis : x y z
#
# Youngs Moduli (GPa) = 101.57006 101.57006 64.81437
#
# Poissons Ratio (x) = 0.15935 0.26959
# Poissons Ratio (y) = 0.15935 0.26959
# Poissons Ratio (z) = 0.42247 0.42247
#
# Static dielectric constant tensor:
#      x y z
#    x 4.178620 0.000000 0.000000 
#    y 0.000000 4.178620 0.000000 
#    z 0.000000 0.000000 3.935860 
# 
# 
# High freq. dielectric constant tensor:
#      x y z
#    x 1.894550 0.000000 0.000000 
#    y 0.000000 1.894550 0.000000 
#    z 0.000000 0.000000 1.860910 
# 
# From -- ./inp_files/4520.got.cif
#   From: 2010.03.12/outbox.cif.g09.slc.cpg/sg94_3_cif.got.tgz:4520.got - 2010.04.08 20:48:32.
