data_PCOD8305848
_publ_section_title
;
Structure prediction by ZEFSAII (Michael W. Deem and Ramdas Pophale) SiO2 
 PCOD8305848
Probable space group: P 43 2 2
;
_chemical_formula_sum "Si O2"
_cell_formula_units_Z 40
_cell_length_a 15.886700
_cell_length_b 15.886700
_cell_length_c 7.970543
_cell_angle_alpha 90.000000
_cell_angle_beta 90.000000
_cell_angle_gamma 90.000000
_cell_volume 2011.663324
_symmetry_space_group_name_H-M "P 43 2 2"
_symmetry_group_IT_number 95
_symmetry_cell_setting 'tetragonal'
loop_
_space_group_symop_operation_xyz
x,y,z
-y,x,3/4+z
-x,-y,1/2+z
y,-x,1/4+z
x,-y,1/2-z
-x,y,-z
y,x,1/4-z
-y,-x,3/4-z
loop_
_atom_site_type_symbol
_atom_site_label
_atom_site_fract_x
_atom_site_fract_y
_atom_site_fract_z
Si Si1 0.755729 0.329319 0.022413
Si Si2 0.073173 0.580061 0.133115
Si Si3 0.481984 0.775286 0.817817
Si Si4 0.923099 0.923099 0.625000
Si Si5 0.669761 0.330240 0.375000
Si Si6 0.923487 0.733441 0.620495
O O1 0.763065 0.428294 0.983242
O O2 0.724718 0.306219 0.210248
O O3 0.692262 0.307739 0.875000
O O4 0.841570 0.277934 0.995960
O O5 0.056621 0.500000 0.250000
O O6 0.076566 0.667728 0.229412
O O7 0.161936 0.574162 0.039904
O O8 0.000000 0.584304 0.000000
O O9 0.428916 0.687703 0.835826
O O10 0.500000 0.815518 0.000000
O O11 0.929893 0.827846 0.698764
O O12 0.000000 0.935542 0.500000
O O13 0.000000 0.712541 0.500000
#
# Coordination Sequence:
#
# PCOD8305848 Si02
#       6
#     8   8   8   4   4   8
#     4  11  22  42  67  93 132 174 222 280 337 397
#     4  12  24  37  61  96 134 176 218 272 355 426
#     4  10  23  41  62  92 129 174 215 274 332 404
#     4  10  24  48  71  90 129 176 230 290 344 402
#     4  10  24  38  67  92 127 176 228 258 326 406
#     4  11  24  41  62  98 133 168 222 282 338 416
#
# _framework density 19.884042999999998
#
# number of rings (size 3 to 8) (size 9 to 14) (size 15 to 20)
#    0.000    1.200    3.000    2.400    5.600    0.800 
#    0.000    4.000   19.800    0.000    0.000    0.000 
#    0.000    0.000    0.000    0.000    0.000    0.000 
#
# Total GULP energy -495759.884983 kJ/mol
# GULP energy per Si atom -12393.997125 kJ/mol
# Density = 1.983879 g / cm^3
# Si number density = 19.884043 Si / 1000 Ang^3
#
#
#
# Elastic Constant Matrix: (Units=GPa)
#
#
# Indices 1 2 3 4 5 6 
#
# 1 138.9388 71.7826 66.3422 0.0000 0.0000 0.0000
# 2 71.7826 138.9370 66.3469 0.0000 0.0000 0.0000
# 3 66.3422 66.3469 113.5545 0.0000 0.0000 0.0000
# 4 0.0000 0.0000 0.0000 30.9868 0.0000 0.0000
# 5 0.0000 0.0000 0.0000 0.0000 30.9854 0.0000
# 6 0.0000 0.0000 0.0000 0.0000 0.0000 32.0836
#
#
#
# Elastic Compliance Matrix: (Units=1/GPa)
#
#
# Indices 1 2 3 4 5 6 
#
# 1 0.011199 -0.003692 -0.004386 0.000000 0.000000 0.000000
# 2 -0.003692 0.011200 -0.004387 0.000000 0.000000 0.000000
# 3 -0.004386 -0.004387 0.013932 0.000000 0.000000 0.000000
# 4 0.000000 0.000000 0.000000 0.032272 0.000000 0.000000
# 5 0.000000 0.000000 0.000000 0.000000 0.032273 0.000000
# 6 0.000000 0.000000 0.000000 0.000000 0.000000 0.031169
#
#
# Mechanical properties :
#
#
# Convention : Reuss Voigt Hill
#
# Bulk Modulus (GPa) = 87.70628 88.93040 88.31834
# Shear Modulus (GPa) = 31.09969 31.27509 31.18739
#
# Velocity S-wave (km/s) = 3.95910 3.97025 3.96468
# Velocity P-wave (km/s) = 8.06870 8.11411 8.09144
#
# Compressibility (1/GPa) = 0.01140169
#
# Stress axis : x y z
#
# Youngs Moduli (GPa) = 89.29474 89.28825 71.77786
#
# Poissons Ratio (x) = 0.32961 0.31481
# Poissons Ratio (y) = 0.32964 0.31489
# Poissons Ratio (z) = 0.39163 0.39170
#
# Static dielectric constant tensor:
#      x y z
#    x 3.911410 0.000000 0.000000 
#    y 0.000000 3.911390 0.000000 
#    z 0.000000 0.000000 3.755810 
# 
# 
# High freq. dielectric constant tensor:
#      x y z
#    x 1.783770 0.000000 0.000000 
#    y 0.000000 1.783770 0.000000 
#    z 0.000000 0.000000 1.777800 
# 
# From -- ./inp_files/2438.got.cif
#   From: 2010.03.12/outbox.cif.g09.slc.cpg/sg95_2_cif.got.tgz:2438.got - 2010.04.08 20:51:55.
