data_PCOD8305533
_publ_section_title
;
Structure prediction by ZEFSAII (Michael W. Deem and Ramdas Pophale) SiO2 
 PCOD8305533
Probable space group: P 42 2 2
;
_chemical_formula_sum "Si O2"
_cell_formula_units_Z 40
_cell_length_a 9.002163
_cell_length_b 9.002163
_cell_length_c 24.935056
_cell_angle_alpha 90.000000
_cell_angle_beta 90.000000
_cell_angle_gamma 90.000000
_cell_volume 2020.710474
_symmetry_space_group_name_H-M "P 42 2 2"
_symmetry_group_IT_number 93
_symmetry_cell_setting 'tetragonal'
loop_
_space_group_symop_operation_xyz
x,y,z
-y,x,1/2+z
-x,-y,z
y,-x,1/2+z
x,-y,-z
-x,y,-z
y,x,1/2-z
-y,-x,1/2-z
loop_
_atom_site_type_symbol
_atom_site_label
_atom_site_fract_x
_atom_site_fract_y
_atom_site_fract_z
Si Si1 0.000000 0.000000 0.000000
Si Si2 0.195105 0.195105 0.250000
Si Si3 0.170906 0.045794 0.829669
Si Si4 0.327392 0.354257 0.687365
Si Si5 0.252573 0.128673 0.070735
Si Si6 0.500000 0.000000 0.000000
Si Si7 0.675735 0.649780 0.154270
O O1 0.897873 0.107657 0.963676
O O2 0.209744 0.310907 0.201748
O O3 0.029421 0.219401 0.273579
O O4 0.216517 0.217787 0.824727
O O5 0.262237 0.987928 0.880562
O O6 0.000000 0.000000 0.839981
O O7 0.366277 0.366277 0.750000
O O8 0.270879 0.517147 0.668509
O O9 0.473090 0.328191 0.651505
O O10 0.397371 0.108364 0.034650
O O11 0.260663 0.292458 0.097278
#
# Coordination Sequence:
#
# PCOD8305533 Si02
#       7
#     2   4   8   8   8   2   8
#     4  10  20  42  68  82 124 146 202 270 336 352
#     4  10  19  35  54  86 128 156 210 244 286 368
#     4  11  22  37  56  90 127 165 204 248 305 370
#     4  11  20  36  59  88 134 175 196 243 294 368
#     4  10  21  38  65  90 113 159 203 265 312 370
#     4  10  20  38  64  96 112 150 220 268 320 360
#     4  10  20  38  59  90 123 166 212 246 304 371
#
# _framework density 19.795017000000001
#
# number of rings (size 3 to 8) (size 9 to 14) (size 15 to 20)
#    0.000    1.600    3.000    3.300    0.000    2.400 
#    3.600    3.000    0.000   19.200    0.000    0.000 
#    0.000    0.000    0.000    0.000    0.000    0.000 
#
# Total GULP energy -495799.594787 kJ/mol
# GULP energy per Si atom -12394.989870 kJ/mol
# Density = 1.974996 g / cm^3
# Si number density = 19.795017 Si / 1000 Ang^3
#
#
#
# Elastic Constant Matrix: (Units=GPa)
#
#
# Indices 1 2 3 4 5 6 
#
# 1 116.4421 60.4464 53.8964 0.0000 0.0000 0.0000
# 2 60.4464 116.4421 53.8964 0.0000 0.0000 0.0000
# 3 53.8964 53.8964 130.9960 0.0000 0.0000 0.0000
# 4 0.0000 0.0000 0.0000 24.1919 0.0000 0.0000
# 5 0.0000 0.0000 0.0000 0.0000 24.1919 0.0000
# 6 0.0000 0.0000 0.0000 0.0000 0.0000 29.9799
#
#
#
# Elastic Compliance Matrix: (Units=1/GPa)
#
#
# Indices 1 2 3 4 5 6 
#
# 1 0.012702 -0.005157 -0.003104 0.000000 0.000000 0.000000
# 2 -0.005157 0.012702 -0.003104 0.000000 0.000000 0.000000
# 3 -0.003104 -0.003104 0.010188 0.000000 0.000000 0.000000
# 4 0.000000 0.000000 0.000000 0.041336 0.000000 0.000000
# 5 0.000000 0.000000 0.000000 0.000000 0.041336 0.000000
# 6 0.000000 0.000000 0.000000 0.000000 0.000000 0.033356
#
#
# Mechanical properties :
#
#
# Convention : Reuss Voigt Hill
#
# Bulk Modulus (GPa) = 77.75386 77.81762 77.78574
# Shear Modulus (GPa) = 27.98968 28.71547 28.35258
#
# Velocity S-wave (km/s) = 3.76437 3.81286 3.78869
# Velocity P-wave (km/s) = 7.63274 7.66687 7.64983
#
# Compressibility (1/GPa) = 0.01286110
#
# Stress axis : x y z
#
# Youngs Moduli (GPa) = 78.72935 78.72935 98.15237
#
# Poissons Ratio (x) = 0.40599 0.30469
# Poissons Ratio (y) = 0.40599 0.30469
# Poissons Ratio (z) = 0.24440 0.24440
#
# Static dielectric constant tensor:
#      x y z
#    x 3.575470 0.000000 0.000000 
#    y 0.000000 3.575470 0.000000 
#    z 0.000000 0.000000 3.732870 
# 
# 
# High freq. dielectric constant tensor:
#      x y z
#    x 1.762880 0.000000 0.000000 
#    y 0.000000 1.762880 0.000000 
#    z 0.000000 0.000000 1.771910 
# 
# From -- ./inp_files/7643.got.cif
#   From: 2010.03.12/outbox.cif.g09.slc.cpg/sg93_4_cif.got.tgz:7643.got - 2010.04.08 20:44:19.
