data_PCOD8305366
_publ_section_title
;
Structure prediction by ZEFSAII (Michael W. Deem and Ramdas Pophale) SiO2 
 PCOD8305366
Probable space group: P 41 21 2
;
_chemical_formula_sum "Si O2"
_cell_formula_units_Z 60
_cell_length_a 13.962580
_cell_length_b 13.962580
_cell_length_c 15.757493
_cell_angle_alpha 90.000000
_cell_angle_beta 90.000000
_cell_angle_gamma 90.000000
_cell_volume 3071.980622
_symmetry_space_group_name_H-M "P 41 21 2"
_symmetry_group_IT_number 92
_symmetry_cell_setting 'tetragonal'
loop_
_space_group_symop_operation_xyz
x,y,z
1/2-y,1/2+x,1/4+z
-x,-y,1/2+z
1/2+y,1/2-x,3/4+z
1/2+x,1/2-y,3/4-z
1/2-x,1/2+y,1/4-z
y,x,-z
-y,-x,1/2-z
loop_
_atom_site_type_symbol
_atom_site_label
_atom_site_fract_x
_atom_site_fract_y
_atom_site_fract_z
Si Si1 0.809110 0.083002 0.593436
Si Si2 0.150600 0.572386 0.195500
Si Si3 0.307980 0.585212 0.814971
Si Si4 0.090929 0.834704 0.945625
Si Si5 0.972423 0.466860 0.535771
Si Si6 0.724370 0.724370 0.500000
Si Si7 0.486999 0.509606 0.900768
Si Si8 0.363228 0.893087 0.624803
O O1 0.819159 0.148110 0.508684
O O2 0.791397 0.147454 0.676030
O O3 0.904606 0.020539 0.609594
O O4 0.722065 0.012956 0.575247
O O5 0.079607 0.580622 0.116244
O O6 0.210242 0.669229 0.212400
O O7 0.080284 0.549116 0.275170
O O8 0.327044 0.672957 0.750000
O O9 0.299372 0.492908 0.756558
O O10 0.391484 0.571129 0.884090
O O11 0.215691 0.602208 0.871011
O O12 0.107546 0.752243 0.875100
O O13 0.072418 0.934348 0.896607
O O14 0.939677 0.400702 0.460338
O O15 0.088003 0.452876 0.547957
O O16 0.506150 0.506150 0.000000
#
# Coordination Sequence:
#
# PCOD8305366 Si02
#       8
#     8   8   8   8   8   4   8   8
#     4  11  23  43  64  96 134 166 221 270 325 396
#     4  11  24  42  61  99 131 170 213 278 332 387
#     4   9  20  38  60  88 121 161 216 254 308 379
#     4  10  22  41  60  95 127 169 208 263 326 381
#     4  10  23  39  65  90 127 167 215 266 323 383
#     4  12  24  40  72  98 126 180 226 268 342 408
#     4  10  22  39  64  91 125 168 212 267 319 389
#     4  11  20  40  66  87 121 167 211 262 312 383
#
# _framework density 19.531375000000001
#
# number of rings (size 3 to 8) (size 9 to 14) (size 15 to 20)
#    0.000    1.600    3.333    2.000    9.333    0.533 
#    4.800    2.667    0.000    0.000    0.000    0.000 
#    0.000    0.000    0.000    0.000    0.000    0.000 
#
# Total GULP energy -743682.854322 kJ/mol
# GULP energy per Si atom -12394.714239 kJ/mol
# Density = 1.948692 g / cm^3
# Si number density = 19.531375 Si / 1000 Ang^3
#
#
#
# Elastic Constant Matrix: (Units=GPa)
#
#
# Indices 1 2 3 4 5 6 
#
# 1 -6.5555 138.1164 40.8542 0.0000 0.0000 0.0000
# 2 138.1164 -6.5610 40.8489 0.0000 0.0000 0.0000
# 3 40.8542 40.8489 100.3897 0.0000 0.0000 0.0000
# 4 0.0000 0.0000 0.0000 29.3075 0.0000 0.0000
# 5 0.0000 0.0000 0.0000 0.0000 29.3075 0.0000
# 6 0.0000 0.0000 0.0000 0.0000 0.0000 27.8214
#
#
#
# Elastic Compliance Matrix: (Units=1/GPa)
#
#
# Indices 1 2 3 4 5 6 
#
# 1 0.001630 0.008542 -0.004139 0.000000 0.000000 0.000000
# 2 0.008542 0.001630 -0.004139 0.000000 0.000000 0.000000
# 3 -0.004139 -0.004139 0.013330 0.000000 0.000000 0.000000
# 4 0.000000 0.000000 0.000000 0.034121 0.000000 0.000000
# 5 0.000000 0.000000 0.000000 0.000000 0.034121 0.000000
# 6 0.000000 0.000000 0.000000 0.000000 0.000000 0.035944
#
#
# Mechanical properties :
#
#
# Convention : Reuss Voigt Hill
#
# Bulk Modulus (GPa) = 58.42248 58.54582 58.48415
# Shear Modulus (GPa) = 39.69712 8.45086 24.07399
#
# Velocity S-wave (km/s) = 4.51319 2.08236 3.51462
# Velocity P-wave (km/s) = 7.55881 5.98514 6.81753
#
# Compressibility (1/GPa) = 0.01711670
#
# Stress axis : x y z
#
# Youngs Moduli (GPa) = 613.52255 613.55552 75.01912
#
# Poissons Ratio (x) = -5.24096 0.31051
# Poissons Ratio (y) = -5.24068 0.31053
# Poissons Ratio (z) = 2.53941 2.53975
#
# Static dielectric constant tensor:
#      x y z
#    x 3.686230 0.000000 0.000000 
#    y 0.000000 3.686230 0.000000 
#    z 0.000000 0.000000 3.701140 
# 
# 
# High freq. dielectric constant tensor:
#      x y z
#    x 1.757510 0.000000 0.000000 
#    y 0.000000 1.757510 0.000000 
#    z 0.000000 0.000000 1.762230 
# 
# From -- ./inp_files/2814.got.cif
#   From: 2010.03.12/outbox.cif.g09.slc.cpg/sg92_2_cif.got.tgz:2814.got - 2010.04.08 20:41:11.
