data_PCOD8305659
_publ_section_title
;
Structure prediction by ZEFSAII (Michael W. Deem and Ramdas Pophale) SiO2 
 PCOD8305659
Probable space group: P 42 21 2
;
_chemical_formula_sum "Si O2"
_cell_formula_units_Z 34
_cell_length_a 8.175363
_cell_length_b 8.175363
_cell_length_c 24.888466
_cell_angle_alpha 90.000000
_cell_angle_beta 90.000000
_cell_angle_gamma 90.000000
_cell_volume 1663.459456
_symmetry_space_group_name_H-M "P 42 21 2"
_symmetry_group_IT_number 94
_symmetry_cell_setting 'tetragonal'
loop_
_space_group_symop_operation_xyz
x,y,z
1/2-y,1/2+x,1/2+z
-x,-y,z
1/2+y,1/2-x,1/2+z
1/2+x,1/2-y,1/2-z
1/2-x,1/2+y,1/2-z
y,x,-z
-y,-x,-z
loop_
_atom_site_type_symbol
_atom_site_label
_atom_site_fract_x
_atom_site_fract_y
_atom_site_fract_z
Si Si1 0.500000 0.500000 0.500000
Si Si2 0.315832 0.131500 0.179802
Si Si3 0.036789 0.673125 0.710068
Si Si4 0.950368 0.312191 0.926102
Si Si5 0.345544 0.595616 0.866849
O O1 0.327110 0.498612 0.468582
O O2 0.197444 0.271984 0.200790
O O3 0.488973 0.209171 0.163613
O O4 0.329346 0.997366 0.226439
O O5 0.248473 0.043473 0.126980
O O6 0.000000 0.500000 0.683422
O O7 0.921497 0.799104 0.680373
O O8 0.753510 0.309056 0.913832
O O9 0.000000 0.500000 0.943727
O O10 0.500000 0.500000 0.893747
#
# Coordination Sequence:
#
# PCOD8305659 Si02
#       5
#     2   8   8   8   8
#     4  12  28  48  74 102 120 180 236 290 340 384
#     4  10  20  37  58  86 135 170 207 266 323 391
#     4  11  20  31  57  98 125 173 214 251 324 409
#     4  10  23  48  66  91 132 166 216 288 331 389
#     4   9  20  39  61  89 131 171 208 261 337 398
#
# _framework density 20.439335
#
# number of rings (size 3 to 8) (size 9 to 14) (size 15 to 20)
#    0.000    1.882    0.000    4.941    3.294    0.000 
#   19.059    0.000    0.000    0.000    0.000    0.000 
#    0.000    0.000    0.000    0.000    0.000    0.000 
#
# Total GULP energy -421242.278000 kJ/mol
# GULP energy per Si atom -12389.478765 kJ/mol
# Density = 2.039281 g / cm^3
# Si number density = 20.439335 Si / 1000 Ang^3
#
#
#
# Elastic Constant Matrix: (Units=GPa)
#
#
# Indices 1 2 3 4 5 6 
#
# 1 107.3096 44.2088 61.2004 0.0000 0.0000 0.0000
# 2 44.2088 107.3096 61.2004 0.0000 0.0000 0.0000
# 3 61.2004 61.2004 94.2335 0.0000 0.0000 0.0000
# 4 0.0000 0.0000 0.0000 16.3553 0.0000 0.0000
# 5 0.0000 0.0000 0.0000 0.0000 16.3553 0.0000
# 6 0.0000 0.0000 0.0000 0.0000 0.0000 32.0875
#
#
#
# Elastic Compliance Matrix: (Units=1/GPa)
#
#
# Indices 1 2 3 4 5 6 
#
# 1 0.014866 -0.000982 -0.009017 0.000000 0.000000 0.000000
# 2 -0.000982 0.014866 -0.009017 0.000000 0.000000 0.000000
# 3 -0.009017 -0.009017 0.022324 0.000000 0.000000 0.000000
# 4 0.000000 0.000000 0.000000 0.061142 0.000000 0.000000
# 5 0.000000 0.000000 0.000000 0.000000 0.061142 0.000000
# 6 0.000000 0.000000 0.000000 0.000000 0.000000 0.031165
#
#
# Mechanical properties :
#
#
# Convention : Reuss Voigt Hill
#
# Bulk Modulus (GPa) = 71.30553 71.34132 71.32342
# Shear Modulus (GPa) = 20.14405 22.44249 21.29327
#
# Velocity S-wave (km/s) = 3.14276 3.31721 3.23116
# Velocity P-wave (km/s) = 6.93768 7.04639 6.99224
#
# Compressibility (1/GPa) = 0.01402416
#
# Stress axis : x y z
#
# Youngs Moduli (GPa) = 67.26810 67.26810 44.79416
#
# Poissons Ratio (x) = 0.06604 0.40391
# Poissons Ratio (y) = 0.06604 0.40391
# Poissons Ratio (z) = 0.60656 0.60656
#
# Static dielectric constant tensor:
#      x y z
#    x 4.288960 0.000000 0.000000 
#    y 0.000000 4.288960 0.000000 
#    z 0.000000 0.000000 3.480190 
# 
# 
# High freq. dielectric constant tensor:
#      x y z
#    x 1.811120 0.000000 0.000000 
#    y 0.000000 1.811120 0.000000 
#    z 0.000000 0.000000 1.770200 
# 
# From -- ./inp_files/4499.got.cif
#   From: 2010.03.12/outbox.cif.g09.slc.cpg/sg94_3_cif.got.tgz:4499.got - 2010.04.08 20:48:32.
