data_PCOD8305281
_publ_section_title
;
Structure prediction by ZEFSAII (Michael W. Deem and Ramdas Pophale) SiO2 
 PCOD8305281
Probable space group: P 41 21 2
;
_chemical_formula_sum "Si O2"
_cell_formula_units_Z 40
_cell_length_a 8.086674
_cell_length_b 8.086674
_cell_length_c 25.384940
_cell_angle_alpha 90.000000
_cell_angle_beta 90.000000
_cell_angle_gamma 90.000000
_cell_volume 1660.030290
_symmetry_space_group_name_H-M "P 41 21 2"
_symmetry_group_IT_number 92
_symmetry_cell_setting 'tetragonal'
loop_
_space_group_symop_operation_xyz
x,y,z
1/2-y,1/2+x,1/4+z
-x,-y,1/2+z
1/2+y,1/2-x,3/4+z
1/2+x,1/2-y,3/4-z
1/2-x,1/2+y,1/4-z
y,x,-z
-y,-x,1/2-z
loop_
_atom_site_type_symbol
_atom_site_label
_atom_site_fract_x
_atom_site_fract_y
_atom_site_fract_z
Si Si1 0.377422 0.072049 0.403300
Si Si2 0.541935 0.264153 0.317423
Si Si3 0.222886 0.477241 0.498304
Si Si4 0.795323 0.261422 0.906667
Si Si5 0.870678 0.900214 0.440077
O O1 0.459094 0.110131 0.347475
O O2 0.202378 0.166544 0.403045
O O3 0.514950 0.149649 0.443942
O O4 0.348090 0.876856 0.409231
O O5 0.600635 0.177744 0.264122
O O6 0.406291 0.404318 0.304552
O O7 0.411769 0.411769 0.500000
O O8 0.224584 0.625679 0.457919
O O9 0.780361 0.362764 0.850858
O O10 0.975137 0.182952 0.910605
O O11 0.834328 0.834328 0.500000
#
# Coordination Sequence:
#
# PCOD8305281 Si02
#       5
#     8   8   8   8   8
#     4  10  22  39  63  93 128 170 218 276 332 397
#     4  10  20  39  64  89 123 172 218 259 329 416
#     4  10  21  40  63  91 130 174 219 267 332 413
#     4  11  24  42  67 101 134 172 230 287 341 401
#     4  11  24  44  66  94 135 174 219 279 340 403
#
# _framework density 24.095948
#
# number of rings (size 3 to 8) (size 9 to 14) (size 15 to 20)
#    0.000    1.600    0.000    6.600    0.000    6.400 
#    0.000    9.000    0.000    0.000    0.000    0.000 
#    0.000    0.000    0.000    0.000    0.000    0.000 
#
# Total GULP energy -495715.754964 kJ/mol
# GULP energy per Si atom -12392.893874 kJ/mol
# Density = 2.404110 g / cm^3
# Si number density = 24.095948 Si / 1000 Ang^3
#
#
#
# Elastic Constant Matrix: (Units=GPa)
#
#
# Indices 1 2 3 4 5 6 
#
# 1 60.4417 23.4359 18.7037 0.0000 0.0000 0.0000
# 2 23.4359 60.4417 18.7037 0.0000 0.0000 0.0000
# 3 18.7037 18.7037 85.6701 0.0000 0.0000 0.0000
# 4 0.0000 0.0000 0.0000 37.1429 0.0000 0.0000
# 5 0.0000 0.0000 0.0000 0.0000 37.1429 0.0000
# 6 0.0000 0.0000 0.0000 0.0000 0.0000 33.9820
#
#
#
# Elastic Compliance Matrix: (Units=1/GPa)
#
#
# Indices 1 2 3 4 5 6 
#
# 1 0.020115 -0.006907 -0.002884 0.000000 0.000000 0.000000
# 2 -0.006907 0.020115 -0.002884 0.000000 0.000000 0.000000
# 3 -0.002884 -0.002884 0.012932 0.000000 0.000000 0.000000
# 4 0.000000 0.000000 0.000000 0.026923 0.000000 0.000000
# 5 0.000000 0.000000 0.000000 0.000000 0.026923 0.000000
# 6 0.000000 0.000000 0.000000 0.000000 0.000000 0.029427
#
#
# Mechanical properties :
#
#
# Convention : Reuss Voigt Hill
#
# Bulk Modulus (GPa) = 35.95363 36.47111 36.21237
# Shear Modulus (GPa) = 29.23008 31.36755 30.29882
#
# Velocity S-wave (km/s) = 3.48669 3.61193 3.54986
# Velocity P-wave (km/s) = 5.58237 5.70643 5.64474
#
# Compressibility (1/GPa) = 0.02781360
#
# Stress axis : x y z
#
# Youngs Moduli (GPa) = 49.71293 49.71293 77.32867
#
# Poissons Ratio (x) = 0.34338 0.22299
# Poissons Ratio (y) = 0.34338 0.22299
# Poissons Ratio (z) = 0.14335 0.14335
#
# Static dielectric constant tensor:
#      x y z
#    x 4.467930 0.000000 0.000000 
#    y 0.000000 4.467930 0.000000 
#    z 0.000000 0.000000 4.284490 
# 
# 
# High freq. dielectric constant tensor:
#      x y z
#    x 1.953510 0.000000 0.000000 
#    y 0.000000 1.953510 0.000000 
#    z 0.000000 0.000000 1.962030 
# 
# From -- ./inp_files/3802.got.cif
#   From: 2010.03.12/outbox.cif.g09.slc.cpg/sg92_2_cif.got.tgz:3802.got - 2010.04.08 20:41:11.
