data_PCOD8305692
_publ_section_title
;
Structure prediction by ZEFSAII (Michael W. Deem and Ramdas Pophale) SiO2 
 PCOD8305692
Probable space group: P 42 21 2
;
_chemical_formula_sum "Si O2"
_cell_formula_units_Z 40
_cell_length_a 8.744247
_cell_length_b 8.744247
_cell_length_c 22.066694
_cell_angle_alpha 90.000000
_cell_angle_beta 90.000000
_cell_angle_gamma 90.000000
_cell_volume 1687.260370
_symmetry_space_group_name_H-M "P 42 21 2"
_symmetry_group_IT_number 94
_symmetry_cell_setting 'tetragonal'
loop_
_space_group_symop_operation_xyz
x,y,z
1/2-y,1/2+x,1/2+z
-x,-y,z
1/2+y,1/2-x,1/2+z
1/2+x,1/2-y,1/2-z
1/2-x,1/2+y,1/2-z
y,x,-z
-y,-x,-z
loop_
_atom_site_type_symbol
_atom_site_label
_atom_site_fract_x
_atom_site_fract_y
_atom_site_fract_z
Si Si1 0.157894 0.419843 0.359705
Si Si2 0.161534 0.041342 0.563036
Si Si3 0.122255 0.875451 0.249079
Si Si4 0.085482 0.342166 0.173613
Si Si5 0.326949 0.721772 0.564302
O O1 0.136573 0.247828 0.384430
O O2 0.268606 0.436041 0.303263
O O3 0.241404 0.504742 0.413608
O O4 0.000000 0.500000 0.340192
O O5 0.135821 0.135821 0.500000
O O6 0.245779 0.883005 0.550543
O O7 0.000000 0.000000 0.592772
O O8 0.236450 0.840536 0.304630
O O9 0.022244 0.733500 0.224940
O O10 0.000000 0.000000 0.270462
O O11 0.101100 0.255875 0.109435
O O12 0.000000 0.500000 0.159577
O O13 0.356670 0.643331 0.500000
#
# Coordination Sequence:
#
# PCOD8305692 Si02
#       5
#     8   8   8   8   8
#     4  10  24  44  74 101 150 198 241 316 389 445
#     4  10  21  41  69 106 142 193 252 308 371 446
#     4  12  26  51  73 109 151 193 258 319 387 460
#     4  12  29  46  78 113 151 203 264 320 389 461
#     4  11  24  46  70 109 157 193 253 310 381 466
#
# _framework density 23.707070000000002
#
# number of rings (size 3 to 8) (size 9 to 14) (size 15 to 20)
#    0.000    1.000    4.000    1.800    8.400    4.800 
#    0.000    1.000    0.000    0.000    0.000    0.000 
#    0.000    0.000    0.000    0.000    0.000    0.000 
#
# Total GULP energy -495777.988731 kJ/mol
# GULP energy per Si atom -12394.449718 kJ/mol
# Density = 2.365311 g / cm^3
# Si number density = 23.707070 Si / 1000 Ang^3
#
#
#
# Elastic Constant Matrix: (Units=GPa)
#
#
# Indices 1 2 3 4 5 6 
#
# 1 105.5321 40.5467 33.5330 0.0000 0.0000 0.0000
# 2 40.5467 105.5322 33.5333 0.0000 0.0000 0.0000
# 3 33.5330 33.5333 98.8232 0.0000 0.0000 0.0000
# 4 0.0000 0.0000 0.0000 -12.2078 0.0000 0.0000
# 5 0.0000 0.0000 0.0000 0.0000 -12.1969 0.0000
# 6 0.0000 0.0000 0.0000 0.0000 0.0000 43.0153
#
#
#
# Elastic Compliance Matrix: (Units=1/GPa)
#
#
# Indices 1 2 3 4 5 6 
#
# 1 0.011748 -0.003640 -0.002752 0.000000 0.000000 0.000000
# 2 -0.003640 0.011748 -0.002752 0.000000 0.000000 0.000000
# 3 -0.002752 -0.002752 0.011986 0.000000 0.000000 0.000000
# 4 0.000000 0.000000 0.000000 -0.081915 0.000000 0.000000
# 5 0.000000 0.000000 0.000000 0.000000 -0.081988 0.000000
# 6 0.000000 0.000000 0.000000 0.000000 0.000000 0.023248
#
#
# Mechanical properties :
#
#
# Convention : Reuss Voigt Hill
#
# Bulk Modulus (GPa) = 58.14631 58.34596 58.24614
# Shear Modulus (GPa) = -61.61134 17.20707 -22.20213
#
# Velocity S-wave (km/s) = -5.10343 2.69703 -3.06358
# Velocity P-wave (km/s) = 3.18535 5.86202 3.47971
#
# Compressibility (1/GPa) = 0.01719800
#
# Stress axis : x y z
#
# Youngs Moduli (GPa) = 85.11747 85.11742 83.42778
#
# Poissons Ratio (x) = 0.30979 0.22955
# Poissons Ratio (y) = 0.30979 0.22956
# Poissons Ratio (z) = 0.23420 0.23421
#
# Static dielectric constant tensor:
#      x y z
#    x 5.623310 0.000000 0.000000 
#    y 0.000000 5.623050 0.000000 
#    z 0.000000 0.000000 4.738380 
# 
# 
# High freq. dielectric constant tensor:
#      x y z
#    x 1.943610 0.000000 0.000000 
#    y 0.000000 1.943610 0.000000 
#    z 0.000000 0.000000 1.946640 
# 
# From -- ./inp_files/4968.got.cif
#   From: 2010.03.12/outbox.cif.g09.slc.cpg/sg94_3_cif.got.tgz:4968.got - 2010.04.08 20:48:32.
