data_PCOD8305779
_publ_section_title
;
Structure prediction by ZEFSAII (Michael W. Deem and Ramdas Pophale) SiO2 
 PCOD8305779
Probable space group: P 42 21 2
;
_chemical_formula_sum "Si O2"
_cell_formula_units_Z 60
_cell_length_a 14.145483
_cell_length_b 14.145483
_cell_length_c 13.655764
_cell_angle_alpha 90.000000
_cell_angle_beta 90.000000
_cell_angle_gamma 90.000000
_cell_volume 2732.445855
_symmetry_space_group_name_H-M "P 42 21 2"
_symmetry_group_IT_number 94
_symmetry_cell_setting 'tetragonal'
loop_
_space_group_symop_operation_xyz
x,y,z
1/2-y,1/2+x,1/2+z
-x,-y,z
1/2+y,1/2-x,1/2+z
1/2+x,1/2-y,1/2-z
1/2-x,1/2+y,1/2-z
y,x,-z
-y,-x,-z
loop_
_atom_site_type_symbol
_atom_site_label
_atom_site_fract_x
_atom_site_fract_y
_atom_site_fract_z
Si Si1 0.243708 0.689159 0.296327
Si Si2 0.513457 0.239051 0.821994
Si Si3 0.451080 0.316116 0.444450
Si Si4 0.188295 0.653548 0.005394
Si Si5 0.833809 0.833809 0.000000
Si Si6 0.575959 0.572070 0.885190
Si Si7 0.636930 0.149544 0.215610
Si Si8 0.744762 0.545485 0.760851
O O1 0.283533 0.591766 0.251179
O O2 0.272352 0.701467 0.408657
O O3 0.277120 0.779139 0.234481
O O4 0.131722 0.684255 0.279508
O O5 0.565086 0.199629 0.920086
O O6 0.440509 0.321855 0.847761
O O7 0.452964 0.159576 0.762896
O O8 0.402002 0.402002 0.500000
O O9 0.398149 0.217503 0.459639
O O10 0.557060 0.311435 0.483185
O O11 0.444783 0.331196 0.327789
O O12 0.286533 0.713468 0.000000
O O13 0.151691 0.616433 0.900481
O O14 0.500000 0.500000 0.839821
O O15 0.679826 0.534457 0.856742
O O16 0.570038 0.570038 0.000000
O O17 0.543098 0.189730 0.266296
#
# Coordination Sequence:
#
# PCOD8305779 Si02
#       8
#     8   8   8   8   4   8   8   8
#     4  12  25  46  69 107 147 190 241 310 371 444
#     4  12  25  45  78 104 146 201 251 301 380 464
#     4  11  24  45  70 106 139 188 241 301 367 432
#     4  11  23  45  76 105 150 196 245 304 376 445
#     4  12  27  42  74 106 145 186 250 308 372 436
#     4  11  26  42  70 111 141 183 245 306 375 438
#     4  12  25  47  74 108 145 198 247 306 376 444
#     4  12  25  47  71 100 151 188 236 311 364 435
#
# _framework density 21.958349999999999
#
# number of rings (size 3 to 8) (size 9 to 14) (size 15 to 20)
#    0.000    0.400    5.333    3.400    4.667    1.600 
#    0.000    0.000    0.000    0.000    0.000    0.000 
#    0.000    0.000    0.000    0.000    0.000    0.000 
#
# Total GULP energy -744033.051227 kJ/mol
# GULP energy per Si atom -12400.550854 kJ/mol
# Density = 2.190837 g / cm^3
# Si number density = 21.958350 Si / 1000 Ang^3
#
#
#
# Elastic Constant Matrix: (Units=GPa)
#
#
# Indices 1 2 3 4 5 6 
#
# 1 93.0900 35.4892 33.3547 0.0000 0.0000 0.0000
# 2 35.4892 93.0900 33.3547 0.0000 0.0000 0.0000
# 3 33.3547 33.3547 141.3454 0.0000 0.0000 0.0000
# 4 0.0000 0.0000 0.0000 33.8389 0.0000 0.0000
# 5 0.0000 0.0000 0.0000 0.0000 33.8389 0.0000
# 6 0.0000 0.0000 0.0000 0.0000 0.0000 29.2082
#
#
#
# Elastic Compliance Matrix: (Units=1/GPa)
#
#
# Indices 1 2 3 4 5 6 
#
# 1 0.013112 -0.004249 -0.002091 0.000000 0.000000 0.000000
# 2 -0.004249 0.013112 -0.002091 0.000000 0.000000 0.000000
# 3 -0.002091 -0.002091 0.008062 0.000000 0.000000 0.000000
# 4 0.000000 0.000000 0.000000 0.029552 0.000000 0.000000
# 5 0.000000 0.000000 0.000000 0.000000 0.029552 0.000000
# 6 0.000000 0.000000 0.000000 0.000000 0.000000 0.034237
#
#
# Mechanical properties :
#
#
# Convention : Reuss Voigt Hill
#
# Bulk Modulus (GPa) = 57.40124 59.10250 58.25187
# Shear Modulus (GPa) = 33.26756 34.39899 33.83327
#
# Velocity S-wave (km/s) = 3.89656 3.96227 3.92955
# Velocity P-wave (km/s) = 6.81483 6.92148 6.86837
#
# Compressibility (1/GPa) = 0.01742123
#
# Stress axis : x y z
#
# Youngs Moduli (GPa) = 76.26832 76.26837 124.04031
#
# Poissons Ratio (x) = 0.32408 0.25941
# Poissons Ratio (y) = 0.32408 0.25941
# Poissons Ratio (z) = 0.15950 0.15950
#
# Static dielectric constant tensor:
#      x y z
#    x 3.918210 0.000000 0.000000 
#    y 0.000000 3.918210 0.000000 
#    z 0.000000 0.000000 4.245480 
# 
# 
# High freq. dielectric constant tensor:
#      x y z
#    x 1.860360 0.000000 0.000000 
#    y 0.000000 1.860360 0.000000 
#    z 0.000000 0.000000 1.881070 
# 
# From -- ./inp_files/3603.got.cif
#   From: 2010.03.12/outbox.cif.g09.slc.cpg/sg94_2_cif.got.tgz:3603.got - 2010.04.08 20:48:32.
