data_PCOD8305623
_publ_section_title
;
Structure prediction by ZEFSAII (Michael W. Deem and Ramdas Pophale) SiO2 
 PCOD8305623
Probable space group: P 42 21 2
;
_chemical_formula_sum "Si O2"
_cell_formula_units_Z 64
_cell_length_a 17.262098
_cell_length_b 17.262098
_cell_length_c 12.034778
_cell_angle_alpha 90.000000
_cell_angle_beta 90.000000
_cell_angle_gamma 90.000000
_cell_volume 3586.123478
_symmetry_space_group_name_H-M "P 42 21 2"
_symmetry_group_IT_number 94
_symmetry_cell_setting 'tetragonal'
loop_
_space_group_symop_operation_xyz
x,y,z
1/2-y,1/2+x,1/2+z
-x,-y,z
1/2+y,1/2-x,1/2+z
1/2+x,1/2-y,1/2-z
1/2-x,1/2+y,1/2-z
y,x,-z
-y,-x,-z
loop_
_atom_site_type_symbol
_atom_site_label
_atom_site_fract_x
_atom_site_fract_y
_atom_site_fract_z
Si Si1 0.833015 0.954227 1.000000
Si Si2 0.427091 0.298608 0.871595
Si Si3 0.886087 0.238549 0.000001
Si Si4 0.331837 0.202219 0.717435
Si Si5 0.790295 0.915457 0.241392
Si Si6 0.202219 0.331837 0.717436
Si Si7 0.209706 0.084543 0.758608
Si Si8 0.298608 0.427091 0.871595
O O1 0.789304 0.922647 0.891705
O O2 0.922465 0.922465 0.000000
O O3 0.789305 0.922647 0.108295
O O4 0.826708 0.046948 1.000000
O O5 0.382077 0.222929 0.826439
O O6 0.504912 0.309892 0.802126
O O7 0.375568 0.375568 0.853763
O O8 0.446826 0.284818 1.000000
O O9 0.888305 0.292453 0.890199
O O10 0.805346 0.194655 0.000000
O O11 0.888305 0.292453 0.109802
O O12 0.262556 0.262556 0.707478
O O13 0.295019 0.116517 0.725735
O O14 0.704981 0.883483 0.274264
O O15 0.856487 0.856487 0.281117
O O16 0.222929 0.382076 0.826441
O O17 0.190109 0.004911 0.697874
#
# Coordination Sequence:
#
# PCOD8305623 Si02
#       8
#     8   8   8   8   8   8   8   8
#     4  10  20  33  52  81 109 134 171 225 279 323
#     4  10  21  36  54  78 109 143 178 219 268 321
#     4  10  18  33  54  77 106 141 179 219 263 315
#     4   9  19  34  53  76 104 140 182 223 259 312
#     4  10  21  35  54  80 109 141 179 220 268 320
#     4   9  19  34  53  76 104 140 182 223 259 312
#     4  10  21  35  54  80 109 141 179 220 268 320
#     4  10  21  36  54  78 109 143 178 219 268 321
#
# _framework density 17.846568999999999
#
# number of rings (size 3 to 8) (size 9 to 14) (size 15 to 20)
#    0.000    2.250    2.500    0.000    3.500    1.250 
#    0.000    3.750    0.000    0.750    0.000    3.500 
#    0.000    0.000    0.000    0.000    0.000    0.000 
#
# Total GULP energy -793253.855634 kJ/mol
# GULP energy per Si atom -12394.591494 kJ/mol
# Density = 1.780595 g / cm^3
# Si number density = 17.846569 Si / 1000 Ang^3
#
#
#
# Elastic Constant Matrix: (Units=GPa)
#
#
# Indices 1 2 3 4 5 6 
#
# 1 62.6362 52.6874 47.0429 0.0000 0.0000 0.0000
# 2 52.6874 62.6372 47.0430 0.0000 0.0000 0.0000
# 3 47.0429 47.0430 137.9250 0.0000 0.0000 0.0000
# 4 0.0000 0.0000 0.0000 22.0030 0.0000 0.0000
# 5 0.0000 0.0000 0.0000 0.0000 22.0031 0.0000
# 6 0.0000 0.0000 0.0000 0.0000 0.0000 23.9309
#
#
#
# Elastic Compliance Matrix: (Units=1/GPa)
#
#
# Indices 1 2 3 4 5 6 
#
# 1 0.056263 -0.044248 -0.004098 0.000000 0.000000 0.000000
# 2 -0.044248 0.056262 -0.004098 0.000000 0.000000 0.000000
# 3 -0.004098 -0.004098 0.010046 0.000000 0.000000 0.000000
# 4 0.000000 0.000000 0.000000 0.045448 0.000000 0.000000
# 5 0.000000 0.000000 0.000000 0.000000 0.045448 0.000000
# 6 0.000000 0.000000 0.000000 0.000000 0.000000 0.041787
#
#
# Mechanical properties :
#
#
# Convention : Reuss Voigt Hill
#
# Bulk Modulus (GPa) = 56.55106 61.86055 59.20580
# Shear Modulus (GPa) = 13.65991 21.34908 17.50450
#
# Velocity S-wave (km/s) = 2.76960 3.46245 3.13522
# Velocity P-wave (km/s) = 6.47949 7.12197 6.80831
#
# Compressibility (1/GPa) = 0.01768313
#
# Stress axis : x y z
#
# Youngs Moduli (GPa) = 17.77376 17.77412 99.54551
#
# Poissons Ratio (x) = 0.78647 0.40794
# Poissons Ratio (y) = 0.78645 0.40790
# Poissons Ratio (z) = 0.07284 0.07283
#
# Static dielectric constant tensor:
#      x y z
#    x 3.206080 0.000000 0.000000 
#    y 0.000000 3.206080 0.000000 
#    z 0.000000 0.000000 3.603320 
# 
# 
# High freq. dielectric constant tensor:
#      x y z
#    x 1.666800 0.000000 0.000000 
#    y 0.000000 1.666800 0.000000 
#    z 0.000000 0.000000 1.709240 
# 
# From -- ./inp_files/2835.got.cif
#   From: 2010.03.12/outbox.cif.g09.slc.cpg/sg94_2_cif.got.tgz:2835.got - 2010.04.08 20:48:32.
