data_PCOD8305375
_publ_section_title
;
Structure prediction by ZEFSAII (Michael W. Deem and Ramdas Pophale) SiO2 
 PCOD8305375
Probable space group: P 41 21 2
;
_chemical_formula_sum "Si O2"
_cell_formula_units_Z 48
_cell_length_a 8.740714
_cell_length_b 8.740714
_cell_length_c 29.887715
_cell_angle_alpha 90.000000
_cell_angle_beta 90.000000
_cell_angle_gamma 90.000000
_cell_volume 2283.423854
_symmetry_space_group_name_H-M "P 41 21 2"
_symmetry_group_IT_number 92
_symmetry_cell_setting 'tetragonal'
loop_
_space_group_symop_operation_xyz
x,y,z
1/2-y,1/2+x,1/4+z
-x,-y,1/2+z
1/2+y,1/2-x,3/4+z
1/2+x,1/2-y,3/4-z
1/2-x,1/2+y,1/4-z
y,x,-z
-y,-x,1/2-z
loop_
_atom_site_type_symbol
_atom_site_label
_atom_site_fract_x
_atom_site_fract_y
_atom_site_fract_z
Si Si1 0.338101 0.188360 0.166873
Si Si2 0.676996 0.676996 0.500000
Si Si3 0.676787 0.340121 0.331493
Si Si4 0.331526 0.671394 0.993018
Si Si5 0.182801 0.817200 0.750000
Si Si6 0.666862 0.848015 0.410587
Si Si7 0.681795 0.669632 0.837919
O O1 0.494185 0.264675 0.183942
O O2 0.212649 0.203571 0.205784
O O3 0.280611 0.276904 0.123451
O O4 0.368363 0.013223 0.154501
O O5 0.697645 0.505706 0.480817
O O6 0.710998 0.796455 0.460661
O O7 0.710452 0.220610 0.292076
O O8 0.498514 0.345044 0.341169
O O9 0.762826 0.294918 0.376785
O O10 0.508340 0.713615 0.985977
O O11 0.231177 0.778890 0.961420
O O12 0.747115 0.006964 0.399459
#
# Coordination Sequence:
#
# PCOD8305375 Si02
#       7
#     8   4   8   8   4   8   8
#     4  11  23  41  64  92 127 165 209 258 316 379
#     4   9  22  41  62  88 122 161 200 249 308 374
#     4  12  25  42  63  91 126 165 210 259 315 378
#     4  10  22  41  64  91 124 161 203 253 310 374
#     4  11  22  41  66  94 126 161 206 257 312 374
#     4  11  23  40  64  93 124 164 209 260 316 374
#     4  12  25  41  63  91 123 163 210 260 315 373
#
# _framework density 21.021063999999999
#
# number of rings (size 3 to 8) (size 9 to 14) (size 15 to 20)
#    0.000    1.000    0.000    7.000    0.000    7.333 
#    0.000    0.000    0.000    0.000    0.000    0.000 
#    0.000    0.000    0.000    0.000    0.000    0.000 
#
# Total GULP energy -595676.003004 kJ/mol
# GULP energy per Si atom -12409.916729 kJ/mol
# Density = 2.097322 g / cm^3
# Si number density = 21.021064 Si / 1000 Ang^3
#
#
#
# Elastic Constant Matrix: (Units=GPa)
#
#
# Indices 1 2 3 4 5 6 
#
# 1 113.8535 37.3351 30.1615 0.0000 0.0000 0.0000
# 2 37.3351 113.8526 30.1613 0.0000 0.0000 0.0000
# 3 30.1615 30.1613 80.8491 0.0000 0.0000 0.0000
# 4 0.0000 0.0000 0.0000 42.5782 0.0000 0.0000
# 5 0.0000 0.0000 0.0000 0.0000 42.5787 0.0000
# 6 0.0000 0.0000 0.0000 0.0000 0.0000 35.2584
#
#
#
# Elastic Compliance Matrix: (Units=1/GPa)
#
#
# Indices 1 2 3 4 5 6 
#
# 1 0.010420 -0.002649 -0.002899 0.000000 0.000000 0.000000
# 2 -0.002649 0.010420 -0.002899 0.000000 0.000000 0.000000
# 3 -0.002899 -0.002899 0.014532 0.000000 0.000000 0.000000
# 4 0.000000 0.000000 0.000000 0.023486 0.000000 0.000000
# 5 0.000000 0.000000 0.000000 0.000000 0.023486 0.000000
# 6 0.000000 0.000000 0.000000 0.000000 0.000000 0.028362
#
#
# Mechanical properties :
#
#
# Convention : Reuss Voigt Hill
#
# Bulk Modulus (GPa) = 54.11966 55.98567 55.05266
# Shear Modulus (GPa) = 37.38073 38.14289 37.76181
#
# Velocity S-wave (km/s) = 4.22151 4.26433 4.24297
# Velocity P-wave (km/s) = 7.04009 7.13701 7.08871
#
# Compressibility (1/GPa) = 0.01847757
#
# Stress axis : x y z
#
# Youngs Moduli (GPa) = 95.97065 95.96987 68.81494
#
# Poissons Ratio (x) = 0.25422 0.19950
# Poissons Ratio (y) = 0.25422 0.19950
# Poissons Ratio (z) = 0.27822 0.27822
#
# Static dielectric constant tensor:
#      x y z
#    x 3.821400 0.000000 0.000000 
#    y 0.000000 3.821400 0.000000 
#    z 0.000000 0.000000 3.724530 
# 
# 
# High freq. dielectric constant tensor:
#      x y z
#    x 1.833740 0.000000 0.000000 
#    y 0.000000 1.833740 0.000000 
#    z 0.000000 0.000000 1.831180 
# 
# From -- ./inp_files/4569.got.cif
#   From: 2010.03.12/outbox.cif.g09.slc.cpg/sg92_3_cif.got.tgz:4569.got - 2010.04.08 20:41:11.
