data_PCOD8305294
_publ_section_title
;
Structure prediction by ZEFSAII (Michael W. Deem and Ramdas Pophale) SiO2 
 PCOD8305294
Probable space group: P 41 21 2
;
_chemical_formula_sum "Si O2"
_cell_formula_units_Z 32
_cell_length_a 8.778834
_cell_length_b 8.778834
_cell_length_c 18.416164
_cell_angle_alpha 90.000000
_cell_angle_beta 90.000000
_cell_angle_gamma 90.000000
_cell_volume 1419.295572
_symmetry_space_group_name_H-M "P 41 21 2"
_symmetry_group_IT_number 92
_symmetry_cell_setting 'tetragonal'
loop_
_space_group_symop_operation_xyz
x,y,z
1/2-y,1/2+x,1/4+z
-x,-y,1/2+z
1/2+y,1/2-x,3/4+z
1/2+x,1/2-y,3/4-z
1/2-x,1/2+y,1/4-z
y,x,-z
-y,-x,1/2-z
loop_
_atom_site_type_symbol
_atom_site_label
_atom_site_fract_x
_atom_site_fract_y
_atom_site_fract_z
Si Si1 0.497491 0.742694 0.833933
Si Si2 0.138444 0.813359 0.331864
Si Si3 0.696430 0.947638 0.920331
Si Si4 0.566701 0.365275 0.669145
O O1 0.537742 0.872345 0.893170
O O2 0.501851 0.816153 0.753536
O O3 0.331852 0.672060 0.845510
O O4 0.626187 0.612126 0.849223
O O5 0.127002 0.872999 0.250000
O O6 0.194507 0.635977 0.335184
O O7 0.974599 0.832127 0.367872
O O8 0.271100 0.905267 0.372329
O O9 0.570824 0.429177 0.750000
#
# Coordination Sequence:
#
# PCOD8305294 Si02
#       4
#     8   8   8   8
#     4  10  21  45  65  92 127 172 206 269 318 379
#     4  10  22  36  63  93 120 164 211 258 314 377
#     4  10  22  43  65  92 130 163 217 259 320 380
#     4  10  20  42  63  88 131 162 205 267 313 368
#
# _framework density 22.546395
#
# number of rings (size 3 to 8) (size 9 to 14) (size 15 to 20)
#    0.000    2.000    5.000    0.000    3.500    2.000 
#   22.500    0.000    0.000    0.000    0.000    0.000 
#    0.000    0.000    0.000    0.000    0.000    0.000 
#
# Total GULP energy -396595.262476 kJ/mol
# GULP energy per Si atom -12393.601952 kJ/mol
# Density = 2.249508 g / cm^3
# Si number density = 22.546395 Si / 1000 Ang^3
#
#
#
# Elastic Constant Matrix: (Units=GPa)
#
#
# Indices 1 2 3 4 5 6 
#
# 1 34.7739 24.3198 46.9417 0.0000 0.0000 0.0000
# 2 24.3198 34.7733 46.9417 0.0000 0.0000 0.0000
# 3 46.9417 46.9417 111.8925 0.0000 0.0000 0.0000
# 4 0.0000 0.0000 0.0000 12.8952 0.0000 0.0000
# 5 0.0000 0.0000 0.0000 0.0000 12.8960 0.0000
# 6 0.0000 0.0000 0.0000 0.0000 0.0000 47.0837
#
#
#
# Elastic Compliance Matrix: (Units=1/GPa)
#
#
# Indices 1 2 3 4 5 6 
#
# 1 0.073200 -0.022458 -0.021288 0.000000 0.000000 0.000000
# 2 -0.022458 0.073203 -0.021289 0.000000 0.000000 0.000000
# 3 -0.021288 -0.021289 0.026799 0.000000 0.000000 0.000000
# 4 0.000000 0.000000 0.000000 0.077548 0.000000 0.000000
# 5 0.000000 0.000000 0.000000 0.000000 0.077543 0.000000
# 6 0.000000 0.000000 0.000000 0.000000 0.000000 0.021239
#
#
# Mechanical properties :
#
#
# Convention : Reuss Voigt Hill
#
# Bulk Modulus (GPa) = 23.18399 46.42734 34.80566
# Shear Modulus (GPa) = 10.12190 18.79074 14.45632
#
# Velocity S-wave (km/s) = 2.12111 2.89004 2.53490
# Velocity P-wave (km/s) = 4.03781 5.63676 4.90291
#
# Compressibility (1/GPa) = 0.04313321
#
# Stress axis : x y z
#
# Youngs Moduli (GPa) = 13.66119 13.66070 37.31497
#
# Poissons Ratio (x) = 0.30679 0.79434
# Poissons Ratio (y) = 0.30680 0.79438
# Poissons Ratio (z) = 0.29081 0.29082
#
# Static dielectric constant tensor:
#      x y z
#    x 3.887080 0.000000 0.000000 
#    y 0.000000 3.887080 0.000000 
#    z 0.000000 0.000000 4.036660 
# 
# 
# High freq. dielectric constant tensor:
#      x y z
#    x 1.881880 0.000000 0.000000 
#    y 0.000000 1.881880 0.000000 
#    z 0.000000 0.000000 1.888220 
# 
# From -- ./inp_files/3336.got.cif
#   From: 2010.03.12/outbox.cif.g09.slc.cpg/sg92_2_cif.got.tgz:3336.got - 2010.04.08 20:41:11.
