data_PCOD8305471
_publ_section_title
;
Structure prediction by ZEFSAII (Michael W. Deem and Ramdas Pophale) SiO2 
 PCOD8305471
Probable space group: P 41 21 2
;
_chemical_formula_sum "Si O2"
_cell_formula_units_Z 32
_cell_length_a 11.393140
_cell_length_b 11.393140
_cell_length_c 10.644152
_cell_angle_alpha 90.000000
_cell_angle_beta 90.000000
_cell_angle_gamma 90.000000
_cell_volume 1381.649664
_symmetry_space_group_name_H-M "P 41 21 2"
_symmetry_group_IT_number 92
_symmetry_cell_setting 'tetragonal'
loop_
_space_group_symop_operation_xyz
x,y,z
1/2-y,1/2+x,1/4+z
-x,-y,1/2+z
1/2+y,1/2-x,3/4+z
1/2+x,1/2-y,3/4-z
1/2-x,1/2+y,1/4-z
y,x,-z
-y,-x,1/2-z
loop_
_atom_site_type_symbol
_atom_site_label
_atom_site_fract_x
_atom_site_fract_y
_atom_site_fract_z
Si Si1 0.014869 0.014869 0.500000
Si Si2 0.037274 0.581860 0.256193
Si Si3 0.783626 0.216375 0.250000
Si Si4 0.479758 0.718217 0.132095
Si Si5 0.103360 0.194120 0.699481
O O1 0.878619 0.038526 0.471804
O O2 0.041112 0.093492 0.619973
O O3 0.011614 0.528406 0.118123
O O4 0.174314 0.566436 0.285228
O O5 0.994670 0.716106 0.250455
O O6 0.757754 0.296980 0.369259
O O7 0.919176 0.247542 0.219220
O O8 0.364127 0.666061 0.067824
#
# Coordination Sequence:
#
# PCOD8305471 Si02
#       5
#     4   8   4   8   8
#     4  11  24  48  73 108 150 204 257 312 394 465
#     4  12  28  49  77 115 160 198 262 319 395 454
#     4  11  24  44  83 104 160 206 261 314 406 475
#     4  12  24  49  74 111 149 207 256 320 388 472
#     4  11  26  47  76 113 152 199 258 327 387 462
#
# _framework density 23.160720000000001
#
# number of rings (size 3 to 8) (size 9 to 14) (size 15 to 20)
#    0.000    0.500    2.500    4.500    3.500    2.000 
#   18.000    0.000    0.000    0.000    0.000    0.000 
#    0.000    0.000    0.000    0.000    0.000    0.000 
#
# Total GULP energy -396863.886571 kJ/mol
# GULP energy per Si atom -12401.996455 kJ/mol
# Density = 2.310800 g / cm^3
# Si number density = 23.160720 Si / 1000 Ang^3
#
#
#
# Elastic Constant Matrix: (Units=GPa)
#
#
# Indices 1 2 3 4 5 6 
#
# 1 126.6661 60.5904 31.4681 0.0000 0.0000 0.0000
# 2 60.5904 126.6658 31.4676 0.0000 0.0000 0.0000
# 3 31.4681 31.4676 85.2191 0.0000 0.0000 0.0000
# 4 0.0000 0.0000 0.0000 36.3871 0.0000 0.0000
# 5 0.0000 0.0000 0.0000 0.0000 36.3872 0.0000
# 6 0.0000 0.0000 0.0000 0.0000 0.0000 47.1404
#
#
#
# Elastic Compliance Matrix: (Units=1/GPa)
#
#
# Indices 1 2 3 4 5 6 
#
# 1 0.010616 -0.004519 -0.002251 0.000000 0.000000 0.000000
# 2 -0.004519 0.010616 -0.002251 0.000000 0.000000 0.000000
# 3 -0.002251 -0.002251 0.013397 0.000000 0.000000 0.000000
# 4 0.000000 0.000000 0.000000 0.027482 0.000000 0.000000
# 5 0.000000 0.000000 0.000000 0.000000 0.027482 0.000000
# 6 0.000000 0.000000 0.000000 0.000000 0.000000 0.021213
#
#
# Mechanical properties :
#
#
# Convention : Reuss Voigt Hill
#
# Bulk Modulus (GPa) = 60.29324 65.06702 62.68013
# Shear Modulus (GPa) = 37.20874 38.31795 37.76335
#
# Velocity S-wave (km/s) = 4.01252 4.07189 4.04231
# Velocity P-wave (km/s) = 6.89610 7.08955 6.99349
#
# Compressibility (1/GPa) = 0.01658561
#
# Stress axis : x y z
#
# Youngs Moduli (GPa) = 94.20125 94.20128 74.64299
#
# Poissons Ratio (x) = 0.42566 0.16805
# Poissons Ratio (y) = 0.42566 0.16804
# Poissons Ratio (z) = 0.21208 0.21207
#
# Static dielectric constant tensor:
#      x y z
#    x 4.219550 0.000000 0.000000 
#    y 0.000000 4.219560 0.000000 
#    z 0.000000 0.000000 4.391730 
# 
# 
# High freq. dielectric constant tensor:
#      x y z
#    x 1.920450 0.000000 0.000000 
#    y 0.000000 1.920450 0.000000 
#    z 0.000000 0.000000 1.933610 
# 
# From -- ./inp_files/1971.got.cif
#   From: 2010.03.12/outbox.cif.g09.slc.cpg/sg92_1_cif.got.tgz:1971.got - 2010.04.08 20:41:11.
