data_PCOD8305985
_publ_section_title
;
Structure prediction by ZEFSAII (Michael W. Deem and Ramdas Pophale) SiO2 
 PCOD8305985
Probable space group: P 43 21 2
;
_chemical_formula_sum "Si O2"
_cell_formula_units_Z 32
_cell_length_a 15.173479
_cell_length_b 15.173479
_cell_length_c 6.547013
_cell_angle_alpha 90.000000
_cell_angle_beta 90.000000
_cell_angle_gamma 90.000000
_cell_volume 1507.348035
_symmetry_space_group_name_H-M "P 43 21 2"
_symmetry_group_IT_number 96
_symmetry_cell_setting 'tetragonal'
loop_
_space_group_symop_operation_xyz
x,y,z
1/2-y,1/2+x,3/4+z
-x,-y,1/2+z
1/2+y,1/2-x,1/4+z
1/2+x,1/2-y,1/4-z
1/2-x,1/2+y,3/4-z
y,x,-z
-y,-x,1/2-z
loop_
_atom_site_type_symbol
_atom_site_label
_atom_site_fract_x
_atom_site_fract_y
_atom_site_fract_z
Si Si1 0.892135 0.017177 0.585767
Si Si2 0.752493 0.509242 0.481093
Si Si3 0.093474 0.213687 0.617188
Si Si4 0.658053 0.191868 0.277737
O O1 0.988148 0.988148 0.500000
O O2 0.854589 0.931768 0.703242
O O3 0.829438 0.046553 0.401155
O O4 0.903848 0.096153 0.750000
O O5 0.726098 0.488284 0.714466
O O6 0.819391 0.589721 0.498583
O O7 0.791456 0.420116 0.384466
O O8 0.178673 0.178673 0.500000
O O9 0.121425 0.301572 0.739295
O O10 0.740429 0.259572 0.250000
#
# Coordination Sequence:
#
# PCOD8305985 Si02
#       4
#     8   8   8   8
#     4  11  23  35  60 100 136 171 222 286 352 414
#     4  11  25  44  66  99 133 182 231 278 343 413
#     4  11  20  43  68  88 136 181 215 282 348 398
#     4  11  25  45  69  99 136 175 231 283 337 411
#
# _framework density 21.229337000000001
#
# number of rings (size 3 to 8) (size 9 to 14) (size 15 to 20)
#    0.000    1.000    5.000    2.250    3.500    5.000 
#    4.500    0.000    0.000    0.000    0.000    0.000 
#    0.000    0.000    0.000    0.000    0.000    0.000 
#
# Total GULP energy -396684.209575 kJ/mol
# GULP energy per Si atom -12396.381549 kJ/mol
# Density = 2.118102 g / cm^3
# Si number density = 21.229337 Si / 1000 Ang^3
#
#
#
# Elastic Constant Matrix: (Units=GPa)
#
#
# Indices 1 2 3 4 5 6 
#
# 1 77.8370 36.6445 28.0635 0.0000 0.0000 0.0000
# 2 36.6445 77.8365 28.0630 0.0000 0.0000 0.0000
# 3 28.0635 28.0630 127.6067 0.0000 0.0000 0.0000
# 4 0.0000 0.0000 0.0000 30.2428 0.0000 0.0000
# 5 0.0000 0.0000 0.0000 0.0000 30.2429 0.0000
# 6 0.0000 0.0000 0.0000 0.0000 0.0000 32.0038
#
#
#
# Elastic Compliance Matrix: (Units=1/GPa)
#
#
# Indices 1 2 3 4 5 6 
#
# 1 0.017033 -0.007243 -0.002153 0.000000 0.000000 0.000000
# 2 -0.007243 0.017034 -0.002153 0.000000 0.000000 0.000000
# 3 -0.002153 -0.002153 0.008784 0.000000 0.000000 0.000000
# 4 0.000000 0.000000 0.000000 0.033066 0.000000 0.000000
# 5 0.000000 0.000000 0.000000 0.000000 0.033066 0.000000
# 6 0.000000 0.000000 0.000000 0.000000 0.000000 0.031246
#
#
# Mechanical properties :
#
#
# Convention : Reuss Voigt Hill
#
# Bulk Modulus (GPa) = 50.62693 52.09134 51.35913
# Shear Modulus (GPa) = 29.42721 31.19851 30.31286
#
# Velocity S-wave (km/s) = 3.72715 3.83769 3.78282
# Velocity P-wave (km/s) = 6.51319 6.65040 6.58215
#
# Compressibility (1/GPa) = 0.01975233
#
# Stress axis : x y z
#
# Youngs Moduli (GPa) = 58.70786 58.70763 113.84816
#
# Poissons Ratio (x) = 0.42521 0.24514
# Poissons Ratio (y) = 0.42521 0.24513
# Poissons Ratio (z) = 0.12641 0.12641
#
# Static dielectric constant tensor:
#      x y z
#    x 3.637690 0.000000 0.000000 
#    y 0.000000 3.637690 0.000000 
#    z 0.000000 0.000000 4.213810 
# 
# 
# High freq. dielectric constant tensor:
#      x y z
#    x 1.812200 0.000000 0.000000 
#    y 0.000000 1.812200 0.000000 
#    z 0.000000 0.000000 1.859710 
# 
# From -- ./inp_files/322.got.cif
#   From: 2010.03.12/outbox.cif.g09.slc.cpg/sg96_1_cif.got.tgz:322.got - 2010.04.08 20:56:49.
