data_PCOD8305506
_publ_section_title
;
Structure prediction by ZEFSAII (Michael W. Deem and Ramdas Pophale) SiO2 
 PCOD8305506
Probable space group: P 41 21 2
;
_chemical_formula_sum "Si O2"
_cell_formula_units_Z 40
_cell_length_a 9.331676
_cell_length_b 9.331676
_cell_length_c 27.269355
_cell_angle_alpha 90.000000
_cell_angle_beta 90.000000
_cell_angle_gamma 90.000000
_cell_volume 2374.620259
_symmetry_space_group_name_H-M "P 41 21 2"
_symmetry_group_IT_number 92
_symmetry_cell_setting 'tetragonal'
loop_
_space_group_symop_operation_xyz
x,y,z
1/2-y,1/2+x,1/4+z
-x,-y,1/2+z
1/2+y,1/2-x,3/4+z
1/2+x,1/2-y,3/4-z
1/2-x,1/2+y,1/4-z
y,x,-z
-y,-x,1/2-z
loop_
_atom_site_type_symbol
_atom_site_label
_atom_site_fract_x
_atom_site_fract_y
_atom_site_fract_z
Si Si1 0.185275 0.185275 0.000000
Si Si2 0.491106 0.511015 0.567285
Si Si3 0.741305 0.991409 0.750319
Si Si4 0.509014 0.759377 0.750114
Si Si5 0.685771 0.685771 0.000000
Si Si6 0.491787 0.487827 0.317271
O O1 0.355777 0.161344 0.005008
O O2 0.122936 0.104640 0.952056
O O3 0.448373 0.671855 0.549888
O O4 0.648566 0.485929 0.544962
O O5 0.377652 0.393509 0.547884
O O6 0.497490 0.499059 0.624986
O O7 0.622647 0.877992 0.738284
O O8 0.356136 0.839036 0.754473
O O9 0.550350 0.673060 0.799885
O O10 0.515535 0.648583 0.705108
#
# Coordination Sequence:
#
# PCOD8305506 Si02
#       6
#     4   8   8   8   4   8
#     4   8  18  34  50  72 100 128 162 198 242 292
#     4   9  19  35  52  72 100 131 163 201 244 290
#     4   9  19  34  51  73 100 128 162 203 243 288
#     4   9  19  34  51  73 100 128 162 203 243 288
#     4   8  18  34  50  72 100 128 162 198 242 292
#     4   9  19  35  52  72 100 131 163 201 244 290
#
# _framework density 16.844798000000001
#
# number of rings (size 3 to 8) (size 9 to 14) (size 15 to 20)
#    0.000    4.000    0.000    0.000    0.000   12.800 
#    0.000    2.000    0.000    0.000    0.000    0.000 
#    0.000    0.000    0.000    0.000    0.000    0.000 
#
# Total GULP energy -495609.819084 kJ/mol
# GULP energy per Si atom -12390.245477 kJ/mol
# Density = 1.680646 g / cm^3
# Si number density = 16.844798 Si / 1000 Ang^3
#
#
#
# Elastic Constant Matrix: (Units=GPa)
#
#
# Indices 1 2 3 4 5 6 
#
# 1 84.3612 67.3301 26.7357 0.0000 0.0000 0.0000
# 2 67.3301 84.3612 26.7357 0.0000 0.0000 0.0000
# 3 26.7357 26.7357 152.0978 0.0000 0.0000 0.0000
# 4 0.0000 0.0000 0.0000 12.0564 0.0000 0.0000
# 5 0.0000 0.0000 0.0000 0.0000 12.0564 0.0000
# 6 0.0000 0.0000 0.0000 0.0000 0.0000 39.1465
#
#
#
# Elastic Compliance Matrix: (Units=1/GPa)
#
#
# Indices 1 2 3 4 5 6 
#
# 1 0.032872 -0.025844 -0.001235 0.000000 0.000000 0.000000
# 2 -0.025844 0.032872 -0.001235 0.000000 0.000000 0.000000
# 3 -0.001235 -0.001235 0.007009 0.000000 0.000000 0.000000
# 4 0.000000 0.000000 0.000000 0.082943 0.000000 0.000000
# 5 0.000000 0.000000 0.000000 0.000000 0.082943 0.000000
# 6 0.000000 0.000000 0.000000 0.000000 0.000000 0.025545
#
#
# Mechanical properties :
#
#
# Convention : Reuss Voigt Hill
#
# Bulk Modulus (GPa) = 62.02234 62.49150 62.25692
# Shear Modulus (GPa) = 15.32853 25.98643 20.65748
#
# Velocity S-wave (km/s) = 3.01987 3.93198 3.50572
# Velocity P-wave (km/s) = 7.00423 7.60216 7.30932
#
# Compressibility (1/GPa) = 0.01612322
#
# Stress axis : x y z
#
# Youngs Moduli (GPa) = 30.42104 30.42104 142.67343
#
# Poissons Ratio (x) = 0.78621 0.17625
# Poissons Ratio (y) = 0.78621 0.17625
# Poissons Ratio (z) = 0.03758 0.03758
#
# Static dielectric constant tensor:
#      x y z
#    x 3.191960 0.000000 0.000000 
#    y 0.000000 3.191960 0.000000 
#    z 0.000000 0.000000 2.188840 
# 
# 
# High freq. dielectric constant tensor:
#      x y z
#    x 1.653230 0.000000 0.000000 
#    y 0.000000 1.653230 0.000000 
#    z 0.000000 0.000000 1.633310 
# 
# From -- ./inp_files/4369.got.cif
#   From: 2010.03.12/outbox.cif.g09.slc.cpg/sg92_3_cif.got.tgz:4369.got - 2010.04.08 20:41:11.
