data_PCOD8305682
_publ_section_title
;
Structure prediction by ZEFSAII (Michael W. Deem and Ramdas Pophale) SiO2 
 PCOD8305682
Probable space group: P 42 21 2
;
_chemical_formula_sum "Si O2"
_cell_formula_units_Z 48
_cell_length_a 9.088556
_cell_length_b 9.088556
_cell_length_c 29.365258
_cell_angle_alpha 90.000000
_cell_angle_beta 90.000000
_cell_angle_gamma 90.000000
_cell_volume 2425.624641
_symmetry_space_group_name_H-M "P 42 21 2"
_symmetry_group_IT_number 94
_symmetry_cell_setting 'tetragonal'
loop_
_space_group_symop_operation_xyz
x,y,z
1/2-y,1/2+x,1/2+z
-x,-y,z
1/2+y,1/2-x,1/2+z
1/2+x,1/2-y,1/2-z
1/2-x,1/2+y,1/2-z
y,x,-z
-y,-x,-z
loop_
_atom_site_type_symbol
_atom_site_label
_atom_site_fract_x
_atom_site_fract_y
_atom_site_fract_z
Si Si1 0.830917 0.671089 0.458754
Si Si2 0.814966 0.841264 0.873592
Si Si3 0.823248 0.668510 0.958905
Si Si4 0.146302 0.831662 0.871872
Si Si5 0.393430 0.866070 0.284166
Si Si6 0.608324 0.634928 0.273988
O O1 0.743668 0.743668 0.500000
O O2 0.805725 0.497239 0.461052
O O3 0.775407 0.724022 0.408564
O O4 0.998708 0.719018 0.462479
O O5 0.751782 0.735686 0.912997
O O6 0.709876 0.834183 0.829990
O O7 0.978036 0.783416 0.862103
O O8 0.830994 0.006317 0.893038
O O9 0.752586 0.752586 0.000000
O O10 0.212002 0.829374 0.820537
O O11 0.495434 0.756604 0.253243
O O12 0.244542 0.912228 0.257532
O O13 0.500000 0.000000 0.296671
O O14 0.500000 0.500000 0.286844
#
# Coordination Sequence:
#
# PCOD8305682 Si02
#       6
#     8   8   8   8   8   8
#     4  10  21  37  61  90 112 149 202 242 297 358
#     4   9  18  37  59  83 117 152 200 242 290 352
#     4  10  21  38  59  87 119 152 189 246 301 356
#     4   9  17  36  62  83 113 154 200 247 283 347
#     4  11  23  37  61  93 122 165 204 256 311 365
#     4  11  21  41  61  88 126 158 206 253 306 366
#
# _framework density 19.788717999999999
#
# number of rings (size 3 to 8) (size 9 to 14) (size 15 to 20)
#    0.000    2.000    3.333    2.000    0.000    3.333 
#   12.000    0.000    0.000    0.000    0.000    0.000 
#    0.000    0.000    0.000    0.000    0.000    0.000 
#
# Total GULP energy -594716.334461 kJ/mol
# GULP energy per Si atom -12389.923635 kJ/mol
# Density = 1.974368 g / cm^3
# Si number density = 19.788718 Si / 1000 Ang^3
#
#
#
# Elastic Constant Matrix: (Units=GPa)
#
#
# Indices 1 2 3 4 5 6 
#
# 1 51.2866 25.2946 36.9251 0.0000 0.0000 0.0000
# 2 25.2946 51.2866 36.9251 0.0000 0.0000 0.0000
# 3 36.9251 36.9251 112.6648 0.0000 0.0000 0.0000
# 4 0.0000 0.0000 0.0000 23.0340 0.0000 0.0000
# 5 0.0000 0.0000 0.0000 0.0000 23.0340 0.0000
# 6 0.0000 0.0000 0.0000 0.0000 0.0000 24.1770
#
#
#
# Elastic Compliance Matrix: (Units=1/GPa)
#
#
# Indices 1 2 3 4 5 6 
#
# 1 0.028783 -0.009691 -0.006257 0.000000 0.000000 0.000000
# 2 -0.009691 0.028783 -0.006257 0.000000 0.000000 0.000000
# 3 -0.006257 -0.006257 0.012977 0.000000 0.000000 0.000000
# 4 0.000000 0.000000 0.000000 0.043414 0.000000 0.000000
# 5 0.000000 0.000000 0.000000 0.000000 0.043414 0.000000
# 6 0.000000 0.000000 0.000000 0.000000 0.000000 0.041362
#
#
# Mechanical properties :
#
#
# Convention : Reuss Voigt Hill
#
# Bulk Modulus (GPa) = 38.26642 45.94753 42.10697
# Shear Modulus (GPa) = 19.85275 21.78855 20.82065
#
# Velocity S-wave (km/s) = 3.17083 3.32182 3.24720
# Velocity P-wave (km/s) = 5.72582 6.16296 5.94841
#
# Compressibility (1/GPa) = 0.02613258
#
# Stress axis : x y z
#
# Youngs Moduli (GPa) = 34.74297 34.74297 77.05647
#
# Poissons Ratio (x) = 0.33668 0.48217
# Poissons Ratio (y) = 0.33668 0.48217
# Poissons Ratio (z) = 0.21740 0.21740
#
# Static dielectric constant tensor:
#      x y z
#    x 3.619560 0.000000 0.000000 
#    y 0.000000 3.619560 0.000000 
#    z 0.000000 0.000000 3.605670 
# 
# 
# High freq. dielectric constant tensor:
#      x y z
#    x 1.761300 0.000000 0.000000 
#    y 0.000000 1.761300 0.000000 
#    z 0.000000 0.000000 1.768480 
# 
# From -- ./inp_files/5578.got.cif
#   From: 2010.03.12/outbox.cif.g09.slc.cpg/sg94_3_cif.got.tgz:5578.got - 2010.04.08 20:48:32.
