data_PCOD8305799
_publ_section_title
;
Structure prediction by ZEFSAII (Michael W. Deem and Ramdas Pophale) SiO2 
 PCOD8305799
Probable space group: P 42 21 2
;
_chemical_formula_sum "Si O2"
_cell_formula_units_Z 34
_cell_length_a 17.213868
_cell_length_b 17.213868
_cell_length_c 5.045891
_cell_angle_alpha 90.000000
_cell_angle_beta 90.000000
_cell_angle_gamma 90.000000
_cell_volume 1495.184553
_symmetry_space_group_name_H-M "P 42 21 2"
_symmetry_group_IT_number 94
_symmetry_cell_setting 'tetragonal'
loop_
_space_group_symop_operation_xyz
x,y,z
1/2-y,1/2+x,1/2+z
-x,-y,z
1/2+y,1/2-x,1/2+z
1/2+x,1/2-y,1/2-z
1/2-x,1/2+y,1/2-z
y,x,-z
-y,-x,-z
loop_
_atom_site_type_symbol
_atom_site_label
_atom_site_fract_x
_atom_site_fract_y
_atom_site_fract_z
Si Si1 0.374207 0.625794 0.000000
Si Si2 0.532803 0.641856 0.124724
Si Si3 0.601038 0.161004 0.633805
Si Si4 0.687140 0.002927 0.644931
Si Si5 0.804697 0.804697 0.000000
Si Si6 0.000000 0.000000 0.000000
O O1 0.463385 0.640865 0.905112
O O2 0.361785 0.682031 0.250958
O O3 0.541326 0.729686 0.223841
O O4 0.501258 0.580182 0.337567
O O5 0.614522 0.614522 0.000000
O O6 0.627080 0.073042 0.671772
O O7 0.560177 0.161658 0.353147
O O8 0.676583 0.218375 0.612991
O O9 0.540078 0.187163 0.859984
#
# Coordination Sequence:
#
# PCOD8305799 Si02
#       6
#     4   8   8   8   4   2
#     4  12  21  42  71  98 141 192 220 277 356 440
#     4  12  25  40  67 111 145 189 237 287 367 442
#     4  12  27  50  75 105 142 189 244 301 364 416
#     4  12  29  49  75 105 140 193 248 307 353 431
#     4  12  23  44  73 102 144 181 222 293 364 422
#     4  12  24  40  70 102 154 194 216 292 358 464
#
# _framework density 22.739667000000001
#
# number of rings (size 3 to 8) (size 9 to 14) (size 15 to 20)
#    0.000    0.000    7.059    2.118    4.941    2.824 
#    0.000    1.176    0.000    0.000    0.000    0.000 
#    0.000    0.000    0.000    0.000    0.000    0.000 
#
# Total GULP energy -421341.871697 kJ/mol
# GULP energy per Si atom -12392.407991 kJ/mol
# Density = 2.268791 g / cm^3
# Si number density = 22.739667 Si / 1000 Ang^3
#
#
#
# Elastic Constant Matrix: (Units=GPa)
#
#
# Indices 1 2 3 4 5 6 
#
# 1 114.9948 41.1257 15.3344 0.0000 0.0000 0.0000
# 2 41.1257 114.9935 15.3329 0.0000 0.0000 0.0000
# 3 15.3344 15.3329 80.8433 0.0000 0.0000 0.0000
# 4 0.0000 0.0000 0.0000 24.3427 0.0000 0.0000
# 5 0.0000 0.0000 0.0000 0.0000 24.3428 0.0000
# 6 0.0000 0.0000 0.0000 0.0000 0.0000 43.3566
#
#
#
# Elastic Compliance Matrix: (Units=1/GPa)
#
#
# Indices 1 2 3 4 5 6 
#
# 1 0.010095 -0.003442 -0.001262 0.000000 0.000000 0.000000
# 2 -0.003442 0.010095 -0.001262 0.000000 0.000000 0.000000
# 3 -0.001262 -0.001262 0.012848 0.000000 0.000000 0.000000
# 4 0.000000 0.000000 0.000000 0.041080 0.000000 0.000000
# 5 0.000000 0.000000 0.000000 0.000000 0.041080 0.000000
# 6 0.000000 0.000000 0.000000 0.000000 0.000000 0.023065
#
#
# Mechanical properties :
#
#
# Convention : Reuss Voigt Hill
#
# Bulk Modulus (GPa) = 47.37753 50.49085 48.93419
# Shear Modulus (GPa) = 31.80027 34.34433 33.07230
#
# Velocity S-wave (km/s) = 3.74364 3.89051 3.81778
# Velocity P-wave (km/s) = 6.29019 6.51410 6.40312
#
# Compressibility (1/GPa) = 0.02110705
#
# Stress axis : x y z
#
# Youngs Moduli (GPa) = 99.05528 99.05473 77.83127
#
# Poissons Ratio (x) = 0.34096 0.09823
# Poissons Ratio (y) = 0.34097 0.09821
# Poissons Ratio (z) = 0.12501 0.12499
#
# Static dielectric constant tensor:
#      x y z
#    x 4.213110 0.000000 0.000000 
#    y 0.000000 4.213120 0.000000 
#    z 0.000000 0.000000 4.028710 
# 
# 
# High freq. dielectric constant tensor:
#      x y z
#    x 1.899260 0.000000 0.000000 
#    y 0.000000 1.899260 0.000000 
#    z 0.000000 0.000000 1.893960 
# 
# From -- ./inp_files/330.got.cif
#   From: 2010.03.12/outbox.cif.g09.slc.cpg/sg94_1_cif.got.tgz:330.got - 2010.04.08 20:48:32.
