data_PCOD8305644
_publ_section_title
;
Structure prediction by ZEFSAII (Michael W. Deem and Ramdas Pophale) SiO2 
 PCOD8305644
Probable space group: P 42 21 2
;
_chemical_formula_sum "Si O2"
_cell_formula_units_Z 48
_cell_length_a 8.653852
_cell_length_b 8.653852
_cell_length_c 31.346045
_cell_angle_alpha 90.000000
_cell_angle_beta 90.000000
_cell_angle_gamma 90.000000
_cell_volume 2347.478805
_symmetry_space_group_name_H-M "P 42 21 2"
_symmetry_group_IT_number 94
_symmetry_cell_setting 'tetragonal'
loop_
_space_group_symop_operation_xyz
x,y,z
1/2-y,1/2+x,1/2+z
-x,-y,z
1/2+y,1/2-x,1/2+z
1/2+x,1/2-y,1/2-z
1/2-x,1/2+y,1/2-z
y,x,-z
-y,-x,-z
loop_
_atom_site_type_symbol
_atom_site_label
_atom_site_fract_x
_atom_site_fract_y
_atom_site_fract_z
Si Si1 0.237868 0.805946 0.367476
Si Si2 0.757383 0.288417 0.048280
Si Si3 0.969113 0.317441 0.884747
Si Si4 0.500000 0.500000 0.916945
Si Si5 0.125214 0.704513 0.792951
Si Si6 0.500000 0.000000 0.409081
Si Si7 0.623787 0.779407 0.221736
O O1 0.265089 0.635874 0.387765
O O2 0.220365 0.799687 0.316452
O O3 0.381137 0.914745 0.378077
O O4 0.081541 0.874230 0.387257
O O5 0.726503 0.132982 0.074899
O O6 0.619412 0.410750 0.052917
O O7 0.916383 0.372807 0.061290
O O8 0.768571 0.231430 0.000000
O O9 0.879579 0.254249 0.843033
O O10 0.000000 0.500000 0.879133
O O11 0.196283 0.846030 0.766696
O O12 0.237415 0.557767 0.786995
O O13 0.957059 0.670110 0.774635
#
# Coordination Sequence:
#
# PCOD8305644 Si02
#       7
#     8   8   8   4   8   4   8
#     4  10  21  41  65  90 127 169 211 255 321 374
#     4  11  24  40  66  96 129 165 213 266 327 381
#     4  11  20  43  69  86 123 180 211 251 316 408
#     4  10  19  38  66  94 128 172 212 264 307 378
#     4  10  21  38  58  88 120 161 212 248 313 367
#     4  10  26  42  58 100 128 152 210 274 320 380
#     4  10  21  37  58  87 122 159 209 259 298 376
#
# _framework density 20.447467
#
# number of rings (size 3 to 8) (size 9 to 14) (size 15 to 20)
#    0.000    1.667    5.000    0.250    1.167    8.000 
#    0.000    5.000    0.000    0.000    0.000    0.000 
#    0.000    0.000    0.000    0.000    0.000    0.000 
#
# Total GULP energy -595346.122483 kJ/mol
# GULP energy per Si atom -12403.044218 kJ/mol
# Density = 2.040093 g / cm^3
# Si number density = 20.447467 Si / 1000 Ang^3
#
#
#
# Elastic Constant Matrix: (Units=GPa)
#
#
# Indices 1 2 3 4 5 6 
#
# 1 68.4008 25.7317 47.6682 0.0000 0.0000 0.0000
# 2 25.7317 68.4008 47.6682 0.0000 0.0000 0.0000
# 3 47.6682 47.6682 147.2546 0.0000 0.0000 0.0000
# 4 0.0000 0.0000 0.0000 24.5163 0.0000 0.0000
# 5 0.0000 0.0000 0.0000 0.0000 24.5162 0.0000
# 6 0.0000 0.0000 0.0000 0.0000 0.0000 33.5124
#
#
#
# Elastic Compliance Matrix: (Units=1/GPa)
#
#
# Indices 1 2 3 4 5 6 
#
# 1 0.019621 -0.003816 -0.005116 0.000000 0.000000 0.000000
# 2 -0.003816 0.019621 -0.005116 0.000000 0.000000 0.000000
# 3 -0.005116 -0.005116 0.010103 0.000000 0.000000 0.000000
# 4 0.000000 0.000000 0.000000 0.040789 0.000000 0.000000
# 5 0.000000 0.000000 0.000000 0.000000 0.040789 0.000000
# 6 0.000000 0.000000 0.000000 0.000000 0.000000 0.029840
#
#
# Mechanical properties :
#
#
# Convention : Reuss Voigt Hill
#
# Bulk Modulus (GPa) = 47.06257 58.46581 52.76419
# Shear Modulus (GPa) = 25.51777 27.37485 26.44631
#
# Velocity S-wave (km/s) = 3.53649 3.66292 3.60026
# Velocity P-wave (km/s) = 6.30412 6.82236 6.56835
#
# Compressibility (1/GPa) = 0.02124831
#
# Stress axis : x y z
#
# Youngs Moduli (GPa) = 50.96683 50.96683 98.97680
#
# Poissons Ratio (x) = 0.19447 0.50639
# Poissons Ratio (y) = 0.19447 0.50639
# Poissons Ratio (z) = 0.26076 0.26076
#
# Static dielectric constant tensor:
#      x y z
#    x 3.731980 0.000000 0.000000 
#    y 0.000000 3.731980 0.000000 
#    z 0.000000 0.000000 3.516970 
# 
# 
# High freq. dielectric constant tensor:
#      x y z
#    x 1.800250 0.000000 0.000000 
#    y 0.000000 1.800250 0.000000 
#    z 0.000000 0.000000 1.792000 
# 
# From -- ./inp_files/5639.got.cif
#   From: 2010.03.12/outbox.cif.g09.slc.cpg/sg94_3_cif.got.tgz:5639.got - 2010.04.08 20:48:32.
