data_PCOD8305406
_publ_section_title
;
Structure prediction by ZEFSAII (Michael W. Deem and Ramdas Pophale) SiO2 
 PCOD8305406
Probable space group: P 41 21 2
;
_chemical_formula_sum "Si O2"
_cell_formula_units_Z 56
_cell_length_a 13.558163
_cell_length_b 13.558163
_cell_length_c 13.812901
_cell_angle_alpha 90.000000
_cell_angle_beta 90.000000
_cell_angle_gamma 90.000000
_cell_volume 2539.139729
_symmetry_space_group_name_H-M "P 41 21 2"
_symmetry_group_IT_number 92
_symmetry_cell_setting 'tetragonal'
loop_
_space_group_symop_operation_xyz
x,y,z
1/2-y,1/2+x,1/4+z
-x,-y,1/2+z
1/2+y,1/2-x,3/4+z
1/2+x,1/2-y,3/4-z
1/2-x,1/2+y,1/4-z
y,x,-z
-y,-x,1/2-z
loop_
_atom_site_type_symbol
_atom_site_label
_atom_site_fract_x
_atom_site_fract_y
_atom_site_fract_z
Si Si1 0.779885 0.068521 0.419083
Si Si2 0.241892 0.926237 0.584313
Si Si3 0.788307 0.399796 0.506158
Si Si4 0.738600 0.408135 0.293724
Si Si5 0.128768 0.453765 0.489237
Si Si6 0.067871 0.647475 0.403815
Si Si7 0.708080 0.355204 0.851242
O O1 0.846594 0.160186 0.387335
O O2 0.680102 0.077855 0.359490
O O3 0.746151 0.066519 0.531229
O O4 0.837002 0.965972 0.396633
O O5 0.328189 0.876525 0.522253
O O6 0.288012 0.979692 0.679281
O O7 0.185490 0.005600 0.517001
O O8 0.726707 0.426960 0.408496
O O9 0.835963 0.490318 0.566376
O O10 0.708245 0.341178 0.566686
O O11 0.694982 0.305019 0.250000
O O12 0.855226 0.425488 0.274190
O O13 0.052569 0.545357 0.467458
O O14 0.175230 0.634308 0.360137
O O15 0.696177 0.303824 0.750000
#
# Coordination Sequence:
#
# PCOD8305406 Si02
#       7
#     8   8   8   8   8   8   8
#     4  11  22  40  71  99 135 183 233 290 357 438
#     4  11  24  43  68 100 144 183 237 287 361 428
#     4  11  25  45  70 106 142 185 237 308 361 435
#     4  11  26  44  68  97 148 187 234 292 358 434
#     4  10  23  41  69  99 136 181 234 295 351 423
#     4  11  24  41  72 102 134 179 243 292 367 429
#     4  11  24  43  70  95 142 183 234 296 369 434
#
# _framework density 22.054715999999999
#
# number of rings (size 3 to 8) (size 9 to 14) (size 15 to 20)
#    0.000    1.143    2.857    3.000    6.000    5.143 
#    0.000    0.000    0.000    0.000    0.000    0.000 
#    0.000    0.000    0.000    0.000    0.000    0.000 
#
# Total GULP energy -693945.168425 kJ/mol
# GULP energy per Si atom -12391.878008 kJ/mol
# Density = 2.200452 g / cm^3
# Si number density = 22.054716 Si / 1000 Ang^3
#
#
#
# Elastic Constant Matrix: (Units=GPa)
#
#
# Indices 1 2 3 4 5 6 
#
# 1 91.8978 39.2933 36.0276 0.0000 0.0000 0.0000
# 2 39.2933 91.8988 36.0287 0.0000 0.0000 0.0000
# 3 36.0276 36.0287 131.4699 0.0000 0.0000 0.0000
# 4 0.0000 0.0000 0.0000 27.2695 0.0000 0.0000
# 5 0.0000 0.0000 0.0000 0.0000 27.2703 0.0000
# 6 0.0000 0.0000 0.0000 0.0000 0.0000 14.3661
#
#
#
# Elastic Compliance Matrix: (Units=1/GPa)
#
#
# Indices 1 2 3 4 5 6 
#
# 1 0.013991 -0.005018 -0.002459 0.000000 0.000000 0.000000
# 2 -0.005018 0.013991 -0.002459 0.000000 0.000000 0.000000
# 3 -0.002459 -0.002459 0.008954 0.000000 0.000000 0.000000
# 4 0.000000 0.000000 0.000000 0.036671 0.000000 0.000000
# 5 0.000000 0.000000 0.000000 0.000000 0.036670 0.000000
# 6 0.000000 0.000000 0.000000 0.000000 0.000000 0.069608
#
#
# Mechanical properties :
#
#
# Convention : Reuss Voigt Hill
#
# Bulk Modulus (GPa) = 58.60236 59.77397 59.18816
# Shear Modulus (GPa) = 24.33722 27.37562 25.85642
#
# Velocity S-wave (km/s) = 3.32549 3.52697 3.42771
# Velocity P-wave (km/s) = 6.43228 6.61419 6.52387
#
# Compressibility (1/GPa) = 0.01706416
#
# Stress axis : x y z
#
# Youngs Moduli (GPa) = 71.47274 71.47308 111.68164
#
# Poissons Ratio (x) = 0.35867 0.27461
# Poissons Ratio (y) = 0.35867 0.27463
# Poissons Ratio (z) = 0.17574 0.17576
#
# Static dielectric constant tensor:
#      x y z
#    x 3.930110 0.000000 0.000000 
#    y 0.000000 3.930090 0.000000 
#    z 0.000000 0.000000 2.292780 
# 
# 
# High freq. dielectric constant tensor:
#      x y z
#    x 1.859140 0.000000 0.000000 
#    y 0.000000 1.859140 0.000000 
#    z 0.000000 0.000000 1.888010 
# 
# From -- ./inp_files/2271.got.cif
#   From: 2010.03.12/outbox.cif.g09.slc.cpg/sg92_2_cif.got.tgz:2271.got - 2010.04.08 20:41:11.
