data_PCOD8305835
_publ_section_title
;
Structure prediction by ZEFSAII (Michael W. Deem and Ramdas Pophale) SiO2 
 PCOD8305835
Probable space group: P 43 2 2
;
_chemical_formula_sum "Si O2"
_cell_formula_units_Z 32
_cell_length_a 13.815907
_cell_length_b 13.815907
_cell_length_c 8.216485
_cell_angle_alpha 90.000000
_cell_angle_beta 90.000000
_cell_angle_gamma 90.000000
_cell_volume 1568.356792
_symmetry_space_group_name_H-M "P 43 2 2"
_symmetry_group_IT_number 95
_symmetry_cell_setting 'tetragonal'
loop_
_space_group_symop_operation_xyz
x,y,z
-y,x,3/4+z
-x,-y,1/2+z
y,-x,1/4+z
x,-y,1/2-z
-x,y,-z
y,x,1/4-z
-y,-x,3/4-z
loop_
_atom_site_type_symbol
_atom_site_label
_atom_site_fract_x
_atom_site_fract_y
_atom_site_fract_z
Si Si1 0.245838 0.396245 0.173673
Si Si2 0.444393 0.910047 0.157466
Si Si3 0.934237 0.744956 0.238723
Si Si4 0.761896 0.135376 0.138582
O O1 0.269791 0.500000 0.250000
O O2 0.347563 0.347563 0.125000
O O3 0.192415 0.322187 0.294909
O O4 0.180902 0.418278 0.017179
O O5 0.499181 0.000000 0.250000
O O6 0.500000 0.869965 0.000000
O O7 0.349186 0.961562 0.089245
O O8 0.863090 0.808237 0.350122
O O9 0.037114 0.794903 0.202381
O O10 0.882984 0.718309 0.067744
#
# Coordination Sequence:
#
# PCOD8305835 Si02
#       4
#     8   8   8   8
#     4  12  25  45  68  94 128 171 221 277 340 399
#     4  12  24  38  65 101 129 167 218 276 338 393
#     4  10  21  38  67  95 135 179 219 270 321 391
#     4  10  21  40  67  96 138 178 223 269 324 391
#
# _framework density 20.403521000000001
#
# number of rings (size 3 to 8) (size 9 to 14) (size 15 to 20)
#    0.000    1.000    5.000    2.250    3.500    0.000 
#    0.000    1.250   44.000    0.000    0.000    0.000 
#    0.000    0.000    0.000    0.000    0.000    0.000 
#
# Total GULP energy -396651.583912 kJ/mol
# GULP energy per Si atom -12395.361997 kJ/mol
# Density = 2.035708 g / cm^3
# Si number density = 20.403521 Si / 1000 Ang^3
#
#
#
# Elastic Constant Matrix: (Units=GPa)
#
#
# Indices 1 2 3 4 5 6 
#
# 1 120.5634 68.8999 61.4705 0.0000 0.0000 0.0000
# 2 68.8999 120.5634 61.4705 0.0000 0.0000 0.0000
# 3 61.4705 61.4705 109.1109 0.0000 0.0000 0.0000
# 4 0.0000 0.0000 0.0000 36.2458 0.0000 0.0000
# 5 0.0000 0.0000 0.0000 0.0000 36.2458 0.0000
# 6 0.0000 0.0000 0.0000 0.0000 0.0000 15.7266
#
#
#
# Elastic Compliance Matrix: (Units=1/GPa)
#
#
# Indices 1 2 3 4 5 6 
#
# 1 0.013838 -0.005518 -0.004687 0.000000 0.000000 0.000000
# 2 -0.005518 0.013838 -0.004687 0.000000 0.000000 0.000000
# 3 -0.004687 -0.004687 0.014446 0.000000 0.000000 0.000000
# 4 0.000000 0.000000 0.000000 0.027589 0.000000 0.000000
# 5 0.000000 0.000000 0.000000 0.000000 0.027589 0.000000
# 6 0.000000 0.000000 0.000000 0.000000 0.000000 0.063587
#
#
# Mechanical properties :
#
#
# Convention : Reuss Voigt Hill
#
# Bulk Modulus (GPa) = 81.05695 81.54660 81.30177
# Shear Modulus (GPa) = 25.66953 28.20343 26.93648
#
# Velocity S-wave (km/s) = 3.55081 3.72194 3.63738
# Velocity P-wave (km/s) = 7.52490 7.65011 7.58776
#
# Compressibility (1/GPa) = 0.01233701
#
# Stress axis : x y z
#
# Youngs Moduli (GPa) = 72.26632 72.26632 69.22328
#
# Poissons Ratio (x) = 0.39879 0.32445
# Poissons Ratio (y) = 0.39879 0.32445
# Poissons Ratio (z) = 0.33871 0.33871
#
# Static dielectric constant tensor:
#      x y z
#    x 3.682740 0.000000 0.000000 
#    y 0.000000 3.682740 0.000000 
#    z 0.000000 0.000000 4.102160 
# 
# 
# High freq. dielectric constant tensor:
#      x y z
#    x 1.789000 0.000000 0.000000 
#    y 0.000000 1.789000 0.000000 
#    z 0.000000 0.000000 1.820190 
# 
# From -- ./inp_files/2090.got.cif
#   From: 2010.03.12/outbox.cif.g09.slc.cpg/sg95_2_cif.got.tgz:2090.got - 2010.04.08 20:51:55.
